
 OpenBabel03272504543D

 25 27  0  0  1  0  0  0  0  0999 V2000
   36.6580   21.3430   33.5460 C   0  0  0  0  0  0  0  0  0  0  0  0
   35.6960   20.5700   34.2190 C   0  0  0  0  0  0  0  0  0  0  0  0
   35.6700   20.7050   35.5970 C   0  0  0  0  0  0  0  0  0  0  0  0
   36.5440   21.5490   36.2280 N   0  0  0  0  0  0  0  0  0  0  0  0
   37.4590   22.2800   35.5360 C   0  0  0  0  0  0  0  0  0  0  0  0
   37.5110   22.1690   34.1850 N   0  0  0  0  0  0  0  0  0  0  0  0
   35.0290   19.9220   33.7070 H   0  0  0  0  0  0  0  0  0  0  0  0
   34.9440   20.1250   36.1500 H   0  0  0  0  0  0  0  0  0  0  0  0
   36.6930   21.2370   32.0420 C   0  0  0  0  0  0  0  0  0  0  0  0
   35.5080   20.8430   31.2890 C   0  0  0  0  0  0  0  0  0  0  0  0
   35.8530   22.3060   31.3610 C   0  0  0  0  0  0  0  0  0  0  0  0
   37.7350   21.1120   31.6510 H   0  0  0  0  0  0  0  0  0  0  0  0
   34.6170   20.5190   31.9040 H   0  0  0  0  0  0  0  0  0  0  0  0
   35.5920   20.2760   30.3530 H   0  0  0  0  0  0  0  0  0  0  0  0
   35.2610   23.0080   31.9560 H   0  0  0  0  0  0  0  0  0  0  0  0
   36.3070   22.6920   30.4270 H   0  0  0  0  0  0  0  0  0  0  0  0
   38.2480   23.0200   37.7790 C   0  0  2  0  0  3  0  0  0  0  0  0
   38.3800   23.1780   36.2830 C   0  0  2  0  0  3  0  0  0  0  0  0
   38.0910   24.6350   36.0540 C   0  0  0  0  0  3  0  0  0  0  0  0
   38.7370   25.0090   35.2420 H   0  0  0  0  0  0  0  0  0  0  0  0
   38.3090   25.2920   37.2460 O   0  0  0  0  0  0  0  0  0  0  0  0
   37.9410   24.4020   38.2630 C   0  0  0  0  0  3  0  0  0  0  0  0
   36.8670   24.4880   38.5160 H   0  0  0  0  0  0  0  0  0  0  0  0
   39.4320   22.6050   38.3890 O   0  0  0  0  0  0  0  0  0  0  0  0
   40.1760   22.8380   37.7530 H   0  0  0  0  0  0  0  0  0  0  0  0
  1  6  2  0  0  0  0
  1  2  1  0  0  0  0
  2  3  2  0  0  0  0
  3  8  1  0  0  0  0
  3  4  1  0  0  0  0
  5  4  2  0  0  0  0
  6  5  1  0  0  0  0
  7  2  1  0  0  0  0
  9  1  1  0  0  0  0
 10 11  1  0  0  0  0
 10 13  1  0  0  0  0
 10  9  1  0  0  0  0
 11 15  1  0  0  0  0
 11  9  1  0  0  0  0
 12  9  1  0  0  0  0
 14 10  1  0  0  0  0
 16 11  1  0  0  0  0
 17 22  1  0  0  0  0
 17 24  1  1  0  0  0
 18  5  1  6  0  0  0
 18 17  1  0  0  0  0
 19 18  1  0  0  0  0
 19 21  1  0  0  0  0
 20 19  1  0  0  0  0
 21 22  1  0  0  0  0
 22 23  1  0  0  0  0
 25 24  1  0  0  0  0
M  END
>  <minimizedAffinity>
-4.81664371

$$$$

 OpenBabel03272504543D

 25 27  0  0  1  0  0  0  0  0999 V2000
   37.0500   27.6250   34.4000 C   0  0  0  0  0  0  0  0  0  0  0  0
   36.2540   28.7840   34.3950 C   0  0  0  0  0  0  0  0  0  0  0  0
   35.4940   28.9890   33.2560 C   0  0  0  0  0  0  0  0  0  0  0  0
   35.5410   28.0950   32.2190 N   0  0  0  0  0  0  0  0  0  0  0  0
   36.3260   26.9850   32.2670 C   0  0  0  0  0  0  0  0  0  0  0  0
   37.0830   26.7560   33.3690 N   0  0  0  0  0  0  0  0  0  0  0  0
   36.2350   29.4620   35.2110 H   0  0  0  0  0  0  0  0  0  0  0  0
   34.8690   29.8710   33.2140 H   0  0  0  0  0  0  0  0  0  0  0  0
   37.8690   27.3600   35.6380 C   0  0  0  0  0  0  0  0  0  0  0  0
   38.4150   26.0350   35.9080 C   0  0  0  0  0  0  0  0  0  0  0  0
   39.3300   27.0760   35.3220 C   0  0  0  0  0  0  0  0  0  0  0  0
   37.6820   28.1190   36.4390 H   0  0  0  0  0  0  0  0  0  0  0  0
   38.0920   25.2140   35.2010 H   0  0  0  0  0  0  0  0  0  0  0  0
   38.5390   25.6700   36.9360 H   0  0  0  0  0  0  0  0  0  0  0  0
   39.6720   27.0240   34.2840 H   0  0  0  0  0  0  0  0  0  0  0  0
   40.0310   27.5060   36.0640 H   0  0  0  0  0  0  0  0  0  0  0  0
   35.0960   25.1880   31.0600 C   0  0  2  0  0  3  0  0  0  0  0  0
   36.3320   26.0550   31.1070 C   0  0  2  0  0  3  0  0  0  0  0  0
   37.4600   25.0620   31.1560 C   0  0  0  0  0  3  0  0  0  0  0  0
   38.3090   25.4500   30.5690 H   0  0  0  0  0  0  0  0  0  0  0  0
   36.9800   23.8680   30.6620 O   0  0  0  0  0  0  0  0  0  0  0  0
   35.6350   23.7920   31.0430 C   0  0  0  0  0  3  0  0  0  0  0  0
   35.5140   23.3250   32.0400 H   0  0  0  0  0  0  0  0  0  0  0  0
   34.3450   25.3720   29.8980 O   0  0  0  0  0  0  0  0  0  0  0  0
   34.9680   25.7730   29.2190 H   0  0  0  0  0  0  0  0  0  0  0  0
  1  9  1  0  0  0  0
  2  1  1  0  0  0  0
  2  7  1  0  0  0  0
  3  2  2  0  0  0  0
  4  5  2  0  0  0  0
  4  3  1  0  0  0  0
  5  6  1  0  0  0  0
  6  1  2  0  0  0  0
  8  3  1  0  0  0  0
  9 10  1  0  0  0  0
  9 12  1  0  0  0  0
 10 14  1  0  0  0  0
 11  9  1  0  0  0  0
 11 10  1  0  0  0  0
 11 16  1  0  0  0  0
 13 10  1  0  0  0  0
 15 11  1  0  0  0  0
 17 24  1  6  0  0  0
 17 18  1  0  0  0  0
 18 19  1  0  0  0  0
 18  5  1  1  0  0  0
 20 19  1  0  0  0  0
 21 22  1  0  0  0  0
 21 19  1  0  0  0  0
 22 17  1  0  0  0  0
 22 23  1  0  0  0  0
 25 24  1  0  0  0  0
M  END
>  <minimizedAffinity>
-4.80398369

$$$$

 OpenBabel03272504543D

 25 27  0  0  1  0  0  0  0  0999 V2000
   38.0720   25.3530   35.4250 C   0  0  0  0  0  0  0  0  0  0  0  0
   37.9120   26.6790   35.8660 C   0  0  0  0  0  0  0  0  0  0  0  0
   37.4140   27.5690   34.9300 C   0  0  0  0  0  0  0  0  0  0  0  0
   37.1070   27.1470   33.6640 N   0  0  0  0  0  0  0  0  0  0  0  0
   37.2770   25.8530   33.2800 C   0  0  0  0  0  0  0  0  0  0  0  0
   37.7640   24.9560   34.1730 N   0  0  0  0  0  0  0  0  0  0  0  0
   38.1570   26.9820   36.8530 H   0  0  0  0  0  0  0  0  0  0  0  0
   37.2770   28.5990   35.2320 H   0  0  0  0  0  0  0  0  0  0  0  0
   38.5890   24.3540   36.4290 C   0  0  0  0  0  0  0  0  0  0  0  0
   38.1180   24.3640   37.8090 C   0  0  0  0  0  0  0  0  0  0  0  0
   37.5260   23.3560   36.8610 C   0  0  0  0  0  0  0  0  0  0  0  0
   39.5730   23.9170   36.1230 H   0  0  0  0  0  0  0  0  0  0  0  0
   37.4410   25.2230   38.0940 H   0  0  0  0  0  0  0  0  0  0  0  0
   38.7740   24.0620   38.6360 H   0  0  0  0  0  0  0  0  0  0  0  0
   36.4990   23.4460   36.4920 H   0  0  0  0  0  0  0  0  0  0  0  0
   37.9210   22.3320   37.0130 H   0  0  0  0  0  0  0  0  0  0  0  0
   35.7900   26.2860   31.3300 C   0  0  2  0  0  3  0  0  0  0  0  0
   36.9240   25.4600   31.8900 C   0  0  2  0  0  3  0  0  0  0  0  0
   36.4190   24.0480   31.7900 C   0  0  0  0  0  3  0  0  0  0  0  0
   37.2580   23.3800   31.5330 H   0  0  0  0  0  0  0  0  0  0  0  0
   35.4220   24.0330   30.8380 O   0  0  0  0  0  0  0  0  0  0  0  0
   34.7690   25.2690   30.9260 C   0  0  0  0  0  3  0  0  0  0  0  0
   33.9420   25.2460   31.6620 H   0  0  0  0  0  0  0  0  0  0  0  0
   36.1520   27.0060   30.1910 O   0  0  0  0  0  0  0  0  0  0  0  0
   36.9640   26.5500   29.8130 H   0  0  0  0  0  0  0  0  0  0  0  0
  1  2  1  0  0  0  0
  1  9  1  0  0  0  0
  2  7  1  0  0  0  0
  3  8  1  0  0  0  0
  3  2  2  0  0  0  0
  4  3  1  0  0  0  0
  5  4  2  0  0  0  0
  5  6  1  0  0  0  0
  6  1  2  0  0  0  0
  9 11  1  0  0  0  0
  9 10  1  0  0  0  0
 10 13  1  0  0  0  0
 10 14  1  0  0  0  0
 11 16  1  0  0  0  0
 11 10  1  0  0  0  0
 12  9  1  0  0  0  0
 15 11  1  0  0  0  0
 17 24  1  6  0  0  0
 17 18  1  0  0  0  0
 18  5  1  1  0  0  0
 19 18  1  0  0  0  0
 20 19  1  0  0  0  0
 21 22  1  0  0  0  0
 21 19  1  0  0  0  0
 22 17  1  0  0  0  0
 22 23  1  0  0  0  0
 25 24  1  0  0  0  0
M  END
>  <minimizedAffinity>
-4.76300812

$$$$

 OpenBabel03272504543D

 25 27  0  0  1  0  0  0  0  0999 V2000
   38.5580   24.8670   36.3080 C   0  0  0  0  0  0  0  0  0  0  0  0
   37.9430   24.9580   37.5690 C   0  0  0  0  0  0  0  0  0  0  0  0
   38.2550   23.9510   38.4660 C   0  0  0  0  0  0  0  0  0  0  0  0
   39.1140   22.9450   38.1110 N   0  0  0  0  0  0  0  0  0  0  0  0
   39.6870   22.8970   36.8780 C   0  0  0  0  0  0  0  0  0  0  0  0
   39.4020   23.8680   35.9760 N   0  0  0  0  0  0  0  0  0  0  0  0
   37.2800   25.7480   37.8210 H   0  0  0  0  0  0  0  0  0  0  0  0
   37.8000   23.9860   39.4470 H   0  0  0  0  0  0  0  0  0  0  0  0
   38.2580   25.9630   35.3170 C   0  0  0  0  0  0  0  0  0  0  0  0
   38.1030   27.3460   35.7520 C   0  0  0  0  0  0  0  0  0  0  0  0
   39.4180   26.9330   35.1490 C   0  0  0  0  0  0  0  0  0  0  0  0
   37.8120   25.5670   34.3700 H   0  0  0  0  0  0  0  0  0  0  0  0
   38.1090   27.5170   36.8690 H   0  0  0  0  0  0  0  0  0  0  0  0
   37.4210   28.0330   35.2330 H   0  0  0  0  0  0  0  0  0  0  0  0
   40.3220   26.8250   35.7570 H   0  0  0  0  0  0  0  0  0  0  0  0
   39.5480   27.2850   34.1070 H   0  0  0  0  0  0  0  0  0  0  0  0
   41.8010   21.7280   37.4860 C   0  0  2  0  0  3  0  0  0  0  0  0
   40.6120   21.7770   36.5560 C   0  0  2  0  0  3  0  0  0  0  0  0
   41.2320   21.9030   35.1930 C   0  0  0  0  0  3  0  0  0  0  0  0
   40.6330   21.3270   34.4670 H   0  0  0  0  0  0  0  0  0  0  0  0
   42.5290   21.4440   35.2860 O   0  0  0  0  0  0  0  0  0  0  0  0
   42.9800   21.7860   36.5670 C   0  0  0  0  0  3  0  0  0  0  0  0
   43.4310   22.7970   36.5900 H   0  0  0  0  0  0  0  0  0  0  0  0
   41.8780   20.5360   38.2080 O   0  0  0  0  0  0  0  0  0  0  0  0
   41.3340   19.8600   37.6990 H   0  0  0  0  0  0  0  0  0  0  0  0
  1  2  1  0  0  0  0
  2  7  1  0  0  0  0
  2  3  2  0  0  0  0
  3  8  1  0  0  0  0
  4  3  1  0  0  0  0
  5  4  2  0  0  0  0
  6  1  2  0  0  0  0
  6  5  1  0  0  0  0
  9 10  1  0  0  0  0
  9  1  1  0  0  0  0
 10 13  1  0  0  0  0
 11  9  1  0  0  0  0
 11 10  1  0  0  0  0
 11 15  1  0  0  0  0
 12  9  1  0  0  0  0
 14 10  1  0  0  0  0
 16 11  1  0  0  0  0
 17 24  1  6  0  0  0
 18  5  1  1  0  0  0
 18 17  1  0  0  0  0
 19 21  1  0  0  0  0
 19 18  1  0  0  0  0
 20 19  1  0  0  0  0
 21 22  1  0  0  0  0
 22 23  1  0  0  0  0
 22 17  1  0  0  0  0
 25 24  1  0  0  0  0
M  END
>  <minimizedAffinity>
-4.75566483

$$$$

 OpenBabel03272504543D

 25 27  0  0  1  0  0  0  0  0999 V2000
   37.9310   26.0400   34.0900 C   0  0  0  0  0  0  0  0  0  0  0  0
   37.9710   27.1750   34.9210 C   0  0  0  0  0  0  0  0  0  0  0  0
   38.2250   26.9330   36.2600 C   0  0  0  0  0  0  0  0  0  0  0  0
   38.4190   25.6550   36.7110 N   0  0  0  0  0  0  0  0  0  0  0  0
   38.3710   24.5850   35.8710 C   0  0  0  0  0  0  0  0  0  0  0  0
   38.1240   24.7880   34.5530 N   0  0  0  0  0  0  0  0  0  0  0  0
   37.8180   28.1560   34.5470 H   0  0  0  0  0  0  0  0  0  0  0  0
   38.2630   27.7810   36.9300 H   0  0  0  0  0  0  0  0  0  0  0  0
   37.6820   26.2730   32.6220 C   0  0  0  0  0  0  0  0  0  0  0  0
   37.8790   27.5890   32.0270 C   0  0  0  0  0  0  0  0  0  0  0  0
   38.9610   26.5590   31.8500 C   0  0  0  0  0  0  0  0  0  0  0  0
   37.0070   25.4970   32.1790 H   0  0  0  0  0  0  0  0  0  0  0  0
   38.1140   28.4280   32.7470 H   0  0  0  0  0  0  0  0  0  0  0  0
   37.2640   27.9300   31.1830 H   0  0  0  0  0  0  0  0  0  0  0  0
   39.9190   26.6340   32.3750 H   0  0  0  0  0  0  0  0  0  0  0  0
   38.9720   26.1090   30.8380 H   0  0  0  0  0  0  0  0  0  0  0  0
   39.2270   23.2550   37.7950 C   0  0  2  0  0  3  0  0  0  0  0  0
   38.5910   23.2220   36.4250 C   0  0  2  0  0  3  0  0  0  0  0  0
   39.5510   22.4050   35.6070 C   0  0  0  0  0  3  0  0  0  0  0  0
   38.9810   21.7850   34.8940 H   0  0  0  0  0  0  0  0  0  0  0  0
   40.2980   21.6470   36.4840 O   0  0  0  0  0  0  0  0  0  0  0  0
   40.4600   22.4210   37.6400 C   0  0  0  0  0  3  0  0  0  0  0  0
   41.3540   23.0710   37.5790 H   0  0  0  0  0  0  0  0  0  0  0  0
   38.4320   22.6660   38.7780 O   0  0  0  0  0  0  0  0  0  0  0  0
   37.7890   22.0600   38.2980 H   0  0  0  0  0  0  0  0  0  0  0  0
  1  6  2  0  0  0  0
  1  2  1  0  0  0  0
  2  3  2  0  0  0  0
  3  4  1  0  0  0  0
  3  8  1  0  0  0  0
  5  4  2  0  0  0  0
  6  5  1  0  0  0  0
  7  2  1  0  0  0  0
  9  1  1  0  0  0  0
 10  9  1  0  0  0  0
 10 13  1  0  0  0  0
 11 10  1  0  0  0  0
 11 15  1  0  0  0  0
 11  9  1  0  0  0  0
 12  9  1  0  0  0  0
 14 10  1  0  0  0  0
 16 11  1  0  0  0  0
 17 24  1  1  0  0  0
 18  5  1  6  0  0  0
 18 17  1  0  0  0  0
 19 18  1  0  0  0  0
 19 21  1  0  0  0  0
 20 19  1  0  0  0  0
 21 22  1  0  0  0  0
 22 17  1  0  0  0  0
 23 22  1  0  0  0  0
 25 24  1  0  0  0  0
M  END
>  <minimizedAffinity>
-4.55305767

$$$$

 OpenBabel03272504543D

 25 27  0  0  1  0  0  0  0  0999 V2000
   37.4070   25.5640   33.0890 C   0  0  0  0  0  0  0  0  0  0  0  0
   37.2850   26.8390   33.6680 C   0  0  0  0  0  0  0  0  0  0  0  0
   37.5520   26.9150   35.0240 C   0  0  0  0  0  0  0  0  0  0  0  0
   37.9120   25.7940   35.7240 N   0  0  0  0  0  0  0  0  0  0  0  0
   38.0190   24.5780   35.1230 C   0  0  0  0  0  0  0  0  0  0  0  0
   37.7630   24.4710   33.7950 N   0  0  0  0  0  0  0  0  0  0  0  0
   37.0050   27.6940   33.1030 H   0  0  0  0  0  0  0  0  0  0  0  0
   37.4680   27.8800   35.5050 H   0  0  0  0  0  0  0  0  0  0  0  0
   37.1480   25.4540   31.6080 C   0  0  0  0  0  0  0  0  0  0  0  0
   37.0150   24.1530   30.9630 C   0  0  0  0  0  0  0  0  0  0  0  0
   35.7600   24.9140   31.2960 C   0  0  0  0  0  0  0  0  0  0  0  0
   37.4450   26.3820   31.0560 H   0  0  0  0  0  0  0  0  0  0  0  0
   37.2300   23.2550   31.6140 H   0  0  0  0  0  0  0  0  0  0  0  0
   37.3370   23.9980   29.9250 H   0  0  0  0  0  0  0  0  0  0  0  0
   35.0940   24.5990   32.1050 H   0  0  0  0  0  0  0  0  0  0  0  0
   35.2930   25.3890   30.4120 H   0  0  0  0  0  0  0  0  0  0  0  0
   37.6580   23.3300   37.2470 C   0  0  2  0  0  3  0  0  0  0  0  0
   38.4130   23.4000   35.9410 C   0  0  2  0  0  3  0  0  0  0  0  0
   39.8550   23.4380   36.3660 C   0  0  0  0  0  3  0  0  0  0  0  0
   40.4600   22.8630   35.6440 H   0  0  0  0  0  0  0  0  0  0  0  0
   39.9220   22.9180   37.6410 O   0  0  0  0  0  0  0  0  0  0  0  0
   38.7360   23.2900   38.2850 C   0  0  0  0  0  3  0  0  0  0  0  0
   38.8260   24.2760   38.7790 H   0  0  0  0  0  0  0  0  0  0  0  0
   36.8970   22.1670   37.3740 O   0  0  0  0  0  0  0  0  0  0  0  0
   37.2910   21.4990   36.7340 H   0  0  0  0  0  0  0  0  0  0  0  0
  1  2  2  0  0  0  0
  1  6  1  0  0  0  0
  2  3  1  0  0  0  0
  3  8  1  0  0  0  0
  3  4  2  0  0  0  0
  5  4  1  0  0  0  0
  6  5  2  0  0  0  0
  7  2  1  0  0  0  0
  9  1  1  0  0  0  0
 10 11  1  0  0  0  0
 10  9  1  0  0  0  0
 10 13  1  0  0  0  0
 11  9  1  0  0  0  0
 11 15  1  0  0  0  0
 12  9  1  0  0  0  0
 14 10  1  0  0  0  0
 16 11  1  0  0  0  0
 17 24  1  6  0  0  0
 17 22  1  0  0  0  0
 18  5  1  1  0  0  0
 18 19  1  0  0  0  0
 18 17  1  0  0  0  0
 19 21  1  0  0  0  0
 20 19  1  0  0  0  0
 21 22  1  0  0  0  0
 22 23  1  0  0  0  0
 25 24  1  0  0  0  0
M  END
>  <minimizedAffinity>
-4.46355057

$$$$

 OpenBabel03272504543D

 25 27  0  0  1  0  0  0  0  0999 V2000
   36.1530   21.1060   32.9930 C   0  0  0  0  0  0  0  0  0  0  0  0
   35.9150   21.8290   31.8110 C   0  0  0  0  0  0  0  0  0  0  0  0
   36.5820   23.0360   31.6970 C   0  0  0  0  0  0  0  0  0  0  0  0
   37.4150   23.4670   32.6950 N   0  0  0  0  0  0  0  0  0  0  0  0
   37.6170   22.7340   33.8230 C   0  0  0  0  0  0  0  0  0  0  0  0
   36.9780   21.5470   33.9660 N   0  0  0  0  0  0  0  0  0  0  0  0
   35.2640   21.4740   31.0510 H   0  0  0  0  0  0  0  0  0  0  0  0
   36.4230   23.6210   30.8010 H   0  0  0  0  0  0  0  0  0  0  0  0
   35.4610   19.7750   33.1360 C   0  0  0  0  0  0  0  0  0  0  0  0
   34.7530   19.1730   32.0120 C   0  0  0  0  0  0  0  0  0  0  0  0
   36.1370   18.6750   32.3320 C   0  0  0  0  0  0  0  0  0  0  0  0
   35.2330   19.5290   34.2040 H   0  0  0  0  0  0  0  0  0  0  0  0
   34.6650   19.8110   31.0840 H   0  0  0  0  0  0  0  0  0  0  0  0
   33.8650   18.5470   32.1690 H   0  0  0  0  0  0  0  0  0  0  0  0
   36.9940   18.9050   31.6910 H   0  0  0  0  0  0  0  0  0  0  0  0
   36.1380   17.6940   32.8460 H   0  0  0  0  0  0  0  0  0  0  0  0
   38.2700   22.6480   36.2250 C   0  0  2  0  0  3  0  0  0  0  0  0
   38.5350   23.2590   34.8700 C   0  0  2  0  0  3  0  0  0  0  0  0
   38.3700   24.7340   35.1070 C   0  0  0  0  0  3  0  0  0  0  0  0
   39.1060   25.2840   34.4960 H   0  0  0  0  0  0  0  0  0  0  0  0
   38.5370   24.9560   36.4580 O   0  0  0  0  0  0  0  0  0  0  0  0
   38.0240   23.8280   37.1120 C   0  0  0  0  0  3  0  0  0  0  0  0
   36.9420   23.9290   37.3200 H   0  0  0  0  0  0  0  0  0  0  0  0
   39.3680   21.9520   36.7320 O   0  0  0  0  0  0  0  0  0  0  0  0
   40.1760   22.3040   36.2480 H   0  0  0  0  0  0  0  0  0  0  0  0
  1  9  1  0  0  0  0
  1  6  1  0  0  0  0
  2  1  2  0  0  0  0
  3  2  1  0  0  0  0
  3  4  2  0  0  0  0
  4  5  1  0  0  0  0
  5  6  2  0  0  0  0
  7  2  1  0  0  0  0
  8  3  1  0  0  0  0
  9 12  1  0  0  0  0
 10 14  1  0  0  0  0
 10 11  1  0  0  0  0
 10  9  1  0  0  0  0
 11 16  1  0  0  0  0
 11  9  1  0  0  0  0
 13 10  1  0  0  0  0
 15 11  1  0  0  0  0
 17 24  1  1  0  0  0
 17 22  1  0  0  0  0
 18  5  1  6  0  0  0
 18 19  1  0  0  0  0
 18 17  1  0  0  0  0
 19 21  1  0  0  0  0
 20 19  1  0  0  0  0
 21 22  1  0  0  0  0
 22 23  1  0  0  0  0
 25 24  1  0  0  0  0
M  END
>  <minimizedAffinity>
-4.37773085

$$$$

 OpenBabel03272504543D

 25 27  0  0  1  0  0  0  0  0999 V2000
   36.1460   23.7650   31.6460 C   0  0  0  0  0  0  0  0  0  0  0  0
   35.4800   24.8300   31.0150 C   0  0  0  0  0  0  0  0  0  0  0  0
   35.8210   26.0990   31.4520 C   0  0  0  0  0  0  0  0  0  0  0  0
   36.7540   26.2650   32.4410 N   0  0  0  0  0  0  0  0  0  0  0  0
   37.3750   25.2040   33.0250 C   0  0  0  0  0  0  0  0  0  0  0  0
   37.0620   23.9480   32.6190 N   0  0  0  0  0  0  0  0  0  0  0  0
   34.7600   24.6760   30.2500 H   0  0  0  0  0  0  0  0  0  0  0  0
   35.3290   26.9440   30.9910 H   0  0  0  0  0  0  0  0  0  0  0  0
   35.8150   22.3720   31.1730 C   0  0  0  0  0  0  0  0  0  0  0  0
   36.4820   21.2070   31.7440 C   0  0  0  0  0  0  0  0  0  0  0  0
   35.1000   21.5490   32.2340 C   0  0  0  0  0  0  0  0  0  0  0  0
   35.3460   22.3700   30.1570 H   0  0  0  0  0  0  0  0  0  0  0  0
   37.3240   21.4240   32.4650 H   0  0  0  0  0  0  0  0  0  0  0  0
   36.6740   20.3100   31.1410 H   0  0  0  0  0  0  0  0  0  0  0  0
   34.9300   21.9610   33.2330 H   0  0  0  0  0  0  0  0  0  0  0  0
   34.3160   20.8850   31.8200 H   0  0  0  0  0  0  0  0  0  0  0  0
   37.7360   25.8310   35.4080 C   0  0  2  0  0  3  0  0  0  0  0  0
   38.3790   25.4540   34.0930 C   0  0  2  0  0  3  0  0  0  0  0  0
   39.2790   26.6180   33.7910 C   0  0  0  0  0  3  0  0  0  0  0  0
   40.2020   26.2480   33.3140 H   0  0  0  0  0  0  0  0  0  0  0  0
   39.5260   27.2690   34.9810 O   0  0  0  0  0  0  0  0  0  0  0  0
   38.3610   27.1470   35.7490 C   0  0  0  0  0  3  0  0  0  0  0  0
   37.6490   27.9710   35.5510 H   0  0  0  0  0  0  0  0  0  0  0  0
   38.0330   24.9360   36.4350 O   0  0  0  0  0  0  0  0  0  0  0  0
   38.8680   24.4500   36.1560 H   0  0  0  0  0  0  0  0  0  0  0  0
  1  6  1  0  0  0  0
  2  3  1  0  0  0  0
  2  1  2  0  0  0  0
  3  4  2  0  0  0  0
  4  5  1  0  0  0  0
  6  5  2  0  0  0  0
  7  2  1  0  0  0  0
  8  3  1  0  0  0  0
  9  1  1  0  0  0  0
  9 10  1  0  0  0  0
  9 11  1  0  0  0  0
 10 11  1  0  0  0  0
 10 13  1  0  0  0  0
 11 15  1  0  0  0  0
 12  9  1  0  0  0  0
 14 10  1  0  0  0  0
 16 11  1  0  0  0  0
 17 22  1  0  0  0  0
 17 24  1  1  0  0  0
 18  5  1  6  0  0  0
 18 17  1  0  0  0  0
 19 18  1  0  0  0  0
 19 21  1  0  0  0  0
 20 19  1  0  0  0  0
 21 22  1  0  0  0  0
 23 22  1  0  0  0  0
 25 24  1  0  0  0  0
M  END
>  <minimizedAffinity>
-4.31869793

$$$$

 OpenBabel03272504543D

 25 27  0  0  1  0  0  0  0  0999 V2000
   37.5910   21.6110   33.3880 C   0  0  0  0  0  0  0  0  0  0  0  0
   38.6570   21.0750   32.6450 C   0  0  0  0  0  0  0  0  0  0  0  0
   39.9270   21.3860   33.1010 C   0  0  0  0  0  0  0  0  0  0  0  0
   40.0930   22.1710   34.2110 N   0  0  0  0  0  0  0  0  0  0  0  0
   39.0310   22.6690   34.9010 C   0  0  0  0  0  0  0  0  0  0  0  0
   37.7740   22.3820   34.4790 N   0  0  0  0  0  0  0  0  0  0  0  0
   38.5020   20.4680   31.7880 H   0  0  0  0  0  0  0  0  0  0  0  0
   40.7730   20.9920   32.5550 H   0  0  0  0  0  0  0  0  0  0  0  0
   36.1950   21.2680   32.9320 C   0  0  0  0  0  0  0  0  0  0  0  0
   35.8690   19.9290   32.4550 C   0  0  0  0  0  0  0  0  0  0  0  0
   35.4970   20.2940   33.8670 C   0  0  0  0  0  0  0  0  0  0  0  0
   35.6080   22.1780   32.6470 H   0  0  0  0  0  0  0  0  0  0  0  0
   36.7400   19.2170   32.3470 H   0  0  0  0  0  0  0  0  0  0  0  0
   35.1070   19.7710   31.6810 H   0  0  0  0  0  0  0  0  0  0  0  0
   36.0270   19.8760   34.7280 H   0  0  0  0  0  0  0  0  0  0  0  0
   34.4160   20.5030   33.9920 H   0  0  0  0  0  0  0  0  0  0  0  0
   38.7050   22.9120   37.3580 C   0  0  2  0  0  3  0  0  0  0  0  0
   39.2810   23.5150   36.0980 C   0  0  2  0  0  3  0  0  0  0  0  0
   38.6180   24.8610   36.0130 C   0  0  0  0  0  3  0  0  0  0  0  0
   39.3390   25.5950   35.6160 H   0  0  0  0  0  0  0  0  0  0  0  0
   38.1800   25.1860   37.2800 O   0  0  0  0  0  0  0  0  0  0  0  0
   37.8060   23.9830   37.8920 C   0  0  0  0  0  3  0  0  0  0  0  0
   36.7480   23.7290   37.6890 H   0  0  0  0  0  0  0  0  0  0  0  0
   39.6740   22.6430   38.3250 O   0  0  0  0  0  0  0  0  0  0  0  0
   40.4660   23.2210   38.1010 H   0  0  0  0  0  0  0  0  0  0  0  0
  1  6  1  0  0  0  0
  2  3  1  0  0  0  0
  2  1  2  0  0  0  0
  3  4  2  0  0  0  0
  4  5  1  0  0  0  0
  6  5  2  0  0  0  0
  7  2  1  0  0  0  0
  8  3  1  0  0  0  0
  9  1  1  0  0  0  0
  9 11  1  0  0  0  0
 10  9  1  0  0  0  0
 10 11  1  0  0  0  0
 11 16  1  0  0  0  0
 11 15  1  0  0  0  0
 12  9  1  0  0  0  0
 13 10  1  0  0  0  0
 14 10  1  0  0  0  0
 17 22  1  0  0  0  0
 17 24  1  1  0  0  0
 18  5  1  6  0  0  0
 18 17  1  0  0  0  0
 19 18  1  0  0  0  0
 19 21  1  0  0  0  0
 20 19  1  0  0  0  0
 21 22  1  0  0  0  0
 23 22  1  0  0  0  0
 25 24  1  0  0  0  0
M  END
>  <minimizedAffinity>
-4.31222582

$$$$
