
 OpenBabel03262520163D

 18 19  0  0  1  0  0  0  0  0999 V2000
   37.1410   29.8660   51.5910 C   0  0  0  0  0  0  0  0  0  0  0  0
   37.6760   30.7110   50.5920 C   0  0  0  0  0  0  0  0  0  0  0  0
   36.9020   30.9470   49.4410 C   0  0  0  0  0  0  0  0  0  0  0  0
   35.6710   30.3360   49.3650 N   0  0  0  0  0  0  0  0  0  0  0  0
   35.1990   29.5390   50.3380 C   0  0  0  0  0  0  0  0  0  0  0  0
   35.9270   29.2990   51.4540 N   0  0  0  0  0  0  0  0  0  0  0  0
   37.7100   29.6680   52.4820 H   0  0  0  0  0  0  0  0  0  0  0  0
   38.6540   31.1710   50.6970 H   0  0  0  0  0  0  0  0  0  0  0  0
   34.2110   29.1280   50.1380 H   0  0  0  0  0  0  0  0  0  0  0  0
   37.5060   31.0600   47.0250 C   0  0  2  0  0  0  0  0  0  0  0  0
   37.3670   31.8000   48.3600 C   0  0  2  0  0  0  0  0  0  0  0  0
   38.7670   32.3070   48.4880 C   0  0  0  0  0  0  0  0  0  0  0  0
   38.9360   33.0520   49.2710 H   0  0  0  0  0  0  0  0  0  0  0  0
   39.1450   32.7150   47.2210 O   0  0  0  0  0  0  0  0  0  0  0  0
   38.3540   32.0900   46.2930 C   0  0  0  0  0  0  0  0  0  0  0  0
   38.8640   31.6680   45.4240 H   0  0  0  0  0  0  0  0  0  0  0  0
   36.2760   30.8760   46.4150 O   0  0  0  0  0  0  0  0  0  0  0  0
   36.1190   29.9180   46.2110 H   0  0  0  0  0  0  0  0  0  0  0  0
  1  7  1  0  0  0  0
  2  8  1  0  0  0  0
  2  1  2  0  0  0  0
  3  2  1  0  0  0  0
  4  3  2  0  0  0  0
  4  5  1  0  0  0  0
  5  6  2  0  0  0  0
  6  1  1  0  0  0  0
  9  5  1  0  0  0  0
 10 17  1  6  0  0  0
 10 11  1  0  0  0  0
 11 12  1  0  0  0  0
 11  3  1  1  0  0  0
 12 13  1  0  0  0  0
 14 12  1  0  0  0  0
 15 10  1  0  0  0  0
 15 14  1  0  0  0  0
 16 15  1  0  0  0  0
 18 17  1  0  0  0  0
M  END
>  <minimizedAffinity>
-4.58088255

>  <minimizedRMSD>
1.42950892

$$$$
