
 OpenBabel03272505463D

 25 27  0  0  1  0  0  0  0  0999 V2000
   37.0040   30.3180   47.8730 C   0  0  0  0  0  0  0  0  0  0  0  0
   36.1300   29.3570   47.2420 C   0  0  0  0  0  0  0  0  0  0  0  0
   35.5970   30.7220   47.5060 C   0  0  0  0  0  0  0  0  0  0  0  0
   35.6770   28.4800   47.7290 H   0  0  0  0  0  0  0  0  0  0  0  0
   36.3550   29.1360   46.1610 H   0  0  0  0  0  0  0  0  0  0  0  0
   35.4190   31.4320   46.6860 H   0  0  0  0  0  0  0  0  0  0  0  0
   34.8410   30.7820   48.3080 H   0  0  0  0  0  0  0  0  0  0  0  0
   39.5540   32.7940   46.8570 C   0  0  0  0  0  0  0  0  0  0  0  0
   40.1870   32.1850   45.7730 C   0  0  0  0  0  0  0  0  0  0  0  0
   39.7270   30.9180   45.3930 C   0  0  0  0  0  0  0  0  0  0  0  0
   38.7000   30.3460   46.0850 N   0  0  0  0  0  0  0  0  0  0  0  0
   38.1110   30.9850   47.1420 C   0  0  0  0  0  0  0  0  0  0  0  0
   38.5450   32.2140   47.5250 N   0  0  0  0  0  0  0  0  0  0  0  0
   39.9500   33.7820   47.1130 H   0  0  0  0  0  0  0  0  0  0  0  0
   40.9970   32.6180   45.2140 H   0  0  0  0  0  0  0  0  0  0  0  0
   40.1380   30.3440   44.5660 H   0  0  0  0  0  0  0  0  0  0  0  0
   37.0960   29.1430   50.1120 C   0  0  2  0  0  3  0  0  0  0  0  0
   37.2690   30.4110   49.3670 C   0  0  2  0  0  3  0  0  0  0  0  0
   36.2850   31.3530   50.0310 C   0  0  0  0  0  3  0  0  0  0  0  0
   36.8280   31.8670   50.8420 H   0  0  0  0  0  0  0  0  0  0  0  0
   35.2760   30.5380   50.5010 O   0  0  0  0  0  0  0  0  0  0  0  0
   35.8250   29.3230   50.8730 C   0  0  0  0  0  3  0  0  0  0  0  0
   35.9480   29.3330   51.9810 H   0  0  0  0  0  0  0  0  0  0  0  0
   38.1290   29.0350   51.0610 O   0  0  0  0  0  0  0  0  0  0  0  0
   38.6470   28.1980   50.9630 H   0  0  0  0  0  0  0  0  0  0  0  0
  2  3  1  0  0  0  0
  2  4  1  0  0  0  0
  2  1  1  0  0  0  0
  3  1  1  0  0  0  0
  3  7  1  0  0  0  0
  5  2  1  0  0  0  0
  6  3  1  0  0  0  0
  8 14  1  0  0  0  0
  8 13  1  0  0  0  0
  9  8  2  0  0  0  0
 10  9  1  0  0  0  0
 10 11  2  0  0  0  0
 11 12  1  0  0  0  0
 12 13  2  0  0  0  0
 12  1  1  0  0  0  0
 15  9  1  0  0  0  0
 16 10  1  0  0  0  0
 17 22  1  0  0  0  0
 17 24  1  1  0  0  0
 18  1  1  6  0  0  0
 18 19  1  0  0  0  0
 18 17  1  0  0  0  0
 19 21  1  0  0  0  0
 19 20  1  0  0  0  0
 21 22  1  0  0  0  0
 22 23  1  0  0  0  0
 25 24  1  0  0  0  0
M  END
>  <minimizedAffinity>
-3.90201735

>  <minimizedRMSD>
3.0508914

$$$$
