
 OpenBabel03272507363D

 19 20  0  0  1  0  0  0  0  0999 V2000
   36.9190   30.1050   50.7800 C   0  0  0  0  0  0  0  0  0  0  0  0
   36.9670   30.8480   49.5980 C   0  0  0  0  0  0  0  0  0  0  0  0
   35.8520   30.8120   48.7720 C   0  0  0  0  0  0  0  0  0  0  0  0
   34.7790   30.0660   49.1430 N   0  0  0  0  0  0  0  0  0  0  0  0
   34.7490   29.3520   50.2910 C   0  0  0  0  0  0  0  0  0  0  0  0
   35.8220   29.3730   51.1090 N   0  0  0  0  0  0  0  0  0  0  0  0
   35.7980   31.3500   47.8460 H   0  0  0  0  0  0  0  0  0  0  0  0
   33.8610   28.7780   50.5290 H   0  0  0  0  0  0  0  0  0  0  0  0
   38.3860   31.7490   47.7330 C   0  0  1  0  0  3  0  0  0  0  0  0
   38.1380   31.6520   49.2070 C   0  0  1  0  0  3  0  0  0  0  0  0
   38.0750   33.0770   49.6250 C   0  0  0  0  0  3  0  0  0  0  0  0
   37.2330   33.6540   49.2010 H   0  0  0  0  0  0  0  0  0  0  0  0
   39.2080   33.5790   48.9420 O   0  0  0  0  0  0  0  0  0  0  0  0
   38.9540   33.1440   47.6260 C   0  0  0  0  0  3  0  0  0  0  0  0
   39.8370   33.1740   46.9790 H   0  0  0  0  0  0  0  0  0  0  0  0
   39.2470   30.7470   47.3260 O   0  0  0  0  0  0  0  0  0  0  0  0
   39.4800   30.7720   46.3840 H   0  0  0  0  0  0  0  0  0  0  0  0
   38.0640   30.1930   51.5440 O   0  0  0  0  0  0  0  0  0  0  0  0
   38.2420   30.9300   52.2010 H   0  0  0  0  0  0  0  0  0  0  0  0
  1  6  1  0  0  0  0
  1 18  1  0  0  0  0
  2  1  2  0  0  0  0
  3  4  2  0  0  0  0
  3  2  1  0  0  0  0
  4  5  1  0  0  0  0
  5  8  1  0  0  0  0
  5  6  2  0  0  0  0
  7  3  1  0  0  0  0
  9 16  1  1  0  0  0
  9 10  1  0  0  0  0
 10  2  1  6  0  0  0
 10 11  1  0  0  0  0
 12 11  1  0  0  0  0
 13 11  1  0  0  0  0
 14  9  1  0  0  0  0
 14 13  1  0  0  0  0
 15 14  1  0  0  0  0
 17 16  1  0  0  0  0
 18 19  1  0  0  0  0
M  END
>  <minimizedAffinity>
-5.05469894

>  <minimizedRMSD>
2.44196177

$$$$
