
 OpenBabel03272507433D

 41 44  0  0  1  0  0  0  0  0999 V2000
   37.5210   26.8330   31.1830 C   0  0  0  0  0  0  0  0  0  0  0  0
   38.8660   26.7840   30.8030 C   0  0  0  0  0  0  0  0  0  0  0  0
   39.3450   27.6060   29.8030 C   0  0  0  0  0  0  0  0  0  0  0  0
   38.4570   28.4540   29.2140 N   0  0  0  0  0  0  0  0  0  0  0  0
   37.1530   28.4900   29.5950 C   0  0  0  0  0  0  0  0  0  0  0  0
   36.7130   27.6890   30.5610 N   0  0  0  0  0  0  0  0  0  0  0  0
   40.3640   27.6220   29.4610 H   0  0  0  0  0  0  0  0  0  0  0  0
   36.4400   29.1600   29.1340 H   0  0  0  0  0  0  0  0  0  0  0  0
   40.6920   26.4430   32.3790 C   0  0  0  0  0  0  0  0  0  0  0  0
   40.8860   27.6130   32.8880 O   0  0  0  0  0  0  0  0  0  0  0  0
   39.8420   25.9430   31.3580 N   0  0  0  0  0  0  0  0  0  0  0  0
   40.0100   24.9710   31.0890 H   0  0  0  0  0  0  0  0  0  0  0  0
   43.6300   26.0790   34.1750 C   0  0  2  0  0  3  0  0  0  0  0  0
   43.0660   25.7700   32.8010 C   0  0  0  0  0  3  0  0  0  0  0  0
   43.5610   24.8900   32.3600 H   0  0  0  0  0  0  0  0  0  0  0  0
   41.6210   25.5370   33.1210 C   0  0  1  0  0  3  0  0  0  0  0  0
   41.4490   25.6960   34.4770 O   0  0  0  0  0  0  0  0  0  0  0  0
   42.6780   25.2740   35.0370 C   0  0  0  0  0  3  0  0  0  0  0  0
   42.7420   25.4860   36.1020 H   0  0  0  0  0  0  0  0  0  0  0  0
   43.4260   27.4270   34.4280 O   0  0  0  0  0  0  0  0  0  0  0  0
   42.6160   27.5920   34.9810 H   0  0  0  0  0  0  0  0  0  0  0  0
   37.2380   25.9560   32.1760 O   0  0  0  0  0  0  0  0  0  0  0  0
   37.9200   25.1810   34.4250 C   0  0  0  0  0  0  0  0  0  0  0  0
   37.5430   26.1560   33.5210 C   0  0  0  0  0  0  0  0  0  0  0  0
   37.4370   27.4790   33.9100 C   0  0  0  0  0  0  0  0  0  0  0  0
   37.7140   27.8240   35.2310 C   0  0  0  0  0  0  0  0  0  0  0  0
   38.0900   26.8510   36.1340 C   0  0  0  0  0  0  0  0  0  0  0  0
   38.1810   25.5490   35.7010 C   0  0  0  0  0  0  0  0  0  0  0  0
   37.1540   28.2780   33.2720 H   0  0  0  0  0  0  0  0  0  0  0  0
   37.6350   28.8600   35.5520 H   0  0  0  0  0  0  0  0  0  0  0  0
   38.2960   27.1620   37.1540 H   0  0  0  0  0  0  0  0  0  0  0  0
   38.5860   24.5140   36.6800 C   0  0  0  0  0  0  0  0  0  0  0  0
   38.0130   24.1630   37.8690 C   0  0  0  0  0  0  0  0  0  0  0  0
   38.7700   23.1300   38.4190 C   0  0  0  0  0  0  0  0  0  0  0  0
   39.7740   22.9200   37.5070 C   0  0  0  0  0  0  0  0  0  0  0  0
   39.6450   23.7450   36.4920 O   0  0  0  0  0  0  0  0  0  0  0  0
   37.1110   24.6910   38.2080 H   0  0  0  0  0  0  0  0  0  0  0  0
   38.4930   22.6950   39.3700 H   0  0  0  0  0  0  0  0  0  0  0  0
   40.5360   22.1520   37.6760 H   0  0  0  0  0  0  0  0  0  0  0  0
   38.0590   22.7660   33.5470 N   0  0  0  0  0  0  0  0  0  0  0  0
   38.0060   23.8380   33.9430 C   0  0  0  0  0  0  0  0  0  0  0  0
  1 22  1  0  0  0  0
  2  1  1  0  0  0  0
  2 11  1  0  0  0  0
  3  2  2  0  0  0  0
  4  5  2  0  0  0  0
  4  3  1  0  0  0  0
  5  6  1  0  0  0  0
  6  1  2  0  0  0  0
  7  3  1  0  0  0  0
  8  5  1  0  0  0  0
  9 10  2  0  0  0  0
 11  9  1  0  0  0  0
 12 11  1  0  0  0  0
 13 20  1  1  0  0  0
 13 18  1  0  0  0  0
 14 16  1  0  0  0  0
 14 13  1  0  0  0  0
 15 14  1  0  0  0  0
 16  9  1  6  0  0  0
 16 17  1  0  0  0  0
 17 18  1  0  0  0  0
 18 19  1  0  0  0  0
 20 21  1  0  0  0  0
 22 24  1  0  0  0  0
 23 28  1  0  0  0  0
 24 25  1  0  0  0  0
 24 23  2  0  0  0  0
 25 26  2  0  0  0  0
 26 30  1  0  0  0  0
 26 27  1  0  0  0  0
 27 31  1  0  0  0  0
 28 27  2  0  0  0  0
 28 32  1  0  0  0  0
 29 25  1  0  0  0  0
 32 33  2  0  0  0  0
 33 37  1  0  0  0  0
 33 34  1  0  0  0  0
 34 38  1  0  0  0  0
 35 39  1  0  0  0  0
 35 34  2  0  0  0  0
 36 32  1  0  0  0  0
 36 35  1  0  0  0  0
 40 41  3  0  0  0  0
 41 23  1  0  0  0  0
M  END
>  <minimizedAffinity>
-5.75470638

$$$$

 OpenBabel03272507433D

 41 44  0  0  1  0  0  0  0  0999 V2000
   36.9350   27.4670   31.6790 C   0  0  0  0  0  0  0  0  0  0  0  0
   36.0320   28.5090   31.4450 C   0  0  0  0  0  0  0  0  0  0  0  0
   36.2470   29.4100   30.4210 C   0  0  0  0  0  0  0  0  0  0  0  0
   37.3640   29.2360   29.6620 N   0  0  0  0  0  0  0  0  0  0  0  0
   38.2320   28.2180   29.9020 C   0  0  0  0  0  0  0  0  0  0  0  0
   38.0050   27.3610   30.8940 N   0  0  0  0  0  0  0  0  0  0  0  0
   35.5970   30.2320   30.1840 H   0  0  0  0  0  0  0  0  0  0  0  0
   39.1220   28.0710   29.3050 H   0  0  0  0  0  0  0  0  0  0  0  0
   34.8230   29.8550   33.0750 C   0  0  0  0  0  0  0  0  0  0  0  0
   35.7090   30.6870   33.5100 O   0  0  0  0  0  0  0  0  0  0  0  0
   34.8610   28.7560   32.1780 N   0  0  0  0  0  0  0  0  0  0  0  0
   34.0030   28.2030   32.1290 H   0  0  0  0  0  0  0  0  0  0  0  0
   31.3820   29.5250   33.2840 C   0  0  2  0  0  3  0  0  0  0  0  0
   32.4240   30.5060   32.7800 C   0  0  0  0  0  3  0  0  0  0  0  0
   32.0410   31.5390   32.8120 H   0  0  0  0  0  0  0  0  0  0  0  0
   33.5480   30.2630   33.7400 C   0  0  1  0  0  3  0  0  0  0  0  0
   33.1510   29.2910   34.6300 O   0  0  0  0  0  0  0  0  0  0  0  0
   31.7540   29.4790   34.7530 C   0  0  0  0  0  3  0  0  0  0  0  0
   31.2760   28.6800   35.3160 H   0  0  0  0  0  0  0  0  0  0  0  0
   31.6520   28.2870   32.7190 O   0  0  0  0  0  0  0  0  0  0  0  0
   32.1660   27.6940   33.3300 H   0  0  0  0  0  0  0  0  0  0  0  0
   36.5590   26.6890   32.7210 O   0  0  0  0  0  0  0  0  0  0  0  0
   37.9880   25.3420   34.2280 C   0  0  0  0  0  0  0  0  0  0  0  0
   37.3100   26.4950   33.8790 C   0  0  0  0  0  0  0  0  0  0  0  0
   37.3320   27.6060   34.7030 C   0  0  0  0  0  0  0  0  0  0  0  0
   38.0470   27.5530   35.8970 C   0  0  0  0  0  0  0  0  0  0  0  0
   38.7240   26.4030   36.2460 C   0  0  0  0  0  0  0  0  0  0  0  0
   38.6730   25.3240   35.3950 C   0  0  0  0  0  0  0  0  0  0  0  0
   36.8360   28.5210   34.5000 H   0  0  0  0  0  0  0  0  0  0  0  0
   38.0730   28.4180   36.5550 H   0  0  0  0  0  0  0  0  0  0  0  0
   39.2680   26.4030   37.1850 H   0  0  0  0  0  0  0  0  0  0  0  0
   39.4040   24.0950   35.7810 C   0  0  0  0  0  0  0  0  0  0  0  0
   38.9890   23.0280   36.5260 C   0  0  0  0  0  0  0  0  0  0  0  0
   40.0480   22.1250   36.6040 C   0  0  0  0  0  0  0  0  0  0  0  0
   41.0570   22.7180   35.8880 C   0  0  0  0  0  0  0  0  0  0  0  0
   40.6550   23.8760   35.4110 O   0  0  0  0  0  0  0  0  0  0  0  0
   37.9670   23.0180   36.9290 H   0  0  0  0  0  0  0  0  0  0  0  0
   39.9380   21.1990   37.1530 H   0  0  0  0  0  0  0  0  0  0  0  0
   42.0290   22.2290   35.7750 H   0  0  0  0  0  0  0  0  0  0  0  0
   37.8560   23.3690   32.5810 N   0  0  0  0  0  0  0  0  0  0  0  0
   37.9160   24.2400   33.3220 C   0  0  0  0  0  0  0  0  0  0  0  0
  1 22  1  0  0  0  0
  2  1  1  0  0  0  0
  2 11  1  0  0  0  0
  3  2  2  0  0  0  0
  4  5  2  0  0  0  0
  4  3  1  0  0  0  0
  5  6  1  0  0  0  0
  6  1  2  0  0  0  0
  7  3  1  0  0  0  0
  8  5  1  0  0  0  0
  9 10  2  0  0  0  0
 11  9  1  0  0  0  0
 12 11  1  0  0  0  0
 13 20  1  6  0  0  0
 13 18  1  0  0  0  0
 14 15  1  0  0  0  0
 14 13  1  0  0  0  0
 14 16  1  0  0  0  0
 16  9  1  6  0  0  0
 16 17  1  0  0  0  0
 17 18  1  0  0  0  0
 18 19  1  0  0  0  0
 20 21  1  0  0  0  0
 22 24  1  0  0  0  0
 23 28  1  0  0  0  0
 24 23  2  0  0  0  0
 24 25  1  0  0  0  0
 25 26  2  0  0  0  0
 26 27  1  0  0  0  0
 26 30  1  0  0  0  0
 27 31  1  0  0  0  0
 28 32  1  0  0  0  0
 28 27  2  0  0  0  0
 29 25  1  0  0  0  0
 32 33  2  0  0  0  0
 33 34  1  0  0  0  0
 33 37  1  0  0  0  0
 34 38  1  0  0  0  0
 35 34  2  0  0  0  0
 36 32  1  0  0  0  0
 36 35  1  0  0  0  0
 39 35  1  0  0  0  0
 40 41  3  0  0  0  0
 41 23  1  0  0  0  0
M  END
>  <minimizedAffinity>
-5.71308804

$$$$

 OpenBabel03272507433D

 41 44  0  0  1  0  0  0  0  0999 V2000
   38.9440   25.4730   31.3710 C   0  0  0  0  0  0  0  0  0  0  0  0
   39.1640   24.5150   32.3660 C   0  0  0  0  0  0  0  0  0  0  0  0
   39.1360   23.1680   32.0650 C   0  0  0  0  0  0  0  0  0  0  0  0
   38.8870   22.8230   30.7720 N   0  0  0  0  0  0  0  0  0  0  0  0
   38.6760   23.7650   29.8160 C   0  0  0  0  0  0  0  0  0  0  0  0
   38.7070   25.0590   30.1280 N   0  0  0  0  0  0  0  0  0  0  0  0
   39.2960   22.3800   32.7780 H   0  0  0  0  0  0  0  0  0  0  0  0
   38.4780   23.5030   28.7860 H   0  0  0  0  0  0  0  0  0  0  0  0
   38.7850   24.0110   34.7190 C   0  0  0  0  0  0  0  0  0  0  0  0
   37.8520   23.1190   34.6990 O   0  0  0  0  0  0  0  0  0  0  0  0
   39.4260   24.7870   33.7180 N   0  0  0  0  0  0  0  0  0  0  0  0
   40.0540   25.5140   34.0660 H   0  0  0  0  0  0  0  0  0  0  0  0
   37.9670   23.4590   38.0380 C   0  0  2  0  0  3  0  0  0  0  0  0
   38.0400   24.5960   37.0370 C   0  0  0  0  0  3  0  0  0  0  0  0
   38.2410   25.5540   37.5420 H   0  0  0  0  0  0  0  0  0  0  0  0
   39.1660   24.1430   36.1580 C   0  0  1  0  0  3  0  0  0  0  0  0
   39.6260   22.9370   36.6340 O   0  0  0  0  0  0  0  0  0  0  0  0
   39.4140   23.0100   38.0320 C   0  0  0  0  0  3  0  0  0  0  0  0
   39.5960   22.0590   38.5280 H   0  0  0  0  0  0  0  0  0  0  0  0
   37.1870   22.4530   37.4870 O   0  0  0  0  0  0  0  0  0  0  0  0
   37.7340   21.7360   37.0660 H   0  0  0  0  0  0  0  0  0  0  0  0
   39.0090   26.7360   31.8540 O   0  0  0  0  0  0  0  0  0  0  0  0
   37.0640   28.1370   32.4690 C   0  0  0  0  0  0  0  0  0  0  0  0
   38.0640   27.7300   31.6070 C   0  0  0  0  0  0  0  0  0  0  0  0
   38.2070   28.3170   30.3620 C   0  0  0  0  0  0  0  0  0  0  0  0
   37.3280   29.3290   29.9820 C   0  0  0  0  0  0  0  0  0  0  0  0
   36.3290   29.7350   30.8430 C   0  0  0  0  0  0  0  0  0  0  0  0
   36.2260   29.1220   32.0690 C   0  0  0  0  0  0  0  0  0  0  0  0
   38.9490   28.0560   29.6510 H   0  0  0  0  0  0  0  0  0  0  0  0
   37.4280   29.7990   29.0070 H   0  0  0  0  0  0  0  0  0  0  0  0
   35.6660   30.5250   30.5070 H   0  0  0  0  0  0  0  0  0  0  0  0
   35.1500   29.5670   32.9840 C   0  0  0  0  0  0  0  0  0  0  0  0
   33.8220   29.2490   32.9920 C   0  0  0  0  0  0  0  0  0  0  0  0
   33.2280   29.9260   34.0560 C   0  0  0  0  0  0  0  0  0  0  0  0
   34.2570   30.6260   34.6330 C   0  0  0  0  0  0  0  0  0  0  0  0
   35.3790   30.3980   33.9860 O   0  0  0  0  0  0  0  0  0  0  0  0
   33.4280   28.5630   32.2300 H   0  0  0  0  0  0  0  0  0  0  0  0
   32.1690   29.8180   34.2500 H   0  0  0  0  0  0  0  0  0  0  0  0
   34.0850   31.2600   35.5090 H   0  0  0  0  0  0  0  0  0  0  0  0
   36.9200   26.9370   34.7410 N   0  0  0  0  0  0  0  0  0  0  0  0
   36.9840   27.4800   33.7360 C   0  0  0  0  0  0  0  0  0  0  0  0
  1 22  1  0  0  0  0
  1  2  1  0  0  0  0
  2 11  1  0  0  0  0
  3  2  2  0  0  0  0
  3  7  1  0  0  0  0
  4  3  1  0  0  0  0
  5  6  1  0  0  0  0
  5  4  2  0  0  0  0
  6  1  2  0  0  0  0
  8  5  1  0  0  0  0
 10  9  2  0  0  0  0
 11 12  1  0  0  0  0
 11  9  1  0  0  0  0
 13 20  1  6  0  0  0
 14 15  1  0  0  0  0
 14 13  1  0  0  0  0
 16  9  1  6  0  0  0
 16 17  1  0  0  0  0
 16 14  1  0  0  0  0
 17 18  1  0  0  0  0
 18 13  1  0  0  0  0
 18 19  1  0  0  0  0
 21 20  1  0  0  0  0
 23 41  1  0  0  0  0
 24 22  1  0  0  0  0
 24 23  2  0  0  0  0
 25 24  1  0  0  0  0
 26 25  2  0  0  0  0
 26 27  1  0  0  0  0
 27 28  2  0  0  0  0
 28 23  1  0  0  0  0
 28 32  1  0  0  0  0
 29 25  1  0  0  0  0
 30 26  1  0  0  0  0
 31 27  1  0  0  0  0
 32 33  2  0  0  0  0
 32 36  1  0  0  0  0
 33 34  1  0  0  0  0
 34 38  1  0  0  0  0
 34 35  2  0  0  0  0
 35 39  1  0  0  0  0
 36 35  1  0  0  0  0
 37 33  1  0  0  0  0
 41 40  3  0  0  0  0
M  END
>  <minimizedAffinity>
-5.67140245

$$$$

 OpenBabel03272507433D

 41 44  0  0  1  0  0  0  0  0999 V2000
   37.0830   27.9310   31.9610 C   0  0  0  0  0  0  0  0  0  0  0  0
   36.0610   28.8300   31.6350 C   0  0  0  0  0  0  0  0  0  0  0  0
   36.1920   29.6820   30.5570 C   0  0  0  0  0  0  0  0  0  0  0  0
   37.3450   29.6060   29.8380 N   0  0  0  0  0  0  0  0  0  0  0  0
   38.3280   28.7270   30.1670 C   0  0  0  0  0  0  0  0  0  0  0  0
   38.1820   27.9140   31.2100 N   0  0  0  0  0  0  0  0  0  0  0  0
   35.4500   30.3960   30.2500 H   0  0  0  0  0  0  0  0  0  0  0  0
   39.2480   28.6580   29.6020 H   0  0  0  0  0  0  0  0  0  0  0  0
   34.7260   29.9700   33.3230 C   0  0  0  0  0  0  0  0  0  0  0  0
   35.5620   30.7740   33.8900 O   0  0  0  0  0  0  0  0  0  0  0  0
   34.8470   28.9700   32.3230 N   0  0  0  0  0  0  0  0  0  0  0  0
   34.0100   28.4040   32.1700 H   0  0  0  0  0  0  0  0  0  0  0  0
   31.3000   29.4690   33.3540 C   0  0  2  0  0  3  0  0  0  0  0  0
   32.3130   30.5280   32.9600 C   0  0  0  0  0  3  0  0  0  0  0  0
   31.8790   31.5370   33.0390 H   0  0  0  0  0  0  0  0  0  0  0  0
   33.4050   30.2750   33.9530 C   0  0  1  0  0  3  0  0  0  0  0  0
   33.0190   29.2300   34.7620 O   0  0  0  0  0  0  0  0  0  0  0  0
   31.6100   29.3450   34.8320 C   0  0  0  0  0  3  0  0  0  0  0  0
   31.1490   28.4910   35.3220 H   0  0  0  0  0  0  0  0  0  0  0  0
   31.6540   28.2840   32.7250 O   0  0  0  0  0  0  0  0  0  0  0  0
   32.1700   27.6770   33.3210 H   0  0  0  0  0  0  0  0  0  0  0  0
   36.7760   27.1800   33.0450 O   0  0  0  0  0  0  0  0  0  0  0  0
   38.0040   25.4190   34.2760 C   0  0  0  0  0  0  0  0  0  0  0  0
   37.1980   25.8670   33.2470 C   0  0  0  0  0  0  0  0  0  0  0  0
   36.7230   24.9920   32.2860 C   0  0  0  0  0  0  0  0  0  0  0  0
   37.0670   23.6440   32.3640 C   0  0  0  0  0  0  0  0  0  0  0  0
   37.8720   23.1960   33.3910 C   0  0  0  0  0  0  0  0  0  0  0  0
   38.3200   24.1030   34.3220 C   0  0  0  0  0  0  0  0  0  0  0  0
   36.1020   25.2650   31.4710 H   0  0  0  0  0  0  0  0  0  0  0  0
   36.7020   22.9450   31.6170 H   0  0  0  0  0  0  0  0  0  0  0  0
   38.1170   22.1390   33.4150 H   0  0  0  0  0  0  0  0  0  0  0  0
   39.1830   23.6090   35.4200 C   0  0  0  0  0  0  0  0  0  0  0  0
   40.5270   23.3650   35.4330 C   0  0  0  0  0  0  0  0  0  0  0  0
   40.8650   22.9110   36.7070 C   0  0  0  0  0  0  0  0  0  0  0  0
   39.6780   22.9080   37.3950 C   0  0  0  0  0  0  0  0  0  0  0  0
   38.7020   23.3240   36.6180 O   0  0  0  0  0  0  0  0  0  0  0  0
   41.1160   23.5430   34.5230 H   0  0  0  0  0  0  0  0  0  0  0  0
   41.8900   22.6550   36.9430 H   0  0  0  0  0  0  0  0  0  0  0  0
   39.6350   22.5920   38.4420 H   0  0  0  0  0  0  0  0  0  0  0  0
   38.8170   27.1730   35.9740 N   0  0  0  0  0  0  0  0  0  0  0  0
   38.4530   26.3860   35.2270 C   0  0  0  0  0  0  0  0  0  0  0  0
  1 22  1  0  0  0  0
  2  1  1  0  0  0  0
  2 11  1  0  0  0  0
  3  2  2  0  0  0  0
  4  5  2  0  0  0  0
  4  3  1  0  0  0  0
  5  6  1  0  0  0  0
  6  1  2  0  0  0  0
  7  3  1  0  0  0  0
  8  5  1  0  0  0  0
  9 10  2  0  0  0  0
 11  9  1  0  0  0  0
 12 11  1  0  0  0  0
 13 20  1  6  0  0  0
 13 18  1  0  0  0  0
 14 15  1  0  0  0  0
 14 13  1  0  0  0  0
 14 16  1  0  0  0  0
 16  9  1  6  0  0  0
 16 17  1  0  0  0  0
 17 18  1  0  0  0  0
 18 19  1  0  0  0  0
 20 21  1  0  0  0  0
 22 24  1  0  0  0  0
 23 28  1  0  0  0  0
 23 41  1  0  0  0  0
 24 23  2  0  0  0  0
 25 26  2  0  0  0  0
 25 24  1  0  0  0  0
 26 27  1  0  0  0  0
 27 31  1  0  0  0  0
 27 28  2  0  0  0  0
 28 32  1  0  0  0  0
 29 25  1  0  0  0  0
 30 26  1  0  0  0  0
 32 33  2  0  0  0  0
 32 36  1  0  0  0  0
 33 34  1  0  0  0  0
 34 38  1  0  0  0  0
 34 35  2  0  0  0  0
 35 39  1  0  0  0  0
 36 35  1  0  0  0  0
 37 33  1  0  0  0  0
 41 40  3  0  0  0  0
M  END
>  <minimizedAffinity>
-5.63460684

$$$$

 OpenBabel03272507433D

 41 44  0  0  1  0  0  0  0  0999 V2000
   36.9640   26.9090   33.5160 C   0  0  0  0  0  0  0  0  0  0  0  0
   36.8980   26.3250   32.2470 C   0  0  0  0  0  0  0  0  0  0  0  0
   36.3990   27.0320   31.1720 C   0  0  0  0  0  0  0  0  0  0  0  0
   35.9820   28.3070   31.4030 N   0  0  0  0  0  0  0  0  0  0  0  0
   36.0530   28.8620   32.6420 C   0  0  0  0  0  0  0  0  0  0  0  0
   36.5370   28.1620   33.6650 N   0  0  0  0  0  0  0  0  0  0  0  0
   36.3190   26.6470   30.1720 H   0  0  0  0  0  0  0  0  0  0  0  0
   35.7250   29.8730   32.8370 H   0  0  0  0  0  0  0  0  0  0  0  0
   36.3270   24.0520   31.5810 C   0  0  0  0  0  0  0  0  0  0  0  0
   35.0370   24.0360   31.6040 O   0  0  0  0  0  0  0  0  0  0  0  0
   37.3060   25.0210   31.9260 N   0  0  0  0  0  0  0  0  0  0  0  0
   38.2720   24.6880   31.9150 H   0  0  0  0  0  0  0  0  0  0  0  0
   37.1260   20.7540   32.2680 C   0  0  2  0  0  3  0  0  0  0  0  0
   37.8030   22.0500   31.8640 C   0  0  0  0  0  3  0  0  0  0  0  0
   38.7190   21.8530   31.2830 H   0  0  0  0  0  0  0  0  0  0  0  0
   36.7240   22.7080   31.0600 C   0  0  1  0  0  3  0  0  0  0  0  0
   35.6310   21.8720   31.0400 O   0  0  0  0  0  0  0  0  0  0  0  0
   36.1860   20.5710   31.0940 C   0  0  0  0  0  3  0  0  0  0  0  0
   35.4280   19.8040   31.2350 H   0  0  0  0  0  0  0  0  0  0  0  0
   36.3730   21.0010   33.4060 O   0  0  0  0  0  0  0  0  0  0  0  0
   35.4140   21.1650   33.1990 H   0  0  0  0  0  0  0  0  0  0  0  0
   37.4790   26.0660   34.4410 O   0  0  0  0  0  0  0  0  0  0  0  0
   39.4010   24.6130   35.0060 C   0  0  0  0  0  0  0  0  0  0  0  0
   38.8390   25.8130   34.6150 C   0  0  0  0  0  0  0  0  0  0  0  0
   39.6330   26.9140   34.3500 C   0  0  0  0  0  0  0  0  0  0  0  0
   41.0160   26.8030   34.4820 C   0  0  0  0  0  0  0  0  0  0  0  0
   41.5780   25.6050   34.8730 C   0  0  0  0  0  0  0  0  0  0  0  0
   40.7480   24.5390   35.1260 C   0  0  0  0  0  0  0  0  0  0  0  0
   39.2710   27.8630   34.0460 H   0  0  0  0  0  0  0  0  0  0  0  0
   41.6530   27.6600   34.2780 H   0  0  0  0  0  0  0  0  0  0  0  0
   42.6580   25.5620   34.9650 H   0  0  0  0  0  0  0  0  0  0  0  0
   41.3630   23.2590   35.5450 C   0  0  0  0  0  0  0  0  0  0  0  0
   41.6860   22.8110   36.7940 C   0  0  0  0  0  0  0  0  0  0  0  0
   42.2430   21.5400   36.6610 C   0  0  0  0  0  0  0  0  0  0  0  0
   42.2230   21.2980   35.3100 C   0  0  0  0  0  0  0  0  0  0  0  0
   41.7000   22.3220   34.6740 O   0  0  0  0  0  0  0  0  0  0  0  0
   41.4820   23.4490   37.6640 H   0  0  0  0  0  0  0  0  0  0  0  0
   42.5740   20.9930   37.5340 H   0  0  0  0  0  0  0  0  0  0  0  0
   42.6050   20.3570   34.9020 H   0  0  0  0  0  0  0  0  0  0  0  0
   37.8130   22.6440   35.4760 N   0  0  0  0  0  0  0  0  0  0  0  0
   38.5120   23.5230   35.2600 C   0  0  0  0  0  0  0  0  0  0  0  0
  1  6  1  0  0  0  0
  1 22  1  0  0  0  0
  2  1  2  0  0  0  0
  3  4  2  0  0  0  0
  3  2  1  0  0  0  0
  4  5  1  0  0  0  0
  5  8  1  0  0  0  0
  5  6  2  0  0  0  0
  7  3  1  0  0  0  0
  9 10  2  0  0  0  0
  9 11  1  0  0  0  0
 11  2  1  0  0  0  0
 12 11  1  0  0  0  0
 13 20  1  1  0  0  0
 14 13  1  0  0  0  0
 15 14  1  0  0  0  0
 16  9  1  1  0  0  0
 16 14  1  0  0  0  0
 17 16  1  0  0  0  0
 17 18  1  0  0  0  0
 18 19  1  0  0  0  0
 18 13  1  0  0  0  0
 21 20  1  0  0  0  0
 22 24  1  0  0  0  0
 23 28  1  0  0  0  0
 23 41  1  0  0  0  0
 24 23  2  0  0  0  0
 25 26  2  0  0  0  0
 25 24  1  0  0  0  0
 26 27  1  0  0  0  0
 27 31  1  0  0  0  0
 27 28  2  0  0  0  0
 28 32  1  0  0  0  0
 29 25  1  0  0  0  0
 30 26  1  0  0  0  0
 32 33  2  0  0  0  0
 33 37  1  0  0  0  0
 34 33  1  0  0  0  0
 34 38  1  0  0  0  0
 35 34  2  0  0  0  0
 36 35  1  0  0  0  0
 36 32  1  0  0  0  0
 39 35  1  0  0  0  0
 41 40  3  0  0  0  0
M  END
>  <minimizedAffinity>
-5.63350534

$$$$

 OpenBabel03272507433D

 41 44  0  0  1  0  0  0  0  0999 V2000
   37.0270   25.9040   33.1170 C   0  0  0  0  0  0  0  0  0  0  0  0
   36.5480   27.0700   32.5110 C   0  0  0  0  0  0  0  0  0  0  0  0
   35.8320   27.0080   31.3330 C   0  0  0  0  0  0  0  0  0  0  0  0
   35.6170   25.7740   30.7980 N   0  0  0  0  0  0  0  0  0  0  0  0
   36.0890   24.6500   31.3990 C   0  0  0  0  0  0  0  0  0  0  0  0
   36.7770   24.7330   32.5340 N   0  0  0  0  0  0  0  0  0  0  0  0
   35.4350   27.8600   30.8130 H   0  0  0  0  0  0  0  0  0  0  0  0
   35.9240   23.6660   30.9830 H   0  0  0  0  0  0  0  0  0  0  0  0
   35.5840   29.1660   33.2950 C   0  0  0  0  0  0  0  0  0  0  0  0
   34.3160   29.0140   33.1060 O   0  0  0  0  0  0  0  0  0  0  0  0
   36.7240   28.3750   32.9960 N   0  0  0  0  0  0  0  0  0  0  0  0
   37.6250   28.8300   33.1610 H   0  0  0  0  0  0  0  0  0  0  0  0
   34.1670   31.5790   35.3340 C   0  0  2  0  0  3  0  0  0  0  0  0
   34.4960   31.3450   33.8720 C   0  0  0  0  0  3  0  0  0  0  0  0
   34.6780   32.2990   33.3510 H   0  0  0  0  0  0  0  0  0  0  0  0
   35.7200   30.4880   33.9780 C   0  0  1  0  0  3  0  0  0  0  0  0
   35.9990   30.3000   35.3120 O   0  0  0  0  0  0  0  0  0  0  0  0
   35.5560   31.4910   35.9330 C   0  0  0  0  0  3  0  0  0  0  0  0
   35.5770   31.4250   37.0190 H   0  0  0  0  0  0  0  0  0  0  0  0
   33.4210   30.4990   35.7820 O   0  0  0  0  0  0  0  0  0  0  0  0
   33.9770   29.8240   36.2570 H   0  0  0  0  0  0  0  0  0  0  0  0
   37.7040   26.1630   34.2610 O   0  0  0  0  0  0  0  0  0  0  0  0
   39.5530   24.6770   34.9640 C   0  0  0  0  0  0  0  0  0  0  0  0
   39.0490   25.8650   34.4710 C   0  0  0  0  0  0  0  0  0  0  0  0
   39.8940   26.9060   34.1300 C   0  0  0  0  0  0  0  0  0  0  0  0
   41.2690   26.7450   34.2890 C   0  0  0  0  0  0  0  0  0  0  0  0
   41.7730   25.5590   34.7810 C   0  0  0  0  0  0  0  0  0  0  0  0
   40.8940   24.5540   35.1070 C   0  0  0  0  0  0  0  0  0  0  0  0
   39.5780   27.8430   33.7470 H   0  0  0  0  0  0  0  0  0  0  0  0
   41.9460   27.5540   34.0250 H   0  0  0  0  0  0  0  0  0  0  0  0
   42.8500   25.4760   34.8900 H   0  0  0  0  0  0  0  0  0  0  0  0
   41.4480   23.2850   35.6330 C   0  0  0  0  0  0  0  0  0  0  0  0
   41.5240   22.8320   36.9200 C   0  0  0  0  0  0  0  0  0  0  0  0
   42.1310   21.5770   36.8940 C   0  0  0  0  0  0  0  0  0  0  0  0
   42.3900   21.3500   35.5660 C   0  0  0  0  0  0  0  0  0  0  0  0
   41.9780   22.3680   34.8420 O   0  0  0  0  0  0  0  0  0  0  0  0
   41.1320   23.4550   37.7340 H   0  0  0  0  0  0  0  0  0  0  0  0
   42.2940   21.0290   37.8130 H   0  0  0  0  0  0  0  0  0  0  0  0
   42.8730   20.4240   35.2370 H   0  0  0  0  0  0  0  0  0  0  0  0
   37.8710   22.8270   35.5720 N   0  0  0  0  0  0  0  0  0  0  0  0
   38.6140   23.6510   35.2920 C   0  0  0  0  0  0  0  0  0  0  0  0
  1 22  1  0  0  0  0
  2 11  1  0  0  0  0
  2  1  2  0  0  0  0
  3  2  1  0  0  0  0
  4  3  2  0  0  0  0
  4  5  1  0  0  0  0
  5  6  2  0  0  0  0
  6  1  1  0  0  0  0
  7  3  1  0  0  0  0
  8  5  1  0  0  0  0
 10  9  2  0  0  0  0
 11 12  1  0  0  0  0
 11  9  1  0  0  0  0
 13 20  1  1  0  0  0
 13 18  1  0  0  0  0
 14 16  1  0  0  0  0
 14 13  1  0  0  0  0
 15 14  1  0  0  0  0
 16  9  1  1  0  0  0
 16 17  1  0  0  0  0
 17 18  1  0  0  0  0
 18 19  1  0  0  0  0
 20 21  1  0  0  0  0
 22 24  1  0  0  0  0
 23 28  1  0  0  0  0
 23 41  1  0  0  0  0
 24 23  2  0  0  0  0
 25 26  2  0  0  0  0
 25 24  1  0  0  0  0
 26 27  1  0  0  0  0
 27 31  1  0  0  0  0
 27 28  2  0  0  0  0
 28 32  1  0  0  0  0
 29 25  1  0  0  0  0
 30 26  1  0  0  0  0
 32 33  2  0  0  0  0
 33 37  1  0  0  0  0
 34 33  1  0  0  0  0
 34 38  1  0  0  0  0
 35 34  2  0  0  0  0
 36 35  1  0  0  0  0
 36 32  1  0  0  0  0
 39 35  1  0  0  0  0
 41 40  3  0  0  0  0
M  END
>  <minimizedAffinity>
-5.58448076

$$$$

 OpenBabel03272507433D

 41 44  0  0  1  0  0  0  0  0999 V2000
   36.2420   28.9080   31.9010 C   0  0  0  0  0  0  0  0  0  0  0  0
   35.4840   30.0830   31.8960 C   0  0  0  0  0  0  0  0  0  0  0  0
   35.7120   31.0630   30.9500 C   0  0  0  0  0  0  0  0  0  0  0  0
   36.6950   30.8310   30.0370 N   0  0  0  0  0  0  0  0  0  0  0  0
   37.4220   29.6840   30.0550 C   0  0  0  0  0  0  0  0  0  0  0  0
   37.1870   28.7530   30.9760 N   0  0  0  0  0  0  0  0  0  0  0  0
   35.1690   31.9880   30.8860 H   0  0  0  0  0  0  0  0  0  0  0  0
   38.2050   29.4900   29.3340 H   0  0  0  0  0  0  0  0  0  0  0  0
   34.7460   31.2120   33.9250 C   0  0  0  0  0  0  0  0  0  0  0  0
   35.8360   31.6810   34.4330 O   0  0  0  0  0  0  0  0  0  0  0  0
   34.4570   30.3980   32.7980 N   0  0  0  0  0  0  0  0  0  0  0  0
   33.4860   30.0860   32.7240 H   0  0  0  0  0  0  0  0  0  0  0  0
   33.6630   31.9350   37.1330 C   0  0  2  0  0  3  0  0  0  0  0  0
   33.4570   30.8960   36.0470 C   0  0  0  0  0  3  0  0  0  0  0  0
   32.4530   30.4470   36.1150 H   0  0  0  0  0  0  0  0  0  0  0  0
   33.6540   31.7180   34.8110 C   0  0  1  0  0  3  0  0  0  0  0  0
   33.9220   33.0130   35.1930 O   0  0  0  0  0  0  0  0  0  0  0  0
   33.2010   33.1770   36.3990 C   0  0  0  0  0  3  0  0  0  0  0  0
   33.4390   34.1140   36.8990 H   0  0  0  0  0  0  0  0  0  0  0  0
   35.0260   32.0410   37.3710 O   0  0  0  0  0  0  0  0  0  0  0  0
   35.4380   32.8060   36.8860 H   0  0  0  0  0  0  0  0  0  0  0  0
   35.8770   28.0690   32.8990 O   0  0  0  0  0  0  0  0  0  0  0  0
   37.2180   26.0800   33.5100 C   0  0  0  0  0  0  0  0  0  0  0  0
   36.7660   27.3700   33.7140 C   0  0  0  0  0  0  0  0  0  0  0  0
   37.1910   28.1040   34.8060 C   0  0  0  0  0  0  0  0  0  0  0  0
   38.0850   27.5280   35.7070 C   0  0  0  0  0  0  0  0  0  0  0  0
   38.5360   26.2400   35.5040 C   0  0  0  0  0  0  0  0  0  0  0  0
   38.0850   25.5500   34.4040 C   0  0  0  0  0  0  0  0  0  0  0  0
   36.8880   29.0960   35.0260 H   0  0  0  0  0  0  0  0  0  0  0  0
   38.4280   28.0930   36.5710 H   0  0  0  0  0  0  0  0  0  0  0  0
   39.2310   25.8290   36.2300 H   0  0  0  0  0  0  0  0  0  0  0  0
   38.5760   24.1680   34.1970 C   0  0  0  0  0  0  0  0  0  0  0  0
   39.7130   23.7280   33.5810 C   0  0  0  0  0  0  0  0  0  0  0  0
   39.7210   22.3350   33.6450 C   0  0  0  0  0  0  0  0  0  0  0  0
   38.5630   22.0170   34.3090 C   0  0  0  0  0  0  0  0  0  0  0  0
   37.9060   23.1120   34.6250 O   0  0  0  0  0  0  0  0  0  0  0  0
   40.4120   24.4600   33.1540 H   0  0  0  0  0  0  0  0  0  0  0  0
   40.5380   21.7720   33.2140 H   0  0  0  0  0  0  0  0  0  0  0  0
   38.2970   20.9750   34.5090 H   0  0  0  0  0  0  0  0  0  0  0  0
   36.3220   24.8400   31.4410 N   0  0  0  0  0  0  0  0  0  0  0  0
   36.7310   25.3900   32.3570 C   0  0  0  0  0  0  0  0  0  0  0  0
  1 22  1  0  0  0  0
  2  1  1  0  0  0  0
  2 11  1  0  0  0  0
  3  2  2  0  0  0  0
  4  5  2  0  0  0  0
  4  3  1  0  0  0  0
  5  6  1  0  0  0  0
  6  1  2  0  0  0  0
  7  3  1  0  0  0  0
  8  5  1  0  0  0  0
  9 10  2  0  0  0  0
 11  9  1  0  0  0  0
 12 11  1  0  0  0  0
 13 20  1  6  0  0  0
 14 15  1  0  0  0  0
 14 13  1  0  0  0  0
 16  9  1  1  0  0  0
 16 17  1  0  0  0  0
 16 14  1  0  0  0  0
 17 18  1  0  0  0  0
 18 19  1  0  0  0  0
 18 13  1  0  0  0  0
 21 20  1  0  0  0  0
 22 24  1  0  0  0  0
 23 24  2  0  0  0  0
 23 28  1  0  0  0  0
 24 25  1  0  0  0  0
 25 29  1  0  0  0  0
 25 26  2  0  0  0  0
 26 30  1  0  0  0  0
 27 26  1  0  0  0  0
 27 31  1  0  0  0  0
 28 27  2  0  0  0  0
 32 28  1  0  0  0  0
 32 36  1  0  0  0  0
 33 34  1  0  0  0  0
 33 32  2  0  0  0  0
 34 35  2  0  0  0  0
 35 39  1  0  0  0  0
 35 36  1  0  0  0  0
 37 33  1  0  0  0  0
 38 34  1  0  0  0  0
 40 41  3  0  0  0  0
 41 23  1  0  0  0  0
M  END
>  <minimizedAffinity>
-5.54591894

$$$$

 OpenBabel03272507433D

 41 44  0  0  1  0  0  0  0  0999 V2000
   38.1310   23.8640   34.2420 C   0  0  0  0  0  0  0  0  0  0  0  0
   38.0450   22.5070   34.5730 C   0  0  0  0  0  0  0  0  0  0  0  0
   37.9660   22.1100   35.8930 C   0  0  0  0  0  0  0  0  0  0  0  0
   37.9760   23.0870   36.8400 N   0  0  0  0  0  0  0  0  0  0  0  0
   38.0600   24.4000   36.5020 C   0  0  0  0  0  0  0  0  0  0  0  0
   38.1350   24.7620   35.2240 N   0  0  0  0  0  0  0  0  0  0  0  0
   37.8980   21.0880   36.2190 H   0  0  0  0  0  0  0  0  0  0  0  0
   38.0680   25.1850   37.2470 H   0  0  0  0  0  0  0  0  0  0  0  0
   36.7870   20.8630   33.2910 C   0  0  0  0  0  0  0  0  0  0  0  0
   35.5740   21.0050   33.7080 O   0  0  0  0  0  0  0  0  0  0  0  0
   38.0290   21.4420   33.6600 N   0  0  0  0  0  0  0  0  0  0  0  0
   38.8520   21.0260   33.2200 H   0  0  0  0  0  0  0  0  0  0  0  0
   37.3190   20.0960   29.9560 C   0  0  2  0  0  3  0  0  0  0  0  0
   36.1770   20.4070   30.9060 C   0  0  0  0  0  3  0  0  0  0  0  0
   35.2440   19.9240   30.5730 H   0  0  0  0  0  0  0  0  0  0  0  0
   36.7040   19.8510   32.1930 C   0  0  1  0  0  3  0  0  0  0  0  0
   37.9490   19.3170   31.9540 O   0  0  0  0  0  0  0  0  0  0  0  0
   37.8790   18.8530   30.6180 C   0  0  0  0  0  3  0  0  0  0  0  0
   38.8480   18.5360   30.2390 H   0  0  0  0  0  0  0  0  0  0  0  0
   38.2530   21.1150   30.0620 O   0  0  0  0  0  0  0  0  0  0  0  0
   39.0050   20.8810   30.6700 H   0  0  0  0  0  0  0  0  0  0  0  0
   38.2010   24.0590   32.9030 O   0  0  0  0  0  0  0  0  0  0  0  0
   37.4280   26.1160   31.7640 C   0  0  0  0  0  0  0  0  0  0  0  0
   37.2830   24.8000   32.1610 C   0  0  0  0  0  0  0  0  0  0  0  0
   36.1490   24.0820   31.8290 C   0  0  0  0  0  0  0  0  0  0  0  0
   35.1450   24.7000   31.0860 C   0  0  0  0  0  0  0  0  0  0  0  0
   35.2900   26.0140   30.6890 C   0  0  0  0  0  0  0  0  0  0  0  0
   36.4340   26.6870   31.0440 C   0  0  0  0  0  0  0  0  0  0  0  0
   35.9700   23.0720   32.0990 H   0  0  0  0  0  0  0  0  0  0  0  0
   34.2470   24.1480   30.8170 H   0  0  0  0  0  0  0  0  0  0  0  0
   34.4840   26.4570   30.1130 H   0  0  0  0  0  0  0  0  0  0  0  0
   36.5780   28.0960   30.6120 C   0  0  0  0  0  0  0  0  0  0  0  0
   36.1490   29.2440   31.2160 C   0  0  0  0  0  0  0  0  0  0  0  0
   36.5300   30.3170   30.4120 C   0  0  0  0  0  0  0  0  0  0  0  0
   37.1770   29.7360   29.3500 C   0  0  0  0  0  0  0  0  0  0  0  0
   37.1940   28.4280   29.4900 O   0  0  0  0  0  0  0  0  0  0  0  0
   35.6090   29.1810   32.1700 H   0  0  0  0  0  0  0  0  0  0  0  0
   36.2900   31.3310   30.7020 H   0  0  0  0  0  0  0  0  0  0  0  0
   37.5940   30.3460   28.5430 H   0  0  0  0  0  0  0  0  0  0  0  0
   39.5930   27.3140   32.4710 N   0  0  0  0  0  0  0  0  0  0  0  0
   38.6300   26.7880   32.1480 C   0  0  0  0  0  0  0  0  0  0  0  0
  1  2  2  0  0  0  0
  1  6  1  0  0  0  0
  2  3  1  0  0  0  0
  3  7  1  0  0  0  0
  3  4  2  0  0  0  0
  5  4  1  0  0  0  0
  5  8  1  0  0  0  0
  6  5  2  0  0  0  0
  9 11  1  0  0  0  0
  9 10  2  0  0  0  0
 11  2  1  0  0  0  0
 12 11  1  0  0  0  0
 13 20  1  1  0  0  0
 13 18  1  0  0  0  0
 13 14  1  0  0  0  0
 14 16  1  0  0  0  0
 15 14  1  0  0  0  0
 16  9  1  1  0  0  0
 17 16  1  0  0  0  0
 18 17  1  0  0  0  0
 19 18  1  0  0  0  0
 20 21  1  0  0  0  0
 22  1  1  0  0  0  0
 23 41  1  0  0  0  0
 23 24  1  0  0  0  0
 24 22  1  0  0  0  0
 25 29  1  0  0  0  0
 25 24  2  0  0  0  0
 26 25  1  0  0  0  0
 27 28  1  0  0  0  0
 27 26  2  0  0  0  0
 28 23  2  0  0  0  0
 30 26  1  0  0  0  0
 31 27  1  0  0  0  0
 32 28  1  0  0  0  0
 32 33  2  0  0  0  0
 33 37  1  0  0  0  0
 34 38  1  0  0  0  0
 34 33  1  0  0  0  0
 35 36  1  0  0  0  0
 35 34  2  0  0  0  0
 36 32  1  0  0  0  0
 39 35  1  0  0  0  0
 41 40  3  0  0  0  0
M  END
>  <minimizedAffinity>
-5.48837137

$$$$

 OpenBabel03272507433D

 41 44  0  0  1  0  0  0  0  0999 V2000
   35.8600   28.7350   32.5970 C   0  0  0  0  0  0  0  0  0  0  0  0
   34.9550   29.7790   32.8170 C   0  0  0  0  0  0  0  0  0  0  0  0
   34.8240   30.8010   31.8980 C   0  0  0  0  0  0  0  0  0  0  0  0
   35.6060   30.7430   30.7850 N   0  0  0  0  0  0  0  0  0  0  0  0
   36.4800   29.7220   30.5860 C   0  0  0  0  0  0  0  0  0  0  0  0
   36.5910   28.7480   31.4850 N   0  0  0  0  0  0  0  0  0  0  0  0
   34.1510   31.6320   32.0010 H   0  0  0  0  0  0  0  0  0  0  0  0
   37.1060   29.6670   29.7060 H   0  0  0  0  0  0  0  0  0  0  0  0
   32.8090   29.3570   33.8900 C   0  0  0  0  0  0  0  0  0  0  0  0
   32.0980   28.8150   32.9590 O   0  0  0  0  0  0  0  0  0  0  0  0
   34.1150   29.9120   33.9330 N   0  0  0  0  0  0  0  0  0  0  0  0
   34.3580   30.3870   34.8040 H   0  0  0  0  0  0  0  0  0  0  0  0
   30.1720   27.8790   35.5780 C   0  0  2  0  0  3  0  0  0  0  0  0
   30.4910   29.1480   34.8100 C   0  0  0  0  0  3  0  0  0  0  0  0
   29.8730   29.9890   35.1640 H   0  0  0  0  0  0  0  0  0  0  0  0
   31.9490   29.3170   35.1110 C   0  0  1  0  0  3  0  0  0  0  0  0
   32.3420   28.2830   35.9290 O   0  0  0  0  0  0  0  0  0  0  0  0
   31.1900   27.9860   36.6960 C   0  0  0  0  0  3  0  0  0  0  0  0
   31.3090   27.0810   37.2880 H   0  0  0  0  0  0  0  0  0  0  0  0
   30.5050   26.7980   34.7760 O   0  0  0  0  0  0  0  0  0  0  0  0
   31.4020   26.4250   34.9930 H   0  0  0  0  0  0  0  0  0  0  0  0
   35.8490   27.8300   33.6040 O   0  0  0  0  0  0  0  0  0  0  0  0
   37.4820   25.9710   33.6600 C   0  0  0  0  0  0  0  0  0  0  0  0
   36.9780   27.1810   34.0990 C   0  0  0  0  0  0  0  0  0  0  0  0
   37.5970   27.8760   35.1230 C   0  0  0  0  0  0  0  0  0  0  0  0
   38.7420   27.3420   35.7130 C   0  0  0  0  0  0  0  0  0  0  0  0
   39.2450   26.1340   35.2750 C   0  0  0  0  0  0  0  0  0  0  0  0
   38.5950   25.4800   34.2550 C   0  0  0  0  0  0  0  0  0  0  0  0
   37.2680   28.8060   35.5100 H   0  0  0  0  0  0  0  0  0  0  0  0
   39.2390   27.8760   36.5190 H   0  0  0  0  0  0  0  0  0  0  0  0
   40.1370   25.7540   35.7620 H   0  0  0  0  0  0  0  0  0  0  0  0
   39.1450   24.1850   33.7930 C   0  0  0  0  0  0  0  0  0  0  0  0
   40.1200   23.9280   32.8720 C   0  0  0  0  0  0  0  0  0  0  0  0
   40.2760   22.5450   32.7920 C   0  0  0  0  0  0  0  0  0  0  0  0
   39.3650   22.0450   33.6880 C   0  0  0  0  0  0  0  0  0  0  0  0
   38.7120   23.0290   34.2670 O   0  0  0  0  0  0  0  0  0  0  0  0
   40.6110   24.7660   32.3600 H   0  0  0  0  0  0  0  0  0  0  0  0
   41.0040   22.1140   32.1160 H   0  0  0  0  0  0  0  0  0  0  0  0
   39.2610   20.9660   33.8420 H   0  0  0  0  0  0  0  0  0  0  0  0
   36.2140   24.7840   31.7620 N   0  0  0  0  0  0  0  0  0  0  0  0
   36.7840   25.3170   32.5980 C   0  0  0  0  0  0  0  0  0  0  0  0
  1  2  1  0  0  0  0
  1 22  1  0  0  0  0
  2 11  1  0  0  0  0
  3  7  1  0  0  0  0
  3  2  2  0  0  0  0
  4  3  1  0  0  0  0
  5  4  2  0  0  0  0
  5  6  1  0  0  0  0
  6  1  2  0  0  0  0
  8  5  1  0  0  0  0
  9 11  1  0  0  0  0
 10  9  2  0  0  0  0
 11 12  1  0  0  0  0
 13 20  1  6  0  0  0
 13 18  1  0  0  0  0
 14 16  1  0  0  0  0
 14 15  1  0  0  0  0
 14 13  1  0  0  0  0
 16  9  1  6  0  0  0
 16 17  1  0  0  0  0
 17 18  1  0  0  0  0
 18 19  1  0  0  0  0
 20 21  1  0  0  0  0
 22 24  1  0  0  0  0
 23 24  2  0  0  0  0
 23 28  1  0  0  0  0
 24 25  1  0  0  0  0
 25 29  1  0  0  0  0
 25 26  2  0  0  0  0
 26 30  1  0  0  0  0
 27 26  1  0  0  0  0
 27 31  1  0  0  0  0
 28 27  2  0  0  0  0
 32 28  1  0  0  0  0
 32 36  1  0  0  0  0
 33 32  2  0  0  0  0
 34 33  1  0  0  0  0
 34 35  2  0  0  0  0
 35 39  1  0  0  0  0
 35 36  1  0  0  0  0
 37 33  1  0  0  0  0
 38 34  1  0  0  0  0
 40 41  3  0  0  0  0
 41 23  1  0  0  0  0
M  END
>  <minimizedAffinity>
-5.45869827

$$$$
