
 OpenBabel03272500073D

 39 42  0  0  1  0  0  0  0  0999 V2000
   32.2210   27.1300   47.8740 O   0  0  0  0  0  0  0  0  0  0  0  0
   30.9150   27.5540   48.1830 C   0  0  0  0  0  0  0  0  0  0  0  0
   30.7170   27.6910   49.5600 C   0  0  0  0  0  0  0  0  0  0  0  0
   29.5020   28.0980   50.0570 C   0  0  0  0  0  0  0  0  0  0  0  0
   28.4760   28.3700   49.1650 C   0  0  0  0  0  0  0  0  0  0  0  0
   28.7010   28.2260   47.8200 C   0  0  0  0  0  0  0  0  0  0  0  0
   29.9060   27.8190   47.2830 C   0  0  0  0  0  0  0  0  0  0  0  0
   31.4760   27.4940   50.3100 H   0  0  0  0  0  0  0  0  0  0  0  0
   29.3310   28.2110   51.1180 H   0  0  0  0  0  0  0  0  0  0  0  0
   27.5140   28.6940   49.5510 H   0  0  0  0  0  0  0  0  0  0  0  0
   27.8670   28.4520   47.1730 H   0  0  0  0  0  0  0  0  0  0  0  0
   30.0510   26.2060   45.3870 C   0  0  2  0  0  3  0  0  0  0  0  0
   30.1770   27.6390   45.8680 C   0  0  1  0  0  3  0  0  0  0  0  0
   29.0880   28.2320   44.9560 C   0  0  0  0  0  3  0  0  0  0  0  0
   28.0910   27.8200   45.2360 H   0  0  0  0  0  0  0  0  0  0  0  0
   29.3580   27.6890   43.7000 O   0  0  0  0  0  0  0  0  0  0  0  0
   30.0550   26.5060   43.8800 C   0  0  0  0  0  3  0  0  0  0  0  0
   29.6310   25.6640   43.3090 H   0  0  0  0  0  0  0  0  0  0  0  0
   28.8250   25.6820   45.7030 O   0  0  0  0  0  0  0  0  0  0  0  0
   28.8660   25.0490   46.4680 H   0  0  0  0  0  0  0  0  0  0  0  0
   35.2260   28.7770   48.9330 C   0  0  0  0  0  0  0  0  0  0  0  0
   35.1980   29.9950   48.2410 C   0  0  0  0  0  0  0  0  0  0  0  0
   34.1100   30.2290   47.3990 C   0  0  0  0  0  0  0  0  0  0  0  0
   33.1510   29.2700   47.3010 N   0  0  0  0  0  0  0  0  0  0  0  0
   33.2050   28.1190   47.9730 C   0  0  0  0  0  0  0  0  0  0  0  0
   34.2520   27.8590   48.8030 N   0  0  0  0  0  0  0  0  0  0  0  0
   36.0840   28.5990   49.5930 H   0  0  0  0  0  0  0  0  0  0  0  0
   34.0730   31.1560   46.8610 H   0  0  0  0  0  0  0  0  0  0  0  0
   36.2640   30.9090   48.4290 N   0  0  0  0  0  0  0  0  0  0  0  0
   36.4710   31.5350   49.5810 C   0  0  0  0  0  0  0  0  0  0  0  0
   37.5440   32.4210   49.6890 C   0  0  0  0  0  0  0  0  0  0  0  0
   38.3050   32.5710   48.5730 C   0  0  0  0  0  0  0  0  0  0  0  0
   39.2780   33.3690   48.6550 O   0  0  0  0  0  0  0  0  0  0  0  0
   38.1310   31.9650   47.4090 N   0  0  0  0  0  0  0  0  0  0  0  0
   37.0740   31.1030   47.3320 C   0  0  0  0  0  0  0  0  0  0  0  0
   36.8930   30.5150   46.2230 O   0  0  0  0  0  0  0  0  0  0  0  0
   35.8360   31.3790   50.4370 H   0  0  0  0  0  0  0  0  0  0  0  0
   37.7100   32.9300   50.6270 H   0  0  0  0  0  0  0  0  0  0  0  0
   38.7620   32.1340   46.5950 H   0  0  0  0  0  0  0  0  0  0  0  0
  1 25  1  0  0  0  0
  1  2  1  0  0  0  0
  2  3  1  0  0  0  0
  3  4  2  0  0  0  0
  3  8  1  0  0  0  0
  4  9  1  0  0  0  0
  5 10  1  0  0  0  0
  5  4  1  0  0  0  0
  6  5  2  0  0  0  0
  7  6  1  0  0  0  0
  7  2  2  0  0  0  0
 11  6  1  0  0  0  0
 12 19  1  1  0  0  0
 12 13  1  0  0  0  0
 13  7  1  1  0  0  0
 14 15  1  0  0  0  0
 14 13  1  0  0  0  0
 16 17  1  0  0  0  0
 16 14  1  0  0  0  0
 17 12  1  0  0  0  0
 18 17  1  0  0  0  0
 19 20  1  0  0  0  0
 21 27  1  0  0  0  0
 22 29  1  0  0  0  0
 22 21  2  0  0  0  0
 23 22  1  0  0  0  0
 24 23  2  0  0  0  0
 24 25  1  0  0  0  0
 25 26  2  0  0  0  0
 26 21  1  0  0  0  0
 28 23  1  0  0  0  0
 29 30  1  0  0  0  0
 30 31  2  0  0  0  0
 30 37  1  0  0  0  0
 31 38  1  0  0  0  0
 32 33  2  0  0  0  0
 32 31  1  0  0  0  0
 34 32  1  0  0  0  0
 35 34  1  0  0  0  0
 35 29  1  0  0  0  0
 36 35  2  0  0  0  0
 39 34  1  0  0  0  0
M  END
>  <minimizedAffinity>
-5.76477909

>  <minimizedRMSD>
1.31045651

$$$$
