
 OpenBabel03272505453D

 25 27  0  0  1  0  0  0  0  0999 V2000
   37.3610   30.3610   48.2360 C   0  0  0  0  0  0  0  0  0  0  0  0
   36.1310   29.7440   47.7980 C   0  0  0  0  0  0  0  0  0  0  0  0
   36.0480   31.0630   48.4840 C   0  0  0  0  0  0  0  0  0  0  0  0
   35.6610   28.8550   48.2450 H   0  0  0  0  0  0  0  0  0  0  0  0
   35.9440   29.7730   46.6880 H   0  0  0  0  0  0  0  0  0  0  0  0
   35.7930   31.9770   47.9310 H   0  0  0  0  0  0  0  0  0  0  0  0
   35.6200   31.0340   49.5020 H   0  0  0  0  0  0  0  0  0  0  0  0
   39.6250   32.8280   46.6690 C   0  0  0  0  0  0  0  0  0  0  0  0
   40.0780   32.1740   45.5240 C   0  0  0  0  0  0  0  0  0  0  0  0
   39.5960   30.8790   45.2930 C   0  0  0  0  0  0  0  0  0  0  0  0
   38.7200   30.3250   46.1810 N   0  0  0  0  0  0  0  0  0  0  0  0
   38.3050   31.0090   47.2920 C   0  0  0  0  0  0  0  0  0  0  0  0
   38.7640   32.2650   47.5320 N   0  0  0  0  0  0  0  0  0  0  0  0
   40.0310   33.8360   46.8040 H   0  0  0  0  0  0  0  0  0  0  0  0
   40.7670   32.5920   44.8110 H   0  0  0  0  0  0  0  0  0  0  0  0
   39.8740   30.2700   44.4370 H   0  0  0  0  0  0  0  0  0  0  0  0
   37.4080   29.0550   50.4020 C   0  0  2  0  0  3  0  0  0  0  0  0
   38.0980   30.0270   49.5230 C   0  0  2  0  0  3  0  0  0  0  0  0
   38.2430   31.2570   50.3970 C   0  0  0  0  0  3  0  0  0  0  0  0
   39.2180   31.1750   50.9070 H   0  0  0  0  0  0  0  0  0  0  0  0
   37.1780   31.2000   51.2700 O   0  0  0  0  0  0  0  0  0  0  0  0
   36.8980   29.8710   51.5420 C   0  0  0  0  0  3  0  0  0  0  0  0
   37.3560   29.6250   52.5280 H   0  0  0  0  0  0  0  0  0  0  0  0
   38.3670   28.1690   50.9310 O   0  0  0  0  0  0  0  0  0  0  0  0
   38.1540   27.2230   50.7380 H   0  0  0  0  0  0  0  0  0  0  0  0
  1  3  1  0  0  0  0
  2  1  1  0  0  0  0
  2  4  1  0  0  0  0
  2  3  1  0  0  0  0
  3  7  1  0  0  0  0
  5  2  1  0  0  0  0
  6  3  1  0  0  0  0
  8 14  1  0  0  0  0
  8 13  1  0  0  0  0
  9  8  2  0  0  0  0
 10  9  1  0  0  0  0
 10 11  2  0  0  0  0
 11 12  1  0  0  0  0
 12 13  2  0  0  0  0
 12  1  1  0  0  0  0
 15  9  1  0  0  0  0
 16 10  1  0  0  0  0
 17 24  1  1  0  0  0
 17 22  1  0  0  0  0
 18  1  1  6  0  0  0
 18 19  1  0  0  0  0
 18 17  1  0  0  0  0
 19 20  1  0  0  0  0
 19 21  1  0  0  0  0
 21 22  1  0  0  0  0
 22 23  1  0  0  0  0
 25 24  1  0  0  0  0
M  END
>  <minimizedAffinity>
-4.37678003

>  <minimizedRMSD>
2.567137

$$$$
