
 OpenBabel03272504033D

 41 44  0  0  1  0  0  0  0  0999 V2000
   34.4240   29.2900   48.8780 C   0  0  0  0  0  0  0  0  0  0  0  0
   33.7250   30.1760   48.8530 H   0  0  0  0  0  0  0  0  0  0  0  0
   34.0920   28.6750   49.7080 H   0  0  0  0  0  0  0  0  0  0  0  0
   35.7670   29.8580   49.0760 C   0  0  0  0  0  0  0  0  0  0  0  0
   36.6680   29.3290   50.0110 C   0  0  0  0  0  0  0  0  0  0  0  0
   37.8090   30.0770   49.9450 C   0  0  0  0  0  0  0  0  0  0  0  0
   37.6150   31.0210   49.0130 N   0  0  0  0  0  0  0  0  0  0  0  0
   36.4060   30.8600   48.5260 N   0  0  0  0  0  0  0  0  0  0  0  0
   36.5120   28.4840   50.6740 H   0  0  0  0  0  0  0  0  0  0  0  0
   38.7370   29.9970   50.4990 H   0  0  0  0  0  0  0  0  0  0  0  0
   38.4450   32.0610   48.5280 C   0  0  0  0  0  0  0  0  0  0  0  0
   38.6870   33.0990   49.3890 C   0  0  0  0  0  0  0  0  0  0  0  0
   39.4800   34.2070   49.0820 C   0  0  0  0  0  0  0  0  0  0  0  0
   40.0400   34.2130   47.8060 C   0  0  0  0  0  0  0  0  0  0  0  0
   39.8090   33.1830   46.9300 C   0  0  0  0  0  0  0  0  0  0  0  0
   39.0200   32.1010   47.2610 C   0  0  0  0  0  0  0  0  0  0  0  0
   38.2670   33.1260   50.3900 H   0  0  0  0  0  0  0  0  0  0  0  0
   39.6520   35.0120   49.7840 H   0  0  0  0  0  0  0  0  0  0  0  0
   40.6630   35.0240   47.4830 H   0  0  0  0  0  0  0  0  0  0  0  0
   40.2000   33.1030   45.9230 H   0  0  0  0  0  0  0  0  0  0  0  0
   38.7970   31.2650   46.6350 H   0  0  0  0  0  0  0  0  0  0  0  0
   34.2610   28.5760   47.5870 C   0  0  0  0  0  0  0  0  0  0  0  0
   35.1530   27.9050   47.4730 H   0  0  0  0  0  0  0  0  0  0  0  0
   33.4080   27.8600   47.7080 H   0  0  0  0  0  0  0  0  0  0  0  0
   33.9850   29.3660   46.4180 C   0  0  0  0  0  0  0  0  0  0  0  0
   32.7260   29.8210   46.1580 C   0  0  0  0  0  0  0  0  0  0  0  0
   32.4580   30.5970   45.0090 C   0  0  0  0  0  0  0  0  0  0  0  0
   33.5360   30.8530   44.1880 N   0  0  0  0  0  0  0  0  0  0  0  0
   34.7660   30.3820   44.4820 C   0  0  0  0  0  0  0  0  0  0  0  0
   34.9660   29.6470   45.5930 N   0  0  0  0  0  0  0  0  0  0  0  0
   31.8900   29.6050   46.8240 H   0  0  0  0  0  0  0  0  0  0  0  0
   31.4610   30.9600   44.8000 H   0  0  0  0  0  0  0  0  0  0  0  0
   35.9980   29.7290   42.4050 C   0  0  2  0  0  3  0  0  0  0  0  0
   35.9170   30.6780   43.5710 C   0  0  1  0  0  3  0  0  0  0  0  0
   35.6720   32.0050   42.9100 C   0  0  0  0  0  3  0  0  0  0  0  0
   34.6170   32.3490   43.0800 H   0  0  0  0  0  0  0  0  0  0  0  0
   35.8540   31.7990   41.5380 O   0  0  0  0  0  0  0  0  0  0  0  0
   35.3220   30.5190   41.3190 C   0  0  0  0  0  3  0  0  0  0  0  0
   34.2250   30.5100   41.4350 H   0  0  0  0  0  0  0  0  0  0  0  0
   35.4260   28.4980   42.6250 O   0  0  0  0  0  0  0  0  0  0  0  0
   36.0850   27.7410   42.5780 H   0  0  0  0  0  0  0  0  0  0  0  0
  1  4  1  0  0  0  0
  1  3  1  0  0  0  0
  2  1  1  0  0  0  0
  4  5  1  0  0  0  0
  5  9  1  0  0  0  0
  6  5  2  0  0  0  0
  6 10  1  0  0  0  0
  7  6  1  0  0  0  0
  8  7  1  0  0  0  0
  8  4  2  0  0  0  0
 11  7  1  0  0  0  0
 11 12  1  0  0  0  0
 12 17  1  0  0  0  0
 13 12  2  0  0  0  0
 13 18  1  0  0  0  0
 14 13  1  0  0  0  0
 15 16  1  0  0  0  0
 15 14  2  0  0  0  0
 16 11  2  0  0  0  0
 19 14  1  0  0  0  0
 20 15  1  0  0  0  0
 21 16  1  0  0  0  0
 22 24  1  0  0  0  0
 22  1  1  0  0  0  0
 23 22  1  0  0  0  0
 25 22  1  0  0  0  0
 26 25  1  0  0  0  0
 26 31  1  0  0  0  0
 27 26  2  0  0  0  0
 28 29  2  0  0  0  0
 28 27  1  0  0  0  0
 29 30  1  0  0  0  0
 30 25  2  0  0  0  0
 32 27  1  0  0  0  0
 33 40  1  1  0  0  0
 33 34  1  0  0  0  0
 34 29  1  1  0  0  0
 35 36  1  0  0  0  0
 35 34  1  0  0  0  0
 37 35  1  0  0  0  0
 38 39  1  0  0  0  0
 38 37  1  0  0  0  0
 38 33  1  0  0  0  0
 41 40  1  0  0  0  0
M  END
>  <minimizedAffinity>
-5.45293045

>  <minimizedRMSD>
0.390420586

$$$$
