
 OpenBabel03272507413D

 41 44  0  0  1  0  0  0  0  0999 V2000
   36.6210   31.1740   50.0690 C   0  0  0  0  0  0  0  0  0  0  0  0
   35.5340   30.3240   49.8430 C   0  0  0  0  0  0  0  0  0  0  0  0
   35.3320   29.2140   50.6380 C   0  0  0  0  0  0  0  0  0  0  0  0
   36.2290   28.9910   51.6370 N   0  0  0  0  0  0  0  0  0  0  0  0
   37.2800   29.8260   51.8450 C   0  0  0  0  0  0  0  0  0  0  0  0
   37.4560   30.8910   51.0670 N   0  0  0  0  0  0  0  0  0  0  0  0
   34.5200   28.5190   50.5210 H   0  0  0  0  0  0  0  0  0  0  0  0
   37.9980   29.6590   52.6360 H   0  0  0  0  0  0  0  0  0  0  0  0
   34.2320   29.3750   48.0160 C   0  0  0  0  0  0  0  0  0  0  0  0
   34.7180   28.1880   47.8720 O   0  0  0  0  0  0  0  0  0  0  0  0
   34.5680   30.4830   48.8380 N   0  0  0  0  0  0  0  0  0  0  0  0
   34.0640   31.3480   48.6300 H   0  0  0  0  0  0  0  0  0  0  0  0
   32.9740   30.5950   45.0290 C   0  0  2  0  0  0  0  0  0  0  0  0
   32.8400   30.8240   46.5230 C   0  0  0  0  0  0  0  0  0  0  0  0
   31.8400   31.2140   46.7740 H   0  0  0  0  0  0  0  0  0  0  0  0
   33.0880   29.4470   47.0560 C   0  0  1  0  0  0  0  0  0  0  0  0
   33.3170   28.6070   45.9900 O   0  0  0  0  0  0  0  0  0  0  0  0
   32.5320   29.1480   44.9450 C   0  0  0  0  0  0  0  0  0  0  0  0
   32.7300   28.6690   43.9880 H   0  0  0  0  0  0  0  0  0  0  0  0
   34.3200   30.6680   44.7050 O   0  0  0  0  0  0  0  0  0  0  0  0
   34.7460   29.7710   44.6440 H   0  0  0  0  0  0  0  0  0  0  0  0
   36.6550   32.2060   49.1930 O   0  0  0  0  0  0  0  0  0  0  0  0
   38.1940   32.1480   47.2550 C   0  0  0  0  0  0  0  0  0  0  0  0
   37.7880   32.6140   48.4910 C   0  0  0  0  0  0  0  0  0  0  0  0
   38.5210   33.5780   49.1600 C   0  0  0  0  0  0  0  0  0  0  0  0
   39.6820   34.0790   48.5730 C   0  0  0  0  0  0  0  0  0  0  0  0
   40.0870   33.6140   47.3390 C   0  0  0  0  0  0  0  0  0  0  0  0
   39.3270   32.6550   46.7130 C   0  0  0  0  0  0  0  0  0  0  0  0
   38.2700   33.9810   50.1090 H   0  0  0  0  0  0  0  0  0  0  0  0
   40.2680   34.8370   49.0870 H   0  0  0  0  0  0  0  0  0  0  0  0
   40.9970   34.0300   46.9190 H   0  0  0  0  0  0  0  0  0  0  0  0
   39.7720   32.1640   45.3890 C   0  0  0  0  0  0  0  0  0  0  0  0
   40.6220   31.1420   45.0760 C   0  0  0  0  0  0  0  0  0  0  0  0
   40.7190   31.0780   43.6870 C   0  0  0  0  0  0  0  0  0  0  0  0
   39.9050   32.0890   43.2410 C   0  0  0  0  0  0  0  0  0  0  0  0
   39.3570   32.7140   44.2600 O   0  0  0  0  0  0  0  0  0  0  0  0
   41.0780   30.5540   45.8840 H   0  0  0  0  0  0  0  0  0  0  0  0
   41.3470   30.3330   43.2160 H   0  0  0  0  0  0  0  0  0  0  0  0
   39.7820   32.2800   42.1700 H   0  0  0  0  0  0  0  0  0  0  0  0
   36.7180   30.3690   46.1250 N   0  0  0  0  0  0  0  0  0  0  0  0
   37.3810   31.1520   46.6310 C   0  0  0  0  0  0  0  0  0  0  0  0
  1  6  1  0  0  0  0
  2  1  2  0  0  0  0
  2  3  1  0  0  0  0
  3  4  2  0  0  0  0
  4  5  1  0  0  0  0
  5  8  1  0  0  0  0
  6  5  2  0  0  0  0
  7  3  1  0  0  0  0
  9 11  1  0  0  0  0
 10  9  2  0  0  0  0
 11  2  1  0  0  0  0
 12 11  1  0  0  0  0
 13 20  1  1  0  0  0
 13 14  1  0  0  0  0
 14 15  1  0  0  0  0
 14 16  1  0  0  0  0
 16  9  1  1  0  0  0
 17 16  1  0  0  0  0
 18 13  1  0  0  0  0
 18 17  1  0  0  0  0
 19 18  1  0  0  0  0
 21 20  1  0  0  0  0
 22  1  1  0  0  0  0
 23 24  1  0  0  0  0
 24 25  2  0  0  0  0
 24 22  1  0  0  0  0
 25 29  1  0  0  0  0
 26 30  1  0  0  0  0
 26 25  1  0  0  0  0
 27 26  2  0  0  0  0
 28 23  2  0  0  0  0
 28 27  1  0  0  0  0
 31 27  1  0  0  0  0
 32 28  1  0  0  0  0
 33 32  2  0  0  0  0
 33 37  1  0  0  0  0
 34 33  1  0  0  0  0
 35 34  2  0  0  0  0
 35 36  1  0  0  0  0
 36 32  1  0  0  0  0
 38 34  1  0  0  0  0
 39 35  1  0  0  0  0
 40 41  3  0  0  0  0
 41 23  1  0  0  0  0
M  END
>  <minimizedAffinity>
-5.94966507

>  <minimizedRMSD>
0.889061213

$$$$
