
 OpenBabel03272505233D

 35 38  0  0  1  0  0  0  0  0999 V2000
   38.4590   30.8540   46.6120 Br  0  0  0  0  0  0  0  0  0  0  0  0
   36.6040   30.4770   46.3330 C   0  0  0  0  0  0  0  0  0  0  0  0
   35.7820   30.2370   47.4130 C   0  0  0  0  0  0  0  0  0  0  0  0
   34.4330   29.9740   47.1590 C   0  0  0  0  0  0  0  0  0  0  0  0
   33.9720   29.9630   45.8590 C   0  0  0  0  0  0  0  0  0  0  0  0
   34.8060   30.2070   44.7690 C   0  0  0  0  0  0  0  0  0  0  0  0
   36.1250   30.4630   45.0310 C   0  0  0  0  0  0  0  0  0  0  0  0
   33.8060   29.7880   48.0200 H   0  0  0  0  0  0  0  0  0  0  0  0
   32.9170   29.7560   45.6920 H   0  0  0  0  0  0  0  0  0  0  0  0
   34.4020   30.1890   43.7670 H   0  0  0  0  0  0  0  0  0  0  0  0
   37.1920   31.4800   50.6850 C   0  0  0  0  0  0  0  0  0  0  0  0
   36.6270   31.4520   49.4060 C   0  0  0  0  0  0  0  0  0  0  0  0
   36.3750   30.2730   48.7420 C   0  0  0  0  0  0  0  0  0  0  0  0
   36.7130   29.1260   49.4090 N   0  0  0  0  0  0  0  0  0  0  0  0
   37.2590   29.1450   50.6420 C   0  0  0  0  0  0  0  0  0  0  0  0
   37.5000   30.3000   51.2820 N   0  0  0  0  0  0  0  0  0  0  0  0
   37.3910   32.4060   51.2120 H   0  0  0  0  0  0  0  0  0  0  0  0
   36.4300   32.4230   49.0050 H   0  0  0  0  0  0  0  0  0  0  0  0
   37.5010   28.1870   51.1080 H   0  0  0  0  0  0  0  0  0  0  0  0
   37.0560   30.7280   43.9280 C   0  0  0  0  0  0  0  0  0  0  0  0
   37.2660   31.9360   43.3220 C   0  0  0  0  0  0  0  0  0  0  0  0
   38.1870   31.8210   42.3550 N   0  0  0  0  0  0  0  0  0  0  0  0
   38.5690   30.5190   42.3440 C   0  0  0  0  0  0  0  0  0  0  0  0
   37.8920   29.8430   43.2920 N   0  0  0  0  0  0  0  0  0  0  0  0
   36.7950   32.8890   43.5390 H   0  0  0  0  0  0  0  0  0  0  0  0
   38.5490   32.5820   41.7240 H   0  0  0  0  0  0  0  0  0  0  0  0
   40.6190   29.0930   42.2340 C   0  0  1  0  0  0  0  0  0  0  0  0
   39.5710   29.8710   41.4560 C   0  0  2  0  0  0  0  0  0  0  0  0
   40.4660   30.8870   40.7850 C   0  0  0  0  0  0  0  0  0  0  0  0
   40.7240   31.6320   41.5740 H   0  0  0  0  0  0  0  0  0  0  0  0
   41.6400   30.2330   40.4550 O   0  0  0  0  0  0  0  0  0  0  0  0
   41.6990   29.0340   41.1460 C   0  0  0  0  0  0  0  0  0  0  0  0
   41.4050   28.2220   40.4390 H   0  0  0  0  0  0  0  0  0  0  0  0
   41.1240   29.7920   43.3190 O   0  0  0  0  0  0  0  0  0  0  0  0
   41.7660   30.4570   42.9610 H   0  0  0  0  0  0  0  0  0  0  0  0
  2  1  1  0  0  0  0
  2  3  1  0  0  0  0
  3 13  1  0  0  0  0
  4  3  2  0  0  0  0
  4  8  1  0  0  0  0
  5  4  1  0  0  0  0
  6  7  1  0  0  0  0
  6  5  2  0  0  0  0
  7  2  2  0  0  0  0
  9  5  1  0  0  0  0
 10  6  1  0  0  0  0
 11 17  1  0  0  0  0
 11 16  1  0  0  0  0
 12 11  2  0  0  0  0
 13 12  1  0  0  0  0
 13 14  2  0  0  0  0
 14 15  1  0  0  0  0
 15 19  1  0  0  0  0
 15 16  2  0  0  0  0
 18 12  1  0  0  0  0
 20  7  1  0  0  0  0
 21 25  1  0  0  0  0
 21 20  2  0  0  0  0
 22 21  1  0  0  0  0
 23 22  1  0  0  0  0
 23 24  2  0  0  0  0
 24 20  1  0  0  0  0
 26 22  1  0  0  0  0
 27 34  1  1  0  0  0
 28 27  1  0  0  0  0
 28 23  1  1  0  0  0
 29 28  1  0  0  0  0
 29 30  1  0  0  0  0
 31 29  1  0  0  0  0
 31 32  1  0  0  0  0
 32 27  1  0  0  0  0
 33 32  1  0  0  0  0
 35 34  1  0  0  0  0
M  END
>  <minimizedAffinity>
-5.80635166

>  <minimizedRMSD>
3.45078778

$$$$
