
 OpenBabel03272505263D

 31 33  0  0  1  0  0  0  0  0999 V2000
   37.3990   31.1110   47.0780 N   0  0  0  0  0  0  0  0  0  0  0  0
   36.7850   30.7900   45.9070 C   0  0  0  0  0  0  0  0  0  0  0  0
   37.2340   31.2570   44.6820 C   0  0  0  0  0  0  0  0  0  0  0  0
   38.3660   32.0890   44.6880 C   0  0  0  0  0  0  0  0  0  0  0  0
   38.8000   32.5290   43.6030 O   0  0  0  0  0  0  0  0  0  0  0  0
   38.9820   32.4130   45.8590 N   0  0  0  0  0  0  0  0  0  0  0  0
   38.4530   31.8990   46.9780 C   0  0  0  0  0  0  0  0  0  0  0  0
   39.0490   32.2220   48.0300 O   0  0  0  0  0  0  0  0  0  0  0  0
   35.9100   30.1430   45.9370 H   0  0  0  0  0  0  0  0  0  0  0  0
   37.3380   29.5760   50.4580 C   0  0  0  0  0  0  0  0  0  0  0  0
   37.7980   30.0580   49.2250 C   0  0  0  0  0  0  0  0  0  0  0  0
   36.9360   30.6280   48.3040 C   0  0  0  0  0  0  0  0  0  0  0  0
   35.6110   30.7130   48.6230 N   0  0  0  0  0  0  0  0  0  0  0  0
   35.1560   30.2440   49.8250 C   0  0  0  0  0  0  0  0  0  0  0  0
   36.0040   29.6830   50.7330 N   0  0  0  0  0  0  0  0  0  0  0  0
   37.9370   29.1260   51.2170 H   0  0  0  0  0  0  0  0  0  0  0  0
   38.8570   29.8990   49.1420 H   0  0  0  0  0  0  0  0  0  0  0  0
   34.1030   30.3680   49.9510 H   0  0  0  0  0  0  0  0  0  0  0  0
   35.8060   32.0740   42.9150 C   0  0  2  0  0  0  0  0  0  0  0  0
   36.5260   30.8710   43.4780 C   0  0  2  0  0  0  0  0  0  0  0  0
   35.4190   29.8850   43.6550 C   0  0  0  0  0  0  0  0  0  0  0  0
   35.5720   29.1320   44.4300 H   0  0  0  0  0  0  0  0  0  0  0  0
   34.2380   30.5990   43.7960 O   0  0  0  0  0  0  0  0  0  0  0  0
   34.3600   31.6840   42.9690 C   0  0  0  0  0  0  0  0  0  0  0  0
   33.9730   31.4720   41.9300 H   0  0  0  0  0  0  0  0  0  0  0  0
   36.2330   32.2950   41.5900 O   0  0  0  0  0  0  0  0  0  0  0  0
   37.1940   32.5020   41.6120 H   0  0  0  0  0  0  0  0  0  0  0  0
   40.1460   33.2700   45.8600 C   0  0  0  0  0  0  0  0  0  0  0  0
   39.9950   34.2450   44.9010 F   0  0  0  0  0  0  0  0  0  0  0  0
   41.3150   32.6080   45.5880 F   0  0  0  0  0  0  0  0  0  0  0  0
   40.2170   33.9200   47.0920 F   0  0  0  0  0  0  0  0  0  0  0  0
  1 12  1  0  0  0  0
  2  9  1  0  0  0  0
  2  1  1  0  0  0  0
  3  4  1  0  0  0  0
  3  2  2  0  0  0  0
  4  6  1  0  0  0  0
  5  4  2  0  0  0  0
  6 28  1  0  0  0  0
  6  7  1  0  0  0  0
  7  1  1  0  0  0  0
  7  8  2  0  0  0  0
 10 15  1  0  0  0  0
 10 16  1  0  0  0  0
 11 10  2  0  0  0  0
 12 13  2  0  0  0  0
 12 11  1  0  0  0  0
 13 14  1  0  0  0  0
 14 18  1  0  0  0  0
 14 15  2  0  0  0  0
 17 11  1  0  0  0  0
 19 26  1  6  0  0  0
 19 24  1  0  0  0  0
 19 20  1  0  0  0  0
 20 21  1  0  0  0  0
 20  3  1  1  0  0  0
 21 23  1  0  0  0  0
 21 22  1  0  0  0  0
 24 23  1  0  0  0  0
 25 24  1  0  0  0  0
 26 27  1  0  0  0  0
 28 31  1  0  0  0  0
 29 28  1  0  0  0  0
 30 28  1  0  0  0  0
M  END
>  <minimizedAffinity>
-6.25034332

>  <minimizedRMSD>
0.158659711

$$$$
