
 OpenBabel03272506143D

 24 25  0  0  1  0  0  0  0  0999 V2000
   37.9450   31.6640   48.7000 C   0  0  0  0  0  0  0  0  0  0  0  0
   36.6850   31.1890   48.3360 C   0  0  0  0  0  0  0  0  0  0  0  0
   35.9730   30.3910   49.2210 C   0  0  0  0  0  0  0  0  0  0  0  0
   36.5340   30.1010   50.4150 N   0  0  0  0  0  0  0  0  0  0  0  0
   37.7680   30.5730   50.7580 C   0  0  0  0  0  0  0  0  0  0  0  0
   38.4710   31.3580   49.8910 N   0  0  0  0  0  0  0  0  0  0  0  0
   36.3440   31.4780   47.3740 H   0  0  0  0  0  0  0  0  0  0  0  0
   38.1530   30.2920   51.7460 H   0  0  0  0  0  0  0  0  0  0  0  0
   34.6300   29.0230   47.6050 C   0  0  1  0  0  0  0  0  0  0  0  0
   34.6610   29.8920   48.8480 C   0  0  1  0  0  0  0  0  0  0  0  0
   34.0780   28.9040   49.8360 C   0  0  0  0  0  0  0  0  0  0  0  0
   33.7000   29.4600   50.7180 H   0  0  0  0  0  0  0  0  0  0  0  0
   33.0820   28.2300   49.1550 O   0  0  0  0  0  0  0  0  0  0  0  0
   33.2330   28.4310   47.8040 C   0  0  0  0  0  0  0  0  0  0  0  0
   32.5070   29.2370   47.5070 H   0  0  0  0  0  0  0  0  0  0  0  0
   34.7460   29.7450   46.4350 O   0  0  0  0  0  0  0  0  0  0  0  0
   35.4460   29.3500   45.8290 H   0  0  0  0  0  0  0  0  0  0  0  0
   38.7770   32.4640   47.9410 O   0  0  0  0  0  0  0  0  0  0  0  0
   39.3240   30.6690   46.0290 O   0  0  0  0  0  0  0  0  0  0  0  0
   39.1050   32.1420   46.2800 P   0  0  0  0  0  0  0  0  0  0  0  0
   37.7870   32.7520   45.4180 O   0  0  0  0  0  0  0  0  0  0  0  0
   37.5540   33.6240   45.8280 H   0  0  0  0  0  0  0  0  0  0  0  0
   40.5320   32.9440   45.8350 O   0  0  0  0  0  0  0  0  0  0  0  0
   41.3330   32.4050   46.0380 H   0  0  0  0  0  0  0  0  0  0  0  0
  1  6  1  0  0  0  0
  2  1  2  0  0  0  0
  2  3  1  0  0  0  0
  3  4  2  0  0  0  0
  4  5  1  0  0  0  0
  5  8  1  0  0  0  0
  6  5  2  0  0  0  0
  7  2  1  0  0  0  0
  9 16  1  6  0  0  0
  9 14  1  0  0  0  0
  9 10  1  0  0  0  0
 10  3  1  1  0  0  0
 10 11  1  0  0  0  0
 11 12  1  0  0  0  0
 13 11  1  0  0  0  0
 14 13  1  0  0  0  0
 15 14  1  0  0  0  0
 17 16  1  0  0  0  0
 18  1  1  0  0  0  0
 19 20  2  0  0  0  0
 20 18  1  0  0  0  0
 21 22  1  0  0  0  0
 21 20  1  0  0  0  0
 23 24  1  0  0  0  0
 23 20  1  0  0  0  0
M  END
>  <minimizedAffinity>
-5.19306707

>  <minimizedRMSD>
5.01097679

$$$$
