
 OpenBabel03272507503D

 28 30  0  0  1  0  0  0  0  0999 V2000
   36.6720   29.5570   49.4610 C   0  0  0  0  0  0  0  0  0  0  0  0
   36.5130   30.5600   48.4900 C   0  0  0  0  0  0  0  0  0  0  0  0
   35.4340   30.4340   47.6230 C   0  0  0  0  0  0  0  0  0  0  0  0
   34.6010   29.3800   47.7440 N   0  0  0  0  0  0  0  0  0  0  0  0
   34.7840   28.4280   48.6940 C   0  0  0  0  0  0  0  0  0  0  0  0
   35.8300   28.5100   49.5670 N   0  0  0  0  0  0  0  0  0  0  0  0
   35.3110   31.2110   46.8710 H   0  0  0  0  0  0  0  0  0  0  0  0
   34.0400   27.6310   48.6830 H   0  0  0  0  0  0  0  0  0  0  0  0
   37.4510   31.6180   48.4590 N   0  0  0  0  0  0  0  0  0  0  0  0
   37.4440   32.6170   49.3450 C   0  0  0  0  0  0  0  0  0  0  0  0
   38.3890   33.6420   49.2820 C   0  0  0  0  0  0  0  0  0  0  0  0
   39.2910   33.5010   48.2370 C   0  0  0  0  0  0  0  0  0  0  0  0
   40.1550   34.4330   48.1750 O   0  0  0  0  0  0  0  0  0  0  0  0
   39.3340   32.5220   47.3300 N   0  0  0  0  0  0  0  0  0  0  0  0
   38.3820   31.5750   47.4700 C   0  0  0  0  0  0  0  0  0  0  0  0
   38.4120   30.6380   46.6110 O   0  0  0  0  0  0  0  0  0  0  0  0
   36.7110   32.6760   50.1360 H   0  0  0  0  0  0  0  0  0  0  0  0
   38.4190   34.4550   49.9680 H   0  0  0  0  0  0  0  0  0  0  0  0
   40.0580   32.5120   46.5820 H   0  0  0  0  0  0  0  0  0  0  0  0
   37.3640   29.9830   51.8200 C   0  0  2  0  0  3  0  0  0  0  0  0
   37.7540   29.5040   50.4730 C   0  0  1  0  0  3  0  0  0  0  0  0
   38.2690   28.1220   50.7030 C   0  0  0  0  0  3  0  0  0  0  0  0
   39.2200   27.9400   50.1230 H   0  0  0  0  0  0  0  0  0  0  0  0
   38.5800   27.9850   52.0370 O   0  0  0  0  0  0  0  0  0  0  0  0
   37.8750   28.9240   52.7560 C   0  0  0  0  0  3  0  0  0  0  0  0
   37.0170   28.4700   53.3120 H   0  0  0  0  0  0  0  0  0  0  0  0
   35.9860   30.0860   51.9150 O   0  0  0  0  0  0  0  0  0  0  0  0
   35.7070   29.7640   52.8140 H   0  0  0  0  0  0  0  0  0  0  0  0
  1  6  1  0  0  0  0
  2  1  2  0  0  0  0
  3  4  2  0  0  0  0
  3  2  1  0  0  0  0
  4  5  1  0  0  0  0
  5  6  2  0  0  0  0
  7  3  1  0  0  0  0
  8  5  1  0  0  0  0
  9  2  1  0  0  0  0
  9 10  1  0  0  0  0
 10 17  1  0  0  0  0
 11 10  2  0  0  0  0
 11 18  1  0  0  0  0
 12 11  1  0  0  0  0
 13 12  2  0  0  0  0
 14 15  1  0  0  0  0
 14 12  1  0  0  0  0
 15  9  1  0  0  0  0
 16 15  2  0  0  0  0
 19 14  1  0  0  0  0
 20 27  1  6  0  0  0
 20 25  1  0  0  0  0
 21  1  1  6  0  0  0
 21 22  1  0  0  0  0
 21 20  1  0  0  0  0
 22 24  1  0  0  0  0
 23 22  1  0  0  0  0
 24 25  1  0  0  0  0
 25 26  1  0  0  0  0
 27 28  1  0  0  0  0
M  END
>  <minimizedAffinity>
-2.92853832

>  <minimizedRMSD>
0.63944608

$$$$
