
 OpenBabel03272504533D

 25 27  0  0  1  0  0  0  0  0999 V2000
   37.1250   31.2830   49.2160 C   0  0  0  0  0  0  0  0  0  0  0  0
   37.3540   32.5440   49.7950 C   0  0  0  0  0  0  0  0  0  0  0  0
   38.3060   33.3310   49.1700 C   0  0  0  0  0  0  0  0  0  0  0  0
   38.9630   32.8760   48.0580 N   0  0  0  0  0  0  0  0  0  0  0  0
   38.7090   31.6480   47.5300 C   0  0  0  0  0  0  0  0  0  0  0  0
   37.7820   30.8520   48.1190 N   0  0  0  0  0  0  0  0  0  0  0  0
   36.8310   32.8750   50.6580 H   0  0  0  0  0  0  0  0  0  0  0  0
   38.5100   34.3080   49.5870 H   0  0  0  0  0  0  0  0  0  0  0  0
   36.0750   30.4130   49.8580 C   0  0  0  0  0  0  0  0  0  0  0  0
   36.0670   28.9700   49.6510 C   0  0  0  0  0  0  0  0  0  0  0  0
   36.6490   29.5020   50.9330 C   0  0  0  0  0  0  0  0  0  0  0  0
   35.1620   30.9940   50.1470 H   0  0  0  0  0  0  0  0  0  0  0  0
   36.8140   28.5740   48.9020 H   0  0  0  0  0  0  0  0  0  0  0  0
   35.1270   28.4030   49.6360 H   0  0  0  0  0  0  0  0  0  0  0  0
   37.7250   29.4850   51.1270 H   0  0  0  0  0  0  0  0  0  0  0  0
   35.9750   29.3720   51.8030 H   0  0  0  0  0  0  0  0  0  0  0  0
   39.8960   32.3800   45.4670 C   0  0  2  0  0  3  0  0  0  0  0  0
   39.4570   31.2130   46.3210 C   0  0  2  0  0  3  0  0  0  0  0  0
   38.6260   30.3810   45.3840 C   0  0  0  0  0  3  0  0  0  0  0  0
   38.7940   29.3130   45.6030 H   0  0  0  0  0  0  0  0  0  0  0  0
   38.9910   30.7180   44.0990 O   0  0  0  0  0  0  0  0  0  0  0  0
   39.3130   32.0820   44.1220 C   0  0  0  0  0  3  0  0  0  0  0  0
   38.4260   32.7180   43.9410 H   0  0  0  0  0  0  0  0  0  0  0  0
   41.2820   32.4600   45.3260 O   0  0  0  0  0  0  0  0  0  0  0  0
   41.6420   31.5440   45.5310 H   0  0  0  0  0  0  0  0  0  0  0  0
  1  2  1  0  0  0  0
  1  9  1  0  0  0  0
  2  7  1  0  0  0  0
  3  8  1  0  0  0  0
  3  2  2  0  0  0  0
  4  3  1  0  0  0  0
  5  4  2  0  0  0  0
  5  6  1  0  0  0  0
  6  1  2  0  0  0  0
  9 12  1  0  0  0  0
  9 11  1  0  0  0  0
 10  9  1  0  0  0  0
 10 11  1  0  0  0  0
 11 15  1  0  0  0  0
 11 16  1  0  0  0  0
 13 10  1  0  0  0  0
 14 10  1  0  0  0  0
 17 24  1  6  0  0  0
 17 18  1  0  0  0  0
 18  5  1  1  0  0  0
 19 20  1  0  0  0  0
 19 18  1  0  0  0  0
 21 22  1  0  0  0  0
 21 19  1  0  0  0  0
 22 17  1  0  0  0  0
 23 22  1  0  0  0  0
 24 25  1  0  0  0  0
M  END
>  <minimizedAffinity>
-5.50750589

>  <minimizedRMSD>
0.460815668

$$$$
