
 OpenBabel03272504533D

 25 27  0  0  1  0  0  0  0  0999 V2000
   36.9860   31.2980   49.2260 C   0  0  0  0  0  0  0  0  0  0  0  0
   37.3350   32.4870   49.8890 C   0  0  0  0  0  0  0  0  0  0  0  0
   38.2450   33.2990   49.2330 C   0  0  0  0  0  0  0  0  0  0  0  0
   38.7510   32.9310   48.0140 N   0  0  0  0  0  0  0  0  0  0  0  0
   38.3840   31.7700   47.4080 C   0  0  0  0  0  0  0  0  0  0  0  0
   37.4950   30.9530   48.0250 N   0  0  0  0  0  0  0  0  0  0  0  0
   36.9290   32.7500   50.8340 H   0  0  0  0  0  0  0  0  0  0  0  0
   38.5390   34.2230   49.7120 H   0  0  0  0  0  0  0  0  0  0  0  0
   35.9770   30.4050   49.9030 C   0  0  0  0  0  0  0  0  0  0  0  0
   35.9700   28.9660   49.6670 C   0  0  0  0  0  0  0  0  0  0  0  0
   36.6120   29.4780   50.9280 C   0  0  0  0  0  0  0  0  0  0  0  0
   35.0760   30.9720   50.2490 H   0  0  0  0  0  0  0  0  0  0  0  0
   36.6820   28.5920   48.8720 H   0  0  0  0  0  0  0  0  0  0  0  0
   35.0350   28.3910   49.6880 H   0  0  0  0  0  0  0  0  0  0  0  0
   37.6970   29.4670   51.0670 H   0  0  0  0  0  0  0  0  0  0  0  0
   35.9850   29.3240   51.8280 H   0  0  0  0  0  0  0  0  0  0  0  0
   40.4440   31.7580   46.0080 C   0  0  2  0  0  3  0  0  0  0  0  0
   38.9710   31.4300   46.0840 C   0  0  2  0  0  3  0  0  0  0  0  0
   38.3730   32.2230   44.9560 C   0  0  0  0  0  3  0  0  0  0  0  0
   37.5550   31.6400   44.4980 H   0  0  0  0  0  0  0  0  0  0  0  0
   39.3870   32.5000   44.0640 O   0  0  0  0  0  0  0  0  0  0  0  0
   40.5510   32.6660   44.8230 C   0  0  0  0  0  3  0  0  0  0  0  0
   40.6800   33.7120   45.1580 H   0  0  0  0  0  0  0  0  0  0  0  0
   41.2380   30.6370   45.7630 O   0  0  0  0  0  0  0  0  0  0  0  0
   40.6340   29.9450   45.3570 H   0  0  0  0  0  0  0  0  0  0  0  0
  1  2  1  0  0  0  0
  1  9  1  0  0  0  0
  2  7  1  0  0  0  0
  3  8  1  0  0  0  0
  3  2  2  0  0  0  0
  4  3  1  0  0  0  0
  5  4  2  0  0  0  0
  5  6  1  0  0  0  0
  6  1  2  0  0  0  0
  9 12  1  0  0  0  0
  9 11  1  0  0  0  0
 10 14  1  0  0  0  0
 10  9  1  0  0  0  0
 10 11  1  0  0  0  0
 11 15  1  0  0  0  0
 11 16  1  0  0  0  0
 13 10  1  0  0  0  0
 17 24  1  6  0  0  0
 17 18  1  0  0  0  0
 18  5  1  1  0  0  0
 19 18  1  0  0  0  0
 20 19  1  0  0  0  0
 21 22  1  0  0  0  0
 21 19  1  0  0  0  0
 22 23  1  0  0  0  0
 22 17  1  0  0  0  0
 25 24  1  0  0  0  0
M  END
>  <minimizedAffinity>
-5.826406

>  <minimizedRMSD>
0.891412854

$$$$
