
 OpenBabel03272501323D

 27 29  0  0  1  0  0  0  0  0999 V2000
   37.4600   32.0020   47.3960 C   0  0  2  0  0  0  0  0  0  0  0  0
   37.9520   30.6560   46.8130 C   0  0  0  0  0  0  0  0  0  0  0  0
   38.4440   32.0360   46.3830 C   0  0  2  0  0  0  0  0  0  0  0  0
   36.3430   31.9760   47.1840 H   0  0  0  0  0  0  0  0  0  0  0  0
   37.3130   30.0730   46.1420 H   0  0  0  0  0  0  0  0  0  0  0  0
   38.5630   30.0430   47.4680 H   0  0  0  0  0  0  0  0  0  0  0  0
   37.9960   32.3100   45.3630 H   0  0  0  0  0  0  0  0  0  0  0  0
   40.4800   30.8210   45.6120 C   0  0  1  0  0  0  0  0  0  0  0  0
   39.8790   32.0640   46.2940 C   0  0  1  0  0  0  0  0  0  0  0  0
   40.5950   33.0110   45.3990 C   0  0  0  0  0  0  0  0  0  0  0  0
   40.5750   34.0550   45.6040 H   0  0  0  0  0  0  0  0  0  0  0  0
   40.2690   32.6090   44.1240 O   0  0  0  0  0  0  0  0  0  0  0  0
   40.1910   31.2200   44.1790 C   0  0  0  0  0  0  0  0  0  0  0  0
   39.1330   30.9440   43.9830 H   0  0  0  0  0  0  0  0  0  0  0  0
   41.8420   30.7530   45.8020 O   0  0  0  0  0  0  0  0  0  0  0  0
   42.1460   29.8590   46.1010 H   0  0  0  0  0  0  0  0  0  0  0  0
   37.6320   32.0730   48.8610 C   0  0  0  0  0  0  0  0  0  0  0  0
   38.3710   33.0170   49.2650 O   0  0  0  0  0  0  0  0  0  0  0  0
   37.0500   29.6800   51.6550 C   0  0  0  0  0  0  0  0  0  0  0  0
   37.6720   30.6080   50.8380 C   0  0  0  0  0  0  0  0  0  0  0  0
   37.0120   31.1320   49.7460 C   0  0  0  0  0  0  0  0  0  0  0  0
   35.7740   30.7000   49.5340 N   0  0  0  0  0  0  0  0  0  0  0  0
   35.1680   29.7930   50.3350 C   0  0  0  0  0  0  0  0  0  0  0  0
   35.7900   29.2740   51.3960 N   0  0  0  0  0  0  0  0  0  0  0  0
   37.5600   29.2530   52.5270 H   0  0  0  0  0  0  0  0  0  0  0  0
   38.6980   30.9170   51.0790 H   0  0  0  0  0  0  0  0  0  0  0  0
   34.1560   29.4420   50.1590 H   0  0  0  0  0  0  0  0  0  0  0  0
  1  4  1  6  0  0  0
  1 17  1  0  0  0  0
  2  1  1  0  0  0  0
  2  6  1  0  0  0  0
  3  7  1  6  0  0  0
  3  2  1  0  0  0  0
  3  1  1  0  0  0  0
  5  2  1  0  0  0  0
  8 15  1  6  0  0  0
  8  9  1  0  0  0  0
  9 10  1  6  0  0  0
  9  3  1  0  0  0  0
 10 11  1  0  0  0  0
 12 13  1  0  0  0  0
 12 10  1  0  0  0  0
 13  8  1  0  0  0  0
 14 13  1  0  0  0  0
 15 16  1  0  0  0  0
 17 18  2  0  0  0  0
 17 21  1  0  0  0  0
 19 25  1  0  0  0  0
 20 26  1  0  0  0  0
 20 19  2  0  0  0  0
 21 20  1  0  0  0  0
 22 21  2  0  0  0  0
 22 23  1  0  0  0  0
 23 24  2  0  0  0  0
 24 19  1  0  0  0  0
 27 23  1  0  0  0  0
M  END
>  <minimizedAffinity>
-5.4751029

>  <minimizedRMSD>
1.27535594

$$$$
