
 OpenBabel03272504533D

 25 27  0  0  1  0  0  0  0  0999 V2000
   36.9840   31.2970   49.2260 C   0  0  0  0  0  0  0  0  0  0  0  0
   37.3340   32.4870   49.8890 C   0  0  0  0  0  0  0  0  0  0  0  0
   38.2440   33.2980   49.2340 C   0  0  0  0  0  0  0  0  0  0  0  0
   38.7500   32.9310   48.0150 N   0  0  0  0  0  0  0  0  0  0  0  0
   38.3830   31.7700   47.4090 C   0  0  0  0  0  0  0  0  0  0  0  0
   37.4940   30.9530   48.0250 N   0  0  0  0  0  0  0  0  0  0  0  0
   36.9280   32.7490   50.8340 H   0  0  0  0  0  0  0  0  0  0  0  0
   38.5390   34.2220   49.7140 H   0  0  0  0  0  0  0  0  0  0  0  0
   35.9750   30.4050   49.9030 C   0  0  0  0  0  0  0  0  0  0  0  0
   35.9690   28.9660   49.6670 C   0  0  0  0  0  0  0  0  0  0  0  0
   36.6100   29.4780   50.9290 C   0  0  0  0  0  0  0  0  0  0  0  0
   35.0740   30.9720   50.2480 H   0  0  0  0  0  0  0  0  0  0  0  0
   36.6810   28.5920   48.8740 H   0  0  0  0  0  0  0  0  0  0  0  0
   35.0340   28.3900   49.6880 H   0  0  0  0  0  0  0  0  0  0  0  0
   37.6950   29.4680   51.0680 H   0  0  0  0  0  0  0  0  0  0  0  0
   35.9820   29.3250   51.8290 H   0  0  0  0  0  0  0  0  0  0  0  0
   40.4430   31.7570   46.0090 C   0  0  2  0  0  3  0  0  0  0  0  0
   38.9700   31.4300   46.0850 C   0  0  2  0  0  3  0  0  0  0  0  0
   38.3730   32.2240   44.9570 C   0  0  0  0  0  3  0  0  0  0  0  0
   37.5550   31.6420   44.4990 H   0  0  0  0  0  0  0  0  0  0  0  0
   39.3860   32.5010   44.0650 O   0  0  0  0  0  0  0  0  0  0  0  0
   40.5510   32.6660   44.8250 C   0  0  0  0  0  3  0  0  0  0  0  0
   40.6810   33.7120   45.1590 H   0  0  0  0  0  0  0  0  0  0  0  0
   41.2380   30.6360   45.7640 O   0  0  0  0  0  0  0  0  0  0  0  0
   40.6330   29.9440   45.3570 H   0  0  0  0  0  0  0  0  0  0  0  0
  1  2  1  0  0  0  0
  1  9  1  0  0  0  0
  2  7  1  0  0  0  0
  3  8  1  0  0  0  0
  3  2  2  0  0  0  0
  4  3  1  0  0  0  0
  5  4  2  0  0  0  0
  5  6  1  0  0  0  0
  6  1  2  0  0  0  0
  9 12  1  0  0  0  0
  9 11  1  0  0  0  0
 10 14  1  0  0  0  0
 10  9  1  0  0  0  0
 10 11  1  0  0  0  0
 11 15  1  0  0  0  0
 11 16  1  0  0  0  0
 13 10  1  0  0  0  0
 17 24  1  6  0  0  0
 17 18  1  0  0  0  0
 18  5  1  1  0  0  0
 19 18  1  0  0  0  0
 20 19  1  0  0  0  0
 21 22  1  0  0  0  0
 21 19  1  0  0  0  0
 22 23  1  0  0  0  0
 22 17  1  0  0  0  0
 25 24  1  0  0  0  0
M  END
>  <minimizedAffinity>
-5.83036757

>  <minimizedRMSD>
0.730535805

$$$$
