
 OpenBabel03272507363D

 19 20  0  0  1  0  0  0  0  0999 V2000
   35.5250   30.1040   47.9120 C   0  0  0  0  0  0  0  0  0  0  0  0
   34.6660   29.0420   48.2080 C   0  0  0  0  0  0  0  0  0  0  0  0
   34.6130   28.6080   49.5260 C   0  0  0  0  0  0  0  0  0  0  0  0
   35.3860   29.2260   50.4560 N   0  0  0  0  0  0  0  0  0  0  0  0
   36.2130   30.2520   50.1530 C   0  0  0  0  0  0  0  0  0  0  0  0
   36.2800   30.6900   48.8790 N   0  0  0  0  0  0  0  0  0  0  0  0
   33.9840   27.8010   49.8470 H   0  0  0  0  0  0  0  0  0  0  0  0
   36.8030   30.7020   50.9430 H   0  0  0  0  0  0  0  0  0  0  0  0
   33.2860   27.0410   47.5790 C   0  0  1  0  0  3  0  0  0  0  0  0
   33.8330   28.3800   47.1890 C   0  0  1  0  0  3  0  0  0  0  0  0
   32.6120   29.1370   46.8050 C   0  0  0  0  0  3  0  0  0  0  0  0
   31.8930   29.3150   47.6260 H   0  0  0  0  0  0  0  0  0  0  0  0
   31.9720   28.1650   45.9990 O   0  0  0  0  0  0  0  0  0  0  0  0
   31.9550   27.0530   46.8630 C   0  0  0  0  0  3  0  0  0  0  0  0
   31.7630   26.1060   46.3520 H   0  0  0  0  0  0  0  0  0  0  0  0
   34.1450   26.0380   47.1720 O   0  0  0  0  0  0  0  0  0  0  0  0
   33.8340   25.1390   47.3620 H   0  0  0  0  0  0  0  0  0  0  0  0
   35.5200   30.4740   46.5840 O   0  0  0  0  0  0  0  0  0  0  0  0
   34.8550   31.1090   46.1830 H   0  0  0  0  0  0  0  0  0  0  0  0
  1  2  2  0  0  0  0
  1  6  1  0  0  0  0
  2  3  1  0  0  0  0
  3  7  1  0  0  0  0
  3  4  2  0  0  0  0
  5  4  1  0  0  0  0
  5  8  1  0  0  0  0
  6  5  2  0  0  0  0
  9 16  1  6  0  0  0
 10  9  1  0  0  0  0
 10  2  1  1  0  0  0
 11 10  1  0  0  0  0
 11 12  1  0  0  0  0
 13 11  1  0  0  0  0
 13 14  1  0  0  0  0
 14  9  1  0  0  0  0
 15 14  1  0  0  0  0
 16 17  1  0  0  0  0
 18  1  1  0  0  0  0
 19 18  1  0  0  0  0
M  END
>  <minimizedAffinity>
-3.47697783

>  <minimizedRMSD>
7.12868643

$$$$
