
 OpenBabel03272504153D

 24 25  0  0  1  0  0  0  0  0999 V2000
   36.2550   30.7640   47.8970 C   0  0  0  0  0  0  0  0  0  0  0  0
   36.4880   30.5030   49.2460 C   0  0  0  0  0  0  0  0  0  0  0  0
   37.7020   30.9010   49.8250 C   0  0  0  0  0  0  0  0  0  0  0  0
   38.6060   31.5360   49.0150 N   0  0  0  0  0  0  0  0  0  0  0  0
   38.3470   31.7770   47.6960 C   0  0  0  0  0  0  0  0  0  0  0  0
   37.1780   31.3880   47.1570 N   0  0  0  0  0  0  0  0  0  0  0  0
   37.9330   30.7230   50.8690 H   0  0  0  0  0  0  0  0  0  0  0  0
   39.0760   32.2800   47.0740 H   0  0  0  0  0  0  0  0  0  0  0  0
   34.0920   29.8610   49.6680 C   0  0  1  0  0  3  0  0  0  0  0  0
   35.5220   29.8370   50.0870 C   0  0  1  0  0  3  0  0  0  0  0  0
   35.7650   28.3430   50.2250 C   0  0  0  0  0  3  0  0  0  0  0  0
   35.3650   27.9570   51.1880 H   0  0  0  0  0  0  0  0  0  0  0  0
   35.0530   27.7660   49.2000 O   0  0  0  0  0  0  0  0  0  0  0  0
   33.8760   28.4760   49.0980 C   0  0  0  0  0  3  0  0  0  0  0  0
   33.6290   28.5260   48.0010 H   0  0  0  0  0  0  0  0  0  0  0  0
   33.2270   30.0250   50.7790 O   0  0  0  0  0  0  0  0  0  0  0  0
   32.3380   30.3340   50.4860 H   0  0  0  0  0  0  0  0  0  0  0  0
   35.0920   30.4060   47.2510 O   0  0  0  0  0  0  0  0  0  0  0  0
   36.4430   29.9110   44.9660 O   0  0  0  0  0  0  0  0  0  0  0  0
   35.0640   29.9710   45.5940 P   0  0  0  0  0  0  0  0  0  0  0  0
   34.3340   28.4370   45.5540 O   0  0  0  0  0  0  0  0  0  0  0  0
   34.3570   28.1390   44.6150 H   0  0  0  0  0  0  0  0  0  0  0  0
   34.1740   31.1070   44.7020 O   0  0  0  0  0  0  0  0  0  0  0  0
   33.3600   31.3670   45.1630 H   0  0  0  0  0  0  0  0  0  0  0  0
  1  2  1  0  0  0  0
  2  3  2  0  0  0  0
  3  7  1  0  0  0  0
  4  3  1  0  0  0  0
  5  4  2  0  0  0  0
  6  5  1  0  0  0  0
  6  1  2  0  0  0  0
  8  5  1  0  0  0  0
  9 10  1  0  0  0  0
  9 16  1  1  0  0  0
 10  2  1  6  0  0  0
 10 11  1  0  0  0  0
 11 12  1  0  0  0  0
 13 11  1  0  0  0  0
 14 13  1  0  0  0  0
 14  9  1  0  0  0  0
 15 14  1  0  0  0  0
 17 16  1  0  0  0  0
 18  1  1  0  0  0  0
 19 20  2  0  0  0  0
 20 18  1  0  0  0  0
 21 20  1  0  0  0  0
 22 21  1  0  0  0  0
 23 24  1  0  0  0  0
 23 20  1  0  0  0  0
M  END
>  <minimizedAffinity>
-3.91924858

>  <minimizedRMSD>
2.37542915

$$$$
