
 OpenBabel03272505283D

 31 33  0  0  1  0  0  0  0  0999 V2000
   38.1200   23.2890   34.5000 N   0  0  0  0  0  0  0  0  0  0  0  0
   38.1190   24.5600   34.0130 C   0  0  0  0  0  0  0  0  0  0  0  0
   38.1570   25.6700   34.8410 C   0  0  0  0  0  0  0  0  0  0  0  0
   38.1980   25.4390   36.2260 C   0  0  0  0  0  0  0  0  0  0  0  0
   38.2340   26.4150   37.0040 O   0  0  0  0  0  0  0  0  0  0  0  0
   38.1980   24.1670   36.7160 N   0  0  0  0  0  0  0  0  0  0  0  0
   38.1590   23.1770   35.8140 C   0  0  0  0  0  0  0  0  0  0  0  0
   38.1590   22.0260   36.3070 O   0  0  0  0  0  0  0  0  0  0  0  0
   38.0870   24.7050   32.9350 H   0  0  0  0  0  0  0  0  0  0  0  0
   39.2160   20.5310   32.2700 C   0  0  0  0  0  0  0  0  0  0  0  0
   39.2450   21.6450   33.1180 C   0  0  0  0  0  0  0  0  0  0  0  0
   38.0850   22.1810   33.6520 C   0  0  0  0  0  0  0  0  0  0  0  0
   36.8950   21.5940   33.3310 N   0  0  0  0  0  0  0  0  0  0  0  0
   36.8590   20.5050   32.5030 C   0  0  0  0  0  0  0  0  0  0  0  0
   38.0000   19.9780   31.9780 N   0  0  0  0  0  0  0  0  0  0  0  0
   40.0620   20.0630   31.8210 H   0  0  0  0  0  0  0  0  0  0  0  0
   40.2580   21.9790   33.2490 H   0  0  0  0  0  0  0  0  0  0  0  0
   35.8700   20.1430   32.3310 H   0  0  0  0  0  0  0  0  0  0  0  0
   36.7260   27.4440   34.0450 C   0  0  2  0  0  3  0  0  0  0  0  0
   38.1530   26.9920   34.2470 C   0  0  2  0  0  3  0  0  0  0  0  0
   38.7230   27.0960   32.8710 C   0  0  0  0  0  3  0  0  0  0  0  0
   39.5620   26.4330   32.6530 H   0  0  0  0  0  0  0  0  0  0  0  0
   37.6740   26.9840   31.9720 O   0  0  0  0  0  0  0  0  0  0  0  0
   36.6110   27.6170   32.5610 C   0  0  0  0  0  3  0  0  0  0  0  0
   36.5690   28.7130   32.2960 H   0  0  0  0  0  0  0  0  0  0  0  0
   36.5210   28.6630   34.7240 O   0  0  0  0  0  0  0  0  0  0  0  0
   36.6520   28.4990   35.6850 H   0  0  0  0  0  0  0  0  0  0  0  0
   38.2390   23.9340   38.1410 C   0  0  0  0  0  0  0  0  0  0  0  0
   37.3010   22.9840   38.4760 F   0  0  0  0  0  0  0  0  0  0  0  0
   37.9730   25.0520   38.8880 F   0  0  0  0  0  0  0  0  0  0  0  0
   39.4880   23.4040   38.4670 F   0  0  0  0  0  0  0  0  0  0  0  0
  1  7  1  0  0  0  0
  2  1  1  0  0  0  0
  2  3  2  0  0  0  0
  3  4  1  0  0  0  0
  4  6  1  0  0  0  0
  4  5  2  0  0  0  0
  6 28  1  0  0  0  0
  7  8  2  0  0  0  0
  7  6  1  0  0  0  0
  9  2  1  0  0  0  0
 10 11  1  0  0  0  0
 11 17  1  0  0  0  0
 11 12  2  0  0  0  0
 12  1  1  0  0  0  0
 13 12  1  0  0  0  0
 14 13  2  0  0  0  0
 15 10  2  0  0  0  0
 15 14  1  0  0  0  0
 16 10  1  0  0  0  0
 18 14  1  0  0  0  0
 19 20  1  0  0  0  0
 19 26  1  1  0  0  0
 20  3  1  6  0  0  0
 21 20  1  0  0  0  0
 22 21  1  0  0  0  0
 23 24  1  0  0  0  0
 23 21  1  0  0  0  0
 24 19  1  0  0  0  0
 25 24  1  0  0  0  0
 26 27  1  0  0  0  0
 28 31  1  0  0  0  0
 28 29  1  0  0  0  0
 28 30  1  0  0  0  0
M  END
>  <minimizedAffinity>
-5.86601114

$$$$

 OpenBabel03272505283D

 31 33  0  0  1  0  0  0  0  0999 V2000
   36.9660   25.3410   32.2250 N   0  0  0  0  0  0  0  0  0  0  0  0
   37.7660   25.1190   33.3030 C   0  0  0  0  0  0  0  0  0  0  0  0
   37.9630   23.8540   33.8310 C   0  0  0  0  0  0  0  0  0  0  0  0
   37.2980   22.7860   33.2060 C   0  0  0  0  0  0  0  0  0  0  0  0
   37.4520   21.6300   33.6530 O   0  0  0  0  0  0  0  0  0  0  0  0
   36.4960   23.0060   32.1270 N   0  0  0  0  0  0  0  0  0  0  0  0
   36.3850   24.2750   31.7100 C   0  0  0  0  0  0  0  0  0  0  0  0
   35.6380   24.4310   30.7180 O   0  0  0  0  0  0  0  0  0  0  0  0
   38.2670   25.9680   33.7640 H   0  0  0  0  0  0  0  0  0  0  0  0
   37.3850   28.3840   30.1390 C   0  0  0  0  0  0  0  0  0  0  0  0
   37.5700   27.1010   30.6690 C   0  0  0  0  0  0  0  0  0  0  0  0
   36.7810   26.6230   31.7030 C   0  0  0  0  0  0  0  0  0  0  0  0
   35.8070   27.4390   32.2030 N   0  0  0  0  0  0  0  0  0  0  0  0
   35.6220   28.6940   31.6900 C   0  0  0  0  0  0  0  0  0  0  0  0
   36.3970   29.1640   30.6730 N   0  0  0  0  0  0  0  0  0  0  0  0
   37.9490   28.8210   29.3470 H   0  0  0  0  0  0  0  0  0  0  0  0
   38.3810   26.6100   30.1660 H   0  0  0  0  0  0  0  0  0  0  0  0
   34.8310   29.2280   32.1680 H   0  0  0  0  0  0  0  0  0  0  0  0
   38.0480   23.0820   36.1170 C   0  0  2  0  0  3  0  0  0  0  0  0
   38.8310   23.6980   34.9820 C   0  0  2  0  0  3  0  0  0  0  0  0
   39.3470   24.9590   35.5910 C   0  0  0  0  0  3  0  0  0  0  0  0
   39.5520   25.7740   34.8950 H   0  0  0  0  0  0  0  0  0  0  0  0
   38.4900   25.3080   36.6240 O   0  0  0  0  0  0  0  0  0  0  0  0
   38.0910   24.1270   37.1910 C   0  0  0  0  0  3  0  0  0  0  0  0
   38.7790   23.8020   38.0250 H   0  0  0  0  0  0  0  0  0  0  0  0
   38.6800   21.8910   36.5290 O   0  0  0  0  0  0  0  0  0  0  0  0
   38.6600   21.2620   35.7740 H   0  0  0  0  0  0  0  0  0  0  0  0
   35.8130   21.9040   31.4880 C   0  0  0  0  0  0  0  0  0  0  0  0
   35.0360   22.3830   30.4580 F   0  0  0  0  0  0  0  0  0  0  0  0
   34.9880   21.2060   32.3320 F   0  0  0  0  0  0  0  0  0  0  0  0
   36.7680   21.0620   30.9180 F   0  0  0  0  0  0  0  0  0  0  0  0
  1  2  1  0  0  0  0
  2  9  1  0  0  0  0
  2  3  2  0  0  0  0
  4  5  2  0  0  0  0
  4  3  1  0  0  0  0
  6  4  1  0  0  0  0
  7  6  1  0  0  0  0
  7  1  1  0  0  0  0
  8  7  2  0  0  0  0
 10 11  2  0  0  0  0
 10 15  1  0  0  0  0
 11 12  1  0  0  0  0
 12 13  2  0  0  0  0
 12  1  1  0  0  0  0
 14 18  1  0  0  0  0
 14 13  1  0  0  0  0
 15 14  2  0  0  0  0
 16 10  1  0  0  0  0
 17 11  1  0  0  0  0
 19 26  1  1  0  0  0
 19 24  1  0  0  0  0
 20  3  1  6  0  0  0
 20 21  1  0  0  0  0
 20 19  1  0  0  0  0
 21 23  1  0  0  0  0
 22 21  1  0  0  0  0
 23 24  1  0  0  0  0
 24 25  1  0  0  0  0
 27 26  1  0  0  0  0
 28  6  1  0  0  0  0
 28 30  1  0  0  0  0
 29 28  1  0  0  0  0
 31 28  1  0  0  0  0
M  END
>  <minimizedAffinity>
-5.6039443

$$$$

 OpenBabel03272505283D

 31 33  0  0  1  0  0  0  0  0999 V2000
   38.0870   23.3650   34.2190 N   0  0  0  0  0  0  0  0  0  0  0  0
   38.2200   24.5680   33.5960 C   0  0  0  0  0  0  0  0  0  0  0  0
   37.5830   24.8560   32.4000 C   0  0  0  0  0  0  0  0  0  0  0  0
   36.7800   23.8500   31.8400 C   0  0  0  0  0  0  0  0  0  0  0  0
   36.1890   24.0730   30.7630 O   0  0  0  0  0  0  0  0  0  0  0  0
   36.6460   22.6440   32.4610 N   0  0  0  0  0  0  0  0  0  0  0  0
   37.3130   22.4850   33.6130 C   0  0  0  0  0  0  0  0  0  0  0  0
   37.1640   21.3640   34.1480 O   0  0  0  0  0  0  0  0  0  0  0  0
   38.8490   25.3260   34.0570 H   0  0  0  0  0  0  0  0  0  0  0  0
   38.8650   23.2600   37.8480 C   0  0  0  0  0  0  0  0  0  0  0  0
   38.2230   23.5360   36.6340 C   0  0  0  0  0  0  0  0  0  0  0  0
   38.7340   23.0910   35.4260 C   0  0  0  0  0  0  0  0  0  0  0  0
   39.8920   22.3680   35.4410 N   0  0  0  0  0  0  0  0  0  0  0  0
   40.5240   22.0950   36.6240 C   0  0  0  0  0  0  0  0  0  0  0  0
   40.0220   22.5330   37.8120 N   0  0  0  0  0  0  0  0  0  0  0  0
   38.5360   23.5670   38.8140 H   0  0  0  0  0  0  0  0  0  0  0  0
   37.3400   24.1210   36.8120 H   0  0  0  0  0  0  0  0  0  0  0  0
   41.4170   21.5240   36.4980 H   0  0  0  0  0  0  0  0  0  0  0  0
   38.9400   26.1030   30.8400 C   0  0  2  0  0  3  0  0  0  0  0  0
   37.7740   26.1610   31.7980 C   0  0  2  0  0  3  0  0  0  0  0  0
   38.1710   27.2610   32.7260 C   0  0  0  0  0  3  0  0  0  0  0  0
   37.7490   27.2110   33.7310 H   0  0  0  0  0  0  0  0  0  0  0  0
   39.5550   27.3490   32.7050 O   0  0  0  0  0  0  0  0  0  0  0  0
   39.9250   27.0750   31.4150 C   0  0  0  0  0  3  0  0  0  0  0  0
   39.9710   28.0060   30.7790 H   0  0  0  0  0  0  0  0  0  0  0  0
   38.5110   26.4990   29.5570 O   0  0  0  0  0  0  0  0  0  0  0  0
   37.8370   25.8520   29.2500 H   0  0  0  0  0  0  0  0  0  0  0  0
   35.8200   21.6110   31.8800 C   0  0  0  0  0  0  0  0  0  0  0  0
   36.5790   20.4820   31.6710 F   0  0  0  0  0  0  0  0  0  0  0  0
   35.2690   21.9620   30.6750 F   0  0  0  0  0  0  0  0  0  0  0  0
   34.8280   21.2680   32.8000 F   0  0  0  0  0  0  0  0  0  0  0  0
  1 12  1  0  0  0  0
  2  9  1  0  0  0  0
  2  1  1  0  0  0  0
  3  2  2  0  0  0  0
  4  3  1  0  0  0  0
  4  6  1  0  0  0  0
  5  4  2  0  0  0  0
  6  7  1  0  0  0  0
  7  8  2  0  0  0  0
  7  1  1  0  0  0  0
 10 16  1  0  0  0  0
 11 17  1  0  0  0  0
 11 10  2  0  0  0  0
 12 13  2  0  0  0  0
 12 11  1  0  0  0  0
 13 14  1  0  0  0  0
 14 15  2  0  0  0  0
 15 10  1  0  0  0  0
 18 14  1  0  0  0  0
 19 26  1  6  0  0  0
 19 24  1  0  0  0  0
 19 20  1  0  0  0  0
 20  3  1  1  0  0  0
 20 21  1  0  0  0  0
 21 22  1  0  0  0  0
 23 21  1  0  0  0  0
 24 23  1  0  0  0  0
 25 24  1  0  0  0  0
 27 26  1  0  0  0  0
 28  6  1  0  0  0  0
 28 31  1  0  0  0  0
 29 28  1  0  0  0  0
 30 28  1  0  0  0  0
M  END
>  <minimizedAffinity>
-5.58036423

$$$$

 OpenBabel03272505283D

 31 33  0  0  1  0  0  0  0  0999 V2000
   34.4850   29.9220   34.5870 N   0  0  0  0  0  0  0  0  0  0  0  0
   33.2830   29.4200   34.9840 C   0  0  0  0  0  0  0  0  0  0  0  0
   32.4650   30.0820   35.8850 C   0  0  0  0  0  0  0  0  0  0  0  0
   32.9230   31.3120   36.3850 C   0  0  0  0  0  0  0  0  0  0  0  0
   32.2120   31.9380   37.1990 O   0  0  0  0  0  0  0  0  0  0  0  0
   34.1260   31.8160   35.9910 N   0  0  0  0  0  0  0  0  0  0  0  0
   34.8260   31.0820   35.1150 C   0  0  0  0  0  0  0  0  0  0  0  0
   35.9240   31.5810   34.7810 O   0  0  0  0  0  0  0  0  0  0  0  0
   32.9580   28.4650   34.5770 H   0  0  0  0  0  0  0  0  0  0  0  0
   37.0760   27.6610   33.1880 C   0  0  0  0  0  0  0  0  0  0  0  0
   36.2620   28.3460   34.0990 C   0  0  0  0  0  0  0  0  0  0  0  0
   35.2960   29.2440   33.6750 C   0  0  0  0  0  0  0  0  0  0  0  0
   35.1510   29.4520   32.3340 N   0  0  0  0  0  0  0  0  0  0  0  0
   35.9430   28.7850   31.4390 C   0  0  0  0  0  0  0  0  0  0  0  0
   36.8920   27.9020   31.8550 N   0  0  0  0  0  0  0  0  0  0  0  0
   37.8380   26.9570   33.4360 H   0  0  0  0  0  0  0  0  0  0  0  0
   36.5230   28.0690   35.1040 H   0  0  0  0  0  0  0  0  0  0  0  0
   35.7290   29.0370   30.4230 H   0  0  0  0  0  0  0  0  0  0  0  0
   31.4480   28.3640   37.2420 C   0  0  2  0  0  3  0  0  0  0  0  0
   31.2000   29.4820   36.2580 C   0  0  2  0  0  3  0  0  0  0  0  0
   30.4520   28.7930   35.1660 C   0  0  0  0  0  3  0  0  0  0  0  0
   30.5410   29.2380   34.1740 H   0  0  0  0  0  0  0  0  0  0  0  0
   30.7920   27.4490   35.2080 O   0  0  0  0  0  0  0  0  0  0  0  0
   30.9400   27.1440   36.5350 C   0  0  0  0  0  3  0  0  0  0  0  0
   29.9740   26.7960   37.0020 H   0  0  0  0  0  0  0  0  0  0  0  0
   30.7250   28.6140   38.4270 O   0  0  0  0  0  0  0  0  0  0  0  0
   31.0710   29.4450   38.8220 H   0  0  0  0  0  0  0  0  0  0  0  0
   34.5930   33.0810   36.5100 C   0  0  0  0  0  0  0  0  0  0  0  0
   35.9570   33.1650   36.3500 F   0  0  0  0  0  0  0  0  0  0  0  0
   34.3260   33.2600   37.8420 F   0  0  0  0  0  0  0  0  0  0  0  0
   34.0320   34.1060   35.7480 F   0  0  0  0  0  0  0  0  0  0  0  0
  1  2  1  0  0  0  0
  1  7  1  0  0  0  0
  2  3  2  0  0  0  0
  3  4  1  0  0  0  0
  4  5  2  0  0  0  0
  6  4  1  0  0  0  0
  6 28  1  0  0  0  0
  7  6  1  0  0  0  0
  8  7  2  0  0  0  0
  9  2  1  0  0  0  0
 10 16  1  0  0  0  0
 10 11  1  0  0  0  0
 11 17  1  0  0  0  0
 12 11  2  0  0  0  0
 12  1  1  0  0  0  0
 13 12  1  0  0  0  0
 14 15  1  0  0  0  0
 14 13  2  0  0  0  0
 15 10  2  0  0  0  0
 18 14  1  0  0  0  0
 19 26  1  1  0  0  0
 20  3  1  6  0  0  0
 20 19  1  0  0  0  0
 21 23  1  0  0  0  0
 21 20  1  0  0  0  0
 22 21  1  0  0  0  0
 23 24  1  0  0  0  0
 24 25  1  0  0  0  0
 24 19  1  0  0  0  0
 26 27  1  0  0  0  0
 28 30  1  0  0  0  0
 29 28  1  0  0  0  0
 31 28  1  0  0  0  0
M  END
>  <minimizedAffinity>
-5.44868612

$$$$

 OpenBabel03272505283D

 31 33  0  0  1  0  0  0  0  0999 V2000
   37.0230   23.3800   32.5770 N   0  0  0  0  0  0  0  0  0  0  0  0
   37.7600   23.4670   33.7180 C   0  0  0  0  0  0  0  0  0  0  0  0
   38.1330   24.6830   34.2680 C   0  0  0  0  0  0  0  0  0  0  0  0
   37.7190   25.8450   33.5980 C   0  0  0  0  0  0  0  0  0  0  0  0
   38.0360   26.9590   34.0640 O   0  0  0  0  0  0  0  0  0  0  0  0
   36.9820   25.7610   32.4550 N   0  0  0  0  0  0  0  0  0  0  0  0
   36.6840   24.5280   32.0220 C   0  0  0  0  0  0  0  0  0  0  0  0
   36.0080   24.4970   30.9700 O   0  0  0  0  0  0  0  0  0  0  0  0
   38.0650   22.5470   34.2130 H   0  0  0  0  0  0  0  0  0  0  0  0
   35.1300   20.2550   31.9200 C   0  0  0  0  0  0  0  0  0  0  0  0
   35.5080   21.4900   32.4610 C   0  0  0  0  0  0  0  0  0  0  0  0
   36.6520   22.1460   32.0380 C   0  0  0  0  0  0  0  0  0  0  0  0
   37.4160   21.5580   31.0710 N   0  0  0  0  0  0  0  0  0  0  0  0
   37.0510   20.3510   30.5390 C   0  0  0  0  0  0  0  0  0  0  0  0
   35.9260   19.7050   30.9540 N   0  0  0  0  0  0  0  0  0  0  0  0
   34.2670   19.6900   32.1920 H   0  0  0  0  0  0  0  0  0  0  0  0
   34.8020   21.7940   33.2110 H   0  0  0  0  0  0  0  0  0  0  0  0
   37.7310   20.0000   29.7940 H   0  0  0  0  0  0  0  0  0  0  0  0
   39.7390   23.4270   35.5620 C   0  0  2  0  0  3  0  0  0  0  0  0
   38.9190   24.6930   35.4860 C   0  0  2  0  0  3  0  0  0  0  0  0
   38.1500   24.6580   36.7640 C   0  0  0  0  0  3  0  0  0  0  0  0
   37.1950   25.1860   36.7600 H   0  0  0  0  0  0  0  0  0  0  0  0
   38.0520   23.3320   37.1600 O   0  0  0  0  0  0  0  0  0  0  0  0
   39.2390   22.7500   36.8020 C   0  0  0  0  0  3  0  0  0  0  0  0
   40.0110   22.8180   37.6220 H   0  0  0  0  0  0  0  0  0  0  0  0
   41.1050   23.7600   35.6700 O   0  0  0  0  0  0  0  0  0  0  0  0
   41.3650   24.2380   34.8510 H   0  0  0  0  0  0  0  0  0  0  0  0
   36.5580   26.9600   31.7690 C   0  0  0  0  0  0  0  0  0  0  0  0
   36.1320   27.8880   32.6920 F   0  0  0  0  0  0  0  0  0  0  0  0
   35.5270   26.7550   30.8910 F   0  0  0  0  0  0  0  0  0  0  0  0
   37.6630   27.5120   31.1200 F   0  0  0  0  0  0  0  0  0  0  0  0
  1  2  1  0  0  0  0
  2  9  1  0  0  0  0
  2  3  2  0  0  0  0
  4  5  2  0  0  0  0
  4  3  1  0  0  0  0
  6  4  1  0  0  0  0
  7  6  1  0  0  0  0
  7  1  1  0  0  0  0
  8  7  2  0  0  0  0
 10 16  1  0  0  0  0
 10 11  1  0  0  0  0
 11 17  1  0  0  0  0
 12 11  2  0  0  0  0
 12  1  1  0  0  0  0
 13 12  1  0  0  0  0
 14 15  1  0  0  0  0
 14 13  2  0  0  0  0
 15 10  2  0  0  0  0
 18 14  1  0  0  0  0
 19 26  1  1  0  0  0
 19 24  1  0  0  0  0
 20  3  1  6  0  0  0
 20 19  1  0  0  0  0
 20 21  1  0  0  0  0
 21 23  1  0  0  0  0
 22 21  1  0  0  0  0
 24 23  1  0  0  0  0
 24 25  1  0  0  0  0
 27 26  1  0  0  0  0
 28  6  1  0  0  0  0
 28 29  1  0  0  0  0
 30 28  1  0  0  0  0
 31 28  1  0  0  0  0
M  END
>  <minimizedAffinity>
-5.42912054

$$$$

 OpenBabel03272505283D

 31 33  0  0  1  0  0  0  0  0999 V2000
   38.9280   24.4220   34.8220 N   0  0  0  0  0  0  0  0  0  0  0  0
   39.9590   23.5690   34.5740 C   0  0  0  0  0  0  0  0  0  0  0  0
   40.5170   22.7750   35.5630 C   0  0  0  0  0  0  0  0  0  0  0  0
   39.9750   22.8800   36.8540 C   0  0  0  0  0  0  0  0  0  0  0  0
   40.4520   22.1800   37.7710 O   0  0  0  0  0  0  0  0  0  0  0  0
   38.9430   23.7350   37.1050 N   0  0  0  0  0  0  0  0  0  0  0  0
   38.4900   24.4500   36.0660 C   0  0  0  0  0  0  0  0  0  0  0  0
   37.5440   25.2220   36.3420 O   0  0  0  0  0  0  0  0  0  0  0  0
   40.3550   23.5110   33.5620 H   0  0  0  0  0  0  0  0  0  0  0  0
   38.2900   27.2890   32.5500 C   0  0  0  0  0  0  0  0  0  0  0  0
   38.8400   26.4930   33.5640 C   0  0  0  0  0  0  0  0  0  0  0  0
   38.3740   25.2130   33.8130 C   0  0  0  0  0  0  0  0  0  0  0  0
   37.3520   24.7350   33.0440 N   0  0  0  0  0  0  0  0  0  0  0  0
   36.8110   25.5080   32.0520 C   0  0  0  0  0  0  0  0  0  0  0  0
   37.2700   26.7670   31.8060 N   0  0  0  0  0  0  0  0  0  0  0  0
   38.5940   28.2790   32.2980 H   0  0  0  0  0  0  0  0  0  0  0  0
   39.6190   27.0320   34.0700 H   0  0  0  0  0  0  0  0  0  0  0  0
   36.0210   25.0190   31.5260 H   0  0  0  0  0  0  0  0  0  0  0  0
   42.9170   22.6450   35.3350 C   0  0  2  0  0  3  0  0  0  0  0  0
   41.6130   21.8910   35.2200 C   0  0  2  0  0  3  0  0  0  0  0  0
   41.6460   21.4000   33.8110 C   0  0  0  0  0  3  0  0  0  0  0  0
   40.6740   21.2240   33.3460 H   0  0  0  0  0  0  0  0  0  0  0  0
   42.4650   22.2540   33.0870 O   0  0  0  0  0  0  0  0  0  0  0  0
   43.4720   22.6160   33.9430 C   0  0  0  0  0  3  0  0  0  0  0  0
   44.3510   21.9110   33.8870 H   0  0  0  0  0  0  0  0  0  0  0  0
   43.7640   21.9780   36.2430 O   0  0  0  0  0  0  0  0  0  0  0  0
   43.3310   21.9900   37.1250 H   0  0  0  0  0  0  0  0  0  0  0  0
   38.3900   23.8390   38.4360 C   0  0  0  0  0  0  0  0  0  0  0  0
   37.8530   25.0950   38.6090 F   0  0  0  0  0  0  0  0  0  0  0  0
   39.3130   23.6490   39.4310 F   0  0  0  0  0  0  0  0  0  0  0  0
   37.3390   22.9290   38.5510 F   0  0  0  0  0  0  0  0  0  0  0  0
  1  7  1  0  0  0  0
  2  1  1  0  0  0  0
  2  3  2  0  0  0  0
  3  4  1  0  0  0  0
  4  6  1  0  0  0  0
  4  5  2  0  0  0  0
  6 28  1  0  0  0  0
  7  8  2  0  0  0  0
  7  6  1  0  0  0  0
  9  2  1  0  0  0  0
 10 11  1  0  0  0  0
 11 12  2  0  0  0  0
 11 17  1  0  0  0  0
 12  1  1  0  0  0  0
 13 12  1  0  0  0  0
 14 13  2  0  0  0  0
 15 14  1  0  0  0  0
 15 10  2  0  0  0  0
 16 10  1  0  0  0  0
 18 14  1  0  0  0  0
 19 26  1  1  0  0  0
 20 19  1  0  0  0  0
 20  3  1  6  0  0  0
 21 20  1  0  0  0  0
 22 21  1  0  0  0  0
 23 21  1  0  0  0  0
 23 24  1  0  0  0  0
 24 19  1  0  0  0  0
 25 24  1  0  0  0  0
 26 27  1  0  0  0  0
 28 31  1  0  0  0  0
 28 29  1  0  0  0  0
 28 30  1  0  0  0  0
M  END
>  <minimizedAffinity>
-5.42322445

$$$$

 OpenBabel03272505283D

 31 33  0  0  1  0  0  0  0  0999 V2000
   37.9370   24.6280   34.4770 N   0  0  0  0  0  0  0  0  0  0  0  0
   37.7360   23.8910   33.3510 C   0  0  0  0  0  0  0  0  0  0  0  0
   37.1940   24.4330   32.1970 C   0  0  0  0  0  0  0  0  0  0  0  0
   36.8540   25.7960   32.2260 C   0  0  0  0  0  0  0  0  0  0  0  0
   36.3640   26.3200   31.2040 O   0  0  0  0  0  0  0  0  0  0  0  0
   37.0530   26.5360   33.3520 N   0  0  0  0  0  0  0  0  0  0  0  0
   37.5840   25.8970   34.4040 C   0  0  0  0  0  0  0  0  0  0  0  0
   37.7490   26.6140   35.4170 O   0  0  0  0  0  0  0  0  0  0  0  0
   38.0110   22.8380   33.3620 H   0  0  0  0  0  0  0  0  0  0  0  0
   38.2840   23.3460   37.9440 C   0  0  0  0  0  0  0  0  0  0  0  0
   37.7370   23.9120   36.7840 C   0  0  0  0  0  0  0  0  0  0  0  0
   38.4880   24.0670   35.6310 C   0  0  0  0  0  0  0  0  0  0  0  0
   39.7890   23.6530   35.6450 N   0  0  0  0  0  0  0  0  0  0  0  0
   40.3280   23.1000   36.7740 C   0  0  0  0  0  0  0  0  0  0  0  0
   39.5910   22.9460   37.9090 N   0  0  0  0  0  0  0  0  0  0  0  0
   37.7720   23.1930   38.8670 H   0  0  0  0  0  0  0  0  0  0  0  0
   36.7140   24.1870   36.9590 H   0  0  0  0  0  0  0  0  0  0  0  0
   41.3510   22.8190   36.6540 H   0  0  0  0  0  0  0  0  0  0  0  0
   36.7690   22.1630   31.4940 C   0  0  2  0  0  3  0  0  0  0  0  0
   37.0100   23.5830   31.0380 C   0  0  2  0  0  3  0  0  0  0  0  0
   38.1900   23.4360   30.1360 C   0  0  0  0  0  3  0  0  0  0  0  0
   38.8240   24.3200   30.0350 H   0  0  0  0  0  0  0  0  0  0  0  0
   38.8790   22.2970   30.5260 O   0  0  0  0  0  0  0  0  0  0  0  0
   37.9200   21.3990   30.9140 C   0  0  0  0  0  3  0  0  0  0  0  0
   37.5690   20.7550   30.0570 H   0  0  0  0  0  0  0  0  0  0  0  0
   35.5360   21.7100   30.9800 O   0  0  0  0  0  0  0  0  0  0  0  0
   34.8260   22.2730   31.3590 H   0  0  0  0  0  0  0  0  0  0  0  0
   36.7000   27.9370   33.3770 C   0  0  0  0  0  0  0  0  0  0  0  0
   37.4900   28.6230   32.4820 F   0  0  0  0  0  0  0  0  0  0  0  0
   36.8690   28.5240   34.6040 F   0  0  0  0  0  0  0  0  0  0  0  0
   35.3820   28.0690   32.9390 F   0  0  0  0  0  0  0  0  0  0  0  0
  1 12  1  0  0  0  0
  2  9  1  0  0  0  0
  2  1  1  0  0  0  0
  3  4  1  0  0  0  0
  3  2  2  0  0  0  0
  4  6  1  0  0  0  0
  5  4  2  0  0  0  0
  6 28  1  0  0  0  0
  6  7  1  0  0  0  0
  7  1  1  0  0  0  0
  7  8  2  0  0  0  0
 10 16  1  0  0  0  0
 11 17  1  0  0  0  0
 11 10  2  0  0  0  0
 12 13  2  0  0  0  0
 12 11  1  0  0  0  0
 13 14  1  0  0  0  0
 14 15  2  0  0  0  0
 15 10  1  0  0  0  0
 18 14  1  0  0  0  0
 19 26  1  6  0  0  0
 20 19  1  0  0  0  0
 20  3  1  1  0  0  0
 21 23  1  0  0  0  0
 21 20  1  0  0  0  0
 22 21  1  0  0  0  0
 23 24  1  0  0  0  0
 24 19  1  0  0  0  0
 25 24  1  0  0  0  0
 26 27  1  0  0  0  0
 28 30  1  0  0  0  0
 29 28  1  0  0  0  0
 31 28  1  0  0  0  0
M  END
>  <minimizedAffinity>
-5.40224695

$$$$

 OpenBabel03272505283D

 31 33  0  0  1  0  0  0  0  0999 V2000
   37.9720   23.6870   34.3100 N   0  0  0  0  0  0  0  0  0  0  0  0
   37.4570   22.6900   33.5390 C   0  0  0  0  0  0  0  0  0  0  0  0
   36.8990   22.9310   32.2940 C   0  0  0  0  0  0  0  0  0  0  0  0
   36.8800   24.2610   31.8440 C   0  0  0  0  0  0  0  0  0  0  0  0
   36.3850   24.5160   30.7270 O   0  0  0  0  0  0  0  0  0  0  0  0
   37.3930   25.2610   32.6150 N   0  0  0  0  0  0  0  0  0  0  0  0
   37.9050   24.9020   33.8000 C   0  0  0  0  0  0  0  0  0  0  0  0
   38.3640   25.8510   34.4750 O   0  0  0  0  0  0  0  0  0  0  0  0
   37.4880   21.6710   33.9170 H   0  0  0  0  0  0  0  0  0  0  0  0
   40.4000   22.6970   36.9380 C   0  0  0  0  0  0  0  0  0  0  0  0
   39.8300   22.9550   35.6850 C   0  0  0  0  0  0  0  0  0  0  0  0
   38.5340   23.4280   35.5620 C   0  0  0  0  0  0  0  0  0  0  0  0
   37.8130   23.6410   36.7010 N   0  0  0  0  0  0  0  0  0  0  0  0
   38.3640   23.3910   37.9280 C   0  0  0  0  0  0  0  0  0  0  0  0
   39.6390   22.9260   38.0500 N   0  0  0  0  0  0  0  0  0  0  0  0
   41.3870   22.3340   37.1140 H   0  0  0  0  0  0  0  0  0  0  0  0
   40.5330   22.7210   34.9070 H   0  0  0  0  0  0  0  0  0  0  0  0
   37.6970   23.5970   38.7360 H   0  0  0  0  0  0  0  0  0  0  0  0
   35.8010   20.7890   32.4810 C   0  0  2  0  0  3  0  0  0  0  0  0
   36.3720   21.8160   31.5330 C   0  0  2  0  0  3  0  0  0  0  0  0
   37.3680   21.0210   30.7560 C   0  0  0  0  0  3  0  0  0  0  0  0
   38.2050   21.5840   30.3380 H   0  0  0  0  0  0  0  0  0  0  0  0
   37.7560   19.9480   31.5440 O   0  0  0  0  0  0  0  0  0  0  0  0
   36.6340   19.5680   32.2320 C   0  0  0  0  0  3  0  0  0  0  0  0
   36.0350   18.7930   31.6730 H   0  0  0  0  0  0  0  0  0  0  0  0
   34.4460   20.5620   32.1640 O   0  0  0  0  0  0  0  0  0  0  0  0
   33.9580   21.4040   32.3040 H   0  0  0  0  0  0  0  0  0  0  0  0
   37.3700   26.6280   32.1470 C   0  0  0  0  0  0  0  0  0  0  0  0
   37.6630   26.6550   30.8030 F   0  0  0  0  0  0  0  0  0  0  0  0
   38.2770   27.4390   32.7790 F   0  0  0  0  0  0  0  0  0  0  0  0
   36.0740   27.1230   32.2900 F   0  0  0  0  0  0  0  0  0  0  0  0
  1 12  1  0  0  0  0
  2  9  1  0  0  0  0
  2  1  1  0  0  0  0
  3  2  2  0  0  0  0
  4  3  1  0  0  0  0
  4  6  1  0  0  0  0
  5  4  2  0  0  0  0
  6  7  1  0  0  0  0
  7  1  1  0  0  0  0
  7  8  2  0  0  0  0
 10 16  1  0  0  0  0
 10 15  1  0  0  0  0
 11 10  2  0  0  0  0
 12 11  1  0  0  0  0
 12 13  2  0  0  0  0
 13 14  1  0  0  0  0
 14 15  2  0  0  0  0
 14 18  1  0  0  0  0
 17 11  1  0  0  0  0
 19 26  1  6  0  0  0
 20  3  1  1  0  0  0
 20 19  1  0  0  0  0
 21 20  1  0  0  0  0
 21 23  1  0  0  0  0
 22 21  1  0  0  0  0
 23 24  1  0  0  0  0
 24 19  1  0  0  0  0
 25 24  1  0  0  0  0
 26 27  1  0  0  0  0
 28 31  1  0  0  0  0
 28  6  1  0  0  0  0
 28 30  1  0  0  0  0
 29 28  1  0  0  0  0
M  END
>  <minimizedAffinity>
-5.39836407

$$$$

 OpenBabel03272505283D

 31 33  0  0  1  0  0  0  0  0999 V2000
   37.6010   23.4790   33.2090 N   0  0  0  0  0  0  0  0  0  0  0  0
   37.6230   24.7840   32.8210 C   0  0  0  0  0  0  0  0  0  0  0  0
   37.9150   25.8130   33.7010 C   0  0  0  0  0  0  0  0  0  0  0  0
   38.1930   25.4610   35.0320 C   0  0  0  0  0  0  0  0  0  0  0  0
   38.4610   26.3620   35.8540 O   0  0  0  0  0  0  0  0  0  0  0  0
   38.1700   24.1560   35.4230 N   0  0  0  0  0  0  0  0  0  0  0  0
   37.8740   23.2520   34.4790 C   0  0  0  0  0  0  0  0  0  0  0  0
   37.8630   22.0670   34.8820 O   0  0  0  0  0  0  0  0  0  0  0  0
   37.4030   25.0220   31.7820 H   0  0  0  0  0  0  0  0  0  0  0  0
   35.7040   21.0350   31.1560 C   0  0  0  0  0  0  0  0  0  0  0  0
   36.0030   22.0620   32.0610 C   0  0  0  0  0  0  0  0  0  0  0  0
   37.3080   22.4530   32.3080 C   0  0  0  0  0  0  0  0  0  0  0  0
   38.3130   21.8090   31.6450 N   0  0  0  0  0  0  0  0  0  0  0  0
   38.0270   20.8060   30.7590 C   0  0  0  0  0  0  0  0  0  0  0  0
   36.7430   20.4210   30.5150 N   0  0  0  0  0  0  0  0  0  0  0  0
   34.7290   20.6790   30.9130 H   0  0  0  0  0  0  0  0  0  0  0  0
   35.0970   22.4430   32.4950 H   0  0  0  0  0  0  0  0  0  0  0  0
   38.8990   20.3850   30.3080 H   0  0  0  0  0  0  0  0  0  0  0  0
   36.4980   27.6190   32.9540 C   0  0  2  0  0  3  0  0  0  0  0  0
   37.9190   27.1770   33.2120 C   0  0  2  0  0  3  0  0  0  0  0  0
   38.5720   27.3990   31.8880 C   0  0  0  0  0  3  0  0  0  0  0  0
   39.4370   26.7690   31.6730 H   0  0  0  0  0  0  0  0  0  0  0  0
   37.5840   27.3400   30.9170 O   0  0  0  0  0  0  0  0  0  0  0  0
   36.4720   27.9060   31.4840 C   0  0  0  0  0  3  0  0  0  0  0  0
   36.4230   29.0190   31.3030 H   0  0  0  0  0  0  0  0  0  0  0  0
   36.2240   28.7770   33.7120 O   0  0  0  0  0  0  0  0  0  0  0  0
   36.2980   28.5400   34.6630 H   0  0  0  0  0  0  0  0  0  0  0  0
   38.4560   23.8000   36.7940 C   0  0  0  0  0  0  0  0  0  0  0  0
   38.2110   24.8820   37.6080 F   0  0  0  0  0  0  0  0  0  0  0  0
   39.7570   23.4190   37.0020 F   0  0  0  0  0  0  0  0  0  0  0  0
   37.5750   22.7910   37.1820 F   0  0  0  0  0  0  0  0  0  0  0  0
  1  7  1  0  0  0  0
  2  1  1  0  0  0  0
  2  3  2  0  0  0  0
  3  4  1  0  0  0  0
  4  6  1  0  0  0  0
  4  5  2  0  0  0  0
  6 28  1  0  0  0  0
  7  8  2  0  0  0  0
  7  6  1  0  0  0  0
  9  2  1  0  0  0  0
 10 11  1  0  0  0  0
 11 12  2  0  0  0  0
 11 17  1  0  0  0  0
 12  1  1  0  0  0  0
 13 12  1  0  0  0  0
 14 13  2  0  0  0  0
 15 14  1  0  0  0  0
 15 10  2  0  0  0  0
 16 10  1  0  0  0  0
 18 14  1  0  0  0  0
 19 20  1  0  0  0  0
 19 26  1  1  0  0  0
 20  3  1  6  0  0  0
 21 20  1  0  0  0  0
 22 21  1  0  0  0  0
 23 24  1  0  0  0  0
 23 21  1  0  0  0  0
 24 19  1  0  0  0  0
 25 24  1  0  0  0  0
 26 27  1  0  0  0  0
 28 30  1  0  0  0  0
 28 31  1  0  0  0  0
 28 29  1  0  0  0  0
M  END
>  <minimizedAffinity>
-5.33845615

$$$$
