
 OpenBabel03272507503D

 28 30  0  0  1  0  0  0  0  0999 V2000
   35.5160   29.2080   49.1960 C   0  0  0  0  0  0  0  0  0  0  0  0
   35.8500   30.2270   48.2870 C   0  0  0  0  0  0  0  0  0  0  0  0
   35.2680   30.1640   47.0260 C   0  0  0  0  0  0  0  0  0  0  0  0
   34.4270   29.1510   46.7310 N   0  0  0  0  0  0  0  0  0  0  0  0
   34.1250   28.1830   47.6330 C   0  0  0  0  0  0  0  0  0  0  0  0
   34.6730   28.2050   48.8830 N   0  0  0  0  0  0  0  0  0  0  0  0
   35.5270   30.9520   46.3220 H   0  0  0  0  0  0  0  0  0  0  0  0
   33.4330   27.4260   47.2660 H   0  0  0  0  0  0  0  0  0  0  0  0
   36.7450   31.2360   48.7100 N   0  0  0  0  0  0  0  0  0  0  0  0
   36.4140   32.1670   49.6080 C   0  0  0  0  0  0  0  0  0  0  0  0
   37.3280   33.1450   50.0010 C   0  0  0  0  0  0  0  0  0  0  0  0
   38.5610   33.0370   49.3750 C   0  0  0  0  0  0  0  0  0  0  0  0
   39.3990   33.9260   49.7300 O   0  0  0  0  0  0  0  0  0  0  0  0
   38.9340   32.1250   48.4740 N   0  0  0  0  0  0  0  0  0  0  0  0
   37.9860   31.2190   48.1540 C   0  0  0  0  0  0  0  0  0  0  0  0
   38.3290   30.3460   47.2960 O   0  0  0  0  0  0  0  0  0  0  0  0
   35.4340   32.2050   50.0580 H   0  0  0  0  0  0  0  0  0  0  0  0
   37.1050   33.9040   50.7130 H   0  0  0  0  0  0  0  0  0  0  0  0
   39.8910   32.1330   48.0630 H   0  0  0  0  0  0  0  0  0  0  0  0
   37.4380   28.6440   50.6840 C   0  0  2  0  0  3  0  0  0  0  0  0
   36.0280   29.0920   50.5820 C   0  0  1  0  0  3  0  0  0  0  0  0
   35.9970   30.3860   51.3240 C   0  0  0  0  0  3  0  0  0  0  0  0
   35.0880   30.4500   51.9900 H   0  0  0  0  0  0  0  0  0  0  0  0
   37.1000   30.4520   52.1440 O   0  0  0  0  0  0  0  0  0  0  0  0
   38.0670   29.6030   51.6540 C   0  0  0  0  0  3  0  0  0  0  0  0
   38.8950   30.1580   51.1470 H   0  0  0  0  0  0  0  0  0  0  0  0
   38.0610   28.7260   49.4500 O   0  0  0  0  0  0  0  0  0  0  0  0
   38.9870   29.0650   49.5880 H   0  0  0  0  0  0  0  0  0  0  0  0
  2  9  1  0  0  0  0
  2  1  2  0  0  0  0
  3  2  1  0  0  0  0
  4  3  2  0  0  0  0
  4  5  1  0  0  0  0
  5  6  2  0  0  0  0
  6  1  1  0  0  0  0
  7  3  1  0  0  0  0
  8  5  1  0  0  0  0
  9 10  1  0  0  0  0
 10 11  2  0  0  0  0
 10 17  1  0  0  0  0
 11 18  1  0  0  0  0
 12 13  2  0  0  0  0
 12 11  1  0  0  0  0
 14 12  1  0  0  0  0
 15 14  1  0  0  0  0
 15  9  1  0  0  0  0
 16 15  2  0  0  0  0
 19 14  1  0  0  0  0
 20 27  1  6  0  0  0
 20 25  1  0  0  0  0
 21  1  1  6  0  0  0
 21 20  1  0  0  0  0
 21 22  1  0  0  0  0
 22 23  1  0  0  0  0
 22 24  1  0  0  0  0
 25 24  1  0  0  0  0
 26 25  1  0  0  0  0
 27 28  1  0  0  0  0
M  END
>  <minimizedAffinity>
-2.82418776

>  <minimizedRMSD>
1.13131905

$$$$
