
 OpenBabel03272507503D

 28 30  0  0  1  0  0  0  0  0999 V2000
   35.5100   29.0980   49.1670 C   0  0  0  0  0  0  0  0  0  0  0  0
   35.7560   30.1670   48.2880 C   0  0  0  0  0  0  0  0  0  0  0  0
   35.1080   30.1360   47.0590 C   0  0  0  0  0  0  0  0  0  0  0  0
   34.2880   29.1070   46.7640 N   0  0  0  0  0  0  0  0  0  0  0  0
   34.0720   28.0900   47.6370 C   0  0  0  0  0  0  0  0  0  0  0  0
   34.6870   28.0780   48.8550 N   0  0  0  0  0  0  0  0  0  0  0  0
   35.2990   30.9640   46.3790 H   0  0  0  0  0  0  0  0  0  0  0  0
   33.3870   27.3230   47.2740 H   0  0  0  0  0  0  0  0  0  0  0  0
   36.6380   31.1900   48.7070 N   0  0  0  0  0  0  0  0  0  0  0  0
   36.3410   32.0440   49.6900 C   0  0  0  0  0  0  0  0  0  0  0  0
   37.2400   33.0390   50.0760 C   0  0  0  0  0  0  0  0  0  0  0  0
   38.4200   33.0320   49.3490 C   0  0  0  0  0  0  0  0  0  0  0  0
   39.2440   33.9370   49.6960 O   0  0  0  0  0  0  0  0  0  0  0  0
   38.7590   32.2000   48.3610 N   0  0  0  0  0  0  0  0  0  0  0  0
   37.8280   31.2700   48.0560 C   0  0  0  0  0  0  0  0  0  0  0  0
   38.1390   30.4720   47.1160 O   0  0  0  0  0  0  0  0  0  0  0  0
   35.3990   32.0040   50.2180 H   0  0  0  0  0  0  0  0  0  0  0  0
   37.0420   33.7380   50.8530 H   0  0  0  0  0  0  0  0  0  0  0  0
   39.6780   32.2820   47.8770 H   0  0  0  0  0  0  0  0  0  0  0  0
   37.5710   28.7340   50.5270 C   0  0  2  0  0  3  0  0  0  0  0  0
   36.1030   28.9410   50.5170 C   0  0  1  0  0  3  0  0  0  0  0  0
   35.8900   30.1350   51.3870 C   0  0  0  0  0  3  0  0  0  0  0  0
   35.0180   29.9770   52.0860 H   0  0  0  0  0  0  0  0  0  0  0  0
   37.0070   30.3130   52.1720 O   0  0  0  0  0  0  0  0  0  0  0  0
   38.0760   29.6930   51.5670 C   0  0  0  0  0  3  0  0  0  0  0  0
   38.7750   30.4270   51.0930 H   0  0  0  0  0  0  0  0  0  0  0  0
   38.1100   29.0400   49.2870 O   0  0  0  0  0  0  0  0  0  0  0  0
   38.9710   29.5180   49.4280 H   0  0  0  0  0  0  0  0  0  0  0  0
  2  9  1  0  0  0  0
  2  1  2  0  0  0  0
  3  2  1  0  0  0  0
  4  3  2  0  0  0  0
  4  5  1  0  0  0  0
  5  6  2  0  0  0  0
  6  1  1  0  0  0  0
  7  3  1  0  0  0  0
  8  5  1  0  0  0  0
  9 10  1  0  0  0  0
 10 11  2  0  0  0  0
 10 17  1  0  0  0  0
 11 18  1  0  0  0  0
 12 13  2  0  0  0  0
 12 11  1  0  0  0  0
 14 12  1  0  0  0  0
 15 14  1  0  0  0  0
 15  9  1  0  0  0  0
 16 15  2  0  0  0  0
 19 14  1  0  0  0  0
 20 27  1  6  0  0  0
 20 25  1  0  0  0  0
 21  1  1  6  0  0  0
 21 20  1  0  0  0  0
 21 22  1  0  0  0  0
 22 23  1  0  0  0  0
 22 24  1  0  0  0  0
 25 24  1  0  0  0  0
 26 25  1  0  0  0  0
 27 28  1  0  0  0  0
M  END
>  <minimizedAffinity>
-3.57923532

>  <minimizedRMSD>
1.09945726

$$$$
