
 OpenBabel03272507363D

 19 20  0  0  1  0  0  0  0  0999 V2000
   37.1670   31.1320   46.4600 C   0  0  0  0  0  0  0  0  0  0  0  0
   37.6070   31.0840   47.7860 C   0  0  0  0  0  0  0  0  0  0  0  0
   38.7240   31.8390   48.1190 C   0  0  0  0  0  0  0  0  0  0  0  0
   39.3320   32.5790   47.1560 N   0  0  0  0  0  0  0  0  0  0  0  0
   38.8950   32.6140   45.8770 C   0  0  0  0  0  0  0  0  0  0  0  0
   37.8100   31.8880   45.5320 N   0  0  0  0  0  0  0  0  0  0  0  0
   39.1330   31.8640   49.1100 H   0  0  0  0  0  0  0  0  0  0  0  0
   39.4250   33.2250   45.1570 H   0  0  0  0  0  0  0  0  0  0  0  0
   37.6310   30.2350   50.1480 C   0  0  1  0  0  3  0  0  0  0  0  0
   36.9380   30.2770   48.8200 C   0  0  1  0  0  3  0  0  0  0  0  0
   35.5700   30.7380   49.1760 C   0  0  0  0  0  3  0  0  0  0  0  0
   35.5150   31.7610   49.5930 H   0  0  0  0  0  0  0  0  0  0  0  0
   35.3160   29.9030   50.2890 O   0  0  0  0  0  0  0  0  0  0  0  0
   36.4510   30.1500   51.0870 C   0  0  0  0  0  3  0  0  0  0  0  0
   36.6070   29.3990   51.8660 H   0  0  0  0  0  0  0  0  0  0  0  0
   38.4870   29.1530   50.2070 O   0  0  0  0  0  0  0  0  0  0  0  0
   38.9450   29.0450   51.0560 H   0  0  0  0  0  0  0  0  0  0  0  0
   36.0550   30.3570   46.2110 O   0  0  0  0  0  0  0  0  0  0  0  0
   35.1130   30.6650   46.3670 H   0  0  0  0  0  0  0  0  0  0  0  0
  1  2  1  0  0  0  0
  2  3  2  0  0  0  0
  3  7  1  0  0  0  0
  4  3  1  0  0  0  0
  5  4  2  0  0  0  0
  6  5  1  0  0  0  0
  6  1  2  0  0  0  0
  8  5  1  0  0  0  0
  9 16  1  6  0  0  0
  9 14  1  0  0  0  0
 10  2  1  6  0  0  0
 10 11  1  0  0  0  0
 10  9  1  0  0  0  0
 11 12  1  0  0  0  0
 11 13  1  0  0  0  0
 13 14  1  0  0  0  0
 14 15  1  0  0  0  0
 16 17  1  0  0  0  0
 18 19  1  0  0  0  0
 18  1  1  0  0  0  0
M  END
>  <minimizedAffinity>
-4.30735254

>  <minimizedRMSD>
4.77666187

$$$$
