
 OpenBabel03272506153D

 24 25  0  0  1  0  0  0  0  0999 V2000
   38.4780   23.1990   34.8520 C   0  0  0  0  0  0  0  0  0  0  0  0
   38.0140   21.9780   34.3600 C   0  0  0  0  0  0  0  0  0  0  0  0
   37.3440   21.9420   33.1450 C   0  0  0  0  0  0  0  0  0  0  0  0
   37.1630   23.1020   32.4780 N   0  0  0  0  0  0  0  0  0  0  0  0
   37.6210   24.2890   32.9720 C   0  0  0  0  0  0  0  0  0  0  0  0
   38.2810   24.3290   34.1660 N   0  0  0  0  0  0  0  0  0  0  0  0
   38.2120   21.1320   34.9680 H   0  0  0  0  0  0  0  0  0  0  0  0
   37.4330   25.1860   32.3690 H   0  0  0  0  0  0  0  0  0  0  0  0
   35.4450   20.3080   33.0380 C   0  0  1  0  0  3  0  0  0  0  0  0
   36.8580   20.6740   32.6270 C   0  0  1  0  0  3  0  0  0  0  0  0
   36.6740   20.6580   31.1240 C   0  0  0  0  0  3  0  0  0  0  0  0
   37.6680   20.5620   30.6430 H   0  0  0  0  0  0  0  0  0  0  0  0
   35.8380   19.5900   30.8570 O   0  0  0  0  0  0  0  0  0  0  0  0
   35.2170   19.1910   32.0160 C   0  0  0  0  0  3  0  0  0  0  0  0
   35.7800   18.2970   32.4000 H   0  0  0  0  0  0  0  0  0  0  0  0
   35.3560   19.8670   34.3430 O   0  0  0  0  0  0  0  0  0  0  0  0
   34.6180   20.3390   34.8390 H   0  0  0  0  0  0  0  0  0  0  0  0
   39.1590   23.4060   36.0360 O   0  0  0  0  0  0  0  0  0  0  0  0
   38.0530   24.7940   38.0420 O   0  0  0  0  0  0  0  0  0  0  0  0
   38.3720   23.3960   37.5690 P   0  0  0  0  0  0  0  0  0  0  0  0
   36.9870   22.4500   37.3760 O   0  0  0  0  0  0  0  0  0  0  0  0
   37.2480   21.6660   36.8260 H   0  0  0  0  0  0  0  0  0  0  0  0
   39.4120   22.7040   38.7170 O   0  0  0  0  0  0  0  0  0  0  0  0
   40.0280   23.3710   39.1010 H   0  0  0  0  0  0  0  0  0  0  0  0
  1 18  1  0  0  0  0
  2  1  1  0  0  0  0
  2  7  1  0  0  0  0
  3  2  2  0  0  0  0
  4  5  2  0  0  0  0
  4  3  1  0  0  0  0
  5  6  1  0  0  0  0
  6  1  2  0  0  0  0
  8  5  1  0  0  0  0
  9 16  1  1  0  0  0
 10  9  1  0  0  0  0
 10  3  1  1  0  0  0
 11 10  1  0  0  0  0
 12 11  1  0  0  0  0
 13 11  1  0  0  0  0
 13 14  1  0  0  0  0
 14 15  1  0  0  0  0
 14  9  1  0  0  0  0
 16 17  1  0  0  0  0
 18 20  1  0  0  0  0
 20 19  2  0  0  0  0
 20 23  1  0  0  0  0
 21 20  1  0  0  0  0
 22 21  1  0  0  0  0
 23 24  1  0  0  0  0
M  END
>  <minimizedAffinity>
-4.91126919

$$$$

 OpenBabel03272506153D

 24 25  0  0  1  0  0  0  0  0999 V2000
   38.5640   24.2520   34.8800 C   0  0  0  0  0  0  0  0  0  0  0  0
   38.2310   25.5230   34.4100 C   0  0  0  0  0  0  0  0  0  0  0  0
   37.5310   25.6490   33.2180 C   0  0  0  0  0  0  0  0  0  0  0  0
   37.1950   24.5240   32.5510 N   0  0  0  0  0  0  0  0  0  0  0  0
   37.5280   23.2870   33.0220 C   0  0  0  0  0  0  0  0  0  0  0  0
   38.2160   23.1580   34.1940 N   0  0  0  0  0  0  0  0  0  0  0  0
   38.5460   26.3340   35.0150 H   0  0  0  0  0  0  0  0  0  0  0  0
   37.2180   22.4240   32.4200 H   0  0  0  0  0  0  0  0  0  0  0  0
   36.0070   27.0070   31.7640 C   0  0  1  0  0  3  0  0  0  0  0  0
   37.1810   26.9690   32.7230 C   0  0  1  0  0  3  0  0  0  0  0  0
   36.6410   27.8990   33.7890 C   0  0  0  0  0  3  0  0  0  0  0  0
   37.4870   28.2700   34.4030 H   0  0  0  0  0  0  0  0  0  0  0  0
   35.9810   28.9070   33.1120 O   0  0  0  0  0  0  0  0  0  0  0  0
   35.7500   28.5160   31.8150 C   0  0  0  0  0  3  0  0  0  0  0  0
   36.5470   28.9900   31.1800 H   0  0  0  0  0  0  0  0  0  0  0  0
   36.3240   26.5600   30.4980 O   0  0  0  0  0  0  0  0  0  0  0  0
   35.6540   25.8830   30.1710 H   0  0  0  0  0  0  0  0  0  0  0  0
   39.2530   23.9550   36.0400 O   0  0  0  0  0  0  0  0  0  0  0  0
   37.9630   24.5670   38.3060 O   0  0  0  0  0  0  0  0  0  0  0  0
   38.4620   23.4120   37.4720 P   0  0  0  0  0  0  0  0  0  0  0  0
   37.2110   22.4000   36.9580 O   0  0  0  0  0  0  0  0  0  0  0  0
   37.5750   21.8440   36.2210 H   0  0  0  0  0  0  0  0  0  0  0  0
   39.5740   22.5510   38.4210 O   0  0  0  0  0  0  0  0  0  0  0  0
   40.0960   23.1490   39.0050 H   0  0  0  0  0  0  0  0  0  0  0  0
  1 18  1  0  0  0  0
  2  1  1  0  0  0  0
  2  7  1  0  0  0  0
  3  2  2  0  0  0  0
  4  5  2  0  0  0  0
  4  3  1  0  0  0  0
  5  6  1  0  0  0  0
  6  1  2  0  0  0  0
  8  5  1  0  0  0  0
  9 16  1  6  0  0  0
  9 14  1  0  0  0  0
  9 10  1  0  0  0  0
 10  3  1  1  0  0  0
 10 11  1  0  0  0  0
 11 12  1  0  0  0  0
 13 11  1  0  0  0  0
 14 13  1  0  0  0  0
 15 14  1  0  0  0  0
 17 16  1  0  0  0  0
 18 20  1  0  0  0  0
 20 19  2  0  0  0  0
 20 23  1  0  0  0  0
 21 20  1  0  0  0  0
 22 21  1  0  0  0  0
 23 24  1  0  0  0  0
M  END
>  <minimizedAffinity>
-4.89789629

$$$$

 OpenBabel03272506153D

 24 25  0  0  1  0  0  0  0  0999 V2000
   38.6500   24.9000   35.9450 C   0  0  0  0  0  0  0  0  0  0  0  0
   39.8640   24.7700   35.2700 C   0  0  0  0  0  0  0  0  0  0  0  0
   40.4580   25.8930   34.7110 C   0  0  0  0  0  0  0  0  0  0  0  0
   39.8310   27.0820   34.8420 N   0  0  0  0  0  0  0  0  0  0  0  0
   38.6430   27.1940   35.5050 C   0  0  0  0  0  0  0  0  0  0  0  0
   38.0560   26.0930   36.0570 N   0  0  0  0  0  0  0  0  0  0  0  0
   40.2650   23.7900   35.2280 H   0  0  0  0  0  0  0  0  0  0  0  0
   38.1990   28.1950   35.5680 H   0  0  0  0  0  0  0  0  0  0  0  0
   42.5730   27.0210   33.9750 C   0  0  1  0  0  3  0  0  0  0  0  0
   41.7220   25.7660   34.0060 C   0  0  1  0  0  3  0  0  0  0  0  0
   42.7070   24.8340   34.6790 C   0  0  0  0  0  3  0  0  0  0  0  0
   42.4020   23.7860   34.4800 H   0  0  0  0  0  0  0  0  0  0  0  0
   43.9450   25.1460   34.1510 O   0  0  0  0  0  0  0  0  0  0  0  0
   43.8830   26.3680   33.5270 C   0  0  0  0  0  3  0  0  0  0  0  0
   43.7730   26.1710   32.4250 H   0  0  0  0  0  0  0  0  0  0  0  0
   42.1130   27.9680   33.0840 O   0  0  0  0  0  0  0  0  0  0  0  0
   42.0510   28.8760   33.5150 H   0  0  0  0  0  0  0  0  0  0  0  0
   37.9330   23.8890   36.5550 O   0  0  0  0  0  0  0  0  0  0  0  0
   38.2270   24.6120   39.1170 O   0  0  0  0  0  0  0  0  0  0  0  0
   38.2040   23.4200   38.1910 P   0  0  0  0  0  0  0  0  0  0  0  0
   36.9700   22.3320   38.5740 O   0  0  0  0  0  0  0  0  0  0  0  0
   36.8550   21.7390   37.7880 H   0  0  0  0  0  0  0  0  0  0  0  0
   39.7190   22.6670   38.3040 O   0  0  0  0  0  0  0  0  0  0  0  0
   40.4450   23.3230   38.4320 H   0  0  0  0  0  0  0  0  0  0  0  0
  1  6  1  0  0  0  0
  1 18  1  0  0  0  0
  2  1  2  0  0  0  0
  3  4  2  0  0  0  0
  3  2  1  0  0  0  0
  4  5  1  0  0  0  0
  5  8  1  0  0  0  0
  5  6  2  0  0  0  0
  7  2  1  0  0  0  0
  9 16  1  6  0  0  0
  9 10  1  0  0  0  0
 10 11  1  0  0  0  0
 10  3  1  1  0  0  0
 12 11  1  0  0  0  0
 13 11  1  0  0  0  0
 14  9  1  0  0  0  0
 14 13  1  0  0  0  0
 15 14  1  0  0  0  0
 16 17  1  0  0  0  0
 18 20  1  0  0  0  0
 20 23  1  0  0  0  0
 20 21  1  0  0  0  0
 20 19  2  0  0  0  0
 22 21  1  0  0  0  0
 23 24  1  0  0  0  0
M  END
>  <minimizedAffinity>
-4.79947662

$$$$

 OpenBabel03272506153D

 24 25  0  0  1  0  0  0  0  0999 V2000
   40.0270   22.7500   36.1980 C   0  0  0  0  0  0  0  0  0  0  0  0
   39.3680   23.7670   35.5060 C   0  0  0  0  0  0  0  0  0  0  0  0
   38.4770   24.5880   36.1830 C   0  0  0  0  0  0  0  0  0  0  0  0
   38.2800   24.3690   37.5010 N   0  0  0  0  0  0  0  0  0  0  0  0
   38.9310   23.3700   38.1660 C   0  0  0  0  0  0  0  0  0  0  0  0
   39.8080   22.5610   37.5030 N   0  0  0  0  0  0  0  0  0  0  0  0
   39.5990   23.8460   34.4740 H   0  0  0  0  0  0  0  0  0  0  0  0
   38.7150   23.2590   39.2350 H   0  0  0  0  0  0  0  0  0  0  0  0
   38.5770   26.9300   35.2960 C   0  0  1  0  0  3  0  0  0  0  0  0
   37.7860   25.6480   35.4690 C   0  0  1  0  0  3  0  0  0  0  0  0
   37.5290   25.3360   34.0100 C   0  0  0  0  0  3  0  0  0  0  0  0
   36.6760   24.6290   33.9400 H   0  0  0  0  0  0  0  0  0  0  0  0
   37.2750   26.5510   33.4030 O   0  0  0  0  0  0  0  0  0  0  0  0
   37.6960   27.5710   34.2210 C   0  0  0  0  0  3  0  0  0  0  0  0
   36.7870   27.9620   34.7550 H   0  0  0  0  0  0  0  0  0  0  0  0
   38.6500   27.6840   36.4500 O   0  0  0  0  0  0  0  0  0  0  0  0
   39.5970   27.9640   36.6450 H   0  0  0  0  0  0  0  0  0  0  0  0
   40.9380   21.8530   35.6760 O   0  0  0  0  0  0  0  0  0  0  0  0
   43.2770   20.5480   35.6450 O   0  0  0  0  0  0  0  0  0  0  0  0
   42.4010   21.4420   36.4890 P   0  0  0  0  0  0  0  0  0  0  0  0
   43.1520   22.9070   36.8660 O   0  0  0  0  0  0  0  0  0  0  0  0
   42.4400   23.5230   37.1790 H   0  0  0  0  0  0  0  0  0  0  0  0
   42.0230   20.5850   37.9030 O   0  0  0  0  0  0  0  0  0  0  0  0
   41.9170   19.6200   37.7280 H   0  0  0  0  0  0  0  0  0  0  0  0
  1  6  1  0  0  0  0
  2  3  1  0  0  0  0
  2  1  2  0  0  0  0
  3  4  2  0  0  0  0
  4  5  1  0  0  0  0
  5  8  1  0  0  0  0
  6  5  2  0  0  0  0
  7  2  1  0  0  0  0
  9 10  1  0  0  0  0
  9 16  1  1  0  0  0
 10  3  1  6  0  0  0
 11 10  1  0  0  0  0
 12 11  1  0  0  0  0
 13 11  1  0  0  0  0
 13 14  1  0  0  0  0
 14 15  1  0  0  0  0
 14  9  1  0  0  0  0
 16 17  1  0  0  0  0
 18  1  1  0  0  0  0
 18 20  1  0  0  0  0
 19 20  2  0  0  0  0
 20 21  1  0  0  0  0
 20 23  1  0  0  0  0
 21 22  1  0  0  0  0
 24 23  1  0  0  0  0
M  END
>  <minimizedAffinity>
-4.61225462

$$$$

 OpenBabel03272506153D

 24 25  0  0  1  0  0  0  0  0999 V2000
   38.2280   24.3200   35.7740 C   0  0  0  0  0  0  0  0  0  0  0  0
   37.7440   25.4740   35.1570 C   0  0  0  0  0  0  0  0  0  0  0  0
   38.5650   26.1800   34.2890 C   0  0  0  0  0  0  0  0  0  0  0  0
   39.8150   25.7180   34.0720 N   0  0  0  0  0  0  0  0  0  0  0  0
   40.2760   24.5870   34.6830 C   0  0  0  0  0  0  0  0  0  0  0  0
   39.4710   23.8900   35.5370 N   0  0  0  0  0  0  0  0  0  0  0  0
   36.7480   25.7430   35.4020 H   0  0  0  0  0  0  0  0  0  0  0  0
   41.3030   24.2790   34.4530 H   0  0  0  0  0  0  0  0  0  0  0  0
   37.7780   27.2460   32.1610 C   0  0  1  0  0  3  0  0  0  0  0  0
   38.0670   27.3830   33.6430 C   0  0  1  0  0  3  0  0  0  0  0  0
   36.6900   27.8030   34.1100 C   0  0  0  0  0  3  0  0  0  0  0  0
   36.7800   28.2830   35.1060 H   0  0  0  0  0  0  0  0  0  0  0  0
   36.2060   28.6590   33.1390 O   0  0  0  0  0  0  0  0  0  0  0  0
   36.9540   28.5250   31.9940 C   0  0  0  0  0  3  0  0  0  0  0  0
   37.6920   29.3730   31.9810 H   0  0  0  0  0  0  0  0  0  0  0  0
   38.9180   27.2380   31.3830 O   0  0  0  0  0  0  0  0  0  0  0  0
   38.9110   26.4710   30.7310 H   0  0  0  0  0  0  0  0  0  0  0  0
   37.5440   23.5080   36.6580 O   0  0  0  0  0  0  0  0  0  0  0  0
   38.0690   24.6410   39.0270 O   0  0  0  0  0  0  0  0  0  0  0  0
   38.0270   23.3180   38.3020 P   0  0  0  0  0  0  0  0  0  0  0  0
   36.9220   22.2410   38.9900 O   0  0  0  0  0  0  0  0  0  0  0  0
   36.7620   21.5260   38.3220 H   0  0  0  0  0  0  0  0  0  0  0  0
   39.5950   22.6720   38.3440 O   0  0  0  0  0  0  0  0  0  0  0  0
   40.2820   23.3760   38.2840 H   0  0  0  0  0  0  0  0  0  0  0  0
  1 18  1  0  0  0  0
  2  7  1  0  0  0  0
  2  1  2  0  0  0  0
  3  2  1  0  0  0  0
  4  3  2  0  0  0  0
  4  5  1  0  0  0  0
  5  6  2  0  0  0  0
  6  1  1  0  0  0  0
  8  5  1  0  0  0  0
  9 16  1  6  0  0  0
  9 10  1  0  0  0  0
 10 11  1  0  0  0  0
 10  3  1  1  0  0  0
 11 12  1  0  0  0  0
 13 11  1  0  0  0  0
 14  9  1  0  0  0  0
 14 13  1  0  0  0  0
 15 14  1  0  0  0  0
 17 16  1  0  0  0  0
 18 20  1  0  0  0  0
 20 23  1  0  0  0  0
 20 21  1  0  0  0  0
 20 19  2  0  0  0  0
 22 21  1  0  0  0  0
 24 23  1  0  0  0  0
M  END
>  <minimizedAffinity>
-4.61013508

$$$$

 OpenBabel03272506153D

 24 25  0  0  1  0  0  0  0  0999 V2000
   39.6160   24.9240   35.1160 C   0  0  0  0  0  0  0  0  0  0  0  0
   38.4390   25.0990   34.3880 C   0  0  0  0  0  0  0  0  0  0  0  0
   38.3080   26.2020   33.5560 C   0  0  0  0  0  0  0  0  0  0  0  0
   39.3370   27.0740   33.4810 N   0  0  0  0  0  0  0  0  0  0  0  0
   40.4830   26.8900   34.2000 C   0  0  0  0  0  0  0  0  0  0  0  0
   40.6160   25.8060   35.0190 N   0  0  0  0  0  0  0  0  0  0  0  0
   37.6970   24.3530   34.5250 H   0  0  0  0  0  0  0  0  0  0  0  0
   41.2710   27.6430   34.0830 H   0  0  0  0  0  0  0  0  0  0  0  0
   37.2250   27.2460   31.5500 C   0  0  1  0  0  3  0  0  0  0  0  0
   37.0840   26.3920   32.7950 C   0  0  1  0  0  3  0  0  0  0  0  0
   36.5630   25.1250   32.1500 C   0  0  0  0  0  3  0  0  0  0  0  0
   36.0740   24.5030   32.9270 H   0  0  0  0  0  0  0  0  0  0  0  0
   35.6920   25.5370   31.1600 O   0  0  0  0  0  0  0  0  0  0  0  0
   35.8960   26.8690   30.8920 C   0  0  0  0  0  3  0  0  0  0  0  0
   35.1010   27.4410   31.4430 H   0  0  0  0  0  0  0  0  0  0  0  0
   37.3240   28.5940   31.8250 O   0  0  0  0  0  0  0  0  0  0  0  0
   38.0990   29.0120   31.3350 H   0  0  0  0  0  0  0  0  0  0  0  0
   39.9040   23.8870   35.9830 O   0  0  0  0  0  0  0  0  0  0  0  0
   37.6680   22.5110   36.5120 O   0  0  0  0  0  0  0  0  0  0  0  0
   38.7710   23.3180   37.1510 P   0  0  0  0  0  0  0  0  0  0  0  0
   39.6660   22.4170   38.2650 O   0  0  0  0  0  0  0  0  0  0  0  0
   40.5050   22.9180   38.4330 H   0  0  0  0  0  0  0  0  0  0  0  0
   38.0440   24.6510   37.9080 O   0  0  0  0  0  0  0  0  0  0  0  0
   37.2670   24.9800   37.3990 H   0  0  0  0  0  0  0  0  0  0  0  0
  1 18  1  0  0  0  0
  2  7  1  0  0  0  0
  2  1  2  0  0  0  0
  3  2  1  0  0  0  0
  4  3  2  0  0  0  0
  4  5  1  0  0  0  0
  5  6  2  0  0  0  0
  6  1  1  0  0  0  0
  8  5  1  0  0  0  0
  9 16  1  1  0  0  0
  9 10  1  0  0  0  0
 10  3  1  6  0  0  0
 11 10  1  0  0  0  0
 11 12  1  0  0  0  0
 13 11  1  0  0  0  0
 14 13  1  0  0  0  0
 14 15  1  0  0  0  0
 14  9  1  0  0  0  0
 17 16  1  0  0  0  0
 18 20  1  0  0  0  0
 19 20  2  0  0  0  0
 20 23  1  0  0  0  0
 20 21  1  0  0  0  0
 21 22  1  0  0  0  0
 24 23  1  0  0  0  0
M  END
>  <minimizedAffinity>
-4.37914276

$$$$

 OpenBabel03272506153D

 24 25  0  0  1  0  0  0  0  0999 V2000
   37.3070   25.5920   33.0430 C   0  0  0  0  0  0  0  0  0  0  0  0
   38.0520   25.3920   34.2050 C   0  0  0  0  0  0  0  0  0  0  0  0
   38.4790   24.1120   34.5330 C   0  0  0  0  0  0  0  0  0  0  0  0
   38.1520   23.0970   33.7040 N   0  0  0  0  0  0  0  0  0  0  0  0
   37.4210   23.3070   32.5700 C   0  0  0  0  0  0  0  0  0  0  0  0
   37.0000   24.5640   32.2450 N   0  0  0  0  0  0  0  0  0  0  0  0
   38.2500   26.2610   34.7810 H   0  0  0  0  0  0  0  0  0  0  0  0
   37.1980   22.4290   31.9510 H   0  0  0  0  0  0  0  0  0  0  0  0
   39.0300   22.5620   36.4240 C   0  0  1  0  0  3  0  0  0  0  0  0
   39.2560   23.8970   35.7420 C   0  0  1  0  0  3  0  0  0  0  0  0
   40.7460   23.7860   35.5000 C   0  0  0  0  0  3  0  0  0  0  0  0
   41.1570   24.8000   35.3240 H   0  0  0  0  0  0  0  0  0  0  0  0
   41.2670   23.1780   36.6260 O   0  0  0  0  0  0  0  0  0  0  0  0
   40.2530   22.5930   37.3440 C   0  0  0  0  0  3  0  0  0  0  0  0
   39.9940   23.2970   38.1830 H   0  0  0  0  0  0  0  0  0  0  0  0
   37.8380   22.5000   37.1160 O   0  0  0  0  0  0  0  0  0  0  0  0
   37.3250   21.6650   36.8870 H   0  0  0  0  0  0  0  0  0  0  0  0
   36.8100   26.7930   32.5780 O   0  0  0  0  0  0  0  0  0  0  0  0
   36.2140   28.5570   30.6520 O   0  0  0  0  0  0  0  0  0  0  0  0
   36.6000   27.1190   30.8980 P   0  0  0  0  0  0  0  0  0  0  0  0
   38.0630   26.7100   30.1590 O   0  0  0  0  0  0  0  0  0  0  0  0
   38.3700   25.8640   30.5760 H   0  0  0  0  0  0  0  0  0  0  0  0
   35.3400   26.1510   30.3030 O   0  0  0  0  0  0  0  0  0  0  0  0
   34.4600   26.5750   30.4360 H   0  0  0  0  0  0  0  0  0  0  0  0
  1  2  1  0  0  0  0
  2  3  2  0  0  0  0
  2  7  1  0  0  0  0
  4  3  1  0  0  0  0
  5  4  2  0  0  0  0
  6  5  1  0  0  0  0
  6  1  2  0  0  0  0
  8  5  1  0  0  0  0
  9 16  1  1  0  0  0
  9 14  1  0  0  0  0
 10  3  1  6  0  0  0
 10  9  1  0  0  0  0
 11 10  1  0  0  0  0
 11 13  1  0  0  0  0
 12 11  1  0  0  0  0
 13 14  1  0  0  0  0
 14 15  1  0  0  0  0
 17 16  1  0  0  0  0
 18  1  1  0  0  0  0
 19 20  2  0  0  0  0
 20 18  1  0  0  0  0
 21 22  1  0  0  0  0
 21 20  1  0  0  0  0
 23 24  1  0  0  0  0
 23 20  1  0  0  0  0
M  END
>  <minimizedAffinity>
-4.37271881

$$$$

 OpenBabel03272506153D

 24 25  0  0  1  0  0  0  0  0999 V2000
   38.8030   25.0600   35.2750 C   0  0  0  0  0  0  0  0  0  0  0  0
   39.1840   25.2330   33.9440 C   0  0  0  0  0  0  0  0  0  0  0  0
   38.5040   26.1480   33.1520 C   0  0  0  0  0  0  0  0  0  0  0  0
   37.4890   26.8450   33.7060 N   0  0  0  0  0  0  0  0  0  0  0  0
   37.1270   26.6660   35.0100 C   0  0  0  0  0  0  0  0  0  0  0  0
   37.7930   25.7670   35.7920 N   0  0  0  0  0  0  0  0  0  0  0  0
   39.9940   24.6330   33.6150 H   0  0  0  0  0  0  0  0  0  0  0  0
   36.2910   27.2700   35.3830 H   0  0  0  0  0  0  0  0  0  0  0  0
   37.9220   27.1340   30.9220 C   0  0  1  0  0  3  0  0  0  0  0  0
   38.8950   26.3330   31.7640 C   0  0  1  0  0  3  0  0  0  0  0  0
   40.1250   27.1980   31.5850 C   0  0  0  0  0  3  0  0  0  0  0  0
   41.0240   26.6000   31.8390 H   0  0  0  0  0  0  0  0  0  0  0  0
   40.1060   27.6130   30.2670 O   0  0  0  0  0  0  0  0  0  0  0  0
   38.8540   27.4090   29.7390 C   0  0  0  0  0  3  0  0  0  0  0  0
   38.8980   26.4540   29.1470 H   0  0  0  0  0  0  0  0  0  0  0  0
   36.7970   26.4200   30.5630 O   0  0  0  0  0  0  0  0  0  0  0  0
   35.9570   26.9410   30.7540 H   0  0  0  0  0  0  0  0  0  0  0  0
   39.3720   24.1970   36.1910 O   0  0  0  0  0  0  0  0  0  0  0  0
   37.2380   22.7690   36.9520 O   0  0  0  0  0  0  0  0  0  0  0  0
   38.4670   23.4770   37.4680 P   0  0  0  0  0  0  0  0  0  0  0  0
   39.5300   22.4290   38.2580 O   0  0  0  0  0  0  0  0  0  0  0  0
   40.4010   22.8990   38.3260 H   0  0  0  0  0  0  0  0  0  0  0  0
   37.9380   24.6960   38.5230 O   0  0  0  0  0  0  0  0  0  0  0  0
   37.0880   25.0950   38.2220 H   0  0  0  0  0  0  0  0  0  0  0  0
  1  6  1  0  0  0  0
  1 18  1  0  0  0  0
  2  1  2  0  0  0  0
  3  4  2  0  0  0  0
  3  2  1  0  0  0  0
  4  5  1  0  0  0  0
  5  8  1  0  0  0  0
  5  6  2  0  0  0  0
  7  2  1  0  0  0  0
  9 16  1  6  0  0  0
  9 10  1  0  0  0  0
 10  3  1  1  0  0  0
 11 10  1  0  0  0  0
 11 12  1  0  0  0  0
 13 11  1  0  0  0  0
 14 13  1  0  0  0  0
 14  9  1  0  0  0  0
 15 14  1  0  0  0  0
 16 17  1  0  0  0  0
 18 20  1  0  0  0  0
 19 20  2  0  0  0  0
 20 21  1  0  0  0  0
 20 23  1  0  0  0  0
 21 22  1  0  0  0  0
 24 23  1  0  0  0  0
M  END
>  <minimizedAffinity>
-4.36345577

$$$$

 OpenBabel03272506153D

 24 25  0  0  1  0  0  0  0  0999 V2000
   36.7260   24.5650   32.0320 C   0  0  0  0  0  0  0  0  0  0  0  0
   36.4250   23.2140   31.8550 C   0  0  0  0  0  0  0  0  0  0  0  0
   36.9310   22.2780   32.7460 C   0  0  0  0  0  0  0  0  0  0  0  0
   37.7050   22.7160   33.7630 N   0  0  0  0  0  0  0  0  0  0  0  0
   37.9920   24.0400   33.9240 C   0  0  0  0  0  0  0  0  0  0  0  0
   37.4950   24.9640   33.0500 N   0  0  0  0  0  0  0  0  0  0  0  0
   35.8090   22.9850   31.0220 H   0  0  0  0  0  0  0  0  0  0  0  0
   38.6270   24.3130   34.7760 H   0  0  0  0  0  0  0  0  0  0  0  0
   35.3670   20.3910   33.2700 C   0  0  1  0  0  3  0  0  0  0  0  0
   36.6220   20.8700   32.5670 C   0  0  1  0  0  3  0  0  0  0  0  0
   36.2470   20.5010   31.1470 C   0  0  0  0  0  3  0  0  0  0  0  0
   37.1700   20.4560   30.5330 H   0  0  0  0  0  0  0  0  0  0  0  0
   35.5940   19.2870   31.2310 O   0  0  0  0  0  0  0  0  0  0  0  0
   35.2150   19.0580   32.5320 C   0  0  0  0  0  3  0  0  0  0  0  0
   35.9780   18.3640   32.9800 H   0  0  0  0  0  0  0  0  0  0  0  0
   35.5330   20.2340   34.6310 O   0  0  0  0  0  0  0  0  0  0  0  0
   34.7920   20.6840   35.1440 H   0  0  0  0  0  0  0  0  0  0  0  0
   36.3040   25.6160   31.2410 O   0  0  0  0  0  0  0  0  0  0  0  0
   38.6640   26.5080   30.3440 O   0  0  0  0  0  0  0  0  0  0  0  0
   37.3210   26.9560   30.8650 P   0  0  0  0  0  0  0  0  0  0  0  0
   36.4700   27.8830   29.7380 O   0  0  0  0  0  0  0  0  0  0  0  0
   35.5260   27.9090   30.0400 H   0  0  0  0  0  0  0  0  0  0  0  0
   37.6030   27.8470   32.2800 O   0  0  0  0  0  0  0  0  0  0  0  0
   38.3640   27.4870   32.7930 H   0  0  0  0  0  0  0  0  0  0  0  0
  1  6  1  0  0  0  0
  2  1  2  0  0  0  0
  2  3  1  0  0  0  0
  3  4  2  0  0  0  0
  4  5  1  0  0  0  0
  5  8  1  0  0  0  0
  6  5  2  0  0  0  0
  7  2  1  0  0  0  0
  9 16  1  1  0  0  0
 10  3  1  6  0  0  0
 10  9  1  0  0  0  0
 11 13  1  0  0  0  0
 11 10  1  0  0  0  0
 12 11  1  0  0  0  0
 13 14  1  0  0  0  0
 14 15  1  0  0  0  0
 14  9  1  0  0  0  0
 16 17  1  0  0  0  0
 18  1  1  0  0  0  0
 19 20  2  0  0  0  0
 20 18  1  0  0  0  0
 20 23  1  0  0  0  0
 21 22  1  0  0  0  0
 21 20  1  0  0  0  0
 23 24  1  0  0  0  0
M  END
>  <minimizedAffinity>
-4.35231161

$$$$
