
 OpenBabel03272505253D

 31 33  0  0  1  0  0  0  0  0999 V2000
   37.4000   31.1120   47.0780 N   0  0  0  0  0  0  0  0  0  0  0  0
   36.7860   30.7900   45.9060 C   0  0  0  0  0  0  0  0  0  0  0  0
   37.2350   31.2580   44.6820 C   0  0  0  0  0  0  0  0  0  0  0  0
   38.3670   32.0890   44.6880 C   0  0  0  0  0  0  0  0  0  0  0  0
   38.8010   32.5300   43.6030 O   0  0  0  0  0  0  0  0  0  0  0  0
   38.9830   32.4140   45.8590 N   0  0  0  0  0  0  0  0  0  0  0  0
   38.4530   31.8990   46.9780 C   0  0  0  0  0  0  0  0  0  0  0  0
   39.0490   32.2230   48.0300 O   0  0  0  0  0  0  0  0  0  0  0  0
   35.9110   30.1430   45.9370 H   0  0  0  0  0  0  0  0  0  0  0  0
   37.3390   29.5760   50.4580 C   0  0  0  0  0  0  0  0  0  0  0  0
   37.7990   30.0580   49.2250 C   0  0  0  0  0  0  0  0  0  0  0  0
   36.9370   30.6290   48.3030 C   0  0  0  0  0  0  0  0  0  0  0  0
   35.6120   30.7140   48.6230 N   0  0  0  0  0  0  0  0  0  0  0  0
   35.1570   30.2450   49.8250 C   0  0  0  0  0  0  0  0  0  0  0  0
   36.0040   29.6840   50.7320 N   0  0  0  0  0  0  0  0  0  0  0  0
   37.9380   29.1260   51.2160 H   0  0  0  0  0  0  0  0  0  0  0  0
   38.8570   29.8990   49.1410 H   0  0  0  0  0  0  0  0  0  0  0  0
   34.1040   30.3700   49.9510 H   0  0  0  0  0  0  0  0  0  0  0  0
   35.8060   32.0740   42.9140 C   0  0  2  0  0  3  0  0  0  0  0  0
   36.5260   30.8710   43.4780 C   0  0  2  0  0  3  0  0  0  0  0  0
   35.4200   29.8860   43.6550 C   0  0  0  0  0  3  0  0  0  0  0  0
   35.5730   29.1320   44.4290 H   0  0  0  0  0  0  0  0  0  0  0  0
   34.2390   30.5980   43.7950 O   0  0  0  0  0  0  0  0  0  0  0  0
   34.3600   31.6840   42.9680 C   0  0  0  0  0  3  0  0  0  0  0  0
   33.9740   31.4720   41.9290 H   0  0  0  0  0  0  0  0  0  0  0  0
   36.2330   32.2950   41.5900 O   0  0  0  0  0  0  0  0  0  0  0  0
   37.1940   32.5030   41.6110 H   0  0  0  0  0  0  0  0  0  0  0  0
   40.1460   33.2700   45.8590 C   0  0  0  0  0  0  0  0  0  0  0  0
   39.9950   34.2460   44.9010 F   0  0  0  0  0  0  0  0  0  0  0  0
   41.3150   32.6080   45.5860 F   0  0  0  0  0  0  0  0  0  0  0  0
   40.2180   33.9190   47.0920 F   0  0  0  0  0  0  0  0  0  0  0  0
  1 12  1  0  0  0  0
  2  9  1  0  0  0  0
  2  1  1  0  0  0  0
  3  4  1  0  0  0  0
  3  2  2  0  0  0  0
  4  6  1  0  0  0  0
  5  4  2  0  0  0  0
  6  7  1  0  0  0  0
  7  1  1  0  0  0  0
  7  8  2  0  0  0  0
 10 15  1  0  0  0  0
 10 16  1  0  0  0  0
 11 10  2  0  0  0  0
 12 13  2  0  0  0  0
 12 11  1  0  0  0  0
 13 14  1  0  0  0  0
 14 18  1  0  0  0  0
 14 15  2  0  0  0  0
 17 11  1  0  0  0  0
 19 26  1  6  0  0  0
 19 24  1  0  0  0  0
 19 20  1  0  0  0  0
 20 21  1  0  0  0  0
 20  3  1  1  0  0  0
 21 23  1  0  0  0  0
 21 22  1  0  0  0  0
 24 23  1  0  0  0  0
 25 24  1  0  0  0  0
 26 27  1  0  0  0  0
 28  6  1  0  0  0  0
 28 31  1  0  0  0  0
 29 28  1  0  0  0  0
 30 28  1  0  0  0  0
M  END
>  <minimizedAffinity>
-6.24990463

>  <minimizedRMSD>
0.20096603

$$$$
