
 OpenBabel03272504533D

 25 27  0  0  1  0  0  0  0  0999 V2000
   36.7940   31.2940   48.8860 C   0  0  0  0  0  0  0  0  0  0  0  0
   37.2940   32.2190   49.8190 C   0  0  0  0  0  0  0  0  0  0  0  0
   38.3340   33.0200   49.3780 C   0  0  0  0  0  0  0  0  0  0  0  0
   38.8180   32.8900   48.1030 N   0  0  0  0  0  0  0  0  0  0  0  0
   38.3030   31.9800   47.2320 C   0  0  0  0  0  0  0  0  0  0  0  0
   37.2840   31.1800   47.6340 N   0  0  0  0  0  0  0  0  0  0  0  0
   36.9020   32.3010   50.8020 H   0  0  0  0  0  0  0  0  0  0  0  0
   38.7460   33.7440   50.0680 H   0  0  0  0  0  0  0  0  0  0  0  0
   35.6440   30.4260   49.3290 C   0  0  0  0  0  0  0  0  0  0  0  0
   35.3140   29.1970   48.6160 C   0  0  0  0  0  0  0  0  0  0  0  0
   36.1040   29.0900   49.8930 C   0  0  0  0  0  0  0  0  0  0  0  0
   34.9030   30.9890   49.9510 H   0  0  0  0  0  0  0  0  0  0  0  0
   35.8940   29.0060   47.6650 H   0  0  0  0  0  0  0  0  0  0  0  0
   34.2780   28.8400   48.5480 H   0  0  0  0  0  0  0  0  0  0  0  0
   37.1660   28.8250   49.8920 H   0  0  0  0  0  0  0  0  0  0  0  0
   35.4960   28.7440   50.7520 H   0  0  0  0  0  0  0  0  0  0  0  0
   39.8890   30.7760   45.7360 C   0  0  2  0  0  3  0  0  0  0  0  0
   38.8750   31.8890   45.8620 C   0  0  2  0  0  3  0  0  0  0  0  0
   39.6460   33.1170   45.4650 C   0  0  0  0  0  3  0  0  0  0  0  0
   38.9800   33.7960   44.9050 H   0  0  0  0  0  0  0  0  0  0  0  0
   40.7250   32.7020   44.7160 O   0  0  0  0  0  0  0  0  0  0  0  0
   41.1220   31.4650   45.2390 C   0  0  0  0  0  3  0  0  0  0  0  0
   41.8510   31.5800   46.0640 H   0  0  0  0  0  0  0  0  0  0  0  0
   39.5260   29.8150   44.7930 O   0  0  0  0  0  0  0  0  0  0  0  0
   38.8610   30.2540   44.1800 H   0  0  0  0  0  0  0  0  0  0  0  0
  1  9  1  0  0  0  0
  1  2  1  0  0  0  0
  2  7  1  0  0  0  0
  3  2  2  0  0  0  0
  3  8  1  0  0  0  0
  4  3  1  0  0  0  0
  5  6  1  0  0  0  0
  5  4  2  0  0  0  0
  6  1  2  0  0  0  0
  9 11  1  0  0  0  0
  9 12  1  0  0  0  0
 10  9  1  0  0  0  0
 10 11  1  0  0  0  0
 11 16  1  0  0  0  0
 13 10  1  0  0  0  0
 14 10  1  0  0  0  0
 15 11  1  0  0  0  0
 17 24  1  6  0  0  0
 17 18  1  0  0  0  0
 18  5  1  1  0  0  0
 19 18  1  0  0  0  0
 20 19  1  0  0  0  0
 21 22  1  0  0  0  0
 21 19  1  0  0  0  0
 22 17  1  0  0  0  0
 22 23  1  0  0  0  0
 25 24  1  0  0  0  0
M  END
>  <minimizedAffinity>
-5.68476391

>  <minimizedRMSD>
1.22095525

$$$$
