
 OpenBabel03272504343D

 40 43  0  0  1  0  0  0  0  0999 V2000
   36.3300   28.4260   33.2760 C   0  0  0  0  0  0  0  0  0  0  0  0
   36.1930   28.9430   31.9880 C   0  0  0  0  0  0  0  0  0  0  0  0
   35.2000   29.8700   31.7270 C   0  0  0  0  0  0  0  0  0  0  0  0
   34.3830   30.2430   32.7620 N   0  0  0  0  0  0  0  0  0  0  0  0
   34.5450   29.7220   33.9990 C   0  0  0  0  0  0  0  0  0  0  0  0
   35.5140   28.8160   34.2560 N   0  0  0  0  0  0  0  0  0  0  0  0
   36.8670   28.6080   31.2200 H   0  0  0  0  0  0  0  0  0  0  0  0
   35.0810   30.2760   30.7480 H   0  0  0  0  0  0  0  0  0  0  0  0
   37.3400   27.4630   33.6030 N   0  0  0  0  0  0  0  0  0  0  0  0
   37.6350   27.1030   34.9800 C   0  0  0  0  0  0  0  0  0  0  0  0
   39.0890   27.0040   35.3010 C   0  0  0  0  0  0  0  0  0  0  0  0
   39.9840   26.6820   34.2600 N   0  0  0  0  0  0  0  0  0  0  0  0
   39.5920   27.2200   32.9660 C   0  0  0  0  0  0  0  0  0  0  0  0
   38.1730   26.7460   32.7180 C   0  0  0  0  0  0  0  0  0  0  0  0
   37.1520   27.8600   35.6510 H   0  0  0  0  0  0  0  0  0  0  0  0
   37.0950   26.1600   35.1990 H   0  0  0  0  0  0  0  0  0  0  0  0
   39.3980   27.9630   35.8050 H   0  0  0  0  0  0  0  0  0  0  0  0
   39.1890   26.2220   36.1110 H   0  0  0  0  0  0  0  0  0  0  0  0
   40.9240   27.1300   34.4840 H   0  0  0  0  0  0  0  0  0  0  0  0
   40.2190   26.6870   32.2000 H   0  0  0  0  0  0  0  0  0  0  0  0
   39.7180   28.2960   32.8640 H   0  0  0  0  0  0  0  0  0  0  0  0
   37.8790   26.8930   31.6470 H   0  0  0  0  0  0  0  0  0  0  0  0
   38.1460   25.6680   32.9270 H   0  0  0  0  0  0  0  0  0  0  0  0
   33.6570   30.1450   35.0720 C   0  0  0  0  0  0  0  0  0  0  0  0
   33.9770   31.2270   35.8660 C   0  0  0  0  0  0  0  0  0  0  0  0
   33.1730   31.6760   36.9030 C   0  0  0  0  0  0  0  0  0  0  0  0
   32.0250   30.9700   37.0940 N   0  0  0  0  0  0  0  0  0  0  0  0
   31.7260   29.9240   36.3210 C   0  0  0  0  0  0  0  0  0  0  0  0
   32.5150   29.4810   35.3020 N   0  0  0  0  0  0  0  0  0  0  0  0
   34.9030   31.7220   35.6390 H   0  0  0  0  0  0  0  0  0  0  0  0
   33.5230   32.5340   37.4590 H   0  0  0  0  0  0  0  0  0  0  0  0
   30.7350   28.1630   37.6900 C   0  0  1  0  0  3  0  0  0  0  0  0
   30.4360   29.2730   36.6740 C   0  0  2  0  0  3  0  0  0  0  0  0
   29.8990   28.4410   35.5360 C   0  0  0  0  0  3  0  0  0  0  0  0
   30.0310   29.0050   34.5880 H   0  0  0  0  0  0  0  0  0  0  0  0
   30.6180   27.2590   35.5460 O   0  0  0  0  0  0  0  0  0  0  0  0
   31.1250   27.0340   36.8010 C   0  0  0  0  0  3  0  0  0  0  0  0
   32.2380   26.9290   36.7520 H   0  0  0  0  0  0  0  0  0  0  0  0
   31.7360   28.5610   38.5640 O   0  0  0  0  0  0  0  0  0  0  0  0
   31.3520   29.2120   39.1980 H   0  0  0  0  0  0  0  0  0  0  0  0
  1  9  1  0  0  0  0
  1  6  1  0  0  0  0
  2  1  2  0  0  0  0
  3  2  1  0  0  0  0
  3  4  2  0  0  0  0
  4  5  1  0  0  0  0
  5  6  2  0  0  0  0
  5 24  1  0  0  0  0
  7  2  1  0  0  0  0
  8  3  1  0  0  0  0
  9 10  1  0  0  0  0
 10 16  1  0  0  0  0
 10 11  1  0  0  0  0
 10 15  1  0  0  0  0
 11 17  1  0  0  0  0
 11 18  1  0  0  0  0
 12 19  1  0  0  0  0
 12 11  1  0  0  0  0
 13 12  1  0  0  0  0
 14 23  1  0  0  0  0
 14 13  1  0  0  0  0
 14  9  1  0  0  0  0
 20 13  1  0  0  0  0
 21 13  1  0  0  0  0
 22 14  1  0  0  0  0
 24 29  2  0  0  0  0
 24 25  1  0  0  0  0
 25 26  2  0  0  0  0
 26 27  1  0  0  0  0
 26 31  1  0  0  0  0
 28 27  2  0  0  0  0
 29 28  1  0  0  0  0
 30 25  1  0  0  0  0
 32 39  1  1  0  0  0
 33 28  1  6  0  0  0
 33 32  1  0  0  0  0
 34 36  1  0  0  0  0
 34 33  1  0  0  0  0
 35 34  1  0  0  0  0
 36 37  1  0  0  0  0
 37 32  1  0  0  0  0
 38 37  1  0  0  0  0
 39 40  1  0  0  0  0
M  END
>  <minimizedAffinity>
-5.88799143

$$$$

 OpenBabel03272504343D

 40 43  0  0  1  0  0  0  0  0999 V2000
   36.7100   28.0420   33.5520 C   0  0  0  0  0  0  0  0  0  0  0  0
   36.5760   28.3430   32.1970 C   0  0  0  0  0  0  0  0  0  0  0  0
   35.5570   29.1810   31.7810 C   0  0  0  0  0  0  0  0  0  0  0  0
   34.7110   29.6840   32.7360 N   0  0  0  0  0  0  0  0  0  0  0  0
   34.8700   29.3710   34.0410 C   0  0  0  0  0  0  0  0  0  0  0  0
   35.8650   28.5530   34.4490 N   0  0  0  0  0  0  0  0  0  0  0  0
   37.2730   27.9150   31.4990 H   0  0  0  0  0  0  0  0  0  0  0  0
   35.4400   29.4220   30.7490 H   0  0  0  0  0  0  0  0  0  0  0  0
   37.7460   27.1810   34.0390 N   0  0  0  0  0  0  0  0  0  0  0  0
   38.1060   25.9530   33.3490 C   0  0  0  0  0  0  0  0  0  0  0  0
   38.3190   24.7750   34.2410 C   0  0  0  0  0  0  0  0  0  0  0  0
   38.7310   25.0080   35.5700 N   0  0  0  0  0  0  0  0  0  0  0  0
   38.1850   26.2280   36.1450 C   0  0  0  0  0  0  0  0  0  0  0  0
   38.5450   27.3500   35.1900 C   0  0  0  0  0  0  0  0  0  0  0  0
   37.3000   25.7200   32.6050 H   0  0  0  0  0  0  0  0  0  0  0  0
   38.9970   26.1700   32.7270 H   0  0  0  0  0  0  0  0  0  0  0  0
   37.3800   24.1530   34.2230 H   0  0  0  0  0  0  0  0  0  0  0  0
   39.0920   24.1230   33.7370 H   0  0  0  0  0  0  0  0  0  0  0  0
   38.3590   24.2140   36.1730 H   0  0  0  0  0  0  0  0  0  0  0  0
   38.7810   26.4310   37.0770 H   0  0  0  0  0  0  0  0  0  0  0  0
   37.1250   26.1810   36.3870 H   0  0  0  0  0  0  0  0  0  0  0  0
   38.3930   28.3520   35.6680 H   0  0  0  0  0  0  0  0  0  0  0  0
   39.6140   27.2510   34.9550 H   0  0  0  0  0  0  0  0  0  0  0  0
   33.9510   29.9270   35.0240 C   0  0  0  0  0  0  0  0  0  0  0  0
   34.2920   31.0470   35.7520 C   0  0  0  0  0  0  0  0  0  0  0  0
   33.4600   31.6220   36.7020 C   0  0  0  0  0  0  0  0  0  0  0  0
   32.2620   30.9980   36.8760 N   0  0  0  0  0  0  0  0  0  0  0  0
   31.9440   29.9140   36.1680 C   0  0  0  0  0  0  0  0  0  0  0  0
   32.7590   29.3490   35.2340 N   0  0  0  0  0  0  0  0  0  0  0  0
   35.2580   31.4700   35.5440 H   0  0  0  0  0  0  0  0  0  0  0  0
   33.8300   32.5000   37.2120 H   0  0  0  0  0  0  0  0  0  0  0  0
   30.7800   28.2770   37.5540 C   0  0  1  0  0  3  0  0  0  0  0  0
   30.5990   29.3660   36.4890 C   0  0  2  0  0  3  0  0  0  0  0  0
   30.0490   28.5310   35.3610 C   0  0  0  0  0  3  0  0  0  0  0  0
   30.2560   29.0490   34.4000 H   0  0  0  0  0  0  0  0  0  0  0  0
   30.6820   27.3040   35.4400 O   0  0  0  0  0  0  0  0  0  0  0  0
   31.1240   27.0910   36.7220 C   0  0  0  0  0  3  0  0  0  0  0  0
   32.2280   26.9080   36.7210 H   0  0  0  0  0  0  0  0  0  0  0  0
   31.7720   28.6370   38.4540 O   0  0  0  0  0  0  0  0  0  0  0  0
   31.4110   29.3360   39.0500 H   0  0  0  0  0  0  0  0  0  0  0  0
  1  9  1  0  0  0  0
  1  6  1  0  0  0  0
  2  1  2  0  0  0  0
  3  2  1  0  0  0  0
  3  4  2  0  0  0  0
  4  5  1  0  0  0  0
  5  6  2  0  0  0  0
  5 24  1  0  0  0  0
  7  2  1  0  0  0  0
  8  3  1  0  0  0  0
  9 14  1  0  0  0  0
 10  9  1  0  0  0  0
 10 11  1  0  0  0  0
 11 12  1  0  0  0  0
 12 13  1  0  0  0  0
 12 19  1  0  0  0  0
 13 21  1  0  0  0  0
 13 20  1  0  0  0  0
 14 22  1  0  0  0  0
 14 13  1  0  0  0  0
 15 10  1  0  0  0  0
 16 10  1  0  0  0  0
 17 11  1  0  0  0  0
 18 11  1  0  0  0  0
 23 14  1  0  0  0  0
 24 29  2  0  0  0  0
 24 25  1  0  0  0  0
 25 26  2  0  0  0  0
 26 27  1  0  0  0  0
 26 31  1  0  0  0  0
 28 27  2  0  0  0  0
 29 28  1  0  0  0  0
 30 25  1  0  0  0  0
 32 39  1  1  0  0  0
 33 28  1  6  0  0  0
 33 32  1  0  0  0  0
 34 36  1  0  0  0  0
 34 33  1  0  0  0  0
 35 34  1  0  0  0  0
 36 37  1  0  0  0  0
 37 32  1  0  0  0  0
 38 37  1  0  0  0  0
 39 40  1  0  0  0  0
M  END
>  <minimizedAffinity>
-5.75827551

$$$$

 OpenBabel03272504343D

 40 43  0  0  1  0  0  0  0  0999 V2000
   38.2380   23.9740   34.5980 C   0  0  0  0  0  0  0  0  0  0  0  0
   37.8570   22.7910   33.9640 C   0  0  0  0  0  0  0  0  0  0  0  0
   37.3610   22.8370   32.6740 C   0  0  0  0  0  0  0  0  0  0  0  0
   37.2640   24.0620   32.0680 N   0  0  0  0  0  0  0  0  0  0  0  0
   37.6410   25.1890   32.7110 C   0  0  0  0  0  0  0  0  0  0  0  0
   38.1270   25.1460   33.9720 N   0  0  0  0  0  0  0  0  0  0  0  0
   37.9600   21.8620   34.4960 H   0  0  0  0  0  0  0  0  0  0  0  0
   37.0660   21.9420   32.1740 H   0  0  0  0  0  0  0  0  0  0  0  0
   38.7580   23.9860   35.9330 N   0  0  0  0  0  0  0  0  0  0  0  0
   40.0520   23.4060   36.2540 C   0  0  0  0  0  0  0  0  0  0  0  0
   40.0750   22.5870   37.5020 C   0  0  0  0  0  0  0  0  0  0  0  0
   39.1430   22.8870   38.5170 N   0  0  0  0  0  0  0  0  0  0  0  0
   37.8580   23.3490   38.0120 C   0  0  0  0  0  0  0  0  0  0  0  0
   38.1560   24.5190   37.0930 C   0  0  0  0  0  0  0  0  0  0  0  0
   40.3780   22.7760   35.3860 H   0  0  0  0  0  0  0  0  0  0  0  0
   40.7880   24.2330   36.2850 H   0  0  0  0  0  0  0  0  0  0  0  0
   40.0020   21.5030   37.2070 H   0  0  0  0  0  0  0  0  0  0  0  0
   41.1150   22.6860   37.9340 H   0  0  0  0  0  0  0  0  0  0  0  0
   38.9350   21.9890   39.0490 H   0  0  0  0  0  0  0  0  0  0  0  0
   37.3160   23.7950   38.8900 H   0  0  0  0  0  0  0  0  0  0  0  0
   37.2460   22.5760   37.5520 H   0  0  0  0  0  0  0  0  0  0  0  0
   37.2250   25.0970   36.8600 H   0  0  0  0  0  0  0  0  0  0  0  0
   38.8410   25.1910   37.6280 H   0  0  0  0  0  0  0  0  0  0  0  0
   37.5230   26.4720   32.0330 C   0  0  0  0  0  0  0  0  0  0  0  0
   36.3950   27.2500   32.1890 C   0  0  0  0  0  0  0  0  0  0  0  0
   36.2260   28.4790   31.5690 C   0  0  0  0  0  0  0  0  0  0  0  0
   37.2610   28.8790   30.7790 N   0  0  0  0  0  0  0  0  0  0  0  0
   38.3460   28.1160   30.6350 C   0  0  0  0  0  0  0  0  0  0  0  0
   38.5150   26.9090   31.2440 N   0  0  0  0  0  0  0  0  0  0  0  0
   35.6320   26.8520   32.8320 H   0  0  0  0  0  0  0  0  0  0  0  0
   35.3000   29.0030   31.7640 H   0  0  0  0  0  0  0  0  0  0  0  0
   39.0580   28.2600   28.3050 C   0  0  1  0  0  3  0  0  0  0  0  0
   39.3730   28.7090   29.7370 C   0  0  2  0  0  3  0  0  0  0  0  0
   40.7200   28.0560   29.9190 C   0  0  0  0  0  3  0  0  0  0  0  0
   40.9040   27.9130   31.0060 H   0  0  0  0  0  0  0  0  0  0  0  0
   40.6660   26.8550   29.2350 O   0  0  0  0  0  0  0  0  0  0  0  0
   39.7080   26.9210   28.2550 C   0  0  0  0  0  3  0  0  0  0  0  0
   38.9560   26.1050   28.3980 H   0  0  0  0  0  0  0  0  0  0  0  0
   37.6870   28.2260   28.0970 O   0  0  0  0  0  0  0  0  0  0  0  0
   37.3640   29.1540   28.0110 H   0  0  0  0  0  0  0  0  0  0  0  0
  1  9  1  0  0  0  0
  2  7  1  0  0  0  0
  2  1  2  0  0  0  0
  3  2  1  0  0  0  0
  4  3  2  0  0  0  0
  4  5  1  0  0  0  0
  5  6  2  0  0  0  0
  6  1  1  0  0  0  0
  8  3  1  0  0  0  0
  9 10  1  0  0  0  0
  9 14  1  0  0  0  0
 10 16  1  0  0  0  0
 10 11  1  0  0  0  0
 11 18  1  0  0  0  0
 11 12  1  0  0  0  0
 12 19  1  0  0  0  0
 13 12  1  0  0  0  0
 13 20  1  0  0  0  0
 14 23  1  0  0  0  0
 14 13  1  0  0  0  0
 15 10  1  0  0  0  0
 17 11  1  0  0  0  0
 21 13  1  0  0  0  0
 22 14  1  0  0  0  0
 24 25  1  0  0  0  0
 24  5  1  0  0  0  0
 25 30  1  0  0  0  0
 26 31  1  0  0  0  0
 26 25  2  0  0  0  0
 27 26  1  0  0  0  0
 28 27  2  0  0  0  0
 28 29  1  0  0  0  0
 29 24  2  0  0  0  0
 32 39  1  1  0  0  0
 32 33  1  0  0  0  0
 33 34  1  0  0  0  0
 33 28  1  1  0  0  0
 34 35  1  0  0  0  0
 36 34  1  0  0  0  0
 37 32  1  0  0  0  0
 37 38  1  0  0  0  0
 37 36  1  0  0  0  0
 40 39  1  0  0  0  0
M  END
>  <minimizedAffinity>
-5.65678978

$$$$

 OpenBabel03272504343D

 40 43  0  0  1  0  0  0  0  0999 V2000
   36.3430   23.0200   31.8720 C   0  0  0  0  0  0  0  0  0  0  0  0
   35.5080   23.7040   30.9890 C   0  0  0  0  0  0  0  0  0  0  0  0
   35.4750   25.0870   31.0130 C   0  0  0  0  0  0  0  0  0  0  0  0
   36.2790   25.7310   31.9170 N   0  0  0  0  0  0  0  0  0  0  0  0
   37.0770   25.0370   32.7580 C   0  0  0  0  0  0  0  0  0  0  0  0
   37.1090   23.6860   32.7360 N   0  0  0  0  0  0  0  0  0  0  0  0
   34.9020   23.1380   30.3040 H   0  0  0  0  0  0  0  0  0  0  0  0
   34.8420   25.6260   30.3450 H   0  0  0  0  0  0  0  0  0  0  0  0
   36.4170   21.5890   31.8910 N   0  0  0  0  0  0  0  0  0  0  0  0
   37.1580   20.8480   30.8840 C   0  0  0  0  0  0  0  0  0  0  0  0
   36.4580   19.6390   30.3590 C   0  0  0  0  0  0  0  0  0  0  0  0
   35.5230   18.9910   31.1930 N   0  0  0  0  0  0  0  0  0  0  0  0
   34.7870   19.9000   32.0600 C   0  0  0  0  0  0  0  0  0  0  0  0
   35.8270   20.7040   32.8180 C   0  0  0  0  0  0  0  0  0  0  0  0
   37.3900   21.5450   30.0370 H   0  0  0  0  0  0  0  0  0  0  0  0
   38.1490   20.6020   31.3150 H   0  0  0  0  0  0  0  0  0  0  0  0
   35.9850   19.9120   29.3740 H   0  0  0  0  0  0  0  0  0  0  0  0
   37.2620   18.8950   30.0820 H   0  0  0  0  0  0  0  0  0  0  0  0
   34.7910   18.5320   30.5720 H   0  0  0  0  0  0  0  0  0  0  0  0
   34.2870   19.2590   32.8360 H   0  0  0  0  0  0  0  0  0  0  0  0
   34.0460   20.5130   31.5510 H   0  0  0  0  0  0  0  0  0  0  0  0
   35.3670   21.2430   33.6860 H   0  0  0  0  0  0  0  0  0  0  0  0
   36.5630   19.9930   33.2190 H   0  0  0  0  0  0  0  0  0  0  0  0
   37.9160   25.7580   33.7040 C   0  0  0  0  0  0  0  0  0  0  0  0
   37.3860   26.7510   34.5010 C   0  0  0  0  0  0  0  0  0  0  0  0
   38.1350   27.4730   35.4190 C   0  0  0  0  0  0  0  0  0  0  0  0
   39.4520   27.1350   35.4870 N   0  0  0  0  0  0  0  0  0  0  0  0
   39.9540   26.1730   34.7100 C   0  0  0  0  0  0  0  0  0  0  0  0
   39.2200   25.4630   33.8080 N   0  0  0  0  0  0  0  0  0  0  0  0
   36.3360   26.9470   34.3770 H   0  0  0  0  0  0  0  0  0  0  0  0
   37.6150   28.2280   35.9910 H   0  0  0  0  0  0  0  0  0  0  0  0
   42.1640   26.6770   33.8060 C   0  0  1  0  0  3  0  0  0  0  0  0
   41.4080   25.9390   34.9180 C   0  0  2  0  0  3  0  0  0  0  0  0
   41.7990   24.5190   34.5940 C   0  0  0  0  0  3  0  0  0  0  0  0
   41.0290   23.8330   35.0090 H   0  0  0  0  0  0  0  0  0  0  0  0
   41.8770   24.4420   33.2140 O   0  0  0  0  0  0  0  0  0  0  0  0
   42.1080   25.6900   32.6920 C   0  0  0  0  0  3  0  0  0  0  0  0
   41.3030   25.9550   31.9620 H   0  0  0  0  0  0  0  0  0  0  0  0
   41.5460   27.8840   33.5160 O   0  0  0  0  0  0  0  0  0  0  0  0
   41.7460   28.5170   34.2460 H   0  0  0  0  0  0  0  0  0  0  0  0
  1  9  1  0  0  0  0
  1  6  1  0  0  0  0
  2  3  1  0  0  0  0
  2  1  2  0  0  0  0
  3  4  2  0  0  0  0
  4  5  1  0  0  0  0
  5 24  1  0  0  0  0
  6  5  2  0  0  0  0
  7  2  1  0  0  0  0
  8  3  1  0  0  0  0
  9 14  1  0  0  0  0
 10 16  1  0  0  0  0
 10  9  1  0  0  0  0
 11 10  1  0  0  0  0
 11 12  1  0  0  0  0
 12 13  1  0  0  0  0
 13 14  1  0  0  0  0
 13 20  1  0  0  0  0
 14 23  1  0  0  0  0
 14 22  1  0  0  0  0
 15 10  1  0  0  0  0
 17 11  1  0  0  0  0
 18 11  1  0  0  0  0
 19 12  1  0  0  0  0
 21 13  1  0  0  0  0
 24 29  2  0  0  0  0
 24 25  1  0  0  0  0
 25 26  2  0  0  0  0
 26 27  1  0  0  0  0
 26 31  1  0  0  0  0
 28 27  2  0  0  0  0
 29 28  1  0  0  0  0
 30 25  1  0  0  0  0
 32 39  1  6  0  0  0
 32 33  1  0  0  0  0
 33 28  1  6  0  0  0
 34 33  1  0  0  0  0
 34 35  1  0  0  0  0
 36 34  1  0  0  0  0
 37 36  1  0  0  0  0
 37 32  1  0  0  0  0
 38 37  1  0  0  0  0
 39 40  1  0  0  0  0
M  END
>  <minimizedAffinity>
-5.5446353

$$$$

 OpenBabel03272504343D

 40 43  0  0  1  0  0  0  0  0999 V2000
   35.7000   29.0760   33.9690 C   0  0  0  0  0  0  0  0  0  0  0  0
   35.2060   28.8910   32.6770 C   0  0  0  0  0  0  0  0  0  0  0  0
   35.7100   27.8670   31.8950 C   0  0  0  0  0  0  0  0  0  0  0  0
   36.6870   27.0700   32.4330 N   0  0  0  0  0  0  0  0  0  0  0  0
   37.1420   27.2790   33.6880 C   0  0  0  0  0  0  0  0  0  0  0  0
   36.6510   28.2780   34.4540 N   0  0  0  0  0  0  0  0  0  0  0  0
   34.4390   29.5520   32.3150 H   0  0  0  0  0  0  0  0  0  0  0  0
   35.3450   27.7110   30.9050 H   0  0  0  0  0  0  0  0  0  0  0  0
   35.2150   30.1190   34.8230 N   0  0  0  0  0  0  0  0  0  0  0  0
   33.8000   30.4390   34.9120 C   0  0  0  0  0  0  0  0  0  0  0  0
   33.4880   31.8990   34.9060 C   0  0  0  0  0  0  0  0  0  0  0  0
   34.4650   32.7940   35.3890 N   0  0  0  0  0  0  0  0  0  0  0  0
   35.8310   32.3720   35.1140 C   0  0  0  0  0  0  0  0  0  0  0  0
   35.9640   30.9660   35.6680 C   0  0  0  0  0  0  0  0  0  0  0  0
   33.2740   29.9380   34.0570 H   0  0  0  0  0  0  0  0  0  0  0  0
   33.4010   29.9320   35.8130 H   0  0  0  0  0  0  0  0  0  0  0  0
   33.1760   32.1820   33.8610 H   0  0  0  0  0  0  0  0  0  0  0  0
   32.5490   32.0310   35.5200 H   0  0  0  0  0  0  0  0  0  0  0  0
   34.3420   33.7200   34.8800 H   0  0  0  0  0  0  0  0  0  0  0  0
   36.4930   33.0090   35.7620 H   0  0  0  0  0  0  0  0  0  0  0  0
   36.1320   32.4630   34.0720 H   0  0  0  0  0  0  0  0  0  0  0  0
   37.0390   30.6580   35.7310 H   0  0  0  0  0  0  0  0  0  0  0  0
   35.5580   30.9760   36.6890 H   0  0  0  0  0  0  0  0  0  0  0  0
   38.1800   26.4100   34.2240 C   0  0  0  0  0  0  0  0  0  0  0  0
   39.4810   26.8530   34.3370 C   0  0  0  0  0  0  0  0  0  0  0  0
   40.5120   26.0720   34.8390 C   0  0  0  0  0  0  0  0  0  0  0  0
   40.1540   24.8140   35.2200 N   0  0  0  0  0  0  0  0  0  0  0  0
   38.8920   24.3960   35.1050 C   0  0  0  0  0  0  0  0  0  0  0  0
   37.8780   25.1620   34.6130 N   0  0  0  0  0  0  0  0  0  0  0  0
   39.6670   27.8600   34.0120 H   0  0  0  0  0  0  0  0  0  0  0  0
   41.4930   26.5230   34.8820 H   0  0  0  0  0  0  0  0  0  0  0  0
   38.0800   23.0580   36.9770 C   0  0  1  0  0  3  0  0  0  0  0  0
   38.6850   22.9980   35.5690 C   0  0  2  0  0  3  0  0  0  0  0  0
   39.9910   22.3120   35.8800 C   0  0  0  0  0  3  0  0  0  0  0  0
   40.7240   22.5620   35.0840 H   0  0  0  0  0  0  0  0  0  0  0  0
   40.3870   22.7760   37.1220 O   0  0  0  0  0  0  0  0  0  0  0  0
   39.2950   23.2170   37.8230 C   0  0  0  0  0  3  0  0  0  0  0  0
   39.4380   24.2860   38.1230 H   0  0  0  0  0  0  0  0  0  0  0  0
   37.1850   24.1130   37.0770 O   0  0  0  0  0  0  0  0  0  0  0  0
   36.3590   23.8650   36.5970 H   0  0  0  0  0  0  0  0  0  0  0  0
  1  6  1  0  0  0  0
  1  9  1  0  0  0  0
  2  1  2  0  0  0  0
  3  4  2  0  0  0  0
  3  2  1  0  0  0  0
  4  5  1  0  0  0  0
  5 24  1  0  0  0  0
  5  6  2  0  0  0  0
  7  2  1  0  0  0  0
  8  3  1  0  0  0  0
  9 10  1  0  0  0  0
  9 14  1  0  0  0  0
 10 16  1  0  0  0  0
 11 10  1  0  0  0  0
 11 12  1  0  0  0  0
 11 18  1  0  0  0  0
 13 12  1  0  0  0  0
 13 14  1  0  0  0  0
 13 20  1  0  0  0  0
 14 22  1  0  0  0  0
 14 23  1  0  0  0  0
 15 10  1  0  0  0  0
 17 11  1  0  0  0  0
 19 12  1  0  0  0  0
 21 13  1  0  0  0  0
 24 25  2  0  0  0  0
 24 29  1  0  0  0  0
 25 26  1  0  0  0  0
 26 31  1  0  0  0  0
 26 27  2  0  0  0  0
 28 27  1  0  0  0  0
 29 28  2  0  0  0  0
 30 25  1  0  0  0  0
 32 39  1  6  0  0  0
 32 37  1  0  0  0  0
 33 28  1  1  0  0  0
 33 34  1  0  0  0  0
 33 32  1  0  0  0  0
 34 36  1  0  0  0  0
 35 34  1  0  0  0  0
 36 37  1  0  0  0  0
 37 38  1  0  0  0  0
 40 39  1  0  0  0  0
M  END
>  <minimizedAffinity>
-5.54413605

$$$$

 OpenBabel03272504343D

 40 43  0  0  1  0  0  0  0  0999 V2000
   38.1300   24.7750   34.7920 C   0  0  0  0  0  0  0  0  0  0  0  0
   38.0910   23.8940   33.7120 C   0  0  0  0  0  0  0  0  0  0  0  0
   37.5240   24.3020   32.5180 C   0  0  0  0  0  0  0  0  0  0  0  0
   37.0180   25.5740   32.4510 N   0  0  0  0  0  0  0  0  0  0  0  0
   37.0730   26.4020   33.5170 C   0  0  0  0  0  0  0  0  0  0  0  0
   37.6270   26.0050   34.6840 N   0  0  0  0  0  0  0  0  0  0  0  0
   38.5060   22.9090   33.8310 H   0  0  0  0  0  0  0  0  0  0  0  0
   37.4850   23.6410   31.6820 H   0  0  0  0  0  0  0  0  0  0  0  0
   38.7050   24.4060   36.0510 N   0  0  0  0  0  0  0  0  0  0  0  0
   39.9490   23.6590   36.1340 C   0  0  0  0  0  0  0  0  0  0  0  0
   39.9470   22.5520   37.1360 C   0  0  0  0  0  0  0  0  0  0  0  0
   39.0920   22.6610   38.2520 N   0  0  0  0  0  0  0  0  0  0  0  0
   37.8370   23.3400   37.9620 C   0  0  0  0  0  0  0  0  0  0  0  0
   38.2070   24.6760   37.3440 C   0  0  0  0  0  0  0  0  0  0  0  0
   40.1770   23.2460   35.1170 H   0  0  0  0  0  0  0  0  0  0  0  0
   40.7620   24.3880   36.3210 H   0  0  0  0  0  0  0  0  0  0  0  0
   39.7580   21.5880   36.5860 H   0  0  0  0  0  0  0  0  0  0  0  0
   41.0090   22.4530   37.5100 H   0  0  0  0  0  0  0  0  0  0  0  0
   38.8210   21.6770   38.5560 H   0  0  0  0  0  0  0  0  0  0  0  0
   37.3780   23.5920   38.9570 H   0  0  0  0  0  0  0  0  0  0  0  0
   37.1350   22.7610   37.3650 H   0  0  0  0  0  0  0  0  0  0  0  0
   37.3260   25.3680   37.3230 H   0  0  0  0  0  0  0  0  0  0  0  0
   38.9750   25.1310   37.9840 H   0  0  0  0  0  0  0  0  0  0  0  0
   36.5250   27.7460   33.4050 C   0  0  0  0  0  0  0  0  0  0  0  0
   36.2680   28.4990   34.5320 C   0  0  0  0  0  0  0  0  0  0  0  0
   35.7470   29.7840   34.4890 C   0  0  0  0  0  0  0  0  0  0  0  0
   35.4990   30.2670   33.2400 N   0  0  0  0  0  0  0  0  0  0  0  0
   35.7500   29.5300   32.1570 C   0  0  0  0  0  0  0  0  0  0  0  0
   36.2630   28.2680   32.1980 N   0  0  0  0  0  0  0  0  0  0  0  0
   36.4980   28.0330   35.4730 H   0  0  0  0  0  0  0  0  0  0  0  0
   35.5870   30.2800   35.4360 H   0  0  0  0  0  0  0  0  0  0  0  0
   36.7390   30.5680   30.1820 C   0  0  1  0  0  3  0  0  0  0  0  0
   35.4190   30.2160   30.8800 C   0  0  2  0  0  3  0  0  0  0  0  0
   34.8760   31.6040   31.1150 C   0  0  0  0  0  3  0  0  0  0  0  0
   34.1610   31.5680   31.9650 H   0  0  0  0  0  0  0  0  0  0  0  0
   35.9690   32.4080   31.3850 O   0  0  0  0  0  0  0  0  0  0  0  0
   37.1000   31.8530   30.8430 C   0  0  0  0  0  3  0  0  0  0  0  0
   37.8680   31.6910   31.6410 H   0  0  0  0  0  0  0  0  0  0  0  0
   37.6720   29.5590   30.3700 O   0  0  0  0  0  0  0  0  0  0  0  0
   37.4240   28.7980   29.7930 H   0  0  0  0  0  0  0  0  0  0  0  0
  1  9  1  0  0  0  0
  2  7  1  0  0  0  0
  2  1  2  0  0  0  0
  3  2  1  0  0  0  0
  4  3  2  0  0  0  0
  4  5  1  0  0  0  0
  5  6  2  0  0  0  0
  6  1  1  0  0  0  0
  8  3  1  0  0  0  0
  9 10  1  0  0  0  0
  9 14  1  0  0  0  0
 10 16  1  0  0  0  0
 10 11  1  0  0  0  0
 11 18  1  0  0  0  0
 11 12  1  0  0  0  0
 12 19  1  0  0  0  0
 13 12  1  0  0  0  0
 13 20  1  0  0  0  0
 14 13  1  0  0  0  0
 14 23  1  0  0  0  0
 15 10  1  0  0  0  0
 17 11  1  0  0  0  0
 21 13  1  0  0  0  0
 22 14  1  0  0  0  0
 24  5  1  0  0  0  0
 24 25  1  0  0  0  0
 25 30  1  0  0  0  0
 26 25  2  0  0  0  0
 26 31  1  0  0  0  0
 27 26  1  0  0  0  0
 28 29  1  0  0  0  0
 28 27  2  0  0  0  0
 29 24  2  0  0  0  0
 32 39  1  1  0  0  0
 32 37  1  0  0  0  0
 32 33  1  0  0  0  0
 33 34  1  0  0  0  0
 33 28  1  1  0  0  0
 34 36  1  0  0  0  0
 34 35  1  0  0  0  0
 37 36  1  0  0  0  0
 37 38  1  0  0  0  0
 40 39  1  0  0  0  0
M  END
>  <minimizedAffinity>
-5.48508263

$$$$

 OpenBabel03272504343D

 40 43  0  0  1  0  0  0  0  0999 V2000
   38.7310   22.5550   34.4270 C   0  0  0  0  0  0  0  0  0  0  0  0
   39.4800   21.7890   33.5350 C   0  0  0  0  0  0  0  0  0  0  0  0
   39.4140   22.0610   32.1800 C   0  0  0  0  0  0  0  0  0  0  0  0
   38.6030   23.0860   31.7710 N   0  0  0  0  0  0  0  0  0  0  0  0
   37.8900   23.8090   32.6630 C   0  0  0  0  0  0  0  0  0  0  0  0
   37.9530   23.5450   33.9870 N   0  0  0  0  0  0  0  0  0  0  0  0
   40.0980   20.9980   33.9220 H   0  0  0  0  0  0  0  0  0  0  0  0
   39.9800   21.4850   31.4830 H   0  0  0  0  0  0  0  0  0  0  0  0
   38.7600   22.3180   35.8400 N   0  0  0  0  0  0  0  0  0  0  0  0
   37.6250   22.6340   36.6920 C   0  0  0  0  0  0  0  0  0  0  0  0
   37.9790   23.3040   37.9780 C   0  0  0  0  0  0  0  0  0  0  0  0
   39.2550   23.0640   38.5300 N   0  0  0  0  0  0  0  0  0  0  0  0
   40.2980   22.8810   37.5310 C   0  0  0  0  0  0  0  0  0  0  0  0
   39.8160   21.7790   36.6070 C   0  0  0  0  0  0  0  0  0  0  0  0
   36.9220   23.2850   36.1100 H   0  0  0  0  0  0  0  0  0  0  0  0
   37.0600   21.6950   36.8530 H   0  0  0  0  0  0  0  0  0  0  0  0
   37.8050   24.4100   37.8520 H   0  0  0  0  0  0  0  0  0  0  0  0
   37.2000   22.9870   38.7330 H   0  0  0  0  0  0  0  0  0  0  0  0
   39.5390   23.9260   39.0870 H   0  0  0  0  0  0  0  0  0  0  0  0
   41.1810   22.4460   38.0740 H   0  0  0  0  0  0  0  0  0  0  0  0
   40.5930   23.7910   37.0110 H   0  0  0  0  0  0  0  0  0  0  0  0
   40.6510   21.3940   35.9670 H   0  0  0  0  0  0  0  0  0  0  0  0
   39.4700   20.9490   37.2390 H   0  0  0  0  0  0  0  0  0  0  0  0
   37.0400   24.8910   32.1890 C   0  0  0  0  0  0  0  0  0  0  0  0
   35.9260   24.6260   31.4200 C   0  0  0  0  0  0  0  0  0  0  0  0
   35.0790   25.6150   30.9390 C   0  0  0  0  0  0  0  0  0  0  0  0
   35.4220   26.8880   31.2780 N   0  0  0  0  0  0  0  0  0  0  0  0
   36.5030   27.1320   32.0210 C   0  0  0  0  0  0  0  0  0  0  0  0
   37.3360   26.1630   32.4950 N   0  0  0  0  0  0  0  0  0  0  0  0
   35.7350   23.5910   31.2050 H   0  0  0  0  0  0  0  0  0  0  0  0
   34.2340   25.2910   30.3470 H   0  0  0  0  0  0  0  0  0  0  0  0
   36.1690   28.8800   33.6910 C   0  0  1  0  0  3  0  0  0  0  0  0
   36.7240   28.5770   32.2930 C   0  0  2  0  0  3  0  0  0  0  0  0
   35.8140   29.4480   31.4630 C   0  0  0  0  0  3  0  0  0  0  0  0
   35.7800   29.0450   30.4290 H   0  0  0  0  0  0  0  0  0  0  0  0
   34.5750   29.4150   32.0790 O   0  0  0  0  0  0  0  0  0  0  0  0
   34.7240   29.0980   33.4050 C   0  0  0  0  0  3  0  0  0  0  0  0
   34.1250   28.1850   33.6510 H   0  0  0  0  0  0  0  0  0  0  0  0
   36.4170   27.8210   34.5520 O   0  0  0  0  0  0  0  0  0  0  0  0
   37.3750   27.8340   34.7910 H   0  0  0  0  0  0  0  0  0  0  0  0
  1  9  1  0  0  0  0
  2  7  1  0  0  0  0
  2  1  2  0  0  0  0
  3  2  1  0  0  0  0
  4  3  2  0  0  0  0
  4  5  1  0  0  0  0
  5  6  2  0  0  0  0
  6  1  1  0  0  0  0
  8  3  1  0  0  0  0
  9 14  1  0  0  0  0
  9 10  1  0  0  0  0
 10 16  1  0  0  0  0
 10 11  1  0  0  0  0
 11 12  1  0  0  0  0
 11 18  1  0  0  0  0
 12 19  1  0  0  0  0
 13 20  1  0  0  0  0
 13 12  1  0  0  0  0
 14 23  1  0  0  0  0
 14 13  1  0  0  0  0
 15 10  1  0  0  0  0
 17 11  1  0  0  0  0
 21 13  1  0  0  0  0
 22 14  1  0  0  0  0
 24 29  1  0  0  0  0
 24  5  1  0  0  0  0
 25 24  2  0  0  0  0
 26 27  2  0  0  0  0
 26 25  1  0  0  0  0
 27 28  1  0  0  0  0
 28 29  2  0  0  0  0
 30 25  1  0  0  0  0
 31 26  1  0  0  0  0
 32 39  1  1  0  0  0
 33 28  1  6  0  0  0
 33 32  1  0  0  0  0
 34 36  1  0  0  0  0
 34 33  1  0  0  0  0
 35 34  1  0  0  0  0
 36 37  1  0  0  0  0
 37 38  1  0  0  0  0
 37 32  1  0  0  0  0
 39 40  1  0  0  0  0
M  END
>  <minimizedAffinity>
-5.47833014

$$$$

 OpenBabel03272504343D

 40 43  0  0  1  0  0  0  0  0999 V2000
   40.2250   23.1570   36.8380 C   0  0  0  0  0  0  0  0  0  0  0  0
   39.4300   23.0090   37.9740 C   0  0  0  0  0  0  0  0  0  0  0  0
   38.1520   23.5390   37.9870 C   0  0  0  0  0  0  0  0  0  0  0  0
   37.7200   24.1960   36.8650 N   0  0  0  0  0  0  0  0  0  0  0  0
   38.5170   24.3210   35.7810 C   0  0  0  0  0  0  0  0  0  0  0  0
   39.7660   23.8040   35.7670 N   0  0  0  0  0  0  0  0  0  0  0  0
   39.8300   22.4820   38.8220 H   0  0  0  0  0  0  0  0  0  0  0  0
   37.5300   23.4350   38.8470 H   0  0  0  0  0  0  0  0  0  0  0  0
   41.5550   22.6300   36.7700 N   0  0  0  0  0  0  0  0  0  0  0  0
   42.6920   23.4660   36.4200 C   0  0  0  0  0  0  0  0  0  0  0  0
   43.6510   22.8440   35.4590 C   0  0  0  0  0  0  0  0  0  0  0  0
   43.7480   21.4380   35.4250 N   0  0  0  0  0  0  0  0  0  0  0  0
   42.4870   20.7590   35.6870 C   0  0  0  0  0  0  0  0  0  0  0  0
   41.9750   21.3030   37.0080 C   0  0  0  0  0  0  0  0  0  0  0  0
   42.3020   24.4260   35.9940 H   0  0  0  0  0  0  0  0  0  0  0  0
   43.1860   23.7660   37.3650 H   0  0  0  0  0  0  0  0  0  0  0  0
   43.4240   23.2490   34.4330 H   0  0  0  0  0  0  0  0  0  0  0  0
   44.6710   23.2650   35.7020 H   0  0  0  0  0  0  0  0  0  0  0  0
   44.0280   21.1520   34.4390 H   0  0  0  0  0  0  0  0  0  0  0  0
   42.7440   19.6840   35.8910 H   0  0  0  0  0  0  0  0  0  0  0  0
   41.7610   20.8200   34.8780 H   0  0  0  0  0  0  0  0  0  0  0  0
   41.1500   20.6650   37.4150 H   0  0  0  0  0  0  0  0  0  0  0  0
   42.8090   21.2680   37.7220 H   0  0  0  0  0  0  0  0  0  0  0  0
   38.0200   25.0250   34.6070 C   0  0  0  0  0  0  0  0  0  0  0  0
   37.6580   26.3540   34.6840 C   0  0  0  0  0  0  0  0  0  0  0  0
   37.1790   27.0770   33.6010 C   0  0  0  0  0  0  0  0  0  0  0  0
   37.0850   26.3810   32.4350 N   0  0  0  0  0  0  0  0  0  0  0  0
   37.4360   25.0960   32.3730 C   0  0  0  0  0  0  0  0  0  0  0  0
   37.9080   24.3840   33.4350 N   0  0  0  0  0  0  0  0  0  0  0  0
   37.7690   26.8190   35.6460 H   0  0  0  0  0  0  0  0  0  0  0  0
   36.9260   28.1140   33.7770 H   0  0  0  0  0  0  0  0  0  0  0  0
   35.8180   24.0070   30.9060 C   0  0  1  0  0  3  0  0  0  0  0  0
   37.2670   24.4980   31.0220 C   0  0  2  0  0  3  0  0  0  0  0  0
   37.9940   23.1820   30.8970 C   0  0  0  0  0  3  0  0  0  0  0  0
   38.9930   23.2790   31.3740 H   0  0  0  0  0  0  0  0  0  0  0  0
   37.2020   22.2390   31.5280 O   0  0  0  0  0  0  0  0  0  0  0  0
   35.8990   22.6660   31.5500 C   0  0  0  0  0  3  0  0  0  0  0  0
   35.5260   22.7050   32.6040 H   0  0  0  0  0  0  0  0  0  0  0  0
   34.9550   24.8840   31.5450 O   0  0  0  0  0  0  0  0  0  0  0  0
   34.8600   25.6890   30.9820 H   0  0  0  0  0  0  0  0  0  0  0  0
  1  2  1  0  0  0  0
  2  3  2  0  0  0  0
  2  7  1  0  0  0  0
  3  8  1  0  0  0  0
  4  3  1  0  0  0  0
  5  4  2  0  0  0  0
  6  5  1  0  0  0  0
  6  1  2  0  0  0  0
  9  1  1  0  0  0  0
  9 14  1  0  0  0  0
 10  9  1  0  0  0  0
 10 16  1  0  0  0  0
 11 18  1  0  0  0  0
 11 10  1  0  0  0  0
 12 11  1  0  0  0  0
 12 13  1  0  0  0  0
 13 20  1  0  0  0  0
 13 14  1  0  0  0  0
 14 22  1  0  0  0  0
 14 23  1  0  0  0  0
 15 10  1  0  0  0  0
 17 11  1  0  0  0  0
 19 12  1  0  0  0  0
 21 13  1  0  0  0  0
 24 25  1  0  0  0  0
 24  5  1  0  0  0  0
 25 30  1  0  0  0  0
 26 31  1  0  0  0  0
 26 25  2  0  0  0  0
 27 26  1  0  0  0  0
 28 27  2  0  0  0  0
 28 29  1  0  0  0  0
 29 24  2  0  0  0  0
 32 33  1  0  0  0  0
 32 39  1  1  0  0  0
 32 37  1  0  0  0  0
 33 28  1  1  0  0  0
 34 33  1  0  0  0  0
 34 35  1  0  0  0  0
 34 36  1  0  0  0  0
 36 37  1  0  0  0  0
 37 38  1  0  0  0  0
 40 39  1  0  0  0  0
M  END
>  <minimizedAffinity>
-5.43160009

$$$$

 OpenBabel03272504343D

 40 43  0  0  1  0  0  0  0  0999 V2000
   36.6420   28.7120   32.2440 C   0  0  0  0  0  0  0  0  0  0  0  0
   35.7470   29.2680   33.1570 C   0  0  0  0  0  0  0  0  0  0  0  0
   35.7950   28.8780   34.4840 C   0  0  0  0  0  0  0  0  0  0  0  0
   36.7360   27.9490   34.8450 N   0  0  0  0  0  0  0  0  0  0  0  0
   37.5880   27.4310   33.9330 C   0  0  0  0  0  0  0  0  0  0  0  0
   37.5420   27.8110   32.6370 N   0  0  0  0  0  0  0  0  0  0  0  0
   35.0330   29.9930   32.8090 H   0  0  0  0  0  0  0  0  0  0  0  0
   35.1180   29.2930   35.1960 H   0  0  0  0  0  0  0  0  0  0  0  0
   36.6370   29.0780   30.8590 N   0  0  0  0  0  0  0  0  0  0  0  0
   37.0270   28.1400   29.8190 C   0  0  0  0  0  0  0  0  0  0  0  0
   37.9120   28.7140   28.7620 C   0  0  0  0  0  0  0  0  0  0  0  0
   37.8300   30.0960   28.4970 N   0  0  0  0  0  0  0  0  0  0  0  0
   37.5420   30.9000   29.6760 C   0  0  0  0  0  0  0  0  0  0  0  0
   36.2830   30.3210   30.2920 C   0  0  0  0  0  0  0  0  0  0  0  0
   37.5380   27.2700   30.3060 H   0  0  0  0  0  0  0  0  0  0  0  0
   36.0980   27.7100   29.3950 H   0  0  0  0  0  0  0  0  0  0  0  0
   38.9720   28.4200   29.0020 H   0  0  0  0  0  0  0  0  0  0  0  0
   37.6800   28.1540   27.8080 H   0  0  0  0  0  0  0  0  0  0  0  0
   38.7830   30.4220   28.1530 H   0  0  0  0  0  0  0  0  0  0  0  0
   37.2460   31.9170   29.2990 H   0  0  0  0  0  0  0  0  0  0  0  0
   38.3700   30.9910   30.3770 H   0  0  0  0  0  0  0  0  0  0  0  0
   35.8440   31.0220   31.0480 H   0  0  0  0  0  0  0  0  0  0  0  0
   35.5490   30.2000   29.4830 H   0  0  0  0  0  0  0  0  0  0  0  0
   38.5740   26.4470   34.3560 C   0  0  0  0  0  0  0  0  0  0  0  0
   39.9190   26.7520   34.3580 C   0  0  0  0  0  0  0  0  0  0  0  0
   40.9040   25.8570   34.7500 C   0  0  0  0  0  0  0  0  0  0  0  0
   40.4530   24.6330   35.1400 N   0  0  0  0  0  0  0  0  0  0  0  0
   39.1490   24.3490   35.1340 C   0  0  0  0  0  0  0  0  0  0  0  0
   38.1800   25.2270   34.7500 N   0  0  0  0  0  0  0  0  0  0  0  0
   40.1790   27.7440   34.0340 H   0  0  0  0  0  0  0  0  0  0  0  0
   41.9270   26.2050   34.7110 H   0  0  0  0  0  0  0  0  0  0  0  0
   38.1170   23.0720   36.9390 C   0  0  1  0  0  3  0  0  0  0  0  0
   38.8400   22.9680   35.5900 C   0  0  2  0  0  3  0  0  0  0  0  0
   40.0820   22.2290   36.0220 C   0  0  0  0  0  3  0  0  0  0  0  0
   40.8930   22.4370   35.2920 H   0  0  0  0  0  0  0  0  0  0  0  0
   40.3890   22.6910   37.2900 O   0  0  0  0  0  0  0  0  0  0  0  0
   39.2590   23.1890   37.8880 C   0  0  0  0  0  3  0  0  0  0  0  0
   39.4230   24.2550   38.1890 H   0  0  0  0  0  0  0  0  0  0  0  0
   37.2650   24.1660   36.9510 O   0  0  0  0  0  0  0  0  0  0  0  0
   36.4740   23.9480   36.4010 H   0  0  0  0  0  0  0  0  0  0  0  0
  1  6  2  0  0  0  0
  1  2  1  0  0  0  0
  2  3  2  0  0  0  0
  3  4  1  0  0  0  0
  3  8  1  0  0  0  0
  5 24  1  0  0  0  0
  5  4  2  0  0  0  0
  6  5  1  0  0  0  0
  7  2  1  0  0  0  0
  9  1  1  0  0  0  0
 10 15  1  0  0  0  0
 10  9  1  0  0  0  0
 11 17  1  0  0  0  0
 11 10  1  0  0  0  0
 12 11  1  0  0  0  0
 12 13  1  0  0  0  0
 13 14  1  0  0  0  0
 13 21  1  0  0  0  0
 14  9  1  0  0  0  0
 14 22  1  0  0  0  0
 16 10  1  0  0  0  0
 18 11  1  0  0  0  0
 19 12  1  0  0  0  0
 20 13  1  0  0  0  0
 23 14  1  0  0  0  0
 24 25  2  0  0  0  0
 24 29  1  0  0  0  0
 25 26  1  0  0  0  0
 26 27  2  0  0  0  0
 28 27  1  0  0  0  0
 29 28  2  0  0  0  0
 30 25  1  0  0  0  0
 31 26  1  0  0  0  0
 32 39  1  6  0  0  0
 32 37  1  0  0  0  0
 33 28  1  1  0  0  0
 33 34  1  0  0  0  0
 33 32  1  0  0  0  0
 34 36  1  0  0  0  0
 35 34  1  0  0  0  0
 36 37  1  0  0  0  0
 37 38  1  0  0  0  0
 40 39  1  0  0  0  0
M  END
>  <minimizedAffinity>
-5.39258718

$$$$
