
 OpenBabel03272504163D

 24 25  0  0  1  0  0  0  0  0999 V2000
   38.1020   23.8020   35.7030 C   0  0  0  0  0  0  0  0  0  0  0  0
   38.0690   24.6110   34.5690 C   0  0  0  0  0  0  0  0  0  0  0  0
   37.9650   24.0190   33.3020 C   0  0  0  0  0  0  0  0  0  0  0  0
   37.9010   22.6510   33.2520 N   0  0  0  0  0  0  0  0  0  0  0  0
   37.9350   21.8860   34.3820 C   0  0  0  0  0  0  0  0  0  0  0  0
   38.0350   22.4710   35.5890 N   0  0  0  0  0  0  0  0  0  0  0  0
   37.9350   24.6020   32.3890 H   0  0  0  0  0  0  0  0  0  0  0  0
   37.8840   20.8070   34.3190 H   0  0  0  0  0  0  0  0  0  0  0  0
   39.2550   26.6680   35.4020 C   0  0  1  0  0  3  0  0  0  0  0  0
   38.1320   26.0520   34.6400 C   0  0  1  0  0  3  0  0  0  0  0  0
   38.2910   26.7200   33.2830 C   0  0  0  0  0  3  0  0  0  0  0  0
   37.8670   27.7470   33.2880 H   0  0  0  0  0  0  0  0  0  0  0  0
   39.6500   26.8150   33.0880 O   0  0  0  0  0  0  0  0  0  0  0  0
   40.1970   27.1330   34.3120 C   0  0  0  0  0  3  0  0  0  0  0  0
   41.1810   26.5900   34.3710 H   0  0  0  0  0  0  0  0  0  0  0  0
   38.8240   27.8050   36.1330 O   0  0  0  0  0  0  0  0  0  0  0  0
   39.4700   28.0240   36.8460 H   0  0  0  0  0  0  0  0  0  0  0  0
   38.2030   24.3020   36.9820 O   0  0  0  0  0  0  0  0  0  0  0  0
   38.9160   24.0830   39.5770 O   0  0  0  0  0  0  0  0  0  0  0  0
   38.5540   23.3020   38.3290 P   0  0  0  0  0  0  0  0  0  0  0  0
   37.1370   22.4010   38.5890 O   0  0  0  0  0  0  0  0  0  0  0  0
   37.2940   21.8570   39.3960 H   0  0  0  0  0  0  0  0  0  0  0  0
   39.8760   22.2960   37.9860 O   0  0  0  0  0  0  0  0  0  0  0  0
   39.8230   21.9250   37.0900 H   0  0  0  0  0  0  0  0  0  0  0  0
  1 18  1  0  0  0  0
  2  1  2  0  0  0  0
  3  2  1  0  0  0  0
  4  3  2  0  0  0  0
  4  5  1  0  0  0  0
  5  6  2  0  0  0  0
  6  1  1  0  0  0  0
  7  3  1  0  0  0  0
  8  5  1  0  0  0  0
  9 16  1  6  0  0  0
 10  2  1  6  0  0  0
 10  9  1  0  0  0  0
 11 12  1  0  0  0  0
 11 10  1  0  0  0  0
 13 11  1  0  0  0  0
 13 14  1  0  0  0  0
 14 15  1  0  0  0  0
 14  9  1  0  0  0  0
 16 17  1  0  0  0  0
 18 20  1  0  0  0  0
 20 21  1  0  0  0  0
 20 19  2  0  0  0  0
 21 22  1  0  0  0  0
 23 20  1  0  0  0  0
 24 23  1  0  0  0  0
M  END
>  <minimizedAffinity>
-4.96427202

$$$$

 OpenBabel03272504163D

 24 25  0  0  1  0  0  0  0  0999 V2000
   39.0390   24.4210   36.1200 C   0  0  0  0  0  0  0  0  0  0  0  0
   39.9670   23.4480   36.4860 C   0  0  0  0  0  0  0  0  0  0  0  0
   39.8500   22.8180   37.7330 C   0  0  0  0  0  0  0  0  0  0  0  0
   38.8070   23.2030   38.5350 N   0  0  0  0  0  0  0  0  0  0  0  0
   37.9140   24.1590   38.1470 C   0  0  0  0  0  0  0  0  0  0  0  0
   38.0430   24.7540   36.9470 N   0  0  0  0  0  0  0  0  0  0  0  0
   40.5440   22.0550   38.0660 H   0  0  0  0  0  0  0  0  0  0  0  0
   37.0980   24.4480   38.7960 H   0  0  0  0  0  0  0  0  0  0  0  0
   42.3000   23.8740   35.6430 C   0  0  1  0  0  3  0  0  0  0  0  0
   41.0570   23.0510   35.6260 C   0  0  1  0  0  3  0  0  0  0  0  0
   41.6110   21.6710   35.9470 C   0  0  0  0  0  3  0  0  0  0  0  0
   42.0620   21.2000   35.0470 H   0  0  0  0  0  0  0  0  0  0  0  0
   42.6080   21.8890   36.8680 O   0  0  0  0  0  0  0  0  0  0  0  0
   43.2530   23.0430   36.4760 C   0  0  0  0  0  3  0  0  0  0  0  0
   43.5380   23.5840   37.4210 H   0  0  0  0  0  0  0  0  0  0  0  0
   42.8490   24.0100   34.3420 O   0  0  0  0  0  0  0  0  0  0  0  0
   43.4740   24.7730   34.3080 H   0  0  0  0  0  0  0  0  0  0  0  0
   39.0840   25.0880   34.9160 O   0  0  0  0  0  0  0  0  0  0  0  0
   39.1730   27.3890   33.5050 O   0  0  0  0  0  0  0  0  0  0  0  0
   39.6090   26.7150   34.7910 P   0  0  0  0  0  0  0  0  0  0  0  0
   38.9220   27.5030   36.1300 O   0  0  0  0  0  0  0  0  0  0  0  0
   39.1640   28.4560   36.0500 H   0  0  0  0  0  0  0  0  0  0  0  0
   41.3040   26.7890   34.8270 O   0  0  0  0  0  0  0  0  0  0  0  0
   41.6750   26.1960   35.5000 H   0  0  0  0  0  0  0  0  0  0  0  0
  1  2  2  0  0  0  0
  1  6  1  0  0  0  0
  2  3  1  0  0  0  0
  3  7  1  0  0  0  0
  3  4  2  0  0  0  0
  5  4  1  0  0  0  0
  5  8  1  0  0  0  0
  6  5  2  0  0  0  0
  9 16  1  6  0  0  0
  9 14  1  0  0  0  0
 10  9  1  0  0  0  0
 10 11  1  0  0  0  0
 10  2  1  1  0  0  0
 11 13  1  0  0  0  0
 12 11  1  0  0  0  0
 14 13  1  0  0  0  0
 14 15  1  0  0  0  0
 17 16  1  0  0  0  0
 18  1  1  0  0  0  0
 19 20  2  0  0  0  0
 20 23  1  0  0  0  0
 20 18  1  0  0  0  0
 20 21  1  0  0  0  0
 22 21  1  0  0  0  0
 23 24  1  0  0  0  0
M  END
>  <minimizedAffinity>
-4.65342712

$$$$

 OpenBabel03272504163D

 24 25  0  0  1  0  0  0  0  0999 V2000
   40.4370   24.8470   34.9200 C   0  0  0  0  0  0  0  0  0  0  0  0
   39.3460   24.5890   35.7480 C   0  0  0  0  0  0  0  0  0  0  0  0
   38.3880   25.5910   35.9600 C   0  0  0  0  0  0  0  0  0  0  0  0
   38.5840   26.7900   35.3260 N   0  0  0  0  0  0  0  0  0  0  0  0
   39.6630   27.0110   34.5190 C   0  0  0  0  0  0  0  0  0  0  0  0
   40.5720   26.0390   34.3290 N   0  0  0  0  0  0  0  0  0  0  0  0
   37.5220   25.4430   36.5940 H   0  0  0  0  0  0  0  0  0  0  0  0
   39.7980   27.9660   34.0280 H   0  0  0  0  0  0  0  0  0  0  0  0
   39.8560   23.0820   37.6980 C   0  0  1  0  0  3  0  0  0  0  0  0
   39.1520   23.3180   36.4050 C   0  0  1  0  0  3  0  0  0  0  0  0
   37.7080   23.0530   36.8000 C   0  0  0  0  0  3  0  0  0  0  0  0
   37.4950   21.9630   36.8400 H   0  0  0  0  0  0  0  0  0  0  0  0
   37.5850   23.5640   38.0710 O   0  0  0  0  0  0  0  0  0  0  0  0
   38.7610   23.2660   38.7260 C   0  0  0  0  0  3  0  0  0  0  0  0
   38.9820   24.1430   39.3970 H   0  0  0  0  0  0  0  0  0  0  0  0
   40.3350   21.7490   37.7920 O   0  0  0  0  0  0  0  0  0  0  0  0
   41.0340   21.6800   38.4840 H   0  0  0  0  0  0  0  0  0  0  0  0
   41.4210   23.9200   34.6610 O   0  0  0  0  0  0  0  0  0  0  0  0
   44.0850   23.5600   34.4000 O   0  0  0  0  0  0  0  0  0  0  0  0
   42.9920   24.0430   35.3340 P   0  0  0  0  0  0  0  0  0  0  0  0
   43.1980   25.6950   35.6730 O   0  0  0  0  0  0  0  0  0  0  0  0
   44.1180   25.8010   36.0110 H   0  0  0  0  0  0  0  0  0  0  0  0
   43.1050   23.1010   36.7410 O   0  0  0  0  0  0  0  0  0  0  0  0
   42.3150   23.1920   37.2980 H   0  0  0  0  0  0  0  0  0  0  0  0
  1  2  1  0  0  0  0
  2  3  2  0  0  0  0
  3  7  1  0  0  0  0
  4  3  1  0  0  0  0
  5  4  2  0  0  0  0
  6  5  1  0  0  0  0
  6  1  2  0  0  0  0
  8  5  1  0  0  0  0
  9 16  1  6  0  0  0
  9 14  1  0  0  0  0
 10  2  1  1  0  0  0
 10 11  1  0  0  0  0
 10  9  1  0  0  0  0
 11 12  1  0  0  0  0
 11 13  1  0  0  0  0
 13 14  1  0  0  0  0
 14 15  1  0  0  0  0
 16 17  1  0  0  0  0
 18  1  1  0  0  0  0
 18 20  1  0  0  0  0
 19 20  2  0  0  0  0
 20 21  1  0  0  0  0
 20 23  1  0  0  0  0
 21 22  1  0  0  0  0
 23 24  1  0  0  0  0
M  END
>  <minimizedAffinity>
-4.53071308

$$$$

 OpenBabel03272504163D

 24 25  0  0  1  0  0  0  0  0999 V2000
   38.1240   23.7550   35.7100 C   0  0  0  0  0  0  0  0  0  0  0  0
   38.2290   24.4970   34.5360 C   0  0  0  0  0  0  0  0  0  0  0  0
   37.9730   23.8780   33.3030 C   0  0  0  0  0  0  0  0  0  0  0  0
   37.6280   22.5520   33.3270 N   0  0  0  0  0  0  0  0  0  0  0  0
   37.5330   21.8520   34.4960 C   0  0  0  0  0  0  0  0  0  0  0  0
   37.7830   22.4620   35.6680 N   0  0  0  0  0  0  0  0  0  0  0  0
   38.0400   24.4090   32.3620 H   0  0  0  0  0  0  0  0  0  0  0  0
   37.2600   20.8050   34.4910 H   0  0  0  0  0  0  0  0  0  0  0  0
   39.1070   26.4800   33.2600 C   0  0  1  0  0  3  0  0  0  0  0  0
   38.5880   25.8960   34.5290 C   0  0  1  0  0  3  0  0  0  0  0  0
   37.4210   26.8240   34.8290 C   0  0  0  0  0  3  0  0  0  0  0  0
   37.7710   27.7750   35.2840 H   0  0  0  0  0  0  0  0  0  0  0  0
   36.8670   27.1100   33.6030 O   0  0  0  0  0  0  0  0  0  0  0  0
   37.9190   27.2500   32.7240 C   0  0  0  0  0  3  0  0  0  0  0  0
   37.5720   26.8220   31.7420 H   0  0  0  0  0  0  0  0  0  0  0  0
   40.1590   27.4000   33.5050 O   0  0  0  0  0  0  0  0  0  0  0  0
   40.6850   27.5520   32.6840 H   0  0  0  0  0  0  0  0  0  0  0  0
   38.3590   24.2850   36.9590 O   0  0  0  0  0  0  0  0  0  0  0  0
   38.9650   24.0900   39.5830 O   0  0  0  0  0  0  0  0  0  0  0  0
   38.6280   23.2990   38.3350 P   0  0  0  0  0  0  0  0  0  0  0  0
   37.1770   22.4440   38.5550 O   0  0  0  0  0  0  0  0  0  0  0  0
   37.2870   21.9090   39.3760 H   0  0  0  0  0  0  0  0  0  0  0  0
   39.9330   22.2500   38.0590 O   0  0  0  0  0  0  0  0  0  0  0  0
   39.9020   21.8650   37.1680 H   0  0  0  0  0  0  0  0  0  0  0  0
  1 18  1  0  0  0  0
  2  1  2  0  0  0  0
  3  4  2  0  0  0  0
  3  2  1  0  0  0  0
  4  5  1  0  0  0  0
  5  6  2  0  0  0  0
  6  1  1  0  0  0  0
  7  3  1  0  0  0  0
  8  5  1  0  0  0  0
  9 16  1  1  0  0  0
  9 10  1  0  0  0  0
 10  2  1  6  0  0  0
 10 11  1  0  0  0  0
 11 12  1  0  0  0  0
 13 11  1  0  0  0  0
 14  9  1  0  0  0  0
 14 13  1  0  0  0  0
 15 14  1  0  0  0  0
 17 16  1  0  0  0  0
 18 20  1  0  0  0  0
 20 21  1  0  0  0  0
 20 19  2  0  0  0  0
 21 22  1  0  0  0  0
 23 20  1  0  0  0  0
 24 23  1  0  0  0  0
M  END
>  <minimizedAffinity>
-4.48984432

$$$$

 OpenBabel03272504163D

 24 25  0  0  1  0  0  0  0  0999 V2000
   38.5120   25.2960   35.5500 C   0  0  0  0  0  0  0  0  0  0  0  0
   37.9760   25.1320   34.2750 C   0  0  0  0  0  0  0  0  0  0  0  0
   37.3800   26.2250   33.6300 C   0  0  0  0  0  0  0  0  0  0  0  0
   37.3610   27.4180   34.3060 N   0  0  0  0  0  0  0  0  0  0  0  0
   37.8970   27.5460   35.5550 C   0  0  0  0  0  0  0  0  0  0  0  0
   38.4630   26.4860   36.1580 N   0  0  0  0  0  0  0  0  0  0  0  0
   36.9490   26.1520   32.6390 H   0  0  0  0  0  0  0  0  0  0  0  0
   37.8710   28.4970   36.0710 H   0  0  0  0  0  0  0  0  0  0  0  0
   37.1320   23.7060   32.3800 C   0  0  1  0  0  3  0  0  0  0  0  0
   38.0090   23.8690   33.5740 C   0  0  1  0  0  3  0  0  0  0  0  0
   39.3730   23.5350   32.9880 C   0  0  0  0  0  3  0  0  0  0  0  0
   39.5150   22.4370   32.9000 H   0  0  0  0  0  0  0  0  0  0  0  0
   39.3600   24.0730   31.7220 O   0  0  0  0  0  0  0  0  0  0  0  0
   38.0940   23.8580   31.2210 C   0  0  0  0  0  3  0  0  0  0  0  0
   37.8400   24.7630   30.6020 H   0  0  0  0  0  0  0  0  0  0  0  0
   36.5680   22.4060   32.3230 O   0  0  0  0  0  0  0  0  0  0  0  0
   35.7830   22.3930   31.7270 H   0  0  0  0  0  0  0  0  0  0  0  0
   39.1130   24.2740   36.2510 O   0  0  0  0  0  0  0  0  0  0  0  0
   37.1000   22.7990   37.2820 O   0  0  0  0  0  0  0  0  0  0  0  0
   38.3760   23.5470   37.6170 P   0  0  0  0  0  0  0  0  0  0  0  0
   39.5430   22.4740   38.2280 O   0  0  0  0  0  0  0  0  0  0  0  0
   39.1220   22.0010   38.9840 H   0  0  0  0  0  0  0  0  0  0  0  0
   37.9590   24.7300   38.7590 O   0  0  0  0  0  0  0  0  0  0  0  0
   38.6620   25.3910   38.8660 H   0  0  0  0  0  0  0  0  0  0  0  0
  1  6  1  0  0  0  0
  1 18  1  0  0  0  0
  2  1  2  0  0  0  0
  3  2  1  0  0  0  0
  3  4  2  0  0  0  0
  4  5  1  0  0  0  0
  5  8  1  0  0  0  0
  5  6  2  0  0  0  0
  7  3  1  0  0  0  0
  9 16  1  1  0  0  0
  9 10  1  0  0  0  0
 10  2  1  6  0  0  0
 11 10  1  0  0  0  0
 12 11  1  0  0  0  0
 13 11  1  0  0  0  0
 14 13  1  0  0  0  0
 14  9  1  0  0  0  0
 15 14  1  0  0  0  0
 17 16  1  0  0  0  0
 18 20  1  0  0  0  0
 19 20  2  0  0  0  0
 20 21  1  0  0  0  0
 20 23  1  0  0  0  0
 21 22  1  0  0  0  0
 23 24  1  0  0  0  0
M  END
>  <minimizedAffinity>
-4.4252243

$$$$

 OpenBabel03272504163D

 24 25  0  0  1  0  0  0  0  0999 V2000
   39.2480   23.7470   35.2320 C   0  0  0  0  0  0  0  0  0  0  0  0
   40.3670   24.2380   34.5620 C   0  0  0  0  0  0  0  0  0  0  0  0
   40.8590   23.5510   33.4430 C   0  0  0  0  0  0  0  0  0  0  0  0
   40.1960   22.4130   33.0650 N   0  0  0  0  0  0  0  0  0  0  0  0
   39.1020   21.9570   33.7420 C   0  0  0  0  0  0  0  0  0  0  0  0
   38.6450   22.6290   34.8130 N   0  0  0  0  0  0  0  0  0  0  0  0
   41.7250   23.8900   32.8870 H   0  0  0  0  0  0  0  0  0  0  0  0
   38.5940   21.0550   33.4260 H   0  0  0  0  0  0  0  0  0  0  0  0
   42.3190   25.8010   34.2740 C   0  0  1  0  0  3  0  0  0  0  0  0
   41.0510   25.4430   34.9710 C   0  0  1  0  0  3  0  0  0  0  0  0
   40.2300   26.7070   34.7620 C   0  0  0  0  0  3  0  0  0  0  0  0
   40.5260   27.5010   35.4790 H   0  0  0  0  0  0  0  0  0  0  0  0
   40.5450   27.1320   33.4920 O   0  0  0  0  0  0  0  0  0  0  0  0
   41.8940   26.9040   33.3280 C   0  0  0  0  0  3  0  0  0  0  0  0
   42.0360   26.5930   32.2560 H   0  0  0  0  0  0  0  0  0  0  0  0
   43.2750   26.3320   35.1770 O   0  0  0  0  0  0  0  0  0  0  0  0
   44.1810   26.2880   34.7890 H   0  0  0  0  0  0  0  0  0  0  0  0
   38.7030   24.3600   36.3380 O   0  0  0  0  0  0  0  0  0  0  0  0
   37.8520   24.3810   38.9000 O   0  0  0  0  0  0  0  0  0  0  0  0
   38.2950   23.4900   37.7560 P   0  0  0  0  0  0  0  0  0  0  0  0
   37.0270   22.4590   37.2900 O   0  0  0  0  0  0  0  0  0  0  0  0
   36.7360   21.9850   38.1050 H   0  0  0  0  0  0  0  0  0  0  0  0
   39.6360   22.6130   38.3140 O   0  0  0  0  0  0  0  0  0  0  0  0
   40.1130   22.1840   37.5860 H   0  0  0  0  0  0  0  0  0  0  0  0
  1 18  1  0  0  0  0
  2  1  2  0  0  0  0
  3  2  1  0  0  0  0
  4  3  2  0  0  0  0
  4  5  1  0  0  0  0
  5  6  2  0  0  0  0
  6  1  1  0  0  0  0
  7  3  1  0  0  0  0
  8  5  1  0  0  0  0
  9 10  1  0  0  0  0
  9 16  1  1  0  0  0
 10  2  1  6  0  0  0
 11 10  1  0  0  0  0
 11 12  1  0  0  0  0
 13 11  1  0  0  0  0
 14 13  1  0  0  0  0
 14  9  1  0  0  0  0
 15 14  1  0  0  0  0
 17 16  1  0  0  0  0
 18 20  1  0  0  0  0
 20 23  1  0  0  0  0
 20 19  2  0  0  0  0
 21 20  1  0  0  0  0
 21 22  1  0  0  0  0
 24 23  1  0  0  0  0
M  END
>  <minimizedAffinity>
-4.4190011

$$$$

 OpenBabel03272504163D

 24 25  0  0  1  0  0  0  0  0999 V2000
   36.5840   27.2210   32.4050 C   0  0  0  0  0  0  0  0  0  0  0  0
   37.3380   26.2500   33.0600 C   0  0  0  0  0  0  0  0  0  0  0  0
   37.1580   24.8980   32.7320 C   0  0  0  0  0  0  0  0  0  0  0  0
   36.2310   24.6060   31.7660 N   0  0  0  0  0  0  0  0  0  0  0  0
   35.5080   25.5810   31.1420 C   0  0  0  0  0  0  0  0  0  0  0  0
   35.6940   26.8720   31.4700 N   0  0  0  0  0  0  0  0  0  0  0  0
   37.7190   24.1050   33.2100 H   0  0  0  0  0  0  0  0  0  0  0  0
   34.7810   25.3270   30.3810 H   0  0  0  0  0  0  0  0  0  0  0  0
   37.8310   26.8260   35.4600 C   0  0  1  0  0  3  0  0  0  0  0  0
   38.3160   26.5760   34.0720 C   0  0  1  0  0  3  0  0  0  0  0  0
   39.3370   25.4740   34.3080 C   0  0  0  0  0  3  0  0  0  0  0  0
   40.2970   25.8890   34.6830 H   0  0  0  0  0  0  0  0  0  0  0  0
   38.7920   24.6850   35.2940 O   0  0  0  0  0  0  0  0  0  0  0  0
   38.1790   25.5420   36.1830 C   0  0  0  0  0  3  0  0  0  0  0  0
   37.2490   25.0170   36.5410 H   0  0  0  0  0  0  0  0  0  0  0  0
   38.5420   27.8890   36.0740 O   0  0  0  0  0  0  0  0  0  0  0  0
   38.0400   28.2410   36.8470 H   0  0  0  0  0  0  0  0  0  0  0  0
   36.6990   28.5680   32.6680 O   0  0  0  0  0  0  0  0  0  0  0  0
   35.7580   31.0990   32.6840 O   0  0  0  0  0  0  0  0  0  0  0  0
   35.5420   29.7080   32.1210 P   0  0  0  0  0  0  0  0  0  0  0  0
   35.7080   29.7260   30.4300 O   0  0  0  0  0  0  0  0  0  0  0  0
   35.0900   30.4170   30.0940 H   0  0  0  0  0  0  0  0  0  0  0  0
   33.9820   29.2320   32.5880 O   0  0  0  0  0  0  0  0  0  0  0  0
   33.8430   28.2800   32.4590 H   0  0  0  0  0  0  0  0  0  0  0  0
  1 18  1  0  0  0  0
  1  2  1  0  0  0  0
  3  2  2  0  0  0  0
  3  7  1  0  0  0  0
  4  3  1  0  0  0  0
  5  6  1  0  0  0  0
  5  4  2  0  0  0  0
  6  1  2  0  0  0  0
  8  5  1  0  0  0  0
  9 16  1  1  0  0  0
  9 14  1  0  0  0  0
 10  2  1  6  0  0  0
 10 11  1  0  0  0  0
 10  9  1  0  0  0  0
 11 12  1  0  0  0  0
 11 13  1  0  0  0  0
 13 14  1  0  0  0  0
 14 15  1  0  0  0  0
 16 17  1  0  0  0  0
 20 23  1  0  0  0  0
 20 18  1  0  0  0  0
 20 19  2  0  0  0  0
 21 20  1  0  0  0  0
 22 21  1  0  0  0  0
 24 23  1  0  0  0  0
M  END
>  <minimizedAffinity>
-4.4185853

$$$$

 OpenBabel03272504163D

 24 25  0  0  1  0  0  0  0  0999 V2000
   39.5730   24.3460   35.3820 C   0  0  0  0  0  0  0  0  0  0  0  0
   39.3230   25.5420   34.7120 C   0  0  0  0  0  0  0  0  0  0  0  0
   40.3990   26.3320   34.2840 C   0  0  0  0  0  0  0  0  0  0  0  0
   41.6620   25.8720   34.5550 N   0  0  0  0  0  0  0  0  0  0  0  0
   41.8740   24.6940   35.2130 C   0  0  0  0  0  0  0  0  0  0  0  0
   40.8290   23.9500   35.6170 N   0  0  0  0  0  0  0  0  0  0  0  0
   40.2600   27.2690   33.7590 H   0  0  0  0  0  0  0  0  0  0  0  0
   42.8800   24.3500   35.4170 H   0  0  0  0  0  0  0  0  0  0  0  0
   37.7990   27.4560   34.1240 C   0  0  1  0  0  3  0  0  0  0  0  0
   37.9860   26.0090   34.4300 C   0  0  1  0  0  3  0  0  0  0  0  0
   37.3630   25.3630   33.2020 C   0  0  0  0  0  3  0  0  0  0  0  0
   36.2550   25.3450   33.2750 H   0  0  0  0  0  0  0  0  0  0  0  0
   37.7140   26.1780   32.1510 O   0  0  0  0  0  0  0  0  0  0  0  0
   37.6340   27.4720   32.6190 C   0  0  0  0  0  3  0  0  0  0  0  0
   38.4720   28.0400   32.1270 H   0  0  0  0  0  0  0  0  0  0  0  0
   36.6080   27.9600   34.7070 O   0  0  0  0  0  0  0  0  0  0  0  0
   36.6370   28.9450   34.7590 H   0  0  0  0  0  0  0  0  0  0  0  0
   38.5740   23.5140   35.8360 O   0  0  0  0  0  0  0  0  0  0  0  0
   37.9930   24.5620   38.2550 O   0  0  0  0  0  0  0  0  0  0  0  0
   38.2730   23.2740   37.5060 P   0  0  0  0  0  0  0  0  0  0  0  0
   36.9160   22.2530   37.5660 O   0  0  0  0  0  0  0  0  0  0  0  0
   36.6880   22.1450   38.5190 H   0  0  0  0  0  0  0  0  0  0  0  0
   39.6210   22.5630   38.2500 O   0  0  0  0  0  0  0  0  0  0  0  0
   40.0000   21.8540   37.7060 H   0  0  0  0  0  0  0  0  0  0  0  0
  1  6  1  0  0  0  0
  1 18  1  0  0  0  0
  2  1  2  0  0  0  0
  3  4  2  0  0  0  0
  3  2  1  0  0  0  0
  4  5  1  0  0  0  0
  5  8  1  0  0  0  0
  5  6  2  0  0  0  0
  7  3  1  0  0  0  0
  9 10  1  0  0  0  0
  9 16  1  1  0  0  0
 10  2  1  6  0  0  0
 11 12  1  0  0  0  0
 11 10  1  0  0  0  0
 13 14  1  0  0  0  0
 13 11  1  0  0  0  0
 14  9  1  0  0  0  0
 15 14  1  0  0  0  0
 16 17  1  0  0  0  0
 18 20  1  0  0  0  0
 20 21  1  0  0  0  0
 20 23  1  0  0  0  0
 20 19  2  0  0  0  0
 21 22  1  0  0  0  0
 24 23  1  0  0  0  0
M  END
>  <minimizedAffinity>
-4.41428709

$$$$

 OpenBabel03272504163D

 24 25  0  0  1  0  0  0  0  0999 V2000
   39.6120   23.0980   36.5990 C   0  0  0  0  0  0  0  0  0  0  0  0
   39.0350   24.2500   36.0670 C   0  0  0  0  0  0  0  0  0  0  0  0
   38.1730   25.0210   36.8600 C   0  0  0  0  0  0  0  0  0  0  0  0
   37.9440   24.5880   38.1400 N   0  0  0  0  0  0  0  0  0  0  0  0
   38.5250   23.4550   38.6330 C   0  0  0  0  0  0  0  0  0  0  0  0
   39.3490   22.7280   37.8570 N   0  0  0  0  0  0  0  0  0  0  0  0
   37.7000   25.9240   36.4950 H   0  0  0  0  0  0  0  0  0  0  0  0
   38.3300   23.1310   39.6470 H   0  0  0  0  0  0  0  0  0  0  0  0
   38.4080   25.7520   34.1470 C   0  0  1  0  0  3  0  0  0  0  0  0
   39.2920   24.6950   34.7170 C   0  0  1  0  0  3  0  0  0  0  0  0
   40.6640   25.3250   34.5360 C   0  0  0  0  0  3  0  0  0  0  0  0
   41.0230   25.2130   33.4910 H   0  0  0  0  0  0  0  0  0  0  0  0
   40.4790   26.6650   34.7880 O   0  0  0  0  0  0  0  0  0  0  0  0
   39.2610   27.0000   34.2370 C   0  0  0  0  0  3  0  0  0  0  0  0
   38.7960   27.7560   34.9290 H   0  0  0  0  0  0  0  0  0  0  0  0
   38.1210   25.5060   32.7800 O   0  0  0  0  0  0  0  0  0  0  0  0
   37.3260   26.0160   32.4950 H   0  0  0  0  0  0  0  0  0  0  0  0
   40.4670   22.2860   35.8880 O   0  0  0  0  0  0  0  0  0  0  0  0
   42.6290   20.6840   35.6650 O   0  0  0  0  0  0  0  0  0  0  0  0
   41.9300   21.6940   36.5540 P   0  0  0  0  0  0  0  0  0  0  0  0
   42.9070   23.0690   36.7620 O   0  0  0  0  0  0  0  0  0  0  0  0
   43.7780   22.7480   37.0940 H   0  0  0  0  0  0  0  0  0  0  0  0
   41.6300   20.9150   38.0310 O   0  0  0  0  0  0  0  0  0  0  0  0
   40.9980   21.4100   38.5770 H   0  0  0  0  0  0  0  0  0  0  0  0
  1  6  1  0  0  0  0
  2  1  2  0  0  0  0
  2  3  1  0  0  0  0
  3  4  2  0  0  0  0
  4  5  1  0  0  0  0
  5  8  1  0  0  0  0
  6  5  2  0  0  0  0
  7  3  1  0  0  0  0
  9 16  1  6  0  0  0
  9 14  1  0  0  0  0
  9 10  1  0  0  0  0
 10  2  1  1  0  0  0
 11 10  1  0  0  0  0
 11 13  1  0  0  0  0
 12 11  1  0  0  0  0
 14 13  1  0  0  0  0
 14 15  1  0  0  0  0
 17 16  1  0  0  0  0
 18 20  1  0  0  0  0
 18  1  1  0  0  0  0
 19 20  2  0  0  0  0
 20 21  1  0  0  0  0
 20 23  1  0  0  0  0
 21 22  1  0  0  0  0
 23 24  1  0  0  0  0
M  END
>  <minimizedAffinity>
-4.31379223

$$$$
