
 OpenBabel03272508183D

 25 27  0  0  1  0  0  0  0  0999 V2000
   37.8640   31.5770   47.5250 C   0  0  0  0  0  0  0  0  0  0  0  0
   36.9950   31.3250   48.5900 C   0  0  0  0  0  0  0  0  0  0  0  0
   37.1840   32.1670   49.7070 C   0  0  0  0  0  0  0  0  0  0  0  0
   38.1530   33.1340   49.6910 N   0  0  0  0  0  0  0  0  0  0  0  0
   38.9690   33.3280   48.6200 C   0  0  0  0  0  0  0  0  0  0  0  0
   38.8190   32.5450   47.5380 N   0  0  0  0  0  0  0  0  0  0  0  0
   36.6520   32.1750   50.6280 H   0  0  0  0  0  0  0  0  0  0  0  0
   39.7250   34.0970   48.6310 H   0  0  0  0  0  0  0  0  0  0  0  0
   37.6090   30.7670   46.2780 C   0  0  0  0  0  0  0  0  0  0  0  0
   37.9090   31.2900   44.9720 C   0  0  0  0  0  0  0  0  0  0  0  0
   38.9310   30.3770   45.5970 C   0  0  0  0  0  0  0  0  0  0  0  0
   36.9880   29.8620   46.4540 H   0  0  0  0  0  0  0  0  0  0  0  0
   38.2780   32.3570   44.9130 H   0  0  0  0  0  0  0  0  0  0  0  0
   37.4400   30.8880   44.0600 H   0  0  0  0  0  0  0  0  0  0  0  0
   38.9820   29.3310   45.2520 H   0  0  0  0  0  0  0  0  0  0  0  0
   39.8540   30.7820   46.0200 H   0  0  0  0  0  0  0  0  0  0  0  0
   36.3310   28.9980   49.2750 C   0  0  2  0  0  3  0  0  0  0  0  0
   35.9520   30.3180   48.6340 C   0  0  1  0  0  3  0  0  0  0  0  0
   34.8810   30.7060   49.6730 C   0  0  0  0  0  3  0  0  0  0  0  0
   35.4040   30.7710   50.6540 H   0  0  0  0  0  0  0  0  0  0  0  0
   34.0980   29.5490   49.7820 O   0  0  0  0  0  0  0  0  0  0  0  0
   34.9340   28.4700   49.5470 C   0  0  0  0  0  3  0  0  0  0  0  0
   34.9270   27.6960   50.3280 H   0  0  0  0  0  0  0  0  0  0  0  0
   37.0100   29.1810   50.4560 O   0  0  0  0  0  0  0  0  0  0  0  0
   37.7350   28.4860   50.5070 H   0  0  0  0  0  0  0  0  0  0  0  0
  1  6  2  0  0  0  0
  1  2  1  0  0  0  0
  2  3  2  0  0  0  0
  3  7  1  0  0  0  0
  4  3  1  0  0  0  0
  5  8  1  0  0  0  0
  5  4  2  0  0  0  0
  6  5  1  0  0  0  0
  9 12  1  0  0  0  0
  9  1  1  0  0  0  0
 10 11  1  0  0  0  0
 10  9  1  0  0  0  0
 11 16  1  0  0  0  0
 11  9  1  0  0  0  0
 13 10  1  0  0  0  0
 14 10  1  0  0  0  0
 15 11  1  0  0  0  0
 17 22  1  0  0  0  0
 17 24  1  1  0  0  0
 18  2  1  1  0  0  0
 18 17  1  0  0  0  0
 18 19  1  0  0  0  0
 19 21  1  0  0  0  0
 19 20  1  0  0  0  0
 22 21  1  0  0  0  0
 22 23  1  0  0  0  0
 24 25  1  0  0  0  0
M  END
>  <minimizedAffinity>
-4.93765402

>  <minimizedRMSD>
4.25058699

$$$$
