
 OpenBabel03272505263D

 31 33  0  0  1  0  0  0  0  0999 V2000
   37.4520   31.0860   47.0080 N   0  0  0  0  0  0  0  0  0  0  0  0
   36.9000   30.6950   45.8270 C   0  0  0  0  0  0  0  0  0  0  0  0
   37.3890   31.1240   44.6040 C   0  0  0  0  0  0  0  0  0  0  0  0
   38.4930   31.9910   44.6210 C   0  0  0  0  0  0  0  0  0  0  0  0
   38.9620   32.3980   43.5380 O   0  0  0  0  0  0  0  0  0  0  0  0
   39.0470   32.3850   45.8020 N   0  0  0  0  0  0  0  0  0  0  0  0
   38.4850   31.9020   46.9190 C   0  0  0  0  0  0  0  0  0  0  0  0
   39.0240   32.2900   47.9800 O   0  0  0  0  0  0  0  0  0  0  0  0
   36.0450   30.0230   45.8490 H   0  0  0  0  0  0  0  0  0  0  0  0
   37.2800   29.6340   50.4210 C   0  0  0  0  0  0  0  0  0  0  0  0
   37.7780   30.0780   49.1890 C   0  0  0  0  0  0  0  0  0  0  0  0
   36.9500   30.6420   48.2340 C   0  0  0  0  0  0  0  0  0  0  0  0
   35.6200   30.7590   48.5180 N   0  0  0  0  0  0  0  0  0  0  0  0
   35.1270   30.3270   49.7190 C   0  0  0  0  0  0  0  0  0  0  0  0
   35.9410   29.7730   50.6600 N   0  0  0  0  0  0  0  0  0  0  0  0
   37.8510   29.1920   51.2050 H   0  0  0  0  0  0  0  0  0  0  0  0
   38.8360   29.8970   49.1360 H   0  0  0  0  0  0  0  0  0  0  0  0
   34.0740   30.4750   49.8160 H   0  0  0  0  0  0  0  0  0  0  0  0
   35.5450   31.5330   43.1000 C   0  0  2  0  0  3  0  0  0  0  0  0
   36.7460   30.6640   43.3890 C   0  0  2  0  0  3  0  0  0  0  0  0
   36.1520   29.2970   43.4370 C   0  0  0  0  0  3  0  0  0  0  0  0
   36.6860   28.5670   44.0490 H   0  0  0  0  0  0  0  0  0  0  0  0
   34.8120   29.4300   43.7730 O   0  0  0  0  0  0  0  0  0  0  0  0
   34.3900   30.5790   43.1570 C   0  0  0  0  0  3  0  0  0  0  0  0
   33.9920   30.3830   42.1190 H   0  0  0  0  0  0  0  0  0  0  0  0
   35.6790   32.1040   41.8180 O   0  0  0  0  0  0  0  0  0  0  0  0
   36.4740   32.6830   41.8260 H   0  0  0  0  0  0  0  0  0  0  0  0
   40.1830   33.2770   45.8140 C   0  0  0  0  0  0  0  0  0  0  0  0
   40.0050   34.2560   44.8630 F   0  0  0  0  0  0  0  0  0  0  0  0
   41.3740   32.6550   45.5420 F   0  0  0  0  0  0  0  0  0  0  0  0
   40.2290   33.9190   47.0520 F   0  0  0  0  0  0  0  0  0  0  0  0
  1 12  1  0  0  0  0
  2  9  1  0  0  0  0
  2  1  1  0  0  0  0
  3  4  1  0  0  0  0
  3  2  2  0  0  0  0
  4  6  1  0  0  0  0
  5  4  2  0  0  0  0
  6 28  1  0  0  0  0
  6  7  1  0  0  0  0
  7  1  1  0  0  0  0
  7  8  2  0  0  0  0
 10 15  1  0  0  0  0
 10 16  1  0  0  0  0
 11 10  2  0  0  0  0
 12 13  2  0  0  0  0
 12 11  1  0  0  0  0
 13 14  1  0  0  0  0
 14 18  1  0  0  0  0
 14 15  2  0  0  0  0
 17 11  1  0  0  0  0
 19 26  1  6  0  0  0
 19 24  1  0  0  0  0
 19 20  1  0  0  0  0
 20 21  1  0  0  0  0
 20  3  1  1  0  0  0
 21 23  1  0  0  0  0
 21 22  1  0  0  0  0
 24 23  1  0  0  0  0
 25 24  1  0  0  0  0
 26 27  1  0  0  0  0
 28 31  1  0  0  0  0
 29 28  1  0  0  0  0
 30 28  1  0  0  0  0
M  END
>  <minimizedAffinity>
-6.12971067

>  <minimizedRMSD>
0.259623528

$$$$
