
 OpenBabel03272508183D

 25 27  0  0  1  0  0  0  0  0999 V2000
   36.3990   30.5330   48.3450 C   0  0  0  0  0  0  0  0  0  0  0  0
   37.0230   30.7620   47.1150 C   0  0  0  0  0  0  0  0  0  0  0  0
   36.2340   30.4360   45.9930 C   0  0  0  0  0  0  0  0  0  0  0  0
   34.9680   29.9410   46.1540 N   0  0  0  0  0  0  0  0  0  0  0  0
   34.4170   29.7400   47.3820 C   0  0  0  0  0  0  0  0  0  0  0  0
   35.1390   30.0380   48.4750 N   0  0  0  0  0  0  0  0  0  0  0  0
   36.4810   30.5220   44.9620 H   0  0  0  0  0  0  0  0  0  0  0  0
   33.4160   29.3490   47.4840 H   0  0  0  0  0  0  0  0  0  0  0  0
   37.1790   30.9780   49.5570 C   0  0  0  0  0  0  0  0  0  0  0  0
   36.7690   30.6100   50.8870 C   0  0  0  0  0  0  0  0  0  0  0  0
   37.8520   29.7800   50.2480 C   0  0  0  0  0  0  0  0  0  0  0  0
   37.9320   31.7650   49.3380 H   0  0  0  0  0  0  0  0  0  0  0  0
   35.8020   30.0330   50.9900 H   0  0  0  0  0  0  0  0  0  0  0  0
   37.0950   31.1730   51.7750 H   0  0  0  0  0  0  0  0  0  0  0  0
   38.8970   29.9510   50.5560 H   0  0  0  0  0  0  0  0  0  0  0  0
   37.6310   28.7830   49.8560 H   0  0  0  0  0  0  0  0  0  0  0  0
   38.6260   31.9030   45.5480 C   0  0  2  0  0  3  0  0  0  0  0  0
   38.3560   31.2950   46.9110 C   0  0  1  0  0  3  0  0  0  0  0  0
   38.5360   32.5990   47.7140 C   0  0  0  0  0  3  0  0  0  0  0  0
   37.7680   33.3090   47.3340 H   0  0  0  0  0  0  0  0  0  0  0  0
   39.7450   33.1150   47.2290 O   0  0  0  0  0  0  0  0  0  0  0  0
   39.8550   32.7200   45.9070 C   0  0  0  0  0  3  0  0  0  0  0  0
   40.0350   33.5350   45.1900 H   0  0  0  0  0  0  0  0  0  0  0  0
   37.6030   32.7290   45.1480 O   0  0  0  0  0  0  0  0  0  0  0  0
   37.4670   32.5950   44.1610 H   0  0  0  0  0  0  0  0  0  0  0  0
  1  6  1  0  0  0  0
  1  9  1  0  0  0  0
  2  1  2  0  0  0  0
  3  4  2  0  0  0  0
  3  2  1  0  0  0  0
  4  5  1  0  0  0  0
  5  8  1  0  0  0  0
  5  6  2  0  0  0  0
  7  3  1  0  0  0  0
  9 11  1  0  0  0  0
  9 10  1  0  0  0  0
 10 13  1  0  0  0  0
 10 14  1  0  0  0  0
 11 15  1  0  0  0  0
 11 10  1  0  0  0  0
 12  9  1  0  0  0  0
 16 11  1  0  0  0  0
 17 24  1  1  0  0  0
 17 22  1  0  0  0  0
 17 18  1  0  0  0  0
 18  2  1  6  0  0  0
 18 19  1  0  0  0  0
 20 19  1  0  0  0  0
 21 19  1  0  0  0  0
 22 21  1  0  0  0  0
 23 22  1  0  0  0  0
 25 24  1  0  0  0  0
M  END
>  <minimizedAffinity>
-5.15112972

>  <minimizedRMSD>
4.52362013

$$$$
