
 OpenBabel03272506343D

 19 20  0  0  1  0  0  0  0  0999 V2000
   37.4240   30.3330   50.7930 C   0  0  0  0  0  0  0  0  0  0  0  0
   38.3680   31.2000   50.2500 C   0  0  0  0  0  0  0  0  0  0  0  0
   38.1470   31.7110   48.9630 C   0  0  0  0  0  0  0  0  0  0  0  0
   37.0210   31.3330   48.3090 N   0  0  0  0  0  0  0  0  0  0  0  0
   36.1060   30.4790   48.8660 C   0  0  0  0  0  0  0  0  0  0  0  0
   36.3260   29.9950   50.0990 N   0  0  0  0  0  0  0  0  0  0  0  0
   39.2830   31.5510   50.6930 H   0  0  0  0  0  0  0  0  0  0  0  0
   38.8440   32.3890   48.4860 H   0  0  0  0  0  0  0  0  0  0  0  0
   34.5600   28.6130   48.4070 C   0  0  2  0  0  3  0  0  0  0  0  0
   34.8770   30.0710   48.1440 C   0  0  2  0  0  3  0  0  0  0  0  0
   35.1280   29.9960   46.6320 C   0  0  0  0  0  3  0  0  0  0  0  0
   36.0020   29.3700   46.4560 H   0  0  0  0  0  0  0  0  0  0  0  0
   33.9940   29.2980   46.2350 O   0  0  0  0  0  0  0  0  0  0  0  0
   33.8130   28.2610   47.1290 C   0  0  0  0  0  3  0  0  0  0  0  0
   32.7290   28.1900   47.4320 H   0  0  0  0  0  0  0  0  0  0  0  0
   33.7890   28.4200   49.5460 O   0  0  0  0  0  0  0  0  0  0  0  0
   33.8540   27.4290   49.7280 H   0  0  0  0  0  0  0  0  0  0  0  0
   37.7670   29.9060   52.0700 O   0  0  0  0  0  0  0  0  0  0  0  0
   37.6330   30.4690   52.8950 H   0  0  0  0  0  0  0  0  0  0  0  0
  1 18  1  0  0  0  0
  2  7  1  0  0  0  0
  2  1  1  0  0  0  0
  3  2  2  0  0  0  0
  4  5  2  0  0  0  0
  4  3  1  0  0  0  0
  5  6  1  0  0  0  0
  6  1  2  0  0  0  0
  8  3  1  0  0  0  0
  9 16  1  1  0  0  0
 10  9  1  0  0  0  0
 10  5  1  1  0  0  0
 11 10  1  0  0  0  0
 12 11  1  0  0  0  0
 13 11  1  0  0  0  0
 13 14  1  0  0  0  0
 14 15  1  0  0  0  0
 14  9  1  0  0  0  0
 16 17  1  0  0  0  0
 18 19  1  0  0  0  0
M  END
>  <minimizedAffinity>
-4.62920952

>  <minimizedRMSD>
1.40438235

$$$$
