
 OpenBabel03272500073D

 39 42  0  0  1  0  0  0  0  0999 V2000
   32.4400   27.0260   48.1630 O   0  0  0  0  0  0  0  0  0  0  0  0
   31.1020   27.4460   48.2850 C   0  0  0  0  0  0  0  0  0  0  0  0
   30.7670   27.7640   49.6040 C   0  0  0  0  0  0  0  0  0  0  0  0
   29.5020   28.1960   49.9230 C   0  0  0  0  0  0  0  0  0  0  0  0
   28.5640   28.3110   48.9090 C   0  0  0  0  0  0  0  0  0  0  0  0
   28.9230   27.9920   47.6240 C   0  0  0  0  0  0  0  0  0  0  0  0
   30.1820   27.5540   47.2660 C   0  0  0  0  0  0  0  0  0  0  0  0
   31.4530   27.6950   50.4430 H   0  0  0  0  0  0  0  0  0  0  0  0
   29.2260   28.4470   50.9370 H   0  0  0  0  0  0  0  0  0  0  0  0
   27.5630   28.6540   49.1530 H   0  0  0  0  0  0  0  0  0  0  0  0
   28.1530   28.1010   46.8760 H   0  0  0  0  0  0  0  0  0  0  0  0
   30.6100   25.6980   45.6540 C   0  0  2  0  0  3  0  0  0  0  0  0
   30.5940   27.1910   45.9220 C   0  0  1  0  0  3  0  0  0  0  0  0
   29.5550   27.5570   44.8450 C   0  0  0  0  0  3  0  0  0  0  0  0
   28.5680   27.1100   45.1030 H   0  0  0  0  0  0  0  0  0  0  0  0
   29.9760   26.8590   43.7130 O   0  0  0  0  0  0  0  0  0  0  0  0
   30.7320   25.7750   44.1260 C   0  0  0  0  0  3  0  0  0  0  0  0
   30.4190   24.8270   43.6580 H   0  0  0  0  0  0  0  0  0  0  0  0
   29.3970   25.1290   45.9480 O   0  0  0  0  0  0  0  0  0  0  0  0
   29.4110   24.6190   46.8010 H   0  0  0  0  0  0  0  0  0  0  0  0
   35.3900   28.8160   49.1420 C   0  0  0  0  0  0  0  0  0  0  0  0
   35.3220   30.0010   48.3960 C   0  0  0  0  0  0  0  0  0  0  0  0
   34.2270   30.1600   47.5460 C   0  0  0  0  0  0  0  0  0  0  0  0
   33.3000   29.1670   47.4930 N   0  0  0  0  0  0  0  0  0  0  0  0
   33.3910   28.0500   48.2160 C   0  0  0  0  0  0  0  0  0  0  0  0
   34.4460   27.8630   49.0550 N   0  0  0  0  0  0  0  0  0  0  0  0
   36.2520   28.6970   49.8090 H   0  0  0  0  0  0  0  0  0  0  0  0
   34.1600   31.0600   46.9670 H   0  0  0  0  0  0  0  0  0  0  0  0
   36.3570   30.9570   48.5410 N   0  0  0  0  0  0  0  0  0  0  0  0
   36.5570   31.6250   49.6710 C   0  0  0  0  0  0  0  0  0  0  0  0
   37.5990   32.5510   49.7360 C   0  0  0  0  0  0  0  0  0  0  0  0
   38.3400   32.6920   48.6050 C   0  0  0  0  0  0  0  0  0  0  0  0
   39.2850   33.5260   48.6490 O   0  0  0  0  0  0  0  0  0  0  0  0
   38.1720   32.0450   47.4640 N   0  0  0  0  0  0  0  0  0  0  0  0
   37.1460   31.1450   47.4280 C   0  0  0  0  0  0  0  0  0  0  0  0
   36.9710   30.5160   46.3400 O   0  0  0  0  0  0  0  0  0  0  0  0
   35.9390   31.4730   50.5400 H   0  0  0  0  0  0  0  0  0  0  0  0
   37.7600   33.0930   50.6560 H   0  0  0  0  0  0  0  0  0  0  0  0
   38.7860   32.2110   46.6360 H   0  0  0  0  0  0  0  0  0  0  0  0
  1 25  1  0  0  0  0
  1  2  1  0  0  0  0
  2  3  1  0  0  0  0
  3  4  2  0  0  0  0
  3  8  1  0  0  0  0
  4  9  1  0  0  0  0
  5 10  1  0  0  0  0
  5  4  1  0  0  0  0
  6  5  2  0  0  0  0
  7  6  1  0  0  0  0
  7  2  2  0  0  0  0
 11  6  1  0  0  0  0
 12 13  1  0  0  0  0
 12 19  1  6  0  0  0
 13  7  1  1  0  0  0
 14 15  1  0  0  0  0
 14 13  1  0  0  0  0
 16 17  1  0  0  0  0
 16 14  1  0  0  0  0
 17 12  1  0  0  0  0
 18 17  1  0  0  0  0
 19 20  1  0  0  0  0
 21 27  1  0  0  0  0
 22 29  1  0  0  0  0
 22 21  2  0  0  0  0
 23 22  1  0  0  0  0
 24 23  2  0  0  0  0
 24 25  1  0  0  0  0
 25 26  2  0  0  0  0
 26 21  1  0  0  0  0
 28 23  1  0  0  0  0
 29 30  1  0  0  0  0
 30 31  2  0  0  0  0
 30 37  1  0  0  0  0
 31 38  1  0  0  0  0
 32 33  2  0  0  0  0
 32 31  1  0  0  0  0
 34 32  1  0  0  0  0
 35 34  1  0  0  0  0
 35 29  1  0  0  0  0
 36 35  2  0  0  0  0
 39 34  1  0  0  0  0
M  END
>  <minimizedAffinity>
-5.85782623

>  <minimizedRMSD>
0.705414951

$$$$
