
 OpenBabel03272509583D

 46 49  0  0  1  0  0  0  0  0999 V2000
   34.4880   28.5110   48.2960 C   0  0  0  0  0  0  0  0  0  0  0  0
   34.1720   29.3370   47.6240 H   0  0  0  0  0  0  0  0  0  0  0  0
   35.5320   28.2810   48.0040 H   0  0  0  0  0  0  0  0  0  0  0  0
   33.5740   27.3280   48.2380 C   0  0  0  0  0  0  0  0  0  0  0  0
   33.5530   26.7450   49.1740 H   0  0  0  0  0  0  0  0  0  0  0  0
   33.9970   26.6410   47.4510 H   0  0  0  0  0  0  0  0  0  0  0  0
   32.1890   27.6960   47.8510 C   0  0  0  0  0  0  0  0  0  0  0  0
   31.2020   27.5650   48.8290 C   0  0  0  0  0  0  0  0  0  0  0  0
   29.8840   27.8820   48.5680 C   0  0  0  0  0  0  0  0  0  0  0  0
   29.5430   28.3250   47.3480 N   0  0  0  0  0  0  0  0  0  0  0  0
   30.5350   28.4420   46.4150 C   0  0  0  0  0  0  0  0  0  0  0  0
   31.8210   28.1470   46.6250 N   0  0  0  0  0  0  0  0  0  0  0  0
   31.4670   27.2090   49.8110 H   0  0  0  0  0  0  0  0  0  0  0  0
   29.1330   27.7730   49.3390 H   0  0  0  0  0  0  0  0  0  0  0  0
   30.0890   28.9300   45.0750 C   0  0  0  0  0  0  0  0  0  0  0  0
   29.1950   28.3670   44.7530 H   0  0  0  0  0  0  0  0  0  0  0  0
   30.8660   28.7510   44.3150 H   0  0  0  0  0  0  0  0  0  0  0  0
   30.3450   32.4670   44.1720 C   0  0  1  0  0  3  0  0  0  0  0  0
   30.9620   31.2910   44.9380 C   0  0  0  0  0  3  0  0  0  0  0  0
   31.8130   30.8850   44.3950 H   0  0  0  0  0  0  0  0  0  0  0  0
   29.7790   30.3980   45.0740 C   0  0  1  0  0  3  0  0  0  0  0  0
   28.8530   30.7650   44.1230 O   0  0  0  0  0  0  0  0  0  0  0  0
   28.8600   32.1560   44.1790 C   0  0  0  0  0  3  0  0  0  0  0  0
   28.3560   32.5470   43.2710 H   0  0  0  0  0  0  0  0  0  0  0  0
   30.6140   33.6860   44.7880 O   0  0  0  0  0  0  0  0  0  0  0  0
   31.5860   33.8070   44.7750 H   0  0  0  0  0  0  0  0  0  0  0  0
   34.5050   29.0700   49.6000 O   0  0  0  0  0  0  0  0  0  0  0  0
   37.3270   30.0460   51.6440 C   0  0  0  0  0  0  0  0  0  0  0  0
   38.1220   30.7050   50.6690 C   0  0  0  0  0  0  0  0  0  0  0  0
   37.6300   30.7700   49.3650 C   0  0  0  0  0  0  0  0  0  0  0  0
   36.4120   30.1800   49.1630 N   0  0  0  0  0  0  0  0  0  0  0  0
   35.6770   29.5650   50.0840 C   0  0  0  0  0  0  0  0  0  0  0  0
   36.1530   29.5030   51.3500 N   0  0  0  0  0  0  0  0  0  0  0  0
   37.7220   30.0050   52.6500 H   0  0  0  0  0  0  0  0  0  0  0  0
   39.0700   31.1540   50.8640 H   0  0  0  0  0  0  0  0  0  0  0  0
   38.8410   33.3940   49.2270 F   0  0  0  0  0  0  0  0  0  0  0  0
   38.8670   32.6060   48.1720 C   0  0  0  0  0  0  0  0  0  0  0  0
   38.3010   31.3950   48.2590 C   0  0  0  0  0  0  0  0  0  0  0  0
   38.3880   30.6410   47.0780 C   0  0  0  0  0  0  0  0  0  0  0  0
   38.9970   31.1060   45.9440 C   0  0  0  0  0  0  0  0  0  0  0  0
   39.5660   32.3640   45.9080 C   0  0  0  0  0  0  0  0  0  0  0  0
   39.4880   33.1060   47.0510 C   0  0  0  0  0  0  0  0  0  0  0  0
   37.9660   29.6340   47.0070 H   0  0  0  0  0  0  0  0  0  0  0  0
   39.0580   30.5140   45.0380 H   0  0  0  0  0  0  0  0  0  0  0  0
   40.0450   32.7210   45.0070 H   0  0  0  0  0  0  0  0  0  0  0  0
   39.9310   34.0900   47.0310 H   0  0  0  0  0  0  0  0  0  0  0  0
  1 27  1  0  0  0  0
  2  1  1  0  0  0  0
  3  1  1  0  0  0  0
  4  1  1  0  0  0  0
  4  5  1  0  0  0  0
  6  4  1  0  0  0  0
  7  4  1  0  0  0  0
  7  8  1  0  0  0  0
  8 13  1  0  0  0  0
  9  8  2  0  0  0  0
  9 14  1  0  0  0  0
 10  9  1  0  0  0  0
 11 12  1  0  0  0  0
 11 10  2  0  0  0  0
 12  7  2  0  0  0  0
 15 11  1  0  0  0  0
 16 15  1  0  0  0  0
 17 15  1  0  0  0  0
 18 23  1  0  0  0  0
 18 25  1  1  0  0  0
 18 19  1  0  0  0  0
 19 21  1  0  0  0  0
 20 19  1  0  0  0  0
 21 15  1  6  0  0  0
 22 23  1  0  0  0  0
 22 21  1  0  0  0  0
 24 23  1  0  0  0  0
 26 25  1  0  0  0  0
 27 32  1  0  0  0  0
 28 34  1  0  0  0  0
 29 35  1  0  0  0  0
 29 28  2  0  0  0  0
 30 29  1  0  0  0  0
 31 30  2  0  0  0  0
 31 32  1  0  0  0  0
 32 33  2  0  0  0  0
 33 28  1  0  0  0  0
 37 38  1  0  0  0  0
 37 36  1  0  0  0  0
 38 30  1  0  0  0  0
 39 38  2  0  0  0  0
 40 39  1  0  0  0  0
 41 40  2  0  0  0  0
 41 42  1  0  0  0  0
 42 37  2  0  0  0  0
 43 39  1  0  0  0  0
 44 40  1  0  0  0  0
 45 41  1  0  0  0  0
 46 42  1  0  0  0  0
M  END
>  <minimizedAffinity>
-6.65993452

>  <minimizedRMSD>
0.818092525

$$$$
