
 OpenBabel03272506393D

 37 39  0  0  1  0  0  0  0  0999 V2000
   34.1970   29.3930   49.8210 O   0  0  0  0  0  0  0  0  0  0  0  0
   34.2260   29.4400   48.5750 C   0  0  0  0  0  0  0  0  0  0  0  0
   35.1610   30.2970   47.8800 C   0  0  2  0  0  0  0  0  0  0  0  0
   34.9300   29.8410   46.4040 C   0  0  0  0  0  0  0  0  0  0  0  0
   33.5120   29.3560   46.4190 C   0  0  0  0  0  0  0  0  0  0  0  0
   33.3660   28.6800   47.6950 N   0  0  0  0  0  0  0  0  0  0  0  0
   34.9940   31.3760   47.9190 H   0  0  0  0  0  0  0  0  0  0  0  0
   35.1270   30.6790   45.7220 H   0  0  0  0  0  0  0  0  0  0  0  0
   35.6360   29.0340   46.2200 H   0  0  0  0  0  0  0  0  0  0  0  0
   32.7770   30.1760   46.2850 H   0  0  0  0  0  0  0  0  0  0  0  0
   33.4160   28.5950   45.6200 H   0  0  0  0  0  0  0  0  0  0  0  0
   32.5620   27.5160   48.0480 C   0  0  0  0  0  0  0  0  0  0  0  0
   32.5240   26.7550   47.2430 H   0  0  0  0  0  0  0  0  0  0  0  0
   33.1250   27.0050   48.8830 H   0  0  0  0  0  0  0  0  0  0  0  0
   29.2220   27.1910   47.5240 C   0  0  2  0  0  3  0  0  0  0  0  0
   30.3340   28.1990   47.3510 C   0  0  0  0  0  3  0  0  0  0  0  0
   30.8660   28.0180   46.3910 H   0  0  0  0  0  0  0  0  0  0  0  0
   31.2160   27.9210   48.5440 C   0  0  1  0  0  3  0  0  0  0  0  0
   30.6520   26.8270   49.2000 O   0  0  0  0  0  0  0  0  0  0  0  0
   29.2780   26.9330   49.0110 C   0  0  0  0  0  3  0  0  0  0  0  0
   28.8640   25.9330   49.2760 H   0  0  0  0  0  0  0  0  0  0  0  0
   29.6000   26.0220   46.8690 O   0  0  0  0  0  0  0  0  0  0  0  0
   30.2860   25.5510   47.4260 H   0  0  0  0  0  0  0  0  0  0  0  0
   36.5350   30.0210   48.1570 O   0  0  0  0  0  0  0  0  0  0  0  0
   37.4020   31.1030   48.2440 C   0  0  0  0  0  0  0  0  0  0  0  0
   37.5770   31.6600   49.4990 C   0  0  0  0  0  0  0  0  0  0  0  0
   38.4350   32.7430   49.6260 C   0  0  0  0  0  0  0  0  0  0  0  0
   39.0660   33.2110   48.5120 N   0  0  0  0  0  0  0  0  0  0  0  0
   38.8860   32.6620   47.3010 C   0  0  0  0  0  0  0  0  0  0  0  0
   38.0650   31.6280   47.1960 N   0  0  0  0  0  0  0  0  0  0  0  0
   40.3960   32.2100   45.5300 C   0  0  0  0  0  0  0  0  0  0  0  0
   40.5900   31.0060   45.8660 O   0  0  0  0  0  0  0  0  0  0  0  0
   39.5600   33.1790   46.1590 N   0  0  0  0  0  0  0  0  0  0  0  0
   37.1020   31.3270   50.4080 H   0  0  0  0  0  0  0  0  0  0  0  0
   38.5970   33.2030   50.5820 H   0  0  0  0  0  0  0  0  0  0  0  0
   40.9740   32.4580   44.6450 H   0  0  0  0  0  0  0  0  0  0  0  0
   39.4800   34.1500   45.7870 H   0  0  0  0  0  0  0  0  0  0  0  0
  2  1  2  0  0  0  0
  3  7  1  1  0  0  0
  3 24  1  0  0  0  0
  3  2  1  0  0  0  0
  4  5  1  0  0  0  0
  4  3  1  0  0  0  0
  5  6  1  0  0  0  0
  6 12  1  0  0  0  0
  6  2  1  0  0  0  0
  8  4  1  0  0  0  0
  9  4  1  0  0  0  0
 10  5  1  0  0  0  0
 11  5  1  0  0  0  0
 12 14  1  0  0  0  0
 13 12  1  0  0  0  0
 15 22  1  6  0  0  0
 15 20  1  0  0  0  0
 16 15  1  0  0  0  0
 16 18  1  0  0  0  0
 17 16  1  0  0  0  0
 18 12  1  6  0  0  0
 18 19  1  0  0  0  0
 20 19  1  0  0  0  0
 20 21  1  0  0  0  0
 22 23  1  0  0  0  0
 24 25  1  0  0  0  0
 25 26  1  0  0  0  0
 26 27  2  0  0  0  0
 26 34  1  0  0  0  0
 27 35  1  0  0  0  0
 28 27  1  0  0  0  0
 29 28  2  0  0  0  0
 30 29  1  0  0  0  0
 30 25  2  0  0  0  0
 31 32  2  0  0  0  0
 31 33  1  0  0  0  0
 33 29  1  0  0  0  0
 36 31  1  0  0  0  0
 37 33  1  0  0  0  0
M  END
>  <minimizedAffinity>
-5.74847794

>  <minimizedRMSD>
1.05555534

$$$$
