
 OpenBabel03262520423D

 21 22  0  0  1  0  0  0  0  0999 V2000
   37.8110   31.7380   47.8330 C   0  0  0  0  0  0  0  0  0  0  0  0
   36.9370   32.0140   47.2180 H   0  0  0  0  0  0  0  0  0  0  0  0
   38.2760   32.6730   48.2300 H   0  0  0  0  0  0  0  0  0  0  0  0
   37.4500   30.2930   51.2890 C   0  0  0  0  0  0  0  0  0  0  0  0
   37.8690   31.1280   50.2090 C   0  0  0  0  0  0  0  0  0  0  0  0
   37.3710   30.8670   48.9410 C   0  0  0  0  0  0  0  0  0  0  0  0
   36.5100   29.8360   48.7780 N   0  0  0  0  0  0  0  0  0  0  0  0
   36.1220   29.0500   49.8220 C   0  0  0  0  0  0  0  0  0  0  0  0
   36.5920   29.2860   51.0530 N   0  0  0  0  0  0  0  0  0  0  0  0
   37.8900   30.5730   52.2330 H   0  0  0  0  0  0  0  0  0  0  0  0
   38.5640   31.9520   50.3710 H   0  0  0  0  0  0  0  0  0  0  0  0
   35.4230   28.2240   49.6550 H   0  0  0  0  0  0  0  0  0  0  0  0
   40.4170   31.2980   45.2560 C   0  0  2  0  0  0  0  0  0  0  0  0
   39.7610   32.1310   46.3520 C   0  0  0  0  0  0  0  0  0  0  0  0
   40.4930   32.4650   47.0870 H   0  0  0  0  0  0  0  0  0  0  0  0
   38.8240   31.0700   46.9380 C   0  0  2  0  0  0  0  0  0  0  0  0
   38.2880   30.4940   45.8180 O   0  0  0  0  0  0  0  0  0  0  0  0
   39.3290   30.2980   44.9460 C   0  0  0  0  0  0  0  0  0  0  0  0
   39.0510   30.4840   43.8770 H   0  0  0  0  0  0  0  0  0  0  0  0
   41.5400   30.7030   45.8130 O   0  0  0  0  0  0  0  0  0  0  0  0
   41.6880   30.9720   46.7500 H   0  0  0  0  0  0  0  0  0  0  0  0
  1  3  1  0  0  0  0
  1  6  1  0  0  0  0
  2  1  1  0  0  0  0
  4 10  1  0  0  0  0
  5 11  1  0  0  0  0
  5  4  2  0  0  0  0
  6  5  1  0  0  0  0
  7  6  2  0  0  0  0
  7  8  1  0  0  0  0
  8  9  2  0  0  0  0
  9  4  1  0  0  0  0
 12  8  1  0  0  0  0
 13 20  1  1  0  0  0
 13 14  1  0  0  0  0
 14 16  1  0  0  0  0
 14 15  1  0  0  0  0
 16  1  1  1  0  0  0
 17 16  1  0  0  0  0
 18 13  1  0  0  0  0
 18 17  1  0  0  0  0
 19 18  1  0  0  0  0
 20 21  1  0  0  0  0
M  END
>  <minimizedAffinity>
-4.91295099

>  <minimizedRMSD>
1.27635729

$$$$
