
 OpenBabel03272506393D

 37 39  0  0  1  0  0  0  0  0999 V2000
   34.0350   28.8880   48.7670 O   0  0  0  0  0  0  0  0  0  0  0  0
   34.4370   29.1270   47.6120 C   0  0  0  0  0  0  0  0  0  0  0  0
   35.4030   30.1730   47.3570 C   0  0  2  0  0  0  0  0  0  0  0  0
   35.7060   29.9270   45.8450 C   0  0  0  0  0  0  0  0  0  0  0  0
   34.4390   29.3000   45.3460 C   0  0  0  0  0  0  0  0  0  0  0  0
   34.0100   28.4250   46.4210 N   0  0  0  0  0  0  0  0  0  0  0  0
   35.0750   31.2100   47.4600 H   0  0  0  0  0  0  0  0  0  0  0  0
   35.9760   30.8750   45.3610 H   0  0  0  0  0  0  0  0  0  0  0  0
   36.5450   29.2350   45.8100 H   0  0  0  0  0  0  0  0  0  0  0  0
   33.6680   30.0490   45.0740 H   0  0  0  0  0  0  0  0  0  0  0  0
   34.7060   28.6650   44.4780 H   0  0  0  0  0  0  0  0  0  0  0  0
   33.3170   27.1430   46.3620 C   0  0  0  0  0  0  0  0  0  0  0  0
   33.9130   26.3520   45.8640 H   0  0  0  0  0  0  0  0  0  0  0  0
   33.2400   26.7950   47.4330 H   0  0  0  0  0  0  0  0  0  0  0  0
   30.5900   29.1650   46.2710 C   0  0  2  0  0  3  0  0  0  0  0  0
   31.0500   27.8610   46.8770 C   0  0  0  0  0  3  0  0  0  0  0  0
   31.6090   28.0520   47.8200 H   0  0  0  0  0  0  0  0  0  0  0  0
   31.9460   27.2970   45.8000 C   0  0  1  0  0  3  0  0  0  0  0  0
   31.9990   28.2620   44.7940 O   0  0  0  0  0  0  0  0  0  0  0  0
   30.7580   28.8880   44.7970 C   0  0  0  0  0  3  0  0  0  0  0  0
   30.8970   29.8270   44.2100 H   0  0  0  0  0  0  0  0  0  0  0  0
   31.5070   30.1490   46.6330 O   0  0  0  0  0  0  0  0  0  0  0  0
   32.3320   30.0360   46.0770 H   0  0  0  0  0  0  0  0  0  0  0  0
   36.6510   30.0020   48.0320 O   0  0  0  0  0  0  0  0  0  0  0  0
   37.4790   31.1140   48.1400 C   0  0  0  0  0  0  0  0  0  0  0  0
   37.6010   31.6770   49.3970 C   0  0  0  0  0  0  0  0  0  0  0  0
   38.4190   32.7890   49.5450 C   0  0  0  0  0  0  0  0  0  0  0  0
   39.0630   33.2760   48.4480 N   0  0  0  0  0  0  0  0  0  0  0  0
   38.9350   32.7190   47.2340 C   0  0  0  0  0  0  0  0  0  0  0  0
   38.1520   31.6580   47.1090 N   0  0  0  0  0  0  0  0  0  0  0  0
   40.5070   32.3160   45.5060 C   0  0  0  0  0  0  0  0  0  0  0  0
   40.7320   31.1200   45.8500 O   0  0  0  0  0  0  0  0  0  0  0  0
   39.6220   33.2570   46.1100 N   0  0  0  0  0  0  0  0  0  0  0  0
   37.1120   31.3300   50.2940 H   0  0  0  0  0  0  0  0  0  0  0  0
   38.5390   33.2550   50.5050 H   0  0  0  0  0  0  0  0  0  0  0  0
   41.1010   32.5830   44.6360 H   0  0  0  0  0  0  0  0  0  0  0  0
   39.5200   34.2250   45.7330 H   0  0  0  0  0  0  0  0  0  0  0  0
  2  1  2  0  0  0  0
  3  7  1  1  0  0  0
  3  2  1  0  0  0  0
  3 24  1  0  0  0  0
  4  3  1  0  0  0  0
  5  4  1  0  0  0  0
  5  6  1  0  0  0  0
  6  2  1  0  0  0  0
  8  4  1  0  0  0  0
  9  4  1  0  0  0  0
 10  5  1  0  0  0  0
 11  5  1  0  0  0  0
 12  6  1  0  0  0  0
 12 14  1  0  0  0  0
 13 12  1  0  0  0  0
 15 22  1  1  0  0  0
 15 16  1  0  0  0  0
 16 17  1  0  0  0  0
 18 12  1  1  0  0  0
 18 16  1  0  0  0  0
 19 20  1  0  0  0  0
 19 18  1  0  0  0  0
 20 15  1  0  0  0  0
 21 20  1  0  0  0  0
 23 22  1  0  0  0  0
 24 25  1  0  0  0  0
 25 26  1  0  0  0  0
 26 27  2  0  0  0  0
 26 34  1  0  0  0  0
 27 35  1  0  0  0  0
 28 27  1  0  0  0  0
 29 28  2  0  0  0  0
 30 29  1  0  0  0  0
 30 25  2  0  0  0  0
 31 32  2  0  0  0  0
 31 33  1  0  0  0  0
 33 29  1  0  0  0  0
 36 31  1  0  0  0  0
 37 33  1  0  0  0  0
M  END
>  <minimizedAffinity>
-5.26330709

>  <minimizedRMSD>
2.20894742

$$$$
