
 OpenBabel03272506393D

 37 39  0  0  1  0  0  0  0  0999 V2000
   34.4740   28.4740   49.7560 O   0  0  0  0  0  0  0  0  0  0  0  0
   34.4910   28.8350   48.5640 C   0  0  0  0  0  0  0  0  0  0  0  0
   35.2990   29.9540   48.1320 C   0  0  2  0  0  0  0  0  0  0  0  0
   35.1260   29.8570   46.5830 C   0  0  0  0  0  0  0  0  0  0  0  0
   33.7860   29.2020   46.4340 C   0  0  0  0  0  0  0  0  0  0  0  0
   33.7370   28.2140   47.4960 N   0  0  0  0  0  0  0  0  0  0  0  0
   34.9900   30.9570   48.4340 H   0  0  0  0  0  0  0  0  0  0  0  0
   35.2060   30.8570   46.1370 H   0  0  0  0  0  0  0  0  0  0  0  0
   35.9330   29.2220   46.2240 H   0  0  0  0  0  0  0  0  0  0  0  0
   32.9470   29.9260   46.4870 H   0  0  0  0  0  0  0  0  0  0  0  0
   33.7900   28.6610   45.4680 H   0  0  0  0  0  0  0  0  0  0  0  0
   33.0980   26.9040   47.5240 C   0  0  0  0  0  0  0  0  0  0  0  0
   33.5900   26.1680   46.8560 H   0  0  0  0  0  0  0  0  0  0  0  0
   33.2860   26.5010   48.5620 H   0  0  0  0  0  0  0  0  0  0  0  0
   30.1450   27.6990   49.0000 C   0  0  2  0  0  0  0  0  0  0  0  0
   30.9210   26.4920   48.5300 C   0  0  0  0  0  0  0  0  0  0  0  0
   31.6410   26.1700   49.3150 H   0  0  0  0  0  0  0  0  0  0  0  0
   31.6290   27.0160   47.3030 C   0  0  1  0  0  0  0  0  0  0  0  0
   31.3090   28.3710   47.2180 O   0  0  0  0  0  0  0  0  0  0  0  0
   30.0190   28.4930   47.7220 C   0  0  0  0  0  0  0  0  0  0  0  0
   29.8790   29.5820   47.9210 H   0  0  0  0  0  0  0  0  0  0  0  0
   30.9580   28.4150   49.8750 O   0  0  0  0  0  0  0  0  0  0  0  0
   31.6460   28.9080   49.3410 H   0  0  0  0  0  0  0  0  0  0  0  0
   36.7000   29.7990   48.3720 O   0  0  0  0  0  0  0  0  0  0  0  0
   37.4790   30.9500   48.3840 C   0  0  0  0  0  0  0  0  0  0  0  0
   37.6420   31.5770   49.6060 C   0  0  0  0  0  0  0  0  0  0  0  0
   38.4140   32.7290   49.6580 C   0  0  0  0  0  0  0  0  0  0  0  0
   38.9750   33.1920   48.5060 N   0  0  0  0  0  0  0  0  0  0  0  0
   38.8080   32.5740   47.3280 C   0  0  0  0  0  0  0  0  0  0  0  0
   38.0700   31.4750   47.2940 N   0  0  0  0  0  0  0  0  0  0  0  0
   40.3020   32.1590   45.5340 C   0  0  0  0  0  0  0  0  0  0  0  0
   40.6000   30.9920   45.9170 O   0  0  0  0  0  0  0  0  0  0  0  0
   39.4080   33.0880   46.1430 N   0  0  0  0  0  0  0  0  0  0  0  0
   37.2200   31.2510   50.5440 H   0  0  0  0  0  0  0  0  0  0  0  0
   38.5640   33.2450   50.5880 H   0  0  0  0  0  0  0  0  0  0  0  0
   40.8340   32.4110   44.6200 H   0  0  0  0  0  0  0  0  0  0  0  0
   39.2400   34.0320   45.7300 H   0  0  0  0  0  0  0  0  0  0  0  0
  2  1  2  0  0  0  0
  3 24  1  0  0  0  0
  3  7  1  1  0  0  0
  3  2  1  0  0  0  0
  4  3  1  0  0  0  0
  5 10  1  0  0  0  0
  5  4  1  0  0  0  0
  5  6  1  0  0  0  0
  6 12  1  0  0  0  0
  6  2  1  0  0  0  0
  8  4  1  0  0  0  0
  9  4  1  0  0  0  0
 11  5  1  0  0  0  0
 12 14  1  0  0  0  0
 13 12  1  0  0  0  0
 15 22  1  1  0  0  0
 16 15  1  0  0  0  0
 16 17  1  0  0  0  0
 18 12  1  1  0  0  0
 18 16  1  0  0  0  0
 19 18  1  0  0  0  0
 19 20  1  0  0  0  0
 20 21  1  0  0  0  0
 20 15  1  0  0  0  0
 23 22  1  0  0  0  0
 24 25  1  0  0  0  0
 25 26  1  0  0  0  0
 26 27  2  0  0  0  0
 26 34  1  0  0  0  0
 27 35  1  0  0  0  0
 28 27  1  0  0  0  0
 29 28  2  0  0  0  0
 30 29  1  0  0  0  0
 30 25  2  0  0  0  0
 31 32  2  0  0  0  0
 31 33  1  0  0  0  0
 33 29  1  0  0  0  0
 36 31  1  0  0  0  0
 37 33  1  0  0  0  0
M  END
>  <minimizedAffinity>
-6.08975458

>  <minimizedRMSD>
1.21684563

$$$$
