
 OpenBabel03262521513D

 22 23  0  0  1  0  0  0  0  0999 V2000
   38.4170   31.3930   49.8810 C   0  0  0  0  0  0  0  0  0  0  0  0
   38.8380   31.8250   50.8370 H   0  0  0  0  0  0  0  0  0  0  0  0
   39.1350   30.5970   49.6060 H   0  0  0  0  0  0  0  0  0  0  0  0
   35.3070   29.3890   49.8600 C   0  0  2  0  0  3  0  0  0  0  0  0
   36.5490   29.9060   49.1170 C   0  0  0  0  0  3  0  0  0  0  0  0
   37.2820   29.0900   48.9710 H   0  0  0  0  0  0  0  0  0  0  0  0
   37.1110   30.7880   50.2430 C   0  0  1  0  0  3  0  0  0  0  0  0
   37.0980   29.9060   51.2850 O   0  0  0  0  0  0  0  0  0  0  0  0
   35.8010   29.4030   51.2770 C   0  0  0  0  0  3  0  0  0  0  0  0
   35.1780   30.0720   51.9370 H   0  0  0  0  0  0  0  0  0  0  0  0
   34.9150   28.1370   49.4040 O   0  0  0  0  0  0  0  0  0  0  0  0
   34.1470   27.8700   49.9870 H   0  0  0  0  0  0  0  0  0  0  0  0
   38.3460   32.7280   48.6840 S   0  0  0  0  0  0  0  0  0  0  0  0
   39.0900   32.1430   47.1760 C   0  0  0  0  0  0  0  0  0  0  0  0
   39.8910   33.1220   46.5720 C   0  0  0  0  0  0  0  0  0  0  0  0
   40.5370   32.7660   45.3690 C   0  0  0  0  0  0  0  0  0  0  0  0
   40.3570   31.5220   44.8670 N   0  0  0  0  0  0  0  0  0  0  0  0
   39.5760   30.6240   45.4920 C   0  0  0  0  0  0  0  0  0  0  0  0
   38.9680   30.9500   46.6190 N   0  0  0  0  0  0  0  0  0  0  0  0
   40.0630   34.1360   46.9430 H   0  0  0  0  0  0  0  0  0  0  0  0
   41.1740   33.4960   44.8580 H   0  0  0  0  0  0  0  0  0  0  0  0
   39.4450   29.6300   45.0680 H   0  0  0  0  0  0  0  0  0  0  0  0
  1  2  1  0  0  0  0
  3  1  1  0  0  0  0
  4 11  1  6  0  0  0
  4  9  1  0  0  0  0
  5  4  1  0  0  0  0
  5  7  1  0  0  0  0
  6  5  1  0  0  0  0
  7  1  1  6  0  0  0
  7  8  1  0  0  0  0
  9  8  1  0  0  0  0
  9 10  1  0  0  0  0
 11 12  1  0  0  0  0
 13  1  1  0  0  0  0
 14 13  1  0  0  0  0
 15 20  1  0  0  0  0
 15 14  2  0  0  0  0
 16 15  1  0  0  0  0
 17 16  2  0  0  0  0
 17 18  1  0  0  0  0
 18 19  2  0  0  0  0
 19 14  1  0  0  0  0
 21 16  1  0  0  0  0
 22 18  1  0  0  0  0
M  END
>  <minimizedAffinity>
-4.67497015

>  <minimizedRMSD>
3.64331341

$$$$
