
 OpenBabel03272509423D

 38 40  0  0  1  0  0  0  0  0999 V2000
   36.9960   30.9090   49.0590 C   0  0  0  0  0  0  0  0  0  0  0  0
   36.6900   31.7950   50.0920 C   0  0  0  0  0  0  0  0  0  0  0  0
   37.2790   33.0550   50.1780 C   0  0  0  0  0  0  0  0  0  0  0  0
   38.2040   33.4440   49.1990 C   0  0  0  0  0  0  0  0  0  0  0  0
   38.4920   32.5650   48.1970 C   0  0  0  0  0  0  0  0  0  0  0  0
   37.8850   31.3200   48.1480 C   0  0  0  0  0  0  0  0  0  0  0  0
   35.9660   31.4710   50.8380 H   0  0  0  0  0  0  0  0  0  0  0  0
   36.9960   33.6950   51.0200 H   0  0  0  0  0  0  0  0  0  0  0  0
   38.6400   34.4360   49.3070 H   0  0  0  0  0  0  0  0  0  0  0  0
   39.2210   32.9940   47.5100 H   0  0  0  0  0  0  0  0  0  0  0  0
   36.4110   29.5880   48.9900 C   0  0  2  0  0  0  0  0  0  0  0  0
   36.9400   29.0670   48.0990 H   0  0  0  0  0  0  0  0  0  0  0  0
   33.5730   30.0670   46.7740 C   0  0  0  0  0  0  0  0  0  0  0  0
   32.8640   28.8850   46.8720 C   0  0  0  0  0  0  0  0  0  0  0  0
   33.3220   27.9240   47.7580 C   0  0  0  0  0  0  0  0  0  0  0  0
   34.4540   28.1760   48.5020 N   0  0  0  0  0  0  0  0  0  0  0  0
   35.0880   29.3220   48.3620 C   0  0  0  0  0  0  0  0  0  0  0  0
   34.6550   30.2720   47.5020 N   0  0  0  0  0  0  0  0  0  0  0  0
   33.1780   30.7940   46.0640 H   0  0  0  0  0  0  0  0  0  0  0  0
   31.9910   28.6720   46.3010 H   0  0  0  0  0  0  0  0  0  0  0  0
   32.8000   26.9750   47.8760 H   0  0  0  0  0  0  0  0  0  0  0  0
   36.8550   28.8040   49.9120 O   0  0  0  0  0  0  0  0  0  0  0  0
   36.9050   27.8150   49.7690 H   0  0  0  0  0  0  0  0  0  0  0  0
   38.3190   30.4710   47.0570 C   0  0  0  0  0  3  0  0  0  0  0  0
   38.8210   30.9340   45.9110 C   0  0  0  0  0  3  0  0  0  0  0  0
   39.3370   30.1720   44.7590 C   0  0  0  0  0  0  0  0  0  0  0  0
   38.4960   29.7030   44.2030 H   0  0  0  0  0  0  0  0  0  0  0  0
   39.9830   29.3230   45.1050 H   0  0  0  0  0  0  0  0  0  0  0  0
   40.3290   31.2410   43.7070 S   0  0  0  0  0  0  0  0  0  0  0  0
   40.7920   28.9810   42.1680 C   0  0  1  0  0  3  0  0  0  0  0  0
   40.4170   30.4480   42.0940 C   0  0  1  0  0  3  0  0  0  0  0  0
   39.0610   30.3190   41.4230 C   0  0  0  0  0  3  0  0  0  0  0  0
   38.3400   30.0070   42.2080 H   0  0  0  0  0  0  0  0  0  0  0  0
   39.1570   29.2890   40.5070 O   0  0  0  0  0  0  0  0  0  0  0  0
   40.2630   28.5260   40.8200 C   0  0  0  0  0  3  0  0  0  0  0  0
   41.0520   28.7410   40.0590 H   0  0  0  0  0  0  0  0  0  0  0  0
   42.1400   28.7710   42.3180 O   0  0  0  0  0  0  0  0  0  0  0  0
   42.3350   28.7440   43.3070 H   0  0  0  0  0  0  0  0  0  0  0  0
  1  2  1  0  0  0  0
  2  3  2  0  0  0  0
  2  7  1  0  0  0  0
  3  8  1  0  0  0  0
  4  9  1  0  0  0  0
  4  3  1  0  0  0  0
  5  4  2  0  0  0  0
  6  5  1  0  0  0  0
  6  1  2  0  0  0  0
 10  5  1  0  0  0  0
 11 12  1  6  0  0  0
 11  1  1  0  0  0  0
 11 22  1  0  0  0  0
 13 14  2  0  0  0  0
 13 18  1  0  0  0  0
 14 15  1  0  0  0  0
 15 21  1  0  0  0  0
 15 16  2  0  0  0  0
 17 16  1  0  0  0  0
 17 11  1  0  0  0  0
 18 17  2  0  0  0  0
 19 13  1  0  0  0  0
 20 14  1  0  0  0  0
 23 22  1  0  0  0  0
 24  6  1  0  0  0  0
 25 24  2  0  0  0  0
 26 28  1  0  0  0  0
 26 25  1  0  0  0  0
 27 26  1  0  0  0  0
 29 26  1  0  0  0  0
 30 37  1  6  0  0  0
 31 30  1  0  0  0  0
 31 29  1  1  0  0  0
 32 31  1  0  0  0  0
 32 33  1  0  0  0  0
 34 35  1  0  0  0  0
 34 32  1  0  0  0  0
 35 30  1  0  0  0  0
 36 35  1  0  0  0  0
 37 38  1  0  0  0  0
M  END
>  <minimizedAffinity>
-6.30021858

>  <minimizedRMSD>
0.540638387

$$$$
