
 OpenBabel03272500423D

 48 51  0  0  1  0  0  0  0  0999 V2000
   37.2110   31.6120   47.8770 C   0  0  0  0  0  0  0  0  0  0  0  0
   37.7500   32.3120   48.9420 C   0  0  0  0  0  0  0  0  0  0  0  0
   38.9110   33.0070   48.6940 C   0  0  0  0  0  0  0  0  0  0  0  0
   39.4620   32.9770   47.4470 N   0  0  0  0  0  0  0  0  0  0  0  0
   38.9210   32.2850   46.4060 C   0  0  0  0  0  0  0  0  0  0  0  0
   37.7750   31.5950   46.6420 N   0  0  0  0  0  0  0  0  0  0  0  0
   39.5290   32.2860   45.1230 N   0  0  0  0  0  0  0  0  0  0  0  0
   37.3190   32.3360   49.9200 H   0  0  0  0  0  0  0  0  0  0  0  0
   39.4320   33.5910   49.4350 H   0  0  0  0  0  0  0  0  0  0  0  0
   39.8670   33.2050   44.7840 H   0  0  0  0  0  0  0  0  0  0  0  0
   35.9180   30.8500   48.1190 C   0  0  1  0  0  0  0  0  0  0  0  0
   35.3600   29.9990   47.1310 C   0  0  0  0  0  0  0  0  0  0  0  0
   36.1350   29.3790   48.2480 C   0  0  2  0  0  0  0  0  0  0  0  0
   35.3070   31.3230   48.9400 H   0  0  0  0  0  0  0  0  0  0  0  0
   34.3350   29.8000   46.8780 H   0  0  0  0  0  0  0  0  0  0  0  0
   35.9560   29.9880   46.1630 H   0  0  0  0  0  0  0  0  0  0  0  0
   37.1490   28.9590   48.0800 H   0  0  0  0  0  0  0  0  0  0  0  0
   35.9760   28.6340   50.5950 C   0  0  2  0  0  0  0  0  0  0  0  0
   35.3710   28.5850   49.2720 C   0  0  1  0  0  0  0  0  0  0  0  0
   34.0270   29.1190   49.4490 C   0  0  0  0  0  0  0  0  0  0  0  0
   34.0220   29.9480   50.5860 O   0  0  0  0  0  0  0  0  0  0  0  0
   34.7020   29.1700   51.4520 C   0  0  0  0  0  0  0  0  0  0  0  0
   36.2930   27.7210   51.0930 H   0  0  0  0  0  0  0  0  0  0  0  0
   35.2920   27.5170   48.9310 H   0  0  0  0  0  0  0  0  0  0  0  0
   33.3220   28.2830   49.7290 H   0  0  0  0  0  0  0  0  0  0  0  0
   33.5270   29.6980   48.7010 H   0  0  0  0  0  0  0  0  0  0  0  0
   35.0950   29.6190   52.3640 H   0  0  0  0  0  0  0  0  0  0  0  0
   34.1810   28.1920   51.6730 H   0  0  0  0  0  0  0  0  0  0  0  0
   36.8130   29.7330   50.7560 O   0  0  0  0  0  0  0  0  0  0  0  0
   37.3770   29.9490   51.8880 C   0  0  0  0  0  0  0  0  0  0  0  0
   38.0250   30.8510   51.9130 H   0  0  0  0  0  0  0  0  0  0  0  0
   36.6220   30.1330   52.7040 H   0  0  0  0  0  0  0  0  0  0  0  0
   37.9930   29.1080   52.2770 H   0  0  0  0  0  0  0  0  0  0  0  0
   39.6850   30.8490   44.2040 S   0  0  0  0  0  0  0  0  0  0  0  0
   39.2470   29.6340   44.9610 O   0  0  0  0  0  0  0  0  0  0  0  0
   38.6250   29.6810   45.7450 H   0  0  0  0  0  0  0  0  0  0  0  0
   41.1370   30.6610   43.8670 O   0  0  0  0  0  0  0  0  0  0  0  0
   41.6560   31.1370   43.1890 H   0  0  0  0  0  0  0  0  0  0  0  0
   38.8600   30.9510   42.7510 O   0  0  0  0  0  0  0  0  0  0  0  0
   36.5940   31.3220   43.2490 C   0  0  1  0  0  0  0  0  0  0  0  0
   37.8900   31.9230   42.7390 C   0  0  2  0  0  0  0  0  0  0  0  0
   37.4800   32.3070   41.3210 C   0  0  0  0  0  0  0  0  0  0  0  0
   37.6740   31.4570   40.6650 H   0  0  0  0  0  0  0  0  0  0  0  0
   36.1570   32.6970   41.4040 O   0  0  0  0  0  0  0  0  0  0  0  0
   35.5290   31.8130   42.2750 C   0  0  0  0  0  0  0  0  0  0  0  0
   34.6880   32.3330   42.8190 H   0  0  0  0  0  0  0  0  0  0  0  0
   36.6160   29.9300   43.1670 O   0  0  0  0  0  0  0  0  0  0  0  0
   36.8030   29.7410   42.1940 H   0  0  0  0  0  0  0  0  0  0  0  0
  1 11  1  0  0  0  0
  1  2  1  0  0  0  0
  2  8  1  0  0  0  0
  3  2  2  0  0  0  0
  3  9  1  0  0  0  0
  4  3  1  0  0  0  0
  5  6  1  0  0  0  0
  5  4  2  0  0  0  0
  6  1  2  0  0  0  0
  7  5  1  0  0  0  0
 10  7  1  0  0  0  0
 11 13  1  0  0  0  0
 11 14  1  1  0  0  0
 12 11  1  0  0  0  0
 12 13  1  0  0  0  0
 13 17  1  6  0  0  0
 13 19  1  0  0  0  0
 15 12  1  0  0  0  0
 16 12  1  0  0  0  0
 18 29  1  0  0  0  0
 18 23  1  1  0  0  0
 18 22  1  0  0  0  0
 19 24  1  6  0  0  0
 19 20  1  0  0  0  0
 19 18  1  0  0  0  0
 20 25  1  0  0  0  0
 20 21  1  0  0  0  0
 21 22  1  0  0  0  0
 22 28  1  0  0  0  0
 22 27  1  0  0  0  0
 26 20  1  0  0  0  0
 29 30  1  0  0  0  0
 30 31  1  0  0  0  0
 30 33  1  0  0  0  0
 30 32  1  0  0  0  0
 34 35  1  0  0  0  0
 34  7  1  0  0  0  0
 35 36  1  0  0  0  0
 37 34  1  0  0  0  0
 38 37  1  0  0  0  0
 39 34  1  0  0  0  0
 40 47  1  6  0  0  0
 41 39  1  6  0  0  0
 41 40  1  0  0  0  0
 42 44  1  0  0  0  0
 42 41  1  0  0  0  0
 43 42  1  0  0  0  0
 44 45  1  0  0  0  0
 45 46  1  0  0  0  0
 45 40  1  0  0  0  0
 48 47  1  0  0  0  0
M  END
>  <minimizedAffinity>
-5.24520779

>  <minimizedRMSD>
4.25151348

$$$$
