
 OpenBabel03272509413D

 38 40  0  0  1  0  0  0  0  0999 V2000
   37.0330   30.9250   49.0450 C   0  0  0  0  0  0  0  0  0  0  0  0
   36.7420   31.8310   50.0640 C   0  0  0  0  0  0  0  0  0  0  0  0
   37.3370   33.0900   50.1210 C   0  0  0  0  0  0  0  0  0  0  0  0
   38.2540   33.4570   49.1260 C   0  0  0  0  0  0  0  0  0  0  0  0
   38.5280   32.5580   48.1370 C   0  0  0  0  0  0  0  0  0  0  0  0
   37.9140   31.3150   48.1170 C   0  0  0  0  0  0  0  0  0  0  0  0
   36.0240   31.5250   50.8230 H   0  0  0  0  0  0  0  0  0  0  0  0
   37.0660   33.7460   50.9540 H   0  0  0  0  0  0  0  0  0  0  0  0
   38.6960   34.4480   49.2110 H   0  0  0  0  0  0  0  0  0  0  0  0
   39.2520   32.9710   47.4350 H   0  0  0  0  0  0  0  0  0  0  0  0
   36.4410   29.6070   49.0050 C   0  0  2  0  0  0  0  0  0  0  0  0
   36.9700   29.0600   48.1300 H   0  0  0  0  0  0  0  0  0  0  0  0
   33.5950   30.0720   46.7950 C   0  0  0  0  0  0  0  0  0  0  0  0
   32.8970   28.8830   46.8890 C   0  0  0  0  0  0  0  0  0  0  0  0
   33.3640   27.9220   47.7700 C   0  0  0  0  0  0  0  0  0  0  0  0
   34.4950   28.1800   48.5130 N   0  0  0  0  0  0  0  0  0  0  0  0
   35.1190   29.3320   48.3770 C   0  0  0  0  0  0  0  0  0  0  0  0
   34.6770   30.2820   47.5230 N   0  0  0  0  0  0  0  0  0  0  0  0
   33.1940   30.7980   46.0890 H   0  0  0  0  0  0  0  0  0  0  0  0
   32.0250   28.6650   46.3170 H   0  0  0  0  0  0  0  0  0  0  0  0
   32.8500   26.9690   47.8840 H   0  0  0  0  0  0  0  0  0  0  0  0
   36.8760   28.8430   49.9480 O   0  0  0  0  0  0  0  0  0  0  0  0
   36.9210   27.8500   49.8300 H   0  0  0  0  0  0  0  0  0  0  0  0
   38.3330   30.4450   47.0370 C   0  0  0  0  0  3  0  0  0  0  0  0
   38.9050   30.8790   45.9130 C   0  0  0  0  0  3  0  0  0  0  0  0
   39.4130   30.0910   44.7750 C   0  0  0  0  0  0  0  0  0  0  0  0
   38.8540   29.1340   44.6930 H   0  0  0  0  0  0  0  0  0  0  0  0
   40.4840   29.8020   44.9430 H   0  0  0  0  0  0  0  0  0  0  0  0
   39.3220   31.0590   43.2630 S   0  0  0  0  0  0  0  0  0  0  0  0
   39.1920   29.1080   41.2960 C   0  0  1  0  0  3  0  0  0  0  0  0
   40.1240   30.0910   41.9760 C   0  0  1  0  0  3  0  0  0  0  0  0
   40.5230   30.9240   40.7700 C   0  0  0  0  0  3  0  0  0  0  0  0
   39.6810   31.6160   40.5630 H   0  0  0  0  0  0  0  0  0  0  0  0
   40.6290   30.0590   39.6970 O   0  0  0  0  0  0  0  0  0  0  0  0
   39.9650   28.8910   40.0070 C   0  0  0  0  0  3  0  0  0  0  0  0
   40.7310   28.1050   40.2040 H   0  0  0  0  0  0  0  0  0  0  0  0
   39.0020   27.9530   42.0140 O   0  0  0  0  0  0  0  0  0  0  0  0
   38.2080   28.0980   42.6180 H   0  0  0  0  0  0  0  0  0  0  0  0
  1  2  1  0  0  0  0
  2  3  2  0  0  0  0
  2  7  1  0  0  0  0
  3  8  1  0  0  0  0
  4  9  1  0  0  0  0
  4  3  1  0  0  0  0
  5  4  2  0  0  0  0
  6  5  1  0  0  0  0
  6  1  2  0  0  0  0
 10  5  1  0  0  0  0
 11 12  1  6  0  0  0
 11  1  1  0  0  0  0
 11 22  1  0  0  0  0
 13 14  2  0  0  0  0
 13 18  1  0  0  0  0
 14 15  1  0  0  0  0
 15 21  1  0  0  0  0
 15 16  2  0  0  0  0
 17 16  1  0  0  0  0
 17 11  1  0  0  0  0
 18 17  2  0  0  0  0
 19 13  1  0  0  0  0
 20 14  1  0  0  0  0
 23 22  1  0  0  0  0
 24  6  1  0  0  0  0
 25 24  2  0  0  0  0
 26 28  1  0  0  0  0
 26 25  1  0  0  0  0
 27 26  1  0  0  0  0
 29 26  1  0  0  0  0
 30 31  1  0  0  0  0
 30 37  1  1  0  0  0
 31 29  1  1  0  0  0
 32 31  1  0  0  0  0
 33 32  1  0  0  0  0
 34 35  1  0  0  0  0
 34 32  1  0  0  0  0
 35 36  1  0  0  0  0
 35 30  1  0  0  0  0
 37 38  1  0  0  0  0
M  END
>  <minimizedAffinity>
-5.46697283

>  <minimizedRMSD>
0.270031035

$$$$
