
 OpenBabel03272509423D

 38 40  0  0  1  0  0  0  0  0999 V2000
   37.0760   30.9320   49.0270 C   0  0  0  0  0  0  0  0  0  0  0  0
   36.8050   31.8410   50.0500 C   0  0  0  0  0  0  0  0  0  0  0  0
   37.4060   33.0970   50.0950 C   0  0  0  0  0  0  0  0  0  0  0  0
   38.3080   33.4590   49.0850 C   0  0  0  0  0  0  0  0  0  0  0  0
   38.5620   32.5580   48.0930 C   0  0  0  0  0  0  0  0  0  0  0  0
   37.9440   31.3180   48.0850 C   0  0  0  0  0  0  0  0  0  0  0  0
   36.0970   31.5380   50.8200 H   0  0  0  0  0  0  0  0  0  0  0  0
   37.1510   33.7550   50.9320 H   0  0  0  0  0  0  0  0  0  0  0  0
   38.7560   34.4490   49.1630 H   0  0  0  0  0  0  0  0  0  0  0  0
   39.2770   32.9670   47.3790 H   0  0  0  0  0  0  0  0  0  0  0  0
   36.4780   29.6160   48.9980 C   0  0  2  0  0  0  0  0  0  0  0  0
   36.9960   29.0640   48.1200 H   0  0  0  0  0  0  0  0  0  0  0  0
   33.6200   30.0750   46.8020 C   0  0  0  0  0  0  0  0  0  0  0  0
   32.9110   28.8950   46.9200 C   0  0  0  0  0  0  0  0  0  0  0  0
   33.3750   27.9430   47.8120 C   0  0  0  0  0  0  0  0  0  0  0  0
   34.5140   28.2010   48.5430 N   0  0  0  0  0  0  0  0  0  0  0  0
   35.1490   29.3450   48.3850 C   0  0  0  0  0  0  0  0  0  0  0  0
   34.7090   30.2860   47.5190 N   0  0  0  0  0  0  0  0  0  0  0  0
   33.2200   30.7940   46.0880 H   0  0  0  0  0  0  0  0  0  0  0  0
   32.0330   28.6770   46.3580 H   0  0  0  0  0  0  0  0  0  0  0  0
   32.8530   26.9960   47.9450 H   0  0  0  0  0  0  0  0  0  0  0  0
   36.9180   28.8550   49.9400 O   0  0  0  0  0  0  0  0  0  0  0  0
   36.9590   27.8610   49.8250 H   0  0  0  0  0  0  0  0  0  0  0  0
   38.3410   30.4440   46.9990 C   0  0  0  0  0  3  0  0  0  0  0  0
   38.8640   30.8780   45.8510 C   0  0  0  0  0  3  0  0  0  0  0  0
   39.3480   30.0880   44.7040 C   0  0  0  0  0  0  0  0  0  0  0  0
   38.9150   29.0640   44.7350 H   0  0  0  0  0  0  0  0  0  0  0  0
   40.4590   29.9480   44.7620 H   0  0  0  0  0  0  0  0  0  0  0  0
   38.9660   30.9360   43.1650 S   0  0  0  0  0  0  0  0  0  0  0  0
   40.5180   30.9380   40.8650 C   0  0  1  0  0  3  0  0  0  0  0  0
   39.8050   30.0350   41.8520 C   0  0  1  0  0  3  0  0  0  0  0  0
   40.9960   29.2330   42.3520 C   0  0  0  0  0  3  0  0  0  0  0  0
   41.5350   29.8760   43.0790 H   0  0  0  0  0  0  0  0  0  0  0  0
   41.8300   29.0310   41.2690 O   0  0  0  0  0  0  0  0  0  0  0  0
   41.4990   29.9380   40.2850 C   0  0  0  0  0  3  0  0  0  0  0  0
   40.9730   29.3820   39.4730 H   0  0  0  0  0  0  0  0  0  0  0  0
   39.6800   31.4820   39.9240 O   0  0  0  0  0  0  0  0  0  0  0  0
   39.3390   32.3570   40.2890 H   0  0  0  0  0  0  0  0  0  0  0  0
  1  2  1  0  0  0  0
  2  3  2  0  0  0  0
  2  7  1  0  0  0  0
  3  8  1  0  0  0  0
  4  9  1  0  0  0  0
  4  3  1  0  0  0  0
  5  4  2  0  0  0  0
  6  5  1  0  0  0  0
  6  1  2  0  0  0  0
 10  5  1  0  0  0  0
 11 12  1  6  0  0  0
 11  1  1  0  0  0  0
 11 22  1  0  0  0  0
 13 14  2  0  0  0  0
 13 18  1  0  0  0  0
 14 15  1  0  0  0  0
 15 21  1  0  0  0  0
 15 16  2  0  0  0  0
 17 16  1  0  0  0  0
 17 11  1  0  0  0  0
 18 17  2  0  0  0  0
 19 13  1  0  0  0  0
 20 14  1  0  0  0  0
 23 22  1  0  0  0  0
 24  6  1  0  0  0  0
 25 24  2  0  0  0  0
 26 27  1  0  0  0  0
 26 28  1  0  0  0  0
 26 25  1  0  0  0  0
 29 26  1  0  0  0  0
 30 37  1  6  0  0  0
 30 31  1  0  0  0  0
 31 32  1  0  0  0  0
 31 29  1  1  0  0  0
 32 33  1  0  0  0  0
 34 32  1  0  0  0  0
 35 30  1  0  0  0  0
 35 34  1  0  0  0  0
 36 35  1  0  0  0  0
 37 38  1  0  0  0  0
M  END
>  <minimizedAffinity>
-5.80122757

>  <minimizedRMSD>
0.182392627

$$$$
