
 OpenBabel03272509443D

 38 40  0  0  1  0  0  0  0  0999 V2000
   36.5390   28.3110   32.2190 C   0  0  0  0  0  0  0  0  0  0  0  0
   35.7230   29.3740   31.8340 C   0  0  0  0  0  0  0  0  0  0  0  0
   35.0900   30.1910   32.7700 C   0  0  0  0  0  0  0  0  0  0  0  0
   35.2780   29.9370   34.1360 C   0  0  0  0  0  0  0  0  0  0  0  0
   36.0790   28.8930   34.4940 C   0  0  0  0  0  0  0  0  0  0  0  0
   36.6900   28.1040   33.5320 C   0  0  0  0  0  0  0  0  0  0  0  0
   35.5950   29.5530   30.7680 H   0  0  0  0  0  0  0  0  0  0  0  0
   34.4580   31.0020   32.3950 H   0  0  0  0  0  0  0  0  0  0  0  0
   34.7630   30.5990   34.8300 H   0  0  0  0  0  0  0  0  0  0  0  0
   36.1380   28.8110   35.5790 H   0  0  0  0  0  0  0  0  0  0  0  0
   37.1690   27.4430   31.2490 C   0  0  2  0  0  0  0  0  0  0  0  0
   36.6630   27.7000   30.2370 H   0  0  0  0  0  0  0  0  0  0  0  0
   37.6120   23.8530   30.9160 C   0  0  0  0  0  0  0  0  0  0  0  0
   36.3370   23.3400   31.0680 C   0  0  0  0  0  0  0  0  0  0  0  0
   35.2910   24.2330   31.2230 C   0  0  0  0  0  0  0  0  0  0  0  0
   35.5520   25.5860   31.2230 N   0  0  0  0  0  0  0  0  0  0  0  0
   36.7890   26.0140   31.0760 C   0  0  0  0  0  0  0  0  0  0  0  0
   37.8230   25.1570   30.9220 N   0  0  0  0  0  0  0  0  0  0  0  0
   38.4040   23.1150   30.7980 H   0  0  0  0  0  0  0  0  0  0  0  0
   36.1190   22.2970   31.0770 H   0  0  0  0  0  0  0  0  0  0  0  0
   34.2670   23.8820   31.3450 H   0  0  0  0  0  0  0  0  0  0  0  0
   38.3540   27.8370   30.9320 O   0  0  0  0  0  0  0  0  0  0  0  0
   38.7400   27.6430   30.0290 H   0  0  0  0  0  0  0  0  0  0  0  0
   37.4740   27.0030   34.0540 C   0  0  0  0  0  3  0  0  0  0  0  0
   38.7550   27.1080   34.4120 C   0  0  0  0  0  3  0  0  0  0  0  0
   39.6340   26.0780   34.9970 C   0  0  0  0  0  0  0  0  0  0  0  0
   39.8010   26.2860   36.0760 H   0  0  0  0  0  0  0  0  0  0  0  0
   40.6500   26.1110   34.5220 H   0  0  0  0  0  0  0  0  0  0  0  0
   38.9370   24.4440   34.7230 S   0  0  0  0  0  0  0  0  0  0  0  0
   39.2980   23.1300   37.1390 C   0  0  1  0  0  3  0  0  0  0  0  0
   38.2830   23.8860   36.3040 C   0  0  1  0  0  3  0  0  0  0  0  0
   37.9850   25.0280   37.2580 C   0  0  0  0  0  3  0  0  0  0  0  0
   38.8280   25.7460   37.1770 H   0  0  0  0  0  0  0  0  0  0  0  0
   38.0010   24.5050   38.5360 O   0  0  0  0  0  0  0  0  0  0  0  0
   38.6580   23.2920   38.5050 C   0  0  0  0  0  3  0  0  0  0  0  0
   37.8940   22.4870   38.6170 H   0  0  0  0  0  0  0  0  0  0  0  0
   39.4430   21.8180   36.7630 O   0  0  0  0  0  0  0  0  0  0  0  0
   40.1710   21.7800   36.0670 H   0  0  0  0  0  0  0  0  0  0  0  0
  1  6  1  0  0  0  0
  2  1  2  0  0  0  0
  2  3  1  0  0  0  0
  3  4  2  0  0  0  0
  4  5  1  0  0  0  0
  4  9  1  0  0  0  0
  5 10  1  0  0  0  0
  6 24  1  0  0  0  0
  6  5  2  0  0  0  0
  7  2  1  0  0  0  0
  8  3  1  0  0  0  0
 11 12  1  6  0  0  0
 11  1  1  0  0  0  0
 13 18  2  0  0  0  0
 13 14  1  0  0  0  0
 14 20  1  0  0  0  0
 14 15  2  0  0  0  0
 15 21  1  0  0  0  0
 16 15  1  0  0  0  0
 17 16  2  0  0  0  0
 17 11  1  0  0  0  0
 18 17  1  0  0  0  0
 19 13  1  0  0  0  0
 22 11  1  0  0  0  0
 23 22  1  0  0  0  0
 24 25  2  0  0  0  0
 25 26  1  0  0  0  0
 26 27  1  0  0  0  0
 28 26  1  0  0  0  0
 29 26  1  0  0  0  0
 30 37  1  6  0  0  0
 30 35  1  0  0  0  0
 31 29  1  6  0  0  0
 31 30  1  0  0  0  0
 31 32  1  0  0  0  0
 32 34  1  0  0  0  0
 33 32  1  0  0  0  0
 35 34  1  0  0  0  0
 35 36  1  0  0  0  0
 38 37  1  0  0  0  0
M  END
>  <minimizedAffinity>
-5.62508154

$$$$

 OpenBabel03272509443D

 38 40  0  0  1  0  0  0  0  0999 V2000
   36.3970   28.2730   32.0200 C   0  0  0  0  0  0  0  0  0  0  0  0
   35.6210   29.4300   31.9470 C   0  0  0  0  0  0  0  0  0  0  0  0
   35.1900   30.0990   33.0910 C   0  0  0  0  0  0  0  0  0  0  0  0
   35.5460   29.5970   34.3510 C   0  0  0  0  0  0  0  0  0  0  0  0
   36.3050   28.4640   34.4030 C   0  0  0  0  0  0  0  0  0  0  0  0
   36.7120   27.8280   33.2410 C   0  0  0  0  0  0  0  0  0  0  0  0
   35.3600   29.8030   30.9580 H   0  0  0  0  0  0  0  0  0  0  0  0
   34.5780   30.9970   32.9580 H   0  0  0  0  0  0  0  0  0  0  0  0
   35.1860   30.1500   35.2160 H   0  0  0  0  0  0  0  0  0  0  0  0
   36.5070   28.1870   35.4370 H   0  0  0  0  0  0  0  0  0  0  0  0
   36.8150   27.5610   30.8340 C   0  0  2  0  0  0  0  0  0  0  0  0
   37.4860   26.6960   31.2170 H   0  0  0  0  0  0  0  0  0  0  0  0
   38.4310   29.2870   28.0750 C   0  0  0  0  0  0  0  0  0  0  0  0
   39.7750   29.2450   28.3920 C   0  0  0  0  0  0  0  0  0  0  0  0
   40.1530   28.5610   29.5350 C   0  0  0  0  0  0  0  0  0  0  0  0
   39.1890   27.9530   30.3080 N   0  0  0  0  0  0  0  0  0  0  0  0
   37.9210   28.0310   29.9560 C   0  0  0  0  0  0  0  0  0  0  0  0
   37.5350   28.6940   28.8430 N   0  0  0  0  0  0  0  0  0  0  0  0
   38.1780   29.8380   27.1700 H   0  0  0  0  0  0  0  0  0  0  0  0
   40.5330   29.7150   27.8090 H   0  0  0  0  0  0  0  0  0  0  0  0
   41.2000   28.4950   29.8300 H   0  0  0  0  0  0  0  0  0  0  0  0
   35.8770   26.8220   30.3470 O   0  0  0  0  0  0  0  0  0  0  0  0
   36.0890   25.9860   29.8390 H   0  0  0  0  0  0  0  0  0  0  0  0
   37.4720   26.6110   33.4450 C   0  0  0  0  0  3  0  0  0  0  0  0
   38.6210   26.5590   34.1210 C   0  0  0  0  0  3  0  0  0  0  0  0
   39.4520   25.3810   34.4330 C   0  0  0  0  0  0  0  0  0  0  0  0
   39.9630   25.5220   35.4110 H   0  0  0  0  0  0  0  0  0  0  0  0
   40.2710   25.2640   33.6770 H   0  0  0  0  0  0  0  0  0  0  0  0
   38.4450   23.8920   34.4060 S   0  0  0  0  0  0  0  0  0  0  0  0
   39.3510   23.0700   36.8950 C   0  0  1  0  0  3  0  0  0  0  0  0
   38.1080   23.4600   36.1210 C   0  0  1  0  0  3  0  0  0  0  0  0
   37.6640   24.6490   36.9550 C   0  0  0  0  0  3  0  0  0  0  0  0
   38.3110   25.5050   36.6660 H   0  0  0  0  0  0  0  0  0  0  0  0
   37.9360   24.3440   38.2740 O   0  0  0  0  0  0  0  0  0  0  0  0
   38.8420   23.3040   38.3060 C   0  0  0  0  0  3  0  0  0  0  0  0
   38.2950   22.3850   38.6240 H   0  0  0  0  0  0  0  0  0  0  0  0
   39.7460   21.7750   36.6720 O   0  0  0  0  0  0  0  0  0  0  0  0
   40.3850   21.7820   35.8920 H   0  0  0  0  0  0  0  0  0  0  0  0
  1  6  1  0  0  0  0
  2  1  2  0  0  0  0
  2  3  1  0  0  0  0
  3  4  2  0  0  0  0
  4  5  1  0  0  0  0
  4  9  1  0  0  0  0
  5 10  1  0  0  0  0
  6 24  1  0  0  0  0
  6  5  2  0  0  0  0
  7  2  1  0  0  0  0
  8  3  1  0  0  0  0
 11 12  1  1  0  0  0
 11  1  1  0  0  0  0
 13 14  2  0  0  0  0
 13 18  1  0  0  0  0
 14 15  1  0  0  0  0
 15 21  1  0  0  0  0
 15 16  2  0  0  0  0
 17 16  1  0  0  0  0
 17 11  1  0  0  0  0
 18 17  2  0  0  0  0
 19 13  1  0  0  0  0
 20 14  1  0  0  0  0
 22 11  1  0  0  0  0
 23 22  1  0  0  0  0
 24 25  2  0  0  0  0
 25 26  1  0  0  0  0
 26 27  1  0  0  0  0
 28 26  1  0  0  0  0
 29 26  1  0  0  0  0
 30 37  1  1  0  0  0
 30 35  1  0  0  0  0
 31 29  1  6  0  0  0
 31 30  1  0  0  0  0
 31 32  1  0  0  0  0
 32 34  1  0  0  0  0
 33 32  1  0  0  0  0
 34 35  1  0  0  0  0
 35 36  1  0  0  0  0
 38 37  1  0  0  0  0
M  END
>  <minimizedAffinity>
-5.52996397

$$$$

 OpenBabel03272509443D

 38 40  0  0  1  0  0  0  0  0999 V2000
   36.7770   23.0730   31.7290 C   0  0  0  0  0  0  0  0  0  0  0  0
   35.5100   22.5570   31.4580 C   0  0  0  0  0  0  0  0  0  0  0  0
   35.1340   21.2790   31.8690 C   0  0  0  0  0  0  0  0  0  0  0  0
   36.0530   20.4910   32.5750 C   0  0  0  0  0  0  0  0  0  0  0  0
   37.2880   21.0120   32.8300 C   0  0  0  0  0  0  0  0  0  0  0  0
   37.6230   22.2870   32.4030 C   0  0  0  0  0  0  0  0  0  0  0  0
   34.8130   23.1900   30.9110 H   0  0  0  0  0  0  0  0  0  0  0  0
   34.1250   20.9370   31.6150 H   0  0  0  0  0  0  0  0  0  0  0  0
   35.7170   19.5000   32.8740 H   0  0  0  0  0  0  0  0  0  0  0  0
   37.8970   20.2970   33.3830 H   0  0  0  0  0  0  0  0  0  0  0  0
   37.1790   24.3850   31.2730 C   0  0  2  0  0  0  0  0  0  0  0  0
   38.2540   24.5340   31.6820 H   0  0  0  0  0  0  0  0  0  0  0  0
   37.1350   27.0410   33.7510 C   0  0  0  0  0  0  0  0  0  0  0  0
   36.3460   28.0210   33.1810 C   0  0  0  0  0  0  0  0  0  0  0  0
   35.7610   27.7550   31.9550 C   0  0  0  0  0  0  0  0  0  0  0  0
   35.9830   26.5360   31.3520 N   0  0  0  0  0  0  0  0  0  0  0  0
   36.7480   25.6410   31.9440 C   0  0  0  0  0  0  0  0  0  0  0  0
   37.3260   25.8850   33.1420 N   0  0  0  0  0  0  0  0  0  0  0  0
   37.5770   27.2940   34.7150 H   0  0  0  0  0  0  0  0  0  0  0  0
   36.1700   28.9710   33.6310 H   0  0  0  0  0  0  0  0  0  0  0  0
   35.1290   28.4920   31.4620 H   0  0  0  0  0  0  0  0  0  0  0  0
   37.4880   24.3980   30.0220 O   0  0  0  0  0  0  0  0  0  0  0  0
   38.1580   25.0480   29.6610 H   0  0  0  0  0  0  0  0  0  0  0  0
   38.9810   22.6930   32.7020 C   0  0  0  0  0  3  0  0  0  0  0  0
   39.7940   22.0230   33.5210 C   0  0  0  0  0  3  0  0  0  0  0  0
   41.2000   22.3100   33.8600 C   0  0  0  0  0  0  0  0  0  0  0  0
   41.7260   22.7360   32.9780 H   0  0  0  0  0  0  0  0  0  0  0  0
   41.7460   21.3630   34.1090 H   0  0  0  0  0  0  0  0  0  0  0  0
   41.2800   23.3990   35.2870 S   0  0  0  0  0  0  0  0  0  0  0  0
   40.0540   22.9210   37.7280 C   0  0  1  0  0  3  0  0  0  0  0  0
   39.7860   23.1100   36.2480 C   0  0  1  0  0  3  0  0  0  0  0  0
   38.8810   24.3270   36.3170 C   0  0  0  0  0  3  0  0  0  0  0  0
   39.5380   25.2090   36.4780 H   0  0  0  0  0  0  0  0  0  0  0  0
   38.0910   24.1820   37.4410 O   0  0  0  0  0  0  0  0  0  0  0  0
   38.6720   23.2440   38.2690 C   0  0  0  0  0  3  0  0  0  0  0  0
   38.0610   22.3120   38.2090 H   0  0  0  0  0  0  0  0  0  0  0  0
   40.4750   21.6540   38.0480 O   0  0  0  0  0  0  0  0  0  0  0  0
   41.4820   21.6460   37.9910 H   0  0  0  0  0  0  0  0  0  0  0  0
  1  6  1  0  0  0  0
  2  1  2  0  0  0  0
  2  3  1  0  0  0  0
  3  4  2  0  0  0  0
  4  5  1  0  0  0  0
  4  9  1  0  0  0  0
  5 10  1  0  0  0  0
  6 24  1  0  0  0  0
  6  5  2  0  0  0  0
  7  2  1  0  0  0  0
  8  3  1  0  0  0  0
 11 12  1  1  0  0  0
 11  1  1  0  0  0  0
 11 17  1  0  0  0  0
 13 19  1  0  0  0  0
 14 20  1  0  0  0  0
 14 13  1  0  0  0  0
 15 14  2  0  0  0  0
 16 17  2  0  0  0  0
 16 15  1  0  0  0  0
 17 18  1  0  0  0  0
 18 13  2  0  0  0  0
 21 15  1  0  0  0  0
 22 11  1  0  0  0  0
 23 22  1  0  0  0  0
 24 25  2  0  0  0  0
 25 26  1  0  0  0  0
 26 28  1  0  0  0  0
 26 29  1  0  0  0  0
 27 26  1  0  0  0  0
 30 37  1  6  0  0  0
 30 35  1  0  0  0  0
 31 29  1  6  0  0  0
 31 32  1  0  0  0  0
 31 30  1  0  0  0  0
 32 33  1  0  0  0  0
 32 34  1  0  0  0  0
 34 35  1  0  0  0  0
 36 35  1  0  0  0  0
 38 37  1  0  0  0  0
M  END
>  <minimizedAffinity>
-5.48654318

$$$$

 OpenBabel03272509443D

 38 40  0  0  1  0  0  0  0  0999 V2000
   35.8750   29.2870   33.1140 C   0  0  0  0  0  0  0  0  0  0  0  0
   35.8300   29.9310   31.8780 C   0  0  0  0  0  0  0  0  0  0  0  0
   36.5760   29.4850   30.7880 C   0  0  0  0  0  0  0  0  0  0  0  0
   37.3950   28.3570   30.9380 C   0  0  0  0  0  0  0  0  0  0  0  0
   37.4280   27.7400   32.1540 C   0  0  0  0  0  0  0  0  0  0  0  0
   36.6710   28.2160   33.2130 C   0  0  0  0  0  0  0  0  0  0  0  0
   35.1830   30.8020   31.7850 H   0  0  0  0  0  0  0  0  0  0  0  0
   36.4960   30.0440   29.8510 H   0  0  0  0  0  0  0  0  0  0  0  0
   37.9610   28.0460   30.0620 H   0  0  0  0  0  0  0  0  0  0  0  0
   38.1000   26.8830   32.1300 H   0  0  0  0  0  0  0  0  0  0  0  0
   35.1270   29.7700   34.2530 C   0  0  2  0  0  0  0  0  0  0  0  0
   35.1240   28.8920   35.0110 H   0  0  0  0  0  0  0  0  0  0  0  0
   31.7110   28.9170   33.3570 C   0  0  0  0  0  0  0  0  0  0  0  0
   30.9480   29.4780   34.3630 C   0  0  0  0  0  0  0  0  0  0  0  0
   31.5980   30.2180   35.3360 C   0  0  0  0  0  0  0  0  0  0  0  0
   32.9660   30.3680   35.2700 N   0  0  0  0  0  0  0  0  0  0  0  0
   33.6400   29.8060   34.2870 C   0  0  0  0  0  0  0  0  0  0  0  0
   33.0210   29.0810   33.3280 N   0  0  0  0  0  0  0  0  0  0  0  0
   31.1600   28.3420   32.6140 H   0  0  0  0  0  0  0  0  0  0  0  0
   29.8910   29.3670   34.4330 H   0  0  0  0  0  0  0  0  0  0  0  0
   31.0440   30.6840   36.1510 H   0  0  0  0  0  0  0  0  0  0  0  0
   35.8070   30.5930   34.9750 O   0  0  0  0  0  0  0  0  0  0  0  0
   35.6390   30.6790   35.9580 H   0  0  0  0  0  0  0  0  0  0  0  0
   36.8380   27.4930   34.4580 C   0  0  0  0  0  3  0  0  0  0  0  0
   38.0230   27.2420   35.0160 C   0  0  0  0  0  3  0  0  0  0  0  0
   38.3130   26.5650   36.2940 C   0  0  0  0  0  0  0  0  0  0  0  0
   37.7280   27.0330   37.1160 H   0  0  0  0  0  0  0  0  0  0  0  0
   39.3900   26.6970   36.5750 H   0  0  0  0  0  0  0  0  0  0  0  0
   37.9810   24.8040   36.1480 S   0  0  0  0  0  0  0  0  0  0  0  0
   39.4830   22.5870   36.8690 C   0  0  1  0  0  3  0  0  0  0  0  0
   39.5710   23.9650   36.2440 C   0  0  1  0  0  3  0  0  0  0  0  0
   40.1200   23.5800   34.8820 C   0  0  0  0  0  3  0  0  0  0  0  0
   39.2680   23.1860   34.2890 H   0  0  0  0  0  0  0  0  0  0  0  0
   41.0080   22.5410   35.0820 O   0  0  0  0  0  0  0  0  0  0  0  0
   40.7670   21.9890   36.3230 C   0  0  0  0  0  3  0  0  0  0  0  0
   41.5980   22.2990   37.0010 H   0  0  0  0  0  0  0  0  0  0  0  0
   39.4410   22.6140   38.2410 O   0  0  0  0  0  0  0  0  0  0  0  0
   38.4730   22.6640   38.5150 H   0  0  0  0  0  0  0  0  0  0  0  0
  1  6  1  0  0  0  0
  1 11  1  0  0  0  0
  2  1  2  0  0  0  0
  3  4  2  0  0  0  0
  3  2  1  0  0  0  0
  4  5  1  0  0  0  0
  5  6  2  0  0  0  0
  6 24  1  0  0  0  0
  7  2  1  0  0  0  0
  8  3  1  0  0  0  0
  9  4  1  0  0  0  0
 10  5  1  0  0  0  0
 11 17  1  0  0  0  0
 11 22  1  0  0  0  0
 11 12  1  1  0  0  0
 13 14  1  0  0  0  0
 14 20  1  0  0  0  0
 14 15  2  0  0  0  0
 15 21  1  0  0  0  0
 16 15  1  0  0  0  0
 17 16  2  0  0  0  0
 18 13  2  0  0  0  0
 18 17  1  0  0  0  0
 19 13  1  0  0  0  0
 22 23  1  0  0  0  0
 24 25  2  0  0  0  0
 25 26  1  0  0  0  0
 26 28  1  0  0  0  0
 26 27  1  0  0  0  0
 29 26  1  0  0  0  0
 30 37  1  1  0  0  0
 31 29  1  6  0  0  0
 31 30  1  0  0  0  0
 32 34  1  0  0  0  0
 32 31  1  0  0  0  0
 33 32  1  0  0  0  0
 34 35  1  0  0  0  0
 35 30  1  0  0  0  0
 35 36  1  0  0  0  0
 37 38  1  0  0  0  0
M  END
>  <minimizedAffinity>
-5.46673203

$$$$

 OpenBabel03272509443D

 38 40  0  0  1  0  0  0  0  0999 V2000
   37.0810   21.6510   33.4290 C   0  0  0  0  0  0  0  0  0  0  0  0
   36.1950   20.6190   33.7370 C   0  0  0  0  0  0  0  0  0  0  0  0
   35.1400   20.2790   32.8910 C   0  0  0  0  0  0  0  0  0  0  0  0
   34.9640   20.9940   31.6980 C   0  0  0  0  0  0  0  0  0  0  0  0
   35.8390   22.0010   31.4140 C   0  0  0  0  0  0  0  0  0  0  0  0
   36.8750   22.3080   32.2820 C   0  0  0  0  0  0  0  0  0  0  0  0
   36.3550   20.0760   34.6670 H   0  0  0  0  0  0  0  0  0  0  0  0
   34.4810   19.4620   33.2000 H   0  0  0  0  0  0  0  0  0  0  0  0
   34.1260   20.6950   31.0700 H   0  0  0  0  0  0  0  0  0  0  0  0
   35.5870   22.4690   30.4630 H   0  0  0  0  0  0  0  0  0  0  0  0
   38.1540   22.0260   34.3230 C   0  0  2  0  0  0  0  0  0  0  0  0
   38.1710   21.2040   35.1400 H   0  0  0  0  0  0  0  0  0  0  0  0
   37.6590   23.4260   37.6380 C   0  0  0  0  0  0  0  0  0  0  0  0
   37.9930   24.7600   37.4950 C   0  0  0  0  0  0  0  0  0  0  0  0
   38.3330   25.2130   36.2320 C   0  0  0  0  0  0  0  0  0  0  0  0
   38.3290   24.3300   35.1740 N   0  0  0  0  0  0  0  0  0  0  0  0
   38.0030   23.0690   35.3740 C   0  0  0  0  0  0  0  0  0  0  0  0
   37.6670   22.6100   36.6000 N   0  0  0  0  0  0  0  0  0  0  0  0
   37.4000   23.1130   38.6490 H   0  0  0  0  0  0  0  0  0  0  0  0
   38.0080   25.4530   38.3030 H   0  0  0  0  0  0  0  0  0  0  0  0
   38.6030   26.2540   36.0630 H   0  0  0  0  0  0  0  0  0  0  0  0
   39.3170   21.7750   33.8280 O   0  0  0  0  0  0  0  0  0  0  0  0
   40.0970   21.5650   34.4200 H   0  0  0  0  0  0  0  0  0  0  0  0
   37.6980   23.4300   31.8780 C   0  0  0  0  0  3  0  0  0  0  0  0
   37.5920   24.0400   30.6970 C   0  0  0  0  0  3  0  0  0  0  0  0
   38.3350   25.2120   30.1970 C   0  0  0  0  0  0  0  0  0  0  0  0
   37.6900   25.8130   29.5190 H   0  0  0  0  0  0  0  0  0  0  0  0
   39.2100   24.8890   29.5750 H   0  0  0  0  0  0  0  0  0  0  0  0
   38.9540   26.1840   31.5770 S   0  0  0  0  0  0  0  0  0  0  0  0
   36.5040   27.3640   31.0340 C   0  0  1  0  0  3  0  0  0  0  0  0
   37.7750   27.5170   31.8460 C   0  0  1  0  0  3  0  0  0  0  0  0
   37.1760   27.5050   33.2410 C   0  0  0  0  0  3  0  0  0  0  0  0
   36.9520   26.4450   33.4870 H   0  0  0  0  0  0  0  0  0  0  0  0
   35.9740   28.1830   33.1730 O   0  0  0  0  0  0  0  0  0  0  0  0
   35.5850   28.2540   31.8510 C   0  0  0  0  0  3  0  0  0  0  0  0
   35.7380   29.3040   31.5060 H   0  0  0  0  0  0  0  0  0  0  0  0
   36.6380   27.7780   29.7320 O   0  0  0  0  0  0  0  0  0  0  0  0
   36.9330   26.9820   29.1890 H   0  0  0  0  0  0  0  0  0  0  0  0
  1  2  1  0  0  0  0
  1 11  1  0  0  0  0
  2  7  1  0  0  0  0
  3  8  1  0  0  0  0
  3  2  2  0  0  0  0
  4  3  1  0  0  0  0
  5  4  2  0  0  0  0
  5  6  1  0  0  0  0
  6  1  2  0  0  0  0
  9  4  1  0  0  0  0
 10  5  1  0  0  0  0
 11 12  1  1  0  0  0
 11 17  1  0  0  0  0
 13 19  1  0  0  0  0
 14 13  1  0  0  0  0
 14 20  1  0  0  0  0
 15 14  2  0  0  0  0
 16 17  2  0  0  0  0
 16 15  1  0  0  0  0
 17 18  1  0  0  0  0
 18 13  2  0  0  0  0
 21 15  1  0  0  0  0
 22 11  1  0  0  0  0
 22 23  1  0  0  0  0
 24  6  1  0  0  0  0
 25 24  2  0  0  0  0
 26 25  1  0  0  0  0
 26 29  1  0  0  0  0
 27 26  1  0  0  0  0
 28 26  1  0  0  0  0
 30 37  1  6  0  0  0
 30 31  1  0  0  0  0
 30 35  1  0  0  0  0
 31 29  1  1  0  0  0
 31 32  1  0  0  0  0
 32 33  1  0  0  0  0
 34 32  1  0  0  0  0
 35 34  1  0  0  0  0
 36 35  1  0  0  0  0
 38 37  1  0  0  0  0
M  END
>  <minimizedAffinity>
-5.32536602

$$$$

 OpenBabel03272509443D

 38 40  0  0  1  0  0  0  0  0999 V2000
   38.1450   27.0970   34.3040 C   0  0  0  0  0  0  0  0  0  0  0  0
   36.8470   27.5560   34.0770 C   0  0  0  0  0  0  0  0  0  0  0  0
   36.4270   27.9790   32.8170 C   0  0  0  0  0  0  0  0  0  0  0  0
   37.3330   27.9420   31.7480 C   0  0  0  0  0  0  0  0  0  0  0  0
   38.5980   27.4910   31.9880 C   0  0  0  0  0  0  0  0  0  0  0  0
   38.9760   27.0800   33.2570 C   0  0  0  0  0  0  0  0  0  0  0  0
   36.1610   27.5710   34.9220 H   0  0  0  0  0  0  0  0  0  0  0  0
   35.3970   28.3330   32.7140 H   0  0  0  0  0  0  0  0  0  0  0  0
   36.9620   28.2830   30.7830 H   0  0  0  0  0  0  0  0  0  0  0  0
   39.1920   27.5150   31.0750 H   0  0  0  0  0  0  0  0  0  0  0  0
   38.5900   26.6900   35.6180 C   0  0  2  0  0  0  0  0  0  0  0  0
   39.7190   26.4530   35.4980 H   0  0  0  0  0  0  0  0  0  0  0  0
   37.8180   24.1220   38.0690 C   0  0  0  0  0  0  0  0  0  0  0  0
   37.6130   22.9840   37.3120 C   0  0  0  0  0  0  0  0  0  0  0  0
   37.8020   23.0700   35.9440 C   0  0  0  0  0  0  0  0  0  0  0  0
   38.1830   24.2720   35.3890 N   0  0  0  0  0  0  0  0  0  0  0  0
   38.3600   25.3240   36.1630 C   0  0  0  0  0  0  0  0  0  0  0  0
   38.1810   25.2570   37.5010 N   0  0  0  0  0  0  0  0  0  0  0  0
   37.6560   24.0090   39.1410 H   0  0  0  0  0  0  0  0  0  0  0  0
   37.3130   22.0490   37.7240 H   0  0  0  0  0  0  0  0  0  0  0  0
   37.6560   22.2030   35.3010 H   0  0  0  0  0  0  0  0  0  0  0  0
   38.7270   27.6880   36.4220 O   0  0  0  0  0  0  0  0  0  0  0  0
   39.3940   27.6640   37.1680 H   0  0  0  0  0  0  0  0  0  0  0  0
   40.3610   26.6700   33.3780 C   0  0  0  0  0  3  0  0  0  0  0  0
   41.3960   27.4950   33.2150 C   0  0  0  0  0  3  0  0  0  0  0  0
   42.8350   27.2060   33.3620 C   0  0  0  0  0  0  0  0  0  0  0  0
   43.2310   27.6910   34.2810 H   0  0  0  0  0  0  0  0  0  0  0  0
   43.4150   27.6500   32.5110 H   0  0  0  0  0  0  0  0  0  0  0  0
   43.1100   25.4290   33.3630 S   0  0  0  0  0  0  0  0  0  0  0  0
   42.3980   23.4210   35.1390 C   0  0  1  0  0  3  0  0  0  0  0  0
   42.8560   24.8640   35.0530 C   0  0  1  0  0  3  0  0  0  0  0  0
   44.1490   24.7570   35.8420 C   0  0  0  0  0  3  0  0  0  0  0  0
   44.9040   24.3060   35.1650 H   0  0  0  0  0  0  0  0  0  0  0  0
   43.9220   23.8650   36.8720 O   0  0  0  0  0  0  0  0  0  0  0  0
   42.7970   23.1240   36.5730 C   0  0  0  0  0  3  0  0  0  0  0  0
   41.9700   23.4790   37.2330 H   0  0  0  0  0  0  0  0  0  0  0  0
   41.0540   23.2630   34.9090 O   0  0  0  0  0  0  0  0  0  0  0  0
   40.9300   23.1140   33.9200 H   0  0  0  0  0  0  0  0  0  0  0  0
  1 11  1  0  0  0  0
  2  1  1  0  0  0  0
  2  7  1  0  0  0  0
  3  2  2  0  0  0  0
  4  5  2  0  0  0  0
  4  3  1  0  0  0  0
  5  6  1  0  0  0  0
  6 24  1  0  0  0  0
  6  1  2  0  0  0  0
  8  3  1  0  0  0  0
  9  4  1  0  0  0  0
 10  5  1  0  0  0  0
 11 12  1  6  0  0  0
 11 17  1  0  0  0  0
 11 22  1  0  0  0  0
 13 19  1  0  0  0  0
 14 20  1  0  0  0  0
 14 13  2  0  0  0  0
 15 14  1  0  0  0  0
 16 15  2  0  0  0  0
 16 17  1  0  0  0  0
 17 18  2  0  0  0  0
 18 13  1  0  0  0  0
 21 15  1  0  0  0  0
 22 23  1  0  0  0  0
 25 26  1  0  0  0  0
 25 24  2  0  0  0  0
 26 29  1  0  0  0  0
 26 27  1  0  0  0  0
 28 26  1  0  0  0  0
 30 37  1  1  0  0  0
 30 35  1  0  0  0  0
 31 29  1  6  0  0  0
 31 30  1  0  0  0  0
 31 32  1  0  0  0  0
 32 34  1  0  0  0  0
 33 32  1  0  0  0  0
 35 34  1  0  0  0  0
 35 36  1  0  0  0  0
 38 37  1  0  0  0  0
M  END
>  <minimizedAffinity>
-5.29673862

$$$$

 OpenBabel03272509443D

 38 40  0  0  1  0  0  0  0  0999 V2000
   35.5320   29.8870   33.5230 C   0  0  0  0  0  0  0  0  0  0  0  0
   35.2340   30.5810   32.3510 C   0  0  0  0  0  0  0  0  0  0  0  0
   35.5860   30.0880   31.0950 C   0  0  0  0  0  0  0  0  0  0  0  0
   36.2570   28.8610   31.0070 C   0  0  0  0  0  0  0  0  0  0  0  0
   36.5410   28.1960   32.1640 C   0  0  0  0  0  0  0  0  0  0  0  0
   36.1750   28.7210   33.3930 C   0  0  0  0  0  0  0  0  0  0  0  0
   34.7090   31.5300   32.4450 H   0  0  0  0  0  0  0  0  0  0  0  0
   35.3260   30.6910   30.2190 H   0  0  0  0  0  0  0  0  0  0  0  0
   36.5130   28.5160   30.0070 H   0  0  0  0  0  0  0  0  0  0  0  0
   37.0610   27.2620   31.9500 H   0  0  0  0  0  0  0  0  0  0  0  0
   35.1980   30.4150   34.8270 C   0  0  2  0  0  0  0  0  0  0  0  0
   35.5620   29.6140   35.5830 H   0  0  0  0  0  0  0  0  0  0  0  0
   32.3260   31.3690   36.8370 C   0  0  0  0  0  0  0  0  0  0  0  0
   31.3000   30.5780   36.3560 C   0  0  0  0  0  0  0  0  0  0  0  0
   31.5990   29.6530   35.3700 C   0  0  0  0  0  0  0  0  0  0  0  0
   32.8920   29.5540   34.9070 N   0  0  0  0  0  0  0  0  0  0  0  0
   33.8280   30.3380   35.4030 C   0  0  0  0  0  0  0  0  0  0  0  0
   33.5540   31.2450   36.3670 N   0  0  0  0  0  0  0  0  0  0  0  0
   32.0460   32.0830   37.6110 H   0  0  0  0  0  0  0  0  0  0  0  0
   30.2930   30.6470   36.6980 H   0  0  0  0  0  0  0  0  0  0  0  0
   30.8270   29.0050   34.9560 H   0  0  0  0  0  0  0  0  0  0  0  0
   36.0010   31.3520   35.1990 O   0  0  0  0  0  0  0  0  0  0  0  0
   36.1900   31.5160   36.1690 H   0  0  0  0  0  0  0  0  0  0  0  0
   36.5810   27.9330   34.5390 C   0  0  0  0  0  3  0  0  0  0  0  0
   37.8310   27.5170   34.7490 C   0  0  0  0  0  3  0  0  0  0  0  0
   38.3680   26.7580   35.8940 C   0  0  0  0  0  0  0  0  0  0  0  0
   37.5350   26.3520   36.5080 H   0  0  0  0  0  0  0  0  0  0  0  0
   38.9470   27.4330   36.5770 H   0  0  0  0  0  0  0  0  0  0  0  0
   39.4730   25.4650   35.3130 S   0  0  0  0  0  0  0  0  0  0  0  0
   37.7530   24.1120   37.0170 C   0  0  1  0  0  3  0  0  0  0  0  0
   38.8980   23.9230   36.0410 C   0  0  1  0  0  3  0  0  0  0  0  0
   38.2130   23.0130   35.0360 C   0  0  0  0  0  3  0  0  0  0  0  0
   37.5660   23.6570   34.4050 H   0  0  0  0  0  0  0  0  0  0  0  0
   37.3900   22.1640   35.7520 O   0  0  0  0  0  0  0  0  0  0  0  0
   37.1880   22.7040   37.0050 C   0  0  0  0  0  3  0  0  0  0  0  0
   37.7760   22.0990   37.7360 H   0  0  0  0  0  0  0  0  0  0  0  0
   38.1620   24.5200   38.2620 O   0  0  0  0  0  0  0  0  0  0  0  0
   38.1680   25.5280   38.2650 H   0  0  0  0  0  0  0  0  0  0  0  0
  1 11  1  0  0  0  0
  2  7  1  0  0  0  0
  2  1  2  0  0  0  0
  3  2  1  0  0  0  0
  4  3  2  0  0  0  0
  4  5  1  0  0  0  0
  5  6  2  0  0  0  0
  6  1  1  0  0  0  0
  6 24  1  0  0  0  0
  8  3  1  0  0  0  0
  9  4  1  0  0  0  0
 10  5  1  0  0  0  0
 11 22  1  0  0  0  0
 11 17  1  0  0  0  0
 11 12  1  1  0  0  0
 13 19  1  0  0  0  0
 14 20  1  0  0  0  0
 14 13  2  0  0  0  0
 15 14  1  0  0  0  0
 16 15  2  0  0  0  0
 16 17  1  0  0  0  0
 17 18  2  0  0  0  0
 18 13  1  0  0  0  0
 21 15  1  0  0  0  0
 22 23  1  0  0  0  0
 24 25  2  0  0  0  0
 25 26  1  0  0  0  0
 26 27  1  0  0  0  0
 26 28  1  0  0  0  0
 29 26  1  0  0  0  0
 30 37  1  1  0  0  0
 31 29  1  6  0  0  0
 31 30  1  0  0  0  0
 32 34  1  0  0  0  0
 32 31  1  0  0  0  0
 33 32  1  0  0  0  0
 34 35  1  0  0  0  0
 35 30  1  0  0  0  0
 35 36  1  0  0  0  0
 37 38  1  0  0  0  0
M  END
>  <minimizedAffinity>
-5.20899296

$$$$

 OpenBabel03272509443D

 38 40  0  0  1  0  0  0  0  0999 V2000
   35.4700   29.7890   32.0810 C   0  0  0  0  0  0  0  0  0  0  0  0
   35.6300   30.5700   30.9360 C   0  0  0  0  0  0  0  0  0  0  0  0
   36.6600   30.3370   30.0260 C   0  0  0  0  0  0  0  0  0  0  0  0
   37.5600   29.2880   30.2670 C   0  0  0  0  0  0  0  0  0  0  0  0
   37.3880   28.5360   31.3910 C   0  0  0  0  0  0  0  0  0  0  0  0
   36.3510   28.8010   32.2720 C   0  0  0  0  0  0  0  0  0  0  0  0
   34.9170   31.3750   30.7690 H   0  0  0  0  0  0  0  0  0  0  0  0
   36.7290   30.9940   29.1530 H   0  0  0  0  0  0  0  0  0  0  0  0
   38.3490   29.1450   29.5310 H   0  0  0  0  0  0  0  0  0  0  0  0
   38.1520   27.7610   31.4530 H   0  0  0  0  0  0  0  0  0  0  0  0
   34.4220   30.0520   33.0410 C   0  0  2  0  0  0  0  0  0  0  0  0
   33.8060   30.9250   32.5900 H   0  0  0  0  0  0  0  0  0  0  0  0
   33.7460   31.4120   36.3420 C   0  0  0  0  0  0  0  0  0  0  0  0
   34.9500   31.9680   36.7310 C   0  0  0  0  0  0  0  0  0  0  0  0
   36.0010   31.9400   35.8300 C   0  0  0  0  0  0  0  0  0  0  0  0
   35.8140   31.3650   34.5920 N   0  0  0  0  0  0  0  0  0  0  0  0
   34.6420   30.8480   34.2800 C   0  0  0  0  0  0  0  0  0  0  0  0
   33.6050   30.8680   35.1460 N   0  0  0  0  0  0  0  0  0  0  0  0
   32.9470   31.4550   37.0820 H   0  0  0  0  0  0  0  0  0  0  0  0
   35.1130   32.4110   37.6860 H   0  0  0  0  0  0  0  0  0  0  0  0
   36.9700   32.3650   36.0850 H   0  0  0  0  0  0  0  0  0  0  0  0
   33.4860   29.1680   33.0040 O   0  0  0  0  0  0  0  0  0  0  0  0
   32.5440   29.4000   33.2530 H   0  0  0  0  0  0  0  0  0  0  0  0
   36.3160   27.9540   33.4470 C   0  0  0  0  0  3  0  0  0  0  0  0
   37.3700   27.2770   33.9060 C   0  0  0  0  0  3  0  0  0  0  0  0
   37.4670   26.4300   35.1090 C   0  0  0  0  0  0  0  0  0  0  0  0
   36.4720   26.3480   35.5990 H   0  0  0  0  0  0  0  0  0  0  0  0
   38.1410   26.9020   35.8700 H   0  0  0  0  0  0  0  0  0  0  0  0
   38.1440   24.8220   34.6780 S   0  0  0  0  0  0  0  0  0  0  0  0
   38.6570   23.2500   36.9050 C   0  0  1  0  0  3  0  0  0  0  0  0
   39.2360   24.3390   36.0240 C   0  0  1  0  0  3  0  0  0  0  0  0
   40.4870   23.6240   35.5440 C   0  0  0  0  0  3  0  0  0  0  0  0
   40.1710   22.9210   34.7460 H   0  0  0  0  0  0  0  0  0  0  0  0
   40.9570   22.8730   36.6040 O   0  0  0  0  0  0  0  0  0  0  0  0
   39.9400   22.7290   37.5250 C   0  0  0  0  0  3  0  0  0  0  0  0
   40.1790   23.3780   38.4010 H   0  0  0  0  0  0  0  0  0  0  0  0
   37.7610   23.7200   37.8330 O   0  0  0  0  0  0  0  0  0  0  0  0
   36.8460   23.6950   37.4110 H   0  0  0  0  0  0  0  0  0  0  0  0
  1  6  1  0  0  0  0
  1 11  1  0  0  0  0
  2  1  2  0  0  0  0
  3  4  2  0  0  0  0
  3  2  1  0  0  0  0
  4  5  1  0  0  0  0
  5 10  1  0  0  0  0
  5  6  2  0  0  0  0
  6 24  1  0  0  0  0
  7  2  1  0  0  0  0
  8  3  1  0  0  0  0
  9  4  1  0  0  0  0
 11 12  1  6  0  0  0
 11 17  1  0  0  0  0
 13 14  1  0  0  0  0
 13 19  1  0  0  0  0
 14 20  1  0  0  0  0
 15 21  1  0  0  0  0
 15 14  2  0  0  0  0
 16 15  1  0  0  0  0
 17 16  2  0  0  0  0
 17 18  1  0  0  0  0
 18 13  2  0  0  0  0
 22 11  1  0  0  0  0
 22 23  1  0  0  0  0
 24 25  2  0  0  0  0
 25 26  1  0  0  0  0
 26 27  1  0  0  0  0
 26 28  1  0  0  0  0
 29 26  1  0  0  0  0
 30 35  1  0  0  0  0
 30 37  1  1  0  0  0
 31 29  1  6  0  0  0
 31 30  1  0  0  0  0
 32 31  1  0  0  0  0
 32 34  1  0  0  0  0
 33 32  1  0  0  0  0
 34 35  1  0  0  0  0
 35 36  1  0  0  0  0
 38 37  1  0  0  0  0
M  END
>  <minimizedAffinity>
-5.19695997

$$$$

 OpenBabel03272509443D

 38 40  0  0  1  0  0  0  0  0999 V2000
   35.6180   29.8270   33.6020 C   0  0  0  0  0  0  0  0  0  0  0  0
   35.2930   30.4800   32.4130 C   0  0  0  0  0  0  0  0  0  0  0  0
   35.6280   29.9510   31.1680 C   0  0  0  0  0  0  0  0  0  0  0  0
   36.3110   28.7280   31.1080 C   0  0  0  0  0  0  0  0  0  0  0  0
   36.6230   28.1040   32.2800 C   0  0  0  0  0  0  0  0  0  0  0  0
   36.2720   28.6650   33.4990 C   0  0  0  0  0  0  0  0  0  0  0  0
   34.7580   31.4260   32.4860 H   0  0  0  0  0  0  0  0  0  0  0  0
   35.3460   30.5220   30.2780 H   0  0  0  0  0  0  0  0  0  0  0  0
   36.5550   28.3540   30.1150 H   0  0  0  0  0  0  0  0  0  0  0  0
   37.1490   27.1700   32.0880 H   0  0  0  0  0  0  0  0  0  0  0  0
   35.3010   30.3930   34.8940 C   0  0  2  0  0  0  0  0  0  0  0  0
   35.6140   29.5870   35.6660 H   0  0  0  0  0  0  0  0  0  0  0  0
   31.9480   29.1940   35.6190 C   0  0  0  0  0  0  0  0  0  0  0  0
   31.4940   30.0420   36.6100 C   0  0  0  0  0  0  0  0  0  0  0  0
   32.3150   31.0860   37.0000 C   0  0  0  0  0  0  0  0  0  0  0  0
   33.5430   31.2420   36.3960 N   0  0  0  0  0  0  0  0  0  0  0  0
   33.9230   30.3980   35.4570 C   0  0  0  0  0  0  0  0  0  0  0  0
   33.1330   29.3740   35.0630 N   0  0  0  0  0  0  0  0  0  0  0  0
   31.2710   28.3860   35.3440 H   0  0  0  0  0  0  0  0  0  0  0  0
   30.5500   29.9330   37.0920 H   0  0  0  0  0  0  0  0  0  0  0  0
   32.0040   31.7850   37.7760 H   0  0  0  0  0  0  0  0  0  0  0  0
   36.1480   31.2930   35.2590 O   0  0  0  0  0  0  0  0  0  0  0  0
   36.3370   31.4630   36.2280 H   0  0  0  0  0  0  0  0  0  0  0  0
   36.7060   27.9180   34.6620 C   0  0  0  0  0  3  0  0  0  0  0  0
   37.9630   27.5170   34.8600 C   0  0  0  0  0  3  0  0  0  0  0  0
   38.5280   26.8010   36.0180 C   0  0  0  0  0  0  0  0  0  0  0  0
   38.4390   27.4250   36.9340 H   0  0  0  0  0  0  0  0  0  0  0  0
   39.6260   26.6260   35.8760 H   0  0  0  0  0  0  0  0  0  0  0  0
   37.7240   25.2040   36.2090 S   0  0  0  0  0  0  0  0  0  0  0  0
   38.2980   22.5930   35.4700 C   0  0  1  0  0  3  0  0  0  0  0  0
   38.6180   24.0430   35.1640 C   0  0  1  0  0  3  0  0  0  0  0  0
   38.1740   24.0890   33.7130 C   0  0  0  0  0  3  0  0  0  0  0  0
   37.0660   24.1640   33.7160 H   0  0  0  0  0  0  0  0  0  0  0  0
   38.5110   22.8750   33.1460 O   0  0  0  0  0  0  0  0  0  0  0  0
   38.7350   21.9650   34.1590 C   0  0  0  0  0  3  0  0  0  0  0  0
   39.8350   21.7880   34.2200 H   0  0  0  0  0  0  0  0  0  0  0  0
   38.9810   22.1040   36.5560 O   0  0  0  0  0  0  0  0  0  0  0  0
   38.4140   22.2730   37.3720 H   0  0  0  0  0  0  0  0  0  0  0  0
  1 11  1  0  0  0  0
  2  7  1  0  0  0  0
  2  1  2  0  0  0  0
  3  2  1  0  0  0  0
  4  3  2  0  0  0  0
  4  5  1  0  0  0  0
  5  6  2  0  0  0  0
  6  1  1  0  0  0  0
  6 24  1  0  0  0  0
  8  3  1  0  0  0  0
  9  4  1  0  0  0  0
 10  5  1  0  0  0  0
 11 22  1  0  0  0  0
 11 17  1  0  0  0  0
 11 12  1  1  0  0  0
 13 14  1  0  0  0  0
 14 15  2  0  0  0  0
 14 20  1  0  0  0  0
 15 21  1  0  0  0  0
 16 15  1  0  0  0  0
 17 16  2  0  0  0  0
 18 17  1  0  0  0  0
 18 13  2  0  0  0  0
 19 13  1  0  0  0  0
 22 23  1  0  0  0  0
 24 25  2  0  0  0  0
 25 26  1  0  0  0  0
 26 29  1  0  0  0  0
 26 27  1  0  0  0  0
 28 26  1  0  0  0  0
 30 37  1  1  0  0  0
 31 30  1  0  0  0  0
 31 29  1  1  0  0  0
 32 33  1  0  0  0  0
 32 31  1  0  0  0  0
 34 32  1  0  0  0  0
 34 35  1  0  0  0  0
 35 36  1  0  0  0  0
 35 30  1  0  0  0  0
 37 38  1  0  0  0  0
M  END
>  <minimizedAffinity>
-5.17991972

$$$$
