
 OpenBabel03272509423D

 38 40  0  0  1  0  0  0  0  0999 V2000
   37.1120   30.9350   49.0260 C   0  0  0  0  0  0  0  0  0  0  0  0
   36.8660   31.8840   50.0180 C   0  0  0  0  0  0  0  0  0  0  0  0
   37.4750   33.1370   50.0030 C   0  0  0  0  0  0  0  0  0  0  0  0
   38.3590   33.4540   48.9620 C   0  0  0  0  0  0  0  0  0  0  0  0
   38.5890   32.5130   48.0010 C   0  0  0  0  0  0  0  0  0  0  0  0
   37.9630   31.2780   48.0530 C   0  0  0  0  0  0  0  0  0  0  0  0
   36.1720   31.6160   50.8130 H   0  0  0  0  0  0  0  0  0  0  0  0
   37.2400   33.8290   50.8180 H   0  0  0  0  0  0  0  0  0  0  0  0
   38.8140   34.4430   48.9920 H   0  0  0  0  0  0  0  0  0  0  0  0
   39.2910   32.8900   47.2580 H   0  0  0  0  0  0  0  0  0  0  0  0
   36.5060   29.6220   49.0600 C   0  0  2  0  0  0  0  0  0  0  0  0
   36.9990   29.0350   48.1900 H   0  0  0  0  0  0  0  0  0  0  0  0
   33.6310   29.9670   46.8650 C   0  0  0  0  0  0  0  0  0  0  0  0
   32.8890   28.8250   47.0990 C   0  0  0  0  0  0  0  0  0  0  0  0
   33.3380   27.9450   48.0700 C   0  0  0  0  0  0  0  0  0  0  0  0
   34.4950   28.2330   48.7600 N   0  0  0  0  0  0  0  0  0  0  0  0
   35.1610   29.3380   48.4900 C   0  0  0  0  0  0  0  0  0  0  0  0
   34.7370   30.2080   47.5470 N   0  0  0  0  0  0  0  0  0  0  0  0
   33.2430   30.6290   46.0930 H   0  0  0  0  0  0  0  0  0  0  0  0
   31.9970   28.5840   46.5710 H   0  0  0  0  0  0  0  0  0  0  0  0
   32.7900   27.0310   48.2950 H   0  0  0  0  0  0  0  0  0  0  0  0
   36.9660   28.8930   50.0180 O   0  0  0  0  0  0  0  0  0  0  0  0
   36.9970   27.8950   49.9390 H   0  0  0  0  0  0  0  0  0  0  0  0
   38.3350   30.3600   46.9950 C   0  0  0  0  0  3  0  0  0  0  0  0
   38.7080   30.7470   45.7740 C   0  0  0  0  0  3  0  0  0  0  0  0
   39.1520   29.9150   44.6410 C   0  0  0  0  0  0  0  0  0  0  0  0
   38.2720   29.5160   44.0910 H   0  0  0  0  0  0  0  0  0  0  0  0
   39.7130   29.0160   45.0080 H   0  0  0  0  0  0  0  0  0  0  0  0
   40.2450   30.8610   43.5710 S   0  0  0  0  0  0  0  0  0  0  0  0
   40.7000   30.8170   40.8350 C   0  0  1  0  0  3  0  0  0  0  0  0
   40.3920   29.9400   42.0330 C   0  0  1  0  0  3  0  0  0  0  0  0
   41.6160   29.0390   41.9960 C   0  0  0  0  0  3  0  0  0  0  0  0
   42.4560   29.6200   42.4310 H   0  0  0  0  0  0  0  0  0  0  0  0
   41.9100   28.8080   40.6660 O   0  0  0  0  0  0  0  0  0  0  0  0
   41.2720   29.7650   39.9030 C   0  0  0  0  0  3  0  0  0  0  0  0
   40.4160   29.2720   39.3850 H   0  0  0  0  0  0  0  0  0  0  0  0
   39.5920   31.4460   40.3240 O   0  0  0  0  0  0  0  0  0  0  0  0
   39.5020   32.3330   40.7950 H   0  0  0  0  0  0  0  0  0  0  0  0
  1 11  1  0  0  0  0
  1  2  1  0  0  0  0
  2  7  1  0  0  0  0
  3  2  2  0  0  0  0
  3  8  1  0  0  0  0
  4  9  1  0  0  0  0
  4  3  1  0  0  0  0
  5  6  1  0  0  0  0
  5  4  2  0  0  0  0
  6  1  2  0  0  0  0
 10  5  1  0  0  0  0
 11 12  1  6  0  0  0
 11 22  1  0  0  0  0
 13 14  2  0  0  0  0
 13 18  1  0  0  0  0
 14 15  1  0  0  0  0
 15 21  1  0  0  0  0
 15 16  2  0  0  0  0
 17 16  1  0  0  0  0
 17 11  1  0  0  0  0
 18 17  2  0  0  0  0
 19 13  1  0  0  0  0
 20 14  1  0  0  0  0
 23 22  1  0  0  0  0
 24  6  1  0  0  0  0
 25 24  2  0  0  0  0
 26 28  1  0  0  0  0
 26 25  1  0  0  0  0
 27 26  1  0  0  0  0
 29 26  1  0  0  0  0
 30 37  1  6  0  0  0
 30 31  1  0  0  0  0
 31 29  1  1  0  0  0
 32 31  1  0  0  0  0
 32 33  1  0  0  0  0
 34 32  1  0  0  0  0
 35 34  1  0  0  0  0
 35 30  1  0  0  0  0
 36 35  1  0  0  0  0
 37 38  1  0  0  0  0
M  END
>  <minimizedAffinity>
-5.95840168

>  <minimizedRMSD>
0.723707616

$$$$
