
 OpenBabel03272509423D

 38 40  0  0  1  0  0  0  0  0999 V2000
   37.0010   30.9410   49.0790 C   0  0  0  0  0  0  0  0  0  0  0  0
   36.6740   31.8260   50.1070 C   0  0  0  0  0  0  0  0  0  0  0  0
   37.2470   33.0930   50.1970 C   0  0  0  0  0  0  0  0  0  0  0  0
   38.1790   33.4900   49.2270 C   0  0  0  0  0  0  0  0  0  0  0  0
   38.4880   32.6120   48.2310 C   0  0  0  0  0  0  0  0  0  0  0  0
   37.8960   31.3600   48.1780 C   0  0  0  0  0  0  0  0  0  0  0  0
   35.9450   31.4950   50.8450 H   0  0  0  0  0  0  0  0  0  0  0  0
   36.9480   33.7310   51.0340 H   0  0  0  0  0  0  0  0  0  0  0  0
   38.6030   34.4870   49.3380 H   0  0  0  0  0  0  0  0  0  0  0  0
   39.2200   33.0480   47.5510 H   0  0  0  0  0  0  0  0  0  0  0  0
   36.4320   29.6140   49.0060 C   0  0  2  0  0  0  0  0  0  0  0  0
   36.9480   29.1100   48.0980 H   0  0  0  0  0  0  0  0  0  0  0  0
   33.6040   29.9940   46.7580 C   0  0  0  0  0  0  0  0  0  0  0  0
   32.8580   28.8480   46.9570 C   0  0  0  0  0  0  0  0  0  0  0  0
   33.2870   27.9520   47.9220 C   0  0  0  0  0  0  0  0  0  0  0  0
   34.4290   28.2290   48.6410 N   0  0  0  0  0  0  0  0  0  0  0  0
   35.0990   29.3390   48.4030 C   0  0  0  0  0  0  0  0  0  0  0  0
   34.6940   30.2250   47.4660 N   0  0  0  0  0  0  0  0  0  0  0  0
   33.2310   30.6700   45.9890 H   0  0  0  0  0  0  0  0  0  0  0  0
   31.9770   28.6150   46.4060 H   0  0  0  0  0  0  0  0  0  0  0  0
   32.7350   27.0340   48.1200 H   0  0  0  0  0  0  0  0  0  0  0  0
   36.9050   28.8250   49.9080 O   0  0  0  0  0  0  0  0  0  0  0  0
   36.9650   27.8380   49.7520 H   0  0  0  0  0  0  0  0  0  0  0  0
   38.3520   30.5140   47.0930 C   0  0  0  0  0  3  0  0  0  0  0  0
   39.0140   30.9660   46.0270 C   0  0  0  0  0  3  0  0  0  0  0  0
   39.5670   30.2010   44.8950 C   0  0  0  0  0  0  0  0  0  0  0  0
   39.4590   29.1100   45.0820 H   0  0  0  0  0  0  0  0  0  0  0  0
   40.6690   30.3830   44.7950 H   0  0  0  0  0  0  0  0  0  0  0  0
   38.7730   30.7060   43.3630 S   0  0  0  0  0  0  0  0  0  0  0  0
   40.7610   29.7820   41.6630 C   0  0  1  0  0  3  0  0  0  0  0  0
   39.3230   29.5600   42.0890 C   0  0  1  0  0  3  0  0  0  0  0  0
   39.4370   28.1290   42.5900 C   0  0  0  0  0  3  0  0  0  0  0  0
   39.9010   28.1760   43.5970 H   0  0  0  0  0  0  0  0  0  0  0  0
   40.3190   27.4760   41.7500 O   0  0  0  0  0  0  0  0  0  0  0  0
   41.0500   28.4200   41.0600 C   0  0  0  0  0  3  0  0  0  0  0  0
   40.6840   28.4330   40.0070 H   0  0  0  0  0  0  0  0  0  0  0  0
   40.9070   30.8110   40.7650 O   0  0  0  0  0  0  0  0  0  0  0  0
   41.0630   31.6560   41.2940 H   0  0  0  0  0  0  0  0  0  0  0  0
  1  2  1  0  0  0  0
  2  3  2  0  0  0  0
  2  7  1  0  0  0  0
  3  8  1  0  0  0  0
  4  9  1  0  0  0  0
  4  3  1  0  0  0  0
  5  4  2  0  0  0  0
  6  5  1  0  0  0  0
  6  1  2  0  0  0  0
 10  5  1  0  0  0  0
 11 12  1  6  0  0  0
 11  1  1  0  0  0  0
 11 22  1  0  0  0  0
 13 14  2  0  0  0  0
 13 18  1  0  0  0  0
 14 15  1  0  0  0  0
 15 21  1  0  0  0  0
 15 16  2  0  0  0  0
 17 16  1  0  0  0  0
 17 11  1  0  0  0  0
 18 17  2  0  0  0  0
 19 13  1  0  0  0  0
 20 14  1  0  0  0  0
 23 22  1  0  0  0  0
 24  6  1  0  0  0  0
 25 24  2  0  0  0  0
 26 27  1  0  0  0  0
 26 25  1  0  0  0  0
 28 26  1  0  0  0  0
 29 26  1  0  0  0  0
 30 37  1  6  0  0  0
 30 31  1  0  0  0  0
 31 32  1  0  0  0  0
 31 29  1  1  0  0  0
 32 33  1  0  0  0  0
 34 32  1  0  0  0  0
 35 30  1  0  0  0  0
 35 34  1  0  0  0  0
 36 35  1  0  0  0  0
 37 38  1  0  0  0  0
M  END
>  <minimizedAffinity>
-5.72116899

>  <minimizedRMSD>
0.488661766

$$$$
