
 OpenBabel03272507533D

 32 34  0  0  1  0  0  0  0  0999 V2000
   39.3420   24.3210   35.1510 N   0  0  0  0  0  0  0  0  0  0  0  0
   39.0570   25.5680   35.5220 C   0  0  0  0  0  0  0  0  0  0  0  0
   38.1170   26.2950   34.7820 C   0  0  0  0  0  0  0  0  0  0  0  0
   37.5730   25.6330   33.7230 C   0  0  0  0  0  0  0  0  0  0  0  0
   36.7300   26.3440   33.0900 O   0  0  0  0  0  0  0  0  0  0  0  0
   37.8290   24.3850   33.3160 N   0  0  0  0  0  0  0  0  0  0  0  0
   38.7470   23.7270   34.0690 C   0  0  0  0  0  0  0  0  0  0  0  0
   39.0100   22.5410   33.7060 O   0  0  0  0  0  0  0  0  0  0  0  0
   39.5470   25.9910   36.3740 H   0  0  0  0  0  0  0  0  0  0  0  0
   37.8910   27.2940   35.0790 H   0  0  0  0  0  0  0  0  0  0  0  0
   39.8260   22.7090   36.9080 C   0  0  0  0  0  0  0  0  0  0  0  0
   40.2990   23.5070   35.8430 C   0  0  0  0  0  0  0  0  0  0  0  0
   41.6630   23.4630   35.5270 C   0  0  0  0  0  0  0  0  0  0  0  0
   42.4610   22.6530   36.2610 N   0  0  0  0  0  0  0  0  0  0  0  0
   42.0130   21.9070   37.2590 C   0  0  0  0  0  0  0  0  0  0  0  0
   40.7080   21.9350   37.5780 N   0  0  0  0  0  0  0  0  0  0  0  0
   42.0030   24.0810   34.7080 H   0  0  0  0  0  0  0  0  0  0  0  0
   42.6320   21.2510   37.8610 H   0  0  0  0  0  0  0  0  0  0  0  0
   37.7020   23.4650   38.2200 C   0  0  0  0  0  0  0  0  0  0  0  0
   38.2060   24.4360   38.8290 O   0  0  0  0  0  0  0  0  0  0  0  0
   38.4720   22.6670   37.3050 N   0  0  0  0  0  0  0  0  0  0  0  0
   36.6620   23.2720   38.4270 H   0  0  0  0  0  0  0  0  0  0  0  0
   37.8550   21.9170   36.8710 H   0  0  0  0  0  0  0  0  0  0  0  0
   38.1430   23.5000   31.0280 C   0  0  1  0  0  3  0  0  0  0  0  0
   37.1980   23.7750   32.1820 C   0  0  1  0  0  3  0  0  0  0  0  0
   36.6550   22.4090   32.4450 C   0  0  0  0  0  3  0  0  0  0  0  0
   35.6120   22.4240   32.8630 H   0  0  0  0  0  0  0  0  0  0  0  0
   36.4630   21.9100   31.1350 O   0  0  0  0  0  0  0  0  0  0  0  0
   37.7030   22.1210   30.5260 C   0  0  0  0  0  3  0  0  0  0  0  0
   38.4410   21.3250   30.8100 H   0  0  0  0  0  0  0  0  0  0  0  0
   37.8960   24.4040   29.9970 O   0  0  0  0  0  0  0  0  0  0  0  0
   36.9810   24.7710   30.0690 H   0  0  0  0  0  0  0  0  0  0  0  0
  1  2  1  0  0  0  0
  1 12  1  0  0  0  0
  2  9  1  0  0  0  0
  3 10  1  0  0  0  0
  3  2  2  0  0  0  0
  4  3  1  0  0  0  0
  5  4  2  0  0  0  0
  6  4  1  0  0  0  0
  6  7  1  0  0  0  0
  7  1  1  0  0  0  0
  8  7  2  0  0  0  0
 11 21  1  0  0  0  0
 11 16  1  0  0  0  0
 12 11  2  0  0  0  0
 13 12  1  0  0  0  0
 13 14  2  0  0  0  0
 14 15  1  0  0  0  0
 15 16  2  0  0  0  0
 15 18  1  0  0  0  0
 17 13  1  0  0  0  0
 19 22  1  0  0  0  0
 19 20  2  0  0  0  0
 21 19  1  0  0  0  0
 23 21  1  0  0  0  0
 24 31  1  6  0  0  0
 24 25  1  0  0  0  0
 25 26  1  0  0  0  0
 25  6  1  1  0  0  0
 26 27  1  0  0  0  0
 28 26  1  0  0  0  0
 29 30  1  0  0  0  0
 29 24  1  0  0  0  0
 29 28  1  0  0  0  0
 31 32  1  0  0  0  0
M  END
>  <minimizedAffinity>
-5.31242132

$$$$

 OpenBabel03272507533D

 32 34  0  0  1  0  0  0  0  0999 V2000
   38.6150   25.2680   35.4710 N   0  0  0  0  0  0  0  0  0  0  0  0
   38.4370   26.4940   35.9600 C   0  0  0  0  0  0  0  0  0  0  0  0
   37.7540   27.4390   35.1850 C   0  0  0  0  0  0  0  0  0  0  0  0
   37.3280   26.9940   33.9690 C   0  0  0  0  0  0  0  0  0  0  0  0
   36.7180   27.8950   33.3110 O   0  0  0  0  0  0  0  0  0  0  0  0
   37.4850   25.7760   33.4400 N   0  0  0  0  0  0  0  0  0  0  0  0
   38.1540   24.9020   34.2340 C   0  0  0  0  0  0  0  0  0  0  0  0
   38.3180   23.7380   33.7570 O   0  0  0  0  0  0  0  0  0  0  0  0
   38.8150   26.7360   36.9320 H   0  0  0  0  0  0  0  0  0  0  0  0
   37.6120   28.4200   35.5770 H   0  0  0  0  0  0  0  0  0  0  0  0
   40.6190   23.9210   35.7650 C   0  0  0  0  0  0  0  0  0  0  0  0
   39.3120   24.2420   36.1910 C   0  0  0  0  0  0  0  0  0  0  0  0
   38.7720   23.5470   37.2800 C   0  0  0  0  0  0  0  0  0  0  0  0
   39.5340   22.5980   37.8730 N   0  0  0  0  0  0  0  0  0  0  0  0
   40.7590   22.2990   37.4700 C   0  0  0  0  0  0  0  0  0  0  0  0
   41.2960   22.9550   36.4270 N   0  0  0  0  0  0  0  0  0  0  0  0
   37.7700   23.8090   37.5900 H   0  0  0  0  0  0  0  0  0  0  0  0
   41.3890   21.5450   37.9270 H   0  0  0  0  0  0  0  0  0  0  0  0
   42.4950   25.3060   34.5970 C   0  0  0  0  0  0  0  0  0  0  0  0
   43.2440   25.4620   35.5870 O   0  0  0  0  0  0  0  0  0  0  0  0
   41.2660   24.5640   34.6880 N   0  0  0  0  0  0  0  0  0  0  0  0
   42.8320   25.7610   33.6790 H   0  0  0  0  0  0  0  0  0  0  0  0
   40.7970   24.5220   33.7360 H   0  0  0  0  0  0  0  0  0  0  0  0
   38.0860   25.2260   31.1050 C   0  0  1  0  0  3  0  0  0  0  0  0
   36.9960   25.4040   32.1440 C   0  0  1  0  0  3  0  0  0  0  0  0
   36.3320   24.0680   32.1000 C   0  0  0  0  0  3  0  0  0  0  0  0
   35.2410   24.1110   32.3650 H   0  0  0  0  0  0  0  0  0  0  0  0
   36.3100   23.7940   30.7120 O   0  0  0  0  0  0  0  0  0  0  0  0
   37.6390   23.9850   30.3260 C   0  0  0  0  0  3  0  0  0  0  0  0
   38.2720   23.0930   30.5760 H   0  0  0  0  0  0  0  0  0  0  0  0
   38.0590   26.2960   30.2110 O   0  0  0  0  0  0  0  0  0  0  0  0
   37.1680   26.7270   30.2140 H   0  0  0  0  0  0  0  0  0  0  0  0
  1  2  1  0  0  0  0
  1 12  1  0  0  0  0
  2  9  1  0  0  0  0
  3 10  1  0  0  0  0
  3  2  2  0  0  0  0
  4  3  1  0  0  0  0
  5  4  2  0  0  0  0
  6  4  1  0  0  0  0
  6  7  1  0  0  0  0
  7  1  1  0  0  0  0
  8  7  2  0  0  0  0
 11 12  2  0  0  0  0
 11 16  1  0  0  0  0
 12 13  1  0  0  0  0
 13 17  1  0  0  0  0
 13 14  2  0  0  0  0
 15 14  1  0  0  0  0
 15 18  1  0  0  0  0
 16 15  2  0  0  0  0
 19 21  1  0  0  0  0
 19 20  2  0  0  0  0
 21 11  1  0  0  0  0
 22 19  1  0  0  0  0
 23 21  1  0  0  0  0
 24 31  1  6  0  0  0
 24 25  1  0  0  0  0
 25  6  1  1  0  0  0
 26 25  1  0  0  0  0
 26 27  1  0  0  0  0
 28 26  1  0  0  0  0
 29 30  1  0  0  0  0
 29 28  1  0  0  0  0
 29 24  1  0  0  0  0
 31 32  1  0  0  0  0
M  END
>  <minimizedAffinity>
-5.15204906

$$$$

 OpenBabel03272507533D

 32 34  0  0  1  0  0  0  0  0999 V2000
   37.3090   24.5070   32.8710 N   0  0  0  0  0  0  0  0  0  0  0  0
   36.5770   24.9270   31.8410 C   0  0  0  0  0  0  0  0  0  0  0  0
   35.8570   23.9870   31.0950 C   0  0  0  0  0  0  0  0  0  0  0  0
   35.9820   22.6960   31.5110 C   0  0  0  0  0  0  0  0  0  0  0  0
   35.3090   21.8890   30.7950 O   0  0  0  0  0  0  0  0  0  0  0  0
   36.7040   22.2300   32.5370 N   0  0  0  0  0  0  0  0  0  0  0  0
   37.3810   23.1840   33.2240 C   0  0  0  0  0  0  0  0  0  0  0  0
   38.0740   22.7720   34.2030 O   0  0  0  0  0  0  0  0  0  0  0  0
   36.5500   25.9700   31.6020 H   0  0  0  0  0  0  0  0  0  0  0  0
   35.2720   24.3240   30.2700 H   0  0  0  0  0  0  0  0  0  0  0  0
   39.4170   25.6470   33.2850 C   0  0  0  0  0  0  0  0  0  0  0  0
   38.0860   25.3980   33.6830 C   0  0  0  0  0  0  0  0  0  0  0  0
   37.6030   26.0260   34.8370 C   0  0  0  0  0  0  0  0  0  0  0  0
   38.4400   26.8450   35.5160 N   0  0  0  0  0  0  0  0  0  0  0  0
   39.6880   27.0750   35.1390 C   0  0  0  0  0  0  0  0  0  0  0  0
   40.1710   26.4820   34.0340 N   0  0  0  0  0  0  0  0  0  0  0  0
   36.5800   25.8220   35.1230 H   0  0  0  0  0  0  0  0  0  0  0  0
   40.3780   27.7260   35.6650 H   0  0  0  0  0  0  0  0  0  0  0  0
   40.0990   25.5250   30.7700 C   0  0  0  0  0  0  0  0  0  0  0  0
   39.6330   26.6280   30.4060 O   0  0  0  0  0  0  0  0  0  0  0  0
   40.0040   25.0780   32.1340 N   0  0  0  0  0  0  0  0  0  0  0  0
   40.5700   24.9380   29.9980 H   0  0  0  0  0  0  0  0  0  0  0  0
   40.4850   24.1360   32.2410 H   0  0  0  0  0  0  0  0  0  0  0  0
   35.4460   20.2650   33.3570 C   0  0  1  0  0  3  0  0  0  0  0  0
   36.7700   20.8430   32.8960 C   0  0  1  0  0  3  0  0  0  0  0  0
   37.1060   19.9330   31.7620 C   0  0  0  0  0  3  0  0  0  0  0  0
   38.2130   19.8190   31.6030 H   0  0  0  0  0  0  0  0  0  0  0  0
   36.7290   18.6690   32.2750 O   0  0  0  0  0  0  0  0  0  0  0  0
   35.4160   18.8780   32.7080 C   0  0  0  0  0  3  0  0  0  0  0  0
   34.6900   18.8390   31.8530 H   0  0  0  0  0  0  0  0  0  0  0  0
   35.4780   20.0660   34.7360 O   0  0  0  0  0  0  0  0  0  0  0  0
   36.4120   19.9980   35.0550 H   0  0  0  0  0  0  0  0  0  0  0  0
  1  7  1  0  0  0  0
  1 12  1  0  0  0  0
  2  1  1  0  0  0  0
  3  4  1  0  0  0  0
  3  2  2  0  0  0  0
  4  6  1  0  0  0  0
  5  4  2  0  0  0  0
  6  7  1  0  0  0  0
  7  8  2  0  0  0  0
  9  2  1  0  0  0  0
 10  3  1  0  0  0  0
 11 12  2  0  0  0  0
 11 16  1  0  0  0  0
 12 13  1  0  0  0  0
 13 17  1  0  0  0  0
 13 14  2  0  0  0  0
 15 14  1  0  0  0  0
 15 18  1  0  0  0  0
 16 15  2  0  0  0  0
 19 21  1  0  0  0  0
 20 19  2  0  0  0  0
 21 23  1  0  0  0  0
 21 11  1  0  0  0  0
 22 19  1  0  0  0  0
 24 31  1  1  0  0  0
 25  6  1  6  0  0  0
 25 24  1  0  0  0  0
 26 28  1  0  0  0  0
 26 25  1  0  0  0  0
 27 26  1  0  0  0  0
 28 29  1  0  0  0  0
 29 24  1  0  0  0  0
 30 29  1  0  0  0  0
 31 32  1  0  0  0  0
M  END
>  <minimizedAffinity>
-5.02359581

$$$$

 OpenBabel03272507533D

 32 34  0  0  1  0  0  0  0  0999 V2000
   38.0050   23.0080   34.6450 N   0  0  0  0  0  0  0  0  0  0  0  0
   37.5750   21.8710   34.0990 C   0  0  0  0  0  0  0  0  0  0  0  0
   37.3060   21.8410   32.7260 C   0  0  0  0  0  0  0  0  0  0  0  0
   37.5170   23.0140   32.0660 C   0  0  0  0  0  0  0  0  0  0  0  0
   37.2530   22.9250   30.8250 O   0  0  0  0  0  0  0  0  0  0  0  0
   37.9470   24.1750   32.5720 N   0  0  0  0  0  0  0  0  0  0  0  0
   38.1910   24.1480   33.9070 C   0  0  0  0  0  0  0  0  0  0  0  0
   38.6000   25.2350   34.4150 O   0  0  0  0  0  0  0  0  0  0  0  0
   37.4450   21.0060   34.7140 H   0  0  0  0  0  0  0  0  0  0  0  0
   36.9620   20.9310   32.2900 H   0  0  0  0  0  0  0  0  0  0  0  0
   39.5790   22.7400   36.4800 C   0  0  0  0  0  0  0  0  0  0  0  0
   38.2950   23.1330   36.0440 C   0  0  0  0  0  0  0  0  0  0  0  0
   37.3840   23.6160   36.9920 C   0  0  0  0  0  0  0  0  0  0  0  0
   37.7820   23.6820   38.2830 N   0  0  0  0  0  0  0  0  0  0  0  0
   38.9870   23.3120   38.6880 C   0  0  0  0  0  0  0  0  0  0  0  0
   39.8770   22.8470   37.7950 N   0  0  0  0  0  0  0  0  0  0  0  0
   36.4070   23.9110   36.6360 H   0  0  0  0  0  0  0  0  0  0  0  0
   39.3300   23.3550   39.7160 H   0  0  0  0  0  0  0  0  0  0  0  0
   41.6240   22.9040   34.8680 C   0  0  0  0  0  0  0  0  0  0  0  0
   41.8050   24.1400   34.9370 O   0  0  0  0  0  0  0  0  0  0  0  0
   40.5800   22.2520   35.6120 N   0  0  0  0  0  0  0  0  0  0  0  0
   42.2970   22.3670   34.2200 H   0  0  0  0  0  0  0  0  0  0  0  0
   40.6140   21.2030   35.4410 H   0  0  0  0  0  0  0  0  0  0  0  0
   36.9760   26.3320   31.8520 C   0  0  1  0  0  3  0  0  0  0  0  0
   38.1380   25.3610   31.7890 C   0  0  1  0  0  3  0  0  0  0  0  0
   39.2650   26.2240   32.2510 C   0  0  0  0  0  3  0  0  0  0  0  0
   40.2560   25.9240   31.8160 H   0  0  0  0  0  0  0  0  0  0  0  0
   38.9890   27.4470   31.5940 O   0  0  0  0  0  0  0  0  0  0  0  0
   37.6580   27.7010   31.9350 C   0  0  0  0  0  3  0  0  0  0  0  0
   37.5740   28.1410   32.9650 H   0  0  0  0  0  0  0  0  0  0  0  0
   36.2760   26.3020   30.6470 O   0  0  0  0  0  0  0  0  0  0  0  0
   36.8520   25.9570   29.9200 H   0  0  0  0  0  0  0  0  0  0  0  0
  1 12  1  0  0  0  0
  2  1  1  0  0  0  0
  2  9  1  0  0  0  0
  3  2  2  0  0  0  0
  4  6  1  0  0  0  0
  4  3  1  0  0  0  0
  5  4  2  0  0  0  0
  6  7  1  0  0  0  0
  7  8  2  0  0  0  0
  7  1  1  0  0  0  0
 10  3  1  0  0  0  0
 11 16  1  0  0  0  0
 12 11  2  0  0  0  0
 12 13  1  0  0  0  0
 13 14  2  0  0  0  0
 14 15  1  0  0  0  0
 15 18  1  0  0  0  0
 16 15  2  0  0  0  0
 17 13  1  0  0  0  0
 19 20  2  0  0  0  0
 19 21  1  0  0  0  0
 21 11  1  0  0  0  0
 22 19  1  0  0  0  0
 23 21  1  0  0  0  0
 24 31  1  6  0  0  0
 24 29  1  0  0  0  0
 25 24  1  0  0  0  0
 25 26  1  0  0  0  0
 25  6  1  1  0  0  0
 27 26  1  0  0  0  0
 28 29  1  0  0  0  0
 28 26  1  0  0  0  0
 29 30  1  0  0  0  0
 32 31  1  0  0  0  0
M  END
>  <minimizedAffinity>
-5.02188015

$$$$

 OpenBabel03272507533D

 32 34  0  0  1  0  0  0  0  0999 V2000
   37.9870   24.4920   32.6910 N   0  0  0  0  0  0  0  0  0  0  0  0
   37.0760   25.0390   31.8860 C   0  0  0  0  0  0  0  0  0  0  0  0
   36.0410   24.2360   31.3930 C   0  0  0  0  0  0  0  0  0  0  0  0
   36.0700   22.9360   31.7980 C   0  0  0  0  0  0  0  0  0  0  0  0
   35.1090   22.2580   31.3160 O   0  0  0  0  0  0  0  0  0  0  0  0
   36.9620   22.3470   32.6020 N   0  0  0  0  0  0  0  0  0  0  0  0
   37.9430   23.1710   33.0500 C   0  0  0  0  0  0  0  0  0  0  0  0
   38.8030   22.6390   33.8160 O   0  0  0  0  0  0  0  0  0  0  0  0
   37.1500   26.0760   31.6320 H   0  0  0  0  0  0  0  0  0  0  0  0
   35.3140   24.6750   30.7480 H   0  0  0  0  0  0  0  0  0  0  0  0
   38.9790   25.6740   34.5720 C   0  0  0  0  0  0  0  0  0  0  0  0
   39.0860   25.2370   33.2330 C   0  0  0  0  0  0  0  0  0  0  0  0
   40.2470   25.5520   32.5160 C   0  0  0  0  0  0  0  0  0  0  0  0
   41.2120   26.2630   33.1450 N   0  0  0  0  0  0  0  0  0  0  0  0
   41.1070   26.6720   34.4000 C   0  0  0  0  0  0  0  0  0  0  0  0
   40.0010   26.3790   35.1060 N   0  0  0  0  0  0  0  0  0  0  0  0
   40.3080   25.2070   31.4930 H   0  0  0  0  0  0  0  0  0  0  0  0
   41.8640   27.2420   34.9250 H   0  0  0  0  0  0  0  0  0  0  0  0
   37.6840   24.5610   36.5440 C   0  0  0  0  0  0  0  0  0  0  0  0
   38.6330   23.9090   37.0340 O   0  0  0  0  0  0  0  0  0  0  0  0
   37.8620   25.4030   35.3910 N   0  0  0  0  0  0  0  0  0  0  0  0
   36.7340   24.4510   37.0410 H   0  0  0  0  0  0  0  0  0  0  0  0
   36.9480   25.8910   35.1540 H   0  0  0  0  0  0  0  0  0  0  0  0
   35.5300   20.5030   33.4160 C   0  0  1  0  0  3  0  0  0  0  0  0
   36.9050   20.9620   32.9720 C   0  0  1  0  0  3  0  0  0  0  0  0
   37.1790   20.0180   31.8490 C   0  0  0  0  0  3  0  0  0  0  0  0
   38.2740   19.8080   31.7070 H   0  0  0  0  0  0  0  0  0  0  0  0
   36.6880   18.7950   32.3640 O   0  0  0  0  0  0  0  0  0  0  0  0
   35.3920   19.1180   32.7760 C   0  0  0  0  0  3  0  0  0  0  0  0
   34.6780   19.1340   31.9110 H   0  0  0  0  0  0  0  0  0  0  0  0
   35.5260   20.3120   34.7970 O   0  0  0  0  0  0  0  0  0  0  0  0
   36.4460   20.1670   35.1300 H   0  0  0  0  0  0  0  0  0  0  0  0
  1  7  1  0  0  0  0
  1 12  1  0  0  0  0
  2  1  1  0  0  0  0
  3  4  1  0  0  0  0
  3  2  2  0  0  0  0
  4  6  1  0  0  0  0
  5  4  2  0  0  0  0
  6  7  1  0  0  0  0
  7  8  2  0  0  0  0
  9  2  1  0  0  0  0
 10  3  1  0  0  0  0
 11 16  1  0  0  0  0
 11 21  1  0  0  0  0
 12 11  2  0  0  0  0
 13 14  2  0  0  0  0
 13 12  1  0  0  0  0
 14 15  1  0  0  0  0
 15 18  1  0  0  0  0
 15 16  2  0  0  0  0
 17 13  1  0  0  0  0
 19 20  2  0  0  0  0
 19 22  1  0  0  0  0
 21 19  1  0  0  0  0
 23 21  1  0  0  0  0
 24 31  1  1  0  0  0
 25  6  1  6  0  0  0
 25 24  1  0  0  0  0
 26 28  1  0  0  0  0
 26 25  1  0  0  0  0
 27 26  1  0  0  0  0
 28 29  1  0  0  0  0
 29 24  1  0  0  0  0
 30 29  1  0  0  0  0
 31 32  1  0  0  0  0
M  END
>  <minimizedAffinity>
-5.01110458

$$$$

 OpenBabel03272507533D

 32 34  0  0  1  0  0  0  0  0999 V2000
   39.2960   25.6260   34.7420 N   0  0  0  0  0  0  0  0  0  0  0  0
   40.3460   26.4380   34.6330 C   0  0  0  0  0  0  0  0  0  0  0  0
   40.5260   27.1530   33.4430 C   0  0  0  0  0  0  0  0  0  0  0  0
   39.5800   26.9380   32.4870 C   0  0  0  0  0  0  0  0  0  0  0  0
   39.7980   27.6120   31.4310 O   0  0  0  0  0  0  0  0  0  0  0  0
   38.5130   26.1340   32.5540 N   0  0  0  0  0  0  0  0  0  0  0  0
   38.3880   25.4660   33.7290 C   0  0  0  0  0  0  0  0  0  0  0  0
   37.3840   24.6960   33.8210 O   0  0  0  0  0  0  0  0  0  0  0  0
   41.0300   26.5320   35.4510 H   0  0  0  0  0  0  0  0  0  0  0  0
   41.3670   27.8030   33.3570 H   0  0  0  0  0  0  0  0  0  0  0  0
   39.7040   23.6080   36.0380 C   0  0  0  0  0  0  0  0  0  0  0  0
   39.0390   24.8480   35.9200 C   0  0  0  0  0  0  0  0  0  0  0  0
   38.1730   25.2440   36.9460 C   0  0  0  0  0  0  0  0  0  0  0  0
   38.0170   24.4160   38.0050 N   0  0  0  0  0  0  0  0  0  0  0  0
   38.6420   23.2540   38.1120 C   0  0  0  0  0  0  0  0  0  0  0  0
   39.4780   22.8550   37.1380 N   0  0  0  0  0  0  0  0  0  0  0  0
   37.6740   26.1970   36.8350 H   0  0  0  0  0  0  0  0  0  0  0  0
   38.5340   22.5730   38.9480 H   0  0  0  0  0  0  0  0  0  0  0  0
   40.4300   22.2830   33.9120 C   0  0  0  0  0  0  0  0  0  0  0  0
   39.3010   21.8700   33.5660 O   0  0  0  0  0  0  0  0  0  0  0  0
   40.6070   23.1150   35.0720 N   0  0  0  0  0  0  0  0  0  0  0  0
   41.2530   21.9750   33.2870 H   0  0  0  0  0  0  0  0  0  0  0  0
   41.6310   23.3810   35.1740 H   0  0  0  0  0  0  0  0  0  0  0  0
   37.2810   24.5310   31.1300 C   0  0  1  0  0  3  0  0  0  0  0  0
   37.5690   25.9770   31.4860 C   0  0  1  0  0  3  0  0  0  0  0  0
   36.1980   26.4780   31.8020 C   0  0  0  0  0  3  0  0  0  0  0  0
   36.0710   27.5740   31.5900 H   0  0  0  0  0  0  0  0  0  0  0  0
   35.4200   25.8670   30.7900 O   0  0  0  0  0  0  0  0  0  0  0  0
   35.7680   24.5170   30.8880 C   0  0  0  0  0  3  0  0  0  0  0  0
   35.2220   24.0120   31.7270 H   0  0  0  0  0  0  0  0  0  0  0  0
   37.8880   24.2200   29.9140 O   0  0  0  0  0  0  0  0  0  0  0  0
   38.0560   25.0420   29.3910 H   0  0  0  0  0  0  0  0  0  0  0  0
  1 12  1  0  0  0  0
  2  1  1  0  0  0  0
  2  9  1  0  0  0  0
  3  2  2  0  0  0  0
  4  6  1  0  0  0  0
  4  3  1  0  0  0  0
  5  4  2  0  0  0  0
  6  7  1  0  0  0  0
  7  8  2  0  0  0  0
  7  1  1  0  0  0  0
 10  3  1  0  0  0  0
 11 16  1  0  0  0  0
 12 11  2  0  0  0  0
 12 13  1  0  0  0  0
 13 14  2  0  0  0  0
 14 15  1  0  0  0  0
 15 18  1  0  0  0  0
 16 15  2  0  0  0  0
 17 13  1  0  0  0  0
 19 21  1  0  0  0  0
 20 19  2  0  0  0  0
 21 23  1  0  0  0  0
 21 11  1  0  0  0  0
 22 19  1  0  0  0  0
 24 31  1  6  0  0  0
 24 25  1  0  0  0  0
 25 26  1  0  0  0  0
 25  6  1  1  0  0  0
 27 26  1  0  0  0  0
 28 29  1  0  0  0  0
 28 26  1  0  0  0  0
 29 24  1  0  0  0  0
 29 30  1  0  0  0  0
 32 31  1  0  0  0  0
M  END
>  <minimizedAffinity>
-5.0110445

$$$$

 OpenBabel03272507533D

 32 34  0  0  1  0  0  0  0  0999 V2000
   38.7920   23.2760   33.8980 N   0  0  0  0  0  0  0  0  0  0  0  0
   38.5960   24.5830   33.7290 C   0  0  0  0  0  0  0  0  0  0  0  0
   37.5650   25.0080   32.8820 C   0  0  0  0  0  0  0  0  0  0  0  0
   36.8460   24.0100   32.2960 C   0  0  0  0  0  0  0  0  0  0  0  0
   35.9280   24.4560   31.5380 O   0  0  0  0  0  0  0  0  0  0  0  0
   37.0080   22.6890   32.4370 N   0  0  0  0  0  0  0  0  0  0  0  0
   38.0200   22.3350   33.2690 C   0  0  0  0  0  0  0  0  0  0  0  0
   38.1980   21.0880   33.4220 O   0  0  0  0  0  0  0  0  0  0  0  0
   39.2230   25.2830   34.2410 H   0  0  0  0  0  0  0  0  0  0  0  0
   37.4100   26.0540   32.7470 H   0  0  0  0  0  0  0  0  0  0  0  0
   39.4670   22.3380   36.0380 C   0  0  0  0  0  0  0  0  0  0  0  0
   39.8300   22.7520   34.7380 C   0  0  0  0  0  0  0  0  0  0  0  0
   41.1690   22.6330   34.3450 C   0  0  0  0  0  0  0  0  0  0  0  0
   42.0520   22.1230   35.2360 N   0  0  0  0  0  0  0  0  0  0  0  0
   41.7080   21.7360   36.4540 C   0  0  0  0  0  0  0  0  0  0  0  0
   40.4280   21.8420   36.8500 N   0  0  0  0  0  0  0  0  0  0  0  0
   41.4240   22.9560   33.3460 H   0  0  0  0  0  0  0  0  0  0  0  0
   42.3950   21.3250   37.1850 H   0  0  0  0  0  0  0  0  0  0  0  0
   37.4950   23.3020   37.4470 C   0  0  0  0  0  0  0  0  0  0  0  0
   38.0960   24.2780   37.9490 O   0  0  0  0  0  0  0  0  0  0  0  0
   38.1480   22.4010   36.5350 N   0  0  0  0  0  0  0  0  0  0  0  0
   36.4650   23.1840   37.7420 H   0  0  0  0  0  0  0  0  0  0  0  0
   37.4600   21.6630   36.2000 H   0  0  0  0  0  0  0  0  0  0  0  0
   36.9240   20.4290   31.4390 C   0  0  1  0  0  3  0  0  0  0  0  0
   36.1930   21.7140   31.7740 C   0  0  1  0  0  3  0  0  0  0  0  0
   35.0610   21.1990   32.6000 C   0  0  0  0  0  3  0  0  0  0  0  0
   34.1400   21.8370   32.5320 H   0  0  0  0  0  0  0  0  0  0  0  0
   34.6890   20.0290   31.8950 O   0  0  0  0  0  0  0  0  0  0  0  0
   35.8960   19.3390   31.7590 C   0  0  0  0  0  3  0  0  0  0  0  0
   36.1620   18.7860   32.6990 H   0  0  0  0  0  0  0  0  0  0  0  0
   37.1600   20.3700   30.0660 O   0  0  0  0  0  0  0  0  0  0  0  0
   36.5260   20.9540   29.5800 H   0  0  0  0  0  0  0  0  0  0  0  0
  1 12  1  0  0  0  0
  2  1  1  0  0  0  0
  2  9  1  0  0  0  0
  3  2  2  0  0  0  0
  4  6  1  0  0  0  0
  4  3  1  0  0  0  0
  5  4  2  0  0  0  0
  6  7  1  0  0  0  0
  7  8  2  0  0  0  0
  7  1  1  0  0  0  0
 10  3  1  0  0  0  0
 11 21  1  0  0  0  0
 11 16  1  0  0  0  0
 12 11  2  0  0  0  0
 13 12  1  0  0  0  0
 13 14  2  0  0  0  0
 14 15  1  0  0  0  0
 15 16  2  0  0  0  0
 15 18  1  0  0  0  0
 17 13  1  0  0  0  0
 19 22  1  0  0  0  0
 19 20  2  0  0  0  0
 21 19  1  0  0  0  0
 23 21  1  0  0  0  0
 24 31  1  6  0  0  0
 24 29  1  0  0  0  0
 24 25  1  0  0  0  0
 25  6  1  1  0  0  0
 25 26  1  0  0  0  0
 27 26  1  0  0  0  0
 28 26  1  0  0  0  0
 29 28  1  0  0  0  0
 29 30  1  0  0  0  0
 32 31  1  0  0  0  0
M  END
>  <minimizedAffinity>
-4.97325611

$$$$

 OpenBabel03272507533D

 32 34  0  0  1  0  0  0  0  0999 V2000
   36.1770   26.4390   31.7410 N   0  0  0  0  0  0  0  0  0  0  0  0
   35.4930   25.4920   31.1010 C   0  0  0  0  0  0  0  0  0  0  0  0
   35.8110   24.1500   31.3410 C   0  0  0  0  0  0  0  0  0  0  0  0
   36.8200   23.9410   32.2320 C   0  0  0  0  0  0  0  0  0  0  0  0
   37.0640   22.7060   32.4060 O   0  0  0  0  0  0  0  0  0  0  0  0
   37.5310   24.8600   32.8960 N   0  0  0  0  0  0  0  0  0  0  0  0
   37.1810   26.1430   32.6250 C   0  0  0  0  0  0  0  0  0  0  0  0
   37.8390   27.0360   33.2410 O   0  0  0  0  0  0  0  0  0  0  0  0
   34.7160   25.7700   30.4190 H   0  0  0  0  0  0  0  0  0  0  0  0
   35.2630   23.3930   30.8280 H   0  0  0  0  0  0  0  0  0  0  0  0
   36.5740   28.4730   30.4670 C   0  0  0  0  0  0  0  0  0  0  0  0
   35.9260   27.8380   31.5490 C   0  0  0  0  0  0  0  0  0  0  0  0
   35.0850   28.6010   32.3670 C   0  0  0  0  0  0  0  0  0  0  0  0
   34.9340   29.9150   32.0780 N   0  0  0  0  0  0  0  0  0  0  0  0
   35.5440   30.5070   31.0630 C   0  0  0  0  0  0  0  0  0  0  0  0
   36.3560   29.7920   30.2660 N   0  0  0  0  0  0  0  0  0  0  0  0
   34.5980   28.0950   33.1900 H   0  0  0  0  0  0  0  0  0  0  0  0
   35.4400   31.5560   30.8120 H   0  0  0  0  0  0  0  0  0  0  0  0
   38.8550   27.5800   29.5690 C   0  0  0  0  0  0  0  0  0  0  0  0
   39.5850   27.9940   30.4970 O   0  0  0  0  0  0  0  0  0  0  0  0
   37.4330   27.7990   29.5720 N   0  0  0  0  0  0  0  0  0  0  0  0
   39.3600   27.0550   28.7750 H   0  0  0  0  0  0  0  0  0  0  0  0
   36.9950   27.3450   28.7160 H   0  0  0  0  0  0  0  0  0  0  0  0
   38.1190   23.7170   35.0080 C   0  0  1  0  0  3  0  0  0  0  0  0
   38.5800   24.5370   33.8190 C   0  0  1  0  0  3  0  0  0  0  0  0
   39.6430   23.6550   33.2530 C   0  0  0  0  0  3  0  0  0  0  0  0
   40.4530   24.2270   32.7230 H   0  0  0  0  0  0  0  0  0  0  0  0
   40.2960   23.1920   34.4200 O   0  0  0  0  0  0  0  0  0  0  0  0
   39.2470   22.6980   35.2000 C   0  0  0  0  0  3  0  0  0  0  0  0
   38.9350   21.6720   34.8680 H   0  0  0  0  0  0  0  0  0  0  0  0
   38.1000   24.5180   36.1490 O   0  0  0  0  0  0  0  0  0  0  0  0
   38.6990   25.2970   36.0350 H   0  0  0  0  0  0  0  0  0  0  0  0
  1  7  1  0  0  0  0
  2  3  2  0  0  0  0
  2  1  1  0  0  0  0
  3  4  1  0  0  0  0
  4  5  2  0  0  0  0
  4  6  1  0  0  0  0
  7  6  1  0  0  0  0
  7  8  2  0  0  0  0
  9  2  1  0  0  0  0
 10  3  1  0  0  0  0
 11 12  1  0  0  0  0
 12  1  1  0  0  0  0
 12 13  2  0  0  0  0
 13 17  1  0  0  0  0
 14 13  1  0  0  0  0
 15 14  2  0  0  0  0
 16 11  2  0  0  0  0
 16 15  1  0  0  0  0
 18 15  1  0  0  0  0
 19 21  1  0  0  0  0
 19 20  2  0  0  0  0
 21 11  1  0  0  0  0
 22 19  1  0  0  0  0
 23 21  1  0  0  0  0
 24 29  1  0  0  0  0
 24 31  1  1  0  0  0
 25  6  1  6  0  0  0
 25 24  1  0  0  0  0
 26 25  1  0  0  0  0
 26 28  1  0  0  0  0
 27 26  1  0  0  0  0
 28 29  1  0  0  0  0
 30 29  1  0  0  0  0
 32 31  1  0  0  0  0
M  END
>  <minimizedAffinity>
-4.95761967

$$$$

 OpenBabel03272507533D

 32 34  0  0  1  0  0  0  0  0999 V2000
   38.8290   23.4160   34.3240 N   0  0  0  0  0  0  0  0  0  0  0  0
   39.6540   24.1470   33.5750 C   0  0  0  0  0  0  0  0  0  0  0  0
   39.5650   24.0520   32.1810 C   0  0  0  0  0  0  0  0  0  0  0  0
   38.6140   23.1930   31.7170 C   0  0  0  0  0  0  0  0  0  0  0  0
   38.5830   23.1480   30.4470 O   0  0  0  0  0  0  0  0  0  0  0  0
   37.7670   22.4420   32.4300 N   0  0  0  0  0  0  0  0  0  0  0  0
   37.8980   22.5740   33.7750 C   0  0  0  0  0  0  0  0  0  0  0  0
   37.1080   21.8740   34.4770 O   0  0  0  0  0  0  0  0  0  0  0  0
   40.3660   24.7920   34.0470 H   0  0  0  0  0  0  0  0  0  0  0  0
   40.2250   24.6370   31.5830 H   0  0  0  0  0  0  0  0  0  0  0  0
   38.1470   24.4790   36.4030 C   0  0  0  0  0  0  0  0  0  0  0  0
   38.8570   23.4430   35.7570 C   0  0  0  0  0  0  0  0  0  0  0  0
   39.5450   22.5110   36.5440 C   0  0  0  0  0  0  0  0  0  0  0  0
   39.4930   22.6500   37.8890 N   0  0  0  0  0  0  0  0  0  0  0  0
   38.8270   23.6220   38.4910 C   0  0  0  0  0  0  0  0  0  0  0  0
   38.1590   24.5270   37.7540 N   0  0  0  0  0  0  0  0  0  0  0  0
   40.0820   21.7260   36.0290 H   0  0  0  0  0  0  0  0  0  0  0  0
   38.7700   23.7550   39.5650 H   0  0  0  0  0  0  0  0  0  0  0  0
   37.7130   26.8190   35.3350 C   0  0  0  0  0  0  0  0  0  0  0  0
   38.8240   27.3370   35.5870 O   0  0  0  0  0  0  0  0  0  0  0  0
   37.4100   25.4640   35.7120 N   0  0  0  0  0  0  0  0  0  0  0  0
   37.0070   27.4510   34.8220 H   0  0  0  0  0  0  0  0  0  0  0  0
   36.4330   25.2060   35.3810 H   0  0  0  0  0  0  0  0  0  0  0  0
   37.0020   20.1030   32.1900 C   0  0  1  0  0  3  0  0  0  0  0  0
   36.7970   21.5650   31.8430 C   0  0  1  0  0  3  0  0  0  0  0  0
   35.4010   21.7860   32.3270 C   0  0  0  0  0  3  0  0  0  0  0  0
   34.8550   22.5790   31.7480 H   0  0  0  0  0  0  0  0  0  0  0  0
   34.7550   20.5950   31.9190 O   0  0  0  0  0  0  0  0  0  0  0  0
   35.5790   19.5900   32.4330 C   0  0  0  0  0  3  0  0  0  0  0  0
   35.3850   19.4180   33.5250 H   0  0  0  0  0  0  0  0  0  0  0  0
   37.4920   19.4240   31.0750 O   0  0  0  0  0  0  0  0  0  0  0  0
   37.2710   19.9150   30.2450 H   0  0  0  0  0  0  0  0  0  0  0  0
  1 12  1  0  0  0  0
  2  9  1  0  0  0  0
  2  1  1  0  0  0  0
  3  2  2  0  0  0  0
  4  3  1  0  0  0  0
  4  6  1  0  0  0  0
  5  4  2  0  0  0  0
  6  7  1  0  0  0  0
  7  1  1  0  0  0  0
  7  8  2  0  0  0  0
 10  3  1  0  0  0  0
 11 16  1  0  0  0  0
 12 11  2  0  0  0  0
 12 13  1  0  0  0  0
 13 14  2  0  0  0  0
 14 15  1  0  0  0  0
 15 18  1  0  0  0  0
 16 15  2  0  0  0  0
 17 13  1  0  0  0  0
 19 20  2  0  0  0  0
 19 21  1  0  0  0  0
 21 11  1  0  0  0  0
 22 19  1  0  0  0  0
 23 21  1  0  0  0  0
 24 31  1  6  0  0  0
 24 29  1  0  0  0  0
 25 24  1  0  0  0  0
 25 26  1  0  0  0  0
 25  6  1  1  0  0  0
 27 26  1  0  0  0  0
 28 26  1  0  0  0  0
 28 29  1  0  0  0  0
 29 30  1  0  0  0  0
 32 31  1  0  0  0  0
M  END
>  <minimizedAffinity>
-4.87274265

$$$$
