
 OpenBabel03272507523D

 32 34  0  0  1  0  0  0  0  0999 V2000
   36.5670   31.2130   48.6700 N   0  0  0  0  0  0  0  0  0  0  0  0
   36.8190   32.1040   49.6280 C   0  0  0  0  0  0  0  0  0  0  0  0
   37.8880   32.9920   49.4600 C   0  0  0  0  0  0  0  0  0  0  0  0
   38.5850   32.8500   48.2980 C   0  0  0  0  0  0  0  0  0  0  0  0
   39.5430   33.6810   48.2040 O   0  0  0  0  0  0  0  0  0  0  0  0
   38.3670   31.9730   47.3120 N   0  0  0  0  0  0  0  0  0  0  0  0
   37.3190   31.1370   47.5270 C   0  0  0  0  0  0  0  0  0  0  0  0
   37.0890   30.2930   46.6090 O   0  0  0  0  0  0  0  0  0  0  0  0
   36.2040   32.1270   50.5030 H   0  0  0  0  0  0  0  0  0  0  0  0
   38.0890   33.7040   50.2270 H   0  0  0  0  0  0  0  0  0  0  0  0
   35.3570   29.5580   49.9800 C   0  0  0  0  0  0  0  0  0  0  0  0
   35.5000   30.2590   48.7620 C   0  0  0  0  0  0  0  0  0  0  0  0
   34.6030   29.9860   47.7220 C   0  0  0  0  0  0  0  0  0  0  0  0
   33.6390   29.0600   47.9380 N   0  0  0  0  0  0  0  0  0  0  0  0
   33.5090   28.4040   49.0810 C   0  0  0  0  0  0  0  0  0  0  0  0
   34.3600   28.6520   50.0920 N   0  0  0  0  0  0  0  0  0  0  0  0
   34.7300   30.5340   46.7990 H   0  0  0  0  0  0  0  0  0  0  0  0
   32.7470   27.6590   49.2780 H   0  0  0  0  0  0  0  0  0  0  0  0
   37.4780   29.2220   51.4600 C   0  0  0  0  0  0  0  0  0  0  0  0
   38.0910   28.4260   50.7140 O   0  0  0  0  0  0  0  0  0  0  0  0
   36.1950   29.7620   51.0970 N   0  0  0  0  0  0  0  0  0  0  0  0
   37.9730   29.4730   52.3840 H   0  0  0  0  0  0  0  0  0  0  0  0
   35.8620   30.4380   51.8460 H   0  0  0  0  0  0  0  0  0  0  0  0
   38.6090   32.7170   44.9670 C   0  0  1  0  0  3  0  0  0  0  0  0
   39.1610   31.9040   46.1200 C   0  0  1  0  0  3  0  0  0  0  0  0
   40.5270   32.4910   46.2620 C   0  0  0  0  0  3  0  0  0  0  0  0
   41.2810   31.7590   46.6610 H   0  0  0  0  0  0  0  0  0  0  0  0
   40.9220   32.6480   44.9130 O   0  0  0  0  0  0  0  0  0  0  0  0
   39.8570   33.3530   44.3460 C   0  0  0  0  0  3  0  0  0  0  0  0
   39.9190   34.4490   44.5770 H   0  0  0  0  0  0  0  0  0  0  0  0
   38.0710   31.8600   44.0070 O   0  0  0  0  0  0  0  0  0  0  0  0
   38.4620   30.9560   44.0920 H   0  0  0  0  0  0  0  0  0  0  0  0
  1 12  1  0  0  0  0
  1  2  1  0  0  0  0
  2  9  1  0  0  0  0
  3  2  2  0  0  0  0
  3 10  1  0  0  0  0
  4  3  1  0  0  0  0
  5  4  2  0  0  0  0
  6  7  1  0  0  0  0
  6  4  1  0  0  0  0
  7  1  1  0  0  0  0
  8  7  2  0  0  0  0
 11 16  1  0  0  0  0
 11 21  1  0  0  0  0
 12 11  2  0  0  0  0
 13 14  2  0  0  0  0
 13 12  1  0  0  0  0
 14 15  1  0  0  0  0
 15 18  1  0  0  0  0
 15 16  2  0  0  0  0
 17 13  1  0  0  0  0
 19 22  1  0  0  0  0
 20 19  2  0  0  0  0
 21 19  1  0  0  0  0
 21 23  1  0  0  0  0
 24 31  1  6  0  0  0
 24 25  1  0  0  0  0
 25 26  1  0  0  0  0
 25  6  1  1  0  0  0
 26 27  1  0  0  0  0
 28 26  1  0  0  0  0
 29 30  1  0  0  0  0
 29 28  1  0  0  0  0
 29 24  1  0  0  0  0
 31 32  1  0  0  0  0
M  END
>  <minimizedAffinity>
-5.80355406

>  <minimizedRMSD>
1.19411421

$$$$
