
 OpenBabel03272507513D

 32 34  0  0  1  0  0  0  0  0999 V2000
   36.5580   31.1340   48.5900 N   0  0  0  0  0  0  0  0  0  0  0  0
   36.9280   32.0170   49.5170 C   0  0  0  0  0  0  0  0  0  0  0  0
   38.0190   32.8540   49.2550 C   0  0  0  0  0  0  0  0  0  0  0  0
   38.6130   32.6730   48.0420 C   0  0  0  0  0  0  0  0  0  0  0  0
   39.5970   33.4580   47.8640 O   0  0  0  0  0  0  0  0  0  0  0  0
   38.2760   31.8020   47.0850 N   0  0  0  0  0  0  0  0  0  0  0  0
   37.2120   31.0170   47.3910 C   0  0  0  0  0  0  0  0  0  0  0  0
   36.8690   30.1800   46.5020 O   0  0  0  0  0  0  0  0  0  0  0  0
   36.3870   32.0740   50.4390 H   0  0  0  0  0  0  0  0  0  0  0  0
   38.3150   33.5590   49.9980 H   0  0  0  0  0  0  0  0  0  0  0  0
   35.3250   29.6220   50.0430 C   0  0  0  0  0  0  0  0  0  0  0  0
   35.4590   30.2310   48.7770 C   0  0  0  0  0  0  0  0  0  0  0  0
   34.5230   29.9230   47.7820 C   0  0  0  0  0  0  0  0  0  0  0  0
   33.5320   29.0520   48.0870 N   0  0  0  0  0  0  0  0  0  0  0  0
   33.4110   28.4820   49.2750 C   0  0  0  0  0  0  0  0  0  0  0  0
   34.2980   28.7660   50.2440 N   0  0  0  0  0  0  0  0  0  0  0  0
   34.6440   30.4010   46.8200 H   0  0  0  0  0  0  0  0  0  0  0  0
   32.6270   27.7830   49.5440 H   0  0  0  0  0  0  0  0  0  0  0  0
   37.4660   29.2920   51.4970 C   0  0  0  0  0  0  0  0  0  0  0  0
   38.0170   28.4080   50.8040 O   0  0  0  0  0  0  0  0  0  0  0  0
   36.2020   29.8690   51.1210 N   0  0  0  0  0  0  0  0  0  0  0  0
   37.9970   29.5890   52.3870 H   0  0  0  0  0  0  0  0  0  0  0  0
   35.9240   30.6180   51.8210 H   0  0  0  0  0  0  0  0  0  0  0  0
   39.0900   33.0000   45.0810 C   0  0  1  0  0  3  0  0  0  0  0  0
   38.9680   31.6900   45.8340 C   0  0  1  0  0  3  0  0  0  0  0  0
   40.4020   31.2930   45.9620 C   0  0  0  0  0  3  0  0  0  0  0  0
   40.5480   30.1800   46.0030 H   0  0  0  0  0  0  0  0  0  0  0  0
   40.9170   31.6340   44.6890 O   0  0  0  0  0  0  0  0  0  0  0  0
   40.5180   32.9620   44.5240 C   0  0  0  0  0  3  0  0  0  0  0  0
   41.1930   33.6680   45.0770 H   0  0  0  0  0  0  0  0  0  0  0  0
   38.2280   32.9920   43.9860 O   0  0  0  0  0  0  0  0  0  0  0  0
   38.0050   32.0630   43.7290 H   0  0  0  0  0  0  0  0  0  0  0  0
  1 12  1  0  0  0  0
  1  2  1  0  0  0  0
  2  9  1  0  0  0  0
  3  2  2  0  0  0  0
  3 10  1  0  0  0  0
  4  3  1  0  0  0  0
  5  4  2  0  0  0  0
  6  7  1  0  0  0  0
  6  4  1  0  0  0  0
  7  1  1  0  0  0  0
  8  7  2  0  0  0  0
 11 16  1  0  0  0  0
 11 21  1  0  0  0  0
 12 11  2  0  0  0  0
 13 14  2  0  0  0  0
 13 12  1  0  0  0  0
 14 15  1  0  0  0  0
 15 18  1  0  0  0  0
 15 16  2  0  0  0  0
 17 13  1  0  0  0  0
 19 22  1  0  0  0  0
 20 19  2  0  0  0  0
 21 19  1  0  0  0  0
 21 23  1  0  0  0  0
 24 31  1  6  0  0  0
 24 25  1  0  0  0  0
 25 26  1  0  0  0  0
 25  6  1  1  0  0  0
 26 27  1  0  0  0  0
 28 26  1  0  0  0  0
 29 28  1  0  0  0  0
 29 30  1  0  0  0  0
 29 24  1  0  0  0  0
 32 31  1  0  0  0  0
M  END
>  <minimizedAffinity>
-5.93587112

>  <minimizedRMSD>
1.57356203

$$$$
