
 OpenBabel03272506153D

 28 30  0  0  1  0  0  0  0  0999 V2000
   41.2090   27.3860   33.5150 C   0  0  0  0  0  0  0  0  0  0  0  0
   42.3080   27.7280   32.7180 C   0  0  0  0  0  0  0  0  0  0  0  0
   43.4490   26.8850   32.7610 C   0  0  0  0  0  0  0  0  0  0  0  0
   43.4070   25.7940   33.5740 N   0  0  0  0  0  0  0  0  0  0  0  0
   42.3210   25.5130   34.3190 C   0  0  0  0  0  0  0  0  0  0  0  0
   41.2420   26.2980   34.2870 N   0  0  0  0  0  0  0  0  0  0  0  0
   42.2630   24.3700   35.1770 N   0  0  0  0  0  0  0  0  0  0  0  0
   43.4100   23.8320   35.6150 C   0  0  0  0  0  0  0  0  0  0  0  0
   43.2590   22.7400   36.4320 C   0  0  0  0  0  0  0  0  0  0  0  0
   42.0410   22.2000   36.8020 C   0  0  0  0  0  0  0  0  0  0  0  0
   41.9420   21.1980   37.5540 O   0  0  0  0  0  0  0  0  0  0  0  0
   40.9170   22.7880   36.3270 N   0  0  0  0  0  0  0  0  0  0  0  0
   41.0540   23.8630   35.5220 C   0  0  0  0  0  0  0  0  0  0  0  0
   40.0320   24.4430   35.0560 O   0  0  0  0  0  0  0  0  0  0  0  0
   40.3040   27.9790   33.5340 H   0  0  0  0  0  0  0  0  0  0  0  0
   42.2540   28.6170   32.0990 H   0  0  0  0  0  0  0  0  0  0  0  0
   44.2960   27.1430   32.1510 H   0  0  0  0  0  0  0  0  0  0  0  0
   44.3790   24.2340   35.3410 H   0  0  0  0  0  0  0  0  0  0  0  0
   44.1480   22.2520   36.8250 H   0  0  0  0  0  0  0  0  0  0  0  0
   38.8990   23.2240   37.6330 C   0  0  1  0  0  3  0  0  0  0  0  0
   39.6230   22.2530   36.6930 C   0  0  1  0  0  3  0  0  0  0  0  0
   38.6600   22.1280   35.5600 C   0  0  0  0  0  3  0  0  0  0  0  0
   38.1650   21.1300   35.6560 H   0  0  0  0  0  0  0  0  0  0  0  0
   37.6900   23.1350   35.7220 O   0  0  0  0  0  0  0  0  0  0  0  0
   37.4950   23.1510   37.1110 C   0  0  0  0  0  3  0  0  0  0  0  0
   36.9690   22.2340   37.4380 H   0  0  0  0  0  0  0  0  0  0  0  0
   38.9250   22.7850   38.9400 O   0  0  0  0  0  0  0  0  0  0  0  0
   39.8810   22.5400   39.1520 H   0  0  0  0  0  0  0  0  0  0  0  0
  1 15  1  0  0  0  0
  1  6  1  0  0  0  0
  2  3  1  0  0  0  0
  2  1  2  0  0  0  0
  3  4  2  0  0  0  0
  4  5  1  0  0  0  0
  5  7  1  0  0  0  0
  6  5  2  0  0  0  0
  7 13  1  0  0  0  0
  7  8  1  0  0  0  0
  8  9  2  0  0  0  0
  9 10  1  0  0  0  0
  9 19  1  0  0  0  0
 10 11  2  0  0  0  0
 12 10  1  0  0  0  0
 13 12  1  0  0  0  0
 14 13  2  0  0  0  0
 16  2  1  0  0  0  0
 17  3  1  0  0  0  0
 18  8  1  0  0  0  0
 20 27  1  1  0  0  0
 21 12  1  6  0  0  0
 21 20  1  0  0  0  0
 22 23  1  0  0  0  0
 22 24  1  0  0  0  0
 22 21  1  0  0  0  0
 24 25  1  0  0  0  0
 25 26  1  0  0  0  0
 25 20  1  0  0  0  0
 27 28  1  0  0  0  0
M  END
>  <minimizedAffinity>
-5.23367596

$$$$

 OpenBabel03272506153D

 28 30  0  0  1  0  0  0  0  0999 V2000
   37.8520   24.5110   37.6750 C   0  0  0  0  0  0  0  0  0  0  0  0
   38.6440   23.5700   38.3450 C   0  0  0  0  0  0  0  0  0  0  0  0
   39.3700   22.6340   37.5640 C   0  0  0  0  0  0  0  0  0  0  0  0
   39.2520   22.7050   36.2100 N   0  0  0  0  0  0  0  0  0  0  0  0
   38.4750   23.6320   35.6180 C   0  0  0  0  0  0  0  0  0  0  0  0
   37.7880   24.5180   36.3430 N   0  0  0  0  0  0  0  0  0  0  0  0
   38.3430   23.7180   34.1970 N   0  0  0  0  0  0  0  0  0  0  0  0
   38.5950   22.6290   33.4570 C   0  0  0  0  0  0  0  0  0  0  0  0
   38.4430   22.8030   32.1040 C   0  0  0  0  0  0  0  0  0  0  0  0
   38.0630   23.9890   31.5040 C   0  0  0  0  0  0  0  0  0  0  0  0
   37.9330   24.1110   30.2600 O   0  0  0  0  0  0  0  0  0  0  0  0
   37.8220   25.0550   32.3050 N   0  0  0  0  0  0  0  0  0  0  0  0
   37.9680   24.8950   33.6380 C   0  0  0  0  0  0  0  0  0  0  0  0
   37.7540   25.8620   34.4220 O   0  0  0  0  0  0  0  0  0  0  0  0
   37.2720   25.2560   38.2020 H   0  0  0  0  0  0  0  0  0  0  0  0
   38.6790   23.5880   39.4290 H   0  0  0  0  0  0  0  0  0  0  0  0
   39.9800   21.9100   38.0740 H   0  0  0  0  0  0  0  0  0  0  0  0
   38.8950   21.6850   33.9000 H   0  0  0  0  0  0  0  0  0  0  0  0
   38.6310   21.9600   31.4420 H   0  0  0  0  0  0  0  0  0  0  0  0
   35.8970   26.3540   31.5450 C   0  0  1  0  0  3  0  0  0  0  0  0
   37.4200   26.3140   31.7160 C   0  0  1  0  0  3  0  0  0  0  0  0
   37.6770   27.5100   32.5690 C   0  0  0  0  0  3  0  0  0  0  0  0
   38.1130   28.3000   31.9080 H   0  0  0  0  0  0  0  0  0  0  0  0
   36.4330   27.9550   33.0520 O   0  0  0  0  0  0  0  0  0  0  0  0
   35.5910   27.7660   31.9460 C   0  0  0  0  0  3  0  0  0  0  0  0
   35.8310   28.4940   31.1480 H   0  0  0  0  0  0  0  0  0  0  0  0
   35.5240   26.1590   30.2330 O   0  0  0  0  0  0  0  0  0  0  0  0
   36.0190   25.3440   29.9010 H   0  0  0  0  0  0  0  0  0  0  0  0
  1 15  1  0  0  0  0
  1  2  1  0  0  0  0
  2 16  1  0  0  0  0
  3 17  1  0  0  0  0
  3  2  2  0  0  0  0
  4  3  1  0  0  0  0
  5  4  2  0  0  0  0
  5  6  1  0  0  0  0
  6  1  2  0  0  0  0
  7  5  1  0  0  0  0
  8 18  1  0  0  0  0
  8  7  1  0  0  0  0
  9  8  2  0  0  0  0
 10  9  1  0  0  0  0
 10 12  1  0  0  0  0
 11 10  2  0  0  0  0
 12 13  1  0  0  0  0
 13  7  1  0  0  0  0
 13 14  2  0  0  0  0
 19  9  1  0  0  0  0
 20 27  1  6  0  0  0
 20 21  1  0  0  0  0
 20 25  1  0  0  0  0
 21 12  1  1  0  0  0
 21 22  1  0  0  0  0
 22 24  1  0  0  0  0
 23 22  1  0  0  0  0
 25 24  1  0  0  0  0
 26 25  1  0  0  0  0
 28 27  1  0  0  0  0
M  END
>  <minimizedAffinity>
-5.22576523

$$$$

 OpenBabel03272506153D

 28 30  0  0  1  0  0  0  0  0999 V2000
   39.5890   22.9520   36.4260 C   0  0  0  0  0  0  0  0  0  0  0  0
   39.2290   23.0400   37.7760 C   0  0  0  0  0  0  0  0  0  0  0  0
   38.3190   24.0600   38.1570 C   0  0  0  0  0  0  0  0  0  0  0  0
   37.8510   24.8930   37.1880 N   0  0  0  0  0  0  0  0  0  0  0  0
   38.2310   24.7620   35.9030 C   0  0  0  0  0  0  0  0  0  0  0  0
   39.0870   23.8060   35.5320 N   0  0  0  0  0  0  0  0  0  0  0  0
   37.7470   25.6290   34.8750 N   0  0  0  0  0  0  0  0  0  0  0  0
   37.2940   26.8450   35.2130 C   0  0  0  0  0  0  0  0  0  0  0  0
   36.8490   27.6080   34.1640 C   0  0  0  0  0  0  0  0  0  0  0  0
   36.8470   27.2000   32.8430 C   0  0  0  0  0  0  0  0  0  0  0  0
   36.4310   27.9280   31.9070 O   0  0  0  0  0  0  0  0  0  0  0  0
   37.3170   25.9600   32.5630 N   0  0  0  0  0  0  0  0  0  0  0  0
   37.7570   25.2000   33.5880 C   0  0  0  0  0  0  0  0  0  0  0  0
   38.2040   24.0380   33.3730 O   0  0  0  0  0  0  0  0  0  0  0  0
   40.2760   22.2010   36.0600 H   0  0  0  0  0  0  0  0  0  0  0  0
   39.6520   22.3330   38.4810 H   0  0  0  0  0  0  0  0  0  0  0  0
   38.0390   24.1320   39.1930 H   0  0  0  0  0  0  0  0  0  0  0  0
   37.2840   27.1920   36.2410 H   0  0  0  0  0  0  0  0  0  0  0  0
   36.4680   28.6070   34.3660 H   0  0  0  0  0  0  0  0  0  0  0  0
   38.7400   25.0210   30.8130 C   0  0  1  0  0  3  0  0  0  0  0  0
   37.3320   25.4960   31.1920 C   0  0  1  0  0  3  0  0  0  0  0  0
   36.5070   24.2800   30.9390 C   0  0  0  0  0  3  0  0  0  0  0  0
   35.9410   24.4560   29.9900 H   0  0  0  0  0  0  0  0  0  0  0  0
   37.3930   23.2040   30.7470 O   0  0  0  0  0  0  0  0  0  0  0  0
   38.4330   23.7920   30.0110 C   0  0  0  0  0  3  0  0  0  0  0  0
   38.0930   24.0290   28.9850 H   0  0  0  0  0  0  0  0  0  0  0  0
   39.3900   25.9380   30.0140 O   0  0  0  0  0  0  0  0  0  0  0  0
   39.2950   26.8390   30.4590 H   0  0  0  0  0  0  0  0  0  0  0  0
  1  2  1  0  0  0  0
  2  3  2  0  0  0  0
  2 16  1  0  0  0  0
  3 17  1  0  0  0  0
  4  3  1  0  0  0  0
  5  4  2  0  0  0  0
  6  5  1  0  0  0  0
  6  1  2  0  0  0  0
  7  8  1  0  0  0  0
  7  5  1  0  0  0  0
  8 18  1  0  0  0  0
  9 19  1  0  0  0  0
  9  8  2  0  0  0  0
 10  9  1  0  0  0  0
 11 10  2  0  0  0  0
 12 10  1  0  0  0  0
 12 13  1  0  0  0  0
 13  7  1  0  0  0  0
 14 13  2  0  0  0  0
 15  1  1  0  0  0  0
 20 27  1  6  0  0  0
 20 21  1  0  0  0  0
 21 12  1  1  0  0  0
 22 21  1  0  0  0  0
 23 22  1  0  0  0  0
 24 22  1  0  0  0  0
 25 24  1  0  0  0  0
 25 20  1  0  0  0  0
 26 25  1  0  0  0  0
 27 28  1  0  0  0  0
M  END
>  <minimizedAffinity>
-5.14597416

$$$$

 OpenBabel03272506153D

 28 30  0  0  1  0  0  0  0  0999 V2000
   40.4090   23.0130   35.9240 C   0  0  0  0  0  0  0  0  0  0  0  0
   39.9540   22.6480   37.1970 C   0  0  0  0  0  0  0  0  0  0  0  0
   38.8540   23.3600   37.7410 C   0  0  0  0  0  0  0  0  0  0  0  0
   38.3070   24.3580   36.9940 N   0  0  0  0  0  0  0  0  0  0  0  0
   38.7850   24.6670   35.7730 C   0  0  0  0  0  0  0  0  0  0  0  0
   39.8200   24.0030   35.2510 N   0  0  0  0  0  0  0  0  0  0  0  0
   38.2200   25.7110   34.9770 N   0  0  0  0  0  0  0  0  0  0  0  0
   37.5370   26.6910   35.5860 C   0  0  0  0  0  0  0  0  0  0  0  0
   37.0300   27.6500   34.7450 C   0  0  0  0  0  0  0  0  0  0  0  0
   37.1840   27.6480   33.3710 C   0  0  0  0  0  0  0  0  0  0  0  0
   36.7060   28.5450   32.6320 O   0  0  0  0  0  0  0  0  0  0  0  0
   37.8850   26.6310   32.8140 N   0  0  0  0  0  0  0  0  0  0  0  0
   38.3880   25.6830   33.6320 C   0  0  0  0  0  0  0  0  0  0  0  0
   39.0480   24.7160   33.1550 O   0  0  0  0  0  0  0  0  0  0  0  0
   41.2410   22.5160   35.4450 H   0  0  0  0  0  0  0  0  0  0  0  0
   40.4510   21.8390   37.7220 H   0  0  0  0  0  0  0  0  0  0  0  0
   38.5010   23.0840   38.7180 H   0  0  0  0  0  0  0  0  0  0  0  0
   37.4000   26.7180   36.6620 H   0  0  0  0  0  0  0  0  0  0  0  0
   36.4650   28.4750   35.1710 H   0  0  0  0  0  0  0  0  0  0  0  0
   37.0290   27.4860   30.6910 C   0  0  1  0  0  3  0  0  0  0  0  0
   38.0700   26.5950   31.3790 C   0  0  1  0  0  3  0  0  0  0  0  0
   39.3560   27.1810   30.9030 C   0  0  0  0  0  3  0  0  0  0  0  0
   39.7710   26.4860   30.1300 H   0  0  0  0  0  0  0  0  0  0  0  0
   39.0550   28.4120   30.2920 O   0  0  0  0  0  0  0  0  0  0  0  0
   37.8540   28.1350   29.6210 C   0  0  0  0  0  3  0  0  0  0  0  0
   38.0390   27.4620   28.7620 H   0  0  0  0  0  0  0  0  0  0  0  0
   36.0250   26.7430   30.1080 O   0  0  0  0  0  0  0  0  0  0  0  0
   35.7040   26.0820   30.8020 H   0  0  0  0  0  0  0  0  0  0  0  0
  1  2  1  0  0  0  0
  2 16  1  0  0  0  0
  2  3  2  0  0  0  0
  3 17  1  0  0  0  0
  4  3  1  0  0  0  0
  5  4  2  0  0  0  0
  6  5  1  0  0  0  0
  6  1  2  0  0  0  0
  7  8  1  0  0  0  0
  7  5  1  0  0  0  0
  8 18  1  0  0  0  0
  9 19  1  0  0  0  0
  9  8  2  0  0  0  0
 10  9  1  0  0  0  0
 11 10  2  0  0  0  0
 12 10  1  0  0  0  0
 12 13  1  0  0  0  0
 13  7  1  0  0  0  0
 14 13  2  0  0  0  0
 15  1  1  0  0  0  0
 20 27  1  6  0  0  0
 20 21  1  0  0  0  0
 21 12  1  1  0  0  0
 22 21  1  0  0  0  0
 23 22  1  0  0  0  0
 24 22  1  0  0  0  0
 25 24  1  0  0  0  0
 25 20  1  0  0  0  0
 26 25  1  0  0  0  0
 27 28  1  0  0  0  0
M  END
>  <minimizedAffinity>
-5.07677031

$$$$

 OpenBabel03272506153D

 28 30  0  0  1  0  0  0  0  0999 V2000
   36.4640   28.2720   34.5040 C   0  0  0  0  0  0  0  0  0  0  0  0
   36.2530   28.7990   33.2230 C   0  0  0  0  0  0  0  0  0  0  0  0
   36.7980   28.0970   32.1170 C   0  0  0  0  0  0  0  0  0  0  0  0
   37.4940   26.9540   32.3660 N   0  0  0  0  0  0  0  0  0  0  0  0
   37.6660   26.4930   33.6200 C   0  0  0  0  0  0  0  0  0  0  0  0
   37.1580   27.1450   34.6680 N   0  0  0  0  0  0  0  0  0  0  0  0
   38.3940   25.2940   33.8950 N   0  0  0  0  0  0  0  0  0  0  0  0
   39.2980   24.8660   33.0020 C   0  0  0  0  0  0  0  0  0  0  0  0
   39.9490   23.7090   33.3490 C   0  0  0  0  0  0  0  0  0  0  0  0
   39.7240   23.0020   34.5160 C   0  0  0  0  0  0  0  0  0  0  0  0
   40.3410   21.9450   34.8000 O   0  0  0  0  0  0  0  0  0  0  0  0
   38.7980   23.4850   35.3800 N   0  0  0  0  0  0  0  0  0  0  0  0
   38.1520   24.6230   35.0490 C   0  0  0  0  0  0  0  0  0  0  0  0
   37.2810   25.1090   35.8250 O   0  0  0  0  0  0  0  0  0  0  0  0
   36.0800   28.7510   35.3940 H   0  0  0  0  0  0  0  0  0  0  0  0
   35.6850   29.7170   33.1180 H   0  0  0  0  0  0  0  0  0  0  0  0
   36.6390   28.4970   31.1310 H   0  0  0  0  0  0  0  0  0  0  0  0
   39.4950   25.4000   32.0790 H   0  0  0  0  0  0  0  0  0  0  0  0
   40.6960   23.3040   32.6700 H   0  0  0  0  0  0  0  0  0  0  0  0
   39.6020   23.1220   37.6580 C   0  0  1  0  0  3  0  0  0  0  0  0
   38.5350   22.7760   36.6130 C   0  0  1  0  0  3  0  0  0  0  0  0
   37.2730   23.1730   37.3010 C   0  0  0  0  0  3  0  0  0  0  0  0
   36.7670   22.2320   37.6330 H   0  0  0  0  0  0  0  0  0  0  0  0
   37.6320   23.9210   38.4370 O   0  0  0  0  0  0  0  0  0  0  0  0
   38.7710   23.2450   38.9010 C   0  0  0  0  0  3  0  0  0  0  0  0
   38.4910   22.2600   39.3210 H   0  0  0  0  0  0  0  0  0  0  0  0
   40.5150   22.1020   37.8160 O   0  0  0  0  0  0  0  0  0  0  0  0
   40.8220   21.8330   36.8920 H   0  0  0  0  0  0  0  0  0  0  0  0
  1  6  1  0  0  0  0
  1 15  1  0  0  0  0
  2  1  2  0  0  0  0
  3  4  2  0  0  0  0
  3  2  1  0  0  0  0
  4  5  1  0  0  0  0
  5  7  1  0  0  0  0
  5  6  2  0  0  0  0
  7 13  1  0  0  0  0
  8  9  2  0  0  0  0
  8  7  1  0  0  0  0
  9 10  1  0  0  0  0
 10 11  2  0  0  0  0
 10 12  1  0  0  0  0
 13 12  1  0  0  0  0
 13 14  2  0  0  0  0
 16  2  1  0  0  0  0
 17  3  1  0  0  0  0
 18  8  1  0  0  0  0
 19  9  1  0  0  0  0
 20 27  1  1  0  0  0
 20 25  1  0  0  0  0
 21 12  1  6  0  0  0
 21 22  1  0  0  0  0
 21 20  1  0  0  0  0
 22 23  1  0  0  0  0
 22 24  1  0  0  0  0
 24 25  1  0  0  0  0
 25 26  1  0  0  0  0
 28 27  1  0  0  0  0
M  END
>  <minimizedAffinity>
-5.06934786

$$$$

 OpenBabel03272506153D

 28 30  0  0  1  0  0  0  0  0999 V2000
   41.2270   21.9430   35.2670 C   0  0  0  0  0  0  0  0  0  0  0  0
   41.3260   21.6110   36.6240 C   0  0  0  0  0  0  0  0  0  0  0  0
   40.5390   22.3470   37.5480 C   0  0  0  0  0  0  0  0  0  0  0  0
   39.7360   23.3320   37.0610 N   0  0  0  0  0  0  0  0  0  0  0  0
   39.6790   23.6080   35.7440 C   0  0  0  0  0  0  0  0  0  0  0  0
   40.4150   22.9230   34.8650 N   0  0  0  0  0  0  0  0  0  0  0  0
   38.8400   24.6390   35.2190 N   0  0  0  0  0  0  0  0  0  0  0  0
   38.4610   25.6390   36.0260 C   0  0  0  0  0  0  0  0  0  0  0  0
   37.6570   26.5830   35.4390 C   0  0  0  0  0  0  0  0  0  0  0  0
   37.2430   26.5480   34.1200 C   0  0  0  0  0  0  0  0  0  0  0  0
   36.5060   27.4320   33.6150 O   0  0  0  0  0  0  0  0  0  0  0  0
   37.6590   25.5120   33.3530 N   0  0  0  0  0  0  0  0  0  0  0  0
   38.4500   24.5780   33.9210 C   0  0  0  0  0  0  0  0  0  0  0  0
   38.8620   23.5940   33.2420 O   0  0  0  0  0  0  0  0  0  0  0  0
   41.7940   21.4270   34.5050 H   0  0  0  0  0  0  0  0  0  0  0  0
   41.9930   20.8100   36.9230 H   0  0  0  0  0  0  0  0  0  0  0  0
   40.6110   22.0970   38.5910 H   0  0  0  0  0  0  0  0  0  0  0  0
   38.7700   25.6920   37.0650 H   0  0  0  0  0  0  0  0  0  0  0  0
   37.3110   27.4240   36.0360 H   0  0  0  0  0  0  0  0  0  0  0  0
   36.0740   24.4670   31.8160 C   0  0  1  0  0  3  0  0  0  0  0  0
   37.2480   25.4400   31.9670 C   0  0  1  0  0  3  0  0  0  0  0  0
   36.6840   26.7080   31.4200 C   0  0  0  0  0  3  0  0  0  0  0  0
   37.1320   26.8580   30.4050 H   0  0  0  0  0  0  0  0  0  0  0  0
   35.2960   26.5240   31.2810 O   0  0  0  0  0  0  0  0  0  0  0  0
   35.2070   25.1970   30.8340 C   0  0  0  0  0  3  0  0  0  0  0  0
   35.5810   25.1130   29.7960 H   0  0  0  0  0  0  0  0  0  0  0  0
   36.4720   23.2650   31.2700 O   0  0  0  0  0  0  0  0  0  0  0  0
   37.2830   22.9580   31.7890 H   0  0  0  0  0  0  0  0  0  0  0  0
  1  2  1  0  0  0  0
  2 16  1  0  0  0  0
  2  3  2  0  0  0  0
  3 17  1  0  0  0  0
  4  3  1  0  0  0  0
  5  4  2  0  0  0  0
  6  1  2  0  0  0  0
  6  5  1  0  0  0  0
  7  5  1  0  0  0  0
  7  8  1  0  0  0  0
  8 18  1  0  0  0  0
  9  8  2  0  0  0  0
  9 19  1  0  0  0  0
 10  9  1  0  0  0  0
 11 10  2  0  0  0  0
 12 13  1  0  0  0  0
 12 10  1  0  0  0  0
 13  7  1  0  0  0  0
 14 13  2  0  0  0  0
 15  1  1  0  0  0  0
 20 27  1  6  0  0  0
 20 21  1  0  0  0  0
 21 12  1  1  0  0  0
 22 21  1  0  0  0  0
 23 22  1  0  0  0  0
 24 22  1  0  0  0  0
 25 24  1  0  0  0  0
 25 20  1  0  0  0  0
 26 25  1  0  0  0  0
 27 28  1  0  0  0  0
M  END
>  <minimizedAffinity>
-5.05681849

$$$$

 OpenBabel03272506153D

 28 30  0  0  1  0  0  0  0  0999 V2000
   33.4860   29.9380   34.9270 C   0  0  0  0  0  0  0  0  0  0  0  0
   32.4120   30.2960   34.1030 C   0  0  0  0  0  0  0  0  0  0  0  0
   32.5530   30.1050   32.7050 C   0  0  0  0  0  0  0  0  0  0  0  0
   33.7250   29.5860   32.2460 N   0  0  0  0  0  0  0  0  0  0  0  0
   34.7270   29.2580   33.0860 C   0  0  0  0  0  0  0  0  0  0  0  0
   34.6050   29.4340   34.4040 N   0  0  0  0  0  0  0  0  0  0  0  0
   35.9620   28.7120   32.6180 N   0  0  0  0  0  0  0  0  0  0  0  0
   36.3340   28.9440   31.3510 C   0  0  0  0  0  0  0  0  0  0  0  0
   37.5330   28.3820   30.9900 C   0  0  0  0  0  0  0  0  0  0  0  0
   38.3300   27.6270   31.8300 C   0  0  0  0  0  0  0  0  0  0  0  0
   39.4230   27.1280   31.4630 O   0  0  0  0  0  0  0  0  0  0  0  0
   37.9010   27.4280   33.1000 N   0  0  0  0  0  0  0  0  0  0  0  0
   36.7230   27.9760   33.4660 C   0  0  0  0  0  0  0  0  0  0  0  0
   36.2840   27.8160   34.6410 O   0  0  0  0  0  0  0  0  0  0  0  0
   33.4510   30.0550   36.0020 H   0  0  0  0  0  0  0  0  0  0  0  0
   31.5140   30.7030   34.5560 H   0  0  0  0  0  0  0  0  0  0  0  0
   31.7310   30.3770   32.0670 H   0  0  0  0  0  0  0  0  0  0  0  0
   35.7290   29.5330   30.6700 H   0  0  0  0  0  0  0  0  0  0  0  0
   37.8970   28.5300   29.9750 H   0  0  0  0  0  0  0  0  0  0  0  0
   38.1870   26.8030   35.4440 C   0  0  1  0  0  3  0  0  0  0  0  0
   38.7070   26.6440   34.0110 C   0  0  1  0  0  3  0  0  0  0  0  0
   38.6250   25.1700   33.8020 C   0  0  0  0  0  3  0  0  0  0  0  0
   39.6680   24.7680   33.8630 H   0  0  0  0  0  0  0  0  0  0  0  0
   37.8710   24.6380   34.8640 O   0  0  0  0  0  0  0  0  0  0  0  0
   38.3050   25.3990   35.9590 C   0  0  0  0  0  3  0  0  0  0  0  0
   39.3460   25.1330   36.2260 H   0  0  0  0  0  0  0  0  0  0  0  0
   38.9920   27.6350   36.1920 O   0  0  0  0  0  0  0  0  0  0  0  0
   39.1440   28.4700   35.6450 H   0  0  0  0  0  0  0  0  0  0  0  0
  1 15  1  0  0  0  0
  2 16  1  0  0  0  0
  2  1  2  0  0  0  0
  3  2  1  0  0  0  0
  4  3  2  0  0  0  0
  4  5  1  0  0  0  0
  5  6  2  0  0  0  0
  6  1  1  0  0  0  0
  7  5  1  0  0  0  0
  7 13  1  0  0  0  0
  8  7  1  0  0  0  0
  9  8  2  0  0  0  0
  9 10  1  0  0  0  0
 10 12  1  0  0  0  0
 11 10  2  0  0  0  0
 12 13  1  0  0  0  0
 13 14  2  0  0  0  0
 17  3  1  0  0  0  0
 18  8  1  0  0  0  0
 19  9  1  0  0  0  0
 20 25  1  0  0  0  0
 20 27  1  1  0  0  0
 21 12  1  6  0  0  0
 21 20  1  0  0  0  0
 22 23  1  0  0  0  0
 22 21  1  0  0  0  0
 22 24  1  0  0  0  0
 24 25  1  0  0  0  0
 25 26  1  0  0  0  0
 28 27  1  0  0  0  0
M  END
>  <minimizedAffinity>
-5.01868057

$$$$

 OpenBabel03272506153D

 28 30  0  0  1  0  0  0  0  0999 V2000
   35.5170   19.9980   33.5150 C   0  0  0  0  0  0  0  0  0  0  0  0
   35.1880   19.5890   32.2170 C   0  0  0  0  0  0  0  0  0  0  0  0
   35.6390   20.3870   31.1340 C   0  0  0  0  0  0  0  0  0  0  0  0
   36.3630   21.5030   31.4210 N   0  0  0  0  0  0  0  0  0  0  0  0
   36.6510   21.8490   32.6910 C   0  0  0  0  0  0  0  0  0  0  0  0
   36.2320   21.1060   33.7180 N   0  0  0  0  0  0  0  0  0  0  0  0
   37.4100   23.0180   33.0070 N   0  0  0  0  0  0  0  0  0  0  0  0
   37.4510   24.0230   32.1200 C   0  0  0  0  0  0  0  0  0  0  0  0
   38.2030   25.1030   32.5060 C   0  0  0  0  0  0  0  0  0  0  0  0
   38.8840   25.1960   33.7060 C   0  0  0  0  0  0  0  0  0  0  0  0
   39.5640   26.2030   34.0260 O   0  0  0  0  0  0  0  0  0  0  0  0
   38.8050   24.1480   34.5610 N   0  0  0  0  0  0  0  0  0  0  0  0
   38.0680   23.0800   34.1910 C   0  0  0  0  0  0  0  0  0  0  0  0
   37.9660   22.0800   34.9580 O   0  0  0  0  0  0  0  0  0  0  0  0
   35.2090   19.4410   34.3900 H   0  0  0  0  0  0  0  0  0  0  0  0
   34.6070   18.6830   32.0810 H   0  0  0  0  0  0  0  0  0  0  0  0
   35.3900   20.0770   30.1350 H   0  0  0  0  0  0  0  0  0  0  0  0
   36.9260   23.9780   31.1720 H   0  0  0  0  0  0  0  0  0  0  0  0
   38.2800   25.9560   31.8350 H   0  0  0  0  0  0  0  0  0  0  0  0
   38.6300   23.6110   36.9380 C   0  0  1  0  0  3  0  0  0  0  0  0
   39.5030   24.2070   35.8280 C   0  0  1  0  0  3  0  0  0  0  0  0
   40.7310   23.3630   35.8990 C   0  0  0  0  0  3  0  0  0  0  0  0
   41.5270   23.9800   36.3880 H   0  0  0  0  0  0  0  0  0  0  0  0
   40.4360   22.2640   36.7250 O   0  0  0  0  0  0  0  0  0  0  0  0
   39.6430   22.8390   37.7300 C   0  0  0  0  0  3  0  0  0  0  0  0
   40.2570   23.4900   38.3810 H   0  0  0  0  0  0  0  0  0  0  0  0
   38.0760   24.5900   37.7340 O   0  0  0  0  0  0  0  0  0  0  0  0
   37.6610   25.2740   37.1180 H   0  0  0  0  0  0  0  0  0  0  0  0
  1  6  1  0  0  0  0
  1 15  1  0  0  0  0
  2  1  2  0  0  0  0
  3  4  2  0  0  0  0
  3  2  1  0  0  0  0
  4  5  1  0  0  0  0
  5  7  1  0  0  0  0
  5  6  2  0  0  0  0
  7 13  1  0  0  0  0
  8  9  2  0  0  0  0
  8  7  1  0  0  0  0
  9 10  1  0  0  0  0
 10 11  2  0  0  0  0
 10 12  1  0  0  0  0
 13 12  1  0  0  0  0
 13 14  2  0  0  0  0
 16  2  1  0  0  0  0
 17  3  1  0  0  0  0
 18  8  1  0  0  0  0
 19  9  1  0  0  0  0
 20 25  1  0  0  0  0
 20 27  1  1  0  0  0
 21 12  1  6  0  0  0
 21 22  1  0  0  0  0
 21 20  1  0  0  0  0
 22 23  1  0  0  0  0
 22 24  1  0  0  0  0
 24 25  1  0  0  0  0
 25 26  1  0  0  0  0
 28 27  1  0  0  0  0
M  END
>  <minimizedAffinity>
-5.01497555

$$$$

 OpenBabel03272506153D

 28 30  0  0  1  0  0  0  0  0999 V2000
   35.8500   26.6760   30.8940 C   0  0  0  0  0  0  0  0  0  0  0  0
   36.4660   27.9320   30.8400 C   0  0  0  0  0  0  0  0  0  0  0  0
   37.5490   28.1790   31.7230 C   0  0  0  0  0  0  0  0  0  0  0  0
   37.9240   27.1820   32.5700 N   0  0  0  0  0  0  0  0  0  0  0  0
   37.2940   25.9910   32.5780 C   0  0  0  0  0  0  0  0  0  0  0  0
   36.2740   25.7470   31.7520 N   0  0  0  0  0  0  0  0  0  0  0  0
   37.6770   24.9350   33.4620 N   0  0  0  0  0  0  0  0  0  0  0  0
   38.3300   25.2410   34.5920 C   0  0  0  0  0  0  0  0  0  0  0  0
   38.6580   24.1660   35.3790 C   0  0  0  0  0  0  0  0  0  0  0  0
   38.3610   22.8500   35.0720 C   0  0  0  0  0  0  0  0  0  0  0  0
   38.6770   21.8900   35.8190 O   0  0  0  0  0  0  0  0  0  0  0  0
   37.6990   22.6040   33.9160 N   0  0  0  0  0  0  0  0  0  0  0  0
   37.3720   23.6550   33.1340 C   0  0  0  0  0  0  0  0  0  0  0  0
   36.7540   23.4710   32.0470 O   0  0  0  0  0  0  0  0  0  0  0  0
   35.0190   26.4140   30.2520 H   0  0  0  0  0  0  0  0  0  0  0  0
   36.1010   28.6680   30.1330 H   0  0  0  0  0  0  0  0  0  0  0  0
   38.0260   29.1420   31.6870 H   0  0  0  0  0  0  0  0  0  0  0  0
   38.5760   26.2630   34.8580 H   0  0  0  0  0  0  0  0  0  0  0  0
   39.1890   24.3410   36.3120 H   0  0  0  0  0  0  0  0  0  0  0  0
   35.8510   21.0330   33.6240 C   0  0  1  0  0  3  0  0  0  0  0  0
   37.3690   21.2410   33.5600 C   0  0  1  0  0  3  0  0  0  0  0  0
   37.6820   20.8740   32.1490 C   0  0  0  0  0  3  0  0  0  0  0  0
   38.1630   19.8640   32.1690 H   0  0  0  0  0  0  0  0  0  0  0  0
   36.4590   20.7810   31.4590 O   0  0  0  0  0  0  0  0  0  0  0  0
   35.6160   20.1860   32.4090 C   0  0  0  0  0  3  0  0  0  0  0  0
   35.9000   19.1290   32.5690 H   0  0  0  0  0  0  0  0  0  0  0  0
   35.4780   20.3320   34.7510 O   0  0  0  0  0  0  0  0  0  0  0  0
   35.9330   20.7720   35.5380 H   0  0  0  0  0  0  0  0  0  0  0  0
  1  6  1  0  0  0  0
  2  1  2  0  0  0  0
  2  3  1  0  0  0  0
  3  4  2  0  0  0  0
  4  5  1  0  0  0  0
  5  7  1  0  0  0  0
  6  5  2  0  0  0  0
  7  8  1  0  0  0  0
  8 18  1  0  0  0  0
  8  9  2  0  0  0  0
  9 19  1  0  0  0  0
 10  9  1  0  0  0  0
 10 11  2  0  0  0  0
 12 10  1  0  0  0  0
 13  7  1  0  0  0  0
 13 12  1  0  0  0  0
 14 13  2  0  0  0  0
 15  1  1  0  0  0  0
 16  2  1  0  0  0  0
 17  3  1  0  0  0  0
 20 27  1  1  0  0  0
 21 20  1  0  0  0  0
 21 12  1  6  0  0  0
 22 23  1  0  0  0  0
 22 21  1  0  0  0  0
 24 22  1  0  0  0  0
 24 25  1  0  0  0  0
 25 26  1  0  0  0  0
 25 20  1  0  0  0  0
 27 28  1  0  0  0  0
M  END
>  <minimizedAffinity>
-4.91497278

$$$$
