
 OpenBabel03272504403D

 45 47  0  0  1  0  0  0  0  0999 V2000
   34.7750   29.3930   48.8180 C   0  0  0  0  0  0  0  0  0  0  0  0
   35.6810   29.4290   49.4910 H   0  0  0  0  0  0  0  0  0  0  0  0
   34.1380   30.2240   49.2430 H   0  0  0  0  0  0  0  0  0  0  0  0
   37.5330   30.4600   48.5310 Cl  0  0  0  0  0  0  0  0  0  0  0  0
   36.3950   30.2940   47.2020 C   0  0  0  0  0  0  0  0  0  0  0  0
   36.7780   30.6770   45.9530 C   0  0  0  0  0  0  0  0  0  0  0  0
   35.8990   30.5560   44.8990 C   0  0  0  0  0  0  0  0  0  0  0  0
   34.6330   30.0420   45.1410 C   0  0  0  0  0  0  0  0  0  0  0  0
   34.3070   29.6680   46.4550 C   0  0  0  0  0  0  0  0  0  0  0  0
   35.1550   29.7810   47.4930 C   0  0  0  0  0  0  0  0  0  0  0  0
   36.2240   30.8700   43.8990 H   0  0  0  0  0  0  0  0  0  0  0  0
   34.0110   29.9820   44.2640 H   0  0  0  0  0  0  0  0  0  0  0  0
   33.3450   29.3130   46.4560 H   0  0  0  0  0  0  0  0  0  0  0  0
   39.7700   32.8360   46.0150 C   0  0  0  0  0  0  0  0  0  0  0  0
   40.6370   32.1020   45.1300 C   0  0  0  0  0  0  0  0  0  0  0  0
   40.1540   30.9100   44.5580 C   0  0  0  0  0  0  0  0  0  0  0  0
   38.8970   30.5040   44.8660 N   0  0  0  0  0  0  0  0  0  0  0  0
   38.1030   31.2150   45.7030 C   0  0  0  0  0  0  0  0  0  0  0  0
   38.5430   32.3570   46.2590 N   0  0  0  0  0  0  0  0  0  0  0  0
   40.1450   33.7440   46.4460 H   0  0  0  0  0  0  0  0  0  0  0  0
   41.6080   32.5340   44.9710 H   0  0  0  0  0  0  0  0  0  0  0  0
   41.0310   30.2310   43.7060 N   0  0  0  0  0  0  0  0  0  0  0  0
   41.9760   29.8470   43.8260 H   0  0  0  0  0  0  0  0  0  0  0  0
   40.8080   29.9960   42.6970 H   0  0  0  0  0  0  0  0  0  0  0  0
   34.1160   28.1120   49.0500 C   0  0  0  0  0  0  0  0  0  0  0  0
   34.2350   27.4760   48.1260 H   0  0  0  0  0  0  0  0  0  0  0  0
   34.5610   27.5080   49.8680 H   0  0  0  0  0  0  0  0  0  0  0  0
   32.7810   28.2840   49.3390 O   0  0  0  0  0  0  0  0  0  0  0  0
   32.6870   26.5190   47.4040 O   0  0  0  0  0  0  0  0  0  0  0  0
   31.8260   27.4290   48.2680 P   0  0  2  0  0  0  0  0  0  0  0  0
   31.0170   28.5850   47.3000 O   0  0  0  0  0  0  0  0  0  0  0  0
   29.5720   27.6020   45.5700 C   0  0  2  0  0  3  0  0  0  0  0  0
   30.8290   28.2770   46.0110 C   0  0  1  0  0  3  0  0  0  0  0  0
   30.7860   29.5120   45.0990 C   0  0  0  0  0  3  0  0  0  0  0  0
   31.7950   29.7700   44.7150 H   0  0  0  0  0  0  0  0  0  0  0  0
   29.9750   29.2100   44.0360 O   0  0  0  0  0  0  0  0  0  0  0  0
   29.6280   27.8860   44.0590 C   0  0  0  0  0  3  0  0  0  0  0  0
   28.6110   27.7570   43.6190 H   0  0  0  0  0  0  0  0  0  0  0  0
   28.4020   28.1390   46.0250 O   0  0  0  0  0  0  0  0  0  0  0  0
   27.7180   27.4290   46.1200 H   0  0  0  0  0  0  0  0  0  0  0  0
   30.6760   26.5230   49.0410 O   0  0  0  0  0  0  0  0  0  0  0  0
   29.8340   27.3290   49.7840 C   0  0  0  0  0  0  0  0  0  0  0  0
   29.3070   26.6500   50.8850 F   0  0  0  0  0  0  0  0  0  0  0  0
   30.5050   28.4270   50.2880 F   0  0  0  0  0  0  0  0  0  0  0  0
   28.7870   27.7640   49.0180 F   0  0  0  0  0  0  0  0  0  0  0  0
  1 25  1  0  0  0  0
  1  3  1  0  0  0  0
  1  2  1  0  0  0  0
  5 10  1  0  0  0  0
  5  4  1  0  0  0  0
  6  5  2  0  0  0  0
  7  8  2  0  0  0  0
  7  6  1  0  0  0  0
  8  9  1  0  0  0  0
  9 13  1  0  0  0  0
  9 10  2  0  0  0  0
 10  1  1  0  0  0  0
 11  7  1  0  0  0  0
 12  8  1  0  0  0  0
 14 19  1  0  0  0  0
 14 20  1  0  0  0  0
 15 14  2  0  0  0  0
 16 17  2  0  0  0  0
 16 15  1  0  0  0  0
 17 18  1  0  0  0  0
 18  6  1  0  0  0  0
 18 19  2  0  0  0  0
 21 15  1  0  0  0  0
 22 23  1  0  0  0  0
 22 16  1  0  0  0  0
 24 22  1  0  0  0  0
 25 28  1  0  0  0  0
 25 27  1  0  0  0  0
 26 25  1  0  0  0  0
 30 29  2  6  0  0  0
 30 41  1  0  0  0  0
 30 28  1  0  0  0  0
 31 30  1  0  0  0  0
 32 33  1  0  0  0  0
 32 39  1  1  0  0  0
 33 31  1  1  0  0  0
 34 33  1  0  0  0  0
 35 34  1  0  0  0  0
 36 37  1  0  0  0  0
 36 34  1  0  0  0  0
 37 32  1  0  0  0  0
 38 37  1  0  0  0  0
 39 40  1  0  0  0  0
 41 42  1  0  0  0  0
 42 44  1  0  0  0  0
 42 43  1  0  0  0  0
 45 42  1  0  0  0  0
M  END
>  <minimizedAffinity>
-5.72615385

>  <minimizedRMSD>
0.855209827

$$$$
