
 OpenBabel03272502303D

 24 25  0  0  1  0  0  0  0  0999 V2000
   39.5380   32.7430   46.7080 C   0  0  0  0  0  0  0  0  0  0  0  0
   39.1350   33.7700   46.5660 H   0  0  0  0  0  0  0  0  0  0  0  0
   40.6180   32.8200   46.9300 H   0  0  0  0  0  0  0  0  0  0  0  0
   38.3540   30.9270   47.9000 C   0  0  0  0  0  0  0  0  0  0  0  0
   38.7970   32.1760   47.8700 C   0  0  0  0  0  0  0  0  0  0  0  0
   37.3390   30.2300   51.4030 C   0  0  0  0  0  0  0  0  0  0  0  0
   38.0500   30.7470   50.2990 C   0  0  0  0  0  0  0  0  0  0  0  0
   37.6450   30.4120   49.0320 C   0  0  0  0  0  0  0  0  0  0  0  0
   36.5690   29.5910   48.8550 N   0  0  0  0  0  0  0  0  0  0  0  0
   35.9100   29.1130   49.9380 C   0  0  0  0  0  0  0  0  0  0  0  0
   36.2780   29.4190   51.1910 N   0  0  0  0  0  0  0  0  0  0  0  0
   37.5850   30.4390   52.4340 H   0  0  0  0  0  0  0  0  0  0  0  0
   38.8820   31.3840   50.5120 H   0  0  0  0  0  0  0  0  0  0  0  0
   35.0600   28.4610   49.6840 H   0  0  0  0  0  0  0  0  0  0  0  0
   39.2040   31.7010   45.2540 S   0  0  0  0  0  0  0  0  0  0  0  0
   37.6930   32.6200   43.1200 C   0  0  2  0  0  0  0  0  0  0  0  0
   37.6190   32.1660   44.5670 C   0  0  1  0  0  0  0  0  0  0  0  0
   36.6490   31.0280   44.4740 C   0  0  0  0  0  0  0  0  0  0  0  0
   37.2560   30.1030   44.3730 H   0  0  0  0  0  0  0  0  0  0  0  0
   35.9240   31.1450   43.3050 O   0  0  0  0  0  0  0  0  0  0  0  0
   36.2410   32.3520   42.7190 C   0  0  0  0  0  0  0  0  0  0  0  0
   35.6480   33.1420   43.2350 H   0  0  0  0  0  0  0  0  0  0  0  0
   38.4740   31.7580   42.3490 O   0  0  0  0  0  0  0  0  0  0  0  0
   38.2990   30.8250   42.6320 H   0  0  0  0  0  0  0  0  0  0  0  0
  1  3  1  0  0  0  0
  1  5  1  0  0  0  0
  2  1  1  0  0  0  0
  4  8  1  0  0  0  0
  5  4  2  0  0  0  0
  6 12  1  0  0  0  0
  7 13  1  0  0  0  0
  7  6  2  0  0  0  0
  8  7  1  0  0  0  0
  9  8  2  0  0  0  0
  9 10  1  0  0  0  0
 10 11  2  0  0  0  0
 11  6  1  0  0  0  0
 14 10  1  0  0  0  0
 15  1  1  0  0  0  0
 16 23  1  6  0  0  0
 16 17  1  0  0  0  0
 17 15  1  6  0  0  0
 18 17  1  0  0  0  0
 19 18  1  0  0  0  0
 20 18  1  0  0  0  0
 21 16  1  0  0  0  0
 21 22  1  0  0  0  0
 21 20  1  0  0  0  0
 23 24  1  0  0  0  0
M  END
>  <minimizedAffinity>
-4.53981543

>  <minimizedRMSD>
1.41251945

$$$$
