
 OpenBabel03272507523D

 32 34  0  0  1  0  0  0  0  0999 V2000
   37.1600   31.5710   48.4500 N   0  0  0  0  0  0  0  0  0  0  0  0
   37.3070   32.4670   49.4250 C   0  0  0  0  0  0  0  0  0  0  0  0
   38.3450   33.4020   49.3330 C   0  0  0  0  0  0  0  0  0  0  0  0
   39.1250   33.2970   48.2210 C   0  0  0  0  0  0  0  0  0  0  0  0
   40.0500   34.1690   48.1950 O   0  0  0  0  0  0  0  0  0  0  0  0
   39.0140   32.4160   47.2200 N   0  0  0  0  0  0  0  0  0  0  0  0
   37.9920   31.5340   47.3610 C   0  0  0  0  0  0  0  0  0  0  0  0
   37.8620   30.6860   46.4270 O   0  0  0  0  0  0  0  0  0  0  0  0
   36.6340   32.4590   50.2560 H   0  0  0  0  0  0  0  0  0  0  0  0
   38.4620   34.1180   50.1140 H   0  0  0  0  0  0  0  0  0  0  0  0
   35.8610   29.9370   49.6990 C   0  0  0  0  0  0  0  0  0  0  0  0
   36.1320   30.5710   48.4670 C   0  0  0  0  0  0  0  0  0  0  0  0
   35.3920   30.1910   47.3400 C   0  0  0  0  0  0  0  0  0  0  0  0
   34.4490   29.2310   47.4910 N   0  0  0  0  0  0  0  0  0  0  0  0
   34.1990   28.6390   48.6480 C   0  0  0  0  0  0  0  0  0  0  0  0
   34.8980   28.9890   49.7410 N   0  0  0  0  0  0  0  0  0  0  0  0
   35.6160   30.6900   46.4070 H   0  0  0  0  0  0  0  0  0  0  0  0
   33.4500   27.8680   48.7930 H   0  0  0  0  0  0  0  0  0  0  0  0
   37.5130   29.5360   51.6770 C   0  0  0  0  0  0  0  0  0  0  0  0
   37.9550   28.4220   51.3170 O   0  0  0  0  0  0  0  0  0  0  0  0
   36.5360   30.2490   50.8990 N   0  0  0  0  0  0  0  0  0  0  0  0
   37.9110   29.9200   52.6020 H   0  0  0  0  0  0  0  0  0  0  0  0
   36.3180   31.1820   51.3580 H   0  0  0  0  0  0  0  0  0  0  0  0
   40.2460   30.9900   45.6190 C   0  0  1  0  0  3  0  0  0  0  0  0
   39.8900   32.3880   46.0860 C   0  0  1  0  0  3  0  0  0  0  0  0
   39.3010   32.9690   44.8430 C   0  0  0  0  0  3  0  0  0  0  0  0
   39.4400   34.0810   44.7700 H   0  0  0  0  0  0  0  0  0  0  0  0
   40.1720   32.4750   43.8440 O   0  0  0  0  0  0  0  0  0  0  0  0
   40.1990   31.1000   44.0910 C   0  0  0  0  0  3  0  0  0  0  0  0
   39.2930   30.5890   43.6700 H   0  0  0  0  0  0  0  0  0  0  0  0
   41.5660   30.7040   45.9640 O   0  0  0  0  0  0  0  0  0  0  0  0
   42.0770   31.5400   46.0990 H   0  0  0  0  0  0  0  0  0  0  0  0
  1 12  1  0  0  0  0
  1  2  1  0  0  0  0
  2  9  1  0  0  0  0
  3  2  2  0  0  0  0
  3 10  1  0  0  0  0
  4  3  1  0  0  0  0
  5  4  2  0  0  0  0
  6  7  1  0  0  0  0
  6  4  1  0  0  0  0
  7  1  1  0  0  0  0
  8  7  2  0  0  0  0
 11 16  1  0  0  0  0
 11 21  1  0  0  0  0
 12 11  2  0  0  0  0
 13 14  2  0  0  0  0
 13 12  1  0  0  0  0
 14 15  1  0  0  0  0
 15 18  1  0  0  0  0
 15 16  2  0  0  0  0
 17 13  1  0  0  0  0
 19 22  1  0  0  0  0
 20 19  2  0  0  0  0
 21 23  1  0  0  0  0
 21 19  1  0  0  0  0
 24 31  1  6  0  0  0
 24 25  1  0  0  0  0
 25  6  1  1  0  0  0
 26 25  1  0  0  0  0
 27 26  1  0  0  0  0
 28 29  1  0  0  0  0
 28 26  1  0  0  0  0
 29 24  1  0  0  0  0
 30 29  1  0  0  0  0
 31 32  1  0  0  0  0
M  END
>  <minimizedAffinity>
-6.78583097

>  <minimizedRMSD>
1.14296782

$$$$
