
 OpenBabel03272509453D

 19 20  0  0  1  0  0  0  0  0999 V2000
   35.3680   28.8010   48.4850 O   0  0  0  0  0  0  0  0  0  0  0  0
   37.2950   30.1350   51.2630 C   0  0  0  0  0  0  0  0  0  0  0  0
   38.2350   30.9050   50.5500 C   0  0  0  0  0  0  0  0  0  0  0  0
   38.1630   30.9320   49.1460 C   0  0  0  0  0  0  0  0  0  0  0  0
   37.1690   30.1940   48.5660 N   0  0  0  0  0  0  0  0  0  0  0  0
   36.2870   29.4680   49.2720 C   0  0  0  0  0  0  0  0  0  0  0  0
   36.3450   29.4360   50.6210 N   0  0  0  0  0  0  0  0  0  0  0  0
   37.3590   30.1220   52.3500 H   0  0  0  0  0  0  0  0  0  0  0  0
   39.0160   31.4850   51.0270 H   0  0  0  0  0  0  0  0  0  0  0  0
   38.8460   31.4970   48.5390 H   0  0  0  0  0  0  0  0  0  0  0  0
   33.7580   29.9030   47.1660 C   0  0  2  0  0  3  0  0  0  0  0  0
   33.9890   29.1130   48.4340 C   0  0  1  0  0  3  0  0  0  0  0  0
   33.1460   27.8700   48.1850 C   0  0  0  0  0  3  0  0  0  0  0  0
   32.0890   28.1200   48.4330 H   0  0  0  0  0  0  0  0  0  0  0  0
   33.3040   27.6810   46.7930 O   0  0  0  0  0  0  0  0  0  0  0  0
   32.9530   28.9350   46.3230 C   0  0  0  0  0  3  0  0  0  0  0  0
   31.8750   29.0770   46.5400 H   0  0  0  0  0  0  0  0  0  0  0  0
   34.9140   30.3360   46.5650 O   0  0  0  0  0  0  0  0  0  0  0  0
   35.2090   29.7490   45.8150 H   0  0  0  0  0  0  0  0  0  0  0  0
  1  6  1  0  0  0  0
  2  8  1  0  0  0  0
  3  9  1  0  0  0  0
  3  2  2  0  0  0  0
  4  3  1  0  0  0  0
  5  4  2  0  0  0  0
  5  6  1  0  0  0  0
  6  7  2  0  0  0  0
  7  2  1  0  0  0  0
 10  4  1  0  0  0  0
 11 18  1  6  0  0  0
 11 12  1  0  0  0  0
 12  1  1  6  0  0  0
 13 14  1  0  0  0  0
 13 12  1  0  0  0  0
 15 13  1  0  0  0  0
 16 17  1  0  0  0  0
 16 15  1  0  0  0  0
 16 11  1  0  0  0  0
 19 18  1  0  0  0  0
M  END
>  <minimizedAffinity>
-3.87343192

>  <minimizedRMSD>
2.40031934

$$$$
