
 OpenBabel03272506403D

 19 20  0  0  1  0  0  0  0  0999 V2000
   34.4740   28.3140   49.3890 S   0  0  0  0  0  0  0  0  0  0  0  0
   37.3020   30.1930   51.4240 C   0  0  0  0  0  0  0  0  0  0  0  0
   38.1460   30.7470   50.4600 C   0  0  0  0  0  0  0  0  0  0  0  0
   37.8310   30.5320   49.1120 C   0  0  0  0  0  0  0  0  0  0  0  0
   36.7170   29.7950   48.8300 N   0  0  0  0  0  0  0  0  0  0  0  0
   35.9320   29.2800   49.7810 C   0  0  0  0  0  0  0  0  0  0  0  0
   36.2170   29.4750   51.0700 N   0  0  0  0  0  0  0  0  0  0  0  0
   37.5300   30.3490   52.4720 H   0  0  0  0  0  0  0  0  0  0  0  0
   39.0220   31.3280   50.7430 H   0  0  0  0  0  0  0  0  0  0  0  0
   38.4690   30.9510   48.3450 H   0  0  0  0  0  0  0  0  0  0  0  0
   33.5820   29.5630   47.0630 C   0  0  2  0  0  3  0  0  0  0  0  0
   34.2630   28.3370   47.6320 C   0  0  2  0  0  3  0  0  0  0  0  0
   33.2860   27.2840   47.1220 C   0  0  0  0  0  3  0  0  0  0  0  0
   33.7660   26.2840   47.1860 H   0  0  0  0  0  0  0  0  0  0  0  0
   32.9590   27.6730   45.8290 O   0  0  0  0  0  0  0  0  0  0  0  0
   33.3310   29.0000   45.6590 C   0  0  0  0  0  3  0  0  0  0  0  0
   32.6490   29.6050   45.0640 H   0  0  0  0  0  0  0  0  0  0  0  0
   34.4150   30.6480   46.9190 O   0  0  0  0  0  0  0  0  0  0  0  0
   35.1000   30.6390   47.6400 H   0  0  0  0  0  0  0  0  0  0  0  0
  1  6  1  0  0  0  0
  2  8  1  0  0  0  0
  3  9  1  0  0  0  0
  3  2  2  0  0  0  0
  4  3  1  0  0  0  0
  5  4  2  0  0  0  0
  5  6  1  0  0  0  0
  6  7  2  0  0  0  0
  7  2  1  0  0  0  0
 10  4  1  0  0  0  0
 11 18  1  6  0  0  0
 11 12  1  0  0  0  0
 12  1  1  1  0  0  0
 13 14  1  0  0  0  0
 13 12  1  0  0  0  0
 15 13  1  0  0  0  0
 16 15  1  0  0  0  0
 16 11  1  0  0  0  0
 17 16  1  0  0  0  0
 18 19  1  0  0  0  0
M  END
>  <minimizedAffinity>
-4.01690102

>  <minimizedRMSD>
0.680438995

$$$$
