
 OpenBabel03272505433D

 24 24  0  0  1  0  0  0  0  0999 V2000
   32.5600   28.1020   49.0280 O   0  0  0  0  0  0  0  0  0  0  0  0
   33.9170   28.4360   48.4290 P   0  0  2  0  0  0  0  0  0  0  0  0
   34.1030   27.4150   47.0870 O   0  0  0  0  0  0  0  0  0  0  0  0
   34.3750   26.5270   47.4820 H   0  0  0  0  0  0  0  0  0  0  0  0
   35.1080   28.1350   49.6140 O   0  0  0  0  0  0  0  0  0  0  0  0
   37.3890   30.3460   51.4220 C   0  0  0  0  0  0  0  0  0  0  0  0
   38.1270   30.8700   50.3230 C   0  0  0  0  0  0  0  0  0  0  0  0
   37.7900   30.4260   49.0370 C   0  0  0  0  0  0  0  0  0  0  0  0
   36.7850   29.5300   48.9220 N   0  0  0  0  0  0  0  0  0  0  0  0
   36.0930   29.0410   49.9680 C   0  0  0  0  0  0  0  0  0  0  0  0
   36.4040   29.4560   51.2150 N   0  0  0  0  0  0  0  0  0  0  0  0
   37.6130   30.6580   52.4440 H   0  0  0  0  0  0  0  0  0  0  0  0
   38.9090   31.5760   50.4890 H   0  0  0  0  0  0  0  0  0  0  0  0
   38.3230   30.7960   48.1650 H   0  0  0  0  0  0  0  0  0  0  0  0
   33.8730   30.0160   47.9000 O   0  0  0  0  0  0  0  0  0  0  0  0
   32.4380   30.4910   46.0290 C   0  0  2  0  0  0  0  0  0  0  0  0
   33.8080   30.0610   46.5070 C   0  0  2  0  0  0  0  0  0  0  0  0
   34.0040   28.7210   45.8650 C   0  0  0  0  0  0  0  0  0  0  0  0
   33.5070   27.8820   46.3850 H   0  0  0  0  0  0  0  0  0  0  0  0
   33.3220   28.8800   44.6440 O   0  0  0  0  0  0  0  0  0  0  0  0
   32.0880   29.4170   45.0410 C   0  0  0  0  0  0  0  0  0  0  0  0
   31.5580   29.8210   44.1640 H   0  0  0  0  0  0  0  0  0  0  0  0
   32.4720   31.7090   45.3410 O   0  0  0  0  0  0  0  0  0  0  0  0
   33.1480   31.7020   44.6270 H   0  0  0  0  0  0  0  0  0  0  0  0
  2  1  1  1  0  0  0
  2  5  1  0  0  0  0
  3  4  1  0  0  0  0
  5 10  1  0  0  0  0
  6 12  1  0  0  0  0
  7 13  1  0  0  0  0
  7  6  2  0  0  0  0
  8  7  1  0  0  0  0
  9  8  2  0  0  0  0
  9 10  1  0  0  0  0
 10 11  2  0  0  0  0
 11  6  1  0  0  0  0
 14  8  1  0  0  0  0
 15  2  1  0  0  0  0
 16 23  1  6  0  0  0
 16 17  1  0  0  0  0
 17 15  1  1  0  0  0
 18 17  1  0  0  0  0
 19  3  1  0  0  0  0
 20 21  1  0  0  0  0
 20 18  1  0  0  0  0
 21 16  1  0  0  0  0
 22 21  1  0  0  0  0
 24 23  1  0  0  0  0
M  END
>  <minimizedAffinity>
-4.36332226

>  <minimizedRMSD>
0.769381642

$$$$
