
 OpenBabel03272508073D

 24 25  0  0  1  0  0  0  0  0999 V2000
   38.3680   32.6380   47.9460 O   0  0  0  0  0  0  0  0  0  0  0  0
   37.6930   31.7490   46.9630 P   0  0  2  0  0  0  0  0  0  0  0  0
   37.3000   32.6340   45.5610 O   0  0  0  0  0  0  0  0  0  0  0  0
   37.1360   31.9950   44.8160 H   0  0  0  0  0  0  0  0  0  0  0  0
   36.3230   30.9570   47.5520 O   0  0  0  0  0  0  0  0  0  0  0  0
   36.6460   29.4590   50.9240 C   0  0  0  0  0  0  0  0  0  0  0  0
   37.0850   30.0520   49.7260 C   0  0  0  0  0  0  0  0  0  0  0  0
   36.1420   30.3860   48.7620 C   0  0  0  0  0  0  0  0  0  0  0  0
   34.8270   30.1130   49.0450 N   0  0  0  0  0  0  0  0  0  0  0  0
   34.4480   29.5480   50.1960 C   0  0  0  0  0  0  0  0  0  0  0  0
   35.3520   29.2240   51.1270 N   0  0  0  0  0  0  0  0  0  0  0  0
   37.4420   29.2230   51.6370 H   0  0  0  0  0  0  0  0  0  0  0  0
   38.0980   30.2880   49.4540 H   0  0  0  0  0  0  0  0  0  0  0  0
   33.3910   29.3380   50.4010 H   0  0  0  0  0  0  0  0  0  0  0  0
   38.8340   30.5880   46.4720 O   0  0  0  0  0  0  0  0  0  0  0  0
   41.0140   30.4810   45.4450 C   0  0  1  0  0  3  0  0  0  0  0  0
   40.0260   31.2770   46.2330 C   0  0  1  0  0  3  0  0  0  0  0  0
   39.8120   32.5220   45.4200 C   0  0  0  0  0  3  0  0  0  0  0  0
   40.1570   33.4260   45.9690 H   0  0  0  0  0  0  0  0  0  0  0  0
   40.5320   32.4340   44.2540 O   0  0  0  0  0  0  0  0  0  0  0  0
   40.9180   31.1260   44.0730 C   0  0  0  0  0  3  0  0  0  0  0  0
   41.9310   31.0660   43.6030 H   0  0  0  0  0  0  0  0  0  0  0  0
   42.3050   30.7200   45.9130 O   0  0  0  0  0  0  0  0  0  0  0  0
   42.9660   30.0850   45.5390 H   0  0  0  0  0  0  0  0  0  0  0  0
  2  5  1  0  0  0  0
  2  1  2  1  0  0  0
  3  2  1  0  0  0  0
  4  3  1  0  0  0  0
  5  8  1  0  0  0  0
  6 11  1  0  0  0  0
  6 12  1  0  0  0  0
  7  6  2  0  0  0  0
  8  9  2  0  0  0  0
  8  7  1  0  0  0  0
  9 10  1  0  0  0  0
 10 14  1  0  0  0  0
 10 11  2  0  0  0  0
 13  7  1  0  0  0  0
 15  2  1  0  0  0  0
 16 23  1  1  0  0  0
 16 17  1  0  0  0  0
 17 15  1  6  0  0  0
 18 19  1  0  0  0  0
 18 17  1  0  0  0  0
 20 18  1  0  0  0  0
 21 20  1  0  0  0  0
 21 16  1  0  0  0  0
 22 21  1  0  0  0  0
 24 23  1  0  0  0  0
M  END
>  <minimizedAffinity>
-3.97175622

>  <minimizedRMSD>
1.54789281

$$$$
