
 OpenBabel03272509453D

 19 20  0  0  1  0  0  0  0  0999 V2000
   35.1550   28.9310   48.1510 O   0  0  0  0  0  0  0  0  0  0  0  0
   37.3360   31.5180   49.4780 C   0  0  0  0  0  0  0  0  0  0  0  0
   37.8400   30.8450   50.6080 C   0  0  0  0  0  0  0  0  0  0  0  0
   37.4080   29.5320   50.8630 C   0  0  0  0  0  0  0  0  0  0  0  0
   36.5140   28.9950   49.9790 N   0  0  0  0  0  0  0  0  0  0  0  0
   36.0500   29.6620   48.9090 C   0  0  0  0  0  0  0  0  0  0  0  0
   36.4590   30.9230   48.6530 N   0  0  0  0  0  0  0  0  0  0  0  0
   37.6780   32.5340   49.2890 H   0  0  0  0  0  0  0  0  0  0  0  0
   38.5500   31.2860   51.2980 H   0  0  0  0  0  0  0  0  0  0  0  0
   37.7510   28.9590   51.7040 H   0  0  0  0  0  0  0  0  0  0  0  0
   33.7670   29.7740   46.4440 C   0  0  2  0  0  3  0  0  0  0  0  0
   33.8230   29.3300   47.8890 C   0  0  1  0  0  3  0  0  0  0  0  0
   32.8760   28.1390   47.8860 C   0  0  0  0  0  3  0  0  0  0  0  0
   31.8350   28.5310   47.9590 H   0  0  0  0  0  0  0  0  0  0  0  0
   33.1130   27.5780   46.6100 O   0  0  0  0  0  0  0  0  0  0  0  0
   32.9280   28.6880   45.8030 C   0  0  0  0  0  3  0  0  0  0  0  0
   31.8580   28.9700   45.8730 H   0  0  0  0  0  0  0  0  0  0  0  0
   35.0030   29.9390   45.8690 O   0  0  0  0  0  0  0  0  0  0  0  0
   35.2870   29.1530   45.3250 H   0  0  0  0  0  0  0  0  0  0  0  0
  1  6  1  0  0  0  0
  2  3  1  0  0  0  0
  3  4  2  0  0  0  0
  3  9  1  0  0  0  0
  4 10  1  0  0  0  0
  5  4  1  0  0  0  0
  6  5  2  0  0  0  0
  7  6  1  0  0  0  0
  7  2  2  0  0  0  0
  8  2  1  0  0  0  0
 11 18  1  6  0  0  0
 11 12  1  0  0  0  0
 12  1  1  6  0  0  0
 13 12  1  0  0  0  0
 13 14  1  0  0  0  0
 15 13  1  0  0  0  0
 16 17  1  0  0  0  0
 16 11  1  0  0  0  0
 16 15  1  0  0  0  0
 19 18  1  0  0  0  0
M  END
>  <minimizedAffinity>
-3.51528263

>  <minimizedRMSD>
3.37607694

$$$$
