
 OpenBabel03272509453D

 19 20  0  0  1  0  0  0  0  0999 V2000
   35.4180   30.6010   47.1350 O   0  0  0  0  0  0  0  0  0  0  0  0
   36.7880   29.1270   50.1630 C   0  0  0  0  0  0  0  0  0  0  0  0
   37.6040   30.1910   50.5940 C   0  0  0  0  0  0  0  0  0  0  0  0
   37.6470   31.3670   49.8260 C   0  0  0  0  0  0  0  0  0  0  0  0
   36.8790   31.3920   48.6950 N   0  0  0  0  0  0  0  0  0  0  0  0
   36.1100   30.3610   48.3080 C   0  0  0  0  0  0  0  0  0  0  0  0
   36.0600   29.2270   49.0380 N   0  0  0  0  0  0  0  0  0  0  0  0
   36.7620   28.2210   50.7650 H   0  0  0  0  0  0  0  0  0  0  0  0
   38.2060   30.1530   51.4950 H   0  0  0  0  0  0  0  0  0  0  0  0
   38.2460   32.2170   50.0950 H   0  0  0  0  0  0  0  0  0  0  0  0
   33.3720   30.0580   46.1030 C   0  0  2  0  0  3  0  0  0  0  0  0
   34.7900   29.5960   46.3630 C   0  0  1  0  0  3  0  0  0  0  0  0
   35.3610   29.5360   44.9550 C   0  0  0  0  0  3  0  0  0  0  0  0
   35.0420   28.5720   44.4980 H   0  0  0  0  0  0  0  0  0  0  0  0
   34.7150   30.6270   44.3280 O   0  0  0  0  0  0  0  0  0  0  0  0
   33.3920   30.3410   44.6150 C   0  0  0  0  0  3  0  0  0  0  0  0
   33.1300   29.4120   44.0670 H   0  0  0  0  0  0  0  0  0  0  0  0
   32.9910   31.1300   46.8710 O   0  0  0  0  0  0  0  0  0  0  0  0
   33.0650   32.0000   46.3890 H   0  0  0  0  0  0  0  0  0  0  0  0
  1  6  1  0  0  0  0
  2  3  1  0  0  0  0
  2  8  1  0  0  0  0
  3  9  1  0  0  0  0
  4 10  1  0  0  0  0
  4  3  2  0  0  0  0
  5  4  1  0  0  0  0
  6  5  2  0  0  0  0
  6  7  1  0  0  0  0
  7  2  2  0  0  0  0
 11 12  1  0  0  0  0
 11 18  1  1  0  0  0
 12  1  1  1  0  0  0
 13 12  1  0  0  0  0
 14 13  1  0  0  0  0
 15 16  1  0  0  0  0
 15 13  1  0  0  0  0
 16 11  1  0  0  0  0
 17 16  1  0  0  0  0
 19 18  1  0  0  0  0
M  END
>  <minimizedAffinity>
-3.83510208

>  <minimizedRMSD>
4.86158514

$$$$
