
 OpenBabel03262521443D

 46 49  0  0  1  0  0  0  0  0999 V2000
   38.5760   30.2050   44.8080 C   0  0  2  0  0  0  0  0  0  0  0  0
   39.0150   31.1120   45.9380 C   0  0  2  0  0  0  0  0  0  0  0  0
   40.5060   31.1760   45.9240 C   0  0  0  0  0  0  0  0  0  0  0  0
   41.0000   31.0640   44.6540 O   0  0  0  0  0  0  0  0  0  0  0  0
   40.1920   31.7750   43.7820 C   0  0  0  0  0  0  0  0  0  0  0  0
   38.9500   30.9900   43.5210 C   0  0  2  0  0  0  0  0  0  0  0  0
   39.1730   29.2710   44.8190 H   0  0  0  0  0  0  0  0  0  0  0  0
   38.6670   32.0600   45.4940 H   0  0  0  0  0  0  0  0  0  0  0  0
   40.9000   32.1340   46.3620 H   0  0  0  0  0  0  0  0  0  0  0  0
   40.9410   30.3410   46.5220 H   0  0  0  0  0  0  0  0  0  0  0  0
   40.7450   31.8560   42.8220 H   0  0  0  0  0  0  0  0  0  0  0  0
   40.0730   32.7750   44.1850 H   0  0  0  0  0  0  0  0  0  0  0  0
   39.1300   30.2450   42.7290 H   0  0  0  0  0  0  0  0  0  0  0  0
   37.2490   29.9520   44.6980 O   0  0  0  0  0  0  0  0  0  0  0  0
   36.9280   29.7480   43.7980 H   0  0  0  0  0  0  0  0  0  0  0  0
   38.4960   30.8500   47.1710 O   0  0  0  0  0  0  0  0  0  0  0  0
   37.7290   31.8530   47.6090 C   0  0  1  0  0  0  0  0  0  0  0  0
   36.8880   31.5250   48.8150 C   0  0  2  0  0  0  0  0  0  0  0  0
   38.0380   31.2150   49.7860 C   0  0  0  0  0  0  0  0  0  0  0  0
   39.0010   32.1710   49.5730 O   0  0  0  0  0  0  0  0  0  0  0  0
   38.7200   32.7630   48.4070 C   0  0  0  0  0  0  0  0  0  0  0  0
   37.4260   32.6310   46.8710 H   0  0  0  0  0  0  0  0  0  0  0  0
   36.3310   32.4260   49.1140 H   0  0  0  0  0  0  0  0  0  0  0  0
   38.4470   30.2400   49.4580 H   0  0  0  0  0  0  0  0  0  0  0  0
   37.6910   31.2210   50.8240 H   0  0  0  0  0  0  0  0  0  0  0  0
   37.8960   33.4910   48.7920 H   0  0  0  0  0  0  0  0  0  0  0  0
   39.2750   33.4890   47.9290 H   0  0  0  0  0  0  0  0  0  0  0  0
   36.0330   30.3520   48.5930 C   0  0  0  0  0  0  0  0  0  0  0  0
   35.2280   30.3410   47.4510 C   0  0  0  0  0  0  0  0  0  0  0  0
   34.4000   29.2000   47.2750 C   0  0  0  0  0  0  0  0  0  0  0  0
   34.4370   28.2010   48.2130 N   0  0  0  0  0  0  0  0  0  0  0  0
   35.2350   28.2590   49.3040 C   0  0  0  0  0  0  0  0  0  0  0  0
   36.0280   29.3360   49.4850 N   0  0  0  0  0  0  0  0  0  0  0  0
   35.2050   31.1230   46.7240 H   0  0  0  0  0  0  0  0  0  0  0  0
   33.7500   29.1030   46.4310 H   0  0  0  0  0  0  0  0  0  0  0  0
   35.2330   27.4490   50.0200 H   0  0  0  0  0  0  0  0  0  0  0  0
   37.9340   31.8950   43.2220 O   0  0  0  0  0  0  0  0  0  0  0  0
   37.5030   32.8440   41.0250 C   0  0  2  0  0  0  0  0  0  0  0  0
   37.2990   31.7730   42.0430 C   0  0  1  0  0  0  0  0  0  0  0  0
   37.9300   30.5560   41.3470 C   0  0  0  0  0  0  0  0  0  0  0  0
   37.2000   30.0630   40.6760 H   0  0  0  0  0  0  0  0  0  0  0  0
   38.9690   31.1590   40.6420 O   0  0  0  0  0  0  0  0  0  0  0  0
   38.2540   32.1080   39.9080 C   0  0  0  0  0  0  0  0  0  0  0  0
   37.5440   31.5220   39.2890 H   0  0  0  0  0  0  0  0  0  0  0  0
   38.2400   33.9370   41.4720 O   0  0  0  0  0  0  0  0  0  0  0  0
   38.1110   34.6520   40.8050 H   0  0  0  0  0  0  0  0  0  0  0  0
  1  7  1  1  0  0  0
  1  2  1  0  0  0  0
  2  8  1  6  0  0  0
  2 16  1  0  0  0  0
  3  2  1  0  0  0  0
  3  9  1  0  0  0  0
  3 10  1  0  0  0  0
  4  3  1  0  0  0  0
  5 12  1  0  0  0  0
  5  4  1  0  0  0  0
  6 13  1  6  0  0  0
  6  5  1  0  0  0  0
  6  1  1  0  0  0  0
 11  5  1  0  0  0  0
 14  1  1  0  0  0  0
 15 14  1  0  0  0  0
 16 17  1  0  0  0  0
 17 22  1  6  0  0  0
 17 21  1  0  0  0  0
 17 18  1  0  0  0  0
 18 23  1  1  0  0  0
 18 19  1  0  0  0  0
 19 25  1  0  0  0  0
 20 19  1  0  0  0  0
 21 26  1  0  0  0  0
 21 20  1  0  0  0  0
 24 19  1  0  0  0  0
 27 21  1  0  0  0  0
 28 18  1  0  0  0  0
 28 33  1  0  0  0  0
 29 28  2  0  0  0  0
 30 29  1  0  0  0  0
 30 31  2  0  0  0  0
 31 32  1  0  0  0  0
 32 33  2  0  0  0  0
 32 36  1  0  0  0  0
 34 29  1  0  0  0  0
 35 30  1  0  0  0  0
 37  6  1  0  0  0  0
 38 45  1  1  0  0  0
 38 39  1  0  0  0  0
 39 37  1  1  0  0  0
 40 39  1  0  0  0  0
 41 40  1  0  0  0  0
 42 40  1  0  0  0  0
 43 42  1  0  0  0  0
 43 38  1  0  0  0  0
 44 43  1  0  0  0  0
 46 45  1  0  0  0  0
M  END
>  <minimizedAffinity>
-5.29074669

>  <minimizedRMSD>
2.40921807

$$$$
