
 OpenBabel03272508083D

 24 25  0  0  1  0  0  0  0  0999 V2000
   34.9710   30.1320   45.2100 O   0  0  0  0  0  0  0  0  0  0  0  0
   34.3030   29.7920   46.4940 P   0  0  2  0  0  0  0  0  0  0  0  0
   33.1370   30.9760   46.8680 O   0  0  0  0  0  0  0  0  0  0  0  0
   32.5040   30.6010   47.5390 H   0  0  0  0  0  0  0  0  0  0  0  0
   35.3520   29.5770   47.8010 O   0  0  0  0  0  0  0  0  0  0  0  0
   38.4260   31.5910   48.2650 C   0  0  0  0  0  0  0  0  0  0  0  0
   37.5530   30.6950   47.6200 C   0  0  0  0  0  0  0  0  0  0  0  0
   36.3380   30.3960   48.2250 C   0  0  0  0  0  0  0  0  0  0  0  0
   36.0650   31.0010   49.4260 N   0  0  0  0  0  0  0  0  0  0  0  0
   36.9200   31.8480   50.0090 C   0  0  0  0  0  0  0  0  0  0  0  0
   38.0910   32.1390   49.4310 N   0  0  0  0  0  0  0  0  0  0  0  0
   39.3630   31.7800   47.7330 H   0  0  0  0  0  0  0  0  0  0  0  0
   37.7150   30.1960   46.6830 H   0  0  0  0  0  0  0  0  0  0  0  0
   36.6820   32.3200   50.9690 H   0  0  0  0  0  0  0  0  0  0  0  0
   33.4340   28.3530   46.2410 O   0  0  0  0  0  0  0  0  0  0  0  0
   31.7800   27.9070   47.9390 C   0  0  1  0  0  3  0  0  0  0  0  0
   33.2040   27.7990   47.5030 C   0  0  1  0  0  3  0  0  0  0  0  0
   33.4970   26.3270   47.5400 C   0  0  0  0  0  3  0  0  0  0  0  0
   34.2790   26.0890   48.2960 H   0  0  0  0  0  0  0  0  0  0  0  0
   32.3560   25.6420   47.8850 O   0  0  0  0  0  0  0  0  0  0  0  0
   31.2790   26.4870   47.7440 C   0  0  0  0  0  3  0  0  0  0  0  0
   30.5090   26.2920   48.5300 H   0  0  0  0  0  0  0  0  0  0  0  0
   31.7150   28.1740   49.3050 O   0  0  0  0  0  0  0  0  0  0  0  0
   30.8040   28.4270   49.5980 H   0  0  0  0  0  0  0  0  0  0  0  0
  2  1  2  6  0  0  0
  2  3  1  0  0  0  0
  2  5  1  0  0  0  0
  3  4  1  0  0  0  0
  5  8  1  0  0  0  0
  6 11  1  0  0  0  0
  7  8  1  0  0  0  0
  7  6  2  0  0  0  0
  8  9  2  0  0  0  0
  9 10  1  0  0  0  0
 10 14  1  0  0  0  0
 11 10  2  0  0  0  0
 12  6  1  0  0  0  0
 13  7  1  0  0  0  0
 15  2  1  0  0  0  0
 16 23  1  1  0  0  0
 17 15  1  6  0  0  0
 17 18  1  0  0  0  0
 17 16  1  0  0  0  0
 18 20  1  0  0  0  0
 18 19  1  0  0  0  0
 21 20  1  0  0  0  0
 21 16  1  0  0  0  0
 21 22  1  0  0  0  0
 23 24  1  0  0  0  0
M  END
>  <minimizedAffinity>
-4.3992672

>  <minimizedRMSD>
7.35733128

$$$$
