
 OpenBabel03272509453D

 19 20  0  0  1  0  0  0  0  0999 V2000
   34.8770   28.7010   48.1270 O   0  0  0  0  0  0  0  0  0  0  0  0
   36.3390   29.5690   51.3400 C   0  0  0  0  0  0  0  0  0  0  0  0
   37.5240   30.1910   50.8990 C   0  0  0  0  0  0  0  0  0  0  0  0
   37.7670   30.2840   49.5180 C   0  0  0  0  0  0  0  0  0  0  0  0
   36.8180   29.7540   48.6890 N   0  0  0  0  0  0  0  0  0  0  0  0
   35.6960   29.1670   49.1380 C   0  0  0  0  0  0  0  0  0  0  0  0
   35.4520   29.0720   50.4630 N   0  0  0  0  0  0  0  0  0  0  0  0
   36.1600   29.5030   52.4120 H   0  0  0  0  0  0  0  0  0  0  0  0
   38.2650   30.6060   51.5720 H   0  0  0  0  0  0  0  0  0  0  0  0
   38.6480   30.7450   49.1120 H   0  0  0  0  0  0  0  0  0  0  0  0
   32.5950   28.5080   47.5750 C   0  0  2  0  0  3  0  0  0  0  0  0
   33.7420   27.8820   48.3380 C   0  0  1  0  0  3  0  0  0  0  0  0
   33.8880   26.5400   47.6330 C   0  0  0  0  0  3  0  0  0  0  0  0
   33.1220   25.8510   48.0540 H   0  0  0  0  0  0  0  0  0  0  0  0
   33.5810   26.8750   46.2940 O   0  0  0  0  0  0  0  0  0  0  0  0
   32.3620   27.5080   46.4610 C   0  0  0  0  0  3  0  0  0  0  0  0
   31.6380   26.7420   46.8090 H   0  0  0  0  0  0  0  0  0  0  0  0
   32.8530   29.7830   47.1360 O   0  0  0  0  0  0  0  0  0  0  0  0
   33.1390   29.8160   46.1820 H   0  0  0  0  0  0  0  0  0  0  0  0
  1  6  1  0  0  0  0
  2  8  1  0  0  0  0
  3  2  1  0  0  0  0
  3  9  1  0  0  0  0
  4  3  2  0  0  0  0
  5  6  2  0  0  0  0
  5  4  1  0  0  0  0
  6  7  1  0  0  0  0
  7  2  2  0  0  0  0
 10  4  1  0  0  0  0
 11 18  1  6  0  0  0
 11 12  1  0  0  0  0
 12  1  1  6  0  0  0
 13 14  1  0  0  0  0
 13 12  1  0  0  0  0
 15 16  1  0  0  0  0
 15 13  1  0  0  0  0
 16 17  1  0  0  0  0
 16 11  1  0  0  0  0
 19 18  1  0  0  0  0
M  END
>  <minimizedAffinity>
-3.69939256

>  <minimizedRMSD>
2.18868709

$$$$
