
 OpenBabel03272503463D

 24 25  0  0  1  0  0  0  0  0999 V2000
   35.3340   29.7780   46.7880 O   0  0  0  0  0  0  0  0  0  0  0  0
   34.1170   29.9950   47.6520 P   0  0  2  0  0  0  0  0  0  0  0  0
   33.0590   30.9920   46.7730 O   0  0  0  0  0  0  0  0  0  0  0  0
   32.1370   30.9610   47.1200 H   0  0  0  0  0  0  0  0  0  0  0  0
   34.5100   30.7680   49.1410 O   0  0  0  0  0  0  0  0  0  0  0  0
   35.7210   30.5690   49.7730 C   0  0  0  0  0  0  0  0  0  0  0  0
   36.0070   29.5540   50.6920 C   0  0  0  0  0  0  0  0  0  0  0  0
   37.2830   29.4930   51.2400 C   0  0  0  0  0  0  0  0  0  0  0  0
   38.2090   30.4180   50.8670 N   0  0  0  0  0  0  0  0  0  0  0  0
   37.8940   31.3970   49.9640 C   0  0  0  0  0  0  0  0  0  0  0  0
   36.6550   31.4780   49.4150 N   0  0  0  0  0  0  0  0  0  0  0  0
   35.2040   28.8890   50.9080 H   0  0  0  0  0  0  0  0  0  0  0  0
   37.4910   28.7030   51.9490 H   0  0  0  0  0  0  0  0  0  0  0  0
   38.6980   32.0690   49.7430 H   0  0  0  0  0  0  0  0  0  0  0  0
   33.3490   28.5500   48.0740 O   0  0  0  0  0  0  0  0  0  0  0  0
   33.6430   26.2370   47.4800 C   0  0  1  0  0  0  0  0  0  0  0  0
   33.4940   27.6640   47.0340 C   0  0  1  0  0  0  0  0  0  0  0  0
   32.1700   27.6070   46.2940 C   0  0  0  0  0  0  0  0  0  0  0  0
   32.3850   27.2680   45.2720 H   0  0  0  0  0  0  0  0  0  0  0  0
   31.3960   26.7520   47.0410 O   0  0  0  0  0  0  0  0  0  0  0  0
   32.2160   25.7760   47.5790 C   0  0  0  0  0  0  0  0  0  0  0  0
   32.0120   25.5420   48.6420 H   0  0  0  0  0  0  0  0  0  0  0  0
   34.2740   25.4910   46.4700 O   0  0  0  0  0  0  0  0  0  0  0  0
   34.9720   24.8900   46.8110 H   0  0  0  0  0  0  0  0  0  0  0  0
  2  1  2  6  0  0  0
  2 15  1  0  0  0  0
  2  5  1  0  0  0  0
  3  4  1  0  0  0  0
  3  2  1  0  0  0  0
  5  6  1  0  0  0  0
  6  7  1  0  0  0  0
  7 12  1  0  0  0  0
  7  8  2  0  0  0  0
  8 13  1  0  0  0  0
  9  8  1  0  0  0  0
 10  9  2  0  0  0  0
 11  6  2  0  0  0  0
 11 10  1  0  0  0  0
 14 10  1  0  0  0  0
 16 23  1  6  0  0  0
 16 21  1  0  0  0  0
 17 16  1  0  0  0  0
 17 15  1  1  0  0  0
 18 17  1  0  0  0  0
 18 20  1  0  0  0  0
 19 18  1  0  0  0  0
 20 21  1  0  0  0  0
 21 22  1  0  0  0  0
 23 24  1  0  0  0  0
M  END
>  <minimizedAffinity>
-4.13029718

>  <minimizedRMSD>
2.03155899

$$$$
