
 OpenBabel03272508083D

 24 25  0  0  1  0  0  0  0  0999 V2000
   38.3080   32.6950   47.9950 O   0  0  0  0  0  0  0  0  0  0  0  0
   37.6830   31.7740   47.0100 P   0  0  2  0  0  0  0  0  0  0  0  0
   37.3360   32.6180   45.5720 O   0  0  0  0  0  0  0  0  0  0  0  0
   37.2070   31.9580   44.8370 H   0  0  0  0  0  0  0  0  0  0  0  0
   36.2990   30.9800   47.5660 O   0  0  0  0  0  0  0  0  0  0  0  0
   36.5690   29.3890   50.8990 C   0  0  0  0  0  0  0  0  0  0  0  0
   37.0290   29.9920   49.7140 C   0  0  0  0  0  0  0  0  0  0  0  0
   36.0970   30.3890   48.7620 C   0  0  0  0  0  0  0  0  0  0  0  0
   34.7730   30.1640   49.0440 N   0  0  0  0  0  0  0  0  0  0  0  0
   34.3740   29.5870   50.1820 C   0  0  0  0  0  0  0  0  0  0  0  0
   35.2660   29.2040   51.1010 N   0  0  0  0  0  0  0  0  0  0  0  0
   37.3560   29.1020   51.6030 H   0  0  0  0  0  0  0  0  0  0  0  0
   38.0500   30.1910   49.4440 H   0  0  0  0  0  0  0  0  0  0  0  0
   33.3100   29.4170   50.3860 H   0  0  0  0  0  0  0  0  0  0  0  0
   38.8540   30.6140   46.5940 O   0  0  0  0  0  0  0  0  0  0  0  0
   40.8840   30.6640   45.2920 C   0  0  1  0  0  3  0  0  0  0  0  0
   40.0350   31.3160   46.3330 C   0  0  1  0  0  3  0  0  0  0  0  0
   39.7710   32.6930   45.7960 C   0  0  0  0  0  3  0  0  0  0  0  0
   40.2180   33.4730   46.4510 H   0  0  0  0  0  0  0  0  0  0  0  0
   40.3370   32.8130   44.5500 O   0  0  0  0  0  0  0  0  0  0  0  0
   40.6460   31.5550   44.0860 C   0  0  0  0  0  3  0  0  0  0  0  0
   41.5890   31.5660   43.4850 H   0  0  0  0  0  0  0  0  0  0  0  0
   42.2310   30.7900   45.6240 O   0  0  0  0  0  0  0  0  0  0  0  0
   42.8140   30.2250   45.0590 H   0  0  0  0  0  0  0  0  0  0  0  0
  2  5  1  0  0  0  0
  2  1  2  1  0  0  0
  3  2  1  0  0  0  0
  4  3  1  0  0  0  0
  5  8  1  0  0  0  0
  6 11  1  0  0  0  0
  6 12  1  0  0  0  0
  7  6  2  0  0  0  0
  8  9  2  0  0  0  0
  8  7  1  0  0  0  0
  9 10  1  0  0  0  0
 10 14  1  0  0  0  0
 10 11  2  0  0  0  0
 13  7  1  0  0  0  0
 15  2  1  0  0  0  0
 16 23  1  1  0  0  0
 16 17  1  0  0  0  0
 17 15  1  6  0  0  0
 18 17  1  0  0  0  0
 18 19  1  0  0  0  0
 20 18  1  0  0  0  0
 21 20  1  0  0  0  0
 21 16  1  0  0  0  0
 22 21  1  0  0  0  0
 24 23  1  0  0  0  0
M  END
>  <minimizedAffinity>
-4.17277193

>  <minimizedRMSD>
1.39603972

$$$$
