
 OpenBabel03272506403D

 19 20  0  0  1  0  0  0  0  0999 V2000
   34.7720   28.2010   49.4740 S   0  0  0  0  0  0  0  0  0  0  0  0
   38.0100   30.4320   49.9230 C   0  0  0  0  0  0  0  0  0  0  0  0
   38.0560   31.2520   48.7940 C   0  0  0  0  0  0  0  0  0  0  0  0
   37.0370   31.1110   47.8410 C   0  0  0  0  0  0  0  0  0  0  0  0
   36.0660   30.1830   48.0830 N   0  0  0  0  0  0  0  0  0  0  0  0
   36.0570   29.4160   49.1760 C   0  0  0  0  0  0  0  0  0  0  0  0
   37.0190   29.5360   50.0940 N   0  0  0  0  0  0  0  0  0  0  0  0
   38.7900   30.5270   50.6700 H   0  0  0  0  0  0  0  0  0  0  0  0
   38.8550   31.9770   48.6540 H   0  0  0  0  0  0  0  0  0  0  0  0
   37.0490   31.7350   46.9580 H   0  0  0  0  0  0  0  0  0  0  0  0
   32.1790   27.7510   48.5580 C   0  0  2  0  0  3  0  0  0  0  0  0
   33.4800   28.4770   48.2950 C   0  0  2  0  0  3  0  0  0  0  0  0
   33.7800   27.9040   46.9150 C   0  0  0  0  0  3  0  0  0  0  0  0
   34.5500   28.5350   46.4210 H   0  0  0  0  0  0  0  0  0  0  0  0
   32.5620   27.8720   46.2520 O   0  0  0  0  0  0  0  0  0  0  0  0
   31.5430   28.0080   47.1860 C   0  0  0  0  0  3  0  0  0  0  0  0
   30.6530   27.4100   47.0020 H   0  0  0  0  0  0  0  0  0  0  0  0
   31.3770   28.3610   49.4950 O   0  0  0  0  0  0  0  0  0  0  0  0
   31.9460   28.8120   50.1760 H   0  0  0  0  0  0  0  0  0  0  0  0
  2  7  1  0  0  0  0
  2  8  1  0  0  0  0
  3  2  2  0  0  0  0
  4  5  2  0  0  0  0
  4  3  1  0  0  0  0
  5  6  1  0  0  0  0
  6  1  1  0  0  0  0
  6  7  2  0  0  0  0
  9  3  1  0  0  0  0
 10  4  1  0  0  0  0
 11 18  1  1  0  0  0
 12 11  1  0  0  0  0
 12  1  1  1  0  0  0
 13 12  1  0  0  0  0
 14 13  1  0  0  0  0
 15 13  1  0  0  0  0
 15 16  1  0  0  0  0
 16 11  1  0  0  0  0
 17 16  1  0  0  0  0
 18 19  1  0  0  0  0
M  END
>  <minimizedAffinity>
-3.74577427

>  <minimizedRMSD>
1.94075632

$$$$
