
 OpenBabel03262521423D

 30 32  0  0  1  0  0  0  0  0999 V2000
   38.8180   31.4220   47.2920 C   0  0  1  0  0  0  0  0  0  0  0  0
   37.9830   30.1760   46.9740 C   0  0  2  0  0  0  0  0  0  0  0  0
   37.7080   30.5250   45.5290 C   0  0  0  0  0  0  0  0  0  0  0  0
   38.9200   30.9630   45.0170 O   0  0  0  0  0  0  0  0  0  0  0  0
   39.7180   31.3860   46.0430 C   0  0  0  0  0  0  0  0  0  0  0  0
   39.4140   31.2430   48.2010 H   0  0  0  0  0  0  0  0  0  0  0  0
   38.6550   29.3040   47.0320 H   0  0  0  0  0  0  0  0  0  0  0  0
   37.3100   29.6520   44.9740 H   0  0  0  0  0  0  0  0  0  0  0  0
   36.9890   31.3520   45.4290 H   0  0  0  0  0  0  0  0  0  0  0  0
   40.0870   32.4160   45.8370 H   0  0  0  0  0  0  0  0  0  0  0  0
   40.5980   30.7160   46.2210 H   0  0  0  0  0  0  0  0  0  0  0  0
   36.7840   30.0830   47.8150 C   0  0  0  0  0  0  0  0  0  0  0  0
   36.8860   29.6560   49.1470 C   0  0  0  0  0  0  0  0  0  0  0  0
   35.7020   29.5690   49.8840 C   0  0  0  0  0  0  0  0  0  0  0  0
   34.5210   29.9020   49.2750 N   0  0  0  0  0  0  0  0  0  0  0  0
   34.4590   30.3150   47.9700 C   0  0  0  0  0  0  0  0  0  0  0  0
   35.6040   30.4010   47.2520 N   0  0  0  0  0  0  0  0  0  0  0  0
   37.8260   29.4020   49.5980 H   0  0  0  0  0  0  0  0  0  0  0  0
   35.6880   29.2500   50.9180 H   0  0  0  0  0  0  0  0  0  0  0  0
   33.4810   30.5550   47.5770 H   0  0  0  0  0  0  0  0  0  0  0  0
   38.0990   32.5650   47.2300 O   0  0  0  0  0  0  0  0  0  0  0  0
   39.6870   33.7680   48.4840 C   0  0  2  0  0  3  0  0  0  0  0  0
   38.2140   33.4500   48.2680 C   0  0  2  0  0  3  0  0  0  0  0  0
   37.8860   32.8430   49.6160 C   0  0  0  0  0  3  0  0  0  0  0  0
   36.8190   32.8020   49.8310 H   0  0  0  0  0  0  0  0  0  0  0  0
   38.4760   33.7730   50.4790 O   0  0  0  0  0  0  0  0  0  0  0  0
   39.7250   34.0660   49.9630 C   0  0  0  0  0  3  0  0  0  0  0  0
   40.0010   35.1130   50.1700 H   0  0  0  0  0  0  0  0  0  0  0  0
   40.0390   34.8860   47.7570 O   0  0  0  0  0  0  0  0  0  0  0  0
   41.0130   34.8190   47.5590 H   0  0  0  0  0  0  0  0  0  0  0  0
  1  6  1  1  0  0  0
  2  7  1  1  0  0  0
  2  1  1  0  0  0  0
  2 12  1  0  0  0  0
  3  2  1  0  0  0  0
  4  3  1  0  0  0  0
  4  5  1  0  0  0  0
  5 11  1  0  0  0  0
  5  1  1  0  0  0  0
  8  3  1  0  0  0  0
  9  3  1  0  0  0  0
 10  5  1  0  0  0  0
 12 13  1  0  0  0  0
 13 18  1  0  0  0  0
 13 14  2  0  0  0  0
 14 19  1  0  0  0  0
 15 14  1  0  0  0  0
 16 15  2  0  0  0  0
 17 12  2  0  0  0  0
 17 16  1  0  0  0  0
 20 16  1  0  0  0  0
 21  1  1  0  0  0  0
 22 29  1  6  0  0  0
 22 27  1  0  0  0  0
 23 21  1  6  0  0  0
 23 22  1  0  0  0  0
 23 24  1  0  0  0  0
 24 25  1  0  0  0  0
 24 26  1  0  0  0  0
 27 28  1  0  0  0  0
 27 26  1  0  0  0  0
 30 29  1  0  0  0  0
M  END
>  <minimizedAffinity>
-3.08019948

>  <minimizedRMSD>
1.46118438

$$$$
