
 OpenBabel03272504383D

 42 44  0  0  1  0  0  0  0  0999 V2000
   37.5410   30.4610   48.4900 Cl  0  0  0  0  0  0  0  0  0  0  0  0
   36.4050   30.2920   47.1520 C   0  0  0  0  0  0  0  0  0  0  0  0
   36.7890   30.6710   45.9020 C   0  0  0  0  0  0  0  0  0  0  0  0
   35.9170   30.5450   44.8560 C   0  0  0  0  0  0  0  0  0  0  0  0
   34.6550   30.0300   45.0940 C   0  0  0  0  0  0  0  0  0  0  0  0
   34.3120   29.6570   46.3940 C   0  0  0  0  0  0  0  0  0  0  0  0
   35.1660   29.7740   47.4480 C   0  0  0  0  0  0  0  0  0  0  0  0
   36.2600   30.8610   43.8620 H   0  0  0  0  0  0  0  0  0  0  0  0
   34.0490   29.9740   44.1960 H   0  0  0  0  0  0  0  0  0  0  0  0
   33.3430   29.3010   46.3670 H   0  0  0  0  0  0  0  0  0  0  0  0
   39.7850   32.8340   45.9880 C   0  0  0  0  0  0  0  0  0  0  0  0
   40.6590   32.1130   45.1180 C   0  0  0  0  0  0  0  0  0  0  0  0
   40.1840   30.9220   44.5420 C   0  0  0  0  0  0  0  0  0  0  0  0
   38.9230   30.5070   44.8350 N   0  0  0  0  0  0  0  0  0  0  0  0
   38.1210   31.2140   45.6640 C   0  0  0  0  0  0  0  0  0  0  0  0
   38.5570   32.3560   46.2240 N   0  0  0  0  0  0  0  0  0  0  0  0
   40.1090   33.7380   46.4430 H   0  0  0  0  0  0  0  0  0  0  0  0
   41.6410   32.5190   44.9460 H   0  0  0  0  0  0  0  0  0  0  0  0
   41.0680   30.2390   43.6940 N   0  0  0  0  0  0  0  0  0  0  0  0
   42.0910   30.2900   43.8350 H   0  0  0  0  0  0  0  0  0  0  0  0
   40.6340   29.6770   42.9130 H   0  0  0  0  0  0  0  0  0  0  0  0
   34.7930   29.3880   48.7900 C   0  0  0  0  0  0  0  0  0  0  0  0
   34.1730   30.2360   49.2090 H   0  0  0  0  0  0  0  0  0  0  0  0
   35.6980   29.3920   49.4300 H   0  0  0  0  0  0  0  0  0  0  0  0
   34.0700   28.1390   49.0000 C   0  0  0  0  0  0  0  0  0  0  0  0
   34.0500   27.5570   48.0490 H   0  0  0  0  0  0  0  0  0  0  0  0
   34.5600   27.4730   49.7430 H   0  0  0  0  0  0  0  0  0  0  0  0
   32.7870   28.3530   49.4390 O   0  0  0  0  0  0  0  0  0  0  0  0
   32.2670   26.3960   47.7520 O   0  0  0  0  0  0  0  0  0  0  0  0
   31.6770   27.6140   48.4200 P   0  0  2  0  0  0  0  0  0  0  0  0
   31.2290   28.7990   47.2630 O   0  0  0  0  0  0  0  0  0  0  0  0
   30.8790   28.3700   46.4440 H   0  0  0  0  0  0  0  0  0  0  0  0
   30.2910   27.1610   49.2260 O   0  0  0  0  0  0  0  0  0  0  0  0
   28.6990   27.9720   50.7050 C   0  0  2  0  0  3  0  0  0  0  0  0
   29.3420   28.1650   49.3270 C   0  0  2  0  0  3  0  0  0  0  0  0
   28.1580   27.7700   48.4710 C   0  0  0  0  0  3  0  0  0  0  0  0
   27.3650   28.5620   48.5120 H   0  0  0  0  0  0  0  0  0  0  0  0
   27.6120   26.6670   49.1100 O   0  0  0  0  0  0  0  0  0  0  0  0
   27.9860   26.6630   50.4300 C   0  0  0  0  0  3  0  0  0  0  0  0
   27.2100   26.4360   51.1610 H   0  0  0  0  0  0  0  0  0  0  0  0
   27.7480   28.9300   50.9750 O   0  0  0  0  0  0  0  0  0  0  0  0
   28.1270   29.8400   51.0580 H   0  0  0  0  0  0  0  0  0  0  0  0
  2  7  1  0  0  0  0
  2  1  1  0  0  0  0
  3  2  2  0  0  0  0
  4  5  2  0  0  0  0
  4  3  1  0  0  0  0
  5  6  1  0  0  0  0
  6  7  2  0  0  0  0
  7 22  1  0  0  0  0
  8  4  1  0  0  0  0
  9  5  1  0  0  0  0
 10  6  1  0  0  0  0
 11 16  1  0  0  0  0
 11 17  1  0  0  0  0
 12 11  2  0  0  0  0
 13 14  2  0  0  0  0
 13 12  1  0  0  0  0
 14 15  1  0  0  0  0
 15  3  1  0  0  0  0
 15 16  2  0  0  0  0
 18 12  1  0  0  0  0
 19 20  1  0  0  0  0
 19 13  1  0  0  0  0
 21 19  1  0  0  0  0
 22 25  1  0  0  0  0
 22 23  1  0  0  0  0
 22 24  1  0  0  0  0
 25 28  1  0  0  0  0
 25 27  1  0  0  0  0
 26 25  1  0  0  0  0
 30 29  2  6  0  0  0
 30 33  1  0  0  0  0
 30 28  1  0  0  0  0
 31 30  1  0  0  0  0
 32 31  1  0  0  0  0
 34 41  1  6  0  0  0
 35 33  1  1  0  0  0
 35 34  1  0  0  0  0
 36 37  1  0  0  0  0
 36 38  1  0  0  0  0
 36 35  1  0  0  0  0
 38 39  1  0  0  0  0
 39 34  1  0  0  0  0
 39 40  1  0  0  0  0
 41 42  1  0  0  0  0
M  END
>  <minimizedAffinity>
-6.16810417

>  <minimizedRMSD>
1.77986491

$$$$
