
 OpenBabel03272504193D

 27 28  0  0  1  0  0  0  0  0999 V2000
   37.6610   30.4230   47.4190 O   0  0  0  0  0  0  0  0  0  0  0  0
   37.4590   31.0450   48.7700 P   0  0  2  0  0  0  0  0  0  0  0  0
   38.3930   30.1510   49.8940 O   0  0  0  0  0  0  0  0  0  0  0  0
   38.6140   29.2500   49.5520 H   0  0  0  0  0  0  0  0  0  0  0  0
   35.8270   30.9690   49.2200 O   0  0  0  0  0  0  0  0  0  0  0  0
   35.5190   29.6520   49.4810 C   0  0  0  0  0  0  0  0  0  0  0  0
   36.3830   28.9520   49.4030 H   0  0  0  0  0  0  0  0  0  0  0  0
   35.2040   29.5960   50.5650 H   0  0  0  0  0  0  0  0  0  0  0  0
   34.3470   29.1680   48.6990 C   0  0  0  0  0  0  0  0  0  0  0  0
   34.1240   29.7340   47.4540 C   0  0  0  0  0  0  0  0  0  0  0  0
   33.0370   29.2940   46.7100 C   0  0  0  0  0  0  0  0  0  0  0  0
   32.2450   28.3320   47.2400 N   0  0  0  0  0  0  0  0  0  0  0  0
   32.4780   27.7880   48.4610 C   0  0  0  0  0  0  0  0  0  0  0  0
   33.5340   28.2070   49.1950 N   0  0  0  0  0  0  0  0  0  0  0  0
   34.7460   30.5070   47.0090 H   0  0  0  0  0  0  0  0  0  0  0  0
   32.7790   29.6670   45.7390 H   0  0  0  0  0  0  0  0  0  0  0  0
   31.8320   27.0190   48.8640 H   0  0  0  0  0  0  0  0  0  0  0  0
   37.9820   32.6450   48.7360 O   0  0  0  0  0  0  0  0  0  0  0  0
   39.8840   33.5610   47.7490 C   0  0  2  0  0  3  0  0  0  0  0  0
   39.3530   32.7610   48.9230 C   0  0  1  0  0  3  0  0  0  0  0  0
   39.6200   33.7970   50.0230 C   0  0  0  0  0  3  0  0  0  0  0  0
   39.1250   33.5390   50.9740 H   0  0  0  0  0  0  0  0  0  0  0  0
   39.0560   34.9310   49.4680 O   0  0  0  0  0  0  0  0  0  0  0  0
   39.3650   34.9500   48.1250 C   0  0  0  0  0  3  0  0  0  0  0  0
   40.0630   35.7550   47.8590 H   0  0  0  0  0  0  0  0  0  0  0  0
   39.3030   33.0700   46.5940 O   0  0  0  0  0  0  0  0  0  0  0  0
   39.6170   33.6280   45.8320 H   0  0  0  0  0  0  0  0  0  0  0  0
  2  1  2  6  0  0  0
  2  5  1  0  0  0  0
  2  3  1  0  0  0  0
  4  3  1  0  0  0  0
  5  6  1  0  0  0  0
  6  8  1  0  0  0  0
  7  6  1  0  0  0  0
  9 14  1  0  0  0  0
  9  6  1  0  0  0  0
 10  9  2  0  0  0  0
 11 12  2  0  0  0  0
 11 10  1  0  0  0  0
 12 13  1  0  0  0  0
 13 17  1  0  0  0  0
 13 14  2  0  0  0  0
 15 10  1  0  0  0  0
 16 11  1  0  0  0  0
 18  2  1  0  0  0  0
 19 26  1  6  0  0  0
 19 24  1  0  0  0  0
 19 20  1  0  0  0  0
 20 18  1  6  0  0  0
 20 21  1  0  0  0  0
 21 22  1  0  0  0  0
 23 21  1  0  0  0  0
 24 23  1  0  0  0  0
 25 24  1  0  0  0  0
 27 26  1  0  0  0  0
M  END
>  <minimizedAffinity>
-2.62491727

>  <minimizedRMSD>
1.12222791

$$$$
