
 OpenBabel03272504383D

 42 44  0  0  1  0  0  0  0  0999 V2000
   37.6210   30.4000   48.5170 Cl  0  0  0  0  0  0  0  0  0  0  0  0
   36.4560   30.2670   47.2010 C   0  0  0  0  0  0  0  0  0  0  0  0
   36.8130   30.6760   45.9530 C   0  0  0  0  0  0  0  0  0  0  0  0
   35.9190   30.5780   44.9230 C   0  0  0  0  0  0  0  0  0  0  0  0
   34.6600   30.0610   45.1760 C   0  0  0  0  0  0  0  0  0  0  0  0
   34.3450   29.6570   46.4740 C   0  0  0  0  0  0  0  0  0  0  0  0
   35.2220   29.7460   47.5120 C   0  0  0  0  0  0  0  0  0  0  0  0
   36.2400   30.9180   43.9300 H   0  0  0  0  0  0  0  0  0  0  0  0
   34.0340   30.0300   44.2910 H   0  0  0  0  0  0  0  0  0  0  0  0
   33.3740   29.3050   46.4600 H   0  0  0  0  0  0  0  0  0  0  0  0
   39.8060   32.8450   46.0000 C   0  0  0  0  0  0  0  0  0  0  0  0
   40.6720   32.1230   45.1230 C   0  0  0  0  0  0  0  0  0  0  0  0
   40.1930   30.9280   44.5560 C   0  0  0  0  0  0  0  0  0  0  0  0
   38.9360   30.5120   44.8640 N   0  0  0  0  0  0  0  0  0  0  0  0
   38.1420   31.2200   45.6980 C   0  0  0  0  0  0  0  0  0  0  0  0
   38.5810   32.3660   46.2500 N   0  0  0  0  0  0  0  0  0  0  0  0
   40.1330   33.7520   46.4470 H   0  0  0  0  0  0  0  0  0  0  0  0
   41.6510   32.5300   44.9400 H   0  0  0  0  0  0  0  0  0  0  0  0
   41.0700   30.2440   43.7010 N   0  0  0  0  0  0  0  0  0  0  0  0
   42.0940   30.2980   43.8310 H   0  0  0  0  0  0  0  0  0  0  0  0
   40.6290   29.6790   42.9270 H   0  0  0  0  0  0  0  0  0  0  0  0
   34.8770   29.3280   48.8520 C   0  0  0  0  0  0  0  0  0  0  0  0
   34.3330   30.1960   49.3300 H   0  0  0  0  0  0  0  0  0  0  0  0
   35.8050   29.2450   49.4520 H   0  0  0  0  0  0  0  0  0  0  0  0
   34.0800   28.1210   49.0420 C   0  0  0  0  0  0  0  0  0  0  0  0
   34.0450   27.5450   48.0870 H   0  0  0  0  0  0  0  0  0  0  0  0
   34.5170   27.4260   49.7900 H   0  0  0  0  0  0  0  0  0  0  0  0
   32.8040   28.4060   49.4580 O   0  0  0  0  0  0  0  0  0  0  0  0
   32.2360   26.4120   47.8300 O   0  0  0  0  0  0  0  0  0  0  0  0
   31.6720   27.6580   48.4690 P   0  0  2  0  0  0  0  0  0  0  0  0
   31.2360   28.8180   47.2810 O   0  0  0  0  0  0  0  0  0  0  0  0
   30.8720   28.3720   46.4780 H   0  0  0  0  0  0  0  0  0  0  0  0
   30.2860   27.2520   49.2970 O   0  0  0  0  0  0  0  0  0  0  0  0
   28.6810   28.7190   50.1060 C   0  0  2  0  0  3  0  0  0  0  0  0
   29.1560   27.9340   48.8770 C   0  0  2  0  0  3  0  0  0  0  0  0
   28.0180   26.9380   48.7950 C   0  0  0  0  0  3  0  0  0  0  0  0
   27.0810   27.4450   48.4450 H   0  0  0  0  0  0  0  0  0  0  0  0
   27.7740   26.5740   50.1100 O   0  0  0  0  0  0  0  0  0  0  0  0
   28.2430   27.5450   50.9570 C   0  0  0  0  0  3  0  0  0  0  0  0
   27.5950   27.8320   51.7840 H   0  0  0  0  0  0  0  0  0  0  0  0
   27.5720   29.4880   49.8350 O   0  0  0  0  0  0  0  0  0  0  0  0
   27.7540   30.2180   49.1920 H   0  0  0  0  0  0  0  0  0  0  0  0
  2  7  1  0  0  0  0
  2  1  1  0  0  0  0
  3  2  2  0  0  0  0
  4  5  2  0  0  0  0
  4  3  1  0  0  0  0
  5  6  1  0  0  0  0
  6  7  2  0  0  0  0
  7 22  1  0  0  0  0
  8  4  1  0  0  0  0
  9  5  1  0  0  0  0
 10  6  1  0  0  0  0
 11 16  1  0  0  0  0
 11 17  1  0  0  0  0
 12 11  2  0  0  0  0
 13 14  2  0  0  0  0
 13 12  1  0  0  0  0
 14 15  1  0  0  0  0
 15  3  1  0  0  0  0
 15 16  2  0  0  0  0
 18 12  1  0  0  0  0
 19 20  1  0  0  0  0
 19 13  1  0  0  0  0
 21 19  1  0  0  0  0
 22 25  1  0  0  0  0
 22 23  1  0  0  0  0
 22 24  1  0  0  0  0
 25 28  1  0  0  0  0
 25 27  1  0  0  0  0
 26 25  1  0  0  0  0
 30 29  2  6  0  0  0
 30 33  1  0  0  0  0
 30 28  1  0  0  0  0
 31 30  1  0  0  0  0
 32 31  1  0  0  0  0
 34 41  1  6  0  0  0
 34 39  1  0  0  0  0
 35 33  1  1  0  0  0
 35 34  1  0  0  0  0
 36 35  1  0  0  0  0
 36 38  1  0  0  0  0
 37 36  1  0  0  0  0
 38 39  1  0  0  0  0
 39 40  1  0  0  0  0
 42 41  1  0  0  0  0
M  END
>  <minimizedAffinity>
-6.18021917

>  <minimizedRMSD>
1.75840926

$$$$
