
 OpenBabel03272504193D

 27 28  0  0  1  0  0  0  0  0999 V2000
   37.6330   30.4350   47.3410 O   0  0  0  0  0  0  0  0  0  0  0  0
   37.4360   31.0420   48.6990 P   0  0  2  0  0  0  0  0  0  0  0  0
   38.3640   30.1280   49.8120 O   0  0  0  0  0  0  0  0  0  0  0  0
   38.5790   29.2300   49.4590 H   0  0  0  0  0  0  0  0  0  0  0  0
   35.8040   30.9720   49.1490 O   0  0  0  0  0  0  0  0  0  0  0  0
   35.5240   29.6800   49.5340 C   0  0  0  0  0  0  0  0  0  0  0  0
   36.4240   29.0570   49.7470 H   0  0  0  0  0  0  0  0  0  0  0  0
   34.9790   29.7410   50.5210 H   0  0  0  0  0  0  0  0  0  0  0  0
   34.5870   28.9910   48.6020 C   0  0  0  0  0  0  0  0  0  0  0  0
   34.0390   29.7360   47.5700 C   0  0  0  0  0  0  0  0  0  0  0  0
   33.1640   29.1090   46.6920 C   0  0  0  0  0  0  0  0  0  0  0  0
   32.8880   27.7980   46.8880 N   0  0  0  0  0  0  0  0  0  0  0  0
   33.4340   27.0840   47.9040 C   0  0  0  0  0  0  0  0  0  0  0  0
   34.2880   27.6810   48.7660 N   0  0  0  0  0  0  0  0  0  0  0  0
   34.2460   30.7880   47.3940 H   0  0  0  0  0  0  0  0  0  0  0  0
   32.6880   29.5960   45.8640 H   0  0  0  0  0  0  0  0  0  0  0  0
   33.1990   26.0360   48.0410 H   0  0  0  0  0  0  0  0  0  0  0  0
   37.9700   32.6390   48.6830 O   0  0  0  0  0  0  0  0  0  0  0  0
   39.8920   33.5520   47.7340 C   0  0  2  0  0  3  0  0  0  0  0  0
   39.3400   32.7440   48.8920 C   0  0  1  0  0  3  0  0  0  0  0  0
   39.5960   33.7670   50.0060 C   0  0  0  0  0  3  0  0  0  0  0  0
   39.0860   33.5010   50.9480 H   0  0  0  0  0  0  0  0  0  0  0  0
   39.0490   34.9110   49.4570 O   0  0  0  0  0  0  0  0  0  0  0  0
   39.3760   34.9410   48.1180 C   0  0  0  0  0  3  0  0  0  0  0  0
   40.0820   35.7450   47.8710 H   0  0  0  0  0  0  0  0  0  0  0  0
   39.3250   33.0790   46.5650 O   0  0  0  0  0  0  0  0  0  0  0  0
   39.6540   33.6440   45.8130 H   0  0  0  0  0  0  0  0  0  0  0  0
  2  1  2  6  0  0  0
  2  5  1  0  0  0  0
  2  3  1  0  0  0  0
  4  3  1  0  0  0  0
  5  6  1  0  0  0  0
  6  7  1  0  0  0  0
  6  8  1  0  0  0  0
  9 14  1  0  0  0  0
  9  6  1  0  0  0  0
 10  9  2  0  0  0  0
 11 12  2  0  0  0  0
 11 10  1  0  0  0  0
 12 13  1  0  0  0  0
 13 17  1  0  0  0  0
 13 14  2  0  0  0  0
 15 10  1  0  0  0  0
 16 11  1  0  0  0  0
 18  2  1  0  0  0  0
 19 26  1  6  0  0  0
 19 24  1  0  0  0  0
 19 20  1  0  0  0  0
 20 18  1  6  0  0  0
 20 21  1  0  0  0  0
 21 22  1  0  0  0  0
 23 21  1  0  0  0  0
 24 23  1  0  0  0  0
 25 24  1  0  0  0  0
 27 26  1  0  0  0  0
M  END
>  <minimizedAffinity>
-2.51070905

>  <minimizedRMSD>
1.12188792

$$$$
