
 OpenBabel03272504393D

 42 44  0  0  1  0  0  0  0  0999 V2000
   37.5160   30.4920   48.5080 Cl  0  0  0  0  0  0  0  0  0  0  0  0
   36.3930   30.3060   47.1620 C   0  0  0  0  0  0  0  0  0  0  0  0
   36.7880   30.6720   45.9120 C   0  0  0  0  0  0  0  0  0  0  0  0
   35.9260   30.5330   44.8590 C   0  0  0  0  0  0  0  0  0  0  0  0
   34.6630   30.0180   45.0910 C   0  0  0  0  0  0  0  0  0  0  0  0
   34.3090   29.6590   46.3920 C   0  0  0  0  0  0  0  0  0  0  0  0
   35.1520   29.7900   47.4530 C   0  0  0  0  0  0  0  0  0  0  0  0
   36.2780   30.8390   43.8640 H   0  0  0  0  0  0  0  0  0  0  0  0
   34.0650   29.9520   44.1880 H   0  0  0  0  0  0  0  0  0  0  0  0
   33.3400   29.3010   46.3600 H   0  0  0  0  0  0  0  0  0  0  0  0
   39.7870   32.8300   46.0180 C   0  0  0  0  0  0  0  0  0  0  0  0
   40.6620   32.1140   45.1450 C   0  0  0  0  0  0  0  0  0  0  0  0
   40.1860   30.9260   44.5610 C   0  0  0  0  0  0  0  0  0  0  0  0
   38.9240   30.5120   44.8480 N   0  0  0  0  0  0  0  0  0  0  0  0
   38.1220   31.2140   45.6790 C   0  0  0  0  0  0  0  0  0  0  0  0
   38.5580   32.3530   46.2480 N   0  0  0  0  0  0  0  0  0  0  0  0
   40.1110   33.7310   46.4790 H   0  0  0  0  0  0  0  0  0  0  0  0
   41.6450   32.5190   44.9780 H   0  0  0  0  0  0  0  0  0  0  0  0
   41.0720   30.2480   43.7100 N   0  0  0  0  0  0  0  0  0  0  0  0
   42.0940   30.2970   43.8530 H   0  0  0  0  0  0  0  0  0  0  0  0
   40.6380   29.6910   42.9240 H   0  0  0  0  0  0  0  0  0  0  0  0
   34.7670   29.4180   48.7950 C   0  0  0  0  0  0  0  0  0  0  0  0
   34.1150   30.2540   49.1870 H   0  0  0  0  0  0  0  0  0  0  0  0
   35.6610   29.4610   49.4510 H   0  0  0  0  0  0  0  0  0  0  0  0
   34.0790   28.1510   49.0170 C   0  0  0  0  0  0  0  0  0  0  0  0
   34.1260   27.5350   48.0890 H   0  0  0  0  0  0  0  0  0  0  0  0
   34.5540   27.5310   49.8080 H   0  0  0  0  0  0  0  0  0  0  0  0
   32.7690   28.3340   49.3850 O   0  0  0  0  0  0  0  0  0  0  0  0
   32.4080   26.4930   47.5340 O   0  0  0  0  0  0  0  0  0  0  0  0
   31.7320   27.6210   48.2740 P   0  0  2  0  0  0  0  0  0  0  0  0
   31.2560   28.8700   47.1970 O   0  0  0  0  0  0  0  0  0  0  0  0
   30.9540   28.4890   46.3360 H   0  0  0  0  0  0  0  0  0  0  0  0
   30.3500   27.0340   48.9940 O   0  0  0  0  0  0  0  0  0  0  0  0
   28.8950   26.9800   50.8010 C   0  0  2  0  0  0  0  0  0  0  0  0
   29.8160   27.8720   49.9590 C   0  0  2  0  0  0  0  0  0  0  0  0
   28.7550   28.7250   49.2970 C   0  0  0  0  0  0  0  0  0  0  0  0
   28.3000   29.4300   50.0410 H   0  0  0  0  0  0  0  0  0  0  0  0
   27.7430   27.8350   48.9650 O   0  0  0  0  0  0  0  0  0  0  0  0
   27.8330   26.7160   49.7530 C   0  0  0  0  0  0  0  0  0  0  0  0
   26.9020   26.3350   50.1720 H   0  0  0  0  0  0  0  0  0  0  0  0
   28.3100   27.6670   51.8400 O   0  0  0  0  0  0  0  0  0  0  0  0
   28.9630   27.9740   52.5180 H   0  0  0  0  0  0  0  0  0  0  0  0
  2  7  1  0  0  0  0
  2  1  1  0  0  0  0
  3  2  2  0  0  0  0
  4  5  2  0  0  0  0
  4  3  1  0  0  0  0
  5  6  1  0  0  0  0
  6  7  2  0  0  0  0
  7 22  1  0  0  0  0
  8  4  1  0  0  0  0
  9  5  1  0  0  0  0
 10  6  1  0  0  0  0
 11 16  1  0  0  0  0
 11 17  1  0  0  0  0
 12 11  2  0  0  0  0
 13 14  2  0  0  0  0
 13 12  1  0  0  0  0
 14 15  1  0  0  0  0
 15  3  1  0  0  0  0
 15 16  2  0  0  0  0
 18 12  1  0  0  0  0
 19 20  1  0  0  0  0
 19 13  1  0  0  0  0
 21 19  1  0  0  0  0
 22 25  1  0  0  0  0
 22 23  1  0  0  0  0
 22 24  1  0  0  0  0
 25 28  1  0  0  0  0
 25 27  1  0  0  0  0
 26 25  1  0  0  0  0
 30 29  2  6  0  0  0
 30 33  1  0  0  0  0
 30 28  1  0  0  0  0
 31 30  1  0  0  0  0
 32 31  1  0  0  0  0
 34 41  1  1  0  0  0
 35 33  1  6  0  0  0
 35 34  1  0  0  0  0
 36 35  1  0  0  0  0
 36 37  1  0  0  0  0
 38 36  1  0  0  0  0
 38 39  1  0  0  0  0
 39 40  1  0  0  0  0
 39 34  1  0  0  0  0
 41 42  1  0  0  0  0
M  END
>  <minimizedAffinity>
-6.52043295

>  <minimizedRMSD>
1.69493711

$$$$
