
 OpenBabel03272504393D

 42 44  0  0  1  0  0  0  0  0999 V2000
   37.5740   30.4480   48.5120 Cl  0  0  0  0  0  0  0  0  0  0  0  0
   36.4250   30.2900   47.1840 C   0  0  0  0  0  0  0  0  0  0  0  0
   36.7980   30.6770   45.9330 C   0  0  0  0  0  0  0  0  0  0  0  0
   35.9160   30.5580   44.8940 C   0  0  0  0  0  0  0  0  0  0  0  0
   34.6560   30.0440   45.1410 C   0  0  0  0  0  0  0  0  0  0  0  0
   34.3240   29.6630   46.4420 C   0  0  0  0  0  0  0  0  0  0  0  0
   35.1880   29.7720   47.4890 C   0  0  0  0  0  0  0  0  0  0  0  0
   36.2500   30.8810   43.8990 H   0  0  0  0  0  0  0  0  0  0  0  0
   34.0410   29.9950   44.2490 H   0  0  0  0  0  0  0  0  0  0  0  0
   33.3540   29.3090   46.4210 H   0  0  0  0  0  0  0  0  0  0  0  0
   39.7950   32.8390   45.9980 C   0  0  0  0  0  0  0  0  0  0  0  0
   40.6630   32.1170   45.1240 C   0  0  0  0  0  0  0  0  0  0  0  0
   40.1850   30.9240   44.5530 C   0  0  0  0  0  0  0  0  0  0  0  0
   38.9250   30.5110   44.8540 N   0  0  0  0  0  0  0  0  0  0  0  0
   38.1290   31.2180   45.6860 C   0  0  0  0  0  0  0  0  0  0  0  0
   38.5680   32.3620   46.2430 N   0  0  0  0  0  0  0  0  0  0  0  0
   40.1220   33.7440   46.4490 H   0  0  0  0  0  0  0  0  0  0  0  0
   41.6440   32.5220   44.9460 H   0  0  0  0  0  0  0  0  0  0  0  0
   41.0640   30.2400   43.7000 N   0  0  0  0  0  0  0  0  0  0  0  0
   42.0870   30.2910   43.8340 H   0  0  0  0  0  0  0  0  0  0  0  0
   40.6250   29.6770   42.9220 H   0  0  0  0  0  0  0  0  0  0  0  0
   34.8270   29.3780   48.8320 C   0  0  0  0  0  0  0  0  0  0  0  0
   34.2440   30.2390   49.2750 H   0  0  0  0  0  0  0  0  0  0  0  0
   35.7430   29.3410   49.4550 H   0  0  0  0  0  0  0  0  0  0  0  0
   34.0660   28.1500   49.0370 C   0  0  0  0  0  0  0  0  0  0  0  0
   34.0390   27.5670   48.0860 H   0  0  0  0  0  0  0  0  0  0  0  0
   34.5290   27.4720   49.7860 H   0  0  0  0  0  0  0  0  0  0  0  0
   32.7860   28.4020   49.4620 O   0  0  0  0  0  0  0  0  0  0  0  0
   32.2430   26.4100   47.8230 O   0  0  0  0  0  0  0  0  0  0  0  0
   31.6660   27.6490   48.4630 P   0  0  2  0  0  0  0  0  0  0  0  0
   31.2280   28.8110   47.2780 O   0  0  0  0  0  0  0  0  0  0  0  0
   30.8720   28.3650   46.4700 H   0  0  0  0  0  0  0  0  0  0  0  0
   30.2780   27.2290   49.2820 O   0  0  0  0  0  0  0  0  0  0  0  0
   28.6940   28.7090   50.1070 C   0  0  2  0  0  3  0  0  0  0  0  0
   29.1500   27.9210   48.8730 C   0  0  2  0  0  3  0  0  0  0  0  0
   28.0030   26.9360   48.8000 C   0  0  0  0  0  3  0  0  0  0  0  0
   27.0660   27.4510   48.4600 H   0  0  0  0  0  0  0  0  0  0  0  0
   27.7670   26.5710   50.1190 O   0  0  0  0  0  0  0  0  0  0  0  0
   28.2530   27.5380   50.9610 C   0  0  0  0  0  3  0  0  0  0  0  0
   27.6150   27.8290   51.7950 H   0  0  0  0  0  0  0  0  0  0  0  0
   27.5890   29.4880   49.8470 O   0  0  0  0  0  0  0  0  0  0  0  0
   27.7700   30.2170   49.2030 H   0  0  0  0  0  0  0  0  0  0  0  0
  2  7  1  0  0  0  0
  2  1  1  0  0  0  0
  3  2  2  0  0  0  0
  4  5  2  0  0  0  0
  4  3  1  0  0  0  0
  5  6  1  0  0  0  0
  6  7  2  0  0  0  0
  7 22  1  0  0  0  0
  8  4  1  0  0  0  0
  9  5  1  0  0  0  0
 10  6  1  0  0  0  0
 11 16  1  0  0  0  0
 11 17  1  0  0  0  0
 12 11  2  0  0  0  0
 13 14  2  0  0  0  0
 13 12  1  0  0  0  0
 14 15  1  0  0  0  0
 15  3  1  0  0  0  0
 15 16  2  0  0  0  0
 18 12  1  0  0  0  0
 19 20  1  0  0  0  0
 19 13  1  0  0  0  0
 21 19  1  0  0  0  0
 22 25  1  0  0  0  0
 22 23  1  0  0  0  0
 22 24  1  0  0  0  0
 25 28  1  0  0  0  0
 25 27  1  0  0  0  0
 26 25  1  0  0  0  0
 30 29  2  6  0  0  0
 30 33  1  0  0  0  0
 30 28  1  0  0  0  0
 31 30  1  0  0  0  0
 32 31  1  0  0  0  0
 34 41  1  6  0  0  0
 34 39  1  0  0  0  0
 35 33  1  1  0  0  0
 35 34  1  0  0  0  0
 36 35  1  0  0  0  0
 36 38  1  0  0  0  0
 37 36  1  0  0  0  0
 38 39  1  0  0  0  0
 39 40  1  0  0  0  0
 42 41  1  0  0  0  0
M  END
>  <minimizedAffinity>
-6.18994761

>  <minimizedRMSD>
1.92695355

$$$$
