
 OpenBabel03262521423D

 30 32  0  0  1  0  0  0  0  0999 V2000
   38.8650   31.5640   47.4550 C   0  0  1  0  0  0  0  0  0  0  0  0
   38.0400   30.2950   47.2050 C   0  0  2  0  0  0  0  0  0  0  0  0
   37.6410   30.6350   45.7860 C   0  0  0  0  0  0  0  0  0  0  0  0
   38.7970   31.1030   45.1790 O   0  0  0  0  0  0  0  0  0  0  0  0
   39.6630   31.5490   46.1380 C   0  0  0  0  0  0  0  0  0  0  0  0
   39.5360   31.4020   48.3140 H   0  0  0  0  0  0  0  0  0  0  0  0
   38.7370   29.4410   47.2090 H   0  0  0  0  0  0  0  0  0  0  0  0
   37.2230   29.7510   45.2650 H   0  0  0  0  0  0  0  0  0  0  0  0
   36.8960   31.4430   45.7450 H   0  0  0  0  0  0  0  0  0  0  0  0
   39.9880   32.5880   45.9040 H   0  0  0  0  0  0  0  0  0  0  0  0
   40.5720   30.9020   46.2450 H   0  0  0  0  0  0  0  0  0  0  0  0
   36.9150   30.1730   48.1390 C   0  0  0  0  0  0  0  0  0  0  0  0
   37.1350   29.7540   49.4590 C   0  0  0  0  0  0  0  0  0  0  0  0
   36.0160   29.6390   50.2890 C   0  0  0  0  0  0  0  0  0  0  0  0
   34.7820   29.9360   49.7750 N   0  0  0  0  0  0  0  0  0  0  0  0
   34.6040   30.3420   48.4790 C   0  0  0  0  0  0  0  0  0  0  0  0
   35.6850   30.4560   47.6720 N   0  0  0  0  0  0  0  0  0  0  0  0
   38.1150   29.5280   49.8350 H   0  0  0  0  0  0  0  0  0  0  0  0
   36.0930   29.3240   51.3220 H   0  0  0  0  0  0  0  0  0  0  0  0
   33.5910   30.5530   48.1650 H   0  0  0  0  0  0  0  0  0  0  0  0
   38.1140   32.6880   47.4520 O   0  0  0  0  0  0  0  0  0  0  0  0
   39.8060   33.9350   48.5110 C   0  0  2  0  0  3  0  0  0  0  0  0
   38.3210   33.5990   48.4500 C   0  0  2  0  0  3  0  0  0  0  0  0
   38.1350   33.0250   49.8390 C   0  0  0  0  0  3  0  0  0  0  0  0
   37.0960   32.9800   50.1600 H   0  0  0  0  0  0  0  0  0  0  0  0
   38.7980   33.9800   50.6170 O   0  0  0  0  0  0  0  0  0  0  0  0
   39.9870   34.2700   49.9730 C   0  0  0  0  0  3  0  0  0  0  0  0
   40.2720   35.3250   50.1240 H   0  0  0  0  0  0  0  0  0  0  0  0
   40.0730   35.0370   47.7260 O   0  0  0  0  0  0  0  0  0  0  0  0
   41.0220   34.9720   47.4330 H   0  0  0  0  0  0  0  0  0  0  0  0
  1  6  1  1  0  0  0
  2  7  1  1  0  0  0
  2  1  1  0  0  0  0
  2 12  1  0  0  0  0
  3  2  1  0  0  0  0
  4  3  1  0  0  0  0
  4  5  1  0  0  0  0
  5 11  1  0  0  0  0
  5  1  1  0  0  0  0
  8  3  1  0  0  0  0
  9  3  1  0  0  0  0
 10  5  1  0  0  0  0
 12 13  1  0  0  0  0
 13 18  1  0  0  0  0
 13 14  2  0  0  0  0
 14 19  1  0  0  0  0
 15 14  1  0  0  0  0
 16 15  2  0  0  0  0
 17 12  2  0  0  0  0
 17 16  1  0  0  0  0
 20 16  1  0  0  0  0
 21  1  1  0  0  0  0
 22 29  1  6  0  0  0
 22 27  1  0  0  0  0
 23 21  1  6  0  0  0
 23 22  1  0  0  0  0
 23 24  1  0  0  0  0
 24 25  1  0  0  0  0
 24 26  1  0  0  0  0
 27 28  1  0  0  0  0
 27 26  1  0  0  0  0
 30 29  1  0  0  0  0
M  END
>  <minimizedAffinity>
-3.0122354

>  <minimizedRMSD>
1.13925195

$$$$
