
 OpenBabel03272501013D

 34 36  0  0  1  0  0  0  0  0999 V2000
   36.2680   29.7890   45.2630 F   0  0  0  0  0  0  0  0  0  0  0  0
   35.0340   30.2400   44.9390 C   0  0  0  0  0  0  0  0  0  0  0  0
   34.7740   30.9270   43.7650 C   0  0  0  0  0  0  0  0  0  0  0  0
   33.4920   31.3510   43.5150 C   0  0  0  0  0  0  0  0  0  0  0  0
   32.4360   31.1240   44.3830 C   0  0  0  0  0  0  0  0  0  0  0  0
   32.7220   30.4330   45.5530 C   0  0  0  0  0  0  0  0  0  0  0  0
   34.0120   29.9930   45.8320 C   0  0  0  0  0  0  0  0  0  0  0  0
   33.3590   31.8860   42.5710 H   0  0  0  0  0  0  0  0  0  0  0  0
   31.4650   31.4780   44.1320 H   0  0  0  0  0  0  0  0  0  0  0  0
   31.9340   30.2340   46.2560 H   0  0  0  0  0  0  0  0  0  0  0  0
   37.5500   32.6560   42.1180 C   0  0  0  0  0  0  0  0  0  0  0  0
   37.9680   31.7620   41.1350 C   0  0  0  0  0  0  0  0  0  0  0  0
   37.2880   30.5590   41.0430 C   0  0  0  0  0  0  0  0  0  0  0  0
   36.2540   30.2690   41.8820 N   0  0  0  0  0  0  0  0  0  0  0  0
   35.8790   31.1790   42.8320 C   0  0  0  0  0  0  0  0  0  0  0  0
   36.5310   32.3580   42.9380 N   0  0  0  0  0  0  0  0  0  0  0  0
   38.0840   33.5940   42.1880 H   0  0  0  0  0  0  0  0  0  0  0  0
   38.7870   31.9340   40.4340 H   0  0  0  0  0  0  0  0  0  0  0  0
   37.5770   29.8250   40.2880 H   0  0  0  0  0  0  0  0  0  0  0  0
   34.2650   29.3190   46.9840 O   0  0  0  0  0  0  0  0  0  0  0  0
   35.6360   28.6670   49.0780 O   0  0  0  0  0  0  0  0  0  0  0  0
   34.9640   29.8550   48.4000 P   0  0  2  0  0  0  0  0  0  0  0  0
   33.8910   30.5100   49.5150 O   0  0  0  0  0  0  0  0  0  0  0  0
   32.9730   30.4410   49.1350 H   0  0  0  0  0  0  0  0  0  0  0  0
   36.2040   30.9960   48.0850 O   0  0  0  0  0  0  0  0  0  0  0  0
   38.1710   30.7140   49.3210 C   0  0  2  0  0  3  0  0  0  0  0  0
   36.8390   31.4210   49.2220 C   0  0  1  0  0  3  0  0  0  0  0  0
   37.2960   32.8560   49.1530 C   0  0  0  0  0  3  0  0  0  0  0  0
   37.4080   33.2560   48.1470 H   0  0  0  0  0  0  0  0  0  0  0  0
   38.4800   32.9600   49.8440 O   0  0  0  0  0  0  0  0  0  0  0  0
   38.9270   31.7020   50.2000 C   0  0  0  0  0  3  0  0  0  0  0  0
   38.6500   31.5040   51.2400 H   0  0  0  0  0  0  0  0  0  0  0  0
   38.8190   30.7070   48.0890 O   0  0  0  0  0  0  0  0  0  0  0  0
   39.1110   29.8130   47.7890 H   0  0  0  0  0  0  0  0  0  0  0  0
  2  1  1  0  0  0  0
  2  7  1  0  0  0  0
  3  2  2  0  0  0  0
  4  3  1  0  0  0  0
  4  5  2  0  0  0  0
  5  6  1  0  0  0  0
  6  7  2  0  0  0  0
  6 10  1  0  0  0  0
  7 20  1  0  0  0  0
  8  4  1  0  0  0  0
  9  5  1  0  0  0  0
 11 17  1  0  0  0  0
 11 16  1  0  0  0  0
 12 11  2  0  0  0  0
 13 12  1  0  0  0  0
 13 14  2  0  0  0  0
 14 15  1  0  0  0  0
 15 16  2  0  0  0  0
 15  3  1  0  0  0  0
 18 12  1  0  0  0  0
 19 13  1  0  0  0  0
 20 22  1  0  0  0  0
 22 21  2  1  0  0  0
 22 23  1  0  0  0  0
 24 23  1  0  0  0  0
 25 22  1  0  0  0  0
 26 33  1  6  0  0  0
 26 31  1  0  0  0  0
 27 25  1  6  0  0  0
 27 26  1  0  0  0  0
 28 27  1  0  0  0  0
 28 30  1  0  0  0  0
 29 28  1  0  0  0  0
 30 31  1  0  0  0  0
 31 32  1  0  0  0  0
 34 33  1  0  0  0  0
M  END
>  <minimizedAffinity>
-4.06690788

>  <minimizedRMSD>
3.06486726

$$$$
