
 OpenBabel03262521423D

 30 32  0  0  1  0  0  0  0  0999 V2000
   38.8550   31.5390   47.4400 C   0  0  1  0  0  0  0  0  0  0  0  0
   38.0300   30.2680   47.2010 C   0  0  2  0  0  0  0  0  0  0  0  0
   37.6350   30.5910   45.7780 C   0  0  0  0  0  0  0  0  0  0  0  0
   38.7930   31.0530   45.1690 O   0  0  0  0  0  0  0  0  0  0  0  0
   39.6560   31.5100   46.1250 C   0  0  0  0  0  0  0  0  0  0  0  0
   39.5230   31.3860   48.3030 H   0  0  0  0  0  0  0  0  0  0  0  0
   38.7270   29.4140   47.2160 H   0  0  0  0  0  0  0  0  0  0  0  0
   37.2180   29.7020   45.2650 H   0  0  0  0  0  0  0  0  0  0  0  0
   36.8900   31.3990   45.7260 H   0  0  0  0  0  0  0  0  0  0  0  0
   39.9810   32.5460   45.8810 H   0  0  0  0  0  0  0  0  0  0  0  0
   40.5640   30.8640   46.2420 H   0  0  0  0  0  0  0  0  0  0  0  0
   36.9030   30.1550   48.1330 C   0  0  0  0  0  0  0  0  0  0  0  0
   37.1170   29.7380   49.4550 C   0  0  0  0  0  0  0  0  0  0  0  0
   35.9960   29.6320   50.2830 C   0  0  0  0  0  0  0  0  0  0  0  0
   34.7650   29.9360   49.7660 N   0  0  0  0  0  0  0  0  0  0  0  0
   34.5920   30.3410   48.4690 C   0  0  0  0  0  0  0  0  0  0  0  0
   35.6760   30.4450   47.6630 N   0  0  0  0  0  0  0  0  0  0  0  0
   38.0950   29.5060   49.8330 H   0  0  0  0  0  0  0  0  0  0  0  0
   36.0690   29.3180   51.3160 H   0  0  0  0  0  0  0  0  0  0  0  0
   33.5820   30.5580   48.1520 H   0  0  0  0  0  0  0  0  0  0  0  0
   38.1030   32.6630   47.4220 O   0  0  0  0  0  0  0  0  0  0  0  0
   39.7870   33.9010   48.5040 C   0  0  2  0  0  3  0  0  0  0  0  0
   38.3010   33.5800   48.4180 C   0  0  2  0  0  3  0  0  0  0  0  0
   38.0820   33.0200   49.8070 C   0  0  0  0  0  3  0  0  0  0  0  0
   37.0370   32.9880   50.1090 H   0  0  0  0  0  0  0  0  0  0  0  0
   38.7400   33.9750   50.5890 O   0  0  0  0  0  0  0  0  0  0  0  0
   39.9430   34.2470   49.9660 C   0  0  0  0  0  3  0  0  0  0  0  0
   40.2360   35.3000   50.1150 H   0  0  0  0  0  0  0  0  0  0  0  0
   40.0800   34.9950   47.7140 O   0  0  0  0  0  0  0  0  0  0  0  0
   41.0340   34.9180   47.4410 H   0  0  0  0  0  0  0  0  0  0  0  0
  1  6  1  1  0  0  0
  2  7  1  1  0  0  0
  2  1  1  0  0  0  0
  2 12  1  0  0  0  0
  3  2  1  0  0  0  0
  4  3  1  0  0  0  0
  4  5  1  0  0  0  0
  5 11  1  0  0  0  0
  5  1  1  0  0  0  0
  8  3  1  0  0  0  0
  9  3  1  0  0  0  0
 10  5  1  0  0  0  0
 12 13  1  0  0  0  0
 13 18  1  0  0  0  0
 13 14  2  0  0  0  0
 14 19  1  0  0  0  0
 15 14  1  0  0  0  0
 16 15  2  0  0  0  0
 17 12  2  0  0  0  0
 17 16  1  0  0  0  0
 20 16  1  0  0  0  0
 21  1  1  0  0  0  0
 22 29  1  6  0  0  0
 22 27  1  0  0  0  0
 23 21  1  6  0  0  0
 23 22  1  0  0  0  0
 23 24  1  0  0  0  0
 24 25  1  0  0  0  0
 24 26  1  0  0  0  0
 27 28  1  0  0  0  0
 27 26  1  0  0  0  0
 30 29  1  0  0  0  0
M  END
>  <minimizedAffinity>
-3.01566267

>  <minimizedRMSD>
1.28774178

$$$$
