
 OpenBabel03272500043D

 29 31  0  0  1  0  0  0  0  0999 V2000
   35.8400   29.0830   49.3550 C   0  0  0  0  0  0  0  0  0  0  0  0
   35.6910   30.2330   48.5360 C   0  0  0  0  0  0  0  0  0  0  0  0
   34.5720   30.3120   47.7340 C   0  0  0  0  0  0  0  0  0  0  0  0
   33.6760   29.2890   47.7690 N   0  0  0  0  0  0  0  0  0  0  0  0
   33.8280   28.2100   48.5470 C   0  0  0  0  0  0  0  0  0  0  0  0
   34.9170   28.1040   49.3460 N   0  0  0  0  0  0  0  0  0  0  0  0
   36.7240   29.0200   49.9900 H   0  0  0  0  0  0  0  0  0  0  0  0
   34.4700   31.1920   47.1140 H   0  0  0  0  0  0  0  0  0  0  0  0
   36.7110   31.2200   48.6050 N   0  0  0  0  0  0  0  0  0  0  0  0
   36.8590   32.0170   49.6830 C   0  0  0  0  0  0  0  0  0  0  0  0
   37.8830   32.9730   49.6950 C   0  0  0  0  0  0  0  0  0  0  0  0
   38.6560   32.9990   48.5710 C   0  0  0  0  0  0  0  0  0  0  0  0
   39.5750   33.8720   48.6070 O   0  0  0  0  0  0  0  0  0  0  0  0
   38.5300   32.2220   47.4920 N   0  0  0  0  0  0  0  0  0  0  0  0
   37.5270   31.3200   47.5370 C   0  0  0  0  0  0  0  0  0  0  0  0
   37.3980   30.5760   46.5150 O   0  0  0  0  0  0  0  0  0  0  0  0
   36.1880   31.9250   50.5460 H   0  0  0  0  0  0  0  0  0  0  0  0
   38.0260   33.6260   50.5440 H   0  0  0  0  0  0  0  0  0  0  0  0
   39.1720   32.3120   46.6700 H   0  0  0  0  0  0  0  0  0  0  0  0
   32.8850   27.1920   48.5480 O   0  0  0  0  0  0  0  0  0  0  0  0
   30.5960   27.6920   47.9560 C   0  0  2  0  0  3  0  0  0  0  0  0
   31.9270   27.1040   47.5370 C   0  0  2  0  0  3  0  0  0  0  0  0
   31.5380   25.6960   47.1990 C   0  0  0  0  0  3  0  0  0  0  0  0
   32.2420   25.2200   46.4770 H   0  0  0  0  0  0  0  0  0  0  0  0
   30.2520   25.7470   46.6840 O   0  0  0  0  0  0  0  0  0  0  0  0
   29.6030   26.8110   47.2850 C   0  0  0  0  0  3  0  0  0  0  0  0
   28.8280   26.4520   48.0050 H   0  0  0  0  0  0  0  0  0  0  0  0
   30.4850   29.0200   47.5700 O   0  0  0  0  0  0  0  0  0  0  0  0
   29.5330   29.2750   47.6670 H   0  0  0  0  0  0  0  0  0  0  0  0
  1  7  1  0  0  0  0
  2  9  1  0  0  0  0
  2  1  2  0  0  0  0
  3  4  2  0  0  0  0
  3  2  1  0  0  0  0
  4  5  1  0  0  0  0
  5 20  1  0  0  0  0
  5  6  2  0  0  0  0
  6  1  1  0  0  0  0
  8  3  1  0  0  0  0
  9 10  1  0  0  0  0
 10 11  2  0  0  0  0
 10 17  1  0  0  0  0
 11 18  1  0  0  0  0
 12 13  2  0  0  0  0
 12 11  1  0  0  0  0
 14 15  1  0  0  0  0
 14 12  1  0  0  0  0
 15  9  1  0  0  0  0
 16 15  2  0  0  0  0
 19 14  1  0  0  0  0
 21 28  1  6  0  0  0
 22 21  1  0  0  0  0
 22 20  1  1  0  0  0
 23 22  1  0  0  0  0
 24 23  1  0  0  0  0
 25 23  1  0  0  0  0
 25 26  1  0  0  0  0
 26 21  1  0  0  0  0
 26 27  1  0  0  0  0
 28 29  1  0  0  0  0
M  END
>  <minimizedAffinity>
-5.54346895

>  <minimizedRMSD>
2.54686332

$$$$
