
 OpenBabel03272502583D

 34 36  0  0  1  0  0  0  0  0999 V2000
   37.0900   30.5310   48.4560 N   0  0  0  0  0  0  0  0  0  0  0  0
   38.0700   30.1660   49.4500 C   0  0  0  0  0  0  0  0  0  0  0  0
   38.6100   31.2280   50.2980 C   0  0  0  0  0  0  0  0  0  0  0  0
   38.6040   32.6130   49.7940 C   0  0  0  0  0  0  0  0  0  0  0  0
   37.6130   32.8750   48.6790 C   0  0  0  0  0  0  0  0  0  0  0  0
   37.5970   31.6860   47.7410 C   0  0  1  0  0  0  0  0  0  0  0  0
   37.6270   29.3360   50.0510 H   0  0  0  0  0  0  0  0  0  0  0  0
   38.9140   29.6910   48.8900 H   0  0  0  0  0  0  0  0  0  0  0  0
   38.0550   31.1930   51.2730 H   0  0  0  0  0  0  0  0  0  0  0  0
   39.6590   30.9730   50.5900 H   0  0  0  0  0  0  0  0  0  0  0  0
   38.3360   33.3290   50.5980 H   0  0  0  0  0  0  0  0  0  0  0  0
   39.6090   32.9460   49.4410 H   0  0  0  0  0  0  0  0  0  0  0  0
   37.9610   33.7800   48.1430 H   0  0  0  0  0  0  0  0  0  0  0  0
   36.5940   33.0840   49.0270 H   0  0  0  0  0  0  0  0  0  0  0  0
   37.0330   31.8990   46.8200 H   0  0  0  0  0  0  0  0  0  0  0  0
   35.8540   29.8660   48.2330 C   0  0  0  0  0  0  0  0  0  0  0  0
   34.9790   30.1690   47.1780 C   0  0  0  0  0  0  0  0  0  0  0  0
   33.7980   29.4430   47.0700 C   0  0  0  0  0  0  0  0  0  0  0  0
   33.5660   28.4740   48.0040 N   0  0  0  0  0  0  0  0  0  0  0  0
   34.4260   28.2160   48.9950 C   0  0  0  0  0  0  0  0  0  0  0  0
   35.5720   28.9100   49.1130 N   0  0  0  0  0  0  0  0  0  0  0  0
   35.2580   30.9430   46.5070 H   0  0  0  0  0  0  0  0  0  0  0  0
   33.1170   29.6620   46.2690 H   0  0  0  0  0  0  0  0  0  0  0  0
   34.1490   27.4190   49.6960 H   0  0  0  0  0  0  0  0  0  0  0  0
   38.9370   31.5070   47.3530 O   0  0  0  0  0  0  0  0  0  0  0  0
   40.5210   31.9170   45.6080 C   0  0  2  0  0  0  0  0  0  0  0  0
   39.2590   32.3790   46.2990 C   0  0  1  0  0  0  0  0  0  0  0  0
   38.2280   32.2950   45.2190 C   0  0  0  0  0  0  0  0  0  0  0  0
   37.2860   31.8430   45.6430 H   0  0  0  0  0  0  0  0  0  0  0  0
   38.7560   31.4650   44.2330 O   0  0  0  0  0  0  0  0  0  0  0  0
   40.0780   31.8540   44.1560 C   0  0  0  0  0  0  0  0  0  0  0  0
   40.7400   31.1120   43.6650 H   0  0  0  0  0  0  0  0  0  0  0  0
   40.9090   30.6580   46.0180 O   0  0  0  0  0  0  0  0  0  0  0  0
   41.8870   30.5870   46.2240 H   0  0  0  0  0  0  0  0  0  0  0  0
  1  2  1  0  0  0  0
  2  7  1  0  0  0  0
  2  3  1  0  0  0  0
  3 10  1  0  0  0  0
  3  9  1  0  0  0  0
  4  3  1  0  0  0  0
  4 11  1  0  0  0  0
  5 14  1  0  0  0  0
  5  4  1  0  0  0  0
  6 15  1  6  0  0  0
  6  1  1  0  0  0  0
  6  5  1  0  0  0  0
  8  2  1  0  0  0  0
 12  4  1  0  0  0  0
 13  5  1  0  0  0  0
 16  1  1  0  0  0  0
 16 21  1  0  0  0  0
 17 16  2  0  0  0  0
 18 17  1  0  0  0  0
 18 19  2  0  0  0  0
 19 20  1  0  0  0  0
 20 21  2  0  0  0  0
 20 24  1  0  0  0  0
 22 17  1  0  0  0  0
 23 18  1  0  0  0  0
 25  6  1  0  0  0  0
 26 33  1  1  0  0  0
 26 27  1  0  0  0  0
 27 25  1  1  0  0  0
 28 29  1  0  0  0  0
 28 27  1  0  0  0  0
 30 28  1  0  0  0  0
 31 30  1  0  0  0  0
 31 26  1  0  0  0  0
 32 31  1  0  0  0  0
 33 34  1  0  0  0  0
M  END
>  <minimizedAffinity>
-5.54990244

>  <minimizedRMSD>
2.16353035

$$$$
