
 OpenBabel03272509313D

 34 36  0  0  1  0  0  0  0  0999 V2000
   36.5190   30.8160   48.8760 C   0  0  2  0  0  0  0  0  0  0  0  0
   37.4180   31.5630   49.8110 C   0  0  0  0  0  0  0  0  0  0  0  0
   38.1020   30.6640   50.8160 C   0  0  0  0  0  0  0  0  0  0  0  0
   37.0840   29.8490   51.6060 C   0  0  0  0  0  0  0  0  0  0  0  0
   35.8770   29.4320   50.8050 C   0  0  0  0  0  0  0  0  0  0  0  0
   36.2730   29.4160   49.3180 C   0  0  1  0  0  0  0  0  0  0  0  0
   35.4970   31.2750   48.7560 H   0  0  0  0  0  0  0  0  0  0  0  0
   36.7040   32.1840   50.4490 H   0  0  0  0  0  0  0  0  0  0  0  0
   38.0990   32.2770   49.3890 H   0  0  0  0  0  0  0  0  0  0  0  0
   38.8880   30.0280   50.3950 H   0  0  0  0  0  0  0  0  0  0  0  0
   38.5770   31.3470   51.5500 H   0  0  0  0  0  0  0  0  0  0  0  0
   36.8170   30.3100   52.5700 H   0  0  0  0  0  0  0  0  0  0  0  0
   37.6170   28.8970   51.8770 H   0  0  0  0  0  0  0  0  0  0  0  0
   35.5270   28.4200   51.0910 H   0  0  0  0  0  0  0  0  0  0  0  0
   35.0800   30.1590   50.9840 H   0  0  0  0  0  0  0  0  0  0  0  0
   37.1690   28.8480   49.3640 H   0  0  0  0  0  0  0  0  0  0  0  0
   37.0740   30.7950   47.4950 C   0  0  0  0  0  0  0  0  0  0  0  0
   38.4520   31.0440   47.3940 C   0  0  0  0  0  0  0  0  0  0  0  0
   38.9910   31.0270   46.1030 C   0  0  0  0  0  0  0  0  0  0  0  0
   38.1650   30.7720   45.0350 N   0  0  0  0  0  0  0  0  0  0  0  0
   36.8220   30.5340   45.1940 C   0  0  0  0  0  0  0  0  0  0  0  0
   36.2950   30.5500   46.4320 N   0  0  0  0  0  0  0  0  0  0  0  0
   39.1950   31.2440   48.1380 H   0  0  0  0  0  0  0  0  0  0  0  0
   40.0240   31.1980   45.8630 H   0  0  0  0  0  0  0  0  0  0  0  0
   36.2390   30.3420   44.3160 H   0  0  0  0  0  0  0  0  0  0  0  0
   34.0510   28.3530   48.7140 C   0  0  0  0  0  0  0  0  0  0  0  0
   33.2560   28.6900   49.6360 O   0  0  0  0  0  0  0  0  0  0  0  0
   35.4160   28.6580   48.4830 N   0  0  0  0  0  0  0  0  0  0  0  0
   35.7140   28.2170   47.5540 H   0  0  0  0  0  0  0  0  0  0  0  0
   33.2070   27.4960   47.8330 C   0  0  0  0  0  3  0  0  0  0  0  0
   32.9350   28.1210   46.5080 C   0  0  0  0  0  2  0  0  0  0  0  0
   33.4680   27.1310   45.4790 C   0  0  0  0  0  2  0  0  0  0  0  0
   33.2400   25.8140   46.1850 C   0  0  0  0  0  2  0  0  0  0  0  0
   33.8240   26.1420   47.5650 C   0  0  0  0  0  2  0  0  0  0  0  0
  1  7  1  6  0  0  0
  1  6  1  0  0  0  0
  1  2  1  0  0  0  0
  2  8  1  0  0  0  0
  2  3  1  0  0  0  0
  3 11  1  0  0  0  0
  3  4  1  0  0  0  0
  4 13  1  0  0  0  0
  4 12  1  0  0  0  0
  5 15  1  0  0  0  0
  5 14  1  0  0  0  0
  5  4  1  0  0  0  0
  6 16  1  6  0  0  0
  6  5  1  0  0  0  0
  9  2  1  0  0  0  0
 10  3  1  0  0  0  0
 17  1  1  0  0  0  0
 18 17  1  0  0  0  0
 18 23  1  0  0  0  0
 19 18  2  0  0  0  0
 20 21  2  0  0  0  0
 20 19  1  0  0  0  0
 21 22  1  0  0  0  0
 22 17  2  0  0  0  0
 24 19  1  0  0  0  0
 25 21  1  0  0  0  0
 26 27  2  0  0  0  0
 28 26  1  0  0  0  0
 28  6  1  0  0  0  0
 29 28  1  0  0  0  0
 30 26  1  0  0  0  0
 31 30  1  0  0  0  0
 32 33  1  0  0  0  0
 32 31  1  0  0  0  0
 33 34  1  0  0  0  0
 34 30  1  0  0  0  0
M  END
>  <minimizedAffinity>
-5.87708616

>  <minimizedRMSD>
1.25943041

$$$$
