
 OpenBabel03272503503D

 33 35  0  0  1  0  0  0  0  0999 V2000
   33.2020   27.3060   45.8610 C   0  0  1  0  0  0  0  0  0  0  0  0
   33.9150   27.4610   47.2230 C   0  0  2  0  0  0  0  0  0  0  0  0
   33.7560   26.2370   47.7950 O   0  0  0  0  0  0  0  0  0  0  0  0
   34.0730   25.3410   46.7890 C   0  0  0  0  0  0  0  0  0  0  0  0
   33.5740   25.9150   45.4830 C   0  0  2  0  0  0  0  0  0  0  0  0
   33.6460   28.0300   45.1450 H   0  0  0  0  0  0  0  0  0  0  0  0
   34.9560   27.7550   46.9620 H   0  0  0  0  0  0  0  0  0  0  0  0
   35.1460   25.0630   46.7730 H   0  0  0  0  0  0  0  0  0  0  0  0
   33.5070   24.4080   47.0000 H   0  0  0  0  0  0  0  0  0  0  0  0
   32.7540   25.3070   45.0530 H   0  0  0  0  0  0  0  0  0  0  0  0
   31.8440   27.5220   45.9970 O   0  0  0  0  0  0  0  0  0  0  0  0
   31.5240   28.1010   45.2440 H   0  0  0  0  0  0  0  0  0  0  0  0
   33.2880   28.5140   47.8200 O   0  0  0  0  0  0  0  0  0  0  0  0
   35.3430   29.8100   46.7850 O   0  0  0  0  0  0  0  0  0  0  0  0
   34.0810   29.9860   47.6160 P   0  0  1  0  0  0  0  0  0  0  0  0
   33.1090   31.0530   46.7300 O   0  0  0  0  0  0  0  0  0  0  0  0
   32.2740   31.2450   47.2210 H   0  0  0  0  0  0  0  0  0  0  0  0
   34.3900   30.6040   49.1730 O   0  0  0  0  0  0  0  0  0  0  0  0
   35.6180   30.4940   49.7860 C   0  0  0  0  0  0  0  0  0  0  0  0
   35.9540   29.4770   50.7080 C   0  0  0  0  0  0  0  0  0  0  0  0
   37.2370   29.4930   51.2480 C   0  0  0  0  0  0  0  0  0  0  0  0
   38.0960   30.4810   50.8610 N   0  0  0  0  0  0  0  0  0  0  0  0
   37.7390   31.4460   49.9700 C   0  0  0  0  0  0  0  0  0  0  0  0
   36.4890   31.4490   49.4300 N   0  0  0  0  0  0  0  0  0  0  0  0
   35.1940   28.7440   50.9410 H   0  0  0  0  0  0  0  0  0  0  0  0
   37.5050   28.7230   51.9510 H   0  0  0  0  0  0  0  0  0  0  0  0
   38.4580   32.2020   49.7010 H   0  0  0  0  0  0  0  0  0  0  0  0
   34.6120   25.9300   44.5510 O   0  0  0  0  0  0  0  0  0  0  0  0
   34.2510   25.3740   43.3300 C   0  0  0  0  0  3  0  0  0  0  0  0
   35.1280   25.9180   42.2360 C   0  0  0  0  0  2  0  0  0  0  0  0
   35.8630   24.7640   41.6340 C   0  0  0  0  0  2  0  0  0  0  0  0
   35.2370   23.4930   42.1420 C   0  0  0  0  0  2  0  0  0  0  0  0
   34.3860   23.8760   43.3200 C   0  0  0  0  0  2  0  0  0  0  0  0
  1  6  1  6  0  0  0
  1 11  1  0  0  0  0
  1  2  1  0  0  0  0
  2  7  1  6  0  0  0
  2  3  1  0  0  0  0
  2 13  1  0  0  0  0
  4  9  1  0  0  0  0
  4  3  1  0  0  0  0
  5 10  1  6  0  0  0
  5  1  1  0  0  0  0
  5  4  1  0  0  0  0
  8  4  1  0  0  0  0
 12 11  1  0  0  0  0
 15 14  2  6  0  0  0
 15 13  1  0  0  0  0
 15 18  1  0  0  0  0
 16 17  1  0  0  0  0
 16 15  1  0  0  0  0
 18 19  1  0  0  0  0
 19 20  1  0  0  0  0
 20 25  1  0  0  0  0
 20 21  2  0  0  0  0
 21 26  1  0  0  0  0
 22 21  1  0  0  0  0
 23 22  2  0  0  0  0
 24 19  2  0  0  0  0
 24 23  1  0  0  0  0
 27 23  1  0  0  0  0
 28  5  1  0  0  0  0
 29 28  1  0  0  0  0
 30 29  1  0  0  0  0
 31 32  1  0  0  0  0
 31 30  1  0  0  0  0
 32 33  1  0  0  0  0
 33 29  1  0  0  0  0
M  END
>  <minimizedAffinity>
-3.9501152

>  <minimizedRMSD>
0.179740906

$$$$
