
 OpenBabel03272508023D

 24 26  0  0  0  0  0  0  0  0999 V2000
   37.1430   30.7690   46.4750 C   0  0  0  0  0  0  0  0  0  0  0  0
   37.6100   31.2080   47.7410 C   0  0  0  0  0  0  0  0  0  0  0  0
   36.7470   31.0990   48.8280 C   0  0  0  0  0  0  0  0  0  0  0  0
   35.4980   30.5750   48.6170 N   0  0  0  0  0  0  0  0  0  0  0  0
   35.0830   30.1680   47.4060 C   0  0  0  0  0  0  0  0  0  0  0  0
   35.9170   30.2710   46.3430 N   0  0  0  0  0  0  0  0  0  0  0  0
   38.5900   31.6120   47.8740 H   0  0  0  0  0  0  0  0  0  0  0  0
   34.0790   29.7600   47.2940 H   0  0  0  0  0  0  0  0  0  0  0  0
   38.0490   30.8850   45.3390 C   0  0  0  0  0  0  0  0  0  0  0  0
   39.0800   30.0560   45.0010 C   0  0  0  0  0  0  0  0  0  0  0  0
   39.7030   30.5180   43.8410 C   0  0  0  0  0  0  0  0  0  0  0  0
   39.0000   31.6450   43.5130 N   0  0  0  0  0  0  0  0  0  0  0  0
   38.0460   31.8330   44.4000 N   0  0  0  0  0  0  0  0  0  0  0  0
   39.4110   29.1550   45.5250 H   0  0  0  0  0  0  0  0  0  0  0  0
   40.5420   30.1170   43.2950 H   0  0  0  0  0  0  0  0  0  0  0  0
   39.3270   32.4600   42.3340 C   0  0  0  0  0  3  0  0  0  0  0  0
   38.0790   33.0950   41.7640 C   0  0  0  0  0  2  0  0  0  0  0  0
   37.6000   31.9790   40.8280 C   0  0  0  0  0  2  0  0  0  0  0  0
   38.8950   31.7030   40.0830 C   0  0  0  0  0  2  0  0  0  0  0  0
   39.8990   31.6460   41.2080 C   0  0  0  0  0  2  0  0  0  0  0  0
   37.2200   31.5540   50.1680 C   0  0  0  0  0  0  0  0  0  0  0  0
   36.6010   32.7760   50.3860 F   0  0  0  0  0  0  0  0  0  0  0  0
   36.8490   30.6980   51.1830 F   0  0  0  0  0  0  0  0  0  0  0  0
   38.5800   31.7620   50.1960 F   0  0  0  0  0  0  0  0  0  0  0  0
  1  2  1  0  0  0  0
  2  7  1  0  0  0  0
  2  3  2  0  0  0  0
  3 21  1  0  0  0  0
  4  3  1  0  0  0  0
  5  4  2  0  0  0  0
  6  1  2  0  0  0  0
  6  5  1  0  0  0  0
  8  5  1  0  0  0  0
  9  1  1  0  0  0  0
 10  9  1  0  0  0  0
 10 14  1  0  0  0  0
 11 10  2  0  0  0  0
 12 11  1  0  0  0  0
 12 13  1  0  0  0  0
 13  9  2  0  0  0  0
 15 11  1  0  0  0  0
 16 12  1  0  0  0  0
 17 16  1  0  0  0  0
 18 17  1  0  0  0  0
 19 18  1  0  0  0  0
 19 20  1  0  0  0  0
 20 16  1  0  0  0  0
 21 24  1  0  0  0  0
 21 22  1  0  0  0  0
 21 23  1  0  0  0  0
M  END
>  <minimizedAffinity>
-5.356071

>  <minimizedRMSD>
2.05408502

$$$$
