
 OpenBabel03272507273D

 35 37  0  0  1  0  0  0  0  0999 V2000
   36.6900   29.9120   49.1180 C   0  0  0  0  0  0  0  0  0  0  0  0
   37.7140   30.5980   48.4470 C   0  0  0  0  0  0  0  0  0  0  0  0
   37.5180   30.9140   47.0940 C   0  0  0  0  0  0  0  0  0  0  0  0
   36.3710   30.5440   46.5220 N   0  0  0  0  0  0  0  0  0  0  0  0
   35.4050   29.8840   47.1920 C   0  0  0  0  0  0  0  0  0  0  0  0
   35.5700   29.5750   48.4760 N   0  0  0  0  0  0  0  0  0  0  0  0
   38.5160   31.6000   46.3790 N   0  0  0  0  0  0  0  0  0  0  0  0
   39.4870   32.5410   46.9490 C   0  0  0  0  0  0  0  0  0  0  0  0
   40.1880   33.1920   45.8050 C   0  0  0  0  0  0  0  0  0  0  0  0
   39.2730   32.9330   44.6640 C   0  0  0  0  0  0  0  0  0  0  0  0
   38.8040   31.5370   44.9750 C   0  0  2  0  0  0  0  0  0  0  0  0
   36.7800   29.6400   50.1570 H   0  0  0  0  0  0  0  0  0  0  0  0
   38.6170   30.8690   48.9680 H   0  0  0  0  0  0  0  0  0  0  0  0
   34.5150   29.6330   46.6300 H   0  0  0  0  0  0  0  0  0  0  0  0
   40.2360   31.8930   47.4690 H   0  0  0  0  0  0  0  0  0  0  0  0
   39.0250   33.2270   47.6550 H   0  0  0  0  0  0  0  0  0  0  0  0
   40.1680   34.3010   46.0210 H   0  0  0  0  0  0  0  0  0  0  0  0
   41.2150   32.8780   45.6200 H   0  0  0  0  0  0  0  0  0  0  0  0
   39.8090   32.8980   43.6800 H   0  0  0  0  0  0  0  0  0  0  0  0
   38.4240   33.6380   44.6300 H   0  0  0  0  0  0  0  0  0  0  0  0
   37.7180   31.0710   44.0640 C   0  0  0  0  0  0  0  0  0  0  0  0
   36.5500   31.6770   44.4930 F   0  0  0  0  0  0  0  0  0  0  0  0
   37.4960   29.7240   44.0450 F   0  0  0  0  0  0  0  0  0  0  0  0
   38.0010   31.6070   42.8150 F   0  0  0  0  0  0  0  0  0  0  0  0
   39.9480   30.6090   44.8400 C   0  0  0  0  0  0  0  0  0  0  0  0
   39.6130   29.6440   45.2710 H   0  0  0  0  0  0  0  0  0  0  0  0
   40.7380   30.9510   45.5770 H   0  0  0  0  0  0  0  0  0  0  0  0
   40.4420   30.7850   43.7180 O   0  0  0  0  0  0  0  0  0  0  0  0
   40.7550   30.0610   42.6220 C   0  0  0  0  0  0  0  0  0  0  0  0
   40.7590   30.8150   41.6150 O   0  0  0  0  0  0  0  0  0  0  0  0
   41.1060   28.8130   41.9630 C   0  0  0  0  0  3  0  0  0  0  0  0
   39.8120   28.0660   41.6550 C   0  0  0  0  0  2  0  0  0  0  0  0
   40.3540   27.0890   40.6030 C   0  0  0  0  0  2  0  0  0  0  0  0
   40.9550   28.0930   39.6380 C   0  0  0  0  0  2  0  0  0  0  0  0
   41.7330   28.9990   40.6000 C   0  0  0  0  0  2  0  0  0  0  0  0
  1 12  1  0  0  0  0
  2 13  1  0  0  0  0
  2  1  2  0  0  0  0
  3  2  1  0  0  0  0
  4  3  2  0  0  0  0
  4  5  1  0  0  0  0
  5  6  2  0  0  0  0
  6  1  1  0  0  0  0
  7  8  1  0  0  0  0
  7  3  1  0  0  0  0
  8 15  1  0  0  0  0
  8 16  1  0  0  0  0
  9 17  1  0  0  0  0
  9  8  1  0  0  0  0
 10 11  1  0  0  0  0
 10  9  1  0  0  0  0
 11 21  1  6  0  0  0
 11  7  1  0  0  0  0
 14  5  1  0  0  0  0
 18  9  1  0  0  0  0
 19 10  1  0  0  0  0
 20 10  1  0  0  0  0
 21 22  1  0  0  0  0
 23 21  1  0  0  0  0
 24 21  1  0  0  0  0
 25 11  1  0  0  0  0
 25 26  1  0  0  0  0
 25 27  1  0  0  0  0
 28 25  1  0  0  0  0
 29 28  1  0  0  0  0
 30 29  2  0  0  0  0
 31 29  1  0  0  0  0
 32 31  1  0  0  0  0
 33 32  1  0  0  0  0
 34 35  1  0  0  0  0
 34 33  1  0  0  0  0
 35 31  1  0  0  0  0
M  END
>  <minimizedAffinity>
-5.16659975

>  <minimizedRMSD>
0.537027895

$$$$
