
 OpenBabel03272509403D

 31 33  0  0  0  0  0  0  0  0999 V2000
   37.0350   30.9240   49.0830 C   0  0  0  0  0  0  0  0  0  0  0  0
   36.7690   31.9040   50.0630 C   0  0  0  0  0  0  0  0  0  0  0  0
   37.3880   33.1380   50.0560 C   0  0  0  0  0  0  0  0  0  0  0  0
   38.3100   33.4530   49.0580 C   0  0  0  0  0  0  0  0  0  0  0  0
   38.5630   32.4860   48.1040 C   0  0  0  0  0  0  0  0  0  0  0  0
   37.9290   31.2550   48.1330 C   0  0  0  0  0  0  0  0  0  0  0  0
   36.0640   31.6780   50.8360 H   0  0  0  0  0  0  0  0  0  0  0  0
   37.1320   33.8380   50.8400 H   0  0  0  0  0  0  0  0  0  0  0  0
   38.7830   34.4230   49.0710 H   0  0  0  0  0  0  0  0  0  0  0  0
   39.2870   32.8060   47.3670 H   0  0  0  0  0  0  0  0  0  0  0  0
   36.3390   29.6640   49.1740 C   0  0  0  0  0  0  0  0  0  0  0  0
   36.8330   28.8350   50.0050 O   0  0  0  0  0  0  0  0  0  0  0  0
   33.5840   30.1200   46.8410 C   0  0  0  0  0  0  0  0  0  0  0  0
   32.9310   28.8820   46.8490 C   0  0  0  0  0  0  0  0  0  0  0  0
   33.4370   27.8900   47.6550 C   0  0  0  0  0  0  0  0  0  0  0  0
   34.5370   28.1320   48.4120 N   0  0  0  0  0  0  0  0  0  0  0  0
   35.1490   29.3090   48.3960 C   0  0  0  0  0  0  0  0  0  0  0  0
   34.6600   30.2950   47.6050 N   0  0  0  0  0  0  0  0  0  0  0  0
   33.2410   30.9490   46.2280 H   0  0  0  0  0  0  0  0  0  0  0  0
   32.0710   28.8200   46.2050 H   0  0  0  0  0  0  0  0  0  0  0  0
   32.9350   26.9490   47.6560 H   0  0  0  0  0  0  0  0  0  0  0  0
   38.3080   30.3700   47.0680 C   0  0  0  0  0  3  0  0  0  0  0  0
   38.7200   30.7060   45.8520 C   0  0  0  0  0  3  0  0  0  0  0  0
   39.1340   29.9030   44.6880 C   0  0  0  0  0  0  0  0  0  0  0  0
   38.2510   29.4100   44.1920 H   0  0  0  0  0  0  0  0  0  0  0  0
   39.7740   29.0770   45.0580 H   0  0  0  0  0  0  0  0  0  0  0  0
   39.9280   30.6430   43.6630 C   0  0  0  0  0  3  0  0  0  0  0  0
   39.0430   30.7310   42.4150 C   0  0  0  0  0  2  0  0  0  0  0  0
   39.2370   32.1210   41.8780 C   0  0  0  0  0  2  0  0  0  0  0  0
   39.5810   32.9720   43.0560 C   0  0  0  0  0  2  0  0  0  0  0  0
   40.2680   32.0540   44.0310 C   0  0  0  0  0  2  0  0  0  0  0  0
  1 11  1  0  0  0  0
  1  2  1  0  0  0  0
  2  7  1  0  0  0  0
  3  2  2  0  0  0  0
  3  8  1  0  0  0  0
  4  9  1  0  0  0  0
  4  3  1  0  0  0  0
  5  6  1  0  0  0  0
  5  4  2  0  0  0  0
  6  1  2  0  0  0  0
 10  5  1  0  0  0  0
 11 12  2  0  0  0  0
 13 14  2  0  0  0  0
 13 18  1  0  0  0  0
 14 15  1  0  0  0  0
 15 21  1  0  0  0  0
 15 16  2  0  0  0  0
 17 16  1  0  0  0  0
 17 11  1  0  0  0  0
 18 17  2  0  0  0  0
 19 13  1  0  0  0  0
 20 14  1  0  0  0  0
 22  6  1  0  0  0  0
 23 22  2  0  0  0  0
 24 26  1  0  0  0  0
 24 23  1  0  0  0  0
 25 24  1  0  0  0  0
 27 31  1  0  0  0  0
 27 24  1  0  0  0  0
 28 27  1  0  0  0  0
 29 28  1  0  0  0  0
 29 30  1  0  0  0  0
 30 31  1  0  0  0  0
M  END
>  <minimizedAffinity>
-5.99272728

>  <minimizedRMSD>
0.960433006

$$$$
