
 OpenBabel03272509413D

 31 33  0  0  0  0  0  0  0  0999 V2000
   36.5690   28.5730   32.5350 C   0  0  0  0  0  0  0  0  0  0  0  0
   36.0620   29.6450   31.7710 C   0  0  0  0  0  0  0  0  0  0  0  0
   35.3770   30.6970   32.3450 C   0  0  0  0  0  0  0  0  0  0  0  0
   35.1640   30.7260   33.7220 C   0  0  0  0  0  0  0  0  0  0  0  0
   35.6640   29.6700   34.4600 C   0  0  0  0  0  0  0  0  0  0  0  0
   36.3490   28.6260   33.8620 C   0  0  0  0  0  0  0  0  0  0  0  0
   36.2170   29.6380   30.7120 H   0  0  0  0  0  0  0  0  0  0  0  0
   35.0180   31.4840   31.6930 H   0  0  0  0  0  0  0  0  0  0  0  0
   34.6250   31.5570   34.1500 H   0  0  0  0  0  0  0  0  0  0  0  0
   35.4590   29.7660   35.5180 H   0  0  0  0  0  0  0  0  0  0  0  0
   37.2730   27.5190   31.8460 C   0  0  0  0  0  0  0  0  0  0  0  0
   38.3930   27.8590   31.3440 O   0  0  0  0  0  0  0  0  0  0  0  0
   34.9750   24.8370   30.9740 C   0  0  0  0  0  0  0  0  0  0  0  0
   35.6640   23.6740   31.3360 C   0  0  0  0  0  0  0  0  0  0  0  0
   36.9200   23.8110   31.8790 C   0  0  0  0  0  0  0  0  0  0  0  0
   37.4490   25.0490   32.0500 N   0  0  0  0  0  0  0  0  0  0  0  0
   36.7860   26.1450   31.7020 C   0  0  0  0  0  0  0  0  0  0  0  0
   35.5480   26.0230   31.1650 N   0  0  0  0  0  0  0  0  0  0  0  0
   33.9790   24.8050   30.5390 H   0  0  0  0  0  0  0  0  0  0  0  0
   35.1350   22.7560   31.1500 H   0  0  0  0  0  0  0  0  0  0  0  0
   37.4400   22.9210   32.1530 H   0  0  0  0  0  0  0  0  0  0  0  0
   36.7990   27.6140   34.7750 C   0  0  0  0  0  3  0  0  0  0  0  0
   37.9280   27.6060   35.4720 C   0  0  0  0  0  3  0  0  0  0  0  0
   38.4950   26.6400   36.4300 C   0  0  0  0  0  0  0  0  0  0  0  0
   38.2950   26.9490   37.4940 H   0  0  0  0  0  0  0  0  0  0  0  0
   39.5980   26.6560   36.3120 H   0  0  0  0  0  0  0  0  0  0  0  0
   38.0560   25.2270   36.2340 C   0  0  0  0  0  3  0  0  0  0  0  0
   39.1720   24.5350   35.4450 C   0  0  0  0  0  2  0  0  0  0  0  0
   39.3250   23.1760   36.0660 C   0  0  0  0  0  2  0  0  0  0  0  0
   38.9030   23.3270   37.4910 C   0  0  0  0  0  2  0  0  0  0  0  0
   37.8920   24.4410   37.4990 C   0  0  0  0  0  2  0  0  0  0  0  0
  1  6  1  0  0  0  0
  2  3  1  0  0  0  0
  2  1  2  0  0  0  0
  3  4  2  0  0  0  0
  4  9  1  0  0  0  0
  4  5  1  0  0  0  0
  5 10  1  0  0  0  0
  6  5  2  0  0  0  0
  6 22  1  0  0  0  0
  7  2  1  0  0  0  0
  8  3  1  0  0  0  0
 11  1  1  0  0  0  0
 12 11  2  0  0  0  0
 13 18  2  0  0  0  0
 13 14  1  0  0  0  0
 14 15  2  0  0  0  0
 15 16  1  0  0  0  0
 15 21  1  0  0  0  0
 17 11  1  0  0  0  0
 17 16  2  0  0  0  0
 18 17  1  0  0  0  0
 19 13  1  0  0  0  0
 20 14  1  0  0  0  0
 22 23  2  0  0  0  0
 23 24  1  0  0  0  0
 24 25  1  0  0  0  0
 26 24  1  0  0  0  0
 27 24  1  0  0  0  0
 27 31  1  0  0  0  0
 28 29  1  0  0  0  0
 28 27  1  0  0  0  0
 29 30  1  0  0  0  0
 30 31  1  0  0  0  0
M  END
>  <minimizedAffinity>
-5.89747763

$$$$

 OpenBabel03272509413D

 31 33  0  0  0  0  0  0  0  0999 V2000
   36.7280   28.0690   32.3890 C   0  0  0  0  0  0  0  0  0  0  0  0
   36.2710   29.0500   31.4840 C   0  0  0  0  0  0  0  0  0  0  0  0
   35.5690   30.1640   31.8990 C   0  0  0  0  0  0  0  0  0  0  0  0
   35.2900   30.3510   33.2520 C   0  0  0  0  0  0  0  0  0  0  0  0
   35.7430   29.3840   34.1290 C   0  0  0  0  0  0  0  0  0  0  0  0
   36.4440   28.2750   33.6880 C   0  0  0  0  0  0  0  0  0  0  0  0
   36.4770   28.9220   30.4420 H   0  0  0  0  0  0  0  0  0  0  0  0
   35.2520   30.8730   31.1460 H   0  0  0  0  0  0  0  0  0  0  0  0
   34.7400   31.2280   33.5560 H   0  0  0  0  0  0  0  0  0  0  0  0
   35.4870   29.6010   35.1580 H   0  0  0  0  0  0  0  0  0  0  0  0
   37.4530   26.9410   31.8600 C   0  0  0  0  0  0  0  0  0  0  0  0
   38.6200   27.2070   31.4230 O   0  0  0  0  0  0  0  0  0  0  0  0
   37.3160   23.3680   32.5340 C   0  0  0  0  0  0  0  0  0  0  0  0
   36.1760   22.9410   31.8450 C   0  0  0  0  0  0  0  0  0  0  0  0
   35.4520   23.8800   31.1490 C   0  0  0  0  0  0  0  0  0  0  0  0
   35.8570   25.1750   31.1460 N   0  0  0  0  0  0  0  0  0  0  0  0
   36.9400   25.5700   31.8030 C   0  0  0  0  0  0  0  0  0  0  0  0
   37.6610   24.6530   32.4940 N   0  0  0  0  0  0  0  0  0  0  0  0
   37.9350   22.6810   33.1060 H   0  0  0  0  0  0  0  0  0  0  0  0
   35.9640   21.8890   31.9270 H   0  0  0  0  0  0  0  0  0  0  0  0
   34.5840   23.5480   30.6260 H   0  0  0  0  0  0  0  0  0  0  0  0
   36.8390   27.3710   34.7320 C   0  0  0  0  0  3  0  0  0  0  0  0
   37.9660   27.3950   35.4320 C   0  0  0  0  0  3  0  0  0  0  0  0
   38.4800   26.5370   36.5140 C   0  0  0  0  0  0  0  0  0  0  0  0
   38.1820   26.9290   37.5270 H   0  0  0  0  0  0  0  0  0  0  0  0
   39.5880   26.5840   36.4840 H   0  0  0  0  0  0  0  0  0  0  0  0
   38.1010   25.0970   36.4100 C   0  0  0  0  0  3  0  0  0  0  0  0
   39.2800   24.3900   35.7320 C   0  0  0  0  0  2  0  0  0  0  0  0
   39.4490   23.0910   36.4660 C   0  0  0  0  0  2  0  0  0  0  0  0
   38.9490   23.3340   37.8520 C   0  0  0  0  0  2  0  0  0  0  0  0
   37.9000   24.4050   37.7230 C   0  0  0  0  0  2  0  0  0  0  0  0
  1  6  1  0  0  0  0
  2  3  1  0  0  0  0
  2  1  2  0  0  0  0
  3  4  2  0  0  0  0
  4  9  1  0  0  0  0
  4  5  1  0  0  0  0
  5 10  1  0  0  0  0
  6  5  2  0  0  0  0
  6 22  1  0  0  0  0
  7  2  1  0  0  0  0
  8  3  1  0  0  0  0
 11  1  1  0  0  0  0
 12 11  2  0  0  0  0
 13 19  1  0  0  0  0
 14 20  1  0  0  0  0
 14 13  2  0  0  0  0
 15 14  1  0  0  0  0
 16 15  2  0  0  0  0
 16 17  1  0  0  0  0
 17 11  1  0  0  0  0
 17 18  2  0  0  0  0
 18 13  1  0  0  0  0
 21 15  1  0  0  0  0
 22 23  2  0  0  0  0
 23 24  1  0  0  0  0
 24 25  1  0  0  0  0
 26 24  1  0  0  0  0
 27 24  1  0  0  0  0
 27 31  1  0  0  0  0
 28 27  1  0  0  0  0
 28 29  1  0  0  0  0
 29 30  1  0  0  0  0
 31 30  1  0  0  0  0
M  END
>  <minimizedAffinity>
-5.80530024

$$$$

 OpenBabel03272509413D

 31 33  0  0  0  0  0  0  0  0999 V2000
   39.1660   27.1460   32.6910 C   0  0  0  0  0  0  0  0  0  0  0  0
   40.0350   27.4560   31.6250 C   0  0  0  0  0  0  0  0  0  0  0  0
   41.4020   27.5510   31.7940 C   0  0  0  0  0  0  0  0  0  0  0  0
   41.9680   27.3390   33.0500 C   0  0  0  0  0  0  0  0  0  0  0  0
   41.1080   27.0360   34.0870 C   0  0  0  0  0  0  0  0  0  0  0  0
   39.7400   26.9450   33.8920 C   0  0  0  0  0  0  0  0  0  0  0  0
   39.6170   27.6220   30.6540 H   0  0  0  0  0  0  0  0  0  0  0  0
   42.0040   27.7930   30.9270 H   0  0  0  0  0  0  0  0  0  0  0  0
   43.0390   27.4180   33.1600 H   0  0  0  0  0  0  0  0  0  0  0  0
   41.6230   26.8850   35.0270 H   0  0  0  0  0  0  0  0  0  0  0  0
   37.7530   27.0670   32.4170 C   0  0  0  0  0  0  0  0  0  0  0  0
   37.1260   28.1730   32.5030 O   0  0  0  0  0  0  0  0  0  0  0  0
   35.1080   25.0000   31.0130 C   0  0  0  0  0  0  0  0  0  0  0  0
   35.5220   23.6930   31.2920 C   0  0  0  0  0  0  0  0  0  0  0  0
   36.7100   23.5200   31.9600 C   0  0  0  0  0  0  0  0  0  0  0  0
   37.4390   24.6040   32.3300 N   0  0  0  0  0  0  0  0  0  0  0  0
   37.0370   25.8400   32.0610 C   0  0  0  0  0  0  0  0  0  0  0  0
   35.8670   26.0220   31.4010 N   0  0  0  0  0  0  0  0  0  0  0  0
   34.1800   25.2120   30.4880 H   0  0  0  0  0  0  0  0  0  0  0  0
   34.8540   22.9230   30.9450 H   0  0  0  0  0  0  0  0  0  0  0  0
   37.0200   22.5210   32.1690 H   0  0  0  0  0  0  0  0  0  0  0  0
   38.9940   26.6230   35.0760 C   0  0  0  0  0  3  0  0  0  0  0  0
   38.7860   25.4170   35.5910 C   0  0  0  0  0  3  0  0  0  0  0  0
   38.0520   24.9620   36.7840 C   0  0  0  0  0  0  0  0  0  0  0  0
   36.9480   25.1660   36.6910 H   0  0  0  0  0  0  0  0  0  0  0  0
   38.4000   25.5660   37.6460 H   0  0  0  0  0  0  0  0  0  0  0  0
   38.2610   23.5280   37.1430 C   0  0  0  0  0  3  0  0  0  0  0  0
   38.9220   22.8710   35.9270 C   0  0  0  0  0  2  0  0  0  0  0  0
   39.9760   21.9570   36.4820 C   0  0  0  0  0  2  0  0  0  0  0  0
   40.3960   22.5580   37.7830 C   0  0  0  0  0  2  0  0  0  0  0  0
   39.1910   23.2990   38.2950 C   0  0  0  0  0  2  0  0  0  0  0  0
  1  6  1  0  0  0  0
  2  3  1  0  0  0  0
  2  1  2  0  0  0  0
  3  4  2  0  0  0  0
  4  9  1  0  0  0  0
  4  5  1  0  0  0  0
  5 10  1  0  0  0  0
  6  5  2  0  0  0  0
  6 22  1  0  0  0  0
  7  2  1  0  0  0  0
  8  3  1  0  0  0  0
 11 12  2  0  0  0  0
 11  1  1  0  0  0  0
 13 14  2  0  0  0  0
 13 18  1  0  0  0  0
 14 15  1  0  0  0  0
 15 21  1  0  0  0  0
 15 16  2  0  0  0  0
 17 16  1  0  0  0  0
 17 11  1  0  0  0  0
 18 17  2  0  0  0  0
 19 13  1  0  0  0  0
 20 14  1  0  0  0  0
 22 23  2  0  0  0  0
 23 24  1  0  0  0  0
 24 27  1  0  0  0  0
 24 26  1  0  0  0  0
 25 24  1  0  0  0  0
 27 31  1  0  0  0  0
 28 29  1  0  0  0  0
 28 27  1  0  0  0  0
 29 30  1  0  0  0  0
 30 31  1  0  0  0  0
M  END
>  <minimizedAffinity>
-5.77122831

$$$$

 OpenBabel03272509413D

 31 33  0  0  0  0  0  0  0  0999 V2000
   36.0630   29.1040   32.9250 C   0  0  0  0  0  0  0  0  0  0  0  0
   36.0950   29.6820   31.6380 C   0  0  0  0  0  0  0  0  0  0  0  0
   36.9040   29.1930   30.6320 C   0  0  0  0  0  0  0  0  0  0  0  0
   37.7260   28.0920   30.8680 C   0  0  0  0  0  0  0  0  0  0  0  0
   37.6860   27.5340   32.1320 C   0  0  0  0  0  0  0  0  0  0  0  0
   36.8660   28.0430   33.1240 C   0  0  0  0  0  0  0  0  0  0  0  0
   35.4700   30.5280   31.4400 H   0  0  0  0  0  0  0  0  0  0  0  0
   36.8740   29.6890   29.6710 H   0  0  0  0  0  0  0  0  0  0  0  0
   38.3510   27.7250   30.0680 H   0  0  0  0  0  0  0  0  0  0  0  0
   38.3510   26.6860   32.2350 H   0  0  0  0  0  0  0  0  0  0  0  0
   35.1850   29.6860   33.9100 C   0  0  0  0  0  0  0  0  0  0  0  0
   35.7470   30.4840   34.7270 O   0  0  0  0  0  0  0  0  0  0  0  0
   31.9460   29.2600   35.5120 C   0  0  0  0  0  0  0  0  0  0  0  0
   31.0860   28.9500   34.4520 C   0  0  0  0  0  0  0  0  0  0  0  0
   31.6190   28.8890   33.1860 C   0  0  0  0  0  0  0  0  0  0  0  0
   32.9420   29.1240   32.9990 N   0  0  0  0  0  0  0  0  0  0  0  0
   33.7480   29.4160   34.0120 C   0  0  0  0  0  0  0  0  0  0  0  0
   33.2350   29.4810   35.2650 N   0  0  0  0  0  0  0  0  0  0  0  0
   31.5950   29.3260   36.5390 H   0  0  0  0  0  0  0  0  0  0  0  0
   30.0610   28.7870   34.7330 H   0  0  0  0  0  0  0  0  0  0  0  0
   30.9580   28.6530   32.3830 H   0  0  0  0  0  0  0  0  0  0  0  0
   36.9490   27.3450   34.3760 C   0  0  0  0  0  3  0  0  0  0  0  0
   38.0300   27.1620   35.1240 C   0  0  0  0  0  3  0  0  0  0  0  0
   38.2420   26.4750   36.4100 C   0  0  0  0  0  0  0  0  0  0  0  0
   37.6430   26.9520   37.2350 H   0  0  0  0  0  0  0  0  0  0  0  0
   39.3070   26.6080   36.6920 H   0  0  0  0  0  0  0  0  0  0  0  0
   37.9770   25.0060   36.3910 C   0  0  0  0  0  3  0  0  0  0  0  0
   39.1900   24.3580   35.7140 C   0  0  0  0  0  2  0  0  0  0  0  0
   39.4820   23.1170   36.5080 C   0  0  0  0  0  2  0  0  0  0  0  0
   39.0000   23.3940   37.8940 C   0  0  0  0  0  2  0  0  0  0  0  0
   37.8670   24.3710   37.7430 C   0  0  0  0  0  2  0  0  0  0  0  0
  1  6  1  0  0  0  0
  1 11  1  0  0  0  0
  2  1  2  0  0  0  0
  3  4  2  0  0  0  0
  3  2  1  0  0  0  0
  4  5  1  0  0  0  0
  5 10  1  0  0  0  0
  5  6  2  0  0  0  0
  6 22  1  0  0  0  0
  7  2  1  0  0  0  0
  8  3  1  0  0  0  0
  9  4  1  0  0  0  0
 11 17  1  0  0  0  0
 11 12  2  0  0  0  0
 13 19  1  0  0  0  0
 14 20  1  0  0  0  0
 14 13  2  0  0  0  0
 15 14  1  0  0  0  0
 16 15  2  0  0  0  0
 16 17  1  0  0  0  0
 17 18  2  0  0  0  0
 18 13  1  0  0  0  0
 21 15  1  0  0  0  0
 22 23  2  0  0  0  0
 23 24  1  0  0  0  0
 24 26  1  0  0  0  0
 24 25  1  0  0  0  0
 27 24  1  0  0  0  0
 27 31  1  0  0  0  0
 28 27  1  0  0  0  0
 28 29  1  0  0  0  0
 29 30  1  0  0  0  0
 31 30  1  0  0  0  0
M  END
>  <minimizedAffinity>
-5.69172955

$$$$

 OpenBabel03272509413D

 31 33  0  0  0  0  0  0  0  0999 V2000
   36.3150   28.7980   32.3680 C   0  0  0  0  0  0  0  0  0  0  0  0
   36.4330   29.0740   30.9900 C   0  0  0  0  0  0  0  0  0  0  0  0
   37.3470   28.4230   30.1850 C   0  0  0  0  0  0  0  0  0  0  0  0
   38.1940   27.4570   30.7270 C   0  0  0  0  0  0  0  0  0  0  0  0
   38.0700   27.1960   32.0780 C   0  0  0  0  0  0  0  0  0  0  0  0
   37.1450   27.8620   32.8640 C   0  0  0  0  0  0  0  0  0  0  0  0
   35.7910   29.8120   30.5580 H   0  0  0  0  0  0  0  0  0  0  0  0
   37.3780   28.6880   29.1360 H   0  0  0  0  0  0  0  0  0  0  0  0
   38.9020   26.9610   30.0810 H   0  0  0  0  0  0  0  0  0  0  0  0
   38.7600   26.4360   32.4220 H   0  0  0  0  0  0  0  0  0  0  0  0
   35.3300   29.5290   33.1260 C   0  0  0  0  0  0  0  0  0  0  0  0
   34.1580   29.0310   33.1070 O   0  0  0  0  0  0  0  0  0  0  0  0
   35.8860   31.6310   36.0430 C   0  0  0  0  0  0  0  0  0  0  0  0
   36.0860   32.9070   35.5030 C   0  0  0  0  0  0  0  0  0  0  0  0
   36.0300   33.0450   34.1370 C   0  0  0  0  0  0  0  0  0  0  0  0
   35.7860   31.9610   33.3590 N   0  0  0  0  0  0  0  0  0  0  0  0
   35.5980   30.7550   33.8810 C   0  0  0  0  0  0  0  0  0  0  0  0
   35.6510   30.6060   35.2280 N   0  0  0  0  0  0  0  0  0  0  0  0
   35.9170   31.4470   37.1140 H   0  0  0  0  0  0  0  0  0  0  0  0
   36.2700   33.6810   36.2270 H   0  0  0  0  0  0  0  0  0  0  0  0
   36.1830   34.0200   33.7320 H   0  0  0  0  0  0  0  0  0  0  0  0
   37.1500   27.4680   34.2450 C   0  0  0  0  0  3  0  0  0  0  0  0
   38.0390   26.6960   34.8570 C   0  0  0  0  0  3  0  0  0  0  0  0
   38.1540   26.2270   36.2490 C   0  0  0  0  0  0  0  0  0  0  0  0
   37.4860   26.8150   36.9390 H   0  0  0  0  0  0  0  0  0  0  0  0
   39.1910   26.4280   36.5880 H   0  0  0  0  0  0  0  0  0  0  0  0
   37.9070   24.7680   36.4450 C   0  0  0  0  0  3  0  0  0  0  0  0
   39.1420   24.0450   35.8980 C   0  0  0  0  0  2  0  0  0  0  0  0
   39.4300   22.9410   36.8740 C   0  0  0  0  0  2  0  0  0  0  0  0
   38.9150   23.4150   38.1940 C   0  0  0  0  0  2  0  0  0  0  0  0
   37.7740   24.3410   37.8750 C   0  0  0  0  0  2  0  0  0  0  0  0
  1  6  1  0  0  0  0
  1 11  1  0  0  0  0
  2  1  2  0  0  0  0
  3  4  2  0  0  0  0
  3  2  1  0  0  0  0
  4  5  1  0  0  0  0
  5 10  1  0  0  0  0
  5  6  2  0  0  0  0
  6 22  1  0  0  0  0
  7  2  1  0  0  0  0
  8  3  1  0  0  0  0
  9  4  1  0  0  0  0
 11 17  1  0  0  0  0
 12 11  2  0  0  0  0
 13 19  1  0  0  0  0
 14 13  1  0  0  0  0
 14 20  1  0  0  0  0
 15 14  2  0  0  0  0
 16 17  2  0  0  0  0
 16 15  1  0  0  0  0
 17 18  1  0  0  0  0
 18 13  2  0  0  0  0
 21 15  1  0  0  0  0
 22 23  2  0  0  0  0
 23 24  1  0  0  0  0
 24 27  1  0  0  0  0
 24 26  1  0  0  0  0
 24 25  1  0  0  0  0
 27 31  1  0  0  0  0
 28 27  1  0  0  0  0
 28 29  1  0  0  0  0
 29 30  1  0  0  0  0
 31 30  1  0  0  0  0
M  END
>  <minimizedAffinity>
-5.64496851

$$$$

 OpenBabel03272509413D

 31 33  0  0  0  0  0  0  0  0999 V2000
   37.3560   21.8980   33.5520 C   0  0  0  0  0  0  0  0  0  0  0  0
   36.5890   20.7300   33.7460 C   0  0  0  0  0  0  0  0  0  0  0  0
   35.4230   20.4900   33.0450 C   0  0  0  0  0  0  0  0  0  0  0  0
   34.9680   21.4160   32.1080 C   0  0  0  0  0  0  0  0  0  0  0  0
   35.7270   22.5550   31.9260 C   0  0  0  0  0  0  0  0  0  0  0  0
   36.8920   22.7740   32.6410 C   0  0  0  0  0  0  0  0  0  0  0  0
   36.9240   20.0100   34.4630 H   0  0  0  0  0  0  0  0  0  0  0  0
   34.8900   19.5710   33.2490 H   0  0  0  0  0  0  0  0  0  0  0  0
   34.0550   21.2090   31.5700 H   0  0  0  0  0  0  0  0  0  0  0  0
   35.3080   23.2220   31.1830 H   0  0  0  0  0  0  0  0  0  0  0  0
   38.5580   22.0600   34.3310 C   0  0  0  0  0  0  0  0  0  0  0  0
   39.6370   21.7600   33.7240 O   0  0  0  0  0  0  0  0  0  0  0  0
   39.9670   22.7270   37.6190 C   0  0  0  0  0  0  0  0  0  0  0  0
   38.9140   23.3270   38.3180 C   0  0  0  0  0  0  0  0  0  0  0  0
   37.7200   23.5040   37.6610 C   0  0  0  0  0  0  0  0  0  0  0  0
   37.5930   23.0970   36.3720 N   0  0  0  0  0  0  0  0  0  0  0  0
   38.5980   22.5290   35.7180 C   0  0  0  0  0  0  0  0  0  0  0  0
   39.7810   22.3500   36.3560 N   0  0  0  0  0  0  0  0  0  0  0  0
   40.9390   22.5560   38.0740 H   0  0  0  0  0  0  0  0  0  0  0  0
   39.1430   23.6030   39.3320 H   0  0  0  0  0  0  0  0  0  0  0  0
   36.9220   23.9630   38.2000 H   0  0  0  0  0  0  0  0  0  0  0  0
   37.5560   24.0080   32.3280 C   0  0  0  0  0  3  0  0  0  0  0  0
   37.1020   25.2380   32.5310 C   0  0  0  0  0  3  0  0  0  0  0  0
   37.6800   26.5660   32.2590 C   0  0  0  0  0  0  0  0  0  0  0  0
   36.9530   27.2270   31.7100 H   0  0  0  0  0  0  0  0  0  0  0  0
   38.5400   26.4250   31.5730 H   0  0  0  0  0  0  0  0  0  0  0  0
   38.1940   27.2870   33.4610 C   0  0  0  0  0  3  0  0  0  0  0  0
   37.2600   26.9170   34.6180 C   0  0  0  0  0  2  0  0  0  0  0  0
   38.1520   26.7010   35.8060 C   0  0  0  0  0  2  0  0  0  0  0  0
   39.4670   26.2550   35.2560 C   0  0  0  0  0  2  0  0  0  0  0  0
   39.5710   26.8830   33.8930 C   0  0  0  0  0  2  0  0  0  0  0  0
  1  2  1  0  0  0  0
  1 11  1  0  0  0  0
  2  7  1  0  0  0  0
  3  8  1  0  0  0  0
  3  2  2  0  0  0  0
  4  3  1  0  0  0  0
  5  4  2  0  0  0  0
  5  6  1  0  0  0  0
  6  1  2  0  0  0  0
  9  4  1  0  0  0  0
 10  5  1  0  0  0  0
 11 17  1  0  0  0  0
 12 11  2  0  0  0  0
 13 19  1  0  0  0  0
 13 14  1  0  0  0  0
 14 20  1  0  0  0  0
 15 21  1  0  0  0  0
 15 14  2  0  0  0  0
 16 15  1  0  0  0  0
 17 18  1  0  0  0  0
 17 16  2  0  0  0  0
 18 13  2  0  0  0  0
 22 23  2  0  0  0  0
 22  6  1  0  0  0  0
 24 23  1  0  0  0  0
 24 27  1  0  0  0  0
 25 24  1  0  0  0  0
 26 24  1  0  0  0  0
 27 31  1  0  0  0  0
 27 28  1  0  0  0  0
 28 29  1  0  0  0  0
 30 29  1  0  0  0  0
 31 30  1  0  0  0  0
M  END
>  <minimizedAffinity>
-5.63539696

$$$$

 OpenBabel03272509413D

 31 33  0  0  0  0  0  0  0  0999 V2000
   38.2070   24.8580   35.2600 C   0  0  0  0  0  0  0  0  0  0  0  0
   38.1530   26.0510   36.0100 C   0  0  0  0  0  0  0  0  0  0  0  0
   37.7990   27.2600   35.4460 C   0  0  0  0  0  0  0  0  0  0  0  0
   37.4780   27.3320   34.0910 C   0  0  0  0  0  0  0  0  0  0  0  0
   37.5340   26.1580   33.3660 C   0  0  0  0  0  0  0  0  0  0  0  0
   37.8920   24.9570   33.9550 C   0  0  0  0  0  0  0  0  0  0  0  0
   38.3970   26.0130   37.0520 H   0  0  0  0  0  0  0  0  0  0  0  0
   37.7800   28.1320   36.0860 H   0  0  0  0  0  0  0  0  0  0  0  0
   37.2040   28.2880   33.6690 H   0  0  0  0  0  0  0  0  0  0  0  0
   37.2710   26.2970   32.3250 H   0  0  0  0  0  0  0  0  0  0  0  0
   38.5870   23.6430   35.9380 C   0  0  0  0  0  0  0  0  0  0  0  0
   37.6170   22.9490   36.3840 O   0  0  0  0  0  0  0  0  0  0  0  0
   41.3230   21.6710   37.3020 C   0  0  0  0  0  0  0  0  0  0  0  0
   42.4560   22.1780   36.6550 C   0  0  0  0  0  0  0  0  0  0  0  0
   42.2810   23.1960   35.7490 C   0  0  0  0  0  0  0  0  0  0  0  0
   41.0350   23.6780   35.5100 N   0  0  0  0  0  0  0  0  0  0  0  0
   39.9670   23.1910   36.1290 C   0  0  0  0  0  0  0  0  0  0  0  0
   40.1280   22.1850   37.0240 N   0  0  0  0  0  0  0  0  0  0  0  0
   41.3860   20.8660   38.0290 H   0  0  0  0  0  0  0  0  0  0  0  0
   43.3840   21.7090   36.9330 H   0  0  0  0  0  0  0  0  0  0  0  0
   43.1480   23.5770   35.2590 H   0  0  0  0  0  0  0  0  0  0  0  0
   37.8990   23.8370   33.0570 C   0  0  0  0  0  3  0  0  0  0  0  0
   36.9490   23.4900   32.1980 C   0  0  0  0  0  3  0  0  0  0  0  0
   36.8390   22.3800   31.2350 C   0  0  0  0  0  0  0  0  0  0  0  0
   37.7830   21.7670   31.2030 H   0  0  0  0  0  0  0  0  0  0  0  0
   36.7300   22.8210   30.2230 H   0  0  0  0  0  0  0  0  0  0  0  0
   35.6700   21.4770   31.4450 C   0  0  0  0  0  3  0  0  0  0  0  0
   36.0680   20.1150   30.8670 C   0  0  0  0  0  2  0  0  0  0  0  0
   35.5510   19.0950   31.8400 C   0  0  0  0  0  2  0  0  0  0  0  0
   35.5280   19.7710   33.1710 C   0  0  0  0  0  2  0  0  0  0  0  0
   35.3160   21.2320   32.8800 C   0  0  0  0  0  2  0  0  0  0  0  0
  1 11  1  0  0  0  0
  1  2  1  0  0  0  0
  2  7  1  0  0  0  0
  3  2  2  0  0  0  0
  3  8  1  0  0  0  0
  4  3  1  0  0  0  0
  5  6  1  0  0  0  0
  5  4  2  0  0  0  0
  6  1  2  0  0  0  0
  9  4  1  0  0  0  0
 10  5  1  0  0  0  0
 11 17  1  0  0  0  0
 11 12  2  0  0  0  0
 13 19  1  0  0  0  0
 14 20  1  0  0  0  0
 14 13  2  0  0  0  0
 15 14  1  0  0  0  0
 16 15  2  0  0  0  0
 16 17  1  0  0  0  0
 17 18  2  0  0  0  0
 18 13  1  0  0  0  0
 21 15  1  0  0  0  0
 22  6  1  0  0  0  0
 23 22  2  0  0  0  0
 24 27  1  0  0  0  0
 24 23  1  0  0  0  0
 25 24  1  0  0  0  0
 26 24  1  0  0  0  0
 27 31  1  0  0  0  0
 28 27  1  0  0  0  0
 28 29  1  0  0  0  0
 29 30  1  0  0  0  0
 31 30  1  0  0  0  0
M  END
>  <minimizedAffinity>
-5.6212368

$$$$

 OpenBabel03272509413D

 31 33  0  0  0  0  0  0  0  0999 V2000
   37.6880   25.9680   32.8710 C   0  0  0  0  0  0  0  0  0  0  0  0
   37.6450   27.3530   33.1360 C   0  0  0  0  0  0  0  0  0  0  0  0
   36.7940   28.2050   32.4620 C   0  0  0  0  0  0  0  0  0  0  0  0
   35.9380   27.7070   31.4810 C   0  0  0  0  0  0  0  0  0  0  0  0
   35.9880   26.3500   31.2290 C   0  0  0  0  0  0  0  0  0  0  0  0
   36.8510   25.5150   31.9190 C   0  0  0  0  0  0  0  0  0  0  0  0
   38.2970   27.7510   33.8860 H   0  0  0  0  0  0  0  0  0  0  0  0
   36.8180   29.2560   32.7210 H   0  0  0  0  0  0  0  0  0  0  0  0
   35.2800   28.3900   30.9650 H   0  0  0  0  0  0  0  0  0  0  0  0
   35.2950   26.0420   30.4570 H   0  0  0  0  0  0  0  0  0  0  0  0
   38.6100   25.1580   33.6270 C   0  0  0  0  0  0  0  0  0  0  0  0
   39.7670   25.0330   33.1090 O   0  0  0  0  0  0  0  0  0  0  0  0
   37.7820   22.4410   35.9010 C   0  0  0  0  0  0  0  0  0  0  0  0
   37.6960   23.0650   37.1510 C   0  0  0  0  0  0  0  0  0  0  0  0
   37.9230   24.4200   37.2130 C   0  0  0  0  0  0  0  0  0  0  0  0
   38.2180   25.1060   36.0810 N   0  0  0  0  0  0  0  0  0  0  0  0
   38.2980   24.5050   34.9010 C   0  0  0  0  0  0  0  0  0  0  0  0
   38.0770   23.1690   34.8270 N   0  0  0  0  0  0  0  0  0  0  0  0
   37.6150   21.3750   35.7770 H   0  0  0  0  0  0  0  0  0  0  0  0
   37.4540   22.4100   37.9690 H   0  0  0  0  0  0  0  0  0  0  0  0
   37.8560   24.8890   38.1690 H   0  0  0  0  0  0  0  0  0  0  0  0
   36.7740   24.1340   31.5320 C   0  0  0  0  0  3  0  0  0  0  0  0
   35.6840   23.3800   31.4580 C   0  0  0  0  0  3  0  0  0  0  0  0
   35.4770   21.9720   31.0790 C   0  0  0  0  0  0  0  0  0  0  0  0
   35.7230   21.7970   29.9940 H   0  0  0  0  0  0  0  0  0  0  0  0
   34.3950   21.7510   31.1830 H   0  0  0  0  0  0  0  0  0  0  0  0
   36.2080   20.9790   31.9190 C   0  0  0  0  0  3  0  0  0  0  0  0
   35.1590   20.3290   32.8280 C   0  0  0  0  0  2  0  0  0  0  0  0
   35.5020   18.8670   32.8620 C   0  0  0  0  0  2  0  0  0  0  0  0
   36.1790   18.5750   31.5630 C   0  0  0  0  0  2  0  0  0  0  0  0
   36.8460   19.8600   31.1550 C   0  0  0  0  0  2  0  0  0  0  0  0
  1  2  1  0  0  0  0
  1 11  1  0  0  0  0
  2  7  1  0  0  0  0
  3  8  1  0  0  0  0
  3  2  2  0  0  0  0
  4  3  1  0  0  0  0
  5  4  2  0  0  0  0
  5  6  1  0  0  0  0
  6  1  2  0  0  0  0
  9  4  1  0  0  0  0
 10  5  1  0  0  0  0
 11 17  1  0  0  0  0
 12 11  2  0  0  0  0
 13 14  1  0  0  0  0
 14 15  2  0  0  0  0
 14 20  1  0  0  0  0
 15 21  1  0  0  0  0
 16 15  1  0  0  0  0
 17 16  2  0  0  0  0
 18 17  1  0  0  0  0
 18 13  2  0  0  0  0
 19 13  1  0  0  0  0
 22  6  1  0  0  0  0
 23 22  2  0  0  0  0
 24 26  1  0  0  0  0
 24 23  1  0  0  0  0
 24 27  1  0  0  0  0
 25 24  1  0  0  0  0
 27 28  1  0  0  0  0
 28 29  1  0  0  0  0
 30 29  1  0  0  0  0
 31 30  1  0  0  0  0
 31 27  1  0  0  0  0
M  END
>  <minimizedAffinity>
-5.40481234

$$$$

 OpenBabel03272509413D

 31 33  0  0  0  0  0  0  0  0999 V2000
   37.5540   26.7500   33.2280 C   0  0  0  0  0  0  0  0  0  0  0  0
   38.5520   25.9310   33.7950 C   0  0  0  0  0  0  0  0  0  0  0  0
   39.0050   26.1100   35.0870 C   0  0  0  0  0  0  0  0  0  0  0  0
   38.4760   27.1280   35.8790 C   0  0  0  0  0  0  0  0  0  0  0  0
   37.5000   27.9250   35.3130 C   0  0  0  0  0  0  0  0  0  0  0  0
   37.0610   27.7250   34.0150 C   0  0  0  0  0  0  0  0  0  0  0  0
   38.9690   25.1450   33.2000 H   0  0  0  0  0  0  0  0  0  0  0  0
   39.7730   25.4400   35.4520 H   0  0  0  0  0  0  0  0  0  0  0  0
   38.8450   27.2510   36.8860 H   0  0  0  0  0  0  0  0  0  0  0  0
   37.1410   28.6890   35.9900 H   0  0  0  0  0  0  0  0  0  0  0  0
   37.1450   26.4850   31.8710 C   0  0  0  0  0  0  0  0  0  0  0  0
   36.2080   25.6310   31.7480 O   0  0  0  0  0  0  0  0  0  0  0  0
   37.3830   28.7830   29.0600 C   0  0  0  0  0  0  0  0  0  0  0  0
   38.6040   28.4530   28.4600 C   0  0  0  0  0  0  0  0  0  0  0  0
   39.3460   27.4420   29.0220 C   0  0  0  0  0  0  0  0  0  0  0  0
   38.8840   26.7980   30.1230 N   0  0  0  0  0  0  0  0  0  0  0  0
   37.7250   27.1190   30.6840 C   0  0  0  0  0  0  0  0  0  0  0  0
   36.9840   28.1160   30.1400 N   0  0  0  0  0  0  0  0  0  0  0  0
   36.7450   29.5720   28.6710 H   0  0  0  0  0  0  0  0  0  0  0  0
   38.8560   29.0380   27.5930 H   0  0  0  0  0  0  0  0  0  0  0  0
   40.2760   27.1950   28.5600 H   0  0  0  0  0  0  0  0  0  0  0  0
   36.0430   28.6420   33.5860 C   0  0  0  0  0  3  0  0  0  0  0  0
   35.1190   29.2260   34.3390 C   0  0  0  0  0  3  0  0  0  0  0  0
   34.0360   30.1730   34.0240 C   0  0  0  0  0  0  0  0  0  0  0  0
   33.0280   29.7530   34.2970 H   0  0  0  0  0  0  0  0  0  0  0  0
   34.0190   30.3120   32.9230 H   0  0  0  0  0  0  0  0  0  0  0  0
   34.1890   31.5290   34.6310 C   0  0  0  0  0  3  0  0  0  0  0  0
   33.9820   31.3510   36.1380 C   0  0  0  0  0  2  0  0  0  0  0  0
   35.0180   32.2190   36.7940 C   0  0  0  0  0  2  0  0  0  0  0  0
   36.1580   32.2960   35.8320 C   0  0  0  0  0  2  0  0  0  0  0  0
   35.5460   32.1410   34.4660 C   0  0  0  0  0  2  0  0  0  0  0  0
  1  2  2  0  0  0  0
  1  6  1  0  0  0  0
  2  3  1  0  0  0  0
  3  8  1  0  0  0  0
  3  4  2  0  0  0  0
  4  9  1  0  0  0  0
  5  4  1  0  0  0  0
  5 10  1  0  0  0  0
  6  5  2  0  0  0  0
  7  2  1  0  0  0  0
 11  1  1  0  0  0  0
 12 11  2  0  0  0  0
 13 18  1  0  0  0  0
 14 15  1  0  0  0  0
 14 13  2  0  0  0  0
 15 16  2  0  0  0  0
 16 17  1  0  0  0  0
 17 11  1  0  0  0  0
 18 17  2  0  0  0  0
 19 13  1  0  0  0  0
 20 14  1  0  0  0  0
 21 15  1  0  0  0  0
 22  6  1  0  0  0  0
 22 23  2  0  0  0  0
 24 25  1  0  0  0  0
 24 23  1  0  0  0  0
 24 27  1  0  0  0  0
 26 24  1  0  0  0  0
 27 28  1  0  0  0  0
 28 29  1  0  0  0  0
 30 29  1  0  0  0  0
 31 27  1  0  0  0  0
 31 30  1  0  0  0  0
M  END
>  <minimizedAffinity>
-5.30194092

$$$$
