
 OpenBabel03272503213D

 33 36  0  0  0  0  0  0  0  0999 V2000
   38.4090   31.6590   46.9130 C   0  0  0  0  0  0  0  0  0  0  0  0
   39.3810   32.5310   46.6810 C   0  0  0  0  0  0  0  0  0  0  0  0
   39.7190   32.8230   45.4090 C   0  0  0  0  0  0  0  0  0  0  0  0
   39.0260   32.1880   44.4070 C   0  0  0  0  0  0  0  0  0  0  0  0
   37.8560   31.1430   45.3540 S   0  0  0  0  0  0  0  0  0  0  0  0
   39.8820   32.9920   47.5320 H   0  0  0  0  0  0  0  0  0  0  0  0
   40.4840   33.5090   45.0660 H   0  0  0  0  0  0  0  0  0  0  0  0
   40.9260   30.1770   43.1230 Cl  0  0  0  0  0  0  0  0  0  0  0  0
   39.9110   31.3630   42.3190 C   0  0  0  0  0  0  0  0  0  0  0  0
   39.0880   32.2280   42.9660 C   0  0  0  0  0  0  0  0  0  0  0  0
   38.2980   33.1480   42.3880 C   0  0  0  0  0  0  0  0  0  0  0  0
   38.3010   33.2530   40.9870 C   0  0  0  0  0  0  0  0  0  0  0  0
   39.1080   32.4110   40.2780 C   0  0  0  0  0  0  0  0  0  0  0  0
   39.1640   32.4800   38.5320 Cl  0  0  0  0  0  0  0  0  0  0  0  0
   39.9050   31.4760   40.9340 C   0  0  0  0  0  0  0  0  0  0  0  0
   37.6380   33.8420   42.9150 H   0  0  0  0  0  0  0  0  0  0  0  0
   37.6730   33.9870   40.4930 H   0  0  0  0  0  0  0  0  0  0  0  0
   40.5450   30.8110   40.3420 H   0  0  0  0  0  0  0  0  0  0  0  0
   37.7750   30.9980   50.5780 C   0  0  0  0  0  0  0  0  0  0  0  0
   38.3810   31.5210   49.4170 C   0  0  0  0  0  0  0  0  0  0  0  0
   37.8330   31.1530   48.1780 C   0  0  0  0  0  0  0  0  0  0  0  0
   36.7800   30.3360   48.1600 N   0  0  0  0  0  0  0  0  0  0  0  0
   36.2170   29.8490   49.2690 C   0  0  0  0  0  0  0  0  0  0  0  0
   36.7130   30.1780   50.4650 N   0  0  0  0  0  0  0  0  0  0  0  0
   38.2050   31.2870   51.5300 H   0  0  0  0  0  0  0  0  0  0  0  0
   39.2330   32.1810   49.4460 H   0  0  0  0  0  0  0  0  0  0  0  0
   35.0730   28.9670   49.1370 C   0  0  0  0  0  0  0  0  0  0  0  0
   35.1740   27.7800   49.5220 O   0  0  0  0  0  0  0  0  0  0  0  0
   33.7690   29.3790   48.5650 C   0  0  0  0  0  3  0  0  0  0  0  0
   34.0200   29.9980   47.2060 C   0  0  0  0  0  2  0  0  0  0  0  0
   34.1990   28.8210   46.2690 C   0  0  0  0  0  2  0  0  0  0  0  0
   33.7760   27.5800   47.0600 C   0  0  0  0  0  2  0  0  0  0  0  0
   32.9310   28.1710   48.1690 C   0  0  0  0  0  2  0  0  0  0  0  0
  1 21  1  0  0  0  0
  2  1  2  0  0  0  0
  2  6  1  0  0  0  0
  3  2  1  0  0  0  0
  4  5  1  0  0  0  0
  4  3  2  0  0  0  0
  5  1  1  0  0  0  0
  7  3  1  0  0  0  0
  9 10  1  0  0  0  0
  9  8  1  0  0  0  0
 10  4  1  0  0  0  0
 11 16  1  0  0  0  0
 11 10  2  0  0  0  0
 12 11  1  0  0  0  0
 13 15  1  0  0  0  0
 13 12  2  0  0  0  0
 14 13  1  0  0  0  0
 15  9  2  0  0  0  0
 17 12  1  0  0  0  0
 18 15  1  0  0  0  0
 19 25  1  0  0  0  0
 20 26  1  0  0  0  0
 20 19  2  0  0  0  0
 21 20  1  0  0  0  0
 22 21  2  0  0  0  0
 22 23  1  0  0  0  0
 23 24  2  0  0  0  0
 24 19  1  0  0  0  0
 27 23  1  0  0  0  0
 27 28  2  0  0  0  0
 29 27  1  0  0  0  0
 30 29  1  0  0  0  0
 31 32  1  0  0  0  0
 31 30  1  0  0  0  0
 32 33  1  0  0  0  0
 33 29  1  0  0  0  0
M  END
>  <minimizedAffinity>
-5.83176422

>  <minimizedRMSD>
2.48435402

$$$$
