
 OpenBabel03262520333D

 19 20  0  0  0  0  0  0  0  0999 V2000
   37.8350   25.6040   35.7190 C   0  0  0  0  0  3  0  0  0  0  0  0
   38.1930   26.8370   35.8490 C   0  0  0  0  0  3  0  0  0  0  0  0
   40.3360   23.0200   36.4340 C   0  0  0  0  0  0  0  0  0  0  0  0
   39.9650   22.6410   37.7540 C   0  0  0  0  0  0  0  0  0  0  0  0
   38.8600   23.2850   38.3680 C   0  0  0  0  0  0  0  0  0  0  0  0
   38.2330   24.2420   37.6110 N   0  0  0  0  0  0  0  0  0  0  0  0
   38.6160   24.5660   36.3750 C   0  0  0  0  0  0  0  0  0  0  0  0
   39.6600   23.9610   35.7890 N   0  0  0  0  0  0  0  0  0  0  0  0
   41.1880   22.4880   36.0290 H   0  0  0  0  0  0  0  0  0  0  0  0
   40.4580   21.8860   38.3550 H   0  0  0  0  0  0  0  0  0  0  0  0
   38.5390   23.0390   39.3530 H   0  0  0  0  0  0  0  0  0  0  0  0
   37.5660   28.0100   35.2780 C   0  0  0  0  0  0  0  0  0  0  0  0
   37.1380   28.6590   36.0720 H   0  0  0  0  0  0  0  0  0  0  0  0
   38.3890   28.6300   34.8160 H   0  0  0  0  0  0  0  0  0  0  0  0
   36.5640   27.7940   34.1870 C   0  0  0  0  0  3  0  0  0  0  0  0
   35.7790   29.1200   34.1280 C   0  0  0  0  0  2  0  0  0  0  0  0
   35.3070   29.2650   32.7170 C   0  0  0  0  0  2  0  0  0  0  0  0
   36.0230   28.2150   31.9200 C   0  0  0  0  0  2  0  0  0  0  0  0
   37.2310   27.8810   32.8060 C   0  0  0  0  0  2  0  0  0  0  0  0
  1  2  2  0  0  0  0
  1  7  1  0  0  0  0
  3  4  1  0  0  0  0
  4 10  1  0  0  0  0
  4  5  2  0  0  0  0
  5 11  1  0  0  0  0
  6  5  1  0  0  0  0
  7  6  2  0  0  0  0
  8  7  1  0  0  0  0
  8  3  2  0  0  0  0
  9  3  1  0  0  0  0
 12  2  1  0  0  0  0
 12 13  1  0  0  0  0
 14 12  1  0  0  0  0
 15 12  1  0  0  0  0
 16 15  1  0  0  0  0
 17 16  1  0  0  0  0
 18 17  1  0  0  0  0
 18 19  1  0  0  0  0
 19 15  1  0  0  0  0
M  END
>  <minimizedAffinity>
-4.36556578

$$$$

 OpenBabel03262520333D

 19 20  0  0  0  0  0  0  0  0999 V2000
   36.3040   28.3130   33.6590 C   0  0  0  0  0  3  0  0  0  0  0  0
   35.7890   29.2820   34.3390 C   0  0  0  0  0  3  0  0  0  0  0  0
   37.9900   25.1860   34.5690 C   0  0  0  0  0  0  0  0  0  0  0  0
   38.6640   25.5780   35.7600 C   0  0  0  0  0  0  0  0  0  0  0  0
   38.5220   26.9120   36.2220 C   0  0  0  0  0  0  0  0  0  0  0  0
   37.7250   27.7250   35.4560 N   0  0  0  0  0  0  0  0  0  0  0  0
   37.1110   27.3150   34.3450 C   0  0  0  0  0  0  0  0  0  0  0  0
   37.2410   26.0550   33.9030 N   0  0  0  0  0  0  0  0  0  0  0  0
   38.1430   24.1560   34.2760 H   0  0  0  0  0  0  0  0  0  0  0  0
   39.2940   24.9390   36.3660 H   0  0  0  0  0  0  0  0  0  0  0  0
   39.0040   27.2570   37.1060 H   0  0  0  0  0  0  0  0  0  0  0  0
   34.9710   30.3720   33.8540 C   0  0  0  0  0  0  0  0  0  0  0  0
   35.3720   30.7760   32.9000 H   0  0  0  0  0  0  0  0  0  0  0  0
   33.9680   29.9330   33.5780 H   0  0  0  0  0  0  0  0  0  0  0  0
   34.6730   31.4870   34.8070 C   0  0  0  0  0  3  0  0  0  0  0  0
   33.4720   30.9730   35.6270 C   0  0  0  0  0  2  0  0  0  0  0  0
   33.5660   31.6300   36.9660 C   0  0  0  0  0  2  0  0  0  0  0  0
   34.9170   32.2800   37.0250 C   0  0  0  0  0  2  0  0  0  0  0  0
   35.7040   31.5270   35.9440 C   0  0  0  0  0  2  0  0  0  0  0  0
  1  2  2  0  0  0  0
  1  7  1  0  0  0  0
  3  4  1  0  0  0  0
  4  5  2  0  0  0  0
  4 10  1  0  0  0  0
  5 11  1  0  0  0  0
  6  5  1  0  0  0  0
  7  6  2  0  0  0  0
  8  7  1  0  0  0  0
  8  3  2  0  0  0  0
  9  3  1  0  0  0  0
 12  2  1  0  0  0  0
 12 15  1  0  0  0  0
 13 12  1  0  0  0  0
 14 12  1  0  0  0  0
 15 16  1  0  0  0  0
 15 19  1  0  0  0  0
 16 17  1  0  0  0  0
 17 18  1  0  0  0  0
 19 18  1  0  0  0  0
M  END
>  <minimizedAffinity>
-4.34139538

$$$$

 OpenBabel03262520333D

 19 20  0  0  0  0  0  0  0  0999 V2000
   35.6280   29.9540   34.1250 C   0  0  0  0  0  3  0  0  0  0  0  0
   35.9040   28.7030   34.2870 C   0  0  0  0  0  3  0  0  0  0  0  0
   32.9080   31.1240   36.2870 C   0  0  0  0  0  0  0  0  0  0  0  0
   33.6020   32.0470   37.1200 C   0  0  0  0  0  0  0  0  0  0  0  0
   34.9920   32.2450   36.9160 C   0  0  0  0  0  0  0  0  0  0  0  0
   35.5570   31.5070   35.9070 N   0  0  0  0  0  0  0  0  0  0  0  0
   34.8670   30.6520   35.1500 C   0  0  0  0  0  0  0  0  0  0  0  0
   33.5520   30.4600   35.3370 N   0  0  0  0  0  0  0  0  0  0  0  0
   31.8520   31.0230   36.4990 H   0  0  0  0  0  0  0  0  0  0  0  0
   33.1590   32.6310   37.9180 H   0  0  0  0  0  0  0  0  0  0  0  0
   35.5580   32.9230   37.5110 H   0  0  0  0  0  0  0  0  0  0  0  0
   36.6340   27.8300   33.3940 C   0  0  0  0  0  0  0  0  0  0  0  0
   35.9400   27.2400   32.7580 H   0  0  0  0  0  0  0  0  0  0  0  0
   37.1900   28.4930   32.6680 H   0  0  0  0  0  0  0  0  0  0  0  0
   37.6720   26.9370   33.9980 C   0  0  0  0  0  3  0  0  0  0  0  0
   38.9420   27.2200   33.1720 C   0  0  0  0  0  2  0  0  0  0  0  0
   40.1000   26.9640   34.0810 C   0  0  0  0  0  2  0  0  0  0  0  0
   39.5300   26.8110   35.4610 C   0  0  0  0  0  2  0  0  0  0  0  0
   38.1620   27.4980   35.3410 C   0  0  0  0  0  2  0  0  0  0  0  0
  1  2  2  0  0  0  0
  1  7  1  0  0  0  0
  3  9  1  0  0  0  0
  3  4  1  0  0  0  0
  4 10  1  0  0  0  0
  5  4  2  0  0  0  0
  5 11  1  0  0  0  0
  6  5  1  0  0  0  0
  7  8  1  0  0  0  0
  7  6  2  0  0  0  0
  8  3  2  0  0  0  0
 12 15  1  0  0  0  0
 12  2  1  0  0  0  0
 13 12  1  0  0  0  0
 14 12  1  0  0  0  0
 15 19  1  0  0  0  0
 16 15  1  0  0  0  0
 16 17  1  0  0  0  0
 17 18  1  0  0  0  0
 19 18  1  0  0  0  0
M  END
>  <minimizedAffinity>
-4.31149006

$$$$

 OpenBabel03262520333D

 19 20  0  0  0  0  0  0  0  0999 V2000
   35.6120   24.2080   31.0630 C   0  0  0  0  0  3  0  0  0  0  0  0
   35.8930   23.0560   31.5730 C   0  0  0  0  0  3  0  0  0  0  0  0
   37.3450   26.5140   33.3270 C   0  0  0  0  0  0  0  0  0  0  0  0
   36.8860   27.7690   32.8390 C   0  0  0  0  0  0  0  0  0  0  0  0
   35.9900   27.7920   31.7400 C   0  0  0  0  0  0  0  0  0  0  0  0
   35.6370   26.5670   31.2340 N   0  0  0  0  0  0  0  0  0  0  0  0
   36.0920   25.4120   31.7240 C   0  0  0  0  0  0  0  0  0  0  0  0
   36.9400   25.3840   32.7630 N   0  0  0  0  0  0  0  0  0  0  0  0
   38.0260   26.5710   34.1670 H   0  0  0  0  0  0  0  0  0  0  0  0
   37.1630   28.7390   33.2360 H   0  0  0  0  0  0  0  0  0  0  0  0
   35.6160   28.7030   31.3360 H   0  0  0  0  0  0  0  0  0  0  0  0
   35.5100   21.7490   31.0840 C   0  0  0  0  0  0  0  0  0  0  0  0
   34.4060   21.6250   31.1030 H   0  0  0  0  0  0  0  0  0  0  0  0
   35.7810   21.7160   29.9880 H   0  0  0  0  0  0  0  0  0  0  0  0
   36.1770   20.5590   31.6990 C   0  0  0  0  0  3  0  0  0  0  0  0
   35.1070   19.9700   32.6400 C   0  0  0  0  0  2  0  0  0  0  0  0
   35.3820   18.5040   32.7230 C   0  0  0  0  0  2  0  0  0  0  0  0
   36.3940   18.2020   31.6570 C   0  0  0  0  0  2  0  0  0  0  0  0
   36.2470   19.3940   30.7010 C   0  0  0  0  0  2  0  0  0  0  0  0
  1  2  2  0  0  0  0
  1  7  1  0  0  0  0
  3  9  1  0  0  0  0
  4 10  1  0  0  0  0
  4  3  1  0  0  0  0
  5  4  2  0  0  0  0
  6  7  2  0  0  0  0
  6  5  1  0  0  0  0
  7  8  1  0  0  0  0
  8  3  2  0  0  0  0
 11  5  1  0  0  0  0
 12 13  1  0  0  0  0
 12  2  1  0  0  0  0
 12 15  1  0  0  0  0
 14 12  1  0  0  0  0
 15 16  1  0  0  0  0
 16 17  1  0  0  0  0
 18 17  1  0  0  0  0
 19 18  1  0  0  0  0
 19 15  1  0  0  0  0
M  END
>  <minimizedAffinity>
-4.30427933

$$$$

 OpenBabel03262520333D

 19 20  0  0  0  0  0  0  0  0999 V2000
   38.1990   24.8290   33.4350 C   0  0  0  0  0  3  0  0  0  0  0  0
   38.2570   23.7070   34.0700 C   0  0  0  0  0  3  0  0  0  0  0  0
   35.6660   26.4670   31.3490 C   0  0  0  0  0  0  0  0  0  0  0  0
   34.9950   25.3390   30.8010 C   0  0  0  0  0  0  0  0  0  0  0  0
   35.4310   24.0380   31.1630 C   0  0  0  0  0  0  0  0  0  0  0  0
   36.4910   23.9860   32.0330 N   0  0  0  0  0  0  0  0  0  0  0  0
   37.0910   25.0720   32.5240 C   0  0  0  0  0  0  0  0  0  0  0  0
   36.6840   26.3050   32.1850 N   0  0  0  0  0  0  0  0  0  0  0  0
   35.2820   27.4270   31.0300 H   0  0  0  0  0  0  0  0  0  0  0  0
   34.1590   25.3760   30.1130 H   0  0  0  0  0  0  0  0  0  0  0  0
   34.9640   23.1600   30.7830 H   0  0  0  0  0  0  0  0  0  0  0  0
   39.2690   23.2660   35.0060 C   0  0  0  0  0  0  0  0  0  0  0  0
   39.3230   22.1570   35.0410 H   0  0  0  0  0  0  0  0  0  0  0  0
   40.2670   23.5880   34.5860 H   0  0  0  0  0  0  0  0  0  0  0  0
   39.2170   23.8280   36.3920 C   0  0  0  0  0  3  0  0  0  0  0  0
   37.7360   23.6950   36.7990 C   0  0  0  0  0  2  0  0  0  0  0  0
   37.7200   23.5480   38.2860 C   0  0  0  0  0  2  0  0  0  0  0  0
   39.1430   23.3210   38.7040 C   0  0  0  0  0  2  0  0  0  0  0  0
   39.8060   22.8370   37.4070 C   0  0  0  0  0  2  0  0  0  0  0  0
  1  2  2  0  0  0  0
  2 12  1  0  0  0  0
  3  8  1  0  0  0  0
  4  5  1  0  0  0  0
  4  3  2  0  0  0  0
  5  6  2  0  0  0  0
  6  7  1  0  0  0  0
  7  1  1  0  0  0  0
  8  7  2  0  0  0  0
  9  3  1  0  0  0  0
 10  4  1  0  0  0  0
 11  5  1  0  0  0  0
 12 13  1  0  0  0  0
 12 15  1  0  0  0  0
 14 12  1  0  0  0  0
 15 16  1  0  0  0  0
 15 19  1  0  0  0  0
 16 17  1  0  0  0  0
 17 18  1  0  0  0  0
 19 18  1  0  0  0  0
M  END
>  <minimizedAffinity>
-4.14898729

$$$$

 OpenBabel03262520333D

 19 20  0  0  0  0  0  0  0  0999 V2000
   37.0800   27.2250   34.2730 C   0  0  0  0  0  3  0  0  0  0  0  0
   37.7480   27.5270   35.3360 C   0  0  0  0  0  3  0  0  0  0  0  0
   34.9170   30.0470   33.3760 C   0  0  0  0  0  0  0  0  0  0  0  0
   35.2390   30.2080   31.9990 C   0  0  0  0  0  0  0  0  0  0  0  0
   36.1950   29.3400   31.4110 C   0  0  0  0  0  0  0  0  0  0  0  0
   36.7370   28.3980   32.2480 N   0  0  0  0  0  0  0  0  0  0  0  0
   36.4050   28.2820   33.5350 C   0  0  0  0  0  0  0  0  0  0  0  0
   35.5020   29.1000   34.0970 N   0  0  0  0  0  0  0  0  0  0  0  0
   34.1820   30.7430   33.7570 H   0  0  0  0  0  0  0  0  0  0  0  0
   34.8140   30.9520   31.3350 H   0  0  0  0  0  0  0  0  0  0  0  0
   36.4730   29.4170   30.3860 H   0  0  0  0  0  0  0  0  0  0  0  0
   38.4770   26.6360   36.2110 C   0  0  0  0  0  0  0  0  0  0  0  0
   39.5670   26.6750   36.0010 H   0  0  0  0  0  0  0  0  0  0  0  0
   38.3740   27.0460   37.2590 H   0  0  0  0  0  0  0  0  0  0  0  0
   38.0140   25.2140   36.2890 C   0  0  0  0  0  3  0  0  0  0  0  0
   39.2340   24.3930   35.8240 C   0  0  0  0  0  2  0  0  0  0  0  0
   39.1360   23.0690   36.5100 C   0  0  0  0  0  2  0  0  0  0  0  0
   38.0620   23.2100   37.5490 C   0  0  0  0  0  2  0  0  0  0  0  0
   37.9750   24.7300   37.7460 C   0  0  0  0  0  2  0  0  0  0  0  0
  1  2  2  0  0  0  0
  2 12  1  0  0  0  0
  3  9  1  0  0  0  0
  3  8  1  0  0  0  0
  4  3  2  0  0  0  0
  5  4  1  0  0  0  0
  5  6  2  0  0  0  0
  6  7  1  0  0  0  0
  7  8  2  0  0  0  0
  7  1  1  0  0  0  0
 10  4  1  0  0  0  0
 11  5  1  0  0  0  0
 12 15  1  0  0  0  0
 12 14  1  0  0  0  0
 13 12  1  0  0  0  0
 15 19  1  0  0  0  0
 16 15  1  0  0  0  0
 16 17  1  0  0  0  0
 17 18  1  0  0  0  0
 18 19  1  0  0  0  0
M  END
>  <minimizedAffinity>
-4.12192774

$$$$

 OpenBabel03262520333D

 19 20  0  0  0  0  0  0  0  0999 V2000
   38.1090   26.4720   35.9260 C   0  0  0  0  0  3  0  0  0  0  0  0
   37.8730   25.2180   36.1190 C   0  0  0  0  0  3  0  0  0  0  0  0
   36.3420   28.3280   33.3030 C   0  0  0  0  0  0  0  0  0  0  0  0
   37.2150   28.1300   32.1960 C   0  0  0  0  0  0  0  0  0  0  0  0
   38.3930   27.3620   32.3800 C   0  0  0  0  0  0  0  0  0  0  0  0
   38.5890   26.8650   33.6440 N   0  0  0  0  0  0  0  0  0  0  0  0
   37.7420   27.0750   34.6530 C   0  0  0  0  0  0  0  0  0  0  0  0
   36.6260   27.8020   34.4860 N   0  0  0  0  0  0  0  0  0  0  0  0
   35.4640   28.9240   33.0910 H   0  0  0  0  0  0  0  0  0  0  0  0
   37.0640   28.5210   31.1970 H   0  0  0  0  0  0  0  0  0  0  0  0
   39.0800   27.1830   31.5860 H   0  0  0  0  0  0  0  0  0  0  0  0
   38.1640   24.4300   37.2970 C   0  0  0  0  0  0  0  0  0  0  0  0
   38.7290   25.0250   38.0450 H   0  0  0  0  0  0  0  0  0  0  0  0
   37.1750   24.2080   37.7970 H   0  0  0  0  0  0  0  0  0  0  0  0
   38.8170   23.0980   37.0920 C   0  0  0  0  0  3  0  0  0  0  0  0
   39.5880   23.2560   35.7660 C   0  0  0  0  0  2  0  0  0  0  0  0
   40.7580   22.3290   35.8470 C   0  0  0  0  0  2  0  0  0  0  0  0
   40.8270   21.8600   37.2710 C   0  0  0  0  0  2  0  0  0  0  0  0
   40.0270   22.9320   38.0220 C   0  0  0  0  0  2  0  0  0  0  0  0
  1  2  2  0  0  0  0
  2 12  1  0  0  0  0
  3  8  1  0  0  0  0
  4  5  1  0  0  0  0
  4  3  2  0  0  0  0
  5  6  2  0  0  0  0
  6  7  1  0  0  0  0
  7  1  1  0  0  0  0
  8  7  2  0  0  0  0
  9  3  1  0  0  0  0
 10  4  1  0  0  0  0
 11  5  1  0  0  0  0
 12 14  1  0  0  0  0
 12 13  1  0  0  0  0
 15 12  1  0  0  0  0
 15 19  1  0  0  0  0
 16 17  1  0  0  0  0
 16 15  1  0  0  0  0
 17 18  1  0  0  0  0
 18 19  1  0  0  0  0
M  END
>  <minimizedAffinity>
-4.11436319

$$$$

 OpenBabel03262520333D

 19 20  0  0  0  0  0  0  0  0999 V2000
   38.7840   22.4650   34.1150 C   0  0  0  0  0  3  0  0  0  0  0  0
   37.6940   22.8010   33.5110 C   0  0  0  0  0  3  0  0  0  0  0  0
   40.0630   22.6370   37.5480 C   0  0  0  0  0  0  0  0  0  0  0  0
   38.9480   23.2060   38.2240 C   0  0  0  0  0  0  0  0  0  0  0  0
   37.7800   23.5180   37.4810 C   0  0  0  0  0  0  0  0  0  0  0  0
   37.8350   23.2340   36.1400 N   0  0  0  0  0  0  0  0  0  0  0  0
   38.9030   22.6990   35.5470 C   0  0  0  0  0  0  0  0  0  0  0  0
   40.0110   22.4020   36.2430 N   0  0  0  0  0  0  0  0  0  0  0  0
   40.9190   22.4260   38.1750 H   0  0  0  0  0  0  0  0  0  0  0  0
   38.9020   23.4330   39.2830 H   0  0  0  0  0  0  0  0  0  0  0  0
   36.9180   23.9450   37.9380 H   0  0  0  0  0  0  0  0  0  0  0  0
   37.3780   22.6640   32.1060 C   0  0  0  0  0  0  0  0  0  0  0  0
   37.3460   23.6560   31.6060 H   0  0  0  0  0  0  0  0  0  0  0  0
   38.2490   22.1300   31.6240 H   0  0  0  0  0  0  0  0  0  0  0  0
   36.1660   21.8620   31.7460 C   0  0  0  0  0  3  0  0  0  0  0  0
   36.7300   20.6460   30.9840 C   0  0  0  0  0  2  0  0  0  0  0  0
   35.7690   19.5240   31.2140 C   0  0  0  0  0  2  0  0  0  0  0  0
   34.8340   19.9830   32.2930 C   0  0  0  0  0  2  0  0  0  0  0  0
   35.6230   21.1120   32.9710 C   0  0  0  0  0  2  0  0  0  0  0  0
  1  7  1  0  0  0  0
  2  1  2  0  0  0  0
  3  9  1  0  0  0  0
  3  4  1  0  0  0  0
  4 10  1  0  0  0  0
  5 11  1  0  0  0  0
  5  4  2  0  0  0  0
  6  5  1  0  0  0  0
  7  6  2  0  0  0  0
  7  8  1  0  0  0  0
  8  3  2  0  0  0  0
 12  2  1  0  0  0  0
 13 12  1  0  0  0  0
 14 12  1  0  0  0  0
 15 12  1  0  0  0  0
 15 19  1  0  0  0  0
 16 17  1  0  0  0  0
 16 15  1  0  0  0  0
 17 18  1  0  0  0  0
 18 19  1  0  0  0  0
M  END
>  <minimizedAffinity>
-4.04848528

$$$$

 OpenBabel03262520333D

 19 20  0  0  0  0  0  0  0  0999 V2000
   38.0390   22.9630   32.9780 C   0  0  0  0  0  3  0  0  0  0  0  0
   38.2410   23.3150   34.2040 C   0  0  0  0  0  3  0  0  0  0  0  0
   35.3910   21.1160   31.2400 C   0  0  0  0  0  0  0  0  0  0  0  0
   34.9220   20.2690   32.2830 C   0  0  0  0  0  0  0  0  0  0  0  0
   35.5290   20.3550   33.5630 C   0  0  0  0  0  0  0  0  0  0  0  0
   36.5430   21.2710   33.6800 N   0  0  0  0  0  0  0  0  0  0  0  0
   36.9510   22.0460   32.6740 C   0  0  0  0  0  0  0  0  0  0  0  0
   36.3810   21.9700   31.4620 N   0  0  0  0  0  0  0  0  0  0  0  0
   34.8830   20.9970   30.2920 H   0  0  0  0  0  0  0  0  0  0  0  0
   34.1220   19.5440   32.1940 H   0  0  0  0  0  0  0  0  0  0  0  0
   35.2160   19.7450   34.3780 H   0  0  0  0  0  0  0  0  0  0  0  0
   39.2640   24.2000   34.7180 C   0  0  0  0  0  0  0  0  0  0  0  0
   40.2510   23.9760   34.2600 H   0  0  0  0  0  0  0  0  0  0  0  0
   39.0110   25.2400   34.3550 H   0  0  0  0  0  0  0  0  0  0  0  0
   39.3940   24.3150   36.2050 C   0  0  0  0  0  3  0  0  0  0  0  0
   37.9680   24.6530   36.6840 C   0  0  0  0  0  2  0  0  0  0  0  0
   37.8490   24.1030   38.0680 C   0  0  0  0  0  2  0  0  0  0  0  0
   39.0530   23.2350   38.2840 C   0  0  0  0  0  2  0  0  0  0  0  0
   39.5120   22.9270   36.8520 C   0  0  0  0  0  2  0  0  0  0  0  0
  1  2  2  0  0  0  0
  2 12  1  0  0  0  0
  3  8  2  0  0  0  0
  3  4  1  0  0  0  0
  4  5  2  0  0  0  0
  5  6  1  0  0  0  0
  5 11  1  0  0  0  0
  7  1  1  0  0  0  0
  7  6  2  0  0  0  0
  8  7  1  0  0  0  0
  9  3  1  0  0  0  0
 10  4  1  0  0  0  0
 12 15  1  0  0  0  0
 13 12  1  0  0  0  0
 14 12  1  0  0  0  0
 15 16  1  0  0  0  0
 15 19  1  0  0  0  0
 16 17  1  0  0  0  0
 17 18  1  0  0  0  0
 19 18  1  0  0  0  0
M  END
>  <minimizedAffinity>
-4.00422239

$$$$
