
 OpenBabel03272503053D

 28 30  0  0  0  0  0  0  0  0999 V2000
   38.3920   30.4740   47.2790 F   0  0  0  0  0  0  0  0  0  0  0  0
   38.6970   31.6920   47.7950 C   0  0  0  0  0  0  0  0  0  0  0  0
   38.1770   32.0840   48.9950 C   0  0  0  0  0  0  0  0  0  0  0  0
   38.5260   33.3230   49.4560 C   0  0  0  0  0  0  0  0  0  0  0  0
   39.3610   34.1560   48.7640 C   0  0  0  0  0  0  0  0  0  0  0  0
   39.8800   33.7420   47.5490 C   0  0  0  0  0  0  0  0  0  0  0  0
   39.5400   32.4950   47.0650 C   0  0  0  0  0  0  0  0  0  0  0  0
   38.1150   33.6390   50.4080 H   0  0  0  0  0  0  0  0  0  0  0  0
   39.6310   35.1380   49.1380 H   0  0  0  0  0  0  0  0  0  0  0  0
   40.5530   34.3610   46.9450 H   0  0  0  0  0  0  0  0  0  0  0  0
   36.7950   29.5590   51.4650 C   0  0  0  0  0  0  0  0  0  0  0  0
   37.6710   30.4520   50.8220 C   0  0  0  0  0  0  0  0  0  0  0  0
   37.2850   31.1410   49.6900 C   0  0  0  0  0  0  0  0  0  0  0  0
   36.0270   30.9120   49.2360 N   0  0  0  0  0  0  0  0  0  0  0  0
   35.1940   30.0510   49.8600 C   0  0  0  0  0  0  0  0  0  0  0  0
   35.5660   29.3920   50.9460 N   0  0  0  0  0  0  0  0  0  0  0  0
   37.1780   29.0600   52.3460 H   0  0  0  0  0  0  0  0  0  0  0  0
   38.6690   30.6200   51.2030 H   0  0  0  0  0  0  0  0  0  0  0  0
   34.2090   29.9510   49.4010 H   0  0  0  0  0  0  0  0  0  0  0  0
   39.1650   32.2180   44.7050 C   0  0  0  0  0  0  0  0  0  0  0  0
   38.0480   32.7440   45.0030 O   0  0  0  0  0  0  0  0  0  0  0  0
   40.0590   32.0310   45.8070 N   0  0  0  0  0  0  0  0  0  0  0  0
   40.9850   31.5980   45.6630 H   0  0  0  0  0  0  0  0  0  0  0  0
   39.6550   31.7770   43.3730 C   0  0  0  0  0  0  0  0  0  0  0  0
   38.5970   31.0970   42.5650 C   0  0  0  0  0  0  0  0  0  0  0  0
   39.1170   29.6940   42.2640 C   0  0  0  0  0  0  0  0  0  0  0  0
   40.6230   29.8180   42.4190 C   0  0  0  0  0  0  0  0  0  0  0  0
   40.7200   30.7410   43.6070 C   0  0  0  0  0  0  0  0  0  0  0  0
  1  2  1  0  0  0  0
  2  3  1  0  0  0  0
  3  4  2  0  0  0  0
  3 13  1  0  0  0  0
  4  8  1  0  0  0  0
  5  9  1  0  0  0  0
  5  4  1  0  0  0  0
  6  5  2  0  0  0  0
  7  6  1  0  0  0  0
  7  2  2  0  0  0  0
 10  6  1  0  0  0  0
 11 17  1  0  0  0  0
 12 18  1  0  0  0  0
 12 11  2  0  0  0  0
 13 12  1  0  0  0  0
 14 13  2  0  0  0  0
 14 15  1  0  0  0  0
 15 16  2  0  0  0  0
 16 11  1  0  0  0  0
 19 15  1  0  0  0  0
 20 21  2  0  0  0  0
 20 22  1  0  0  0  0
 22  7  1  0  0  0  0
 23 22  1  0  0  0  0
 24 28  1  0  0  0  0
 24 20  1  0  0  0  0
 25 24  1  0  0  0  0
 26 27  1  0  0  0  0
 26 25  1  0  0  0  0
 27 28  1  0  0  0  0
M  END
>  <minimizedAffinity>
-6.53270149

>  <minimizedRMSD>
0.14919892

$$$$
