
 OpenBabel03272502253D

 26 28  0  0  0  0  0  0  0  0999 V2000
   37.5650   30.3730   51.0240 C   0  0  0  0  0  0  0  0  0  0  0  0
   38.0080   30.9650   49.8200 C   0  0  0  0  0  0  0  0  0  0  0  0
   37.3860   30.5650   48.6420 C   0  0  0  0  0  0  0  0  0  0  0  0
   36.4080   29.6420   48.7370 N   0  0  0  0  0  0  0  0  0  0  0  0
   36.0030   29.0920   49.9040 C   0  0  0  0  0  0  0  0  0  0  0  0
   36.5890   29.4630   51.0500 N   0  0  0  0  0  0  0  0  0  0  0  0
   38.0380   30.6730   51.9490 H   0  0  0  0  0  0  0  0  0  0  0  0
   38.7890   31.6960   49.7770 H   0  0  0  0  0  0  0  0  0  0  0  0
   37.7410   31.0830   47.3360 C   0  0  0  0  0  0  0  0  0  0  0  0
   37.0250   30.7590   46.2080 C   0  0  0  0  0  0  0  0  0  0  0  0
   37.3360   31.2350   44.9510 C   0  0  0  0  0  0  0  0  0  0  0  0
   38.4030   32.0670   44.8140 N   0  0  0  0  0  0  0  0  0  0  0  0
   39.0880   32.3740   45.9160 C   0  0  0  0  0  0  0  0  0  0  0  0
   38.7960   31.9190   47.1390 N   0  0  0  0  0  0  0  0  0  0  0  0
   36.1830   30.0910   46.3700 H   0  0  0  0  0  0  0  0  0  0  0  0
   36.7700   30.9730   44.0820 H   0  0  0  0  0  0  0  0  0  0  0  0
   40.2630   33.2840   45.7930 C   0  0  0  0  0  0  0  0  0  0  0  0
   40.3860   33.9910   46.9820 F   0  0  0  0  0  0  0  0  0  0  0  0
   41.4200   32.5500   45.5380 F   0  0  0  0  0  0  0  0  0  0  0  0
   40.1120   34.1920   44.7990 F   0  0  0  0  0  0  0  0  0  0  0  0
   34.9920   28.1690   49.7890 O   0  0  0  0  0  0  0  0  0  0  0  0
   33.8990   28.2250   48.9510 C   0  0  0  0  0  0  0  0  0  0  0  0
   33.9830   27.0480   47.9960 C   0  0  0  0  0  0  0  0  0  0  0  0
   33.6110   27.5580   46.6260 C   0  0  0  0  0  0  0  0  0  0  0  0
   32.9630   28.9190   46.9070 C   0  0  0  0  0  0  0  0  0  0  0  0
   33.8510   29.4030   48.0360 C   0  0  0  0  0  0  0  0  0  0  0  0
  1  6  1  0  0  0  0
  1  7  1  0  0  0  0
  2  1  2  0  0  0  0
  3  4  2  0  0  0  0
  3  2  1  0  0  0  0
  4  5  1  0  0  0  0
  5  6  2  0  0  0  0
  8  2  1  0  0  0  0
  9  3  1  0  0  0  0
 10 15  1  0  0  0  0
 10  9  2  0  0  0  0
 11 10  1  0  0  0  0
 12 11  2  0  0  0  0
 12 13  1  0  0  0  0
 13 14  2  0  0  0  0
 14  9  1  0  0  0  0
 16 11  1  0  0  0  0
 17 13  1  0  0  0  0
 17 18  1  0  0  0  0
 19 17  1  0  0  0  0
 20 17  1  0  0  0  0
 21  5  1  0  0  0  0
 22 21  1  0  0  0  0
 23 22  1  0  0  0  0
 24 25  1  0  0  0  0
 24 23  1  0  0  0  0
 25 26  1  0  0  0  0
 26 22  1  0  0  0  0
M  END
>  <minimizedAffinity>
-6.61767292

>  <minimizedRMSD>
0.799150527

$$$$
