
 OpenBabel03272504173D

 22 23  0  0  0  0  0  0  0  0999 V2000
   35.8030   30.5860   49.3250 C   0  0  0  0  0  0  0  0  0  0  0  0
   36.0760   29.8990   50.4940 C   0  0  0  0  0  0  0  0  0  0  0  0
   37.3280   30.0420   51.0680 C   0  0  0  0  0  0  0  0  0  0  0  0
   38.2510   30.8530   50.4660 N   0  0  0  0  0  0  0  0  0  0  0  0
   37.9400   31.5100   49.3160 C   0  0  0  0  0  0  0  0  0  0  0  0
   36.7170   31.3820   48.7380 N   0  0  0  0  0  0  0  0  0  0  0  0
   37.4980   29.5000   51.9620 H   0  0  0  0  0  0  0  0  0  0  0  0
   38.6900   32.1580   48.8440 H   0  0  0  0  0  0  0  0  0  0  0  0
   35.0100   29.1070   50.9790 N   0  0  0  0  0  0  0  0  0  0  0  0
   35.1920   28.1610   50.5490 H   0  0  0  0  0  0  0  0  0  0  0  0
   34.2250   29.4100   51.6220 H   0  0  0  0  0  0  0  0  0  0  0  0
   34.6050   30.5610   48.6110 O   0  0  0  0  0  0  0  0  0  0  0  0
   35.2400   29.6560   46.1700 O   0  0  0  0  0  0  0  0  0  0  0  0
   34.3270   29.4320   47.3350 P   0  0  1  0  0  0  0  0  0  0  0  0
   34.5560   27.8920   48.0100 O   0  0  0  0  0  0  0  0  0  0  0  0
   34.2190   27.8280   48.9200 H   0  0  0  0  0  0  0  0  0  0  0  0
   32.7540   29.6320   46.7430 O   0  0  0  0  0  0  0  0  0  0  0  0
   31.9500   28.5250   47.0200 C   0  0  0  0  0  3  0  0  0  0  0  0
   32.3100   27.8920   48.3530 C   0  0  0  0  0  2  0  0  0  0  0  0
   31.6630   26.5160   48.1860 C   0  0  0  0  0  2  0  0  0  0  0  0
   31.9900   26.1630   46.7520 C   0  0  0  0  0  2  0  0  0  0  0  0
   32.3530   27.4330   46.0450 C   0  0  0  0  0  2  0  0  0  0  0  0
  1  2  1  0  0  0  0
  2  9  1  0  0  0  0
  2  3  2  0  0  0  0
  3  7  1  0  0  0  0
  4  3  1  0  0  0  0
  5  4  2  0  0  0  0
  6  5  1  0  0  0  0
  6  1  2  0  0  0  0
  8  5  1  0  0  0  0
  9 11  1  0  0  0  0
 10  9  1  0  0  0  0
 12  1  1  0  0  0  0
 14 13  2  6  0  0  0
 14 15  1  0  0  0  0
 14 12  1  0  0  0  0
 15 16  1  0  0  0  0
 17 18  1  0  0  0  0
 17 14  1  0  0  0  0
 18 19  1  0  0  0  0
 20 19  1  0  0  0  0
 21 20  1  0  0  0  0
 22 21  1  0  0  0  0
 22 18  1  0  0  0  0
M  END
>  <minimizedAffinity>
-3.97602606

>  <minimizedRMSD>
1.20945859

$$$$
