
 OpenBabel03272509313D

 34 36  0  0  1  0  0  0  0  0999 V2000
   36.3140   30.6950   48.9930 C   0  0  2  0  0  0  0  0  0  0  0  0
   37.2560   31.5890   49.7380 C   0  0  0  0  0  0  0  0  0  0  0  0
   38.1500   30.8350   50.6970 C   0  0  0  0  0  0  0  0  0  0  0  0
   37.3290   30.0040   51.6750 C   0  0  0  0  0  0  0  0  0  0  0  0
   36.0700   29.4230   51.0830 C   0  0  0  0  0  0  0  0  0  0  0  0
   36.2640   29.3200   49.5600 C   0  0  1  0  0  0  0  0  0  0  0  0
   35.2460   31.0550   48.9850 H   0  0  0  0  0  0  0  0  0  0  0  0
   36.5770   32.1970   50.4260 H   0  0  0  0  0  0  0  0  0  0  0  0
   37.8030   32.3210   49.1760 H   0  0  0  0  0  0  0  0  0  0  0  0
   38.9290   30.2360   50.2140 H   0  0  0  0  0  0  0  0  0  0  0  0
   38.6520   31.6130   51.3080 H   0  0  0  0  0  0  0  0  0  0  0  0
   37.1510   30.5180   52.6340 H   0  0  0  0  0  0  0  0  0  0  0  0
   37.9810   29.1260   51.9340 H   0  0  0  0  0  0  0  0  0  0  0  0
   35.8590   28.4110   51.4840 H   0  0  0  0  0  0  0  0  0  0  0  0
   35.2390   30.0930   51.3220 H   0  0  0  0  0  0  0  0  0  0  0  0
   37.2070   28.8350   49.5180 H   0  0  0  0  0  0  0  0  0  0  0  0
   36.6790   30.6090   47.5520 C   0  0  0  0  0  0  0  0  0  0  0  0
   38.0400   30.7940   47.2610 C   0  0  0  0  0  0  0  0  0  0  0  0
   38.4010   30.7150   45.9110 C   0  0  0  0  0  0  0  0  0  0  0  0
   37.4300   30.4650   44.9710 N   0  0  0  0  0  0  0  0  0  0  0  0
   36.1120   30.2910   45.3150 C   0  0  0  0  0  0  0  0  0  0  0  0
   35.7570   30.3670   46.6100 N   0  0  0  0  0  0  0  0  0  0  0  0
   38.8830   30.9840   47.8930 H   0  0  0  0  0  0  0  0  0  0  0  0
   39.3990   30.8350   45.5320 H   0  0  0  0  0  0  0  0  0  0  0  0
   35.4100   30.0990   44.5280 H   0  0  0  0  0  0  0  0  0  0  0  0
   33.9770   28.3260   49.0950 C   0  0  0  0  0  0  0  0  0  0  0  0
   33.1720   28.9910   49.8060 O   0  0  0  0  0  0  0  0  0  0  0  0
   35.3790   28.4270   48.9070 N   0  0  0  0  0  0  0  0  0  0  0  0
   35.6790   27.7060   48.1760 H   0  0  0  0  0  0  0  0  0  0  0  0
   33.0960   27.3250   48.4280 C   0  0  0  0  0  3  0  0  0  0  0  0
   31.6480   27.6320   48.5900 C   0  0  0  0  0  2  0  0  0  0  0  0
   31.1000   27.7540   47.1720 C   0  0  0  0  0  2  0  0  0  0  0  0
   31.9810   26.7780   46.4270 C   0  0  0  0  0  2  0  0  0  0  0  0
   33.3600   27.2070   46.9440 C   0  0  0  0  0  2  0  0  0  0  0  0
  1  7  1  1  0  0  0
  1  6  1  0  0  0  0
  1  2  1  0  0  0  0
  2  8  1  0  0  0  0
  2  3  1  0  0  0  0
  3 11  1  0  0  0  0
  3  4  1  0  0  0  0
  4 13  1  0  0  0  0
  4 12  1  0  0  0  0
  5 15  1  0  0  0  0
  5 14  1  0  0  0  0
  5  4  1  0  0  0  0
  6 16  1  6  0  0  0
  6  5  1  0  0  0  0
  9  2  1  0  0  0  0
 10  3  1  0  0  0  0
 17  1  1  0  0  0  0
 18 17  1  0  0  0  0
 18 23  1  0  0  0  0
 19 18  2  0  0  0  0
 20 21  2  0  0  0  0
 20 19  1  0  0  0  0
 21 22  1  0  0  0  0
 22 17  2  0  0  0  0
 24 19  1  0  0  0  0
 25 21  1  0  0  0  0
 26 27  2  0  0  0  0
 28 26  1  0  0  0  0
 28  6  1  0  0  0  0
 29 28  1  0  0  0  0
 30 31  1  0  0  0  0
 30 26  1  0  0  0  0
 32 31  1  0  0  0  0
 33 34  1  0  0  0  0
 33 32  1  0  0  0  0
 34 30  1  0  0  0  0
M  END
>  <minimizedAffinity>
-5.94399261

>  <minimizedRMSD>
0.406289488

$$$$
