
 OpenBabel03272509313D

 34 36  0  0  1  0  0  0  0  0999 V2000
   36.5370   30.8330   48.8720 C   0  0  2  0  0  0  0  0  0  0  0  0
   37.4520   31.5230   49.8340 C   0  0  0  0  0  0  0  0  0  0  0  0
   38.0820   30.5770   50.8310 C   0  0  0  0  0  0  0  0  0  0  0  0
   37.0190   29.7900   51.5890 C   0  0  0  0  0  0  0  0  0  0  0  0
   35.8080   29.4400   50.7640 C   0  0  0  0  0  0  0  0  0  0  0  0
   36.2260   29.4370   49.2820 C   0  0  1  0  0  0  0  0  0  0  0  0
   35.5370   31.3360   48.7450 H   0  0  0  0  0  0  0  0  0  0  0  0
   36.7550   32.1610   50.4740 H   0  0  0  0  0  0  0  0  0  0  0  0
   38.1690   32.2160   49.4360 H   0  0  0  0  0  0  0  0  0  0  0  0
   38.8470   29.9160   50.4090 H   0  0  0  0  0  0  0  0  0  0  0  0
   38.5740   31.2250   51.5850 H   0  0  0  0  0  0  0  0  0  0  0  0
   36.7570   30.2440   52.5590 H   0  0  0  0  0  0  0  0  0  0  0  0
   37.5080   28.8120   51.8500 H   0  0  0  0  0  0  0  0  0  0  0  0
   35.4110   28.4380   51.0230 H   0  0  0  0  0  0  0  0  0  0  0  0
   35.0390   30.1970   50.9450 H   0  0  0  0  0  0  0  0  0  0  0  0
   37.0960   28.8300   49.3300 H   0  0  0  0  0  0  0  0  0  0  0  0
   37.1120   30.8150   47.4990 C   0  0  0  0  0  0  0  0  0  0  0  0
   38.4960   31.0390   47.4200 C   0  0  0  0  0  0  0  0  0  0  0  0
   39.0540   31.0240   46.1370 C   0  0  0  0  0  0  0  0  0  0  0  0
   38.2380   30.7950   45.0540 N   0  0  0  0  0  0  0  0  0  0  0  0
   36.8890   30.5810   45.1920 C   0  0  0  0  0  0  0  0  0  0  0  0
   36.3450   30.5940   46.4220 N   0  0  0  0  0  0  0  0  0  0  0  0
   39.2310   31.2180   48.1770 H   0  0  0  0  0  0  0  0  0  0  0  0
   40.0930   31.1790   45.9140 H   0  0  0  0  0  0  0  0  0  0  0  0
   36.3150   30.4080   44.3030 H   0  0  0  0  0  0  0  0  0  0  0  0
   33.9900   28.4140   48.6590 C   0  0  0  0  0  0  0  0  0  0  0  0
   33.2150   28.6950   49.6150 O   0  0  0  0  0  0  0  0  0  0  0  0
   35.3510   28.7310   48.4190 N   0  0  0  0  0  0  0  0  0  0  0  0
   35.6290   28.3480   47.4600 H   0  0  0  0  0  0  0  0  0  0  0  0
   33.1270   27.6130   47.7440 C   0  0  0  0  0  3  0  0  0  0  0  0
   33.8160   26.4090   47.2070 C   0  0  0  0  0  2  0  0  0  0  0  0
   32.9510   25.2250   47.6310 C   0  0  0  0  0  2  0  0  0  0  0  0
   31.5730   25.8460   47.6260 C   0  0  0  0  0  2  0  0  0  0  0  0
   31.8550   27.1360   48.4070 C   0  0  0  0  0  2  0  0  0  0  0  0
  1  7  1  6  0  0  0
  1  6  1  0  0  0  0
  1  2  1  0  0  0  0
  2  8  1  0  0  0  0
  2  3  1  0  0  0  0
  3 11  1  0  0  0  0
  3  4  1  0  0  0  0
  4 13  1  0  0  0  0
  4 12  1  0  0  0  0
  5 15  1  0  0  0  0
  5 14  1  0  0  0  0
  5  4  1  0  0  0  0
  6 16  1  6  0  0  0
  6  5  1  0  0  0  0
  9  2  1  0  0  0  0
 10  3  1  0  0  0  0
 17  1  1  0  0  0  0
 18 17  1  0  0  0  0
 18 23  1  0  0  0  0
 19 18  2  0  0  0  0
 20 21  2  0  0  0  0
 20 19  1  0  0  0  0
 21 22  1  0  0  0  0
 22 17  2  0  0  0  0
 24 19  1  0  0  0  0
 25 21  1  0  0  0  0
 26 27  2  0  0  0  0
 28 26  1  0  0  0  0
 28  6  1  0  0  0  0
 29 28  1  0  0  0  0
 30 34  1  0  0  0  0
 30 26  1  0  0  0  0
 31 32  1  0  0  0  0
 31 30  1  0  0  0  0
 33 32  1  0  0  0  0
 33 34  1  0  0  0  0
M  END
>  <minimizedAffinity>
-6.06945086

>  <minimizedRMSD>
1.18402421

$$$$
