
 OpenBabel03272504173D

 22 23  0  0  0  0  0  0  0  0999 V2000
   35.9890   30.7810   49.5220 C   0  0  0  0  0  0  0  0  0  0  0  0
   36.2090   29.9340   50.5930 C   0  0  0  0  0  0  0  0  0  0  0  0
   37.4550   29.9430   51.1980 C   0  0  0  0  0  0  0  0  0  0  0  0
   38.4230   30.7850   50.7220 N   0  0  0  0  0  0  0  0  0  0  0  0
   38.1630   31.6020   49.6650 C   0  0  0  0  0  0  0  0  0  0  0  0
   36.9470   31.6060   49.0580 N   0  0  0  0  0  0  0  0  0  0  0  0
   37.5840   29.2810   52.0130 H   0  0  0  0  0  0  0  0  0  0  0  0
   38.9490   32.2720   49.2940 H   0  0  0  0  0  0  0  0  0  0  0  0
   35.1010   29.1330   50.9530 N   0  0  0  0  0  0  0  0  0  0  0  0
   35.2500   28.2460   50.4030 H   0  0  0  0  0  0  0  0  0  0  0  0
   34.3170   29.3830   51.6190 H   0  0  0  0  0  0  0  0  0  0  0  0
   34.8050   30.9050   48.7940 O   0  0  0  0  0  0  0  0  0  0  0  0
   35.5950   30.0600   46.3770 O   0  0  0  0  0  0  0  0  0  0  0  0
   34.4950   29.9530   47.3880 P   0  0  1  0  0  0  0  0  0  0  0  0
   34.3100   28.3570   47.9300 O   0  0  0  0  0  0  0  0  0  0  0  0
   33.8380   28.3020   48.7790 H   0  0  0  0  0  0  0  0  0  0  0  0
   33.0970   30.5240   46.6210 O   0  0  0  0  0  0  0  0  0  0  0  0
   32.4040   29.4990   45.9770 C   0  0  0  0  0  3  0  0  0  0  0  0
   32.0870   28.3550   46.9240 C   0  0  0  0  0  2  0  0  0  0  0  0
   31.7890   27.2410   45.9190 C   0  0  0  0  0  2  0  0  0  0  0  0
   32.8560   27.4460   44.8660 C   0  0  0  0  0  2  0  0  0  0  0  0
   33.3810   28.8410   45.0200 C   0  0  0  0  0  2  0  0  0  0  0  0
  1  2  1  0  0  0  0
  2  9  1  0  0  0  0
  2  3  2  0  0  0  0
  3  7  1  0  0  0  0
  4  3  1  0  0  0  0
  5  4  2  0  0  0  0
  6  1  2  0  0  0  0
  6  5  1  0  0  0  0
  8  5  1  0  0  0  0
  9 11  1  0  0  0  0
 10  9  1  0  0  0  0
 12  1  1  0  0  0  0
 14 13  2  6  0  0  0
 14 15  1  0  0  0  0
 14 12  1  0  0  0  0
 15 16  1  0  0  0  0
 17 14  1  0  0  0  0
 18 17  1  0  0  0  0
 18 19  1  0  0  0  0
 20 19  1  0  0  0  0
 21 22  1  0  0  0  0
 21 20  1  0  0  0  0
 22 18  1  0  0  0  0
M  END
>  <minimizedAffinity>
-3.74933815

>  <minimizedRMSD>
0.446618408

$$$$
