
 OpenBabel03272507163D

 22 24  0  0  1  0  0  0  0  0999 V2000
   36.7080   31.2740   50.3470 C   0  0  1  0  0  0  0  0  0  0  0  0
   36.2190   29.9100   50.3760 C   0  0  2  0  0  0  0  0  0  0  0  0
   37.3680   30.2670   51.2970 C   0  0  0  0  0  0  0  0  0  0  0  0
   36.2300   32.1120   50.9210 H   0  0  0  0  0  0  0  0  0  0  0  0
   35.2390   29.6980   50.8230 H   0  0  0  0  0  0  0  0  0  0  0  0
   37.0910   30.3120   52.3660 H   0  0  0  0  0  0  0  0  0  0  0  0
   38.3720   29.9150   51.0810 H   0  0  0  0  0  0  0  0  0  0  0  0
   37.6560   31.7330   49.2640 C   0  0  0  0  0  0  0  0  0  0  0  0
   38.2190   32.9960   49.4560 C   0  0  0  0  0  0  0  0  0  0  0  0
   39.0770   33.4290   48.4340 C   0  0  0  0  0  0  0  0  0  0  0  0
   39.3170   32.6300   47.3360 N   0  0  0  0  0  0  0  0  0  0  0  0
   38.7320   31.4010   47.2130 C   0  0  0  0  0  0  0  0  0  0  0  0
   37.8940   30.9470   48.1840 N   0  0  0  0  0  0  0  0  0  0  0  0
   38.0040   33.5890   50.3310 H   0  0  0  0  0  0  0  0  0  0  0  0
   39.5440   34.3940   48.5210 H   0  0  0  0  0  0  0  0  0  0  0  0
   38.9670   30.8370   46.3310 H   0  0  0  0  0  0  0  0  0  0  0  0
   36.5320   29.0530   49.3120 O   0  0  0  0  0  0  0  0  0  0  0  0
   35.3280   28.5340   48.8630 C   0  0  0  0  0  3  0  0  0  0  0  0
   34.1980   28.6690   49.8630 C   0  0  0  0  0  2  0  0  0  0  0  0
   33.0300   28.2070   48.9790 C   0  0  0  0  0  2  0  0  0  0  0  0
   33.3770   28.7030   47.5760 C   0  0  0  0  0  2  0  0  0  0  0  0
   34.7580   29.3370   47.6980 C   0  0  0  0  0  2  0  0  0  0  0  0
  1  2  1  0  0  0  0
  1  4  1  1  0  0  0
  1  3  1  0  0  0  0
  2  5  1  1  0  0  0
  2  3  1  0  0  0  0
  3  6  1  0  0  0  0
  7  3  1  0  0  0  0
  8  9  1  0  0  0  0
  8  1  1  0  0  0  0
  9 14  1  0  0  0  0
 10 15  1  0  0  0  0
 10  9  2  0  0  0  0
 11 10  1  0  0  0  0
 12 11  2  0  0  0  0
 12 13  1  0  0  0  0
 13  8  2  0  0  0  0
 16 12  1  0  0  0  0
 17  2  1  0  0  0  0
 18 17  1  0  0  0  0
 18 19  1  0  0  0  0
 20 19  1  0  0  0  0
 21 22  1  0  0  0  0
 21 20  1  0  0  0  0
 22 18  1  0  0  0  0
M  END
>  <minimizedAffinity>
-5.16770029

>  <minimizedRMSD>
0.908588827

$$$$
