
 OpenBabel03272507303D

 25 27  0  0  0  0  0  0  0  0999 V2000
   35.9590   29.5590   49.8360 C   0  0  0  0  0  0  0  0  0  0  0  0
   34.7830   29.5560   50.5070 C   0  0  0  0  0  0  0  0  0  0  0  0
   33.8670   28.7820   49.7950 C   0  0  0  0  0  0  0  0  0  0  0  0
   34.5890   28.3370   48.6660 C   0  0  0  0  0  0  0  0  0  0  0  0
   35.7740   28.8350   48.7820 O   0  0  0  0  0  0  0  0  0  0  0  0
   34.5440   30.0510   51.4390 H   0  0  0  0  0  0  0  0  0  0  0  0
   32.8470   28.5540   50.0180 H   0  0  0  0  0  0  0  0  0  0  0  0
   37.1320   30.2710   50.3010 C   0  0  0  0  0  0  0  0  0  0  0  0
   37.4900   30.1330   51.4790 O   0  0  0  0  0  0  0  0  0  0  0  0
   37.8190   31.1130   49.3310 C   0  0  0  0  0  0  0  0  0  0  0  0
   38.0900   32.4250   49.7210 C   0  0  0  0  0  0  0  0  0  0  0  0
   38.7420   33.2620   48.8280 C   0  0  0  0  0  0  0  0  0  0  0  0
   39.0820   32.7400   47.6040 N   0  0  0  0  0  0  0  0  0  0  0  0
   38.8120   31.4820   47.2510 C   0  0  0  0  0  0  0  0  0  0  0  0
   38.1810   30.6620   48.1080 N   0  0  0  0  0  0  0  0  0  0  0  0
   37.7950   32.7780   50.7020 H   0  0  0  0  0  0  0  0  0  0  0  0
   38.9510   34.2740   49.1280 H   0  0  0  0  0  0  0  0  0  0  0  0
   39.1230   31.1690   46.2620 H   0  0  0  0  0  0  0  0  0  0  0  0
   34.0230   27.4790   47.6160 C   0  0  0  0  0  0  0  0  0  0  0  0
   33.7730   26.2690   47.8680 O   0  0  0  0  0  0  0  0  0  0  0  0
   33.7830   28.1080   46.3110 C   0  0  0  0  0  3  0  0  0  0  0  0
   32.3440   28.6020   46.1620 C   0  0  0  0  0  2  0  0  0  0  0  0
   32.3400   28.9720   44.6900 C   0  0  0  0  0  2  0  0  0  0  0  0
   33.4090   28.0870   44.0330 C   0  0  0  0  0  2  0  0  0  0  0  0
   33.8010   27.1270   45.1640 C   0  0  0  0  0  2  0  0  0  0  0  0
  1  8  1  0  0  0  0
  1  2  2  0  0  0  0
  2  6  1  0  0  0  0
  3  7  1  0  0  0  0
  3  2  1  0  0  0  0
  4  5  1  0  0  0  0
  4  3  2  0  0  0  0
  5  1  1  0  0  0  0
  8  9  2  0  0  0  0
 10 11  1  0  0  0  0
 10  8  1  0  0  0  0
 11 16  1  0  0  0  0
 12 17  1  0  0  0  0
 12 11  2  0  0  0  0
 13 12  1  0  0  0  0
 14 13  2  0  0  0  0
 14 15  1  0  0  0  0
 15 10  2  0  0  0  0
 18 14  1  0  0  0  0
 19 20  2  0  0  0  0
 19  4  1  0  0  0  0
 21 19  1  0  0  0  0
 22 21  1  0  0  0  0
 23 22  1  0  0  0  0
 24 23  1  0  0  0  0
 24 25  1  0  0  0  0
 25 21  1  0  0  0  0
M  END
>  <minimizedAffinity>
-5.07380819

>  <minimizedRMSD>
1.71796227

$$$$
