
 OpenBabel03272504183D

 22 23  0  0  0  0  0  0  0  0999 V2000
   35.8290   30.5720   49.3910 C   0  0  0  0  0  0  0  0  0  0  0  0
   36.2290   29.9980   50.5840 C   0  0  0  0  0  0  0  0  0  0  0  0
   37.5150   30.2410   51.0370 C   0  0  0  0  0  0  0  0  0  0  0  0
   38.3450   31.0370   50.2960 N   0  0  0  0  0  0  0  0  0  0  0  0
   37.9100   31.5810   49.1260 C   0  0  0  0  0  0  0  0  0  0  0  0
   36.6530   31.3540   48.6660 N   0  0  0  0  0  0  0  0  0  0  0  0
   37.7830   29.7840   51.9530 H   0  0  0  0  0  0  0  0  0  0  0  0
   38.5870   32.2180   48.5420 H   0  0  0  0  0  0  0  0  0  0  0  0
   35.2460   29.2050   51.2200 N   0  0  0  0  0  0  0  0  0  0  0  0
   35.4380   28.2350   50.8530 H   0  0  0  0  0  0  0  0  0  0  0  0
   34.5010   29.5280   51.9000 H   0  0  0  0  0  0  0  0  0  0  0  0
   34.5800   30.4370   48.7850 O   0  0  0  0  0  0  0  0  0  0  0  0
   34.9440   29.3670   46.3550 O   0  0  0  0  0  0  0  0  0  0  0  0
   34.2430   29.1690   47.6630 P   0  0  1  0  0  0  0  0  0  0  0  0
   34.7380   27.7310   48.4150 O   0  0  0  0  0  0  0  0  0  0  0  0
   34.5470   27.7220   49.3690 H   0  0  0  0  0  0  0  0  0  0  0  0
   32.5870   29.1580   47.3110 O   0  0  0  0  0  0  0  0  0  0  0  0
   32.0300   27.8880   47.4720 C   0  0  0  0  0  0  0  0  0  0  0  0
   30.7920   27.7060   46.6120 C   0  0  0  0  0  0  0  0  0  0  0  0
   30.1510   26.5020   47.3050 C   0  0  0  0  0  0  0  0  0  0  0  0
   30.3560   26.8120   48.7710 C   0  0  0  0  0  0  0  0  0  0  0  0
   31.4410   27.8400   48.8700 C   0  0  0  0  0  0  0  0  0  0  0  0
  1  2  1  0  0  0  0
  2  3  2  0  0  0  0
  2  9  1  0  0  0  0
  3  7  1  0  0  0  0
  4  3  1  0  0  0  0
  5  4  2  0  0  0  0
  6  5  1  0  0  0  0
  6  1  2  0  0  0  0
  8  5  1  0  0  0  0
  9 11  1  0  0  0  0
 10  9  1  0  0  0  0
 12  1  1  0  0  0  0
 14 13  2  6  0  0  0
 14 15  1  0  0  0  0
 14 12  1  0  0  0  0
 15 16  1  0  0  0  0
 17 18  1  0  0  0  0
 17 14  1  0  0  0  0
 18 22  1  0  0  0  0
 19 20  1  0  0  0  0
 19 18  1  0  0  0  0
 20 21  1  0  0  0  0
 21 22  1  0  0  0  0
M  END
>  <minimizedAffinity>
-3.9816668

>  <minimizedRMSD>
1.54226196

$$$$
