
 OpenBabel03262521023D

 33 35  0  0  1  0  0  0  0  0999 V2000
   37.7870   26.5060   32.2020 N   0  0  0  0  0  0  0  0  0  0  0  0
   36.3610   26.4870   32.0890 C   0  0  1  0  0  0  0  0  0  0  0  0
   35.8990   27.6910   31.3030 C   0  0  0  0  0  0  0  0  0  0  0  0
   36.5330   27.6070   29.9820 N   0  0  0  0  0  0  0  0  0  0  0  0
   37.9590   27.8620   30.2270 C   0  0  0  0  0  0  0  0  0  0  0  0
   38.4820   26.6360   30.9650 C   0  0  2  0  0  0  0  0  0  0  0  0
   38.1850   25.8470   32.8740 H   0  0  0  0  0  0  0  0  0  0  0  0
   35.9160   26.5060   33.0860 H   0  0  0  0  0  0  0  0  0  0  0  0
   34.8100   27.6450   31.1320 H   0  0  0  0  0  0  0  0  0  0  0  0
   36.2120   28.6460   31.7500 H   0  0  0  0  0  0  0  0  0  0  0  0
   36.3770   26.6920   29.5430 H   0  0  0  0  0  0  0  0  0  0  0  0
   38.5140   27.9430   29.2550 H   0  0  0  0  0  0  0  0  0  0  0  0
   38.0720   28.7560   30.8420 H   0  0  0  0  0  0  0  0  0  0  0  0
   39.5430   26.7990   31.1660 H   0  0  0  0  0  0  0  0  0  0  0  0
   38.3380   25.4970   30.0800 N   0  0  0  0  0  0  0  0  0  0  0  0
   39.2360   24.9280   30.0890 H   0  0  0  0  0  0  0  0  0  0  0  0
   38.2440   25.7870   29.0610 H   0  0  0  0  0  0  0  0  0  0  0  0
   35.7690   25.0160   31.1700 S   0  0  0  0  0  0  0  0  0  0  0  0
   36.1450   21.2270   32.5410 C   0  0  0  0  0  0  0  0  0  0  0  0
   35.6680   22.3210   31.8390 C   0  0  0  0  0  0  0  0  0  0  0  0
   36.2740   23.5350   32.0050 C   0  0  0  0  0  0  0  0  0  0  0  0
   37.3510   23.6270   32.8730 N   0  0  0  0  0  0  0  0  0  0  0  0
   37.7730   22.5460   33.5260 C   0  0  0  0  0  0  0  0  0  0  0  0
   37.1850   21.3460   33.3720 N   0  0  0  0  0  0  0  0  0  0  0  0
   35.6480   20.2730   32.3950 H   0  0  0  0  0  0  0  0  0  0  0  0
   34.8400   22.2290   31.1770 H   0  0  0  0  0  0  0  0  0  0  0  0
   38.9020   22.6310   34.4410 C   0  0  0  0  0  0  0  0  0  0  0  0
   40.0450   23.0120   34.0500 O   0  0  0  0  0  0  0  0  0  0  0  0
   38.7240   22.2590   35.8860 C   0  0  0  0  0  3  0  0  0  0  0  0
   37.7830   23.2720   36.4950 C   0  0  0  0  0  2  0  0  0  0  0  0
   38.2870   23.4030   37.8990 C   0  0  0  0  0  2  0  0  0  0  0  0
   39.7280   23.0090   37.9200 C   0  0  0  0  0  2  0  0  0  0  0  0
   40.0300   22.3440   36.6080 C   0  0  0  0  0  2  0  0  0  0  0  0
  1  7  1  0  0  0  0
  2  1  1  0  0  0  0
  2  8  1  1  0  0  0
  3 10  1  0  0  0  0
  3  2  1  0  0  0  0
  4  5  1  0  0  0  0
  4  3  1  0  0  0  0
  5 13  1  0  0  0  0
  5  6  1  0  0  0  0
  6 14  1  1  0  0  0
  6  1  1  0  0  0  0
  9  3  1  0  0  0  0
 11  4  1  0  0  0  0
 12  5  1  0  0  0  0
 15 16  1  0  0  0  0
 15  6  1  0  0  0  0
 17 15  1  0  0  0  0
 18 21  1  0  0  0  0
 18  2  1  0  0  0  0
 19 24  1  0  0  0  0
 20 21  1  0  0  0  0
 20 19  2  0  0  0  0
 21 22  2  0  0  0  0
 22 23  1  0  0  0  0
 23 27  1  0  0  0  0
 24 23  2  0  0  0  0
 25 19  1  0  0  0  0
 26 20  1  0  0  0  0
 27 29  1  0  0  0  0
 28 27  2  0  0  0  0
 29 30  1  0  0  0  0
 29 33  1  0  0  0  0
 30 31  1  0  0  0  0
 31 32  1  0  0  0  0
 33 32  1  0  0  0  0
M  END
>  <minimizedAffinity>
-5.32091618

$$$$

 OpenBabel03262521023D

 33 35  0  0  1  0  0  0  0  0999 V2000
   38.0030   24.2420   35.9330 N   0  0  0  0  0  0  0  0  0  0  0  0
   39.0840   23.6570   35.2020 C   0  0  1  0  0  0  0  0  0  0  0  0
   40.2270   23.3550   36.1420 C   0  0  0  0  0  0  0  0  0  0  0  0
   39.7120   22.4250   37.1540 N   0  0  0  0  0  0  0  0  0  0  0  0
   38.7790   23.2210   37.9640 C   0  0  0  0  0  0  0  0  0  0  0  0
   37.5770   23.4940   37.0680 C   0  0  2  0  0  0  0  0  0  0  0  0
   37.2620   24.6590   35.3660 H   0  0  0  0  0  0  0  0  0  0  0  0
   39.4190   24.3530   34.4290 H   0  0  0  0  0  0  0  0  0  0  0  0
   41.0350   22.8240   35.6100 H   0  0  0  0  0  0  0  0  0  0  0  0
   40.5930   24.2440   36.6790 H   0  0  0  0  0  0  0  0  0  0  0  0
   39.2520   21.6140   36.7250 H   0  0  0  0  0  0  0  0  0  0  0  0
   38.4250   22.6270   38.8470 H   0  0  0  0  0  0  0  0  0  0  0  0
   39.2560   24.1570   38.2600 H   0  0  0  0  0  0  0  0  0  0  0  0
   36.8660   24.0900   37.6440 H   0  0  0  0  0  0  0  0  0  0  0  0
   36.9720   22.2170   36.7460 N   0  0  0  0  0  0  0  0  0  0  0  0
   35.9190   22.2840   36.8710 H   0  0  0  0  0  0  0  0  0  0  0  0
   37.2490   21.4530   37.4330 H   0  0  0  0  0  0  0  0  0  0  0  0
   38.6100   22.0590   34.4420 S   0  0  0  0  0  0  0  0  0  0  0  0
   35.9770   21.6590   31.3950 C   0  0  0  0  0  0  0  0  0  0  0  0
   36.8590   21.3320   32.4110 C   0  0  0  0  0  0  0  0  0  0  0  0
   37.4620   22.3340   33.1180 C   0  0  0  0  0  0  0  0  0  0  0  0
   37.1660   23.6490   32.7920 N   0  0  0  0  0  0  0  0  0  0  0  0
   36.3100   23.9130   31.8070 C   0  0  0  0  0  0  0  0  0  0  0  0
   35.7100   22.9370   31.1030 N   0  0  0  0  0  0  0  0  0  0  0  0
   35.5100   20.8480   30.8450 H   0  0  0  0  0  0  0  0  0  0  0  0
   37.0730   20.3160   32.6440 H   0  0  0  0  0  0  0  0  0  0  0  0
   35.9910   25.2900   31.4560 C   0  0  0  0  0  0  0  0  0  0  0  0
   34.9800   25.5770   30.7510 O   0  0  0  0  0  0  0  0  0  0  0  0
   36.8750   26.4070   31.9330 C   0  0  0  0  0  3  0  0  0  0  0  0
   36.0090   27.6380   32.0600 C   0  0  0  0  0  2  0  0  0  0  0  0
   36.9410   28.7500   31.6910 C   0  0  0  0  0  2  0  0  0  0  0  0
   38.0270   28.1870   30.8310 C   0  0  0  0  0  2  0  0  0  0  0  0
   37.9420   26.6910   30.9260 C   0  0  0  0  0  2  0  0  0  0  0  0
  1  6  1  0  0  0  0
  2  8  1  6  0  0  0
  2  1  1  0  0  0  0
  2  3  1  0  0  0  0
  3 10  1  0  0  0  0
  3  4  1  0  0  0  0
  4  5  1  0  0  0  0
  5 13  1  0  0  0  0
  5 12  1  0  0  0  0
  6 14  1  1  0  0  0
  6  5  1  0  0  0  0
  7  1  1  0  0  0  0
  9  3  1  0  0  0  0
 11  4  1  0  0  0  0
 15 16  1  0  0  0  0
 15  6  1  0  0  0  0
 15 17  1  0  0  0  0
 18  2  1  0  0  0  0
 19 20  1  0  0  0  0
 20 26  1  0  0  0  0
 20 21  2  0  0  0  0
 21 18  1  0  0  0  0
 22 21  1  0  0  0  0
 23 22  2  0  0  0  0
 24 19  2  0  0  0  0
 24 23  1  0  0  0  0
 25 19  1  0  0  0  0
 27 23  1  0  0  0  0
 27 29  1  0  0  0  0
 28 27  2  0  0  0  0
 29 30  1  0  0  0  0
 31 30  1  0  0  0  0
 32 33  1  0  0  0  0
 32 31  1  0  0  0  0
 33 29  1  0  0  0  0
M  END
>  <minimizedAffinity>
-5.25686932

$$$$

 OpenBabel03262521023D

 33 35  0  0  1  0  0  0  0  0999 V2000
   38.4180   22.5640   35.9700 N   0  0  0  0  0  0  0  0  0  0  0  0
   37.7700   23.4470   36.8900 C   0  0  1  0  0  0  0  0  0  0  0  0
   38.2180   23.1300   38.2970 C   0  0  0  0  0  0  0  0  0  0  0  0
   39.6740   23.3100   38.3320 N   0  0  0  0  0  0  0  0  0  0  0  0
   40.2130   22.2060   37.5250 C   0  0  0  0  0  0  0  0  0  0  0  0
   39.8380   22.5220   36.0820 C   0  0  2  0  0  0  0  0  0  0  0  0
   38.0430   22.5650   35.0190 H   0  0  0  0  0  0  0  0  0  0  0  0
   36.6870   23.3230   36.8120 H   0  0  0  0  0  0  0  0  0  0  0  0
   37.7940   23.8580   39.0100 H   0  0  0  0  0  0  0  0  0  0  0  0
   38.0150   22.0890   38.5920 H   0  0  0  0  0  0  0  0  0  0  0  0
   39.9520   24.2270   37.9640 H   0  0  0  0  0  0  0  0  0  0  0  0
   41.3330   22.1840   37.5940 H   0  0  0  0  0  0  0  0  0  0  0  0
   39.7620   21.2660   37.8400 H   0  0  0  0  0  0  0  0  0  0  0  0
   40.2230   21.7150   35.4570 H   0  0  0  0  0  0  0  0  0  0  0  0
   40.5000   23.7590   35.7180 N   0  0  0  0  0  0  0  0  0  0  0  0
   40.9520   23.6490   34.7620 H   0  0  0  0  0  0  0  0  0  0  0  0
   41.3250   23.9790   36.3530 H   0  0  0  0  0  0  0  0  0  0  0  0
   38.2210   25.1970   36.5900 S   0  0  0  0  0  0  0  0  0  0  0  0
   36.8980   27.2230   33.3460 C   0  0  0  0  0  0  0  0  0  0  0  0
   37.2790   26.9480   34.6490 C   0  0  0  0  0  0  0  0  0  0  0  0
   37.7050   25.6880   34.9660 C   0  0  0  0  0  0  0  0  0  0  0  0
   37.7410   24.7270   33.9670 N   0  0  0  0  0  0  0  0  0  0  0  0
   37.3650   25.0410   32.7290 C   0  0  0  0  0  0  0  0  0  0  0  0
   36.9430   26.2760   32.4030 N   0  0  0  0  0  0  0  0  0  0  0  0
   36.5620   28.2290   33.1160 H   0  0  0  0  0  0  0  0  0  0  0  0
   37.2430   27.7000   35.4010 H   0  0  0  0  0  0  0  0  0  0  0  0
   37.3990   24.0400   31.6720 C   0  0  0  0  0  0  0  0  0  0  0  0
   37.6870   24.3470   30.4780 O   0  0  0  0  0  0  0  0  0  0  0  0
   37.0860   22.6050   31.9890 C   0  0  0  0  0  3  0  0  0  0  0  0
   37.7250   21.7600   30.9130 C   0  0  0  0  0  2  0  0  0  0  0  0
   36.7680   20.6190   30.7630 C   0  0  0  0  0  2  0  0  0  0  0  0
   35.4210   21.0710   31.2270 C   0  0  0  0  0  2  0  0  0  0  0  0
   35.6100   22.3750   31.9470 C   0  0  0  0  0  2  0  0  0  0  0  0
  1  6  1  0  0  0  0
  1  2  1  0  0  0  0
  2  8  1  6  0  0  0
  2  3  1  0  0  0  0
  3  4  1  0  0  0  0
  3 10  1  0  0  0  0
  3  9  1  0  0  0  0
  5 12  1  0  0  0  0
  5 13  1  0  0  0  0
  5  4  1  0  0  0  0
  6 14  1  6  0  0  0
  6  5  1  0  0  0  0
  7  1  1  0  0  0  0
 11  4  1  0  0  0  0
 15  6  1  0  0  0  0
 15 17  1  0  0  0  0
 16 15  1  0  0  0  0
 18  2  1  0  0  0  0
 19 20  1  0  0  0  0
 20 21  2  0  0  0  0
 20 26  1  0  0  0  0
 21 18  1  0  0  0  0
 22 21  1  0  0  0  0
 23 22  2  0  0  0  0
 24 23  1  0  0  0  0
 24 19  2  0  0  0  0
 25 19  1  0  0  0  0
 27 29  1  0  0  0  0
 27 23  1  0  0  0  0
 28 27  2  0  0  0  0
 30 29  1  0  0  0  0
 31 30  1  0  0  0  0
 31 32  1  0  0  0  0
 32 33  1  0  0  0  0
 33 29  1  0  0  0  0
M  END
>  <minimizedAffinity>
-5.13541746

$$$$

 OpenBabel03262521023D

 33 35  0  0  1  0  0  0  0  0999 V2000
   36.8180   20.7500   33.4590 N   0  0  0  0  0  0  0  0  0  0  0  0
   37.6720   20.8830   32.3190 C   0  0  1  0  0  0  0  0  0  0  0  0
   37.6390   19.6080   31.5100 C   0  0  0  0  0  0  0  0  0  0  0  0
   36.2450   19.3980   31.1020 N   0  0  0  0  0  0  0  0  0  0  0  0
   35.5330   19.0560   32.3420 C   0  0  0  0  0  0  0  0  0  0  0  0
   35.4860   20.3390   33.1640 C   0  0  2  0  0  0  0  0  0  0  0  0
   36.9160   21.4770   34.1710 H   0  0  0  0  0  0  0  0  0  0  0  0
   38.6930   21.0820   32.6500 H   0  0  0  0  0  0  0  0  0  0  0  0
   38.2230   19.7260   30.5810 H   0  0  0  0  0  0  0  0  0  0  0  0
   37.9430   18.7210   32.0860 H   0  0  0  0  0  0  0  0  0  0  0  0
   35.8510   20.2320   30.6510 H   0  0  0  0  0  0  0  0  0  0  0  0
   34.4770   18.7530   32.1140 H   0  0  0  0  0  0  0  0  0  0  0  0
   36.0790   18.2790   32.8770 H   0  0  0  0  0  0  0  0  0  0  0  0
   34.9650   20.1140   34.0960 H   0  0  0  0  0  0  0  0  0  0  0  0
   34.7170   21.3120   32.4140 N   0  0  0  0  0  0  0  0  0  0  0  0
   34.0210   21.7860   33.0620 H   0  0  0  0  0  0  0  0  0  0  0  0
   34.0940   20.8570   31.6810 H   0  0  0  0  0  0  0  0  0  0  0  0
   37.1080   22.2180   31.1970 S   0  0  0  0  0  0  0  0  0  0  0  0
   36.6870   26.0920   32.2860 C   0  0  0  0  0  0  0  0  0  0  0  0
   36.6050   24.9280   31.5400 C   0  0  0  0  0  0  0  0  0  0  0  0
   37.1420   23.7770   32.0430 C   0  0  0  0  0  0  0  0  0  0  0  0
   37.7510   23.8140   33.2870 N   0  0  0  0  0  0  0  0  0  0  0  0
   37.8050   24.9580   33.9660 C   0  0  0  0  0  0  0  0  0  0  0  0
   37.2810   26.0990   33.4840 N   0  0  0  0  0  0  0  0  0  0  0  0
   36.2550   26.9960   31.8680 H   0  0  0  0  0  0  0  0  0  0  0  0
   36.1330   24.9210   30.5860 H   0  0  0  0  0  0  0  0  0  0  0  0
   38.4430   25.0110   35.2740 C   0  0  0  0  0  0  0  0  0  0  0  0
   39.0690   26.0390   35.6660 O   0  0  0  0  0  0  0  0  0  0  0  0
   38.3660   23.8230   36.1920 C   0  0  0  0  0  3  0  0  0  0  0  0
   37.9470   24.3350   37.5500 C   0  0  0  0  0  2  0  0  0  0  0  0
   38.6700   23.4260   38.4950 C   0  0  0  0  0  2  0  0  0  0  0  0
   39.8650   22.8710   37.7900 C   0  0  0  0  0  2  0  0  0  0  0  0
   39.7100   23.1860   36.3290 C   0  0  0  0  0  2  0  0  0  0  0  0
  1  7  1  0  0  0  0
  2  8  1  1  0  0  0
  2  1  1  0  0  0  0
  3 10  1  0  0  0  0
  3  2  1  0  0  0  0
  4  3  1  0  0  0  0
  4  5  1  0  0  0  0
  5 13  1  0  0  0  0
  5  6  1  0  0  0  0
  6  1  1  0  0  0  0
  6 14  1  1  0  0  0
  9  3  1  0  0  0  0
 11  4  1  0  0  0  0
 12  5  1  0  0  0  0
 15 16  1  0  0  0  0
 15  6  1  0  0  0  0
 17 15  1  0  0  0  0
 18 21  1  0  0  0  0
 18  2  1  0  0  0  0
 19 24  1  0  0  0  0
 20 21  1  0  0  0  0
 20 19  2  0  0  0  0
 21 22  2  0  0  0  0
 22 23  1  0  0  0  0
 23 27  1  0  0  0  0
 24 23  2  0  0  0  0
 25 19  1  0  0  0  0
 26 20  1  0  0  0  0
 27 28  2  0  0  0  0
 27 29  1  0  0  0  0
 29 33  1  0  0  0  0
 29 30  1  0  0  0  0
 30 31  1  0  0  0  0
 32 31  1  0  0  0  0
 33 32  1  0  0  0  0
M  END
>  <minimizedAffinity>
-5.0364337

$$$$

 OpenBabel03262521023D

 33 35  0  0  1  0  0  0  0  0999 V2000
   38.4060   22.6680   35.8960 N   0  0  0  0  0  0  0  0  0  0  0  0
   37.7220   23.5820   36.7580 C   0  0  1  0  0  0  0  0  0  0  0  0
   38.0500   23.2620   38.1970 C   0  0  0  0  0  0  0  0  0  0  0  0
   39.5050   23.3900   38.3420 N   0  0  0  0  0  0  0  0  0  0  0  0
   40.0640   22.2600   37.5850 C   0  0  0  0  0  0  0  0  0  0  0  0
   39.8110   22.5770   36.1160 C   0  0  2  0  0  0  0  0  0  0  0  0
   38.1040   22.6730   34.9190 H   0  0  0  0  0  0  0  0  0  0  0  0
   36.6450   23.4970   36.5990 H   0  0  0  0  0  0  0  0  0  0  0  0
   37.6000   24.0110   38.8710 H   0  0  0  0  0  0  0  0  0  0  0  0
   37.7880   22.2320   38.4820 H   0  0  0  0  0  0  0  0  0  0  0  0
   39.8440   24.2930   37.9900 H   0  0  0  0  0  0  0  0  0  0  0  0
   41.1730   22.1990   37.7390 H   0  0  0  0  0  0  0  0  0  0  0  0
   39.5550   21.3390   37.8710 H   0  0  0  0  0  0  0  0  0  0  0  0
   40.2120   21.7500   35.5270 H   0  0  0  0  0  0  0  0  0  0  0  0
   40.5430   23.7860   35.7950 N   0  0  0  0  0  0  0  0  0  0  0  0
   41.0620   23.6510   34.8780 H   0  0  0  0  0  0  0  0  0  0  0  0
   41.3250   23.9810   36.4900 H   0  0  0  0  0  0  0  0  0  0  0  0
   38.2590   25.3120   36.4830 S   0  0  0  0  0  0  0  0  0  0  0  0
   37.2670   25.7150   32.5800 C   0  0  0  0  0  0  0  0  0  0  0  0
   37.7600   25.1690   33.7530 C   0  0  0  0  0  0  0  0  0  0  0  0
   37.6690   25.8880   34.9120 C   0  0  0  0  0  0  0  0  0  0  0  0
   37.0830   27.1430   34.8710 N   0  0  0  0  0  0  0  0  0  0  0  0
   36.6230   27.6250   33.7190 C   0  0  0  0  0  0  0  0  0  0  0  0
   36.7060   26.9290   32.5710 N   0  0  0  0  0  0  0  0  0  0  0  0
   37.3490   25.1280   31.6710 H   0  0  0  0  0  0  0  0  0  0  0  0
   38.2070   24.2030   33.7620 H   0  0  0  0  0  0  0  0  0  0  0  0
   36.0040   28.9420   33.6630 C   0  0  0  0  0  0  0  0  0  0  0  0
   36.0520   29.6540   32.6170 O   0  0  0  0  0  0  0  0  0  0  0  0
   35.2900   29.4850   34.8690 C   0  0  0  0  0  3  0  0  0  0  0  0
   33.8730   29.7950   34.4470 C   0  0  0  0  0  2  0  0  0  0  0  0
   33.5290   30.9970   35.2700 C   0  0  0  0  0  2  0  0  0  0  0  0
   34.7980   31.6910   35.6430 C   0  0  0  0  0  2  0  0  0  0  0  0
   35.9300   30.7570   35.3220 C   0  0  0  0  0  2  0  0  0  0  0  0
  1  6  1  0  0  0  0
  1  2  1  0  0  0  0
  2  8  1  6  0  0  0
  2  3  1  0  0  0  0
  3  4  1  0  0  0  0
  3 10  1  0  0  0  0
  3  9  1  0  0  0  0
  5 12  1  0  0  0  0
  5 13  1  0  0  0  0
  5  4  1  0  0  0  0
  6 14  1  6  0  0  0
  6  5  1  0  0  0  0
  7  1  1  0  0  0  0
 11  4  1  0  0  0  0
 15  6  1  0  0  0  0
 15 17  1  0  0  0  0
 16 15  1  0  0  0  0
 18  2  1  0  0  0  0
 19 20  1  0  0  0  0
 20 26  1  0  0  0  0
 20 21  2  0  0  0  0
 21 18  1  0  0  0  0
 22 21  1  0  0  0  0
 23 22  2  0  0  0  0
 24 19  2  0  0  0  0
 24 23  1  0  0  0  0
 25 19  1  0  0  0  0
 27 23  1  0  0  0  0
 27 29  1  0  0  0  0
 28 27  2  0  0  0  0
 29 33  1  0  0  0  0
 30 29  1  0  0  0  0
 30 31  1  0  0  0  0
 31 32  1  0  0  0  0
 33 32  1  0  0  0  0
M  END
>  <minimizedAffinity>
-4.94791079

$$$$

 OpenBabel03262521023D

 33 35  0  0  1  0  0  0  0  0999 V2000
   35.8350   20.0250   33.4730 N   0  0  0  0  0  0  0  0  0  0  0  0
   36.6600   20.8360   32.6330 C   0  0  1  0  0  0  0  0  0  0  0  0
   37.6060   19.9560   31.8500 C   0  0  0  0  0  0  0  0  0  0  0  0
   36.7770   19.0440   31.0520 N   0  0  0  0  0  0  0  0  0  0  0  0
   36.1630   18.1340   32.0290 C   0  0  0  0  0  0  0  0  0  0  0  0
   35.1500   18.9720   32.8010 C   0  0  2  0  0  0  0  0  0  0  0  0
   35.2980   20.5280   34.1830 H   0  0  0  0  0  0  0  0  0  0  0  0
   37.2320   21.5340   33.2490 H   0  0  0  0  0  0  0  0  0  0  0  0
   38.1890   20.5590   31.1330 H   0  0  0  0  0  0  0  0  0  0  0  0
   38.2460   19.3310   32.4900 H   0  0  0  0  0  0  0  0  0  0  0  0
   36.0720   19.5520   30.5050 H   0  0  0  0  0  0  0  0  0  0  0  0
   35.6050   17.3160   31.5020 H   0  0  0  0  0  0  0  0  0  0  0  0
   36.9290   17.7460   32.7010 H   0  0  0  0  0  0  0  0  0  0  0  0
   34.6800   18.3210   33.5390 H   0  0  0  0  0  0  0  0  0  0  0  0
   34.1460   19.4220   31.8580 N   0  0  0  0  0  0  0  0  0  0  0  0
   33.1790   19.2720   32.2740 H   0  0  0  0  0  0  0  0  0  0  0  0
   34.1240   18.8290   30.9750 H   0  0  0  0  0  0  0  0  0  0  0  0
   35.6750   21.7600   31.3950 S   0  0  0  0  0  0  0  0  0  0  0  0
   35.4980   25.7960   31.1550 C   0  0  0  0  0  0  0  0  0  0  0  0
   35.2270   24.4590   30.9130 C   0  0  0  0  0  0  0  0  0  0  0  0
   35.9190   23.5050   31.6040 C   0  0  0  0  0  0  0  0  0  0  0  0
   36.8710   23.9090   32.5270 N   0  0  0  0  0  0  0  0  0  0  0  0
   37.0950   25.2070   32.7240 C   0  0  0  0  0  0  0  0  0  0  0  0
   36.4220   26.1580   32.0510 N   0  0  0  0  0  0  0  0  0  0  0  0
   34.9380   26.5380   30.5950 H   0  0  0  0  0  0  0  0  0  0  0  0
   34.4920   24.1700   30.2000 H   0  0  0  0  0  0  0  0  0  0  0  0
   38.0920   25.6450   33.6910 C   0  0  0  0  0  0  0  0  0  0  0  0
   38.1430   25.1570   34.8580 O   0  0  0  0  0  0  0  0  0  0  0  0
   39.0920   26.7000   33.3090 C   0  0  0  0  0  3  0  0  0  0  0  0
   39.9360   26.1330   32.1920 C   0  0  0  0  0  2  0  0  0  0  0  0
   41.2820   26.7400   32.4410 C   0  0  0  0  0  2  0  0  0  0  0  0
   41.3740   27.1000   33.8890 C   0  0  0  0  0  2  0  0  0  0  0  0
   39.9900   27.0050   34.4640 C   0  0  0  0  0  2  0  0  0  0  0  0
  1  7  1  0  0  0  0
  2  8  1  1  0  0  0
  2  1  1  0  0  0  0
  3 10  1  0  0  0  0
  3  2  1  0  0  0  0
  4  3  1  0  0  0  0
  4  5  1  0  0  0  0
  5 13  1  0  0  0  0
  5  6  1  0  0  0  0
  6  1  1  0  0  0  0
  6 14  1  1  0  0  0
  9  3  1  0  0  0  0
 11  4  1  0  0  0  0
 12  5  1  0  0  0  0
 15 16  1  0  0  0  0
 15  6  1  0  0  0  0
 17 15  1  0  0  0  0
 18 21  1  0  0  0  0
 18  2  1  0  0  0  0
 19 24  1  0  0  0  0
 20 19  2  0  0  0  0
 20 21  1  0  0  0  0
 21 22  2  0  0  0  0
 22 23  1  0  0  0  0
 23 27  1  0  0  0  0
 24 23  2  0  0  0  0
 25 19  1  0  0  0  0
 26 20  1  0  0  0  0
 27 28  2  0  0  0  0
 29 27  1  0  0  0  0
 29 33  1  0  0  0  0
 30 31  1  0  0  0  0
 30 29  1  0  0  0  0
 31 32  1  0  0  0  0
 32 33  1  0  0  0  0
M  END
>  <minimizedAffinity>
-4.94265509

$$$$

 OpenBabel03262521023D

 33 35  0  0  1  0  0  0  0  0999 V2000
   38.3820   27.5080   31.4710 N   0  0  0  0  0  0  0  0  0  0  0  0
   36.9560   27.5850   31.5550 C   0  0  1  0  0  0  0  0  0  0  0  0
   36.4500   28.6540   30.6160 C   0  0  0  0  0  0  0  0  0  0  0  0
   36.8780   28.2720   29.2650 N   0  0  0  0  0  0  0  0  0  0  0  0
   38.3370   28.4510   29.2620 C   0  0  0  0  0  0  0  0  0  0  0  0
   38.8940   27.3460   30.1510 C   0  0  2  0  0  0  0  0  0  0  0  0
   38.8380   26.9570   32.2010 H   0  0  0  0  0  0  0  0  0  0  0  0
   36.6650   27.8280   32.5800 H   0  0  0  0  0  0  0  0  0  0  0  0
   35.3470   28.6670   30.6040 H   0  0  0  0  0  0  0  0  0  0  0  0
   36.8780   29.6480   30.8200 H   0  0  0  0  0  0  0  0  0  0  0  0
   36.6090   27.3070   29.0400 H   0  0  0  0  0  0  0  0  0  0  0  0
   38.7460   28.3020   28.2280 H   0  0  0  0  0  0  0  0  0  0  0  0
   38.5870   29.4310   29.6680 H   0  0  0  0  0  0  0  0  0  0  0  0
   39.9800   27.4560   30.1720 H   0  0  0  0  0  0  0  0  0  0  0  0
   38.5590   26.0770   29.5360 N   0  0  0  0  0  0  0  0  0  0  0  0
   39.4160   25.4480   29.5370 H   0  0  0  0  0  0  0  0  0  0  0  0
   38.3330   26.1770   28.5010 H   0  0  0  0  0  0  0  0  0  0  0  0
   36.1560   26.0220   31.0320 S   0  0  0  0  0  0  0  0  0  0  0  0
   36.9290   22.4070   32.6790 C   0  0  0  0  0  0  0  0  0  0  0  0
   36.3050   23.4020   31.9450 C   0  0  0  0  0  0  0  0  0  0  0  0
   36.8480   24.6560   31.9280 C   0  0  0  0  0  0  0  0  0  0  0  0
   38.0090   24.8890   32.6490 N   0  0  0  0  0  0  0  0  0  0  0  0
   38.5720   23.8990   33.3390 C   0  0  0  0  0  0  0  0  0  0  0  0
   38.0490   22.6600   33.3650 N   0  0  0  0  0  0  0  0  0  0  0  0
   36.4810   21.4190   32.6800 H   0  0  0  0  0  0  0  0  0  0  0  0
   35.4140   23.2020   31.3990 H   0  0  0  0  0  0  0  0  0  0  0  0
   39.7910   24.1310   34.1000 C   0  0  0  0  0  0  0  0  0  0  0  0
   40.8800   23.5610   33.7970 O   0  0  0  0  0  0  0  0  0  0  0  0
   39.7730   25.0650   35.2770 C   0  0  0  0  0  3  0  0  0  0  0  0
   38.4260   24.9160   35.9450 C   0  0  0  0  0  2  0  0  0  0  0  0
   38.1430   26.2970   36.4510 C   0  0  0  0  0  2  0  0  0  0  0  0
   38.9180   27.2690   35.6230 C   0  0  0  0  0  2  0  0  0  0  0  0
   39.9110   26.4810   34.8170 C   0  0  0  0  0  2  0  0  0  0  0  0
  1  2  1  0  0  0  0
  1  7  1  0  0  0  0
  2  8  1  1  0  0  0
  3 10  1  0  0  0  0
  3  2  1  0  0  0  0
  4  3  1  0  0  0  0
  5  4  1  0  0  0  0
  5 13  1  0  0  0  0
  5  6  1  0  0  0  0
  6 14  1  1  0  0  0
  6  1  1  0  0  0  0
  9  3  1  0  0  0  0
 11  4  1  0  0  0  0
 12  5  1  0  0  0  0
 15 16  1  0  0  0  0
 15  6  1  0  0  0  0
 17 15  1  0  0  0  0
 18  2  1  0  0  0  0
 18 21  1  0  0  0  0
 19 25  1  0  0  0  0
 19 24  1  0  0  0  0
 20 19  2  0  0  0  0
 21 20  1  0  0  0  0
 21 22  2  0  0  0  0
 22 23  1  0  0  0  0
 23 24  2  0  0  0  0
 23 27  1  0  0  0  0
 26 20  1  0  0  0  0
 27 29  1  0  0  0  0
 28 27  2  0  0  0  0
 29 30  1  0  0  0  0
 30 31  1  0  0  0  0
 32 31  1  0  0  0  0
 33 29  1  0  0  0  0
 33 32  1  0  0  0  0
M  END
>  <minimizedAffinity>
-4.91021824

$$$$

 OpenBabel03262521023D

 33 35  0  0  1  0  0  0  0  0999 V2000
   39.8660   28.0260   30.0190 N   0  0  0  0  0  0  0  0  0  0  0  0
   38.5470   28.4090   30.4200 C   0  0  1  0  0  0  0  0  0  0  0  0
   37.8550   29.1140   29.2780 C   0  0  0  0  0  0  0  0  0  0  0  0
   37.8100   28.1680   28.1570 N   0  0  0  0  0  0  0  0  0  0  0  0
   39.2050   28.0410   27.7100 C   0  0  0  0  0  0  0  0  0  0  0  0
   39.9280   27.2740   28.8110 C   0  0  2  0  0  0  0  0  0  0  0  0
   40.4840   27.7180   30.7720 H   0  0  0  0  0  0  0  0  0  0  0  0
   38.6080   29.0770   31.2820 H   0  0  0  0  0  0  0  0  0  0  0  0
   36.8070   29.3380   29.5420 H   0  0  0  0  0  0  0  0  0  0  0  0
   38.3970   30.0050   28.9260 H   0  0  0  0  0  0  0  0  0  0  0  0
   37.4140   27.2640   28.4380 H   0  0  0  0  0  0  0  0  0  0  0  0
   39.2590   27.4310   26.7700 H   0  0  0  0  0  0  0  0  0  0  0  0
   39.6420   29.0320   27.5840 H   0  0  0  0  0  0  0  0  0  0  0  0
   40.9710   27.1680   28.5070 H   0  0  0  0  0  0  0  0  0  0  0  0
   39.3240   25.9590   28.8970 N   0  0  0  0  0  0  0  0  0  0  0  0
   40.0890   25.2230   28.9480 H   0  0  0  0  0  0  0  0  0  0  0  0
   38.7950   25.6980   28.0120 H   0  0  0  0  0  0  0  0  0  0  0  0
   37.5100   26.9550   30.8300 S   0  0  0  0  0  0  0  0  0  0  0  0
   36.9340   27.3820   34.8130 C   0  0  0  0  0  0  0  0  0  0  0  0
   36.9370   27.6590   33.4560 C   0  0  0  0  0  0  0  0  0  0  0  0
   37.4440   26.7330   32.5880 C   0  0  0  0  0  0  0  0  0  0  0  0
   37.9380   25.5430   33.1000 N   0  0  0  0  0  0  0  0  0  0  0  0
   37.9130   25.3230   34.4130 C   0  0  0  0  0  0  0  0  0  0  0  0
   37.4180   26.2260   35.2780 N   0  0  0  0  0  0  0  0  0  0  0  0
   36.5280   28.1320   35.4840 H   0  0  0  0  0  0  0  0  0  0  0  0
   36.5520   28.5790   33.0840 H   0  0  0  0  0  0  0  0  0  0  0  0
   38.4300   24.0770   34.9620 C   0  0  0  0  0  0  0  0  0  0  0  0
   38.0220   22.9510   34.5490 O   0  0  0  0  0  0  0  0  0  0  0  0
   39.4700   24.1110   36.0450 C   0  0  0  0  0  3  0  0  0  0  0  0
   40.7600   23.6070   35.4430 C   0  0  0  0  0  2  0  0  0  0  0  0
   41.4120   22.8900   36.5840 C   0  0  0  0  0  2  0  0  0  0  0  0
   40.3470   22.4720   37.5460 C   0  0  0  0  0  2  0  0  0  0  0  0
   39.0880   23.1940   37.1610 C   0  0  0  0  0  2  0  0  0  0  0  0
  1  2  1  0  0  0  0
  1  7  1  0  0  0  0
  2 18  1  0  0  0  0
  2  8  1  1  0  0  0
  3  9  1  0  0  0  0
  3  2  1  0  0  0  0
  4 11  1  0  0  0  0
  4  3  1  0  0  0  0
  5  4  1  0  0  0  0
  5  6  1  0  0  0  0
  6 14  1  6  0  0  0
  6 15  1  0  0  0  0
  6  1  1  0  0  0  0
 10  3  1  0  0  0  0
 12  5  1  0  0  0  0
 13  5  1  0  0  0  0
 15 16  1  0  0  0  0
 17 15  1  0  0  0  0
 18 21  1  0  0  0  0
 19 24  1  0  0  0  0
 19 25  1  0  0  0  0
 20 19  2  0  0  0  0
 21 22  2  0  0  0  0
 21 20  1  0  0  0  0
 22 23  1  0  0  0  0
 23 27  1  0  0  0  0
 23 24  2  0  0  0  0
 26 20  1  0  0  0  0
 27 29  1  0  0  0  0
 28 27  2  0  0  0  0
 29 33  1  0  0  0  0
 30 29  1  0  0  0  0
 30 31  1  0  0  0  0
 31 32  1  0  0  0  0
 33 32  1  0  0  0  0
M  END
>  <minimizedAffinity>
-4.89947224

$$$$

 OpenBabel03262521023D

 33 35  0  0  1  0  0  0  0  0999 V2000
   39.6330   24.3160   35.5440 N   0  0  0  0  0  0  0  0  0  0  0  0
   39.9400   23.1330   34.8010 C   0  0  1  0  0  0  0  0  0  0  0  0
   40.6070   22.1250   35.7070 C   0  0  0  0  0  0  0  0  0  0  0  0
   39.6620   21.8350   36.7920 N   0  0  0  0  0  0  0  0  0  0  0  0
   39.6140   23.0650   37.5950 C   0  0  0  0  0  0  0  0  0  0  0  0
   38.8870   24.0950   36.7380 C   0  0  2  0  0  0  0  0  0  0  0  0
   39.3580   25.1280   34.9870 H   0  0  0  0  0  0  0  0  0  0  0  0
   40.6090   23.3840   33.9760 H   0  0  0  0  0  0  0  0  0  0  0  0
   40.7710   21.1740   35.1720 H   0  0  0  0  0  0  0  0  0  0  0  0
   41.5270   22.5050   36.1760 H   0  0  0  0  0  0  0  0  0  0  0  0
   38.7360   21.5770   36.4300 H   0  0  0  0  0  0  0  0  0  0  0  0
   39.0090   22.9010   38.5250 H   0  0  0  0  0  0  0  0  0  0  0  0
   40.6280   23.3990   37.8150 H   0  0  0  0  0  0  0  0  0  0  0  0
   38.8400   25.0240   37.3080 H   0  0  0  0  0  0  0  0  0  0  0  0
   37.5400   23.6080   36.5160 N   0  0  0  0  0  0  0  0  0  0  0  0
   36.8480   24.3970   36.6820 H   0  0  0  0  0  0  0  0  0  0  0  0
   37.2510   22.8770   37.2330 H   0  0  0  0  0  0  0  0  0  0  0  0
   38.4300   22.3210   34.1550 S   0  0  0  0  0  0  0  0  0  0  0  0
   36.2070   23.9010   31.1650 C   0  0  0  0  0  0  0  0  0  0  0  0
   36.8120   22.9680   31.9910 C   0  0  0  0  0  0  0  0  0  0  0  0
   37.5970   23.4020   33.0220 C   0  0  0  0  0  0  0  0  0  0  0  0
   37.7590   24.7660   33.2060 N   0  0  0  0  0  0  0  0  0  0  0  0
   37.1560   25.6240   32.3850 C   0  0  0  0  0  0  0  0  0  0  0  0
   36.3810   25.2110   31.3660 N   0  0  0  0  0  0  0  0  0  0  0  0
   35.5880   23.5350   30.3520 H   0  0  0  0  0  0  0  0  0  0  0  0
   36.6740   21.9250   31.8320 H   0  0  0  0  0  0  0  0  0  0  0  0
   37.3200   27.0590   32.5680 C   0  0  0  0  0  0  0  0  0  0  0  0
   38.4410   27.6250   32.4050 O   0  0  0  0  0  0  0  0  0  0  0  0
   36.1390   27.9030   32.9600 C   0  0  0  0  0  3  0  0  0  0  0  0
   36.1880   29.1570   32.1190 C   0  0  0  0  0  2  0  0  0  0  0  0
   35.6400   30.2040   33.0380 C   0  0  0  0  0  2  0  0  0  0  0  0
   35.8510   29.7500   34.4470 C   0  0  0  0  0  2  0  0  0  0  0  0
   36.2410   28.3010   34.3960 C   0  0  0  0  0  2  0  0  0  0  0  0
  1  6  1  0  0  0  0
  2  8  1  6  0  0  0
  2  1  1  0  0  0  0
  2  3  1  0  0  0  0
  3 10  1  0  0  0  0
  3  4  1  0  0  0  0
  4  5  1  0  0  0  0
  5 13  1  0  0  0  0
  5 12  1  0  0  0  0
  6 14  1  1  0  0  0
  6  5  1  0  0  0  0
  7  1  1  0  0  0  0
  9  3  1  0  0  0  0
 11  4  1  0  0  0  0
 15 16  1  0  0  0  0
 15  6  1  0  0  0  0
 15 17  1  0  0  0  0
 18  2  1  0  0  0  0
 19 24  2  0  0  0  0
 19 20  1  0  0  0  0
 20 21  2  0  0  0  0
 21 22  1  0  0  0  0
 21 18  1  0  0  0  0
 23 27  1  0  0  0  0
 23 22  2  0  0  0  0
 24 23  1  0  0  0  0
 25 19  1  0  0  0  0
 26 20  1  0  0  0  0
 27 29  1  0  0  0  0
 28 27  2  0  0  0  0
 29 33  1  0  0  0  0
 30 29  1  0  0  0  0
 30 31  1  0  0  0  0
 31 32  1  0  0  0  0
 33 32  1  0  0  0  0
M  END
>  <minimizedAffinity>
-4.8411994

$$$$
