
 OpenBabel03272507303D

 25 27  0  0  0  0  0  0  0  0999 V2000
   35.8920   29.2160   49.7870 C   0  0  0  0  0  0  0  0  0  0  0  0
   34.8330   29.7720   50.4220 C   0  0  0  0  0  0  0  0  0  0  0  0
   33.6670   29.1720   49.9480 C   0  0  0  0  0  0  0  0  0  0  0  0
   34.1180   28.2320   48.9960 C   0  0  0  0  0  0  0  0  0  0  0  0
   35.4050   28.3350   48.9780 O   0  0  0  0  0  0  0  0  0  0  0  0
   34.8380   30.5480   51.1750 H   0  0  0  0  0  0  0  0  0  0  0  0
   32.6480   29.3530   50.2170 H   0  0  0  0  0  0  0  0  0  0  0  0
   37.2620   29.6110   50.0440 C   0  0  0  0  0  0  0  0  0  0  0  0
   37.8820   29.0650   50.9670 O   0  0  0  0  0  0  0  0  0  0  0  0
   37.8230   30.6410   49.1800 C   0  0  0  0  0  0  0  0  0  0  0  0
   38.1490   31.8560   49.7850 C   0  0  0  0  0  0  0  0  0  0  0  0
   38.6850   32.8660   49.0000 C   0  0  0  0  0  0  0  0  0  0  0  0
   38.8620   32.6030   47.6630 N   0  0  0  0  0  0  0  0  0  0  0  0
   38.5420   31.4340   47.1060 C   0  0  0  0  0  0  0  0  0  0  0  0
   38.0220   30.4490   47.8560 N   0  0  0  0  0  0  0  0  0  0  0  0
   37.9860   32.0030   50.8460 H   0  0  0  0  0  0  0  0  0  0  0  0
   38.9370   33.8020   49.4660 H   0  0  0  0  0  0  0  0  0  0  0  0
   38.7220   31.3280   46.0430 H   0  0  0  0  0  0  0  0  0  0  0  0
   33.2300   27.3530   48.2240 C   0  0  0  0  0  0  0  0  0  0  0  0
   31.9810   27.4290   48.3900 O   0  0  0  0  0  0  0  0  0  0  0  0
   33.8750   26.4230   47.2890 C   0  0  0  0  0  3  0  0  0  0  0  0
   33.6280   26.8040   45.8300 C   0  0  0  0  0  2  0  0  0  0  0  0
   34.1930   25.5800   45.1350 C   0  0  0  0  0  2  0  0  0  0  0  0
   34.0620   24.4270   46.1420 C   0  0  0  0  0  2  0  0  0  0  0  0
   33.2350   25.0550   47.2730 C   0  0  0  0  0  2  0  0  0  0  0  0
  1  8  1  0  0  0  0
  1  2  2  0  0  0  0
  2  6  1  0  0  0  0
  3  7  1  0  0  0  0
  3  2  1  0  0  0  0
  4  3  2  0  0  0  0
  5  4  1  0  0  0  0
  5  1  1  0  0  0  0
  8  9  2  0  0  0  0
 10 11  1  0  0  0  0
 10  8  1  0  0  0  0
 11 16  1  0  0  0  0
 12 17  1  0  0  0  0
 12 11  2  0  0  0  0
 13 12  1  0  0  0  0
 14 13  2  0  0  0  0
 14 15  1  0  0  0  0
 15 10  2  0  0  0  0
 18 14  1  0  0  0  0
 19 20  2  0  0  0  0
 19  4  1  0  0  0  0
 21 19  1  0  0  0  0
 22 21  1  0  0  0  0
 23 22  1  0  0  0  0
 23 24  1  0  0  0  0
 24 25  1  0  0  0  0
 25 21  1  0  0  0  0
M  END
>  <minimizedAffinity>
-5.25995541

>  <minimizedRMSD>
0.845842898

$$$$
