
 OpenBabel03272509403D

 31 33  0  0  0  0  0  0  0  0999 V2000
   37.0470   30.9440   49.0610 C   0  0  0  0  0  0  0  0  0  0  0  0
   36.7680   31.8810   50.0770 C   0  0  0  0  0  0  0  0  0  0  0  0
   37.3650   33.1260   50.1130 C   0  0  0  0  0  0  0  0  0  0  0  0
   38.2770   33.4940   49.1250 C   0  0  0  0  0  0  0  0  0  0  0  0
   38.5430   32.5680   48.1350 C   0  0  0  0  0  0  0  0  0  0  0  0
   37.9320   31.3260   48.1200 C   0  0  0  0  0  0  0  0  0  0  0  0
   36.0710   31.6150   50.8430 H   0  0  0  0  0  0  0  0  0  0  0  0
   37.1000   33.7910   50.9250 H   0  0  0  0  0  0  0  0  0  0  0  0
   38.7320   34.4720   49.1730 H   0  0  0  0  0  0  0  0  0  0  0  0
   39.2590   32.9280   47.4080 H   0  0  0  0  0  0  0  0  0  0  0  0
   36.3740   29.6690   49.1070 C   0  0  0  0  0  0  0  0  0  0  0  0
   36.9040   28.8090   49.8820 O   0  0  0  0  0  0  0  0  0  0  0  0
   33.6100   30.1600   46.7920 C   0  0  0  0  0  0  0  0  0  0  0  0
   32.9290   28.9380   46.8210 C   0  0  0  0  0  0  0  0  0  0  0  0
   33.4200   27.9440   47.6340 C   0  0  0  0  0  0  0  0  0  0  0  0
   34.5320   28.1700   48.3780 N   0  0  0  0  0  0  0  0  0  0  0  0
   35.1700   29.3320   48.3440 C   0  0  0  0  0  0  0  0  0  0  0  0
   34.6960   30.3200   47.5450 N   0  0  0  0  0  0  0  0  0  0  0  0
   33.2800   30.9900   46.1730 H   0  0  0  0  0  0  0  0  0  0  0  0
   32.0620   28.8880   46.1850 H   0  0  0  0  0  0  0  0  0  0  0  0
   32.8960   27.0150   47.6500 H   0  0  0  0  0  0  0  0  0  0  0  0
   38.3220   30.4880   47.0220 C   0  0  0  0  0  3  0  0  0  0  0  0
   39.0210   30.8410   45.9510 C   0  0  0  0  0  3  0  0  0  0  0  0
   39.4810   30.0850   44.7730 C   0  0  0  0  0  0  0  0  0  0  0  0
   38.6170   29.6340   44.2090 H   0  0  0  0  0  0  0  0  0  0  0  0
   40.0860   29.2290   45.1360 H   0  0  0  0  0  0  0  0  0  0  0  0
   40.3410   30.8550   43.8260 C   0  0  0  0  0  3  0  0  0  0  0  0
   40.3490   30.0670   42.5130 C   0  0  0  0  0  2  0  0  0  0  0  0
   40.2410   31.0960   41.4230 C   0  0  0  0  0  2  0  0  0  0  0  0
   39.5090   32.2520   42.0200 C   0  0  0  0  0  2  0  0  0  0  0  0
   39.8330   32.2230   43.4880 C   0  0  0  0  0  2  0  0  0  0  0  0
  1 11  1  0  0  0  0
  1  2  1  0  0  0  0
  2  3  2  0  0  0  0
  2  7  1  0  0  0  0
  3  8  1  0  0  0  0
  4  9  1  0  0  0  0
  4  3  1  0  0  0  0
  5  4  2  0  0  0  0
  6  5  1  0  0  0  0
  6  1  2  0  0  0  0
 10  5  1  0  0  0  0
 11 12  2  0  0  0  0
 13 14  2  0  0  0  0
 13 18  1  0  0  0  0
 14 15  1  0  0  0  0
 15 21  1  0  0  0  0
 15 16  2  0  0  0  0
 17 16  1  0  0  0  0
 17 11  1  0  0  0  0
 18 17  2  0  0  0  0
 19 13  1  0  0  0  0
 20 14  1  0  0  0  0
 22  6  1  0  0  0  0
 23 22  2  0  0  0  0
 24 26  1  0  0  0  0
 24 23  1  0  0  0  0
 25 24  1  0  0  0  0
 27 24  1  0  0  0  0
 28 27  1  0  0  0  0
 29 30  1  0  0  0  0
 29 28  1  0  0  0  0
 30 31  1  0  0  0  0
 31 27  1  0  0  0  0
M  END
>  <minimizedAffinity>
-6.08585596

>  <minimizedRMSD>
0.986991942

$$$$
