
 OpenBabel03272509403D

 31 33  0  0  0  0  0  0  0  0999 V2000
   37.0350   30.9240   49.0830 C   0  0  0  0  0  0  0  0  0  0  0  0
   36.7700   31.9040   50.0620 C   0  0  0  0  0  0  0  0  0  0  0  0
   37.3890   33.1390   50.0550 C   0  0  0  0  0  0  0  0  0  0  0  0
   38.3110   33.4520   49.0570 C   0  0  0  0  0  0  0  0  0  0  0  0
   38.5630   32.4850   48.1030 C   0  0  0  0  0  0  0  0  0  0  0  0
   37.9300   31.2550   48.1320 C   0  0  0  0  0  0  0  0  0  0  0  0
   36.0650   31.6790   50.8350 H   0  0  0  0  0  0  0  0  0  0  0  0
   37.1340   33.8380   50.8400 H   0  0  0  0  0  0  0  0  0  0  0  0
   38.7840   34.4230   49.0700 H   0  0  0  0  0  0  0  0  0  0  0  0
   39.2880   32.8050   47.3660 H   0  0  0  0  0  0  0  0  0  0  0  0
   36.3390   29.6650   49.1740 C   0  0  0  0  0  0  0  0  0  0  0  0
   36.8330   28.8360   50.0050 O   0  0  0  0  0  0  0  0  0  0  0  0
   33.5840   30.1200   46.8410 C   0  0  0  0  0  0  0  0  0  0  0  0
   32.9310   28.8830   46.8490 C   0  0  0  0  0  0  0  0  0  0  0  0
   33.4370   27.8910   47.6550 C   0  0  0  0  0  0  0  0  0  0  0  0
   34.5370   28.1330   48.4110 N   0  0  0  0  0  0  0  0  0  0  0  0
   35.1490   29.3100   48.3960 C   0  0  0  0  0  0  0  0  0  0  0  0
   34.6600   30.2960   47.6050 N   0  0  0  0  0  0  0  0  0  0  0  0
   33.2410   30.9500   46.2290 H   0  0  0  0  0  0  0  0  0  0  0  0
   32.0710   28.8200   46.2050 H   0  0  0  0  0  0  0  0  0  0  0  0
   32.9350   26.9500   47.6560 H   0  0  0  0  0  0  0  0  0  0  0  0
   38.3080   30.3690   47.0670 C   0  0  0  0  0  3  0  0  0  0  0  0
   38.7190   30.7050   45.8510 C   0  0  0  0  0  3  0  0  0  0  0  0
   39.1330   29.9020   44.6870 C   0  0  0  0  0  0  0  0  0  0  0  0
   38.2500   29.4090   44.1920 H   0  0  0  0  0  0  0  0  0  0  0  0
   39.7730   29.0760   45.0580 H   0  0  0  0  0  0  0  0  0  0  0  0
   39.9270   30.6420   43.6620 C   0  0  0  0  0  3  0  0  0  0  0  0
   39.0420   30.7310   42.4140 C   0  0  0  0  0  2  0  0  0  0  0  0
   39.2360   32.1190   41.8770 C   0  0  0  0  0  2  0  0  0  0  0  0
   39.5820   32.9700   43.0560 C   0  0  0  0  0  2  0  0  0  0  0  0
   40.2680   32.0520   44.0300 C   0  0  0  0  0  2  0  0  0  0  0  0
  1 11  1  0  0  0  0
  1  2  1  0  0  0  0
  2  7  1  0  0  0  0
  3  2  2  0  0  0  0
  3  8  1  0  0  0  0
  4  9  1  0  0  0  0
  4  3  1  0  0  0  0
  5  6  1  0  0  0  0
  5  4  2  0  0  0  0
  6  1  2  0  0  0  0
 10  5  1  0  0  0  0
 11 12  2  0  0  0  0
 13 14  2  0  0  0  0
 13 18  1  0  0  0  0
 14 15  1  0  0  0  0
 15 21  1  0  0  0  0
 15 16  2  0  0  0  0
 17 16  1  0  0  0  0
 17 11  1  0  0  0  0
 18 17  2  0  0  0  0
 19 13  1  0  0  0  0
 20 14  1  0  0  0  0
 22  6  1  0  0  0  0
 23 22  2  0  0  0  0
 24 26  1  0  0  0  0
 24 23  1  0  0  0  0
 25 24  1  0  0  0  0
 27 31  1  0  0  0  0
 27 24  1  0  0  0  0
 28 27  1  0  0  0  0
 29 28  1  0  0  0  0
 29 30  1  0  0  0  0
 30 31  1  0  0  0  0
M  END
>  <minimizedAffinity>
-5.9926672

>  <minimizedRMSD>
1.06371725

$$$$
