
 OpenBabel03272509313D

 34 36  0  0  1  0  0  0  0  0999 V2000
   36.3140   30.6950   48.9940 C   0  0  2  0  0  0  0  0  0  0  0  0
   37.2560   31.5890   49.7390 C   0  0  0  0  0  0  0  0  0  0  0  0
   38.1500   30.8360   50.6970 C   0  0  0  0  0  0  0  0  0  0  0  0
   37.3290   30.0040   51.6760 C   0  0  0  0  0  0  0  0  0  0  0  0
   36.0710   29.4230   51.0840 C   0  0  0  0  0  0  0  0  0  0  0  0
   36.2640   29.3200   49.5610 C   0  0  1  0  0  0  0  0  0  0  0  0
   35.2470   31.0550   48.9870 H   0  0  0  0  0  0  0  0  0  0  0  0
   36.5770   32.1970   50.4270 H   0  0  0  0  0  0  0  0  0  0  0  0
   37.8030   32.3210   49.1770 H   0  0  0  0  0  0  0  0  0  0  0  0
   38.9290   30.2360   50.2140 H   0  0  0  0  0  0  0  0  0  0  0  0
   38.6530   31.6130   51.3090 H   0  0  0  0  0  0  0  0  0  0  0  0
   37.1520   30.5180   52.6350 H   0  0  0  0  0  0  0  0  0  0  0  0
   37.9820   29.1260   51.9350 H   0  0  0  0  0  0  0  0  0  0  0  0
   35.8600   28.4110   51.4850 H   0  0  0  0  0  0  0  0  0  0  0  0
   35.2390   30.0930   51.3230 H   0  0  0  0  0  0  0  0  0  0  0  0
   37.2080   28.8350   49.5190 H   0  0  0  0  0  0  0  0  0  0  0  0
   36.6790   30.6090   47.5530 C   0  0  0  0  0  0  0  0  0  0  0  0
   38.0400   30.7950   47.2620 C   0  0  0  0  0  0  0  0  0  0  0  0
   38.4010   30.7160   45.9120 C   0  0  0  0  0  0  0  0  0  0  0  0
   37.4300   30.4660   44.9720 N   0  0  0  0  0  0  0  0  0  0  0  0
   36.1120   30.2910   45.3160 C   0  0  0  0  0  0  0  0  0  0  0  0
   35.7570   30.3660   46.6110 N   0  0  0  0  0  0  0  0  0  0  0  0
   38.8830   30.9850   47.8940 H   0  0  0  0  0  0  0  0  0  0  0  0
   39.3990   30.8360   45.5330 H   0  0  0  0  0  0  0  0  0  0  0  0
   35.4100   30.0980   44.5300 H   0  0  0  0  0  0  0  0  0  0  0  0
   33.9770   28.3260   49.0960 C   0  0  0  0  0  0  0  0  0  0  0  0
   33.1720   28.9910   49.8060 O   0  0  0  0  0  0  0  0  0  0  0  0
   35.3790   28.4270   48.9080 N   0  0  0  0  0  0  0  0  0  0  0  0
   35.6800   27.7060   48.1770 H   0  0  0  0  0  0  0  0  0  0  0  0
   33.0960   27.3250   48.4290 C   0  0  0  0  0  3  0  0  0  0  0  0
   31.6490   27.6340   48.5900 C   0  0  0  0  0  2  0  0  0  0  0  0
   31.1030   27.7540   47.1700 C   0  0  0  0  0  2  0  0  0  0  0  0
   31.9830   26.7770   46.4270 C   0  0  0  0  0  2  0  0  0  0  0  0
   33.3620   27.2060   46.9450 C   0  0  0  0  0  2  0  0  0  0  0  0
  1  7  1  1  0  0  0
  1  6  1  0  0  0  0
  1  2  1  0  0  0  0
  2  8  1  0  0  0  0
  2  3  1  0  0  0  0
  3 11  1  0  0  0  0
  3  4  1  0  0  0  0
  4 13  1  0  0  0  0
  4 12  1  0  0  0  0
  5 15  1  0  0  0  0
  5 14  1  0  0  0  0
  5  4  1  0  0  0  0
  6 16  1  6  0  0  0
  6  5  1  0  0  0  0
  9  2  1  0  0  0  0
 10  3  1  0  0  0  0
 17  1  1  0  0  0  0
 18 17  1  0  0  0  0
 18 23  1  0  0  0  0
 19 18  2  0  0  0  0
 20 21  2  0  0  0  0
 20 19  1  0  0  0  0
 21 22  1  0  0  0  0
 22 17  2  0  0  0  0
 24 19  1  0  0  0  0
 25 21  1  0  0  0  0
 26 27  2  0  0  0  0
 28 26  1  0  0  0  0
 28  6  1  0  0  0  0
 29 28  1  0  0  0  0
 30 31  1  0  0  0  0
 30 26  1  0  0  0  0
 32 31  1  0  0  0  0
 33 34  1  0  0  0  0
 33 32  1  0  0  0  0
 34 30  1  0  0  0  0
M  END
>  <minimizedAffinity>
-5.94323063

>  <minimizedRMSD>
0.360000521

$$$$
