
 OpenBabel03272507313D

 25 27  0  0  0  0  0  0  0  0999 V2000
   35.8360   29.1290   49.8020 C   0  0  0  0  0  0  0  0  0  0  0  0
   34.8190   29.6320   50.5420 C   0  0  0  0  0  0  0  0  0  0  0  0
   33.6210   29.0950   50.0720 C   0  0  0  0  0  0  0  0  0  0  0  0
   34.0090   28.2490   49.0100 C   0  0  0  0  0  0  0  0  0  0  0  0
   35.2950   28.3390   48.9360 O   0  0  0  0  0  0  0  0  0  0  0  0
   34.8740   30.3290   51.3670 H   0  0  0  0  0  0  0  0  0  0  0  0
   32.6200   29.2600   50.4090 H   0  0  0  0  0  0  0  0  0  0  0  0
   37.2230   29.4810   50.0270 C   0  0  0  0  0  0  0  0  0  0  0  0
   37.8630   28.8770   50.8980 O   0  0  0  0  0  0  0  0  0  0  0  0
   37.7760   30.5410   49.1930 C   0  0  0  0  0  0  0  0  0  0  0  0
   38.1190   31.7300   49.8380 C   0  0  0  0  0  0  0  0  0  0  0  0
   38.6480   32.7660   49.0830 C   0  0  0  0  0  0  0  0  0  0  0  0
   38.8030   32.5520   47.7350 N   0  0  0  0  0  0  0  0  0  0  0  0
   38.4680   31.4070   47.1390 C   0  0  0  0  0  0  0  0  0  0  0  0
   37.9540   30.3970   47.8600 N   0  0  0  0  0  0  0  0  0  0  0  0
   37.9720   31.8370   50.9070 H   0  0  0  0  0  0  0  0  0  0  0  0
   38.9120   33.6830   49.5790 H   0  0  0  0  0  0  0  0  0  0  0  0
   38.6310   31.3400   46.0710 H   0  0  0  0  0  0  0  0  0  0  0  0
   33.0700   27.4600   48.2020 C   0  0  0  0  0  0  0  0  0  0  0  0
   33.5080   26.5390   47.4600 O   0  0  0  0  0  0  0  0  0  0  0  0
   31.6480   27.8090   48.3190 C   0  0  0  0  0  3  0  0  0  0  0  0
   30.7680   26.5820   48.5550 C   0  0  0  0  0  2  0  0  0  0  0  0
   29.3930   27.2070   48.4020 C   0  0  0  0  0  2  0  0  0  0  0  0
   29.5840   28.4220   47.4840 C   0  0  0  0  0  2  0  0  0  0  0  0
   31.0390   28.2740   47.0170 C   0  0  0  0  0  2  0  0  0  0  0  0
  1  8  1  0  0  0  0
  1  2  2  0  0  0  0
  2  6  1  0  0  0  0
  3  7  1  0  0  0  0
  3  2  1  0  0  0  0
  4  3  2  0  0  0  0
  5  4  1  0  0  0  0
  5  1  1  0  0  0  0
  8  9  2  0  0  0  0
 10 11  1  0  0  0  0
 10  8  1  0  0  0  0
 11 16  1  0  0  0  0
 12 17  1  0  0  0  0
 12 11  2  0  0  0  0
 13 12  1  0  0  0  0
 14 13  2  0  0  0  0
 14 15  1  0  0  0  0
 15 10  2  0  0  0  0
 18 14  1  0  0  0  0
 19 21  1  0  0  0  0
 19  4  1  0  0  0  0
 20 19  2  0  0  0  0
 21 22  1  0  0  0  0
 23 22  1  0  0  0  0
 24 23  1  0  0  0  0
 25 24  1  0  0  0  0
 25 21  1  0  0  0  0
M  END
>  <minimizedAffinity>
-5.38812399

>  <minimizedRMSD>
2.94329786

$$$$
