
 OpenBabel03272507173D

 22 24  0  0  1  0  0  0  0  0999 V2000
   37.7240   27.4080   35.3620 C   0  0  1  0  0  0  0  0  0  0  0  0
   38.2110   26.2020   35.9990 C   0  0  2  0  0  0  0  0  0  0  0  0
   39.2110   27.0540   35.2460 C   0  0  0  0  0  0  0  0  0  0  0  0
   37.5840   28.3800   35.9070 H   0  0  0  0  0  0  0  0  0  0  0  0
   38.2810   26.1610   37.0940 H   0  0  0  0  0  0  0  0  0  0  0  0
   39.9200   27.5980   35.8960 H   0  0  0  0  0  0  0  0  0  0  0  0
   39.6030   26.7230   34.2900 H   0  0  0  0  0  0  0  0  0  0  0  0
   37.0230   27.3480   34.0250 C   0  0  0  0  0  0  0  0  0  0  0  0
   36.2490   28.4640   33.7030 C   0  0  0  0  0  0  0  0  0  0  0  0
   35.5780   28.3910   32.4730 C   0  0  0  0  0  0  0  0  0  0  0  0
   35.7040   27.2750   31.6720 N   0  0  0  0  0  0  0  0  0  0  0  0
   36.4810   26.2170   32.0500 C   0  0  0  0  0  0  0  0  0  0  0  0
   37.1470   26.2510   33.2360 N   0  0  0  0  0  0  0  0  0  0  0  0
   36.1780   29.3170   34.3590 H   0  0  0  0  0  0  0  0  0  0  0  0
   34.9640   29.2190   32.1650 H   0  0  0  0  0  0  0  0  0  0  0  0
   36.5300   25.3850   31.3740 H   0  0  0  0  0  0  0  0  0  0  0  0
   37.9110   24.9590   35.4240 O   0  0  0  0  0  0  0  0  0  0  0  0
   38.2340   24.0020   36.3730 C   0  0  0  0  0  3  0  0  0  0  0  0
   39.7060   23.6420   36.3940 C   0  0  0  0  0  2  0  0  0  0  0  0
   39.7260   22.7610   37.6510 C   0  0  0  0  0  2  0  0  0  0  0  0
   38.6900   23.3870   38.5870 C   0  0  0  0  0  2  0  0  0  0  0  0
   38.0620   24.5260   37.7950 C   0  0  0  0  0  2  0  0  0  0  0  0
  1  4  1  1  0  0  0
  1  2  1  0  0  0  0
  2  5  1  1  0  0  0
  3  1  1  0  0  0  0
  3  6  1  0  0  0  0
  3  2  1  0  0  0  0
  7  3  1  0  0  0  0
  8  1  1  0  0  0  0
  9  8  1  0  0  0  0
  9 14  1  0  0  0  0
 10  9  2  0  0  0  0
 11 12  2  0  0  0  0
 11 10  1  0  0  0  0
 12 13  1  0  0  0  0
 13  8  2  0  0  0  0
 15 10  1  0  0  0  0
 16 12  1  0  0  0  0
 17  2  1  0  0  0  0
 17 18  1  0  0  0  0
 18 19  1  0  0  0  0
 18 22  1  0  0  0  0
 19 20  1  0  0  0  0
 20 21  1  0  0  0  0
 22 21  1  0  0  0  0
M  END
>  <minimizedAffinity>
-4.84663916

$$$$

 OpenBabel03272507173D

 22 24  0  0  1  0  0  0  0  0999 V2000
   37.7240   27.2050   34.5210 C   0  0  1  0  0  0  0  0  0  0  0  0
   37.7470   26.3580   35.6950 C   0  0  2  0  0  0  0  0  0  0  0  0
   39.0030   27.1350   35.3620 C   0  0  0  0  0  0  0  0  0  0  0  0
   37.3010   28.2460   34.5190 H   0  0  0  0  0  0  0  0  0  0  0  0
   37.1720   26.6520   36.5830 H   0  0  0  0  0  0  0  0  0  0  0  0
   39.2110   27.9740   36.0520 H   0  0  0  0  0  0  0  0  0  0  0  0
   39.8740   26.6250   34.9620 H   0  0  0  0  0  0  0  0  0  0  0  0
   37.9230   26.6210   33.1410 C   0  0  0  0  0  0  0  0  0  0  0  0
   38.9730   27.1700   32.4030 C   0  0  0  0  0  0  0  0  0  0  0  0
   39.1360   26.6430   31.1140 C   0  0  0  0  0  0  0  0  0  0  0  0
   38.2950   25.6540   30.6500 N   0  0  0  0  0  0  0  0  0  0  0  0
   37.2860   25.1610   31.4280 C   0  0  0  0  0  0  0  0  0  0  0  0
   37.0960   25.6460   32.6850 N   0  0  0  0  0  0  0  0  0  0  0  0
   39.6080   27.9440   32.8050 H   0  0  0  0  0  0  0  0  0  0  0  0
   39.9280   27.0240   30.4930 H   0  0  0  0  0  0  0  0  0  0  0  0
   36.6730   24.3920   30.9990 H   0  0  0  0  0  0  0  0  0  0  0  0
   37.8260   24.9680   35.5310 O   0  0  0  0  0  0  0  0  0  0  0  0
   38.5810   24.4920   36.5910 C   0  0  0  0  0  3  0  0  0  0  0  0
   37.7510   24.0620   37.7830 C   0  0  0  0  0  2  0  0  0  0  0  0
   38.8550   23.4200   38.6350 C   0  0  0  0  0  2  0  0  0  0  0  0
   39.8140   22.7880   37.6240 C   0  0  0  0  0  2  0  0  0  0  0  0
   39.2740   23.1750   36.2530 C   0  0  0  0  0  2  0  0  0  0  0  0
  1  4  1  1  0  0  0
  1  3  1  0  0  0  0
  1  2  1  0  0  0  0
  2  5  1  1  0  0  0
  3  2  1  0  0  0  0
  3  6  1  0  0  0  0
  7  3  1  0  0  0  0
  8  1  1  0  0  0  0
  9 14  1  0  0  0  0
  9  8  2  0  0  0  0
 10  9  1  0  0  0  0
 11 10  2  0  0  0  0
 11 12  1  0  0  0  0
 12 13  2  0  0  0  0
 13  8  1  0  0  0  0
 15 10  1  0  0  0  0
 16 12  1  0  0  0  0
 17  2  1  0  0  0  0
 17 18  1  0  0  0  0
 18 19  1  0  0  0  0
 19 20  1  0  0  0  0
 21 20  1  0  0  0  0
 22 18  1  0  0  0  0
 22 21  1  0  0  0  0
M  END
>  <minimizedAffinity>
-4.32215977

$$$$

 OpenBabel03272507173D

 22 24  0  0  1  0  0  0  0  0999 V2000
   38.2330   23.4300   32.5690 C   0  0  1  0  0  0  0  0  0  0  0  0
   38.5550   23.1990   33.9620 C   0  0  2  0  0  0  0  0  0  0  0  0
   37.5800   22.2490   33.2980 C   0  0  0  0  0  0  0  0  0  0  0  0
   38.8750   23.0710   31.7200 H   0  0  0  0  0  0  0  0  0  0  0  0
   39.5500   22.8220   34.2310 H   0  0  0  0  0  0  0  0  0  0  0  0
   37.9910   21.2400   33.1110 H   0  0  0  0  0  0  0  0  0  0  0  0
   36.5220   22.2930   33.5370 H   0  0  0  0  0  0  0  0  0  0  0  0
   37.2190   24.4780   32.1720 C   0  0  0  0  0  0  0  0  0  0  0  0
   36.1340   24.0110   31.4270 C   0  0  0  0  0  0  0  0  0  0  0  0
   35.2110   24.9920   31.0380 C   0  0  0  0  0  0  0  0  0  0  0  0
   35.4020   26.3120   31.3880 N   0  0  0  0  0  0  0  0  0  0  0  0
   36.4890   26.7000   32.1210 C   0  0  0  0  0  0  0  0  0  0  0  0
   37.4060   25.7760   32.5170 N   0  0  0  0  0  0  0  0  0  0  0  0
   36.0230   22.9680   31.1740 H   0  0  0  0  0  0  0  0  0  0  0  0
   34.3520   24.6980   30.4610 H   0  0  0  0  0  0  0  0  0  0  0  0
   36.5690   27.7440   32.3550 H   0  0  0  0  0  0  0  0  0  0  0  0
   38.0120   24.0500   34.9360 O   0  0  0  0  0  0  0  0  0  0  0  0
   38.2980   23.4720   36.1620 C   0  0  0  0  0  3  0  0  0  0  0  0
   39.7810   23.2990   36.4200 C   0  0  0  0  0  2  0  0  0  0  0  0
   39.7260   22.8550   37.8890 C   0  0  0  0  0  2  0  0  0  0  0  0
   38.5440   23.6200   38.4880 C   0  0  0  0  0  2  0  0  0  0  0  0
   37.9240   24.3850   37.3260 C   0  0  0  0  0  2  0  0  0  0  0  0
  1  4  1  6  0  0  0
  1  3  1  0  0  0  0
  1  2  1  0  0  0  0
  2  5  1  1  0  0  0
  2 17  1  0  0  0  0
  3  7  1  0  0  0  0
  3  2  1  0  0  0  0
  6  3  1  0  0  0  0
  8 13  1  0  0  0  0
  8  1  1  0  0  0  0
  9  8  2  0  0  0  0
 10 11  2  0  0  0  0
 10  9  1  0  0  0  0
 11 12  1  0  0  0  0
 12 16  1  0  0  0  0
 12 13  2  0  0  0  0
 14  9  1  0  0  0  0
 15 10  1  0  0  0  0
 17 18  1  0  0  0  0
 18 19  1  0  0  0  0
 18 22  1  0  0  0  0
 19 20  1  0  0  0  0
 20 21  1  0  0  0  0
 22 21  1  0  0  0  0
M  END
>  <minimizedAffinity>
-4.18640232

$$$$

 OpenBabel03272507173D

 22 24  0  0  1  0  0  0  0  0999 V2000
   39.1410   23.1630   37.4500 C   0  0  1  0  0  0  0  0  0  0  0  0
   38.3840   24.2440   36.8530 C   0  0  2  0  0  0  0  0  0  0  0  0
   38.0210   22.8270   36.4580 C   0  0  0  0  0  0  0  0  0  0  0  0
   38.9170   22.7400   38.4660 H   0  0  0  0  0  0  0  0  0  0  0  0
   37.6740   24.8100   37.4710 H   0  0  0  0  0  0  0  0  0  0  0  0
   37.0580   22.4760   36.8710 H   0  0  0  0  0  0  0  0  0  0  0  0
   38.2810   22.4500   35.4740 H   0  0  0  0  0  0  0  0  0  0  0  0
   40.5020   22.7840   36.9130 C   0  0  0  0  0  0  0  0  0  0  0  0
   41.0800   21.6520   37.4900 C   0  0  0  0  0  0  0  0  0  0  0  0
   42.3550   21.3210   37.0080 C   0  0  0  0  0  0  0  0  0  0  0  0
   42.9560   22.0890   36.0340 N   0  0  0  0  0  0  0  0  0  0  0  0
   42.3320   23.1860   35.5120 C   0  0  0  0  0  0  0  0  0  0  0  0
   41.0940   23.5390   35.9540 N   0  0  0  0  0  0  0  0  0  0  0  0
   40.5740   21.0780   38.2510 H   0  0  0  0  0  0  0  0  0  0  0  0
   42.8560   20.4580   37.4120 H   0  0  0  0  0  0  0  0  0  0  0  0
   42.8620   23.7340   34.7570 H   0  0  0  0  0  0  0  0  0  0  0  0
   38.9820   25.0240   35.8530 O   0  0  0  0  0  0  0  0  0  0  0  0
   37.9820   25.8360   35.3420 C   0  0  0  0  0  3  0  0  0  0  0  0
   38.1650   27.3040   35.6730 C   0  0  0  0  0  2  0  0  0  0  0  0
   37.0470   27.8940   34.8020 C   0  0  0  0  0  2  0  0  0  0  0  0
   37.0020   27.0010   33.5610 C   0  0  0  0  0  2  0  0  0  0  0  0
   38.0170   25.8950   33.8180 C   0  0  0  0  0  2  0  0  0  0  0  0
  1  4  1  1  0  0  0
  2  1  1  0  0  0  0
  2  5  1  1  0  0  0
  3  2  1  0  0  0  0
  3  6  1  0  0  0  0
  3  1  1  0  0  0  0
  7  3  1  0  0  0  0
  8  1  1  0  0  0  0
  8  9  1  0  0  0  0
  9 14  1  0  0  0  0
 10 15  1  0  0  0  0
 10  9  2  0  0  0  0
 11 10  1  0  0  0  0
 12 13  1  0  0  0  0
 12 11  2  0  0  0  0
 13  8  2  0  0  0  0
 16 12  1  0  0  0  0
 17  2  1  0  0  0  0
 18 19  1  0  0  0  0
 18 17  1  0  0  0  0
 20 19  1  0  0  0  0
 21 22  1  0  0  0  0
 21 20  1  0  0  0  0
 22 18  1  0  0  0  0
M  END
>  <minimizedAffinity>
-4.15552616

$$$$

 OpenBabel03272507173D

 22 24  0  0  1  0  0  0  0  0999 V2000
   39.0920   26.1840   35.0730 C   0  0  1  0  0  0  0  0  0  0  0  0
   38.2550   27.0720   34.2920 C   0  0  2  0  0  0  0  0  0  0  0  0
   38.3910   27.3540   35.7740 C   0  0  0  0  0  0  0  0  0  0  0  0
   40.2080   26.2880   35.1390 H   0  0  0  0  0  0  0  0  0  0  0  0
   38.7220   27.7690   33.5840 H   0  0  0  0  0  0  0  0  0  0  0  0
   38.9960   28.2480   36.0100 H   0  0  0  0  0  0  0  0  0  0  0  0
   37.5650   27.1490   36.4490 H   0  0  0  0  0  0  0  0  0  0  0  0
   38.5700   24.8470   35.5470 C   0  0  0  0  0  0  0  0  0  0  0  0
   38.6940   23.7980   34.6340 C   0  0  0  0  0  0  0  0  0  0  0  0
   38.1830   22.5660   35.0680 C   0  0  0  0  0  0  0  0  0  0  0  0
   37.6080   22.4470   36.3160 N   0  0  0  0  0  0  0  0  0  0  0  0
   37.5200   23.5180   37.1600 C   0  0  0  0  0  0  0  0  0  0  0  0
   38.0050   24.7290   36.7740 N   0  0  0  0  0  0  0  0  0  0  0  0
   39.1510   23.9350   33.6670 H   0  0  0  0  0  0  0  0  0  0  0  0
   38.2470   21.7160   34.4120 H   0  0  0  0  0  0  0  0  0  0  0  0
   37.0600   23.3480   38.1140 H   0  0  0  0  0  0  0  0  0  0  0  0
   36.9960   26.6240   33.8670 O   0  0  0  0  0  0  0  0  0  0  0  0
   36.6530   27.4020   32.7740 C   0  0  0  0  0  3  0  0  0  0  0  0
   36.1280   28.7740   33.1460 C   0  0  0  0  0  2  0  0  0  0  0  0
   36.0610   29.4020   31.7460 C   0  0  0  0  0  2  0  0  0  0  0  0
   37.2470   28.8010   30.9890 C   0  0  0  0  0  2  0  0  0  0  0  0
   37.8740   27.7950   31.9460 C   0  0  0  0  0  2  0  0  0  0  0  0
  1  4  1  6  0  0  0
  1  8  1  0  0  0  0
  1  3  1  0  0  0  0
  2  5  1  6  0  0  0
  2  1  1  0  0  0  0
  2  3  1  0  0  0  0
  3  6  1  0  0  0  0
  3  7  1  0  0  0  0
  8 13  1  0  0  0  0
  9 10  1  0  0  0  0
  9  8  2  0  0  0  0
 10 11  2  0  0  0  0
 11 12  1  0  0  0  0
 12 16  1  0  0  0  0
 13 12  2  0  0  0  0
 14  9  1  0  0  0  0
 15 10  1  0  0  0  0
 17  2  1  0  0  0  0
 18 19  1  0  0  0  0
 18 17  1  0  0  0  0
 20 19  1  0  0  0  0
 21 20  1  0  0  0  0
 21 22  1  0  0  0  0
 22 18  1  0  0  0  0
M  END
>  <minimizedAffinity>
-4.14638853

$$$$

 OpenBabel03272507173D

 22 24  0  0  1  0  0  0  0  0999 V2000
   38.5910   23.1490   36.6320 C   0  0  1  0  0  0  0  0  0  0  0  0
   38.5020   24.5940   36.5720 C   0  0  2  0  0  0  0  0  0  0  0  0
   37.9580   23.9050   37.8060 C   0  0  0  0  0  0  0  0  0  0  0  0
   39.5150   22.6010   36.9590 H   0  0  0  0  0  0  0  0  0  0  0  0
   39.4150   25.1950   36.6710 H   0  0  0  0  0  0  0  0  0  0  0  0
   38.5720   24.0520   38.7130 H   0  0  0  0  0  0  0  0  0  0  0  0
   36.8860   23.8330   37.9660 H   0  0  0  0  0  0  0  0  0  0  0  0
   37.5850   22.2820   35.9110 C   0  0  0  0  0  0  0  0  0  0  0  0
   37.8070   22.1190   34.5420 C   0  0  0  0  0  0  0  0  0  0  0  0
   36.8550   21.3360   33.8730 C   0  0  0  0  0  0  0  0  0  0  0  0
   35.7930   20.7860   34.5590 N   0  0  0  0  0  0  0  0  0  0  0  0
   35.6380   20.9860   35.9010 C   0  0  0  0  0  0  0  0  0  0  0  0
   36.5400   21.7400   36.5850 N   0  0  0  0  0  0  0  0  0  0  0  0
   38.6520   22.5670   34.0440 H   0  0  0  0  0  0  0  0  0  0  0  0
   36.9680   21.1720   32.8150 H   0  0  0  0  0  0  0  0  0  0  0  0
   34.7860   20.5260   36.3660 H   0  0  0  0  0  0  0  0  0  0  0  0
   37.5490   25.1830   35.7300 O   0  0  0  0  0  0  0  0  0  0  0  0
   38.2480   25.6960   34.6490 C   0  0  0  0  0  3  0  0  0  0  0  0
   37.4960   26.7770   33.8990 C   0  0  0  0  0  2  0  0  0  0  0  0
   38.6110   27.2390   32.9490 C   0  0  0  0  0  2  0  0  0  0  0  0
   39.9020   27.0970   33.7580 C   0  0  0  0  0  2  0  0  0  0  0  0
   39.4840   26.4760   35.0850 C   0  0  0  0  0  2  0  0  0  0  0  0
  1  4  1  1  0  0  0
  1  3  1  0  0  0  0
  2  1  1  0  0  0  0
  2  5  1  1  0  0  0
  2  3  1  0  0  0  0
  3  7  1  0  0  0  0
  3  6  1  0  0  0  0
  8 13  1  0  0  0  0
  8  1  1  0  0  0  0
  9  8  2  0  0  0  0
 10  9  1  0  0  0  0
 10 11  2  0  0  0  0
 11 12  1  0  0  0  0
 12 16  1  0  0  0  0
 12 13  2  0  0  0  0
 14  9  1  0  0  0  0
 15 10  1  0  0  0  0
 17  2  1  0  0  0  0
 18 22  1  0  0  0  0
 18 17  1  0  0  0  0
 19 18  1  0  0  0  0
 20 21  1  0  0  0  0
 20 19  1  0  0  0  0
 21 22  1  0  0  0  0
M  END
>  <minimizedAffinity>
-4.09622765

$$$$

 OpenBabel03272507173D

 22 24  0  0  1  0  0  0  0  0999 V2000
   38.1640   23.6100   34.5840 C   0  0  1  0  0  0  0  0  0  0  0  0
   38.5070   24.8000   33.8320 C   0  0  2  0  0  0  0  0  0  0  0  0
   39.4210   23.6000   33.7070 C   0  0  0  0  0  0  0  0  0  0  0  0
   37.4200   22.8480   34.2270 H   0  0  0  0  0  0  0  0  0  0  0  0
   37.8970   25.0840   32.9640 H   0  0  0  0  0  0  0  0  0  0  0  0
   39.3620   23.0870   32.7290 H   0  0  0  0  0  0  0  0  0  0  0  0
   40.3980   23.6030   34.1810 H   0  0  0  0  0  0  0  0  0  0  0  0
   38.5000   23.5000   36.0530 C   0  0  0  0  0  0  0  0  0  0  0  0
   37.6080   24.1340   36.9200 C   0  0  0  0  0  0  0  0  0  0  0  0
   37.9390   24.0530   38.2810 C   0  0  0  0  0  0  0  0  0  0  0  0
   39.0750   23.3830   38.6860 N   0  0  0  0  0  0  0  0  0  0  0  0
   39.9040   22.7840   37.7810 C   0  0  0  0  0  0  0  0  0  0  0  0
   39.6160   22.8410   36.4530 N   0  0  0  0  0  0  0  0  0  0  0  0
   36.7300   24.6480   36.5610 H   0  0  0  0  0  0  0  0  0  0  0  0
   37.2930   24.5210   39.0020 H   0  0  0  0  0  0  0  0  0  0  0  0
   40.7680   22.2820   38.1720 H   0  0  0  0  0  0  0  0  0  0  0  0
   39.0370   25.9050   34.5110 O   0  0  0  0  0  0  0  0  0  0  0  0
   38.3210   27.0100   34.0790 C   0  0  0  0  0  3  0  0  0  0  0  0
   37.7580   26.8590   32.6800 C   0  0  0  0  0  2  0  0  0  0  0  0
   36.8850   28.1210   32.6280 C   0  0  0  0  0  2  0  0  0  0  0  0
   36.3640   28.2990   34.0550 C   0  0  0  0  0  2  0  0  0  0  0  0
   37.0310   27.2000   34.8720 C   0  0  0  0  0  2  0  0  0  0  0  0
  1  4  1  6  0  0  0
  1  8  1  0  0  0  0
  2  5  1  6  0  0  0
  2 17  1  0  0  0  0
  2  1  1  0  0  0  0
  3  2  1  0  0  0  0
  3  7  1  0  0  0  0
  3  1  1  0  0  0  0
  6  3  1  0  0  0  0
  8 13  2  0  0  0  0
  8  9  1  0  0  0  0
  9 10  2  0  0  0  0
 10 11  1  0  0  0  0
 10 15  1  0  0  0  0
 12 16  1  0  0  0  0
 12 11  2  0  0  0  0
 13 12  1  0  0  0  0
 14  9  1  0  0  0  0
 18 17  1  0  0  0  0
 18 22  1  0  0  0  0
 19 18  1  0  0  0  0
 20 19  1  0  0  0  0
 20 21  1  0  0  0  0
 21 22  1  0  0  0  0
M  END
>  <minimizedAffinity>
-4.08753014

$$$$

 OpenBabel03272507173D

 22 24  0  0  1  0  0  0  0  0999 V2000
   39.4050   22.9080   35.5490 C   0  0  1  0  0  0  0  0  0  0  0  0
   38.5570   22.0700   34.7260 C   0  0  2  0  0  0  0  0  0  0  0  0
   39.9760   22.3140   34.2560 C   0  0  0  0  0  0  0  0  0  0  0  0
   39.9650   22.5270   36.4450 H   0  0  0  0  0  0  0  0  0  0  0  0
   38.2890   21.0650   35.0760 H   0  0  0  0  0  0  0  0  0  0  0  0
   40.6370   21.4330   34.3430 H   0  0  0  0  0  0  0  0  0  0  0  0
   40.1680   22.9690   33.4120 H   0  0  0  0  0  0  0  0  0  0  0  0
   39.3050   24.4140   35.4820 C   0  0  0  0  0  0  0  0  0  0  0  0
   40.3960   25.0630   34.9020 C   0  0  0  0  0  0  0  0  0  0  0  0
   40.3100   26.4620   34.8680 C   0  0  0  0  0  0  0  0  0  0  0  0
   39.2050   27.1080   35.3820 N   0  0  0  0  0  0  0  0  0  0  0  0
   38.1700   26.4090   35.9360 C   0  0  0  0  0  0  0  0  0  0  0  0
   38.2180   25.0500   35.9870 N   0  0  0  0  0  0  0  0  0  0  0  0
   41.2410   24.5180   34.5110 H   0  0  0  0  0  0  0  0  0  0  0  0
   41.1190   27.0230   34.4340 H   0  0  0  0  0  0  0  0  0  0  0  0
   37.3450   26.9810   36.3150 H   0  0  0  0  0  0  0  0  0  0  0  0
   37.5470   22.6690   33.9600 O   0  0  0  0  0  0  0  0  0  0  0  0
   36.9330   21.6460   33.2560 C   0  0  0  0  0  3  0  0  0  0  0  0
   35.9530   20.8410   34.0870 C   0  0  0  0  0  2  0  0  0  0  0  0
   35.3350   19.9810   32.9750 C   0  0  0  0  0  2  0  0  0  0  0  0
   35.3120   20.8870   31.7430 C   0  0  0  0  0  2  0  0  0  0  0  0
   35.9990   22.1770   32.1730 C   0  0  0  0  0  2  0  0  0  0  0  0
  1  4  1  1  0  0  0
  2  5  1  1  0  0  0
  2  1  1  0  0  0  0
  3  6  1  0  0  0  0
  3  2  1  0  0  0  0
  3  1  1  0  0  0  0
  7  3  1  0  0  0  0
  8  1  1  0  0  0  0
  8 13  1  0  0  0  0
  9  8  2  0  0  0  0
 10  9  1  0  0  0  0
 10 11  2  0  0  0  0
 11 12  1  0  0  0  0
 12 13  2  0  0  0  0
 12 16  1  0  0  0  0
 14  9  1  0  0  0  0
 15 10  1  0  0  0  0
 17  2  1  0  0  0  0
 18 17  1  0  0  0  0
 18 19  1  0  0  0  0
 20 19  1  0  0  0  0
 21 22  1  0  0  0  0
 21 20  1  0  0  0  0
 22 18  1  0  0  0  0
M  END
>  <minimizedAffinity>
-3.98961568

$$$$

 OpenBabel03272507173D

 22 24  0  0  1  0  0  0  0  0999 V2000
   39.1120   24.0110   34.3790 C   0  0  1  0  0  0  0  0  0  0  0  0
   38.2600   23.2550   33.4840 C   0  0  2  0  0  0  0  0  0  0  0  0
   37.8520   24.6760   33.8130 C   0  0  0  0  0  0  0  0  0  0  0  0
   40.0360   24.5510   34.0410 H   0  0  0  0  0  0  0  0  0  0  0  0
   38.6070   23.0350   32.4670 H   0  0  0  0  0  0  0  0  0  0  0  0
   37.9780   25.3870   32.9760 H   0  0  0  0  0  0  0  0  0  0  0  0
   37.0110   24.8660   34.4740 H   0  0  0  0  0  0  0  0  0  0  0  0
   39.0250   23.8190   35.8760 C   0  0  0  0  0  0  0  0  0  0  0  0
   39.9770   22.9590   36.4260 C   0  0  0  0  0  0  0  0  0  0  0  0
   39.8750   22.7620   37.8110 C   0  0  0  0  0  0  0  0  0  0  0  0
   38.8880   23.3960   38.5370 N   0  0  0  0  0  0  0  0  0  0  0  0
   37.9880   24.2280   37.9330 C   0  0  0  0  0  0  0  0  0  0  0  0
   38.0550   24.4430   36.5910 N   0  0  0  0  0  0  0  0  0  0  0  0
   40.7330   22.4830   35.8210 H   0  0  0  0  0  0  0  0  0  0  0  0
   40.5790   22.1100   38.2970 H   0  0  0  0  0  0  0  0  0  0  0  0
   37.2500   24.6850   38.5630 H   0  0  0  0  0  0  0  0  0  0  0  0
   37.4430   22.2460   34.0130 O   0  0  0  0  0  0  0  0  0  0  0  0
   37.0520   21.4590   32.9410 C   0  0  0  0  0  3  0  0  0  0  0  0
   35.8080   21.9640   32.2390 C   0  0  0  0  0  2  0  0  0  0  0  0
   35.8030   21.0140   31.0320 C   0  0  0  0  0  2  0  0  0  0  0  0
   37.2800   20.7800   30.7100 C   0  0  0  0  0  2  0  0  0  0  0  0
   38.0550   21.5190   31.7930 C   0  0  0  0  0  2  0  0  0  0  0  0
  1  4  1  6  0  0  0
  1  8  1  0  0  0  0
  2  5  1  6  0  0  0
  2  3  1  0  0  0  0
  2 17  1  0  0  0  0
  2  1  1  0  0  0  0
  3  1  1  0  0  0  0
  3  7  1  0  0  0  0
  6  3  1  0  0  0  0
  8  9  2  0  0  0  0
  8 13  1  0  0  0  0
  9 10  1  0  0  0  0
 10 15  1  0  0  0  0
 10 11  2  0  0  0  0
 12 11  1  0  0  0  0
 12 16  1  0  0  0  0
 13 12  2  0  0  0  0
 14  9  1  0  0  0  0
 18 17  1  0  0  0  0
 19 18  1  0  0  0  0
 20 19  1  0  0  0  0
 21 20  1  0  0  0  0
 21 22  1  0  0  0  0
 22 18  1  0  0  0  0
M  END
>  <minimizedAffinity>
-3.89585423

$$$$
