
 OpenBabel03272503213D

 33 36  0  0  0  0  0  0  0  0999 V2000
   36.7130   30.6890   47.2470 C   0  0  0  0  0  0  0  0  0  0  0  0
   37.6870   31.5760   47.4050 C   0  0  0  0  0  0  0  0  0  0  0  0
   38.2560   32.1340   46.3170 C   0  0  0  0  0  0  0  0  0  0  0  0
   37.7860   31.7450   45.0860 C   0  0  0  0  0  0  0  0  0  0  0  0
   36.4850   30.5370   45.5370 S   0  0  0  0  0  0  0  0  0  0  0  0
   38.0020   31.8310   48.4160 H   0  0  0  0  0  0  0  0  0  0  0  0
   39.0540   32.8660   46.2870 H   0  0  0  0  0  0  0  0  0  0  0  0
   40.6290   31.0550   44.2210 Cl  0  0  0  0  0  0  0  0  0  0  0  0
   39.3710   31.8250   43.2670 C   0  0  0  0  0  0  0  0  0  0  0  0
   38.1230   32.1000   43.7280 C   0  0  0  0  0  0  0  0  0  0  0  0
   37.1360   32.6870   43.0310 C   0  0  0  0  0  0  0  0  0  0  0  0
   37.3840   33.0640   41.7010 C   0  0  0  0  0  0  0  0  0  0  0  0
   38.6190   32.8150   41.1780 C   0  0  0  0  0  0  0  0  0  0  0  0
   39.0030   33.2540   39.5300 Cl  0  0  0  0  0  0  0  0  0  0  0  0
   39.6030   32.2020   41.9500 C   0  0  0  0  0  0  0  0  0  0  0  0
   36.1330   32.9060   43.4090 H   0  0  0  0  0  0  0  0  0  0  0  0
   36.6050   33.5400   41.1140 H   0  0  0  0  0  0  0  0  0  0  0  0
   40.5880   32.0130   41.5070 H   0  0  0  0  0  0  0  0  0  0  0  0
   35.1980   29.4600   50.4830 C   0  0  0  0  0  0  0  0  0  0  0  0
   35.9870   30.2330   49.6030 C   0  0  0  0  0  0  0  0  0  0  0  0
   35.9180   29.9270   48.2350 C   0  0  0  0  0  0  0  0  0  0  0  0
   35.1220   28.9350   47.8380 N   0  0  0  0  0  0  0  0  0  0  0  0
   34.3800   28.2130   48.6840 C   0  0  0  0  0  0  0  0  0  0  0  0
   34.4220   28.4760   49.9930 N   0  0  0  0  0  0  0  0  0  0  0  0
   35.2570   29.7030   51.5370 H   0  0  0  0  0  0  0  0  0  0  0  0
   36.6270   31.0320   49.9380 H   0  0  0  0  0  0  0  0  0  0  0  0
   33.5470   27.1550   48.1460 C   0  0  0  0  0  0  0  0  0  0  0  0
   34.0920   26.1200   47.7010 O   0  0  0  0  0  0  0  0  0  0  0  0
   32.0680   27.2140   48.0840 C   0  0  0  0  0  3  0  0  0  0  0  0
   31.6700   28.5280   47.4460 C   0  0  0  0  0  2  0  0  0  0  0  0
   31.8490   28.3080   45.9580 C   0  0  0  0  0  2  0  0  0  0  0  0
   32.0750   26.8060   45.7740 C   0  0  0  0  0  2  0  0  0  0  0  0
   31.5160   26.2320   47.0600 C   0  0  0  0  0  2  0  0  0  0  0  0
  1  2  2  0  0  0  0
  1 21  1  0  0  0  0
  2  6  1  0  0  0  0
  3  2  1  0  0  0  0
  4  5  1  0  0  0  0
  4  3  2  0  0  0  0
  5  1  1  0  0  0  0
  7  3  1  0  0  0  0
  9 10  1  0  0  0  0
  9  8  1  0  0  0  0
 10  4  1  0  0  0  0
 11 16  1  0  0  0  0
 11 10  2  0  0  0  0
 12 11  1  0  0  0  0
 13 12  2  0  0  0  0
 13 15  1  0  0  0  0
 14 13  1  0  0  0  0
 15  9  2  0  0  0  0
 17 12  1  0  0  0  0
 18 15  1  0  0  0  0
 19 25  1  0  0  0  0
 20 26  1  0  0  0  0
 20 19  2  0  0  0  0
 21 20  1  0  0  0  0
 22 21  2  0  0  0  0
 22 23  1  0  0  0  0
 23 24  2  0  0  0  0
 24 19  1  0  0  0  0
 27 23  1  0  0  0  0
 28 27  2  0  0  0  0
 29 27  1  0  0  0  0
 30 29  1  0  0  0  0
 31 30  1  0  0  0  0
 32 31  1  0  0  0  0
 32 33  1  0  0  0  0
 33 29  1  0  0  0  0
M  END
>  <minimizedAffinity>
-5.15108776

>  <minimizedRMSD>
2.28060651

$$$$
