
 OpenBabel03272503503D

 33 35  0  0  1  0  0  0  0  0999 V2000
   33.0800   27.3310   45.8960 C   0  0  1  0  0  0  0  0  0  0  0  0
   33.9130   27.4750   47.1900 C   0  0  2  0  0  0  0  0  0  0  0  0
   33.8210   26.2420   47.7550 O   0  0  0  0  0  0  0  0  0  0  0  0
   34.0550   25.3640   46.7100 C   0  0  0  0  0  0  0  0  0  0  0  0
   33.4320   25.9500   45.4650 C   0  0  2  0  0  0  0  0  0  0  0  0
   33.4490   28.0710   45.1540 H   0  0  0  0  0  0  0  0  0  0  0  0
   34.9230   27.7860   46.8400 H   0  0  0  0  0  0  0  0  0  0  0  0
   35.1250   25.1000   46.5930 H   0  0  0  0  0  0  0  0  0  0  0  0
   33.5210   24.4210   46.9580 H   0  0  0  0  0  0  0  0  0  0  0  0
   32.5830   25.3380   45.1020 H   0  0  0  0  0  0  0  0  0  0  0  0
   31.7380   27.5270   46.1590 O   0  0  0  0  0  0  0  0  0  0  0  0
   31.3440   28.1130   45.4480 H   0  0  0  0  0  0  0  0  0  0  0  0
   33.3320   28.5120   47.8580 O   0  0  0  0  0  0  0  0  0  0  0  0
   35.3470   29.8260   46.7700 O   0  0  0  0  0  0  0  0  0  0  0  0
   34.0960   29.9940   47.6180 P   0  0  1  0  0  0  0  0  0  0  0  0
   33.0920   31.0290   46.7310 O   0  0  0  0  0  0  0  0  0  0  0  0
   32.2610   31.2150   47.2320 H   0  0  0  0  0  0  0  0  0  0  0  0
   34.4180   30.6420   49.1610 O   0  0  0  0  0  0  0  0  0  0  0  0
   35.6420   30.5170   49.7770 C   0  0  0  0  0  0  0  0  0  0  0  0
   35.9650   29.4960   50.6980 C   0  0  0  0  0  0  0  0  0  0  0  0
   37.2460   29.4970   51.2430 C   0  0  0  0  0  0  0  0  0  0  0  0
   38.1160   30.4760   50.8620 N   0  0  0  0  0  0  0  0  0  0  0  0
   37.7730   31.4470   49.9710 C   0  0  0  0  0  0  0  0  0  0  0  0
   36.5250   31.4640   49.4270 N   0  0  0  0  0  0  0  0  0  0  0  0
   35.1950   28.7700   50.9270 H   0  0  0  0  0  0  0  0  0  0  0  0
   37.5030   28.7230   51.9460 H   0  0  0  0  0  0  0  0  0  0  0  0
   38.5000   32.1960   49.7060 H   0  0  0  0  0  0  0  0  0  0  0  0
   34.3810   25.9910   44.4430 O   0  0  0  0  0  0  0  0  0  0  0  0
   33.8880   25.5280   43.2290 C   0  0  0  0  0  3  0  0  0  0  0  0
   32.5180   24.9350   43.4190 C   0  0  0  0  0  2  0  0  0  0  0  0
   31.5650   25.7320   42.5900 C   0  0  0  0  0  2  0  0  0  0  0  0
   32.3650   26.6140   41.6710 C   0  0  0  0  0  2  0  0  0  0  0  0
   33.7700   26.6220   42.2030 C   0  0  0  0  0  2  0  0  0  0  0  0
  1  6  1  6  0  0  0
  1 11  1  0  0  0  0
  1  2  1  0  0  0  0
  2  7  1  6  0  0  0
  2  3  1  0  0  0  0
  2 13  1  0  0  0  0
  4  9  1  0  0  0  0
  4  3  1  0  0  0  0
  5 10  1  6  0  0  0
  5  1  1  0  0  0  0
  5  4  1  0  0  0  0
  8  4  1  0  0  0  0
 12 11  1  0  0  0  0
 15 14  2  6  0  0  0
 15 13  1  0  0  0  0
 15 18  1  0  0  0  0
 16 17  1  0  0  0  0
 16 15  1  0  0  0  0
 18 19  1  0  0  0  0
 19 20  1  0  0  0  0
 20 25  1  0  0  0  0
 20 21  2  0  0  0  0
 21 26  1  0  0  0  0
 22 21  1  0  0  0  0
 23 22  2  0  0  0  0
 24 19  2  0  0  0  0
 24 23  1  0  0  0  0
 27 23  1  0  0  0  0
 28  5  1  0  0  0  0
 29 30  1  0  0  0  0
 29 28  1  0  0  0  0
 31 30  1  0  0  0  0
 32 33  1  0  0  0  0
 32 31  1  0  0  0  0
 33 29  1  0  0  0  0
M  END
>  <minimizedAffinity>
-3.87027049

>  <minimizedRMSD>
0.513434172

$$$$
