
 OpenBabel03272509403D

 31 33  0  0  0  0  0  0  0  0999 V2000
   37.0750   30.9570   49.0520 C   0  0  0  0  0  0  0  0  0  0  0  0
   36.8000   31.8970   50.0670 C   0  0  0  0  0  0  0  0  0  0  0  0
   37.3950   33.1430   50.0980 C   0  0  0  0  0  0  0  0  0  0  0  0
   38.3020   33.5090   49.1040 C   0  0  0  0  0  0  0  0  0  0  0  0
   38.5640   32.5810   48.1150 C   0  0  0  0  0  0  0  0  0  0  0  0
   37.9540   31.3380   48.1060 C   0  0  0  0  0  0  0  0  0  0  0  0
   36.1060   31.6310   50.8370 H   0  0  0  0  0  0  0  0  0  0  0  0
   37.1330   33.8090   50.9090 H   0  0  0  0  0  0  0  0  0  0  0  0
   38.7560   34.4870   49.1470 H   0  0  0  0  0  0  0  0  0  0  0  0
   39.2760   32.9400   47.3830 H   0  0  0  0  0  0  0  0  0  0  0  0
   36.4030   29.6820   49.1040 C   0  0  0  0  0  0  0  0  0  0  0  0
   36.9380   28.8240   49.8790 O   0  0  0  0  0  0  0  0  0  0  0  0
   33.6220   30.1680   46.8100 C   0  0  0  0  0  0  0  0  0  0  0  0
   32.9460   28.9420   46.8380 C   0  0  0  0  0  0  0  0  0  0  0  0
   33.4470   27.9480   47.6450 C   0  0  0  0  0  0  0  0  0  0  0  0
   34.5630   28.1770   48.3830 N   0  0  0  0  0  0  0  0  0  0  0  0
   35.1960   29.3420   48.3480 C   0  0  0  0  0  0  0  0  0  0  0  0
   34.7120   30.3300   47.5550 N   0  0  0  0  0  0  0  0  0  0  0  0
   33.2840   30.9980   46.1950 H   0  0  0  0  0  0  0  0  0  0  0  0
   32.0760   28.8900   46.2080 H   0  0  0  0  0  0  0  0  0  0  0  0
   32.9280   27.0170   47.6620 H   0  0  0  0  0  0  0  0  0  0  0  0
   38.3400   30.4980   47.0080 C   0  0  0  0  0  0  0  0  0  0  0  0
   39.0420   30.8470   45.9370 C   0  0  0  0  0  0  0  0  0  0  0  0
   39.4980   30.0880   44.7590 C   0  0  0  0  0  0  0  0  0  0  0  0
   38.6300   29.6540   44.1880 H   0  0  0  0  0  0  0  0  0  0  0  0
   40.0860   29.2210   45.1230 H   0  0  0  0  0  0  0  0  0  0  0  0
   40.3770   30.8480   43.8220 C   0  0  0  0  0  0  0  0  0  0  0  0
   40.5940   29.9430   42.6050 C   0  0  0  0  0  0  0  0  0  0  0  0
   40.5070   30.8450   41.4080 C   0  0  0  0  0  0  0  0  0  0  0  0
   39.6110   31.9710   41.8070 C   0  0  0  0  0  0  0  0  0  0  0  0
   39.7820   32.1180   43.2940 C   0  0  0  0  0  0  0  0  0  0  0  0
  1 11  1  0  0  0  0
  1  2  1  0  0  0  0
  2  3  2  0  0  0  0
  2  7  1  0  0  0  0
  3  8  1  0  0  0  0
  4  9  1  0  0  0  0
  4  3  1  0  0  0  0
  5  4  2  0  0  0  0
  6  5  1  0  0  0  0
  6  1  2  0  0  0  0
 10  5  1  0  0  0  0
 11 12  2  0  0  0  0
 13 14  2  0  0  0  0
 13 18  1  0  0  0  0
 14 15  1  0  0  0  0
 15 21  1  0  0  0  0
 15 16  2  0  0  0  0
 17 16  1  0  0  0  0
 17 11  1  0  0  0  0
 18 17  2  0  0  0  0
 19 13  1  0  0  0  0
 20 14  1  0  0  0  0
 22  6  1  0  0  0  0
 23 22  2  0  0  0  0
 24 26  1  0  0  0  0
 24 23  1  0  0  0  0
 25 24  1  0  0  0  0
 27 24  1  0  0  0  0
 28 27  1  0  0  0  0
 29 30  1  0  0  0  0
 29 28  1  0  0  0  0
 30 31  1  0  0  0  0
 31 27  1  0  0  0  0
M  END
>  <minimizedAffinity>
-6.11500549

>  <minimizedRMSD>
0.683888614

$$$$
