
 OpenBabel03272503493D

 33 35  0  0  1  0  0  0  0  0999 V2000
   33.0900   27.3290   45.9140 C   0  0  1  0  0  0  0  0  0  0  0  0
   33.9150   27.4830   47.2120 C   0  0  2  0  0  0  0  0  0  0  0  0
   33.8170   26.2540   47.7870 O   0  0  0  0  0  0  0  0  0  0  0  0
   34.0570   25.3670   46.7510 C   0  0  0  0  0  0  0  0  0  0  0  0
   33.4420   25.9440   45.4970 C   0  0  2  0  0  0  0  0  0  0  0  0
   33.4640   28.0620   45.1680 H   0  0  0  0  0  0  0  0  0  0  0  0
   34.9270   27.7890   46.8650 H   0  0  0  0  0  0  0  0  0  0  0  0
   35.1270   25.1010   46.6420 H   0  0  0  0  0  0  0  0  0  0  0  0
   33.5200   24.4270   47.0030 H   0  0  0  0  0  0  0  0  0  0  0  0
   32.5940   25.3300   45.1340 H   0  0  0  0  0  0  0  0  0  0  0  0
   31.7470   27.5290   46.1670 O   0  0  0  0  0  0  0  0  0  0  0  0
   31.3580   28.1090   45.4490 H   0  0  0  0  0  0  0  0  0  0  0  0
   33.3320   28.5260   47.8680 O   0  0  0  0  0  0  0  0  0  0  0  0
   35.3430   29.8310   46.7620 O   0  0  0  0  0  0  0  0  0  0  0  0
   34.0960   30.0060   47.6150 P   0  0  1  0  0  0  0  0  0  0  0  0
   33.0890   31.0370   46.7270 O   0  0  0  0  0  0  0  0  0  0  0  0
   32.2610   31.2270   47.2320 H   0  0  0  0  0  0  0  0  0  0  0  0
   34.4270   30.6620   49.1520 O   0  0  0  0  0  0  0  0  0  0  0  0
   35.6500   30.5270   49.7700 C   0  0  0  0  0  0  0  0  0  0  0  0
   35.9650   29.4990   50.6860 C   0  0  0  0  0  0  0  0  0  0  0  0
   37.2450   29.4890   51.2330 C   0  0  0  0  0  0  0  0  0  0  0  0
   38.1220   30.4650   50.8560 N   0  0  0  0  0  0  0  0  0  0  0  0
   37.7860   31.4420   49.9700 C   0  0  0  0  0  0  0  0  0  0  0  0
   36.5390   31.4690   49.4240 N   0  0  0  0  0  0  0  0  0  0  0  0
   35.1910   28.7770   50.9110 H   0  0  0  0  0  0  0  0  0  0  0  0
   37.4970   28.7100   51.9320 H   0  0  0  0  0  0  0  0  0  0  0  0
   38.5190   32.1870   49.7090 H   0  0  0  0  0  0  0  0  0  0  0  0
   34.3970   25.9750   44.4800 O   0  0  0  0  0  0  0  0  0  0  0  0
   34.0910   25.1250   43.4250 C   0  0  0  0  0  3  0  0  0  0  0  0
   35.0470   23.9640   43.4020 C   0  0  0  0  0  2  0  0  0  0  0  0
   34.2430   22.7180   43.5880 C   0  0  0  0  0  2  0  0  0  0  0  0
   32.7890   23.0690   43.4330 C   0  0  0  0  0  2  0  0  0  0  0  0
   32.6980   24.5650   43.5260 C   0  0  0  0  0  2  0  0  0  0  0  0
  1  6  1  6  0  0  0
  1 11  1  0  0  0  0
  1  2  1  0  0  0  0
  2  7  1  6  0  0  0
  2  3  1  0  0  0  0
  2 13  1  0  0  0  0
  4  9  1  0  0  0  0
  4  3  1  0  0  0  0
  5 10  1  6  0  0  0
  5  1  1  0  0  0  0
  5  4  1  0  0  0  0
  8  4  1  0  0  0  0
 12 11  1  0  0  0  0
 15 14  2  6  0  0  0
 15 13  1  0  0  0  0
 15 18  1  0  0  0  0
 16 17  1  0  0  0  0
 16 15  1  0  0  0  0
 18 19  1  0  0  0  0
 19 20  1  0  0  0  0
 20 25  1  0  0  0  0
 20 21  2  0  0  0  0
 21 26  1  0  0  0  0
 22 21  1  0  0  0  0
 23 22  2  0  0  0  0
 24 19  2  0  0  0  0
 24 23  1  0  0  0  0
 27 23  1  0  0  0  0
 28  5  1  0  0  0  0
 29 33  1  0  0  0  0
 29 28  1  0  0  0  0
 30 29  1  0  0  0  0
 30 31  1  0  0  0  0
 32 33  1  0  0  0  0
 32 31  1  0  0  0  0
M  END
>  <minimizedAffinity>
-3.92279696

>  <minimizedRMSD>
0.540858209

$$$$
