
 OpenBabel03272501063D

 26 28  0  0  1  0  0  0  0  0999 V2000
   37.8550   26.2450   34.9880 C   0  0  2  0  0  0  0  0  0  0  0  0
   38.3480   25.7960   33.6070 C   0  0  2  0  0  0  0  0  0  0  0  0
   39.2410   26.9160   33.2570 C   0  0  0  0  0  0  0  0  0  0  0  0
   39.8970   27.2690   34.4290 O   0  0  0  0  0  0  0  0  0  0  0  0
   39.2200   26.7610   35.4960 C   0  0  0  0  0  0  0  0  0  0  0  0
   37.1990   27.0950   34.8490 H   0  0  0  0  0  0  0  0  0  0  0  0
   38.9100   24.8620   33.8310 H   0  0  0  0  0  0  0  0  0  0  0  0
   38.7030   27.7790   32.8080 H   0  0  0  0  0  0  0  0  0  0  0  0
   39.9910   26.5690   32.5170 H   0  0  0  0  0  0  0  0  0  0  0  0
   39.0530   27.5810   36.2230 H   0  0  0  0  0  0  0  0  0  0  0  0
   39.8040   25.9660   35.9680 H   0  0  0  0  0  0  0  0  0  0  0  0
   35.8730   23.9970   31.3900 C   0  0  0  0  0  0  0  0  0  0  0  0
   36.9290   24.1880   32.3140 C   0  0  0  0  0  0  0  0  0  0  0  0
   37.2690   25.5130   32.6900 C   0  0  0  0  0  0  0  0  0  0  0  0
   36.5410   26.5360   32.1280 N   0  0  0  0  0  0  0  0  0  0  0  0
   35.5540   26.3220   31.2630 C   0  0  0  0  0  0  0  0  0  0  0  0
   35.2090   25.0580   30.8830 N   0  0  0  0  0  0  0  0  0  0  0  0
   35.5750   23.0080   31.0700 H   0  0  0  0  0  0  0  0  0  0  0  0
   37.4430   23.3250   32.7060 H   0  0  0  0  0  0  0  0  0  0  0  0
   35.0460   27.2030   30.8790 H   0  0  0  0  0  0  0  0  0  0  0  0
   37.4290   25.2080   35.7560 O   0  0  0  0  0  0  0  0  0  0  0  0
   38.3000   24.5950   36.5960 C   0  0  0  0  0  3  0  0  0  0  0  0
   37.8810   24.3930   38.0120 C   0  0  0  0  0  2  0  0  0  0  0  0
   38.9110   23.3770   38.5210 C   0  0  0  0  0  2  0  0  0  0  0  0
   39.6560   22.8850   37.3070 C   0  0  0  0  0  2  0  0  0  0  0  0
   38.6700   23.1840   36.1790 C   0  0  0  0  0  2  0  0  0  0  0  0
  1  6  1  6  0  0  0
  1  5  1  0  0  0  0
  1 21  1  0  0  0  0
  2  7  1  1  0  0  0
  2  1  1  0  0  0  0
  3  2  1  0  0  0  0
  3  4  1  0  0  0  0
  4  5  1  0  0  0  0
  5 11  1  0  0  0  0
  5 10  1  0  0  0  0
  8  3  1  0  0  0  0
  9  3  1  0  0  0  0
 12 13  1  0  0  0  0
 13 14  2  0  0  0  0
 13 19  1  0  0  0  0
 14  2  1  0  0  0  0
 15 14  1  0  0  0  0
 16 15  2  0  0  0  0
 17 16  1  0  0  0  0
 17 12  2  0  0  0  0
 18 12  1  0  0  0  0
 20 16  1  0  0  0  0
 21 22  1  0  0  0  0
 22 23  1  0  0  0  0
 23 24  1  0  0  0  0
 25 24  1  0  0  0  0
 26 22  1  0  0  0  0
 26 25  1  0  0  0  0
M  END
>  <minimizedAffinity>
-4.7950182

$$$$

 OpenBabel03272501063D

 26 28  0  0  1  0  0  0  0  0999 V2000
   37.7800   23.3880   33.6960 C   0  0  2  0  0  0  0  0  0  0  0  0
   38.0800   22.1640   34.5700 C   0  0  2  0  0  0  0  0  0  0  0  0
   36.8340   21.3940   34.3990 C   0  0  0  0  0  0  0  0  0  0  0  0
   36.4670   21.5400   33.0680 O   0  0  0  0  0  0  0  0  0  0  0  0
   37.1210   22.6100   32.5350 C   0  0  0  0  0  0  0  0  0  0  0  0
   37.0170   23.9740   34.1910 H   0  0  0  0  0  0  0  0  0  0  0  0
   38.9440   21.6900   34.0530 H   0  0  0  0  0  0  0  0  0  0  0  0
   36.0240   21.7150   35.0890 H   0  0  0  0  0  0  0  0  0  0  0  0
   37.0370   20.3210   34.5980 H   0  0  0  0  0  0  0  0  0  0  0  0
   36.3740   23.2600   32.0370 H   0  0  0  0  0  0  0  0  0  0  0  0
   37.8590   22.2720   31.8020 H   0  0  0  0  0  0  0  0  0  0  0  0
   37.9790   23.4620   38.1180 C   0  0  0  0  0  0  0  0  0  0  0  0
   37.5320   23.1260   36.8160 C   0  0  0  0  0  0  0  0  0  0  0  0
   38.4470   22.5160   35.9220 C   0  0  0  0  0  0  0  0  0  0  0  0
   39.7230   22.2840   36.3830 N   0  0  0  0  0  0  0  0  0  0  0  0
   40.1100   22.6110   37.6120 C   0  0  0  0  0  0  0  0  0  0  0  0
   39.2500   23.2010   38.4900 N   0  0  0  0  0  0  0  0  0  0  0  0
   37.3210   23.9290   38.8360 H   0  0  0  0  0  0  0  0  0  0  0  0
   36.5120   23.3420   36.5410 H   0  0  0  0  0  0  0  0  0  0  0  0
   41.1420   22.3850   37.8710 H   0  0  0  0  0  0  0  0  0  0  0  0
   38.9070   24.0120   33.2630 O   0  0  0  0  0  0  0  0  0  0  0  0
   39.1930   25.2620   33.7050 C   0  0  0  0  0  3  0  0  0  0  0  0
   38.1600   25.9740   34.5090 C   0  0  0  0  0  2  0  0  0  0  0  0
   38.9560   27.1320   35.1210 C   0  0  0  0  0  2  0  0  0  0  0  0
   40.4080   26.8430   34.8420 C   0  0  0  0  0  2  0  0  0  0  0  0
   40.4000   25.3320   34.6210 C   0  0  0  0  0  2  0  0  0  0  0  0
  1  6  1  1  0  0  0
  1  2  1  0  0  0  0
  2  7  1  6  0  0  0
  2 14  1  0  0  0  0
  3  2  1  0  0  0  0
  3  9  1  0  0  0  0
  3  8  1  0  0  0  0
  4  3  1  0  0  0  0
  5  4  1  0  0  0  0
  5  1  1  0  0  0  0
 10  5  1  0  0  0  0
 11  5  1  0  0  0  0
 12 17  1  0  0  0  0
 12 18  1  0  0  0  0
 13 12  2  0  0  0  0
 14 15  2  0  0  0  0
 14 13  1  0  0  0  0
 15 16  1  0  0  0  0
 16 20  1  0  0  0  0
 16 17  2  0  0  0  0
 19 13  1  0  0  0  0
 21  1  1  0  0  0  0
 21 22  1  0  0  0  0
 22 23  1  0  0  0  0
 22 26  1  0  0  0  0
 23 24  1  0  0  0  0
 25 24  1  0  0  0  0
 26 25  1  0  0  0  0
M  END
>  <minimizedAffinity>
-4.42399788

$$$$

 OpenBabel03272501063D

 26 28  0  0  1  0  0  0  0  0999 V2000
   38.5740   22.5190   33.7210 C   0  0  2  0  0  0  0  0  0  0  0  0
   38.0220   23.6470   34.6010 C   0  0  2  0  0  0  0  0  0  0  0  0
   38.5520   24.8290   33.8960 C   0  0  0  0  0  0  0  0  0  0  0  0
   38.4510   24.5490   32.5400 O   0  0  0  0  0  0  0  0  0  0  0  0
   38.2940   23.2070   32.3660 C   0  0  0  0  0  0  0  0  0  0  0  0
   39.6460   22.4750   33.8670 H   0  0  0  0  0  0  0  0  0  0  0  0
   36.9200   23.5440   34.4820 H   0  0  0  0  0  0  0  0  0  0  0  0
   39.5940   25.0810   34.1900 H   0  0  0  0  0  0  0  0  0  0  0  0
   37.9170   25.7090   34.1280 H   0  0  0  0  0  0  0  0  0  0  0  0
   39.0380   22.8640   31.6210 H   0  0  0  0  0  0  0  0  0  0  0  0
   37.2850   22.9910   32.0030 H   0  0  0  0  0  0  0  0  0  0  0  0
   37.9980   23.8360   38.3750 C   0  0  0  0  0  0  0  0  0  0  0  0
   37.5610   23.9980   37.0370 C   0  0  0  0  0  0  0  0  0  0  0  0
   38.3820   23.5020   35.9920 C   0  0  0  0  0  0  0  0  0  0  0  0
   39.5600   22.8900   36.3500 N   0  0  0  0  0  0  0  0  0  0  0  0
   39.9410   22.7540   37.6160 C   0  0  0  0  0  0  0  0  0  0  0  0
   39.1720   23.2230   38.6400 N   0  0  0  0  0  0  0  0  0  0  0  0
   37.4100   24.1970   39.2070 H   0  0  0  0  0  0  0  0  0  0  0  0
   36.6200   24.4890   36.8500 H   0  0  0  0  0  0  0  0  0  0  0  0
   40.8920   22.2560   37.7860 H   0  0  0  0  0  0  0  0  0  0  0  0
   37.8520   21.3720   33.8240 O   0  0  0  0  0  0  0  0  0  0  0  0
   36.9150   21.0830   32.8860 C   0  0  0  0  0  3  0  0  0  0  0  0
   37.1210   19.8740   32.0400 C   0  0  0  0  0  2  0  0  0  0  0  0
   35.7390   19.6740   31.4060 C   0  0  0  0  0  2  0  0  0  0  0  0
   34.8010   20.6040   32.1320 C   0  0  0  0  0  2  0  0  0  0  0  0
   35.5310   20.8320   33.4530 C   0  0  0  0  0  2  0  0  0  0  0  0
  1 21  1  0  0  0  0
  1  6  1  1  0  0  0
  1  2  1  0  0  0  0
  2  7  1  6  0  0  0
  2 14  1  0  0  0  0
  3  9  1  0  0  0  0
  3  8  1  0  0  0  0
  3  2  1  0  0  0  0
  4  3  1  0  0  0  0
  5  4  1  0  0  0  0
  5  1  1  0  0  0  0
 10  5  1  0  0  0  0
 11  5  1  0  0  0  0
 12 17  1  0  0  0  0
 12 18  1  0  0  0  0
 13 12  2  0  0  0  0
 14 15  2  0  0  0  0
 14 13  1  0  0  0  0
 15 16  1  0  0  0  0
 16 20  1  0  0  0  0
 16 17  2  0  0  0  0
 19 13  1  0  0  0  0
 22 26  1  0  0  0  0
 22 21  1  0  0  0  0
 23 22  1  0  0  0  0
 24 23  1  0  0  0  0
 24 25  1  0  0  0  0
 25 26  1  0  0  0  0
M  END
>  <minimizedAffinity>
-4.41530466

$$$$

 OpenBabel03272501063D

 26 28  0  0  1  0  0  0  0  0999 V2000
   36.6180   28.4930   32.4170 C   0  0  2  0  0  0  0  0  0  0  0  0
   35.2600   29.1930   32.2860 C   0  0  2  0  0  0  0  0  0  0  0  0
   35.5220   30.0860   31.1420 C   0  0  0  0  0  0  0  0  0  0  0  0
   36.3030   29.3580   30.2530 O   0  0  0  0  0  0  0  0  0  0  0  0
   36.8550   28.2960   30.9030 C   0  0  0  0  0  0  0  0  0  0  0  0
   37.3340   29.2170   32.7840 H   0  0  0  0  0  0  0  0  0  0  0  0
   34.5710   28.3610   32.0230 H   0  0  0  0  0  0  0  0  0  0  0  0
   36.0100   31.0400   31.4350 H   0  0  0  0  0  0  0  0  0  0  0  0
   34.5610   30.3400   30.6480 H   0  0  0  0  0  0  0  0  0  0  0  0
   37.9440   28.2940   30.7000 H   0  0  0  0  0  0  0  0  0  0  0  0
   36.4130   27.3630   30.5420 H   0  0  0  0  0  0  0  0  0  0  0  0
   33.2090   30.2200   35.2890 C   0  0  0  0  0  0  0  0  0  0  0  0
   33.5650   29.5460   34.0950 C   0  0  0  0  0  0  0  0  0  0  0  0
   34.8300   29.8190   33.5140 C   0  0  0  0  0  0  0  0  0  0  0  0
   35.6370   30.7300   34.1560 N   0  0  0  0  0  0  0  0  0  0  0  0
   35.2710   31.3460   35.2760 C   0  0  0  0  0  0  0  0  0  0  0  0
   34.0600   31.1020   35.8540 N   0  0  0  0  0  0  0  0  0  0  0  0
   32.2570   30.0480   35.7710 H   0  0  0  0  0  0  0  0  0  0  0  0
   32.8700   28.8440   33.6630 H   0  0  0  0  0  0  0  0  0  0  0  0
   35.9860   32.0480   35.6980 H   0  0  0  0  0  0  0  0  0  0  0  0
   36.5290   27.2880   33.0400 O   0  0  0  0  0  0  0  0  0  0  0  0
   37.4640   26.9370   33.9580 C   0  0  0  0  0  3  0  0  0  0  0  0
   38.8970   26.9960   33.5560 C   0  0  0  0  0  2  0  0  0  0  0  0
   39.6230   26.9090   34.9030 C   0  0  0  0  0  2  0  0  0  0  0  0
   38.5680   27.0770   35.9650 C   0  0  0  0  0  2  0  0  0  0  0  0
   37.4570   27.7990   35.2070 C   0  0  0  0  0  2  0  0  0  0  0  0
  1  6  1  1  0  0  0
  1 21  1  0  0  0  0
  2  7  1  6  0  0  0
  2  1  1  0  0  0  0
  2 14  1  0  0  0  0
  3  8  1  0  0  0  0
  3  2  1  0  0  0  0
  4  5  1  0  0  0  0
  4  3  1  0  0  0  0
  5  1  1  0  0  0  0
  9  3  1  0  0  0  0
 10  5  1  0  0  0  0
 11  5  1  0  0  0  0
 12 18  1  0  0  0  0
 12 17  1  0  0  0  0
 13 12  2  0  0  0  0
 14 13  1  0  0  0  0
 14 15  2  0  0  0  0
 15 16  1  0  0  0  0
 16 20  1  0  0  0  0
 16 17  2  0  0  0  0
 19 13  1  0  0  0  0
 21 22  1  0  0  0  0
 22 26  1  0  0  0  0
 23 22  1  0  0  0  0
 23 24  1  0  0  0  0
 24 25  1  0  0  0  0
 26 25  1  0  0  0  0
M  END
>  <minimizedAffinity>
-4.3935461

$$$$

 OpenBabel03272501063D

 26 28  0  0  1  0  0  0  0  0999 V2000
   34.3950   29.4820   32.7770 C   0  0  2  0  0  0  0  0  0  0  0  0
   35.8180   29.1910   32.2850 C   0  0  2  0  0  0  0  0  0  0  0  0
   35.7640   29.7710   30.9310 C   0  0  0  0  0  0  0  0  0  0  0  0
   35.0190   30.9380   31.0380 O   0  0  0  0  0  0  0  0  0  0  0  0
   34.3040   30.9120   32.1980 C   0  0  0  0  0  0  0  0  0  0  0  0
   33.7140   28.8470   32.2260 H   0  0  0  0  0  0  0  0  0  0  0  0
   36.4520   29.7900   32.9760 H   0  0  0  0  0  0  0  0  0  0  0  0
   35.3380   29.0760   30.1750 H   0  0  0  0  0  0  0  0  0  0  0  0
   36.7920   30.0310   30.6030 H   0  0  0  0  0  0  0  0  0  0  0  0
   33.2480   31.1440   31.9590 H   0  0  0  0  0  0  0  0  0  0  0  0
   34.6940   31.6580   32.8960 H   0  0  0  0  0  0  0  0  0  0  0  0
   37.3400   25.9210   33.4130 C   0  0  0  0  0  0  0  0  0  0  0  0
   37.0230   27.3010   33.4030 C   0  0  0  0  0  0  0  0  0  0  0  0
   36.1710   27.7940   32.3820 C   0  0  0  0  0  0  0  0  0  0  0  0
   35.7010   26.8880   31.4590 N   0  0  0  0  0  0  0  0  0  0  0  0
   36.0180   25.5970   31.4970 C   0  0  0  0  0  0  0  0  0  0  0  0
   36.8360   25.0990   32.4670 N   0  0  0  0  0  0  0  0  0  0  0  0
   37.9850   25.4960   34.1680 H   0  0  0  0  0  0  0  0  0  0  0  0
   37.4350   27.9380   34.1690 H   0  0  0  0  0  0  0  0  0  0  0  0
   35.5920   24.9710   30.7170 H   0  0  0  0  0  0  0  0  0  0  0  0
   34.3050   29.5180   34.1330 O   0  0  0  0  0  0  0  0  0  0  0  0
   34.5700   30.6740   34.7920 C   0  0  0  0  0  3  0  0  0  0  0  0
   33.6650   31.0650   35.9090 C   0  0  0  0  0  2  0  0  0  0  0  0
   34.4700   32.1610   36.6190 C   0  0  0  0  0  2  0  0  0  0  0  0
   35.8540   32.1220   36.0260 C   0  0  0  0  0  2  0  0  0  0  0  0
   35.9280   30.7020   35.4690 C   0  0  0  0  0  2  0  0  0  0  0  0
  1  6  1  6  0  0  0
  1 21  1  0  0  0  0
  2 14  1  0  0  0  0
  2  1  1  0  0  0  0
  2  7  1  1  0  0  0
  3  4  1  0  0  0  0
  3  2  1  0  0  0  0
  4  5  1  0  0  0  0
  5  1  1  0  0  0  0
  5 11  1  0  0  0  0
  8  3  1  0  0  0  0
  9  3  1  0  0  0  0
 10  5  1  0  0  0  0
 12 18  1  0  0  0  0
 13 12  1  0  0  0  0
 13 19  1  0  0  0  0
 14 13  2  0  0  0  0
 15 16  2  0  0  0  0
 15 14  1  0  0  0  0
 16 17  1  0  0  0  0
 17 12  2  0  0  0  0
 20 16  1  0  0  0  0
 21 22  1  0  0  0  0
 22 26  1  0  0  0  0
 22 23  1  0  0  0  0
 23 24  1  0  0  0  0
 25 24  1  0  0  0  0
 26 25  1  0  0  0  0
M  END
>  <minimizedAffinity>
-4.34799099

$$$$

 OpenBabel03272501063D

 26 28  0  0  1  0  0  0  0  0999 V2000
   37.7900   23.8980   33.5830 C   0  0  2  0  0  0  0  0  0  0  0  0
   38.8220   22.9420   34.1950 C   0  0  2  0  0  0  0  0  0  0  0  0
   38.3600   21.6530   33.6470 C   0  0  0  0  0  0  0  0  0  0  0  0
   37.9610   21.9080   32.3410 O   0  0  0  0  0  0  0  0  0  0  0  0
   37.7650   23.2460   32.1820 C   0  0  0  0  0  0  0  0  0  0  0  0
   36.8380   23.7130   34.0630 H   0  0  0  0  0  0  0  0  0  0  0  0
   39.7800   23.2770   33.7370 H   0  0  0  0  0  0  0  0  0  0  0  0
   37.5460   21.1910   34.2460 H   0  0  0  0  0  0  0  0  0  0  0  0
   39.2090   20.9380   33.6290 H   0  0  0  0  0  0  0  0  0  0  0  0
   36.7670   23.3980   31.7260 H   0  0  0  0  0  0  0  0  0  0  0  0
   38.5340   23.6640   31.5270 H   0  0  0  0  0  0  0  0  0  0  0  0
   40.0480   22.7670   37.7650 C   0  0  0  0  0  0  0  0  0  0  0  0
   40.0590   22.6550   36.3530 C   0  0  0  0  0  0  0  0  0  0  0  0
   38.9020   23.0470   35.6330 C   0  0  0  0  0  0  0  0  0  0  0  0
   37.8330   23.5180   36.3610 N   0  0  0  0  0  0  0  0  0  0  0  0
   37.8560   23.6100   37.6870 C   0  0  0  0  0  0  0  0  0  0  0  0
   38.9550   23.2380   38.4030 N   0  0  0  0  0  0  0  0  0  0  0  0
   40.9030   22.4810   38.3600 H   0  0  0  0  0  0  0  0  0  0  0  0
   40.9440   22.2780   35.8650 H   0  0  0  0  0  0  0  0  0  0  0  0
   36.9560   23.9940   38.1610 H   0  0  0  0  0  0  0  0  0  0  0  0
   38.2450   25.1760   33.4980 O   0  0  0  0  0  0  0  0  0  0  0  0
   37.3700   26.2070   33.6070 C   0  0  0  0  0  3  0  0  0  0  0  0
   37.2810   26.9140   34.9160 C   0  0  0  0  0  2  0  0  0  0  0  0
   36.5160   28.1920   34.5510 C   0  0  0  0  0  2  0  0  0  0  0  0
   36.4650   28.2400   33.0460 C   0  0  0  0  0  2  0  0  0  0  0  0
   37.6460   27.3540   32.6540 C   0  0  0  0  0  2  0  0  0  0  0  0
  1  6  1  1  0  0  0
  1  2  1  0  0  0  0
  2  7  1  6  0  0  0
  2 14  1  0  0  0  0
  3  2  1  0  0  0  0
  3  8  1  0  0  0  0
  4  3  1  0  0  0  0
  5  4  1  0  0  0  0
  5  1  1  0  0  0  0
  9  3  1  0  0  0  0
 10  5  1  0  0  0  0
 11  5  1  0  0  0  0
 12 18  1  0  0  0  0
 12 17  1  0  0  0  0
 13 12  2  0  0  0  0
 14 13  1  0  0  0  0
 14 15  2  0  0  0  0
 15 16  1  0  0  0  0
 16 20  1  0  0  0  0
 16 17  2  0  0  0  0
 19 13  1  0  0  0  0
 21  1  1  0  0  0  0
 21 22  1  0  0  0  0
 22 23  1  0  0  0  0
 24 23  1  0  0  0  0
 25 24  1  0  0  0  0
 26 25  1  0  0  0  0
 26 22  1  0  0  0  0
M  END
>  <minimizedAffinity>
-4.33727789

$$$$

 OpenBabel03272501063D

 26 28  0  0  1  0  0  0  0  0999 V2000
   39.0310   24.2480   36.2660 C   0  0  2  0  0  0  0  0  0  0  0  0
   39.3860   22.9400   36.9840 C   0  0  2  0  0  0  0  0  0  0  0  0
   38.9400   23.2510   38.3540 C   0  0  0  0  0  0  0  0  0  0  0  0
   37.7590   23.9700   38.2240 O   0  0  0  0  0  0  0  0  0  0  0  0
   37.6630   24.4550   36.9550 C   0  0  0  0  0  0  0  0  0  0  0  0
   39.7090   25.0160   36.6150 H   0  0  0  0  0  0  0  0  0  0  0  0
   38.7300   22.1920   36.4860 H   0  0  0  0  0  0  0  0  0  0  0  0
   39.6990   23.8070   38.9450 H   0  0  0  0  0  0  0  0  0  0  0  0
   38.7250   22.3050   38.8930 H   0  0  0  0  0  0  0  0  0  0  0  0
   37.4430   25.5390   37.0130 H   0  0  0  0  0  0  0  0  0  0  0  0
   36.8580   23.9450   36.4180 H   0  0  0  0  0  0  0  0  0  0  0  0
   43.0530   22.9840   36.0730 C   0  0  0  0  0  0  0  0  0  0  0  0
   41.7190   23.4350   36.2190 C   0  0  0  0  0  0  0  0  0  0  0  0
   40.7710   22.5670   36.8190 C   0  0  0  0  0  0  0  0  0  0  0  0
   41.2160   21.3310   37.2270 N   0  0  0  0  0  0  0  0  0  0  0  0
   42.4770   20.9380   37.0750 C   0  0  0  0  0  0  0  0  0  0  0  0
   43.4070   21.7520   36.4990 N   0  0  0  0  0  0  0  0  0  0  0  0
   43.8120   23.6060   35.6220 H   0  0  0  0  0  0  0  0  0  0  0  0
   41.4600   24.4230   35.8730 H   0  0  0  0  0  0  0  0  0  0  0  0
   42.7200   19.9400   37.4310 H   0  0  0  0  0  0  0  0  0  0  0  0
   38.8620   24.0820   34.9270 O   0  0  0  0  0  0  0  0  0  0  0  0
   39.1640   25.1000   34.0820 C   0  0  0  0  0  3  0  0  0  0  0  0
   38.0370   25.8140   33.4170 C   0  0  0  0  0  2  0  0  0  0  0  0
   38.7180   27.0770   32.8770 C   0  0  0  0  0  2  0  0  0  0  0  0
   40.0920   27.1160   33.4960 C   0  0  0  0  0  2  0  0  0  0  0  0
   39.9120   26.2460   34.7380 C   0  0  0  0  0  2  0  0  0  0  0  0
  1  6  1  1  0  0  0
  1  5  1  0  0  0  0
  1  2  1  0  0  0  0
  2  7  1  6  0  0  0
  2  3  1  0  0  0  0
  3  9  1  0  0  0  0
  3  8  1  0  0  0  0
  4  3  1  0  0  0  0
  5 10  1  0  0  0  0
  5  4  1  0  0  0  0
 11  5  1  0  0  0  0
 12 13  2  0  0  0  0
 12 17  1  0  0  0  0
 13 14  1  0  0  0  0
 14  2  1  0  0  0  0
 14 15  2  0  0  0  0
 16 15  1  0  0  0  0
 16 20  1  0  0  0  0
 17 16  2  0  0  0  0
 18 12  1  0  0  0  0
 19 13  1  0  0  0  0
 21  1  1  0  0  0  0
 22 26  1  0  0  0  0
 22 21  1  0  0  0  0
 23 22  1  0  0  0  0
 24 23  1  0  0  0  0
 24 25  1  0  0  0  0
 25 26  1  0  0  0  0
M  END
>  <minimizedAffinity>
-4.27558422

$$$$

 OpenBabel03272501063D

 26 28  0  0  1  0  0  0  0  0999 V2000
   36.9300   24.4550   31.7540 C   0  0  2  0  0  0  0  0  0  0  0  0
   36.6490   25.6460   32.6780 C   0  0  2  0  0  0  0  0  0  0  0  0
   36.1610   26.6400   31.7050 C   0  0  0  0  0  0  0  0  0  0  0  0
   35.3780   25.9400   30.7950 O   0  0  0  0  0  0  0  0  0  0  0  0
   35.6610   24.6110   30.8850 C   0  0  0  0  0  0  0  0  0  0  0  0
   37.7910   24.6990   31.1460 H   0  0  0  0  0  0  0  0  0  0  0  0
   35.8360   25.2670   33.3380 H   0  0  0  0  0  0  0  0  0  0  0  0
   36.9810   27.1960   31.2010 H   0  0  0  0  0  0  0  0  0  0  0  0
   35.5250   27.3830   32.2270 H   0  0  0  0  0  0  0  0  0  0  0  0
   35.8660   24.2310   29.8650 H   0  0  0  0  0  0  0  0  0  0  0  0
   34.8090   24.0740   31.3120 H   0  0  0  0  0  0  0  0  0  0  0  0
   38.8310   26.9480   35.4750 C   0  0  0  0  0  0  0  0  0  0  0  0
   37.6580   26.5840   34.7690 C   0  0  0  0  0  0  0  0  0  0  0  0
   37.7940   26.0220   33.4740 C   0  0  0  0  0  0  0  0  0  0  0  0
   39.0690   25.8620   32.9840 N   0  0  0  0  0  0  0  0  0  0  0  0
   40.1500   26.2150   33.6740 C   0  0  0  0  0  0  0  0  0  0  0  0
   40.0480   26.7590   34.9200 N   0  0  0  0  0  0  0  0  0  0  0  0
   38.7820   27.3810   36.4630 H   0  0  0  0  0  0  0  0  0  0  0  0
   36.6980   26.7430   35.2330 H   0  0  0  0  0  0  0  0  0  0  0  0
   41.1090   26.0470   33.1900 H   0  0  0  0  0  0  0  0  0  0  0  0
   36.9070   23.2650   32.4090 O   0  0  0  0  0  0  0  0  0  0  0  0
   36.2330   22.2170   31.8730 C   0  0  0  0  0  3  0  0  0  0  0  0
   37.0160   21.1780   31.1470 C   0  0  0  0  0  2  0  0  0  0  0  0
   36.0120   20.0250   31.0320 C   0  0  0  0  0  2  0  0  0  0  0  0
   34.8490   20.3860   31.9200 C   0  0  0  0  0  2  0  0  0  0  0  0
   35.4800   21.3800   32.8920 C   0  0  0  0  0  2  0  0  0  0  0  0
  1  6  1  6  0  0  0
  1 21  1  0  0  0  0
  1  2  1  0  0  0  0
  2  7  1  1  0  0  0
  2 14  1  0  0  0  0
  3  9  1  0  0  0  0
  3  2  1  0  0  0  0
  4  5  1  0  0  0  0
  4  3  1  0  0  0  0
  5 11  1  0  0  0  0
  5  1  1  0  0  0  0
  8  3  1  0  0  0  0
 10  5  1  0  0  0  0
 12 18  1  0  0  0  0
 13 19  1  0  0  0  0
 13 12  2  0  0  0  0
 14 13  1  0  0  0  0
 15 14  2  0  0  0  0
 15 16  1  0  0  0  0
 16 17  2  0  0  0  0
 17 12  1  0  0  0  0
 20 16  1  0  0  0  0
 22 21  1  0  0  0  0
 22 26  1  0  0  0  0
 23 22  1  0  0  0  0
 24 23  1  0  0  0  0
 24 25  1  0  0  0  0
 25 26  1  0  0  0  0
M  END
>  <minimizedAffinity>
-4.24063349

$$$$

 OpenBabel03272501063D

 26 28  0  0  1  0  0  0  0  0999 V2000
   38.4080   22.8150   33.9340 C   0  0  2  0  0  0  0  0  0  0  0  0
   37.8330   24.0850   33.2950 C   0  0  2  0  0  0  0  0  0  0  0  0
   38.3580   23.9640   31.9230 C   0  0  0  0  0  0  0  0  0  0  0  0
   38.2760   22.6180   31.5940 O   0  0  0  0  0  0  0  0  0  0  0  0
   38.1360   21.8820   32.7320 C   0  0  0  0  0  0  0  0  0  0  0  0
   39.4780   22.9440   34.0300 H   0  0  0  0  0  0  0  0  0  0  0  0
   36.7340   23.9160   33.3430 H   0  0  0  0  0  0  0  0  0  0  0  0
   39.3940   24.3540   31.8170 H   0  0  0  0  0  0  0  0  0  0  0  0
   37.7110   24.5420   31.2310 H   0  0  0  0  0  0  0  0  0  0  0  0
   38.8930   21.0730   32.7180 H   0  0  0  0  0  0  0  0  0  0  0  0
   37.1340   21.4460   32.7760 H   0  0  0  0  0  0  0  0  0  0  0  0
   39.7730   26.7940   35.0780 C   0  0  0  0  0  0  0  0  0  0  0  0
   39.5200   25.6100   34.3420 C   0  0  0  0  0  0  0  0  0  0  0  0
   38.1780   25.2850   34.0220 C   0  0  0  0  0  0  0  0  0  0  0  0
   37.1980   26.1500   34.4500 N   0  0  0  0  0  0  0  0  0  0  0  0
   37.4690   27.2540   35.1390 C   0  0  0  0  0  0  0  0  0  0  0  0
   38.7510   27.5890   35.4620 N   0  0  0  0  0  0  0  0  0  0  0  0
   40.7770   27.0860   35.3480 H   0  0  0  0  0  0  0  0  0  0  0  0
   40.3520   24.9920   34.0450 H   0  0  0  0  0  0  0  0  0  0  0  0
   36.6180   27.8660   35.4290 H   0  0  0  0  0  0  0  0  0  0  0  0
   37.6970   22.4040   35.0170 O   0  0  0  0  0  0  0  0  0  0  0  0
   38.2800   22.4090   36.2420 C   0  0  0  0  0  3  0  0  0  0  0  0
   39.7680   22.3940   36.3100 C   0  0  0  0  0  2  0  0  0  0  0  0
   40.0380   22.7800   37.7680 C   0  0  0  0  0  2  0  0  0  0  0  0
   38.7210   23.2390   38.3360 C   0  0  0  0  0  2  0  0  0  0  0  0
   37.9450   23.6290   37.0800 C   0  0  0  0  0  2  0  0  0  0  0  0
  1  6  1  1  0  0  0
  1 21  1  0  0  0  0
  2  7  1  6  0  0  0
  2  1  1  0  0  0  0
  2 14  1  0  0  0  0
  3  2  1  0  0  0  0
  4  3  1  0  0  0  0
  4  5  1  0  0  0  0
  5 11  1  0  0  0  0
  5  1  1  0  0  0  0
  8  3  1  0  0  0  0
  9  3  1  0  0  0  0
 10  5  1  0  0  0  0
 12 18  1  0  0  0  0
 12 17  1  0  0  0  0
 13 12  2  0  0  0  0
 14 13  1  0  0  0  0
 14 15  2  0  0  0  0
 15 16  1  0  0  0  0
 16 20  1  0  0  0  0
 16 17  2  0  0  0  0
 19 13  1  0  0  0  0
 21 22  1  0  0  0  0
 22 23  1  0  0  0  0
 22 26  1  0  0  0  0
 23 24  1  0  0  0  0
 24 25  1  0  0  0  0
 26 25  1  0  0  0  0
M  END
>  <minimizedAffinity>
-4.22382975

$$$$
