
 OpenBabel03272503493D

 33 35  0  0  1  0  0  0  0  0999 V2000
   33.1640   27.3110   45.8830 C   0  0  1  0  0  0  0  0  0  0  0  0
   33.9140   27.4660   47.2240 C   0  0  2  0  0  0  0  0  0  0  0  0
   33.7750   26.2410   47.7990 O   0  0  0  0  0  0  0  0  0  0  0  0
   34.0670   25.3470   46.7830 C   0  0  0  0  0  0  0  0  0  0  0  0
   33.5300   25.9210   45.4930 C   0  0  2  0  0  0  0  0  0  0  0  0
   33.5860   28.0370   45.1560 H   0  0  0  0  0  0  0  0  0  0  0  0
   34.9470   27.7630   46.9350 H   0  0  0  0  0  0  0  0  0  0  0  0
   35.1400   25.0730   46.7370 H   0  0  0  0  0  0  0  0  0  0  0  0
   33.5090   24.4120   47.0090 H   0  0  0  0  0  0  0  0  0  0  0  0
   32.6990   25.3120   45.0850 H   0  0  0  0  0  0  0  0  0  0  0  0
   31.8100   27.5220   46.0570 O   0  0  0  0  0  0  0  0  0  0  0  0
   31.4680   28.1020   45.3150 H   0  0  0  0  0  0  0  0  0  0  0  0
   33.3020   28.5170   47.8410 O   0  0  0  0  0  0  0  0  0  0  0  0
   35.3420   29.8140   46.7790 O   0  0  0  0  0  0  0  0  0  0  0  0
   34.0850   29.9910   47.6180 P   0  0  1  0  0  0  0  0  0  0  0  0
   33.1010   31.0440   46.7290 O   0  0  0  0  0  0  0  0  0  0  0  0
   32.2680   31.2360   47.2250 H   0  0  0  0  0  0  0  0  0  0  0  0
   34.4020   30.6250   49.1670 O   0  0  0  0  0  0  0  0  0  0  0  0
   35.6290   30.5060   49.7810 C   0  0  0  0  0  0  0  0  0  0  0  0
   35.9580   29.4860   50.7020 C   0  0  0  0  0  0  0  0  0  0  0  0
   37.2400   29.4920   51.2440 C   0  0  0  0  0  0  0  0  0  0  0  0
   38.1050   30.4760   50.8600 N   0  0  0  0  0  0  0  0  0  0  0  0
   37.7550   31.4450   49.9700 C   0  0  0  0  0  0  0  0  0  0  0  0
   36.5060   31.4570   49.4290 N   0  0  0  0  0  0  0  0  0  0  0  0
   35.1920   28.7570   50.9320 H   0  0  0  0  0  0  0  0  0  0  0  0
   37.5020   28.7200   51.9460 H   0  0  0  0  0  0  0  0  0  0  0  0
   38.4780   32.1980   49.7040 H   0  0  0  0  0  0  0  0  0  0  0  0
   34.5420   25.9410   44.5330 O   0  0  0  0  0  0  0  0  0  0  0  0
   34.0600   25.8000   43.2370 C   0  0  0  0  0  3  0  0  0  0  0  0
   35.1760   25.4020   42.3100 C   0  0  0  0  0  2  0  0  0  0  0  0
   34.8250   24.0710   41.7290 C   0  0  0  0  0  2  0  0  0  0  0  0
   33.3850   23.7820   42.0560 C   0  0  0  0  0  2  0  0  0  0  0  0
   32.9890   24.7490   43.1340 C   0  0  0  0  0  2  0  0  0  0  0  0
  1  6  1  6  0  0  0
  1 11  1  0  0  0  0
  1  2  1  0  0  0  0
  2  7  1  6  0  0  0
  2  3  1  0  0  0  0
  2 13  1  0  0  0  0
  4  9  1  0  0  0  0
  4  3  1  0  0  0  0
  5 10  1  6  0  0  0
  5  1  1  0  0  0  0
  5  4  1  0  0  0  0
  8  4  1  0  0  0  0
 12 11  1  0  0  0  0
 15 14  2  6  0  0  0
 15 13  1  0  0  0  0
 15 18  1  0  0  0  0
 16 17  1  0  0  0  0
 16 15  1  0  0  0  0
 18 19  1  0  0  0  0
 19 20  1  0  0  0  0
 20 25  1  0  0  0  0
 20 21  2  0  0  0  0
 21 26  1  0  0  0  0
 22 21  1  0  0  0  0
 23 22  2  0  0  0  0
 24 19  2  0  0  0  0
 24 23  1  0  0  0  0
 27 23  1  0  0  0  0
 28  5  1  0  0  0  0
 29 28  1  0  0  0  0
 30 29  1  0  0  0  0
 31 32  1  0  0  0  0
 31 30  1  0  0  0  0
 32 33  1  0  0  0  0
 33 29  1  0  0  0  0
M  END
>  <minimizedAffinity>
-3.90961647

>  <minimizedRMSD>
0.435551584

$$$$
