
 OpenBabel03272507163D

 22 24  0  0  1  0  0  0  0  0999 V2000
   36.8680   30.9480   50.5080 C   0  0  1  0  0  0  0  0  0  0  0  0
   36.1480   29.6940   50.4200 C   0  0  2  0  0  0  0  0  0  0  0  0
   37.4650   29.6990   51.1670 C   0  0  0  0  0  0  0  0  0  0  0  0
   36.6420   31.7360   51.2750 H   0  0  0  0  0  0  0  0  0  0  0  0
   35.2230   29.5620   50.9960 H   0  0  0  0  0  0  0  0  0  0  0  0
   37.3630   29.5970   52.2630 H   0  0  0  0  0  0  0  0  0  0  0  0
   38.3460   29.2380   50.7290 H   0  0  0  0  0  0  0  0  0  0  0  0
   37.7140   31.4360   49.3550 C   0  0  0  0  0  0  0  0  0  0  0  0
   38.1990   32.7400   49.4780 C   0  0  0  0  0  0  0  0  0  0  0  0
   38.9600   33.1980   48.3930 C   0  0  0  0  0  0  0  0  0  0  0  0
   39.1870   32.3840   47.3030 N   0  0  0  0  0  0  0  0  0  0  0  0
   38.6820   31.1160   47.2500 C   0  0  0  0  0  0  0  0  0  0  0  0
   37.9390   30.6360   48.2840 N   0  0  0  0  0  0  0  0  0  0  0  0
   37.9970   33.3440   50.3490 H   0  0  0  0  0  0  0  0  0  0  0  0
   39.3630   34.1960   48.4240 H   0  0  0  0  0  0  0  0  0  0  0  0
   38.9020   30.5420   46.3700 H   0  0  0  0  0  0  0  0  0  0  0  0
   36.1380   28.9990   49.2030 O   0  0  0  0  0  0  0  0  0  0  0  0
   34.8340   29.0480   48.7370 C   0  0  0  0  0  0  0  0  0  0  0  0
   34.7250   29.4550   47.2810 C   0  0  0  0  0  0  0  0  0  0  0  0
   33.2260   29.1990   47.0650 C   0  0  0  0  0  0  0  0  0  0  0  0
   32.9040   27.9850   47.9380 C   0  0  0  0  0  0  0  0  0  0  0  0
   34.1950   27.6640   48.6800 C   0  0  0  0  0  0  0  0  0  0  0  0
  1  3  1  0  0  0  0
  1  4  1  1  0  0  0
  2  1  1  0  0  0  0
  2  5  1  1  0  0  0
  2  3  1  0  0  0  0
  3  6  1  0  0  0  0
  7  3  1  0  0  0  0
  8  9  1  0  0  0  0
  8  1  1  0  0  0  0
  9 14  1  0  0  0  0
 10 15  1  0  0  0  0
 10  9  2  0  0  0  0
 11 10  1  0  0  0  0
 12 11  2  0  0  0  0
 12 13  1  0  0  0  0
 13  8  2  0  0  0  0
 16 12  1  0  0  0  0
 17  2  1  0  0  0  0
 18 17  1  0  0  0  0
 19 18  1  0  0  0  0
 20 19  1  0  0  0  0
 20 21  1  0  0  0  0
 21 22  1  0  0  0  0
 22 18  1  0  0  0  0
M  END
>  <minimizedAffinity>
-5.19074774

>  <minimizedRMSD>
1.32390308

$$$$
