
 OpenBabel03272503053D

 28 30  0  0  0  0  0  0  0  0999 V2000
   38.4630   30.4700   47.3100 F   0  0  0  0  0  0  0  0  0  0  0  0
   38.7450   31.6960   47.8180 C   0  0  0  0  0  0  0  0  0  0  0  0
   38.1950   32.0950   49.0020 C   0  0  0  0  0  0  0  0  0  0  0  0
   38.5210   33.3440   49.4570 C   0  0  0  0  0  0  0  0  0  0  0  0
   39.3630   34.1770   48.7730 C   0  0  0  0  0  0  0  0  0  0  0  0
   39.9120   33.7550   47.5740 C   0  0  0  0  0  0  0  0  0  0  0  0
   39.5950   32.4990   47.0970 C   0  0  0  0  0  0  0  0  0  0  0  0
   38.0870   33.6660   50.3950 H   0  0  0  0  0  0  0  0  0  0  0  0
   39.6150   35.1650   49.1420 H   0  0  0  0  0  0  0  0  0  0  0  0
   40.5920   34.3740   46.9780 H   0  0  0  0  0  0  0  0  0  0  0  0
   36.7940   29.5630   51.4550 C   0  0  0  0  0  0  0  0  0  0  0  0
   37.6760   30.4580   50.8200 C   0  0  0  0  0  0  0  0  0  0  0  0
   37.2970   31.1520   49.6890 C   0  0  0  0  0  0  0  0  0  0  0  0
   36.0420   30.9260   49.2260 N   0  0  0  0  0  0  0  0  0  0  0  0
   35.2040   30.0640   49.8420 C   0  0  0  0  0  0  0  0  0  0  0  0
   35.5690   29.4010   50.9270 N   0  0  0  0  0  0  0  0  0  0  0  0
   37.1720   29.0610   52.3360 H   0  0  0  0  0  0  0  0  0  0  0  0
   38.6720   30.6230   51.2080 H   0  0  0  0  0  0  0  0  0  0  0  0
   34.2210   29.9670   49.3770 H   0  0  0  0  0  0  0  0  0  0  0  0
   39.2870   32.2200   44.7280 C   0  0  0  0  0  0  0  0  0  0  0  0
   38.1670   32.7580   44.9920 O   0  0  0  0  0  0  0  0  0  0  0  0
   40.1460   32.0270   45.8560 N   0  0  0  0  0  0  0  0  0  0  0  0
   41.0710   31.5840   45.7400 H   0  0  0  0  0  0  0  0  0  0  0  0
   39.8100   31.7700   43.4120 C   0  0  0  0  0  3  0  0  0  0  0  0
   39.3630   32.6420   42.2840 C   0  0  0  0  0  2  0  0  0  0  0  0
   38.5970   31.7430   41.3170 C   0  0  0  0  0  2  0  0  0  0  0  0
   39.1020   30.3470   41.6340 C   0  0  0  0  0  2  0  0  0  0  0  0
   39.2250   30.4130   43.1360 C   0  0  0  0  0  2  0  0  0  0  0  0
  1  2  1  0  0  0  0
  2  3  1  0  0  0  0
  3  4  2  0  0  0  0
  3 13  1  0  0  0  0
  4  8  1  0  0  0  0
  5  9  1  0  0  0  0
  5  4  1  0  0  0  0
  6  5  2  0  0  0  0
  7  6  1  0  0  0  0
  7  2  2  0  0  0  0
 10  6  1  0  0  0  0
 11 17  1  0  0  0  0
 12 18  1  0  0  0  0
 12 11  2  0  0  0  0
 13 12  1  0  0  0  0
 14 13  2  0  0  0  0
 14 15  1  0  0  0  0
 15 16  2  0  0  0  0
 16 11  1  0  0  0  0
 19 15  1  0  0  0  0
 20 21  2  0  0  0  0
 20 22  1  0  0  0  0
 22  7  1  0  0  0  0
 23 22  1  0  0  0  0
 24 20  1  0  0  0  0
 25 24  1  0  0  0  0
 26 27  1  0  0  0  0
 26 25  1  0  0  0  0
 27 28  1  0  0  0  0
 28 24  1  0  0  0  0
M  END
>  <minimizedAffinity>
-6.35249567

>  <minimizedRMSD>
0.156249568

$$$$
