
 OpenBabel03272507273D

 35 37  0  0  1  0  0  0  0  0999 V2000
   36.7030   29.9110   49.1350 C   0  0  0  0  0  0  0  0  0  0  0  0
   37.7230   30.5980   48.4600 C   0  0  0  0  0  0  0  0  0  0  0  0
   37.5230   30.9120   47.1070 C   0  0  0  0  0  0  0  0  0  0  0  0
   36.3750   30.5390   46.5400 N   0  0  0  0  0  0  0  0  0  0  0  0
   35.4120   29.8780   47.2130 C   0  0  0  0  0  0  0  0  0  0  0  0
   35.5820   29.5710   48.4970 N   0  0  0  0  0  0  0  0  0  0  0  0
   38.5180   31.5980   46.3880 N   0  0  0  0  0  0  0  0  0  0  0  0
   39.4880   32.5420   46.9540 C   0  0  0  0  0  0  0  0  0  0  0  0
   40.1850   33.1920   45.8070 C   0  0  0  0  0  0  0  0  0  0  0  0
   39.2660   32.9300   44.6690 C   0  0  0  0  0  0  0  0  0  0  0  0
   38.8010   31.5340   44.9830 C   0  0  2  0  0  0  0  0  0  0  0  0
   36.7970   29.6400   50.1740 H   0  0  0  0  0  0  0  0  0  0  0  0
   38.6280   30.8710   48.9780 H   0  0  0  0  0  0  0  0  0  0  0  0
   34.5200   29.6240   46.6550 H   0  0  0  0  0  0  0  0  0  0  0  0
   40.2400   31.8950   47.4720 H   0  0  0  0  0  0  0  0  0  0  0  0
   39.0270   33.2280   47.6600 H   0  0  0  0  0  0  0  0  0  0  0  0
   40.1640   34.3010   46.0220 H   0  0  0  0  0  0  0  0  0  0  0  0
   41.2120   32.8800   45.6190 H   0  0  0  0  0  0  0  0  0  0  0  0
   39.8000   32.8950   43.6840 H   0  0  0  0  0  0  0  0  0  0  0  0
   38.4160   33.6340   44.6370 H   0  0  0  0  0  0  0  0  0  0  0  0
   37.7130   31.0640   44.0770 C   0  0  0  0  0  0  0  0  0  0  0  0
   36.5450   31.6690   44.5080 F   0  0  0  0  0  0  0  0  0  0  0  0
   37.4940   29.7170   44.0600 F   0  0  0  0  0  0  0  0  0  0  0  0
   37.9900   31.6000   42.8260 F   0  0  0  0  0  0  0  0  0  0  0  0
   39.9470   30.6080   44.8460 C   0  0  0  0  0  0  0  0  0  0  0  0
   39.6140   29.6420   45.2790 H   0  0  0  0  0  0  0  0  0  0  0  0
   40.7380   30.9510   45.5810 H   0  0  0  0  0  0  0  0  0  0  0  0
   40.4370   30.7840   43.7230 O   0  0  0  0  0  0  0  0  0  0  0  0
   40.7490   30.0600   42.6270 C   0  0  0  0  0  0  0  0  0  0  0  0
   40.7510   30.8130   41.6190 O   0  0  0  0  0  0  0  0  0  0  0  0
   41.1010   28.8120   41.9670 C   0  0  0  0  0  3  0  0  0  0  0  0
   39.8060   28.0690   41.6530 C   0  0  0  0  0  2  0  0  0  0  0  0
   40.3500   27.0920   40.6010 C   0  0  0  0  0  2  0  0  0  0  0  0
   40.9590   28.0950   39.6410 C   0  0  0  0  0  2  0  0  0  0  0  0
   41.7350   28.9990   40.6070 C   0  0  0  0  0  2  0  0  0  0  0  0
  1 12  1  0  0  0  0
  2 13  1  0  0  0  0
  2  1  2  0  0  0  0
  3  2  1  0  0  0  0
  4  3  2  0  0  0  0
  4  5  1  0  0  0  0
  5  6  2  0  0  0  0
  6  1  1  0  0  0  0
  7  8  1  0  0  0  0
  7  3  1  0  0  0  0
  8 15  1  0  0  0  0
  8 16  1  0  0  0  0
  9 17  1  0  0  0  0
  9  8  1  0  0  0  0
 10 11  1  0  0  0  0
 10  9  1  0  0  0  0
 11 21  1  6  0  0  0
 11  7  1  0  0  0  0
 14  5  1  0  0  0  0
 18  9  1  0  0  0  0
 19 10  1  0  0  0  0
 20 10  1  0  0  0  0
 21 22  1  0  0  0  0
 23 21  1  0  0  0  0
 24 21  1  0  0  0  0
 25 11  1  0  0  0  0
 25 26  1  0  0  0  0
 25 27  1  0  0  0  0
 28 25  1  0  0  0  0
 29 28  1  0  0  0  0
 30 29  2  0  0  0  0
 31 29  1  0  0  0  0
 32 31  1  0  0  0  0
 33 32  1  0  0  0  0
 34 33  1  0  0  0  0
 34 35  1  0  0  0  0
 35 31  1  0  0  0  0
M  END
>  <minimizedAffinity>
-5.16616488

>  <minimizedRMSD>
0.468985885

$$$$
