
 OpenBabel03272500223D

 33 35  0  0  0  0  0  0  0  0999 V2000
   35.5370   29.1130   50.4020 C   0  0  0  0  0  0  0  0  0  0  0  0
   36.3430   30.1020   49.7570 C   0  0  0  0  0  0  0  0  0  0  0  0
   36.2020   30.2880   48.3830 C   0  0  0  0  0  0  0  0  0  0  0  0
   35.2860   29.4960   47.7430 N   0  0  0  0  0  0  0  0  0  0  0  0
   34.5540   28.5960   48.3410 C   0  0  0  0  0  0  0  0  0  0  0  0
   34.6600   28.3850   49.6630 N   0  0  0  0  0  0  0  0  0  0  0  0
   35.6440   28.9660   51.4700 H   0  0  0  0  0  0  0  0  0  0  0  0
   32.6830   30.1530   46.5410 Cl  0  0  0  0  0  0  0  0  0  0  0  0
   32.6890   28.4080   46.6950 C   0  0  0  0  0  0  0  0  0  0  0  0
   33.5940   27.7960   47.5540 C   0  0  0  0  0  0  0  0  0  0  0  0
   33.6420   26.4040   47.7150 C   0  0  0  0  0  0  0  0  0  0  0  0
   32.7210   25.6670   46.9570 C   0  0  0  0  0  0  0  0  0  0  0  0
   31.8250   26.2520   46.1090 C   0  0  0  0  0  0  0  0  0  0  0  0
   30.7340   25.2190   45.2220 Cl  0  0  0  0  0  0  0  0  0  0  0  0
   31.8180   27.6410   45.9840 C   0  0  0  0  0  0  0  0  0  0  0  0
   34.3510   25.9350   48.3870 H   0  0  0  0  0  0  0  0  0  0  0  0
   32.7680   24.5890   47.0910 H   0  0  0  0  0  0  0  0  0  0  0  0
   30.8470   28.2840   45.0660 C   0  0  0  0  0  0  0  0  0  0  0  0
   29.9270   27.3430   44.5820 F   0  0  0  0  0  0  0  0  0  0  0  0
   31.4500   28.9210   44.0240 F   0  0  0  0  0  0  0  0  0  0  0  0
   30.1020   29.2130   45.7620 F   0  0  0  0  0  0  0  0  0  0  0  0
   37.2870   30.8770   50.6060 C   0  0  0  0  0  0  0  0  0  0  0  0
   38.5810   30.7900   50.1200 F   0  0  0  0  0  0  0  0  0  0  0  0
   36.9230   32.2110   50.5260 F   0  0  0  0  0  0  0  0  0  0  0  0
   37.2680   30.5220   51.9260 F   0  0  0  0  0  0  0  0  0  0  0  0
   37.0220   31.2940   47.7120 C   0  0  0  0  0  0  0  0  0  0  0  0
   37.5120   32.0220   48.3970 H   0  0  0  0  0  0  0  0  0  0  0  0
   36.3830   31.8890   47.0290 H   0  0  0  0  0  0  0  0  0  0  0  0
   38.0510   30.5970   46.8430 C   0  0  0  0  0  0  0  0  0  0  0  0
   39.3960   31.2480   46.8630 C   0  0  0  0  0  0  0  0  0  0  0  0
   39.9080   30.9830   45.4520 C   0  0  0  0  0  0  0  0  0  0  0  0
   38.6780   31.2880   44.6220 C   0  0  0  0  0  0  0  0  0  0  0  0
   37.5680   30.6660   45.4120 C   0  0  0  0  0  0  0  0  0  0  0  0
  1  7  1  0  0  0  0
  2  1  1  0  0  0  0
  2 22  1  0  0  0  0
  3  2  2  0  0  0  0
  4  5  2  0  0  0  0
  4  3  1  0  0  0  0
  5  6  1  0  0  0  0
  6  1  2  0  0  0  0
  8  9  1  0  0  0  0
  9 10  1  0  0  0  0
 10 11  2  0  0  0  0
 10  5  1  0  0  0  0
 11 16  1  0  0  0  0
 12 17  1  0  0  0  0
 12 11  1  0  0  0  0
 13 12  2  0  0  0  0
 14 13  1  0  0  0  0
 15 13  1  0  0  0  0
 15  9  2  0  0  0  0
 18 21  1  0  0  0  0
 18 15  1  0  0  0  0
 19 18  1  0  0  0  0
 20 18  1  0  0  0  0
 22 25  1  0  0  0  0
 23 22  1  0  0  0  0
 24 22  1  0  0  0  0
 26  3  1  0  0  0  0
 26 27  1  0  0  0  0
 28 26  1  0  0  0  0
 29 30  1  0  0  0  0
 29 26  1  0  0  0  0
 31 30  1  0  0  0  0
 32 33  1  0  0  0  0
 32 31  1  0  0  0  0
 33 29  1  0  0  0  0
M  END
>  <minimizedAffinity>
-6.32859468

>  <minimizedRMSD>
1.4258126

$$$$
