
 OpenBabel03272507273D

 35 37  0  0  1  0  0  0  0  0999 V2000
   37.4360   27.0780   34.2310 C   0  0  0  0  0  0  0  0  0  0  0  0
   37.4710   26.1130   35.2500 C   0  0  0  0  0  0  0  0  0  0  0  0
   38.6390   25.3480   35.3920 C   0  0  0  0  0  0  0  0  0  0  0  0
   39.6480   25.5810   34.5510 N   0  0  0  0  0  0  0  0  0  0  0  0
   39.5840   26.5140   33.5800 C   0  0  0  0  0  0  0  0  0  0  0  0
   38.4860   27.2510   33.4290 N   0  0  0  0  0  0  0  0  0  0  0  0
   38.7210   24.3680   36.3970 N   0  0  0  0  0  0  0  0  0  0  0  0
   38.0150   24.3970   37.6830 C   0  0  0  0  0  0  0  0  0  0  0  0
   38.5740   23.2910   38.5130 C   0  0  0  0  0  0  0  0  0  0  0  0
   39.8660   22.9930   37.8430 C   0  0  0  0  0  0  0  0  0  0  0  0
   39.4900   23.1570   36.3940 C   0  0  2  0  0  0  0  0  0  0  0  0
   36.5680   27.6970   34.0700 H   0  0  0  0  0  0  0  0  0  0  0  0
   36.6210   25.9760   35.8970 H   0  0  0  0  0  0  0  0  0  0  0  0
   40.4610   26.6190   32.9550 H   0  0  0  0  0  0  0  0  0  0  0  0
   36.9610   24.1190   37.4310 H   0  0  0  0  0  0  0  0  0  0  0  0
   38.0480   25.3800   38.1460 H   0  0  0  0  0  0  0  0  0  0  0  0
   38.8020   23.7460   39.5210 H   0  0  0  0  0  0  0  0  0  0  0  0
   37.9410   22.4140   38.6470 H   0  0  0  0  0  0  0  0  0  0  0  0
   40.1930   21.9310   37.9890 H   0  0  0  0  0  0  0  0  0  0  0  0
   40.6660   23.6990   38.1270 H   0  0  0  0  0  0  0  0  0  0  0  0
   40.6630   23.0810   35.4760 C   0  0  0  0  0  0  0  0  0  0  0  0
   41.5430   24.0740   35.8690 F   0  0  0  0  0  0  0  0  0  0  0  0
   40.3940   23.2750   34.1510 F   0  0  0  0  0  0  0  0  0  0  0  0
   41.2920   21.8730   35.7450 F   0  0  0  0  0  0  0  0  0  0  0  0
   38.5440   22.0820   36.0230 C   0  0  0  0  0  0  0  0  0  0  0  0
   38.1500   21.6760   36.9770 H   0  0  0  0  0  0  0  0  0  0  0  0
   39.1640   21.2210   35.6240 H   0  0  0  0  0  0  0  0  0  0  0  0
   37.8780   22.4870   35.0610 O   0  0  0  0  0  0  0  0  0  0  0  0
   37.4040   22.0180   33.8870 C   0  0  0  0  0  0  0  0  0  0  0  0
   37.3620   22.9590   33.0530 O   0  0  0  0  0  0  0  0  0  0  0  0
   36.8960   20.9520   33.0380 C   0  0  0  0  0  3  0  0  0  0  0  0
   35.6380   20.3920   33.6950 C   0  0  0  0  0  2  0  0  0  0  0  0
   35.0420   19.6720   32.4780 C   0  0  0  0  0  2  0  0  0  0  0  0
   34.9970   20.8400   31.5120 C   0  0  0  0  0  2  0  0  0  0  0  0
   36.4030   21.4280   31.6900 C   0  0  0  0  0  2  0  0  0  0  0  0
  1  2  1  0  0  0  0
  2  3  2  0  0  0  0
  2 13  1  0  0  0  0
  3  7  1  0  0  0  0
  4  3  1  0  0  0  0
  5  4  2  0  0  0  0
  6  5  1  0  0  0  0
  6  1  2  0  0  0  0
  7  8  1  0  0  0  0
  8 16  1  0  0  0  0
  8  9  1  0  0  0  0
  9 18  1  0  0  0  0
  9 17  1  0  0  0  0
 10 19  1  0  0  0  0
 10 20  1  0  0  0  0
 10  9  1  0  0  0  0
 11 21  1  6  0  0  0
 11  7  1  0  0  0  0
 11 10  1  0  0  0  0
 12  1  1  0  0  0  0
 14  5  1  0  0  0  0
 15  8  1  0  0  0  0
 21 24  1  0  0  0  0
 21 22  1  0  0  0  0
 23 21  1  0  0  0  0
 25 11  1  0  0  0  0
 25 26  1  0  0  0  0
 27 25  1  0  0  0  0
 28 25  1  0  0  0  0
 29 28  1  0  0  0  0
 30 29  2  0  0  0  0
 31 32  1  0  0  0  0
 31 29  1  0  0  0  0
 33 32  1  0  0  0  0
 34 35  1  0  0  0  0
 34 33  1  0  0  0  0
 35 31  1  0  0  0  0
M  END
>  <minimizedAffinity>
-5.51470613

$$$$

 OpenBabel03272507273D

 35 37  0  0  1  0  0  0  0  0999 V2000
   41.9290   21.8220   35.9560 C   0  0  0  0  0  0  0  0  0  0  0  0
   41.6200   22.9820   35.2300 C   0  0  0  0  0  0  0  0  0  0  0  0
   40.5540   23.7760   35.6790 C   0  0  0  0  0  0  0  0  0  0  0  0
   39.8960   23.3830   36.7710 N   0  0  0  0  0  0  0  0  0  0  0  0
   40.2150   22.2620   37.4480 C   0  0  0  0  0  0  0  0  0  0  0  0
   41.2230   21.4950   37.0390 N   0  0  0  0  0  0  0  0  0  0  0  0
   40.2060   24.9470   34.9830 N   0  0  0  0  0  0  0  0  0  0  0  0
   41.1220   25.7840   34.2000 C   0  0  0  0  0  0  0  0  0  0  0  0
   40.3790   27.0250   33.8390 C   0  0  0  0  0  0  0  0  0  0  0  0
   39.2570   27.0360   34.8130 C   0  0  0  0  0  0  0  0  0  0  0  0
   38.9180   25.5710   34.8840 C   0  0  2  0  0  0  0  0  0  0  0  0
   42.7360   21.1700   35.6620 H   0  0  0  0  0  0  0  0  0  0  0  0
   42.1930   23.2430   34.3560 H   0  0  0  0  0  0  0  0  0  0  0  0
   39.6140   22.0390   38.3210 H   0  0  0  0  0  0  0  0  0  0  0  0
   41.2850   25.2110   33.2520 H   0  0  0  0  0  0  0  0  0  0  0  0
   42.0670   25.9460   34.7120 H   0  0  0  0  0  0  0  0  0  0  0  0
   41.0680   27.8830   34.0960 H   0  0  0  0  0  0  0  0  0  0  0  0
   40.0570   27.1180   32.8020 H   0  0  0  0  0  0  0  0  0  0  0  0
   38.3530   27.5730   34.4240 H   0  0  0  0  0  0  0  0  0  0  0  0
   39.5550   27.4220   35.8030 H   0  0  0  0  0  0  0  0  0  0  0  0
   37.9120   25.2570   35.9400 C   0  0  0  0  0  0  0  0  0  0  0  0
   38.4190   25.7440   37.1330 F   0  0  0  0  0  0  0  0  0  0  0  0
   37.6380   23.9320   36.1250 F   0  0  0  0  0  0  0  0  0  0  0  0
   36.7910   26.0230   35.6510 F   0  0  0  0  0  0  0  0  0  0  0  0
   38.3640   25.1450   33.5800 C   0  0  0  0  0  0  0  0  0  0  0  0
   39.0000   25.6230   32.8070 H   0  0  0  0  0  0  0  0  0  0  0  0
   37.3730   25.6800   33.4530 H   0  0  0  0  0  0  0  0  0  0  0  0
   38.0850   23.9420   33.6680 O   0  0  0  0  0  0  0  0  0  0  0  0
   37.3890   23.0100   32.9820 C   0  0  0  0  0  0  0  0  0  0  0  0
   36.7580   23.5700   32.0480 O   0  0  0  0  0  0  0  0  0  0  0  0
   36.9650   21.6400   32.7420 C   0  0  0  0  0  3  0  0  0  0  0  0
   36.2720   21.1380   34.0050 C   0  0  0  0  0  2  0  0  0  0  0  0
   35.5300   19.9380   33.4000 C   0  0  0  0  0  2  0  0  0  0  0  0
   34.7770   20.6580   32.2980 C   0  0  0  0  0  2  0  0  0  0  0  0
   35.8940   21.5090   31.6820 C   0  0  0  0  0  2  0  0  0  0  0  0
  1  6  1  0  0  0  0
  2  3  1  0  0  0  0
  2  1  2  0  0  0  0
  3  4  2  0  0  0  0
  4  5  1  0  0  0  0
  5 14  1  0  0  0  0
  6  5  2  0  0  0  0
  7  3  1  0  0  0  0
  8 16  1  0  0  0  0
  8  7  1  0  0  0  0
  9 17  1  0  0  0  0
  9  8  1  0  0  0  0
  9 10  1  0  0  0  0
 10 11  1  0  0  0  0
 10 20  1  0  0  0  0
 11 25  1  6  0  0  0
 11  7  1  0  0  0  0
 11 21  1  0  0  0  0
 12  1  1  0  0  0  0
 13  2  1  0  0  0  0
 15  8  1  0  0  0  0
 18  9  1  0  0  0  0
 19 10  1  0  0  0  0
 21 23  1  0  0  0  0
 21 22  1  0  0  0  0
 24 21  1  0  0  0  0
 25 28  1  0  0  0  0
 26 25  1  0  0  0  0
 27 25  1  0  0  0  0
 29 28  1  0  0  0  0
 30 29  2  0  0  0  0
 31 29  1  0  0  0  0
 31 32  1  0  0  0  0
 33 32  1  0  0  0  0
 34 33  1  0  0  0  0
 35 34  1  0  0  0  0
 35 31  1  0  0  0  0
M  END
>  <minimizedAffinity>
-5.42654371

$$$$

 OpenBabel03272507273D

 35 37  0  0  1  0  0  0  0  0999 V2000
   37.2090   26.2760   31.1700 C   0  0  0  0  0  0  0  0  0  0  0  0
   37.8660   25.0390   31.0800 C   0  0  0  0  0  0  0  0  0  0  0  0
   37.0800   23.8780   31.0300 C   0  0  0  0  0  0  0  0  0  0  0  0
   35.7540   24.0160   31.0700 N   0  0  0  0  0  0  0  0  0  0  0  0
   35.1500   25.2180   31.1570 C   0  0  0  0  0  0  0  0  0  0  0  0
   35.8770   26.3320   31.2060 N   0  0  0  0  0  0  0  0  0  0  0  0
   37.6930   22.6160   30.9410 N   0  0  0  0  0  0  0  0  0  0  0  0
   38.9920   22.3350   30.3210 C   0  0  0  0  0  0  0  0  0  0  0  0
   39.1320   20.8520   30.2520 C   0  0  0  0  0  0  0  0  0  0  0  0
   37.7310   20.3790   30.4070 C   0  0  0  0  0  0  0  0  0  0  0  0
   37.2030   21.3560   31.4220 C   0  0  2  0  0  0  0  0  0  0  0  0
   37.7570   27.2040   31.2130 H   0  0  0  0  0  0  0  0  0  0  0  0
   38.9420   24.9980   31.0510 H   0  0  0  0  0  0  0  0  0  0  0  0
   34.0680   25.2140   31.1820 H   0  0  0  0  0  0  0  0  0  0  0  0
   39.7440   22.7020   31.0640 H   0  0  0  0  0  0  0  0  0  0  0  0
   39.1130   22.8520   29.3730 H   0  0  0  0  0  0  0  0  0  0  0  0
   39.4610   20.6210   29.1960 H   0  0  0  0  0  0  0  0  0  0  0  0
   39.8260   20.3930   30.9560 H   0  0  0  0  0  0  0  0  0  0  0  0
   37.6690   19.3550   30.8590 H   0  0  0  0  0  0  0  0  0  0  0  0
   37.1570   20.4350   29.4660 H   0  0  0  0  0  0  0  0  0  0  0  0
   35.7340   21.2240   31.6480 C   0  0  0  0  0  0  0  0  0  0  0  0
   35.1160   21.5350   30.4500 F   0  0  0  0  0  0  0  0  0  0  0  0
   35.2040   22.0400   32.6050 F   0  0  0  0  0  0  0  0  0  0  0  0
   35.4950   19.8740   31.8720 F   0  0  0  0  0  0  0  0  0  0  0  0
   37.8900   21.1220   32.7110 C   0  0  0  0  0  0  0  0  0  0  0  0
   38.8660   20.6590   32.4590 H   0  0  0  0  0  0  0  0  0  0  0  0
   37.3400   20.2780   33.2300 H   0  0  0  0  0  0  0  0  0  0  0  0
   37.7080   22.1230   33.4180 O   0  0  0  0  0  0  0  0  0  0  0  0
   37.8290   22.4850   34.7130 C   0  0  0  0  0  0  0  0  0  0  0  0
   37.1660   21.6910   35.4280 O   0  0  0  0  0  0  0  0  0  0  0  0
   38.3460   23.3470   35.7640 C   0  0  0  0  0  3  0  0  0  0  0  0
   37.4780   23.1440   37.0030 C   0  0  0  0  0  2  0  0  0  0  0  0
   38.4310   23.7340   38.0510 C   0  0  0  0  0  2  0  0  0  0  0  0
   39.6490   22.8770   37.7710 C   0  0  0  0  0  2  0  0  0  0  0  0
   39.7290   22.9640   36.2420 C   0  0  0  0  0  2  0  0  0  0  0  0
  1  6  1  0  0  0  0
  1 12  1  0  0  0  0
  2  1  2  0  0  0  0
  3  4  2  0  0  0  0
  3  2  1  0  0  0  0
  4  5  1  0  0  0  0
  5 14  1  0  0  0  0
  5  6  2  0  0  0  0
  7  3  1  0  0  0  0
  7 11  1  0  0  0  0
  8  7  1  0  0  0  0
  8 15  1  0  0  0  0
  9  8  1  0  0  0  0
  9 10  1  0  0  0  0
  9 18  1  0  0  0  0
 10 19  1  0  0  0  0
 10 11  1  0  0  0  0
 11 21  1  1  0  0  0
 11 25  1  0  0  0  0
 13  2  1  0  0  0  0
 16  8  1  0  0  0  0
 17  9  1  0  0  0  0
 20 10  1  0  0  0  0
 21 24  1  0  0  0  0
 21 23  1  0  0  0  0
 22 21  1  0  0  0  0
 25 27  1  0  0  0  0
 25 28  1  0  0  0  0
 26 25  1  0  0  0  0
 28 29  1  0  0  0  0
 29 30  2  0  0  0  0
 29 31  1  0  0  0  0
 31 35  1  0  0  0  0
 31 32  1  0  0  0  0
 32 33  1  0  0  0  0
 34 33  1  0  0  0  0
 35 34  1  0  0  0  0
M  END
>  <minimizedAffinity>
-5.40668392

$$$$

 OpenBabel03272507273D

 35 37  0  0  1  0  0  0  0  0999 V2000
   34.7080   29.8760   32.4260 C   0  0  0  0  0  0  0  0  0  0  0  0
   35.4200   29.0920   33.3480 C   0  0  0  0  0  0  0  0  0  0  0  0
   36.6090   28.4850   32.9160 C   0  0  0  0  0  0  0  0  0  0  0  0
   36.9950   28.6860   31.6550 N   0  0  0  0  0  0  0  0  0  0  0  0
   36.2900   29.4440   30.7920 C   0  0  0  0  0  0  0  0  0  0  0  0
   35.1590   30.0300   31.1810 N   0  0  0  0  0  0  0  0  0  0  0  0
   37.3560   27.6890   33.8030 N   0  0  0  0  0  0  0  0  0  0  0  0
   37.4070   27.8460   35.2600 C   0  0  0  0  0  0  0  0  0  0  0  0
   38.4880   26.9480   35.7590 C   0  0  0  0  0  0  0  0  0  0  0  0
   39.2910   26.6850   34.5360 C   0  0  0  0  0  0  0  0  0  0  0  0
   38.2110   26.5790   33.4940 C   0  0  2  0  0  0  0  0  0  0  0  0
   33.7880   30.3680   32.6970 H   0  0  0  0  0  0  0  0  0  0  0  0
   35.0530   28.9700   34.3530 H   0  0  0  0  0  0  0  0  0  0  0  0
   36.6950   29.5400   29.7920 H   0  0  0  0  0  0  0  0  0  0  0  0
   36.4360   27.4240   35.6230 H   0  0  0  0  0  0  0  0  0  0  0  0
   37.5020   28.8870   35.5570 H   0  0  0  0  0  0  0  0  0  0  0  0
   39.1160   27.5780   36.4560 H   0  0  0  0  0  0  0  0  0  0  0  0
   38.1720   26.0420   36.2750 H   0  0  0  0  0  0  0  0  0  0  0  0
   39.8220   25.6990   34.5730 H   0  0  0  0  0  0  0  0  0  0  0  0
   39.9900   27.5060   34.3010 H   0  0  0  0  0  0  0  0  0  0  0  0
   38.7480   26.4830   32.1060 C   0  0  0  0  0  0  0  0  0  0  0  0
   39.7510   25.5290   32.1300 F   0  0  0  0  0  0  0  0  0  0  0  0
   39.2870   27.6300   31.5960 F   0  0  0  0  0  0  0  0  0  0  0  0
   37.7260   25.9550   31.3280 F   0  0  0  0  0  0  0  0  0  0  0  0
   37.4070   25.3660   33.7620 C   0  0  0  0  0  0  0  0  0  0  0  0
   36.5950   25.3630   33.0070 H   0  0  0  0  0  0  0  0  0  0  0  0
   36.8470   25.5500   34.7300 H   0  0  0  0  0  0  0  0  0  0  0  0
   38.1950   24.4420   34.0020 O   0  0  0  0  0  0  0  0  0  0  0  0
   38.3090   23.4030   34.8570 C   0  0  0  0  0  0  0  0  0  0  0  0
   38.3620   22.3310   34.2010 O   0  0  0  0  0  0  0  0  0  0  0  0
   38.4080   22.8440   36.1960 C   0  0  0  0  0  3  0  0  0  0  0  0
   39.7470   23.2790   36.7860 C   0  0  0  0  0  2  0  0  0  0  0  0
   39.4460   23.0090   38.2660 C   0  0  0  0  0  2  0  0  0  0  0  0
   38.1910   23.8480   38.4080 C   0  0  0  0  0  2  0  0  0  0  0  0
   37.3990   23.4100   37.1700 C   0  0  0  0  0  2  0  0  0  0  0  0
  1 12  1  0  0  0  0
  1  2  1  0  0  0  0
  2 13  1  0  0  0  0
  3  2  2  0  0  0  0
  3  7  1  0  0  0  0
  4  3  1  0  0  0  0
  5  6  1  0  0  0  0
  5  4  2  0  0  0  0
  6  1  2  0  0  0  0
  7  8  1  0  0  0  0
  8 16  1  0  0  0  0
  8 15  1  0  0  0  0
  8  9  1  0  0  0  0
  9 18  1  0  0  0  0
  9 17  1  0  0  0  0
 10 19  1  0  0  0  0
 10  9  1  0  0  0  0
 11 21  1  6  0  0  0
 11 25  1  0  0  0  0
 11  7  1  0  0  0  0
 11 10  1  0  0  0  0
 14  5  1  0  0  0  0
 20 10  1  0  0  0  0
 21 22  1  0  0  0  0
 23 21  1  0  0  0  0
 24 21  1  0  0  0  0
 25 28  1  0  0  0  0
 25 27  1  0  0  0  0
 26 25  1  0  0  0  0
 28 29  1  0  0  0  0
 29 31  1  0  0  0  0
 30 29  2  0  0  0  0
 31 32  1  0  0  0  0
 31 35  1  0  0  0  0
 32 33  1  0  0  0  0
 33 34  1  0  0  0  0
 35 34  1  0  0  0  0
M  END
>  <minimizedAffinity>
-5.3385725

$$$$

 OpenBabel03272507273D

 35 37  0  0  1  0  0  0  0  0999 V2000
   38.8650   26.7560   33.5440 C   0  0  0  0  0  0  0  0  0  0  0  0
   38.4460   25.9570   34.6180 C   0  0  0  0  0  0  0  0  0  0  0  0
   39.3910   25.1110   35.2180 C   0  0  0  0  0  0  0  0  0  0  0  0
   40.6330   25.1150   34.7330 N   0  0  0  0  0  0  0  0  0  0  0  0
   41.0070   25.8930   33.6980 C   0  0  0  0  0  0  0  0  0  0  0  0
   40.1260   26.7030   33.1150 N   0  0  0  0  0  0  0  0  0  0  0  0
   39.0180   24.2900   36.2970 N   0  0  0  0  0  0  0  0  0  0  0  0
   37.9590   24.5800   37.2690 C   0  0  0  0  0  0  0  0  0  0  0  0
   38.0690   23.5620   38.3530 C   0  0  0  0  0  0  0  0  0  0  0  0
   39.4500   23.0420   38.1800 C   0  0  0  0  0  0  0  0  0  0  0  0
   39.5700   23.0220   36.6790 C   0  0  2  0  0  0  0  0  0  0  0  0
   38.1860   27.4260   33.0410 H   0  0  0  0  0  0  0  0  0  0  0  0
   37.4260   26.0020   34.9620 H   0  0  0  0  0  0  0  0  0  0  0  0
   42.0410   25.8170   33.3860 H   0  0  0  0  0  0  0  0  0  0  0  0
   37.0070   24.3730   36.7190 H   0  0  0  0  0  0  0  0  0  0  0  0
   37.9850   25.6140   37.6060 H   0  0  0  0  0  0  0  0  0  0  0  0
   38.0360   24.1390   39.3240 H   0  0  0  0  0  0  0  0  0  0  0  0
   37.3090   22.7820   38.3700 H   0  0  0  0  0  0  0  0  0  0  0  0
   39.5620   21.9860   38.5410 H   0  0  0  0  0  0  0  0  0  0  0  0
   40.2140   23.7000   38.6300 H   0  0  0  0  0  0  0  0  0  0  0  0
   40.9470   22.6950   36.2090 C   0  0  0  0  0  0  0  0  0  0  0  0
   41.3200   21.5250   36.8470 F   0  0  0  0  0  0  0  0  0  0  0  0
   41.9050   23.6310   36.4790 F   0  0  0  0  0  0  0  0  0  0  0  0
   40.8350   22.3860   34.8600 F   0  0  0  0  0  0  0  0  0  0  0  0
   38.6450   22.0020   36.1410 C   0  0  0  0  0  0  0  0  0  0  0  0
   38.1010   21.5880   37.0150 H   0  0  0  0  0  0  0  0  0  0  0  0
   39.2800   21.1250   35.8060 H   0  0  0  0  0  0  0  0  0  0  0  0
   38.1410   22.4620   35.1080 O   0  0  0  0  0  0  0  0  0  0  0  0
   37.4380   22.0270   34.0400 C   0  0  0  0  0  0  0  0  0  0  0  0
   36.5580   21.2160   34.4280 O   0  0  0  0  0  0  0  0  0  0  0  0
   37.1480   22.0000   32.6160 C   0  0  0  0  0  3  0  0  0  0  0  0
   35.7630   21.3870   32.4330 C   0  0  0  0  0  2  0  0  0  0  0  0
   35.4810   21.8730   31.0050 C   0  0  0  0  0  2  0  0  0  0  0  0
   35.6840   23.3600   31.2180 C   0  0  0  0  0  2  0  0  0  0  0  0
   37.0060   23.3720   31.9960 C   0  0  0  0  0  2  0  0  0  0  0  0
  1  2  1  0  0  0  0
  2 13  1  0  0  0  0
  2  3  2  0  0  0  0
  3  7  1  0  0  0  0
  4  3  1  0  0  0  0
  5  4  2  0  0  0  0
  6  1  2  0  0  0  0
  6  5  1  0  0  0  0
  7 11  1  0  0  0  0
  7  8  1  0  0  0  0
  8 16  1  0  0  0  0
  8  9  1  0  0  0  0
  9 18  1  0  0  0  0
  9 17  1  0  0  0  0
 10  9  1  0  0  0  0
 10 19  1  0  0  0  0
 10 20  1  0  0  0  0
 11 25  1  6  0  0  0
 11 10  1  0  0  0  0
 12  1  1  0  0  0  0
 14  5  1  0  0  0  0
 15  8  1  0  0  0  0
 21 23  1  0  0  0  0
 21 11  1  0  0  0  0
 21 22  1  0  0  0  0
 24 21  1  0  0  0  0
 25 26  1  0  0  0  0
 27 25  1  0  0  0  0
 28 25  1  0  0  0  0
 29 30  2  0  0  0  0
 29 28  1  0  0  0  0
 31 29  1  0  0  0  0
 32 31  1  0  0  0  0
 33 34  1  0  0  0  0
 33 32  1  0  0  0  0
 34 35  1  0  0  0  0
 35 31  1  0  0  0  0
M  END
>  <minimizedAffinity>
-5.1903882

$$$$

 OpenBabel03272507273D

 35 37  0  0  1  0  0  0  0  0999 V2000
   42.6000   21.7720   36.1460 C   0  0  0  0  0  0  0  0  0  0  0  0
   42.1970   22.9450   35.4900 C   0  0  0  0  0  0  0  0  0  0  0  0
   41.0170   23.5700   35.9230 C   0  0  0  0  0  0  0  0  0  0  0  0
   40.3470   23.0130   36.9320 N   0  0  0  0  0  0  0  0  0  0  0  0
   40.7580   21.8840   37.5440 C   0  0  0  0  0  0  0  0  0  0  0  0
   41.8750   21.2760   37.1490 N   0  0  0  0  0  0  0  0  0  0  0  0
   40.5720   24.7460   35.2950 N   0  0  0  0  0  0  0  0  0  0  0  0
   41.4250   25.7460   34.6420 C   0  0  0  0  0  0  0  0  0  0  0  0
   40.5590   26.9190   34.3260 C   0  0  0  0  0  0  0  0  0  0  0  0
   39.3870   26.7170   35.2160 C   0  0  0  0  0  0  0  0  0  0  0  0
   39.2250   25.2210   35.1530 C   0  0  2  0  0  0  0  0  0  0  0  0
   43.4970   21.2460   35.8610 H   0  0  0  0  0  0  0  0  0  0  0  0
   42.7860   23.3440   34.6800 H   0  0  0  0  0  0  0  0  0  0  0  0
   40.1370   21.5200   38.3520 H   0  0  0  0  0  0  0  0  0  0  0  0
   41.7130   25.2780   33.6680 H   0  0  0  0  0  0  0  0  0  0  0  0
   42.3100   25.9750   35.2310 H   0  0  0  0  0  0  0  0  0  0  0  0
   41.1220   27.8260   34.6940 H   0  0  0  0  0  0  0  0  0  0  0  0
   40.2910   27.0600   33.2790 H   0  0  0  0  0  0  0  0  0  0  0  0
   38.4500   27.1750   34.8070 H   0  0  0  0  0  0  0  0  0  0  0  0
   39.5760   27.0510   36.2510 H   0  0  0  0  0  0  0  0  0  0  0  0
   38.2040   24.7050   36.1090 C   0  0  0  0  0  0  0  0  0  0  0  0
   37.0820   25.5030   35.9650 F   0  0  0  0  0  0  0  0  0  0  0  0
   38.5570   24.7320   37.4280 F   0  0  0  0  0  0  0  0  0  0  0  0
   37.8460   23.4430   35.6540 F   0  0  0  0  0  0  0  0  0  0  0  0
   38.8080   24.8450   33.7850 C   0  0  0  0  0  0  0  0  0  0  0  0
   38.9110   23.7430   33.7250 H   0  0  0  0  0  0  0  0  0  0  0  0
   39.6180   25.2090   33.0810 H   0  0  0  0  0  0  0  0  0  0  0  0
   37.8010   25.5100   33.5060 O   0  0  0  0  0  0  0  0  0  0  0  0
   37.3840   26.3660   32.5480 C   0  0  0  0  0  0  0  0  0  0  0  0
   36.6390   27.2360   33.0680 O   0  0  0  0  0  0  0  0  0  0  0  0
   37.3420   26.8350   31.1730 C   0  0  0  0  0  3  0  0  0  0  0  0
   36.5550   28.1420   31.1490 C   0  0  0  0  0  2  0  0  0  0  0  0
   37.0230   28.6690   29.7850 C   0  0  0  0  0  2  0  0  0  0  0  0
   38.5200   28.6320   30.0190 C   0  0  0  0  0  2  0  0  0  0  0  0
   38.6930   27.2310   30.6210 C   0  0  0  0  0  2  0  0  0  0  0  0
  1  6  1  0  0  0  0
  2  3  1  0  0  0  0
  2  1  2  0  0  0  0
  3  4  2  0  0  0  0
  4  5  1  0  0  0  0
  5 14  1  0  0  0  0
  6  5  2  0  0  0  0
  7  3  1  0  0  0  0
  8 16  1  0  0  0  0
  8  7  1  0  0  0  0
  9  8  1  0  0  0  0
  9 17  1  0  0  0  0
  9 10  1  0  0  0  0
 10 20  1  0  0  0  0
 11 25  1  6  0  0  0
 11 10  1  0  0  0  0
 11  7  1  0  0  0  0
 11 21  1  0  0  0  0
 12  1  1  0  0  0  0
 13  2  1  0  0  0  0
 15  8  1  0  0  0  0
 18  9  1  0  0  0  0
 19 10  1  0  0  0  0
 21 23  1  0  0  0  0
 22 21  1  0  0  0  0
 24 21  1  0  0  0  0
 26 25  1  0  0  0  0
 27 25  1  0  0  0  0
 28 25  1  0  0  0  0
 29 30  2  0  0  0  0
 29 28  1  0  0  0  0
 31 29  1  0  0  0  0
 32 31  1  0  0  0  0
 33 34  1  0  0  0  0
 33 32  1  0  0  0  0
 34 35  1  0  0  0  0
 35 31  1  0  0  0  0
M  END
>  <minimizedAffinity>
-5.13112211

$$$$

 OpenBabel03272507273D

 35 37  0  0  1  0  0  0  0  0999 V2000
   35.5740   21.0830   31.4690 C   0  0  0  0  0  0  0  0  0  0  0  0
   35.5290   22.4800   31.5910 C   0  0  0  0  0  0  0  0  0  0  0  0
   36.6740   23.2100   31.2360 C   0  0  0  0  0  0  0  0  0  0  0  0
   37.7400   22.5330   30.8040 N   0  0  0  0  0  0  0  0  0  0  0  0
   37.7540   21.1900   30.6980 C   0  0  0  0  0  0  0  0  0  0  0  0
   36.6790   20.4790   31.0290 N   0  0  0  0  0  0  0  0  0  0  0  0
   36.6780   24.6120   31.3420 N   0  0  0  0  0  0  0  0  0  0  0  0
   35.5040   25.4840   31.2200 C   0  0  0  0  0  0  0  0  0  0  0  0
   36.0070   26.8870   31.1710 C   0  0  0  0  0  0  0  0  0  0  0  0
   37.4360   26.7150   30.8040 C   0  0  0  0  0  0  0  0  0  0  0  0
   37.7930   25.4800   31.5870 C   0  0  2  0  0  0  0  0  0  0  0  0
   34.7280   20.4670   31.7260 H   0  0  0  0  0  0  0  0  0  0  0  0
   34.6350   22.9650   31.9470 H   0  0  0  0  0  0  0  0  0  0  0  0
   38.6720   20.7450   30.3360 H   0  0  0  0  0  0  0  0  0  0  0  0
   34.9610   25.3630   32.1910 H   0  0  0  0  0  0  0  0  0  0  0  0
   34.8650   25.1950   30.3900 H   0  0  0  0  0  0  0  0  0  0  0  0
   35.4800   27.3730   30.2960 H   0  0  0  0  0  0  0  0  0  0  0  0
   35.8560   27.4920   32.0640 H   0  0  0  0  0  0  0  0  0  0  0  0
   38.0810   27.5520   31.1800 H   0  0  0  0  0  0  0  0  0  0  0  0
   37.5820   26.5550   29.7220 H   0  0  0  0  0  0  0  0  0  0  0  0
   39.1560   24.9640   31.2710 C   0  0  0  0  0  0  0  0  0  0  0  0
   39.1830   24.7130   29.9100 F   0  0  0  0  0  0  0  0  0  0  0  0
   39.5170   23.8110   31.9070 F   0  0  0  0  0  0  0  0  0  0  0  0
   40.0330   26.0190   31.4900 F   0  0  0  0  0  0  0  0  0  0  0  0
   37.7440   25.8000   33.0300 C   0  0  0  0  0  0  0  0  0  0  0  0
   37.0620   26.6690   33.1290 H   0  0  0  0  0  0  0  0  0  0  0  0
   38.7510   26.2430   33.3040 H   0  0  0  0  0  0  0  0  0  0  0  0
   37.6720   24.7290   33.6480 O   0  0  0  0  0  0  0  0  0  0  0  0
   38.1490   24.1810   34.7860 C   0  0  0  0  0  0  0  0  0  0  0  0
   37.9790   22.9350   34.7470 O   0  0  0  0  0  0  0  0  0  0  0  0
   38.7840   24.2740   36.0910 C   0  0  0  0  0  3  0  0  0  0  0  0
   37.8770   23.5810   37.1030 C   0  0  0  0  0  2  0  0  0  0  0  0
   38.8980   23.3840   38.2320 C   0  0  0  0  0  2  0  0  0  0  0  0
   39.9640   22.6340   37.4570 C   0  0  0  0  0  2  0  0  0  0  0  0
   40.0790   23.4990   36.1950 C   0  0  0  0  0  2  0  0  0  0  0  0
  1  2  1  0  0  0  0
  1 12  1  0  0  0  0
  2 13  1  0  0  0  0
  3  7  1  0  0  0  0
  3  2  2  0  0  0  0
  4  3  1  0  0  0  0
  5  4  2  0  0  0  0
  5  6  1  0  0  0  0
  6  1  2  0  0  0  0
  7 11  1  0  0  0  0
  8  7  1  0  0  0  0
  8 15  1  0  0  0  0
  9  8  1  0  0  0  0
  9 18  1  0  0  0  0
 10  9  1  0  0  0  0
 10 19  1  0  0  0  0
 10 11  1  0  0  0  0
 11 21  1  6  0  0  0
 11 25  1  0  0  0  0
 14  5  1  0  0  0  0
 16  8  1  0  0  0  0
 17  9  1  0  0  0  0
 20 10  1  0  0  0  0
 21 24  1  0  0  0  0
 21 23  1  0  0  0  0
 22 21  1  0  0  0  0
 25 26  1  0  0  0  0
 25 27  1  0  0  0  0
 25 28  1  0  0  0  0
 28 29  1  0  0  0  0
 29 31  1  0  0  0  0
 30 29  2  0  0  0  0
 31 35  1  0  0  0  0
 31 32  1  0  0  0  0
 32 33  1  0  0  0  0
 34 33  1  0  0  0  0
 35 34  1  0  0  0  0
M  END
>  <minimizedAffinity>
-5.08273602

$$$$

 OpenBabel03272507273D

 35 37  0  0  1  0  0  0  0  0999 V2000
   38.3530   22.1830   35.5800 C   0  0  0  0  0  0  0  0  0  0  0  0
   38.7460   22.9360   34.4620 C   0  0  0  0  0  0  0  0  0  0  0  0
   38.6060   24.3300   34.5230 C   0  0  0  0  0  0  0  0  0  0  0  0
   38.1080   24.8610   35.6410 N   0  0  0  0  0  0  0  0  0  0  0  0
   37.7370   24.1140   36.6990 C   0  0  0  0  0  0  0  0  0  0  0  0
   37.8630   22.7890   36.6620 N   0  0  0  0  0  0  0  0  0  0  0  0
   38.9840   25.1260   33.4280 N   0  0  0  0  0  0  0  0  0  0  0  0
   40.0280   24.7980   32.4500 C   0  0  0  0  0  0  0  0  0  0  0  0
   40.2420   26.0150   31.6150 C   0  0  0  0  0  0  0  0  0  0  0  0
   39.6530   27.0960   32.4480 C   0  0  0  0  0  0  0  0  0  0  0  0
   38.4540   26.3980   33.0290 C   0  0  2  0  0  0  0  0  0  0  0  0
   38.4360   21.1090   35.5940 H   0  0  0  0  0  0  0  0  0  0  0  0
   39.1420   22.4430   33.5890 H   0  0  0  0  0  0  0  0  0  0  0  0
   37.3460   24.6490   37.5550 H   0  0  0  0  0  0  0  0  0  0  0  0
   39.5610   24.0240   31.7890 H   0  0  0  0  0  0  0  0  0  0  0  0
   40.9230   24.4020   32.9230 H   0  0  0  0  0  0  0  0  0  0  0  0
   41.3600   26.1730   31.5820 H   0  0  0  0  0  0  0  0  0  0  0  0
   39.8500   25.9860   30.5990 H   0  0  0  0  0  0  0  0  0  0  0  0
   39.2790   27.9570   31.8350 H   0  0  0  0  0  0  0  0  0  0  0  0
   40.3360   27.4410   33.2440 H   0  0  0  0  0  0  0  0  0  0  0  0
   37.7510   27.2110   34.0640 C   0  0  0  0  0  0  0  0  0  0  0  0
   37.2660   28.3380   33.4250 F   0  0  0  0  0  0  0  0  0  0  0  0
   38.5200   27.6330   35.1100 F   0  0  0  0  0  0  0  0  0  0  0  0
   36.6400   26.4730   34.4510 F   0  0  0  0  0  0  0  0  0  0  0  0
   37.4950   26.1100   31.9400 C   0  0  0  0  0  0  0  0  0  0  0  0
   38.0700   26.1930   30.9950 H   0  0  0  0  0  0  0  0  0  0  0  0
   36.7890   26.9950   31.8800 H   0  0  0  0  0  0  0  0  0  0  0  0
   36.7990   25.1510   32.2990 O   0  0  0  0  0  0  0  0  0  0  0  0
   36.1200   24.1260   31.7420 C   0  0  0  0  0  0  0  0  0  0  0  0
   34.9530   24.5040   31.4630 O   0  0  0  0  0  0  0  0  0  0  0  0
   36.0220   22.7530   31.2710 C   0  0  0  0  0  3  0  0  0  0  0  0
   37.4400   22.2250   31.0750 C   0  0  0  0  0  2  0  0  0  0  0  0
   37.1250   20.7220   31.0520 C   0  0  0  0  0  2  0  0  0  0  0  0
   36.4000   20.6130   32.3780 C   0  0  0  0  0  2  0  0  0  0  0  0
   35.4330   21.8000   32.2880 C   0  0  0  0  0  2  0  0  0  0  0  0
  1 12  1  0  0  0  0
  1  6  1  0  0  0  0
  2  3  1  0  0  0  0
  2  1  2  0  0  0  0
  3  4  2  0  0  0  0
  4  5  1  0  0  0  0
  5 14  1  0  0  0  0
  6  5  2  0  0  0  0
  7  3  1  0  0  0  0
  8 16  1  0  0  0  0
  8  7  1  0  0  0  0
  9 10  1  0  0  0  0
  9  8  1  0  0  0  0
 10 11  1  0  0  0  0
 10 20  1  0  0  0  0
 11 25  1  6  0  0  0
 11  7  1  0  0  0  0
 11 21  1  0  0  0  0
 13  2  1  0  0  0  0
 15  8  1  0  0  0  0
 17  9  1  0  0  0  0
 18  9  1  0  0  0  0
 19 10  1  0  0  0  0
 21 24  1  0  0  0  0
 21 23  1  0  0  0  0
 22 21  1  0  0  0  0
 25 28  1  0  0  0  0
 26 25  1  0  0  0  0
 27 25  1  0  0  0  0
 29 28  1  0  0  0  0
 30 29  2  0  0  0  0
 31 29  1  0  0  0  0
 31 35  1  0  0  0  0
 32 31  1  0  0  0  0
 33 32  1  0  0  0  0
 33 34  1  0  0  0  0
 35 34  1  0  0  0  0
M  END
>  <minimizedAffinity>
-5.08150673

$$$$

 OpenBabel03272507273D

 35 37  0  0  1  0  0  0  0  0999 V2000
   36.2890   28.5530   30.6230 C   0  0  0  0  0  0  0  0  0  0  0  0
   36.5360   28.1060   31.9300 C   0  0  0  0  0  0  0  0  0  0  0  0
   37.8360   27.6830   32.2480 C   0  0  0  0  0  0  0  0  0  0  0  0
   38.7620   27.7290   31.2900 N   0  0  0  0  0  0  0  0  0  0  0  0
   38.4960   28.1620   30.0410 C   0  0  0  0  0  0  0  0  0  0  0  0
   37.2700   28.5680   29.7190 N   0  0  0  0  0  0  0  0  0  0  0  0
   38.1310   27.2260   33.5450 N   0  0  0  0  0  0  0  0  0  0  0  0
   37.4560   27.6480   34.7770 C   0  0  0  0  0  0  0  0  0  0  0  0
   38.2390   27.0910   35.9170 C   0  0  0  0  0  0  0  0  0  0  0  0
   39.5530   26.7800   35.2960 C   0  0  0  0  0  0  0  0  0  0  0  0
   39.1260   26.2740   33.9450 C   0  0  2  0  0  0  0  0  0  0  0  0
   35.3120   28.8900   30.3170 H   0  0  0  0  0  0  0  0  0  0  0  0
   35.7420   28.0950   32.6580 H   0  0  0  0  0  0  0  0  0  0  0  0
   39.3230   28.1580   29.3430 H   0  0  0  0  0  0  0  0  0  0  0  0
   36.4740   27.1110   34.7590 H   0  0  0  0  0  0  0  0  0  0  0  0
   37.2990   28.7240   34.8100 H   0  0  0  0  0  0  0  0  0  0  0  0
   38.3900   27.9480   36.6370 H   0  0  0  0  0  0  0  0  0  0  0  0
   37.7980   26.2470   36.4470 H   0  0  0  0  0  0  0  0  0  0  0  0
   40.0890   25.9440   35.8160 H   0  0  0  0  0  0  0  0  0  0  0  0
   40.2000   27.6690   35.2010 H   0  0  0  0  0  0  0  0  0  0  0  0
   40.2740   26.0410   33.0210 C   0  0  0  0  0  0  0  0  0  0  0  0
   40.9160   27.2570   32.8670 F   0  0  0  0  0  0  0  0  0  0  0  0
   39.9510   25.5890   31.7730 F   0  0  0  0  0  0  0  0  0  0  0  0
   41.1600   25.2150   33.7000 F   0  0  0  0  0  0  0  0  0  0  0  0
   38.4090   24.9920   34.1200 C   0  0  0  0  0  0  0  0  0  0  0  0
   38.0440   24.9860   35.1680 H   0  0  0  0  0  0  0  0  0  0  0  0
   39.1930   24.1740   34.1250 H   0  0  0  0  0  0  0  0  0  0  0  0
   37.7320   24.8000   33.1010 O   0  0  0  0  0  0  0  0  0  0  0  0
   37.1420   23.7720   32.4540 C   0  0  0  0  0  0  0  0  0  0  0  0
   36.3110   24.2270   31.6270 O   0  0  0  0  0  0  0  0  0  0  0  0
   36.9530   22.3540   32.1970 C   0  0  0  0  0  3  0  0  0  0  0  0
   36.7840   21.6530   33.5420 C   0  0  0  0  0  2  0  0  0  0  0  0
   36.1550   20.3450   33.0440 C   0  0  0  0  0  2  0  0  0  0  0  0
   34.9790   20.9240   32.2820 C   0  0  0  0  0  2  0  0  0  0  0  0
   35.6650   22.0310   31.4720 C   0  0  0  0  0  2  0  0  0  0  0  0
  1  2  1  0  0  0  0
  2  3  2  0  0  0  0
  2 13  1  0  0  0  0
  3  7  1  0  0  0  0
  4  3  1  0  0  0  0
  5  4  2  0  0  0  0
  6  5  1  0  0  0  0
  6  1  2  0  0  0  0
  7 11  1  0  0  0  0
  7  8  1  0  0  0  0
  8 16  1  0  0  0  0
  8  9  1  0  0  0  0
  9 18  1  0  0  0  0
  9 17  1  0  0  0  0
 10 19  1  0  0  0  0
 10  9  1  0  0  0  0
 11 21  1  6  0  0  0
 11 25  1  0  0  0  0
 11 10  1  0  0  0  0
 12  1  1  0  0  0  0
 14  5  1  0  0  0  0
 15  8  1  0  0  0  0
 20 10  1  0  0  0  0
 21 24  1  0  0  0  0
 22 21  1  0  0  0  0
 23 21  1  0  0  0  0
 25 27  1  0  0  0  0
 25 26  1  0  0  0  0
 28 25  1  0  0  0  0
 29 28  1  0  0  0  0
 30 29  2  0  0  0  0
 31 29  1  0  0  0  0
 31 32  1  0  0  0  0
 33 32  1  0  0  0  0
 34 33  1  0  0  0  0
 35 31  1  0  0  0  0
 35 34  1  0  0  0  0
M  END
>  <minimizedAffinity>
-4.98618937

$$$$
