
 OpenBabel03272507163D

 22 24  0  0  1  0  0  0  0  0999 V2000
   36.7100   31.2750   50.3470 C   0  0  1  0  0  0  0  0  0  0  0  0
   36.2210   29.9110   50.3760 C   0  0  2  0  0  0  0  0  0  0  0  0
   37.3700   30.2680   51.2970 C   0  0  0  0  0  0  0  0  0  0  0  0
   36.2320   32.1130   50.9220 H   0  0  0  0  0  0  0  0  0  0  0  0
   35.2420   29.6990   50.8230 H   0  0  0  0  0  0  0  0  0  0  0  0
   37.0940   30.3130   52.3660 H   0  0  0  0  0  0  0  0  0  0  0  0
   38.3740   29.9160   51.0810 H   0  0  0  0  0  0  0  0  0  0  0  0
   37.6580   31.7340   49.2640 C   0  0  0  0  0  0  0  0  0  0  0  0
   38.2210   32.9970   49.4560 C   0  0  0  0  0  0  0  0  0  0  0  0
   39.0780   33.4300   48.4340 C   0  0  0  0  0  0  0  0  0  0  0  0
   39.3180   32.6310   47.3360 N   0  0  0  0  0  0  0  0  0  0  0  0
   38.7320   31.4030   47.2120 C   0  0  0  0  0  0  0  0  0  0  0  0
   37.8950   30.9480   48.1840 N   0  0  0  0  0  0  0  0  0  0  0  0
   38.0060   33.5900   50.3310 H   0  0  0  0  0  0  0  0  0  0  0  0
   39.5450   34.3950   48.5210 H   0  0  0  0  0  0  0  0  0  0  0  0
   38.9670   30.8390   46.3300 H   0  0  0  0  0  0  0  0  0  0  0  0
   36.5340   29.0540   49.3120 O   0  0  0  0  0  0  0  0  0  0  0  0
   35.3300   28.5350   48.8630 C   0  0  0  0  0  3  0  0  0  0  0  0
   34.1990   28.6700   49.8630 C   0  0  0  0  0  2  0  0  0  0  0  0
   33.0320   28.2080   48.9810 C   0  0  0  0  0  2  0  0  0  0  0  0
   33.3790   28.7040   47.5760 C   0  0  0  0  0  2  0  0  0  0  0  0
   34.7590   29.3370   47.6990 C   0  0  0  0  0  2  0  0  0  0  0  0
  1  2  1  0  0  0  0
  1  4  1  1  0  0  0
  1  3  1  0  0  0  0
  2  5  1  1  0  0  0
  2  3  1  0  0  0  0
  3  6  1  0  0  0  0
  7  3  1  0  0  0  0
  8  9  1  0  0  0  0
  8  1  1  0  0  0  0
  9 14  1  0  0  0  0
 10 15  1  0  0  0  0
 10  9  2  0  0  0  0
 11 10  1  0  0  0  0
 12 11  2  0  0  0  0
 12 13  1  0  0  0  0
 13  8  2  0  0  0  0
 16 12  1  0  0  0  0
 17  2  1  0  0  0  0
 18 17  1  0  0  0  0
 18 19  1  0  0  0  0
 20 19  1  0  0  0  0
 21 22  1  0  0  0  0
 21 20  1  0  0  0  0
 22 18  1  0  0  0  0
M  END
>  <minimizedAffinity>
-5.16761684

>  <minimizedRMSD>
0.903518081

$$$$
