
 OpenBabel03262521433D

 26 28  0  0  1  0  0  0  0  0999 V2000
   38.6010   30.9800   46.5980 C   0  0  1  0  0  0  0  0  0  0  0  0
   37.3890   30.0420   46.6420 C   0  0  2  0  0  0  0  0  0  0  0  0
   36.6580   30.6750   45.4790 C   0  0  0  0  0  0  0  0  0  0  0  0
   37.6130   30.8470   44.4940 O   0  0  0  0  0  0  0  0  0  0  0  0
   38.8430   30.9390   45.0780 C   0  0  0  0  0  0  0  0  0  0  0  0
   39.4280   30.5170   47.1430 H   0  0  0  0  0  0  0  0  0  0  0  0
   37.7560   29.0240   46.4220 H   0  0  0  0  0  0  0  0  0  0  0  0
   36.3570   31.6930   45.8140 H   0  0  0  0  0  0  0  0  0  0  0  0
   35.7930   30.0720   45.1430 H   0  0  0  0  0  0  0  0  0  0  0  0
   39.5380   30.1270   44.8390 H   0  0  0  0  0  0  0  0  0  0  0  0
   39.2850   31.9190   44.7730 H   0  0  0  0  0  0  0  0  0  0  0  0
   36.6740   30.1130   47.9190 C   0  0  0  0  0  0  0  0  0  0  0  0
   37.3430   29.8380   49.1190 C   0  0  0  0  0  0  0  0  0  0  0  0
   36.5990   29.9010   50.3000 C   0  0  0  0  0  0  0  0  0  0  0  0
   35.2700   30.2250   50.2080 N   0  0  0  0  0  0  0  0  0  0  0  0
   34.6480   30.4850   49.0310 C   0  0  0  0  0  0  0  0  0  0  0  0
   35.3670   30.4270   47.8860 N   0  0  0  0  0  0  0  0  0  0  0  0
   38.3950   29.5860   49.1560 H   0  0  0  0  0  0  0  0  0  0  0  0
   37.0350   29.7050   51.2710 H   0  0  0  0  0  0  0  0  0  0  0  0
   33.5960   30.7310   49.0710 H   0  0  0  0  0  0  0  0  0  0  0  0
   38.2940   32.2620   46.8980 O   0  0  0  0  0  0  0  0  0  0  0  0
   39.1050   32.8550   47.8540 C   0  0  0  0  0  0  0  0  0  0  0  0
   38.3810   33.3690   49.0570 C   0  0  0  0  0  0  0  0  0  0  0  0
   39.4380   34.2260   49.7260 C   0  0  0  0  0  0  0  0  0  0  0  0
   40.3780   34.6530   48.6460 C   0  0  0  0  0  0  0  0  0  0  0  0
   39.8180   34.0760   47.3420 C   0  0  0  0  0  0  0  0  0  0  0  0
  1  2  1  0  0  0  0
  1 21  1  0  0  0  0
  1  6  1  1  0  0  0
  2  7  1  6  0  0  0
  2 12  1  0  0  0  0
  3  8  1  0  0  0  0
  3  2  1  0  0  0  0
  4  5  1  0  0  0  0
  4  3  1  0  0  0  0
  5  1  1  0  0  0  0
  9  3  1  0  0  0  0
 10  5  1  0  0  0  0
 11  5  1  0  0  0  0
 12 13  1  0  0  0  0
 13 18  1  0  0  0  0
 13 14  2  0  0  0  0
 14 19  1  0  0  0  0
 15 14  1  0  0  0  0
 16 20  1  0  0  0  0
 16 15  2  0  0  0  0
 17 12  2  0  0  0  0
 17 16  1  0  0  0  0
 21 22  1  0  0  0  0
 22 23  1  0  0  0  0
 23 24  1  0  0  0  0
 25 24  1  0  0  0  0
 26 22  1  0  0  0  0
 26 25  1  0  0  0  0
M  END
>  <minimizedAffinity>
-3.97873878

>  <minimizedRMSD>
1.89419401

$$$$
