
 OpenBabel03272504583D

 29 31  0  0  1  0  0  0  0  0999 V2000
   37.7870   25.2840   34.8830 C   0  0  1  0  0  0  0  0  0  0  0  0
   38.4470   26.4680   34.3850 C   0  0  0  0  0  0  0  0  0  0  0  0
   37.9700   25.4260   33.4310 C   0  0  2  0  0  0  0  0  0  0  0  0
   36.6910   25.2790   35.2110 H   0  0  0  0  0  0  0  0  0  0  0  0
   37.9530   27.3140   34.8230 H   0  0  0  0  0  0  0  0  0  0  0  0
   39.5460   26.5130   34.5490 H   0  0  0  0  0  0  0  0  0  0  0  0
   38.7790   25.1330   32.7770 H   0  0  0  0  0  0  0  0  0  0  0  0
   38.5710   24.1930   35.5600 C   0  0  0  0  0  0  0  0  0  0  0  0
   39.4120   23.4300   34.7190 C   0  0  0  0  0  0  0  0  0  0  0  0
   40.1260   22.4470   35.3580 C   0  0  0  0  0  0  0  0  0  0  0  0
   39.9980   22.2650   36.6990 N   0  0  0  0  0  0  0  0  0  0  0  0
   39.1800   23.0180   37.4690 C   0  0  0  0  0  0  0  0  0  0  0  0
   38.4480   24.0100   36.8660 N   0  0  0  0  0  0  0  0  0  0  0  0
   39.0460   22.8640   38.8550 N   0  0  0  0  0  0  0  0  0  0  0  0
   39.5180   23.5730   33.6530 H   0  0  0  0  0  0  0  0  0  0  0  0
   40.7960   21.8130   34.7970 H   0  0  0  0  0  0  0  0  0  0  0  0
   38.7090   22.0110   39.3580 H   0  0  0  0  0  0  0  0  0  0  0  0
   39.2390   23.5270   39.6520 H   0  0  0  0  0  0  0  0  0  0  0  0
   36.8030   25.7380   32.7230 O   0  0  0  0  0  0  0  0  0  0  0  0
   35.1320   24.7400   31.0340 O   0  0  0  0  0  0  0  0  0  0  0  0
   36.5350   24.6050   31.5280 P   0  0  1  0  0  0  0  0  0  0  0  0
   37.4860   25.0430   30.1360 O   0  0  0  0  0  0  0  0  0  0  0  0
   37.5000   26.0300   30.0560 H   0  0  0  0  0  0  0  0  0  0  0  0
   36.9800   23.1010   32.0410 O   0  0  0  0  0  0  0  0  0  0  0  0
   36.0590   22.1870   32.3670 C   0  0  0  0  0  3  0  0  0  0  0  0
   36.6540   21.2840   33.4320 C   0  0  0  0  0  2  0  0  0  0  0  0
   35.5120   20.3080   33.6100 C   0  0  0  0  0  2  0  0  0  0  0  0
   34.9290   20.1610   32.2310 C   0  0  0  0  0  2  0  0  0  0  0  0
   35.6280   21.1960   31.3510 C   0  0  0  0  0  2  0  0  0  0  0  0
  1  4  1  1  0  0  0
  1  8  1  0  0  0  0
  2  6  1  0  0  0  0
  2  5  1  0  0  0  0
  2  1  1  0  0  0  0
  3  7  1  6  0  0  0
  3  2  1  0  0  0  0
  3  1  1  0  0  0  0
  8 13  1  0  0  0  0
  9 10  1  0  0  0  0
  9  8  2  0  0  0  0
 10 11  2  0  0  0  0
 11 12  1  0  0  0  0
 12 14  1  0  0  0  0
 13 12  2  0  0  0  0
 14 17  1  0  0  0  0
 14 18  1  0  0  0  0
 15  9  1  0  0  0  0
 16 10  1  0  0  0  0
 19  3  1  0  0  0  0
 21 20  2  6  0  0  0
 21 24  1  0  0  0  0
 21 19  1  0  0  0  0
 22 21  1  0  0  0  0
 23 22  1  0  0  0  0
 24 25  1  0  0  0  0
 25 26  1  0  0  0  0
 26 27  1  0  0  0  0
 28 27  1  0  0  0  0
 29 28  1  0  0  0  0
 29 25  1  0  0  0  0
M  END
>  <minimizedAffinity>
-5.35538387

$$$$

 OpenBabel03272504583D

 29 31  0  0  1  0  0  0  0  0999 V2000
   36.1280   27.8650   32.1010 C   0  0  1  0  0  0  0  0  0  0  0  0
   36.2550   26.4280   32.0300 C   0  0  0  0  0  0  0  0  0  0  0  0
   37.2130   27.2180   32.8550 C   0  0  2  0  0  0  0  0  0  0  0  0
   35.3540   28.3850   32.7630 H   0  0  0  0  0  0  0  0  0  0  0  0
   35.2910   26.0140   32.2550 H   0  0  0  0  0  0  0  0  0  0  0  0
   36.6520   26.0250   31.0720 H   0  0  0  0  0  0  0  0  0  0  0  0
   38.2260   26.9640   32.5800 H   0  0  0  0  0  0  0  0  0  0  0  0
   36.5360   28.7320   30.9410 C   0  0  0  0  0  0  0  0  0  0  0  0
   36.2200   30.1030   31.0600 C   0  0  0  0  0  0  0  0  0  0  0  0
   36.6090   30.8790   29.9950 C   0  0  0  0  0  0  0  0  0  0  0  0
   37.2490   30.3180   28.9340 N   0  0  0  0  0  0  0  0  0  0  0  0
   37.5330   28.9980   28.8600 C   0  0  0  0  0  0  0  0  0  0  0  0
   37.1570   28.1910   29.9040 N   0  0  0  0  0  0  0  0  0  0  0  0
   38.2090   28.4000   27.7890 N   0  0  0  0  0  0  0  0  0  0  0  0
   35.7130   30.5530   31.9020 H   0  0  0  0  0  0  0  0  0  0  0  0
   36.4110   31.9390   29.9970 H   0  0  0  0  0  0  0  0  0  0  0  0
   37.8960   28.3740   26.7900 H   0  0  0  0  0  0  0  0  0  0  0  0
   39.1230   27.8760   27.7460 H   0  0  0  0  0  0  0  0  0  0  0  0
   37.0100   27.1640   34.2390 O   0  0  0  0  0  0  0  0  0  0  0  0
   39.5820   27.0070   34.1760 O   0  0  0  0  0  0  0  0  0  0  0  0
   38.3960   26.6330   35.0020 P   0  0  1  0  0  0  0  0  0  0  0  0
   38.6150   27.5740   36.4520 O   0  0  0  0  0  0  0  0  0  0  0  0
   38.3270   28.5050   36.2760 H   0  0  0  0  0  0  0  0  0  0  0  0
   38.2660   25.0380   35.4010 O   0  0  0  0  0  0  0  0  0  0  0  0
   38.7300   24.5830   36.5710 C   0  0  0  0  0  3  0  0  0  0  0  0
   39.4200   23.2560   36.3150 C   0  0  0  0  0  2  0  0  0  0  0  0
   39.8050   22.8880   37.7310 C   0  0  0  0  0  2  0  0  0  0  0  0
   38.6700   23.4030   38.5720 C   0  0  0  0  0  2  0  0  0  0  0  0
   37.7700   24.2130   37.6390 C   0  0  0  0  0  2  0  0  0  0  0  0
  1  4  1  1  0  0  0
  1  3  1  0  0  0  0
  2  1  1  0  0  0  0
  2  5  1  0  0  0  0
  2  3  1  0  0  0  0
  3  7  1  6  0  0  0
  3 19  1  0  0  0  0
  6  2  1  0  0  0  0
  8  9  1  0  0  0  0
  8  1  1  0  0  0  0
  9 15  1  0  0  0  0
 10 16  1  0  0  0  0
 10  9  2  0  0  0  0
 11 10  1  0  0  0  0
 12 11  2  0  0  0  0
 12 13  1  0  0  0  0
 13  8  2  0  0  0  0
 14 12  1  0  0  0  0
 17 14  1  0  0  0  0
 18 14  1  0  0  0  0
 19 21  1  0  0  0  0
 21 20  2  6  0  0  0
 21 24  1  0  0  0  0
 21 22  1  0  0  0  0
 23 22  1  0  0  0  0
 24 25  1  0  0  0  0
 25 29  1  0  0  0  0
 26 25  1  0  0  0  0
 26 27  1  0  0  0  0
 27 28  1  0  0  0  0
 29 28  1  0  0  0  0
M  END
>  <minimizedAffinity>
-5.31646013

$$$$

 OpenBabel03272504583D

 29 31  0  0  1  0  0  0  0  0999 V2000
   37.4900   26.0720   35.4660 C   0  0  1  0  0  0  0  0  0  0  0  0
   38.1960   27.3170   35.6600 C   0  0  0  0  0  0  0  0  0  0  0  0
   37.9680   26.7990   34.2800 C   0  0  2  0  0  0  0  0  0  0  0  0
   36.3510   25.9920   35.5280 H   0  0  0  0  0  0  0  0  0  0  0  0
   37.5920   27.9280   36.3010 H   0  0  0  0  0  0  0  0  0  0  0  0
   39.2340   27.2280   36.0490 H   0  0  0  0  0  0  0  0  0  0  0  0
   38.9070   26.7620   33.7450 H   0  0  0  0  0  0  0  0  0  0  0  0
   38.1550   24.7560   35.7650 C   0  0  0  0  0  0  0  0  0  0  0  0
   38.5950   24.0220   34.6420 C   0  0  0  0  0  0  0  0  0  0  0  0
   39.2080   22.8290   34.9370 C   0  0  0  0  0  0  0  0  0  0  0  0
   39.3540   22.4330   36.2300 N   0  0  0  0  0  0  0  0  0  0  0  0
   38.9180   23.1660   37.2780 C   0  0  0  0  0  0  0  0  0  0  0  0
   38.2980   24.3640   37.0220 N   0  0  0  0  0  0  0  0  0  0  0  0
   39.0750   22.7910   38.6180 N   0  0  0  0  0  0  0  0  0  0  0  0
   38.4820   24.3340   33.6130 H   0  0  0  0  0  0  0  0  0  0  0  0
   39.5780   22.1990   34.1430 H   0  0  0  0  0  0  0  0  0  0  0  0
   38.6860   21.9340   39.0760 H   0  0  0  0  0  0  0  0  0  0  0  0
   39.5840   23.2540   39.4170 H   0  0  0  0  0  0  0  0  0  0  0  0
   36.9660   27.4440   33.5470 O   0  0  0  0  0  0  0  0  0  0  0  0
   37.2540   28.9780   31.4960 O   0  0  0  0  0  0  0  0  0  0  0  0
   37.4120   27.5620   31.9440 P   0  0  1  0  0  0  0  0  0  0  0  0
   39.1320   27.3060   31.8350 O   0  0  0  0  0  0  0  0  0  0  0  0
   39.5660   27.7120   32.6270 H   0  0  0  0  0  0  0  0  0  0  0  0
   36.6330   26.4250   31.0370 O   0  0  0  0  0  0  0  0  0  0  0  0
   36.4970   25.1700   31.4800 C   0  0  0  0  0  3  0  0  0  0  0  0
   37.5290   24.3110   30.7710 C   0  0  0  0  0  2  0  0  0  0  0  0
   37.1770   22.9570   31.3440 C   0  0  0  0  0  2  0  0  0  0  0  0
   35.6810   22.9940   31.4960 C   0  0  0  0  0  2  0  0  0  0  0  0
   35.2480   24.4260   31.1870 C   0  0  0  0  0  2  0  0  0  0  0  0
  1  4  1  1  0  0  0
  1  2  1  0  0  0  0
  1  8  1  0  0  0  0
  2  6  1  0  0  0  0
  2  5  1  0  0  0  0
  3  7  1  6  0  0  0
  3  1  1  0  0  0  0
  3  2  1  0  0  0  0
  8 13  1  0  0  0  0
  9 10  1  0  0  0  0
  9  8  2  0  0  0  0
 10 11  2  0  0  0  0
 11 12  1  0  0  0  0
 12 14  1  0  0  0  0
 13 12  2  0  0  0  0
 14 17  1  0  0  0  0
 14 18  1  0  0  0  0
 15  9  1  0  0  0  0
 16 10  1  0  0  0  0
 19  3  1  0  0  0  0
 21 20  2  6  0  0  0
 21 19  1  0  0  0  0
 22 21  1  0  0  0  0
 22 23  1  0  0  0  0
 24 25  1  0  0  0  0
 24 21  1  0  0  0  0
 26 27  1  0  0  0  0
 26 25  1  0  0  0  0
 27 28  1  0  0  0  0
 29 25  1  0  0  0  0
 29 28  1  0  0  0  0
M  END
>  <minimizedAffinity>
-5.26983643

$$$$

 OpenBabel03272504583D

 29 31  0  0  1  0  0  0  0  0999 V2000
   38.4340   26.2190   34.6740 C   0  0  1  0  0  0  0  0  0  0  0  0
   38.3210   26.7310   36.0190 C   0  0  0  0  0  0  0  0  0  0  0  0
   37.9580   25.3140   35.7310 C   0  0  2  0  0  0  0  0  0  0  0  0
   39.4340   25.9050   34.2150 H   0  0  0  0  0  0  0  0  0  0  0  0
   39.2580   27.1920   36.2630 H   0  0  0  0  0  0  0  0  0  0  0  0
   37.4710   27.4250   36.2020 H   0  0  0  0  0  0  0  0  0  0  0  0
   36.9660   25.1080   36.1070 H   0  0  0  0  0  0  0  0  0  0  0  0
   37.4370   26.6060   33.6160 C   0  0  0  0  0  0  0  0  0  0  0  0
   36.9010   27.9080   33.7260 C   0  0  0  0  0  0  0  0  0  0  0  0
   36.0000   28.2450   32.7460 C   0  0  0  0  0  0  0  0  0  0  0  0
   35.6860   27.3560   31.7660 N   0  0  0  0  0  0  0  0  0  0  0  0
   36.2230   26.1170   31.6960 C   0  0  0  0  0  0  0  0  0  0  0  0
   37.1250   25.7430   32.6610 N   0  0  0  0  0  0  0  0  0  0  0  0
   35.9320   25.1910   30.6870 N   0  0  0  0  0  0  0  0  0  0  0  0
   37.1490   28.6180   34.5020 H   0  0  0  0  0  0  0  0  0  0  0  0
   35.5380   29.2210   32.7470 H   0  0  0  0  0  0  0  0  0  0  0  0
   34.9940   24.7810   30.4680 H   0  0  0  0  0  0  0  0  0  0  0  0
   36.5480   24.7280   29.9670 H   0  0  0  0  0  0  0  0  0  0  0  0
   38.8900   24.3530   36.1400 O   0  0  0  0  0  0  0  0  0  0  0  0
   39.4180   21.8360   35.9650 O   0  0  0  0  0  0  0  0  0  0  0  0
   38.3000   22.8200   35.8490 P   0  0  1  0  0  0  0  0  0  0  0  0
   37.2510   22.3780   37.1670 O   0  0  0  0  0  0  0  0  0  0  0  0
   37.6220   22.7460   38.0090 H   0  0  0  0  0  0  0  0  0  0  0  0
   37.4480   22.7820   34.4370 O   0  0  0  0  0  0  0  0  0  0  0  0
   37.0890   21.6180   33.8820 C   0  0  0  0  0  3  0  0  0  0  0  0
   36.6790   21.8920   32.4470 C   0  0  0  0  0  2  0  0  0  0  0  0
   36.2590   20.5010   32.0280 C   0  0  0  0  0  2  0  0  0  0  0  0
   35.6390   19.9110   33.2650 C   0  0  0  0  0  2  0  0  0  0  0  0
   35.8950   20.9050   34.3970 C   0  0  0  0  0  2  0  0  0  0  0  0
  1  4  1  6  0  0  0
  1  3  1  0  0  0  0
  1  2  1  0  0  0  0
  2  6  1  0  0  0  0
  2  5  1  0  0  0  0
  3  2  1  0  0  0  0
  3  7  1  1  0  0  0
  3 19  1  0  0  0  0
  8  9  1  0  0  0  0
  8  1  1  0  0  0  0
  9 15  1  0  0  0  0
 10 16  1  0  0  0  0
 10  9  2  0  0  0  0
 11 10  1  0  0  0  0
 12 11  2  0  0  0  0
 12 13  1  0  0  0  0
 13  8  2  0  0  0  0
 14 12  1  0  0  0  0
 17 14  1  0  0  0  0
 18 14  1  0  0  0  0
 21 20  2  6  0  0  0
 21 19  1  0  0  0  0
 21 22  1  0  0  0  0
 22 23  1  0  0  0  0
 24 21  1  0  0  0  0
 25 29  1  0  0  0  0
 25 24  1  0  0  0  0
 26 25  1  0  0  0  0
 27 26  1  0  0  0  0
 27 28  1  0  0  0  0
 28 29  1  0  0  0  0
M  END
>  <minimizedAffinity>
-5.11131668

$$$$

 OpenBabel03272504583D

 29 31  0  0  1  0  0  0  0  0999 V2000
   36.8070   23.1350   31.4680 C   0  0  1  0  0  0  0  0  0  0  0  0
   35.9280   24.2330   31.1390 C   0  0  0  0  0  0  0  0  0  0  0  0
   36.7860   24.3070   32.3560 C   0  0  2  0  0  0  0  0  0  0  0  0
   37.8120   22.9720   30.9460 H   0  0  0  0  0  0  0  0  0  0  0  0
   36.1170   24.4950   30.1160 H   0  0  0  0  0  0  0  0  0  0  0  0
   34.8450   24.0530   31.3150 H   0  0  0  0  0  0  0  0  0  0  0  0
   36.1770   24.5440   33.2170 H   0  0  0  0  0  0  0  0  0  0  0  0
   36.2590   21.8520   32.0280 C   0  0  0  0  0  0  0  0  0  0  0  0
   35.9390   20.8550   31.0800 C   0  0  0  0  0  0  0  0  0  0  0  0
   35.4500   19.6880   31.6130 C   0  0  0  0  0  0  0  0  0  0  0  0
   35.3060   19.5540   32.9590 N   0  0  0  0  0  0  0  0  0  0  0  0
   35.6250   20.5340   33.8340 C   0  0  0  0  0  0  0  0  0  0  0  0
   36.1150   21.7170   33.3380 N   0  0  0  0  0  0  0  0  0  0  0  0
   35.5060   20.4140   35.2240 N   0  0  0  0  0  0  0  0  0  0  0  0
   36.0530   20.9570   30.0100 H   0  0  0  0  0  0  0  0  0  0  0  0
   35.1790   18.8690   30.9650 H   0  0  0  0  0  0  0  0  0  0  0  0
   34.6260   20.2400   35.7620 H   0  0  0  0  0  0  0  0  0  0  0  0
   36.2260   20.4680   35.9930 H   0  0  0  0  0  0  0  0  0  0  0  0
   37.9100   25.1350   32.2590 O   0  0  0  0  0  0  0  0  0  0  0  0
   40.0920   25.4180   33.6010 O   0  0  0  0  0  0  0  0  0  0  0  0
   38.6090   25.3360   33.7600 P   0  0  1  0  0  0  0  0  0  0  0  0
   38.1900   26.9200   34.3510 O   0  0  0  0  0  0  0  0  0  0  0  0
   38.1760   27.5520   33.5890 H   0  0  0  0  0  0  0  0  0  0  0  0
   38.0570   24.1950   34.8160 O   0  0  0  0  0  0  0  0  0  0  0  0
   38.5450   24.1190   36.0600 C   0  0  0  0  0  3  0  0  0  0  0  0
   39.2670   22.7900   36.1970 C   0  0  0  0  0  2  0  0  0  0  0  0
   39.6760   22.8670   37.6500 C   0  0  0  0  0  2  0  0  0  0  0  0
   38.5370   23.5840   38.3210 C   0  0  0  0  0  2  0  0  0  0  0  0
   37.6060   24.0610   37.2070 C   0  0  0  0  0  2  0  0  0  0  0  0
  1  4  1  6  0  0  0
  1  8  1  0  0  0  0
  1  3  1  0  0  0  0
  2  6  1  0  0  0  0
  2  1  1  0  0  0  0
  2  3  1  0  0  0  0
  3  7  1  1  0  0  0
  5  2  1  0  0  0  0
  8 13  1  0  0  0  0
  9 10  1  0  0  0  0
  9  8  2  0  0  0  0
 10 11  2  0  0  0  0
 11 12  1  0  0  0  0
 12 14  1  0  0  0  0
 13 12  2  0  0  0  0
 14 17  1  0  0  0  0
 14 18  1  0  0  0  0
 15  9  1  0  0  0  0
 16 10  1  0  0  0  0
 19  3  1  0  0  0  0
 19 21  1  0  0  0  0
 21 20  2  6  0  0  0
 21 22  1  0  0  0  0
 21 24  1  0  0  0  0
 23 22  1  0  0  0  0
 24 25  1  0  0  0  0
 25 26  1  0  0  0  0
 25 29  1  0  0  0  0
 26 27  1  0  0  0  0
 27 28  1  0  0  0  0
 29 28  1  0  0  0  0
M  END
>  <minimizedAffinity>
-5.07867575

$$$$

 OpenBabel03272504583D

 29 31  0  0  1  0  0  0  0  0999 V2000
   38.6570   23.3210   36.6270 C   0  0  1  0  0  0  0  0  0  0  0  0
   38.0470   23.7330   37.8690 C   0  0  0  0  0  0  0  0  0  0  0  0
   38.4110   24.7540   36.8450 C   0  0  2  0  0  0  0  0  0  0  0  0
   38.0550   22.8770   35.7610 H   0  0  0  0  0  0  0  0  0  0  0  0
   37.1640   23.1390   38.0020 H   0  0  0  0  0  0  0  0  0  0  0  0
   38.7020   23.6870   38.7670 H   0  0  0  0  0  0  0  0  0  0  0  0
   39.0170   25.5260   37.2990 H   0  0  0  0  0  0  0  0  0  0  0  0
   40.0950   22.8810   36.5840 C   0  0  0  0  0  0  0  0  0  0  0  0
   40.9460   23.6460   35.7560 C   0  0  0  0  0  0  0  0  0  0  0  0
   42.2550   23.2340   35.7390 C   0  0  0  0  0  0  0  0  0  0  0  0
   42.6500   22.1660   36.4820 N   0  0  0  0  0  0  0  0  0  0  0  0
   41.8020   21.4590   37.2630 C   0  0  0  0  0  0  0  0  0  0  0  0
   40.4840   21.8400   37.3040 N   0  0  0  0  0  0  0  0  0  0  0  0
   42.1870   20.3690   38.0540 N   0  0  0  0  0  0  0  0  0  0  0  0
   40.6360   24.4960   35.1650 H   0  0  0  0  0  0  0  0  0  0  0  0
   42.9800   23.7580   35.1350 H   0  0  0  0  0  0  0  0  0  0  0  0
   42.6020   19.4700   37.7170 H   0  0  0  0  0  0  0  0  0  0  0  0
   42.1490   20.2160   39.0970 H   0  0  0  0  0  0  0  0  0  0  0  0
   37.3440   25.2830   36.1080 O   0  0  0  0  0  0  0  0  0  0  0  0
   36.7070   27.4480   34.8650 O   0  0  0  0  0  0  0  0  0  0  0  0
   37.8690   26.5620   35.1750 P   0  0  1  0  0  0  0  0  0  0  0  0
   38.8840   27.5780   36.1620 O   0  0  0  0  0  0  0  0  0  0  0  0
   38.5200   27.5960   37.0830 H   0  0  0  0  0  0  0  0  0  0  0  0
   38.7330   26.0220   33.8790 O   0  0  0  0  0  0  0  0  0  0  0  0
   38.1280   25.3910   32.8660 C   0  0  0  0  0  3  0  0  0  0  0  0
   38.4520   23.9120   32.9780 C   0  0  0  0  0  2  0  0  0  0  0  0
   37.7500   23.3990   31.7400 C   0  0  0  0  0  2  0  0  0  0  0  0
   37.9260   24.4990   30.7300 C   0  0  0  0  0  2  0  0  0  0  0  0
   38.5520   25.6780   31.4740 C   0  0  0  0  0  2  0  0  0  0  0  0
  1  4  1  6  0  0  0
  1  3  1  0  0  0  0
  1  2  1  0  0  0  0
  2  5  1  0  0  0  0
  2  6  1  0  0  0  0
  3  7  1  1  0  0  0
  3  2  1  0  0  0  0
  8  1  1  0  0  0  0
  8 13  1  0  0  0  0
  9  8  2  0  0  0  0
 10  9  1  0  0  0  0
 10 11  2  0  0  0  0
 11 12  1  0  0  0  0
 12 13  2  0  0  0  0
 12 14  1  0  0  0  0
 14 18  1  0  0  0  0
 15  9  1  0  0  0  0
 16 10  1  0  0  0  0
 17 14  1  0  0  0  0
 19  3  1  0  0  0  0
 21 20  2  6  0  0  0
 21 19  1  0  0  0  0
 21 22  1  0  0  0  0
 22 23  1  0  0  0  0
 24 21  1  0  0  0  0
 25 26  1  0  0  0  0
 25 24  1  0  0  0  0
 27 26  1  0  0  0  0
 28 29  1  0  0  0  0
 28 27  1  0  0  0  0
 29 25  1  0  0  0  0
M  END
>  <minimizedAffinity>
-4.95737314

$$$$

 OpenBabel03272504583D

 29 31  0  0  1  0  0  0  0  0999 V2000
   38.8510   22.9100   36.0620 C   0  0  1  0  0  0  0  0  0  0  0  0
   39.9810   22.2560   36.6790 C   0  0  0  0  0  0  0  0  0  0  0  0
   40.0620   22.6940   35.2560 C   0  0  2  0  0  0  0  0  0  0  0  0
   38.6050   24.0140   36.2360 H   0  0  0  0  0  0  0  0  0  0  0  0
   40.1830   22.7720   37.5970 H   0  0  0  0  0  0  0  0  0  0  0  0
   39.8720   21.1620   36.8470 H   0  0  0  0  0  0  0  0  0  0  0  0
   40.3740   21.8650   34.6370 H   0  0  0  0  0  0  0  0  0  0  0  0
   37.6290   22.1270   35.6680 C   0  0  0  0  0  0  0  0  0  0  0  0
   37.5220   21.8050   34.2960 C   0  0  0  0  0  0  0  0  0  0  0  0
   36.4050   21.0810   33.9600 C   0  0  0  0  0  0  0  0  0  0  0  0
   35.5030   20.7260   34.9130 N   0  0  0  0  0  0  0  0  0  0  0  0
   35.6420   21.0540   36.2180 C   0  0  0  0  0  0  0  0  0  0  0  0
   36.7460   21.7790   36.5920 N   0  0  0  0  0  0  0  0  0  0  0  0
   34.7400   20.6820   37.2210 N   0  0  0  0  0  0  0  0  0  0  0  0
   38.2370   22.0850   33.5360 H   0  0  0  0  0  0  0  0  0  0  0  0
   36.2380   20.7890   32.9340 H   0  0  0  0  0  0  0  0  0  0  0  0
   33.7280   20.9450   37.2800 H   0  0  0  0  0  0  0  0  0  0  0  0
   34.8640   20.0950   38.0880 H   0  0  0  0  0  0  0  0  0  0  0  0
   40.8190   23.8480   35.0170 O   0  0  0  0  0  0  0  0  0  0  0  0
   41.9510   24.9560   32.9850 O   0  0  0  0  0  0  0  0  0  0  0  0
   40.6780   24.3070   33.4200 P   0  0  1  0  0  0  0  0  0  0  0  0
   40.6180   22.8670   32.4410 O   0  0  0  0  0  0  0  0  0  0  0  0
   41.2200   22.1860   32.8350 H   0  0  0  0  0  0  0  0  0  0  0  0
   39.3020   25.1840   33.1840 O   0  0  0  0  0  0  0  0  0  0  0  0
   38.7200   25.8330   34.2000 C   0  0  0  0  0  3  0  0  0  0  0  0
   37.5750   26.6530   33.6350 C   0  0  0  0  0  2  0  0  0  0  0  0
   37.1020   27.3420   34.8960 C   0  0  0  0  0  2  0  0  0  0  0  0
   38.3620   27.5890   35.6790 C   0  0  0  0  0  2  0  0  0  0  0  0
   39.4860   26.8690   34.9350 C   0  0  0  0  0  2  0  0  0  0  0  0
  1  4  1  1  0  0  0
  1  2  1  0  0  0  0
  2  6  1  0  0  0  0
  2  5  1  0  0  0  0
  3  7  1  6  0  0  0
  3  1  1  0  0  0  0
  3  2  1  0  0  0  0
  8  1  1  0  0  0  0
  8 13  1  0  0  0  0
  9  8  2  0  0  0  0
 10  9  1  0  0  0  0
 10 11  2  0  0  0  0
 11 12  1  0  0  0  0
 12 13  2  0  0  0  0
 12 14  1  0  0  0  0
 14 17  1  0  0  0  0
 14 18  1  0  0  0  0
 15  9  1  0  0  0  0
 16 10  1  0  0  0  0
 19  3  1  0  0  0  0
 21 20  2  6  0  0  0
 21 19  1  0  0  0  0
 22 23  1  0  0  0  0
 22 21  1  0  0  0  0
 24 21  1  0  0  0  0
 24 25  1  0  0  0  0
 25 29  1  0  0  0  0
 26 25  1  0  0  0  0
 26 27  1  0  0  0  0
 27 28  1  0  0  0  0
 29 28  1  0  0  0  0
M  END
>  <minimizedAffinity>
-4.92087555

$$$$

 OpenBabel03272504583D

 29 31  0  0  1  0  0  0  0  0999 V2000
   37.7250   27.4370   34.9630 C   0  0  1  0  0  0  0  0  0  0  0  0
   37.6940   26.0740   35.4390 C   0  0  0  0  0  0  0  0  0  0  0  0
   38.8120   26.5300   34.5650 C   0  0  2  0  0  0  0  0  0  0  0  0
   38.0710   28.3110   35.6160 H   0  0  0  0  0  0  0  0  0  0  0  0
   37.5590   26.1130   36.5030 H   0  0  0  0  0  0  0  0  0  0  0  0
   36.9390   25.4130   34.9610 H   0  0  0  0  0  0  0  0  0  0  0  0
   38.9150   25.8580   33.7240 H   0  0  0  0  0  0  0  0  0  0  0  0
   36.7920   27.8940   33.8750 C   0  0  0  0  0  0  0  0  0  0  0  0
   35.8680   28.8970   34.2410 C   0  0  0  0  0  0  0  0  0  0  0  0
   35.0330   29.3070   33.2310 C   0  0  0  0  0  0  0  0  0  0  0  0
   35.1320   28.7570   31.9910 N   0  0  0  0  0  0  0  0  0  0  0  0
   36.0330   27.7970   31.6820 C   0  0  0  0  0  0  0  0  0  0  0  0
   36.8830   27.3600   32.6660 N   0  0  0  0  0  0  0  0  0  0  0  0
   36.1700   27.2300   30.4080 N   0  0  0  0  0  0  0  0  0  0  0  0
   35.7860   29.3370   35.2240 H   0  0  0  0  0  0  0  0  0  0  0  0
   34.2930   30.0710   33.4160 H   0  0  0  0  0  0  0  0  0  0  0  0
   35.4410   26.6940   29.8830 H   0  0  0  0  0  0  0  0  0  0  0  0
   36.9820   27.2140   29.7360 H   0  0  0  0  0  0  0  0  0  0  0  0
   40.0330   26.7620   35.2090 O   0  0  0  0  0  0  0  0  0  0  0  0
   40.8750   26.2040   32.8380 O   0  0  0  0  0  0  0  0  0  0  0  0
   41.2940   26.2010   34.2720 P   0  0  1  0  0  0  0  0  0  0  0  0
   42.5720   27.3850   34.3100 O   0  0  0  0  0  0  0  0  0  0  0  0
   42.1690   28.2900   34.3230 H   0  0  0  0  0  0  0  0  0  0  0  0
   41.8610   24.7670   34.8570 O   0  0  0  0  0  0  0  0  0  0  0  0
   41.1120   24.0130   35.6700 C   0  0  0  0  0  3  0  0  0  0  0  0
   42.0410   23.0980   36.4460 C   0  0  0  0  0  2  0  0  0  0  0  0
   41.0240   22.3060   37.2370 C   0  0  0  0  0  2  0  0  0  0  0  0
   39.8540   22.1650   36.3020 C   0  0  0  0  0  2  0  0  0  0  0  0
   40.1600   23.0370   35.0860 C   0  0  0  0  0  2  0  0  0  0  0  0
  1  2  1  0  0  0  0
  1  4  1  1  0  0  0
  2  5  1  0  0  0  0
  3  7  1  6  0  0  0
  3  1  1  0  0  0  0
  3 19  1  0  0  0  0
  3  2  1  0  0  0  0
  6  2  1  0  0  0  0
  8  9  1  0  0  0  0
  8  1  1  0  0  0  0
  9 15  1  0  0  0  0
 10 16  1  0  0  0  0
 10  9  2  0  0  0  0
 11 10  1  0  0  0  0
 12 11  2  0  0  0  0
 12 13  1  0  0  0  0
 13  8  2  0  0  0  0
 14 12  1  0  0  0  0
 17 14  1  0  0  0  0
 18 14  1  0  0  0  0
 21 20  2  6  0  0  0
 21 22  1  0  0  0  0
 21 24  1  0  0  0  0
 21 19  1  0  0  0  0
 22 23  1  0  0  0  0
 24 25  1  0  0  0  0
 25 26  1  0  0  0  0
 26 27  1  0  0  0  0
 28 27  1  0  0  0  0
 29 25  1  0  0  0  0
 29 28  1  0  0  0  0
M  END
>  <minimizedAffinity>
-4.91604948

$$$$

 OpenBabel03272504583D

 29 31  0  0  1  0  0  0  0  0999 V2000
   37.8130   26.0680   35.6300 C   0  0  1  0  0  0  0  0  0  0  0  0
   38.3710   27.3990   35.6680 C   0  0  0  0  0  0  0  0  0  0  0  0
   38.2870   26.6660   34.3730 C   0  0  2  0  0  0  0  0  0  0  0  0
   36.6860   25.8690   35.6480 H   0  0  0  0  0  0  0  0  0  0  0  0
   37.6650   28.0230   36.1810 H   0  0  0  0  0  0  0  0  0  0  0  0
   39.3850   27.4850   36.1160 H   0  0  0  0  0  0  0  0  0  0  0  0
   39.2560   26.6590   33.8950 H   0  0  0  0  0  0  0  0  0  0  0  0
   38.5910   24.8920   36.1540 C   0  0  0  0  0  0  0  0  0  0  0  0
   39.7140   24.5080   35.3870 C   0  0  0  0  0  0  0  0  0  0  0  0
   40.4160   23.4400   35.8880 C   0  0  0  0  0  0  0  0  0  0  0  0
   40.0190   22.8350   37.0390 N   0  0  0  0  0  0  0  0  0  0  0  0
   38.9360   23.2340   37.7450 C   0  0  0  0  0  0  0  0  0  0  0  0
   38.2070   24.2970   37.2740 N   0  0  0  0  0  0  0  0  0  0  0  0
   38.5180   22.6420   38.9430 N   0  0  0  0  0  0  0  0  0  0  0  0
   40.0340   24.9870   34.4730 H   0  0  0  0  0  0  0  0  0  0  0  0
   41.2900   23.0760   35.3700 H   0  0  0  0  0  0  0  0  0  0  0  0
   38.2200   21.6480   39.0770 H   0  0  0  0  0  0  0  0  0  0  0  0
   38.4140   23.0350   39.9160 H   0  0  0  0  0  0  0  0  0  0  0  0
   37.2710   27.0810   33.5040 O   0  0  0  0  0  0  0  0  0  0  0  0
   38.4980   25.2740   32.1360 O   0  0  0  0  0  0  0  0  0  0  0  0
   37.4000   26.2820   32.0450 P   0  0  1  0  0  0  0  0  0  0  0  0
   35.9790   25.2950   31.8360 O   0  0  0  0  0  0  0  0  0  0  0  0
   35.7100   24.9310   32.7170 H   0  0  0  0  0  0  0  0  0  0  0  0
   37.5050   27.3570   30.7990 O   0  0  0  0  0  0  0  0  0  0  0  0
   37.3560   28.6700   31.0110 C   0  0  0  0  0  3  0  0  0  0  0  0
   35.8720   28.9510   31.1690 C   0  0  0  0  0  2  0  0  0  0  0  0
   35.9090   30.4540   31.3290 C   0  0  0  0  0  2  0  0  0  0  0  0
   37.0330   30.8970   30.4330 C   0  0  0  0  0  2  0  0  0  0  0  0
   37.7220   29.6260   29.9380 C   0  0  0  0  0  2  0  0  0  0  0  0
  1  4  1  1  0  0  0
  1  2  1  0  0  0  0
  1  8  1  0  0  0  0
  2  6  1  0  0  0  0
  2  5  1  0  0  0  0
  3  7  1  6  0  0  0
  3  1  1  0  0  0  0
  3  2  1  0  0  0  0
  8 13  1  0  0  0  0
  9 10  1  0  0  0  0
  9  8  2  0  0  0  0
 10 11  2  0  0  0  0
 11 12  1  0  0  0  0
 12 14  1  0  0  0  0
 13 12  2  0  0  0  0
 14 17  1  0  0  0  0
 14 18  1  0  0  0  0
 15  9  1  0  0  0  0
 16 10  1  0  0  0  0
 19  3  1  0  0  0  0
 21 20  2  1  0  0  0
 21 19  1  0  0  0  0
 22 21  1  0  0  0  0
 22 23  1  0  0  0  0
 24 25  1  0  0  0  0
 24 21  1  0  0  0  0
 25 26  1  0  0  0  0
 26 27  1  0  0  0  0
 28 27  1  0  0  0  0
 29 28  1  0  0  0  0
 29 25  1  0  0  0  0
M  END
>  <minimizedAffinity>
-4.90568781

$$$$
