
 OpenBabel03272508023D

 24 26  0  0  0  0  0  0  0  0999 V2000
   37.7710   30.7350   46.6320 C   0  0  0  0  0  0  0  0  0  0  0  0
   38.0220   30.9850   48.0070 C   0  0  0  0  0  0  0  0  0  0  0  0
   36.9580   30.8620   48.8960 C   0  0  0  0  0  0  0  0  0  0  0  0
   35.7300   30.5100   48.3980 N   0  0  0  0  0  0  0  0  0  0  0  0
   35.5230   30.2810   47.0910 C   0  0  0  0  0  0  0  0  0  0  0  0
   36.5530   30.3980   46.2180 N   0  0  0  0  0  0  0  0  0  0  0  0
   38.9900   31.2570   48.3650 H   0  0  0  0  0  0  0  0  0  0  0  0
   34.5260   30.0040   46.7480 H   0  0  0  0  0  0  0  0  0  0  0  0
   38.8870   30.8640   45.7040 C   0  0  0  0  0  0  0  0  0  0  0  0
   39.9630   31.7000   45.7970 C   0  0  0  0  0  0  0  0  0  0  0  0
   40.8070   31.5140   44.7010 C   0  0  0  0  0  0  0  0  0  0  0  0
   40.1880   30.5420   43.9660 N   0  0  0  0  0  0  0  0  0  0  0  0
   39.0750   30.1840   44.5720 N   0  0  0  0  0  0  0  0  0  0  0  0
   40.1780   32.4240   46.5880 H   0  0  0  0  0  0  0  0  0  0  0  0
   41.7380   31.9990   44.4510 H   0  0  0  0  0  0  0  0  0  0  0  0
   40.7480   30.0340   42.7050 C   0  0  0  0  0  3  0  0  0  0  0  0
   40.3770   30.9420   41.5550 C   0  0  0  0  0  2  0  0  0  0  0  0
   39.0180   30.3530   41.1570 C   0  0  0  0  0  2  0  0  0  0  0  0
   39.4000   28.8850   41.0650 C   0  0  0  0  0  2  0  0  0  0  0  0
   40.2000   28.6870   42.3280 C   0  0  0  0  0  2  0  0  0  0  0  0
   37.2010   31.1190   50.3460 C   0  0  0  0  0  0  0  0  0  0  0  0
   36.6840   32.3820   50.5920 F   0  0  0  0  0  0  0  0  0  0  0  0
   36.5490   30.2210   51.1630 F   0  0  0  0  0  0  0  0  0  0  0  0
   38.5440   31.1490   50.6500 F   0  0  0  0  0  0  0  0  0  0  0  0
  1  2  1  0  0  0  0
  2  7  1  0  0  0  0
  2  3  2  0  0  0  0
  3 21  1  0  0  0  0
  4  3  1  0  0  0  0
  5  4  2  0  0  0  0
  6  1  2  0  0  0  0
  6  5  1  0  0  0  0
  8  5  1  0  0  0  0
  9 10  1  0  0  0  0
  9  1  1  0  0  0  0
 10 14  1  0  0  0  0
 11 10  2  0  0  0  0
 12 13  1  0  0  0  0
 12 11  1  0  0  0  0
 13  9  2  0  0  0  0
 15 11  1  0  0  0  0
 16 12  1  0  0  0  0
 17 16  1  0  0  0  0
 18 17  1  0  0  0  0
 19 18  1  0  0  0  0
 19 20  1  0  0  0  0
 20 16  1  0  0  0  0
 21 22  1  0  0  0  0
 21 24  1  0  0  0  0
 21 23  1  0  0  0  0
M  END
>  <minimizedAffinity>
-5.74819088

>  <minimizedRMSD>
0.811936796

$$$$
