
 OpenBabel03272503493D

 33 35  0  0  1  0  0  0  0  0999 V2000
   33.1460   27.3280   45.8700 C   0  0  1  0  0  0  0  0  0  0  0  0
   33.9190   27.4700   47.2000 C   0  0  2  0  0  0  0  0  0  0  0  0
   33.7930   26.2390   47.7640 O   0  0  0  0  0  0  0  0  0  0  0  0
   34.0680   25.3560   46.7330 C   0  0  0  0  0  0  0  0  0  0  0  0
   33.5070   25.9440   45.4580 C   0  0  2  0  0  0  0  0  0  0  0  0
   33.5540   28.0630   45.1440 H   0  0  0  0  0  0  0  0  0  0  0  0
   34.9470   27.7730   46.8960 H   0  0  0  0  0  0  0  0  0  0  0  0
   35.1410   25.0850   46.6650 H   0  0  0  0  0  0  0  0  0  0  0  0
   33.5160   24.4180   46.9580 H   0  0  0  0  0  0  0  0  0  0  0  0
   32.6710   25.3360   45.0590 H   0  0  0  0  0  0  0  0  0  0  0  0
   31.7950   27.5350   46.0710 O   0  0  0  0  0  0  0  0  0  0  0  0
   31.4380   28.1210   45.3410 H   0  0  0  0  0  0  0  0  0  0  0  0
   33.3160   28.5130   47.8390 O   0  0  0  0  0  0  0  0  0  0  0  0
   35.3480   29.8220   46.7770 O   0  0  0  0  0  0  0  0  0  0  0  0
   34.0910   29.9910   47.6160 P   0  0  1  0  0  0  0  0  0  0  0  0
   33.1000   31.0400   46.7290 O   0  0  0  0  0  0  0  0  0  0  0  0
   32.2670   31.2270   47.2260 H   0  0  0  0  0  0  0  0  0  0  0  0
   34.4050   30.6250   49.1660 O   0  0  0  0  0  0  0  0  0  0  0  0
   35.6310   30.5080   49.7820 C   0  0  0  0  0  0  0  0  0  0  0  0
   35.9590   29.4890   50.7050 C   0  0  0  0  0  0  0  0  0  0  0  0
   37.2400   29.4970   51.2490 C   0  0  0  0  0  0  0  0  0  0  0  0
   38.1060   30.4800   50.8640 N   0  0  0  0  0  0  0  0  0  0  0  0
   37.7580   31.4470   49.9710 C   0  0  0  0  0  0  0  0  0  0  0  0
   36.5090   31.4570   49.4280 N   0  0  0  0  0  0  0  0  0  0  0  0
   35.1930   28.7610   50.9360 H   0  0  0  0  0  0  0  0  0  0  0  0
   37.5020   28.7260   51.9520 H   0  0  0  0  0  0  0  0  0  0  0  0
   38.4810   32.1980   49.7030 H   0  0  0  0  0  0  0  0  0  0  0  0
   34.5020   25.9760   44.4810 O   0  0  0  0  0  0  0  0  0  0  0  0
   34.0340   25.6180   43.2230 C   0  0  0  0  0  3  0  0  0  0  0  0
   35.1160   24.9130   42.4500 C   0  0  0  0  0  2  0  0  0  0  0  0
   34.6240   23.5370   42.1420 C   0  0  0  0  0  2  0  0  0  0  0  0
   33.1530   23.4820   42.4570 C   0  0  0  0  0  2  0  0  0  0  0  0
   32.8500   24.6930   43.2930 C   0  0  0  0  0  2  0  0  0  0  0  0
  1  6  1  6  0  0  0
  1 11  1  0  0  0  0
  1  2  1  0  0  0  0
  2  7  1  6  0  0  0
  2  3  1  0  0  0  0
  2 13  1  0  0  0  0
  4  9  1  0  0  0  0
  4  3  1  0  0  0  0
  5 10  1  6  0  0  0
  5  1  1  0  0  0  0
  5  4  1  0  0  0  0
  8  4  1  0  0  0  0
 12 11  1  0  0  0  0
 15 14  2  6  0  0  0
 15 13  1  0  0  0  0
 15 18  1  0  0  0  0
 16 17  1  0  0  0  0
 16 15  1  0  0  0  0
 18 19  1  0  0  0  0
 19 20  1  0  0  0  0
 20 25  1  0  0  0  0
 20 21  2  0  0  0  0
 21 26  1  0  0  0  0
 22 21  1  0  0  0  0
 23 22  2  0  0  0  0
 24 19  2  0  0  0  0
 24 23  1  0  0  0  0
 27 23  1  0  0  0  0
 28  5  1  0  0  0  0
 29 33  1  0  0  0  0
 29 28  1  0  0  0  0
 30 29  1  0  0  0  0
 31 30  1  0  0  0  0
 31 32  1  0  0  0  0
 32 33  1  0  0  0  0
M  END
>  <minimizedAffinity>
-3.91119409

>  <minimizedRMSD>
0.31110248

$$$$
