
 OpenBabel03272507273D

 35 37  0  0  1  0  0  0  0  0999 V2000
   36.9100   29.4630   50.0880 C   0  0  0  0  0  0  0  0  0  0  0  0
   37.7510   30.1460   49.1960 C   0  0  0  0  0  0  0  0  0  0  0  0
   37.2450   30.4660   47.9270 C   0  0  0  0  0  0  0  0  0  0  0  0
   35.9950   30.1010   47.6400 N   0  0  0  0  0  0  0  0  0  0  0  0
   35.2090   29.4440   48.5170 C   0  0  0  0  0  0  0  0  0  0  0  0
   35.6700   29.1320   49.7270 N   0  0  0  0  0  0  0  0  0  0  0  0
   38.0510   31.1480   46.9990 N   0  0  0  0  0  0  0  0  0  0  0  0
   39.1320   32.0840   47.3260 C   0  0  0  0  0  0  0  0  0  0  0  0
   39.5490   32.7340   46.0500 C   0  0  0  0  0  0  0  0  0  0  0  0
   38.3900   32.4810   45.1550 C   0  0  0  0  0  0  0  0  0  0  0  0
   38.0010   31.0870   45.5660 C   0  0  2  0  0  0  0  0  0  0  0  0
   37.2400   29.1890   51.0770 H   0  0  0  0  0  0  0  0  0  0  0  0
   38.7530   30.4120   49.4910 H   0  0  0  0  0  0  0  0  0  0  0  0
   34.2110   29.1980   48.1800 H   0  0  0  0  0  0  0  0  0  0  0  0
   39.9790   31.4320   47.6550 H   0  0  0  0  0  0  0  0  0  0  0  0
   38.8520   32.7710   48.1210 H   0  0  0  0  0  0  0  0  0  0  0  0
   39.5850   33.8430   46.2660 H   0  0  0  0  0  0  0  0  0  0  0  0
   40.5020   32.4160   45.6290 H   0  0  0  0  0  0  0  0  0  0  0  0
   38.6810   32.4460   44.0730 H   0  0  0  0  0  0  0  0  0  0  0  0
   37.5600   33.1900   45.3220 H   0  0  0  0  0  0  0  0  0  0  0  0
   36.7300   30.6270   44.9360 C   0  0  0  0  0  0  0  0  0  0  0  0
   35.6970   31.0990   45.7270 F   0  0  0  0  0  0  0  0  0  0  0  0
   36.5750   29.2750   44.8270 F   0  0  0  0  0  0  0  0  0  0  0  0
   36.6310   31.2980   43.7240 F   0  0  0  0  0  0  0  0  0  0  0  0
   39.0770   30.1540   45.1660 C   0  0  0  0  0  0  0  0  0  0  0  0
   38.8840   29.2090   45.7120 H   0  0  0  0  0  0  0  0  0  0  0  0
   40.0330   30.5290   45.6470 H   0  0  0  0  0  0  0  0  0  0  0  0
   39.2470   30.2810   43.9460 O   0  0  0  0  0  0  0  0  0  0  0  0
   39.5110   29.5060   42.8730 C   0  0  0  0  0  0  0  0  0  0  0  0
   38.6310   29.7020   41.9940 O   0  0  0  0  0  0  0  0  0  0  0  0
   40.3110   28.5200   42.1640 C   0  0  0  0  0  3  0  0  0  0  0  0
   39.6210   28.2260   40.8350 C   0  0  0  0  0  2  0  0  0  0  0  0
   40.8050   27.5820   40.0990 C   0  0  0  0  0  2  0  0  0  0  0  0
   41.8150   28.7020   40.2520 C   0  0  0  0  0  2  0  0  0  0  0  0
   41.6730   29.0270   41.7440 C   0  0  0  0  0  2  0  0  0  0  0  0
  1 12  1  0  0  0  0
  2 13  1  0  0  0  0
  2  1  2  0  0  0  0
  3  2  1  0  0  0  0
  4  3  2  0  0  0  0
  4  5  1  0  0  0  0
  5  6  2  0  0  0  0
  6  1  1  0  0  0  0
  7  8  1  0  0  0  0
  7  3  1  0  0  0  0
  8 15  1  0  0  0  0
  8 16  1  0  0  0  0
  9 17  1  0  0  0  0
  9  8  1  0  0  0  0
 10 20  1  0  0  0  0
 10 11  1  0  0  0  0
 10  9  1  0  0  0  0
 11 21  1  6  0  0  0
 11  7  1  0  0  0  0
 14  5  1  0  0  0  0
 18  9  1  0  0  0  0
 19 10  1  0  0  0  0
 21 22  1  0  0  0  0
 23 21  1  0  0  0  0
 24 21  1  0  0  0  0
 25 11  1  0  0  0  0
 25 27  1  0  0  0  0
 25 26  1  0  0  0  0
 28 25  1  0  0  0  0
 29 28  1  0  0  0  0
 30 29  2  0  0  0  0
 31 29  1  0  0  0  0
 32 31  1  0  0  0  0
 33 34  1  0  0  0  0
 33 32  1  0  0  0  0
 34 35  1  0  0  0  0
 35 31  1  0  0  0  0
M  END
>  <minimizedAffinity>
-4.83191013

>  <minimizedRMSD>
1.73332632

$$$$
