
 OpenBabel03262521433D

 26 28  0  0  1  0  0  0  0  0999 V2000
   38.5060   25.8870   35.1880 C   0  0  1  0  0  0  0  0  0  0  0  0
   38.0630   26.3910   33.8110 C   0  0  2  0  0  0  0  0  0  0  0  0
   37.0210   27.3590   34.3250 C   0  0  0  0  0  0  0  0  0  0  0  0
   37.6300   28.0360   35.3660 O   0  0  0  0  0  0  0  0  0  0  0  0
   38.6190   27.2540   35.8870 C   0  0  0  0  0  0  0  0  0  0  0  0
   39.4850   25.4080   35.0940 H   0  0  0  0  0  0  0  0  0  0  0  0
   38.9330   26.8940   33.3520 H   0  0  0  0  0  0  0  0  0  0  0  0
   36.2130   26.7400   34.7760 H   0  0  0  0  0  0  0  0  0  0  0  0
   36.6410   28.0330   33.5340 H   0  0  0  0  0  0  0  0  0  0  0  0
   39.6370   27.6440   35.7690 H   0  0  0  0  0  0  0  0  0  0  0  0
   38.3930   27.1070   36.9720 H   0  0  0  0  0  0  0  0  0  0  0  0
   37.5300   25.3180   32.9670 C   0  0  0  0  0  0  0  0  0  0  0  0
   38.2240   24.1070   32.8440 C   0  0  0  0  0  0  0  0  0  0  0  0
   37.6740   23.1320   32.0070 C   0  0  0  0  0  0  0  0  0  0  0  0
   36.4990   23.4240   31.3640 N   0  0  0  0  0  0  0  0  0  0  0  0
   35.8490   24.6060   31.5020 C   0  0  0  0  0  0  0  0  0  0  0  0
   36.3790   25.5520   32.3130 N   0  0  0  0  0  0  0  0  0  0  0  0
   39.1510   23.9090   33.3680 H   0  0  0  0  0  0  0  0  0  0  0  0
   38.1420   22.1690   31.8540 H   0  0  0  0  0  0  0  0  0  0  0  0
   34.9290   24.7330   30.9490 H   0  0  0  0  0  0  0  0  0  0  0  0
   37.5390   25.2060   35.8430 O   0  0  0  0  0  0  0  0  0  0  0  0
   37.9850   24.1520   36.6260 C   0  0  0  0  0  3  0  0  0  0  0  0
   37.9800   24.4190   38.0980 C   0  0  0  0  0  2  0  0  0  0  0  0
   38.8040   23.2670   38.6360 C   0  0  0  0  0  2  0  0  0  0  0  0
   39.7000   22.8340   37.5220 C   0  0  0  0  0  2  0  0  0  0  0  0
   39.4170   23.7850   36.3560 C   0  0  0  0  0  2  0  0  0  0  0  0
  1  6  1  6  0  0  0
  1 21  1  0  0  0  0
  1  5  1  0  0  0  0
  2  7  1  6  0  0  0
  2  3  1  0  0  0  0
  2  1  1  0  0  0  0
  3  8  1  0  0  0  0
  3  4  1  0  0  0  0
  4  5  1  0  0  0  0
  5 11  1  0  0  0  0
  9  3  1  0  0  0  0
 10  5  1  0  0  0  0
 12  2  1  0  0  0  0
 13 12  1  0  0  0  0
 13 18  1  0  0  0  0
 14 13  2  0  0  0  0
 15 16  2  0  0  0  0
 15 14  1  0  0  0  0
 16 17  1  0  0  0  0
 17 12  2  0  0  0  0
 19 14  1  0  0  0  0
 20 16  1  0  0  0  0
 21 22  1  0  0  0  0
 22 23  1  0  0  0  0
 23 24  1  0  0  0  0
 25 24  1  0  0  0  0
 26 22  1  0  0  0  0
 26 25  1  0  0  0  0
M  END
>  <minimizedAffinity>
-4.79605389

$$$$

 OpenBabel03262521433D

 26 28  0  0  1  0  0  0  0  0999 V2000
   37.4030   25.1880   31.6750 C   0  0  1  0  0  0  0  0  0  0  0  0
   36.5100   24.1950   30.9210 C   0  0  2  0  0  0  0  0  0  0  0  0
   35.2120   24.9310   31.1690 C   0  0  0  0  0  0  0  0  0  0  0  0
   35.4870   26.2610   30.9020 O   0  0  0  0  0  0  0  0  0  0  0  0
   36.8200   26.4850   31.0850 C   0  0  0  0  0  0  0  0  0  0  0  0
   38.4400   25.0410   31.3630 H   0  0  0  0  0  0  0  0  0  0  0  0
   36.8240   24.2140   29.8630 H   0  0  0  0  0  0  0  0  0  0  0  0
   35.0140   24.8600   32.2620 H   0  0  0  0  0  0  0  0  0  0  0  0
   34.3760   24.5330   30.5640 H   0  0  0  0  0  0  0  0  0  0  0  0
   37.3780   26.7610   30.1830 H   0  0  0  0  0  0  0  0  0  0  0  0
   36.9210   27.2900   31.8550 H   0  0  0  0  0  0  0  0  0  0  0  0
   36.5620   22.8480   31.4970 C   0  0  0  0  0  0  0  0  0  0  0  0
   37.7620   22.1240   31.4880 C   0  0  0  0  0  0  0  0  0  0  0  0
   37.7390   20.8360   32.0310 C   0  0  0  0  0  0  0  0  0  0  0  0
   36.5520   20.3690   32.5330 N   0  0  0  0  0  0  0  0  0  0  0  0
   35.4060   21.0940   32.5270 C   0  0  0  0  0  0  0  0  0  0  0  0
   35.4250   22.3410   32.0030 N   0  0  0  0  0  0  0  0  0  0  0  0
   38.6830   22.5240   31.0840 H   0  0  0  0  0  0  0  0  0  0  0  0
   38.6190   20.2070   32.0670 H   0  0  0  0  0  0  0  0  0  0  0  0
   34.5240   20.6300   32.9480 H   0  0  0  0  0  0  0  0  0  0  0  0
   37.1500   25.2290   33.0030 O   0  0  0  0  0  0  0  0  0  0  0  0
   37.8550   26.1940   33.7080 C   0  0  0  0  0  3  0  0  0  0  0  0
   39.1770   25.7400   34.2400 C   0  0  0  0  0  2  0  0  0  0  0  0
   39.5320   26.8510   35.2080 C   0  0  0  0  0  2  0  0  0  0  0  0
   38.2390   27.4650   35.6360 C   0  0  0  0  0  2  0  0  0  0  0  0
   37.1360   26.6590   34.9440 C   0  0  0  0  0  2  0  0  0  0  0  0
  1  6  1  6  0  0  0
  1 21  1  0  0  0  0
  2  7  1  6  0  0  0
  2  3  1  0  0  0  0
  2 12  1  0  0  0  0
  2  1  1  0  0  0  0
  3  8  1  0  0  0  0
  4  5  1  0  0  0  0
  4  3  1  0  0  0  0
  5  1  1  0  0  0  0
  5 11  1  0  0  0  0
  9  3  1  0  0  0  0
 10  5  1  0  0  0  0
 12 17  1  0  0  0  0
 13 12  2  0  0  0  0
 13 14  1  0  0  0  0
 14 19  1  0  0  0  0
 14 15  2  0  0  0  0
 16 15  1  0  0  0  0
 16 20  1  0  0  0  0
 17 16  2  0  0  0  0
 18 13  1  0  0  0  0
 21 22  1  0  0  0  0
 22 23  1  0  0  0  0
 22 26  1  0  0  0  0
 23 24  1  0  0  0  0
 24 25  1  0  0  0  0
 26 25  1  0  0  0  0
M  END
>  <minimizedAffinity>
-4.5148468

$$$$

 OpenBabel03262521433D

 26 28  0  0  1  0  0  0  0  0999 V2000
   38.6620   23.2660   33.5340 C   0  0  1  0  0  0  0  0  0  0  0  0
   38.5460   22.0770   34.4940 C   0  0  2  0  0  0  0  0  0  0  0  0
   37.1490   21.6750   34.0780 C   0  0  0  0  0  0  0  0  0  0  0  0
   37.1550   21.7030   32.6950 O   0  0  0  0  0  0  0  0  0  0  0  0
   38.1190   22.5720   32.2720 C   0  0  0  0  0  0  0  0  0  0  0  0
   39.7180   23.5280   33.4190 H   0  0  0  0  0  0  0  0  0  0  0  0
   39.3160   21.3430   34.1990 H   0  0  0  0  0  0  0  0  0  0  0  0
   36.4730   22.4940   34.4110 H   0  0  0  0  0  0  0  0  0  0  0  0
   36.8500   20.6920   34.4890 H   0  0  0  0  0  0  0  0  0  0  0  0
   38.9480   22.1190   31.7170 H   0  0  0  0  0  0  0  0  0  0  0  0
   37.6170   23.3460   31.6410 H   0  0  0  0  0  0  0  0  0  0  0  0
   38.6670   22.4790   35.8990 C   0  0  0  0  0  0  0  0  0  0  0  0
   39.9250   22.5180   36.5150 C   0  0  0  0  0  0  0  0  0  0  0  0
   39.9700   22.8870   37.8620 C   0  0  0  0  0  0  0  0  0  0  0  0
   38.7880   23.1850   38.4890 N   0  0  0  0  0  0  0  0  0  0  0  0
   37.5840   23.1390   37.8660 C   0  0  0  0  0  0  0  0  0  0  0  0
   37.5370   22.7830   36.5610 N   0  0  0  0  0  0  0  0  0  0  0  0
   40.8400   22.2760   35.9900 H   0  0  0  0  0  0  0  0  0  0  0  0
   40.8980   22.9430   38.4170 H   0  0  0  0  0  0  0  0  0  0  0  0
   36.7120   23.3940   38.4530 H   0  0  0  0  0  0  0  0  0  0  0  0
   37.7980   24.2670   33.8170 O   0  0  0  0  0  0  0  0  0  0  0  0
   38.3820   25.4990   34.0690 C   0  0  0  0  0  3  0  0  0  0  0  0
   39.8750   25.4750   34.1660 C   0  0  0  0  0  2  0  0  0  0  0  0
   40.1790   26.8360   34.7600 C   0  0  0  0  0  2  0  0  0  0  0  0
   38.9570   27.2480   35.5150 C   0  0  0  0  0  2  0  0  0  0  0  0
   37.9690   26.0850   35.3900 C   0  0  0  0  0  2  0  0  0  0  0  0
  1  6  1  6  0  0  0
  1 21  1  0  0  0  0
  1  2  1  0  0  0  0
  2  7  1  6  0  0  0
  2 12  1  0  0  0  0
  3  8  1  0  0  0  0
  3  9  1  0  0  0  0
  3  2  1  0  0  0  0
  4  3  1  0  0  0  0
  5  4  1  0  0  0  0
  5  1  1  0  0  0  0
 10  5  1  0  0  0  0
 11  5  1  0  0  0  0
 12 13  2  0  0  0  0
 12 17  1  0  0  0  0
 13 14  1  0  0  0  0
 14 19  1  0  0  0  0
 14 15  2  0  0  0  0
 16 20  1  0  0  0  0
 16 15  1  0  0  0  0
 17 16  2  0  0  0  0
 18 13  1  0  0  0  0
 21 22  1  0  0  0  0
 22 23  1  0  0  0  0
 22 26  1  0  0  0  0
 23 24  1  0  0  0  0
 24 25  1  0  0  0  0
 26 25  1  0  0  0  0
M  END
>  <minimizedAffinity>
-4.50574875

$$$$

 OpenBabel03262521433D

 26 28  0  0  1  0  0  0  0  0999 V2000
   38.5450   23.4330   36.0450 C   0  0  1  0  0  0  0  0  0  0  0  0
   39.5240   22.4270   36.6600 C   0  0  2  0  0  0  0  0  0  0  0  0
   39.5210   23.0310   38.0460 C   0  0  0  0  0  0  0  0  0  0  0  0
   38.1900   23.2700   38.3390 O   0  0  0  0  0  0  0  0  0  0  0  0
   37.4980   23.4260   37.1730 C   0  0  0  0  0  0  0  0  0  0  0  0
   38.1360   23.0130   35.1220 H   0  0  0  0  0  0  0  0  0  0  0  0
   39.0410   21.4350   36.6170 H   0  0  0  0  0  0  0  0  0  0  0  0
   40.0110   24.0260   37.9570 H   0  0  0  0  0  0  0  0  0  0  0  0
   40.0180   22.3840   38.7930 H   0  0  0  0  0  0  0  0  0  0  0  0
   36.7440   22.6580   36.9690 H   0  0  0  0  0  0  0  0  0  0  0  0
   37.0160   24.4330   37.2030 H   0  0  0  0  0  0  0  0  0  0  0  0
   40.8310   22.4410   35.9960 C   0  0  0  0  0  0  0  0  0  0  0  0
   41.9760   22.8360   36.7010 C   0  0  0  0  0  0  0  0  0  0  0  0
   43.1870   22.8500   36.0040 C   0  0  0  0  0  0  0  0  0  0  0  0
   43.1760   22.4790   34.6840 N   0  0  0  0  0  0  0  0  0  0  0  0
   42.0510   22.1020   34.0270 C   0  0  0  0  0  0  0  0  0  0  0  0
   40.8760   22.0860   34.6990 N   0  0  0  0  0  0  0  0  0  0  0  0
   41.9490   23.1230   37.7440 H   0  0  0  0  0  0  0  0  0  0  0  0
   44.1200   23.1400   36.4690 H   0  0  0  0  0  0  0  0  0  0  0  0
   42.1530   21.8280   32.9860 H   0  0  0  0  0  0  0  0  0  0  0  0
   39.0370   24.6920   35.9930 O   0  0  0  0  0  0  0  0  0  0  0  0
   38.1130   25.6740   35.6660 C   0  0  0  0  0  3  0  0  0  0  0  0
   37.7760   25.7550   34.2110 C   0  0  0  0  0  2  0  0  0  0  0  0
   37.0430   27.0800   34.1250 C   0  0  0  0  0  2  0  0  0  0  0  0
   37.5360   27.9070   35.2670 C   0  0  0  0  0  2  0  0  0  0  0  0
   38.5970   27.0620   35.9780 C   0  0  0  0  0  2  0  0  0  0  0  0
  1  6  1  6  0  0  0
  1  2  1  0  0  0  0
  1  5  1  0  0  0  0
  2  7  1  1  0  0  0
  2  3  1  0  0  0  0
  3  4  1  0  0  0  0
  3  9  1  0  0  0  0
  5 11  1  0  0  0  0
  5  4  1  0  0  0  0
  8  3  1  0  0  0  0
 10  5  1  0  0  0  0
 12  2  1  0  0  0  0
 12 13  1  0  0  0  0
 13 18  1  0  0  0  0
 14 19  1  0  0  0  0
 14 13  2  0  0  0  0
 15 14  1  0  0  0  0
 16 15  2  0  0  0  0
 16 17  1  0  0  0  0
 17 12  2  0  0  0  0
 20 16  1  0  0  0  0
 21  1  1  0  0  0  0
 22 26  1  0  0  0  0
 22 21  1  0  0  0  0
 23 22  1  0  0  0  0
 24 23  1  0  0  0  0
 24 25  1  0  0  0  0
 25 26  1  0  0  0  0
M  END
>  <minimizedAffinity>
-4.4164505

$$$$

 OpenBabel03262521433D

 26 28  0  0  1  0  0  0  0  0999 V2000
   38.2400   23.4920   36.6410 C   0  0  1  0  0  0  0  0  0  0  0  0
   38.7430   22.1580   36.0790 C   0  0  2  0  0  0  0  0  0  0  0  0
   40.1490   22.2780   36.6230 C   0  0  0  0  0  0  0  0  0  0  0  0
   40.0010   22.6910   37.9350 O   0  0  0  0  0  0  0  0  0  0  0  0
   38.8140   23.3520   38.0620 C   0  0  0  0  0  0  0  0  0  0  0  0
   37.1460   23.4820   36.6520 H   0  0  0  0  0  0  0  0  0  0  0  0
   38.1570   21.3570   36.5640 H   0  0  0  0  0  0  0  0  0  0  0  0
   40.6270   23.1210   36.0750 H   0  0  0  0  0  0  0  0  0  0  0  0
   40.7240   21.3370   36.5280 H   0  0  0  0  0  0  0  0  0  0  0  0
   38.0750   22.8680   38.7110 H   0  0  0  0  0  0  0  0  0  0  0  0
   39.0410   24.3770   38.4450 H   0  0  0  0  0  0  0  0  0  0  0  0
   38.6630   22.1010   34.6160 C   0  0  0  0  0  0  0  0  0  0  0  0
   39.8320   22.0990   33.8450 C   0  0  0  0  0  0  0  0  0  0  0  0
   39.6860   22.0670   32.4550 C   0  0  0  0  0  0  0  0  0  0  0  0
   38.4160   22.0410   31.9410 N   0  0  0  0  0  0  0  0  0  0  0  0
   37.3010   22.0450   32.7130 C   0  0  0  0  0  0  0  0  0  0  0  0
   37.4390   22.0750   34.0590 N   0  0  0  0  0  0  0  0  0  0  0  0
   40.8210   22.1190   34.2840 H   0  0  0  0  0  0  0  0  0  0  0  0
   40.5350   22.0620   31.7840 H   0  0  0  0  0  0  0  0  0  0  0  0
   36.3470   22.0230   32.2050 H   0  0  0  0  0  0  0  0  0  0  0  0
   38.8490   24.5660   36.0910 O   0  0  0  0  0  0  0  0  0  0  0  0
   38.0030   25.6050   35.7310 C   0  0  0  0  0  3  0  0  0  0  0  0
   37.7260   25.7070   34.2650 C   0  0  0  0  0  2  0  0  0  0  0  0
   37.0840   27.0760   34.1550 C   0  0  0  0  0  2  0  0  0  0  0  0
   37.5860   27.8710   35.3160 C   0  0  0  0  0  2  0  0  0  0  0  0
   38.5640   26.9590   36.0630 C   0  0  0  0  0  2  0  0  0  0  0  0
  1  6  1  6  0  0  0
  1  5  1  0  0  0  0
  2  7  1  1  0  0  0
  2  3  1  0  0  0  0
  2  1  1  0  0  0  0
  3  4  1  0  0  0  0
  4  5  1  0  0  0  0
  5 11  1  0  0  0  0
  5 10  1  0  0  0  0
  8  3  1  0  0  0  0
  9  3  1  0  0  0  0
 12  2  1  0  0  0  0
 13 18  1  0  0  0  0
 13 12  2  0  0  0  0
 14 13  1  0  0  0  0
 15 14  2  0  0  0  0
 15 16  1  0  0  0  0
 16 17  2  0  0  0  0
 17 12  1  0  0  0  0
 19 14  1  0  0  0  0
 20 16  1  0  0  0  0
 21  1  1  0  0  0  0
 22 26  1  0  0  0  0
 22 21  1  0  0  0  0
 23 22  1  0  0  0  0
 24 23  1  0  0  0  0
 24 25  1  0  0  0  0
 25 26  1  0  0  0  0
M  END
>  <minimizedAffinity>
-4.38629532

$$$$

 OpenBabel03262521433D

 26 28  0  0  1  0  0  0  0  0999 V2000
   39.2790   24.9570   34.0910 C   0  0  1  0  0  0  0  0  0  0  0  0
   38.6990   25.5940   32.8230 C   0  0  2  0  0  0  0  0  0  0  0  0
   38.1690   26.8380   33.5010 C   0  0  0  0  0  0  0  0  0  0  0  0
   39.1920   27.2710   34.3260 O   0  0  0  0  0  0  0  0  0  0  0  0
   39.9800   26.2060   34.6540 C   0  0  0  0  0  0  0  0  0  0  0  0
   40.0040   24.1900   33.8040 H   0  0  0  0  0  0  0  0  0  0  0  0
   39.5460   25.7960   32.1440 H   0  0  0  0  0  0  0  0  0  0  0  0
   37.3420   26.5060   34.1660 H   0  0  0  0  0  0  0  0  0  0  0  0
   37.8420   27.6080   32.7770 H   0  0  0  0  0  0  0  0  0  0  0  0
   41.0090   26.2500   34.2770 H   0  0  0  0  0  0  0  0  0  0  0  0
   39.9870   26.1260   35.7680 H   0  0  0  0  0  0  0  0  0  0  0  0
   37.6690   24.7580   32.1990 C   0  0  0  0  0  0  0  0  0  0  0  0
   36.3810   25.2690   31.9860 C   0  0  0  0  0  0  0  0  0  0  0  0
   35.4390   24.4140   31.4070 C   0  0  0  0  0  0  0  0  0  0  0  0
   35.8330   23.1400   31.0890 N   0  0  0  0  0  0  0  0  0  0  0  0
   37.0880   22.6730   31.3090 C   0  0  0  0  0  0  0  0  0  0  0  0
   38.0030   23.4990   31.8680 N   0  0  0  0  0  0  0  0  0  0  0  0
   36.1030   26.2810   32.2480 H   0  0  0  0  0  0  0  0  0  0  0  0
   34.4220   24.7240   31.2060 H   0  0  0  0  0  0  0  0  0  0  0  0
   37.2940   21.6520   31.0200 H   0  0  0  0  0  0  0  0  0  0  0  0
   38.3340   24.6140   34.9960 O   0  0  0  0  0  0  0  0  0  0  0  0
   38.8100   24.3240   36.2660 C   0  0  0  0  0  3  0  0  0  0  0  0
   39.5730   23.0420   36.3700 C   0  0  0  0  0  2  0  0  0  0  0  0
   39.6600   22.8410   37.8700 C   0  0  0  0  0  2  0  0  0  0  0  0
   38.4960   23.5690   38.4600 C   0  0  0  0  0  2  0  0  0  0  0  0
   37.7120   24.1450   37.2770 C   0  0  0  0  0  2  0  0  0  0  0  0
  1  6  1  6  0  0  0
  1  5  1  0  0  0  0
  1 21  1  0  0  0  0
  2  7  1  6  0  0  0
  2  3  1  0  0  0  0
  2  1  1  0  0  0  0
  3  8  1  0  0  0  0
  3  4  1  0  0  0  0
  4  5  1  0  0  0  0
  5 11  1  0  0  0  0
  9  3  1  0  0  0  0
 10  5  1  0  0  0  0
 12  2  1  0  0  0  0
 13 12  1  0  0  0  0
 13 18  1  0  0  0  0
 14 13  2  0  0  0  0
 15 16  2  0  0  0  0
 15 14  1  0  0  0  0
 16 17  1  0  0  0  0
 17 12  2  0  0  0  0
 19 14  1  0  0  0  0
 20 16  1  0  0  0  0
 21 22  1  0  0  0  0
 22 23  1  0  0  0  0
 22 26  1  0  0  0  0
 23 24  1  0  0  0  0
 24 25  1  0  0  0  0
 26 25  1  0  0  0  0
M  END
>  <minimizedAffinity>
-4.36022282

$$$$

 OpenBabel03262521433D

 26 28  0  0  1  0  0  0  0  0999 V2000
   36.1900   27.7160   32.3960 C   0  0  1  0  0  0  0  0  0  0  0  0
   35.4330   28.9450   31.8810 C   0  0  2  0  0  0  0  0  0  0  0  0
   36.3110   29.1750   30.6710 C   0  0  0  0  0  0  0  0  0  0  0  0
   36.4770   27.9280   30.0950 O   0  0  0  0  0  0  0  0  0  0  0  0
   36.3180   26.9710   31.0550 C   0  0  0  0  0  0  0  0  0  0  0  0
   35.5470   27.1700   33.0930 H   0  0  0  0  0  0  0  0  0  0  0  0
   34.4120   28.6150   31.6200 H   0  0  0  0  0  0  0  0  0  0  0  0
   37.3080   29.4830   31.0600 H   0  0  0  0  0  0  0  0  0  0  0  0
   35.8850   29.9200   29.9730 H   0  0  0  0  0  0  0  0  0  0  0  0
   35.4550   26.3090   30.9180 H   0  0  0  0  0  0  0  0  0  0  0  0
   37.2580   26.3670   31.0840 H   0  0  0  0  0  0  0  0  0  0  0  0
   35.4330   30.0470   32.8480 C   0  0  0  0  0  0  0  0  0  0  0  0
   35.9220   31.3080   32.4800 C   0  0  0  0  0  0  0  0  0  0  0  0
   35.9160   32.3090   33.4550 C   0  0  0  0  0  0  0  0  0  0  0  0
   35.4360   31.9940   34.7000 N   0  0  0  0  0  0  0  0  0  0  0  0
   34.9710   30.7630   35.0280 C   0  0  0  0  0  0  0  0  0  0  0  0
   34.9740   29.7920   34.0850 N   0  0  0  0  0  0  0  0  0  0  0  0
   36.2930   31.5230   31.4870 H   0  0  0  0  0  0  0  0  0  0  0  0
   36.2740   33.3120   33.2580 H   0  0  0  0  0  0  0  0  0  0  0  0
   34.6150   30.6210   36.0390 H   0  0  0  0  0  0  0  0  0  0  0  0
   37.4510   27.9940   32.7960 O   0  0  0  0  0  0  0  0  0  0  0  0
   37.9250   27.2140   33.8400 C   0  0  0  0  0  3  0  0  0  0  0  0
   37.6360   27.7520   35.2050 C   0  0  0  0  0  2  0  0  0  0  0  0
   38.5340   26.9020   36.0820 C   0  0  0  0  0  2  0  0  0  0  0  0
   39.6580   26.4420   35.2110 C   0  0  0  0  0  2  0  0  0  0  0  0
   39.4220   27.0820   33.8400 C   0  0  0  0  0  2  0  0  0  0  0  0
  1 21  1  0  0  0  0
  1  6  1  1  0  0  0
  2  7  1  6  0  0  0
  2  1  1  0  0  0  0
  2 12  1  0  0  0  0
  3  8  1  0  0  0  0
  3  2  1  0  0  0  0
  4  3  1  0  0  0  0
  4  5  1  0  0  0  0
  5 11  1  0  0  0  0
  5  1  1  0  0  0  0
  9  3  1  0  0  0  0
 10  5  1  0  0  0  0
 12 17  1  0  0  0  0
 13 12  2  0  0  0  0
 13 14  1  0  0  0  0
 14 15  2  0  0  0  0
 15 16  1  0  0  0  0
 16 20  1  0  0  0  0
 17 16  2  0  0  0  0
 18 13  1  0  0  0  0
 19 14  1  0  0  0  0
 21 22  1  0  0  0  0
 22 26  1  0  0  0  0
 22 23  1  0  0  0  0
 23 24  1  0  0  0  0
 25 24  1  0  0  0  0
 26 25  1  0  0  0  0
M  END
>  <minimizedAffinity>
-4.19888067

$$$$

 OpenBabel03262521433D

 26 28  0  0  1  0  0  0  0  0999 V2000
   38.7890   22.8270   34.7750 C   0  0  1  0  0  0  0  0  0  0  0  0
   39.0980   24.2440   35.2700 C   0  0  2  0  0  0  0  0  0  0  0  0
   38.6760   24.0050   36.7030 C   0  0  0  0  0  0  0  0  0  0  0  0
   39.2480   22.7960   37.0570 O   0  0  0  0  0  0  0  0  0  0  0  0
   39.4480   22.0520   35.9310 C   0  0  0  0  0  0  0  0  0  0  0  0
   39.3180   22.6570   33.8320 H   0  0  0  0  0  0  0  0  0  0  0  0
   40.1850   24.3990   35.1570 H   0  0  0  0  0  0  0  0  0  0  0  0
   37.5750   23.8450   36.6840 H   0  0  0  0  0  0  0  0  0  0  0  0
   38.9680   24.8340   37.3750 H   0  0  0  0  0  0  0  0  0  0  0  0
   40.4950   21.8450   35.6850 H   0  0  0  0  0  0  0  0  0  0  0  0
   38.8920   21.0910   36.0620 H   0  0  0  0  0  0  0  0  0  0  0  0
   38.3120   25.2640   34.5700 C   0  0  0  0  0  0  0  0  0  0  0  0
   38.3470   25.3440   33.1710 C   0  0  0  0  0  0  0  0  0  0  0  0
   37.5930   26.3530   32.5650 C   0  0  0  0  0  0  0  0  0  0  0  0
   36.8750   27.1940   33.3750 N   0  0  0  0  0  0  0  0  0  0  0  0
   36.8600   27.0930   34.7270 C   0  0  0  0  0  0  0  0  0  0  0  0
   37.5880   26.1160   35.3160 N   0  0  0  0  0  0  0  0  0  0  0  0
   38.9260   24.6620   32.5610 H   0  0  0  0  0  0  0  0  0  0  0  0
   37.5620   26.4880   31.4920 H   0  0  0  0  0  0  0  0  0  0  0  0
   36.2590   27.8090   35.2710 H   0  0  0  0  0  0  0  0  0  0  0  0
   37.4730   22.5220   34.8160 O   0  0  0  0  0  0  0  0  0  0  0  0
   37.0590   21.5640   33.9030 C   0  0  0  0  0  3  0  0  0  0  0  0
   36.6040   22.1100   32.5870 C   0  0  0  0  0  2  0  0  0  0  0  0
   35.9230   20.9100   31.9590 C   0  0  0  0  0  2  0  0  0  0  0  0
   35.4790   20.0400   33.0900 C   0  0  0  0  0  2  0  0  0  0  0  0
   35.8650   20.7810   34.3730 C   0  0  0  0  0  2  0  0  0  0  0  0
  1  6  1  6  0  0  0
  1 21  1  0  0  0  0
  1  2  1  0  0  0  0
  1  5  1  0  0  0  0
  2  7  1  6  0  0  0
  2  3  1  0  0  0  0
  3  4  1  0  0  0  0
  3  9  1  0  0  0  0
  5 11  1  0  0  0  0
  5  4  1  0  0  0  0
  8  3  1  0  0  0  0
 10  5  1  0  0  0  0
 12  2  1  0  0  0  0
 12 17  1  0  0  0  0
 13 12  2  0  0  0  0
 14 13  1  0  0  0  0
 14 15  2  0  0  0  0
 15 16  1  0  0  0  0
 16 20  1  0  0  0  0
 16 17  2  0  0  0  0
 18 13  1  0  0  0  0
 19 14  1  0  0  0  0
 22 26  1  0  0  0  0
 22 21  1  0  0  0  0
 23 22  1  0  0  0  0
 24 23  1  0  0  0  0
 24 25  1  0  0  0  0
 25 26  1  0  0  0  0
M  END
>  <minimizedAffinity>
-4.18237019

$$$$

 OpenBabel03262521433D

 26 28  0  0  1  0  0  0  0  0999 V2000
   38.6150   26.2710   33.2760 C   0  0  1  0  0  0  0  0  0  0  0  0
   39.5590   26.2160   34.4820 C   0  0  2  0  0  0  0  0  0  0  0  0
   40.8150   25.9390   33.6860 C   0  0  0  0  0  0  0  0  0  0  0  0
   40.7790   26.8260   32.6240 O   0  0  0  0  0  0  0  0  0  0  0  0
   39.4820   27.1630   32.3700 C   0  0  0  0  0  0  0  0  0  0  0  0
   37.6930   26.7810   33.5700 H   0  0  0  0  0  0  0  0  0  0  0  0
   39.5520   27.2170   34.9480 H   0  0  0  0  0  0  0  0  0  0  0  0
   40.6960   24.9200   33.2550 H   0  0  0  0  0  0  0  0  0  0  0  0
   41.7340   26.0320   34.2960 H   0  0  0  0  0  0  0  0  0  0  0  0
   39.2290   28.2160   32.5410 H   0  0  0  0  0  0  0  0  0  0  0  0
   39.2670   26.8890   31.3080 H   0  0  0  0  0  0  0  0  0  0  0  0
   39.1970   25.1560   35.4280 C   0  0  0  0  0  0  0  0  0  0  0  0
   38.0090   25.2460   36.1660 C   0  0  0  0  0  0  0  0  0  0  0  0
   37.7320   24.2150   37.0680 C   0  0  0  0  0  0  0  0  0  0  0  0
   38.6360   23.1900   37.1710 N   0  0  0  0  0  0  0  0  0  0  0  0
   39.7790   23.1300   36.4440 C   0  0  0  0  0  0  0  0  0  0  0  0
   40.0490   24.1260   35.5690 N   0  0  0  0  0  0  0  0  0  0  0  0
   37.3160   26.0710   36.0590 H   0  0  0  0  0  0  0  0  0  0  0  0
   36.8380   24.2030   37.6780 H   0  0  0  0  0  0  0  0  0  0  0  0
   40.4230   22.2760   36.6030 H   0  0  0  0  0  0  0  0  0  0  0  0
   38.4960   25.0850   32.6370 O   0  0  0  0  0  0  0  0  0  0  0  0
   37.1940   24.6580   32.4220 C   0  0  0  0  0  3  0  0  0  0  0  0
   37.0680   23.2360   31.9750 C   0  0  0  0  0  2  0  0  0  0  0  0
   35.6250   23.1720   31.5130 C   0  0  0  0  0  2  0  0  0  0  0  0
   35.2440   24.5650   31.1310 C   0  0  0  0  0  2  0  0  0  0  0  0
   36.5000   25.4190   31.3280 C   0  0  0  0  0  2  0  0  0  0  0  0
  1  6  1  1  0  0  0
  1  2  1  0  0  0  0
  2  7  1  1  0  0  0
  2 12  1  0  0  0  0
  3  9  1  0  0  0  0
  3  2  1  0  0  0  0
  4  3  1  0  0  0  0
  5 10  1  0  0  0  0
  5  4  1  0  0  0  0
  5  1  1  0  0  0  0
  8  3  1  0  0  0  0
 11  5  1  0  0  0  0
 12 17  2  0  0  0  0
 12 13  1  0  0  0  0
 13 14  2  0  0  0  0
 14 15  1  0  0  0  0
 14 19  1  0  0  0  0
 16 20  1  0  0  0  0
 16 15  2  0  0  0  0
 17 16  1  0  0  0  0
 18 13  1  0  0  0  0
 21  1  1  0  0  0  0
 22 21  1  0  0  0  0
 23 22  1  0  0  0  0
 24 23  1  0  0  0  0
 25 26  1  0  0  0  0
 25 24  1  0  0  0  0
 26 22  1  0  0  0  0
M  END
>  <minimizedAffinity>
-4.0764699

$$$$
