
 OpenBabel03272500583D

 31 33  0  0  0  0  0  0  0  0999 V2000
   38.2570   31.9580   47.4060 C   0  0  0  0  0  0  0  0  0  0  0  0
   38.8080   32.8650   48.2630 C   0  0  0  0  0  0  0  0  0  0  0  0
   38.3970   32.9830   49.5870 C   0  0  0  0  0  0  0  0  0  0  0  0
   37.3450   32.0990   50.0480 C   0  0  0  0  0  0  0  0  0  0  0  0
   36.8400   31.2220   49.1450 C   0  0  0  0  0  0  0  0  0  0  0  0
   37.2400   31.1140   47.8690 C   0  0  0  0  0  0  0  0  0  0  0  0
   39.6100   33.5520   47.9490 H   0  0  0  0  0  0  0  0  0  0  0  0
   38.8810   33.7350   50.2260 H   0  0  0  0  0  0  0  0  0  0  0  0
   37.1350   32.3030   51.0800 H   0  0  0  0  0  0  0  0  0  0  0  0
   36.1060   30.6580   49.7000 H   0  0  0  0  0  0  0  0  0  0  0  0
   40.0410   31.2520   45.8870 C   0  0  0  0  0  0  0  0  0  0  0  0
   38.8090   31.9370   46.0680 C   0  0  0  0  0  0  0  0  0  0  0  0
   38.2890   32.4920   44.9270 C   0  0  0  0  0  0  0  0  0  0  0  0
   38.9310   32.3700   43.7520 N   0  0  0  0  0  0  0  0  0  0  0  0
   40.0700   31.7330   43.6000 C   0  0  0  0  0  0  0  0  0  0  0  0
   40.6150   31.1790   44.6700 N   0  0  0  0  0  0  0  0  0  0  0  0
   40.5000   30.7970   46.7330 H   0  0  0  0  0  0  0  0  0  0  0  0
   37.3480   33.0150   45.0660 H   0  0  0  0  0  0  0  0  0  0  0  0
   40.5770   31.6420   42.6480 H   0  0  0  0  0  0  0  0  0  0  0  0
   35.2420   30.0390   47.2470 C   0  0  0  0  0  0  0  0  0  0  0  0
   34.7060   30.6800   48.2370 O   0  0  0  0  0  0  0  0  0  0  0  0
   36.6600   30.2180   47.0080 N   0  0  0  0  0  0  0  0  0  0  0  0
   37.1650   29.7200   46.2710 H   0  0  0  0  0  0  0  0  0  0  0  0
   34.4580   29.2240   46.4740 O   0  0  0  0  0  0  0  0  0  0  0  0
   33.0830   29.3570   46.3260 C   0  0  0  0  0  0  0  0  0  0  0  0
   32.5540   30.2550   45.5220 O   0  0  0  0  0  0  0  0  0  0  0  0
   32.1040   28.4910   47.0370 C   0  0  0  0  0  3  0  0  0  0  0  0
   31.3060   27.6440   46.0660 C   0  0  0  0  0  2  0  0  0  0  0  0
   30.9320   26.3980   46.8390 C   0  0  0  0  0  2  0  0  0  0  0  0
   31.5550   26.5770   48.2230 C   0  0  0  0  0  2  0  0  0  0  0  0
   32.7830   27.4120   47.8410 C   0  0  0  0  0  2  0  0  0  0  0  0
  1  6  2  0  0  0  0
  1  2  1  0  0  0  0
  2  3  2  0  0  0  0
  3  4  1  0  0  0  0
  3  8  1  0  0  0  0
  4  9  1  0  0  0  0
  5 10  1  0  0  0  0
  5  4  2  0  0  0  0
  6  5  1  0  0  0  0
  7  2  1  0  0  0  0
 11 12  1  0  0  0  0
 11 17  1  0  0  0  0
 12  1  1  0  0  0  0
 13 18  1  0  0  0  0
 13 12  2  0  0  0  0
 14 13  1  0  0  0  0
 15 14  2  0  0  0  0
 15 16  1  0  0  0  0
 16 11  2  0  0  0  0
 19 15  1  0  0  0  0
 20 21  2  0  0  0  0
 22 20  1  0  0  0  0
 22  6  1  0  0  0  0
 23 22  1  0  0  0  0
 24 20  1  0  0  0  0
 25 24  1  0  0  0  0
 25 27  1  0  0  0  0
 26 25  2  0  0  0  0
 27 31  1  0  0  0  0
 28 29  1  0  0  0  0
 28 27  1  0  0  0  0
 29 30  1  0  0  0  0
 31 30  1  0  0  0  0
M  END
>  <minimizedAffinity>
-5.64818478

>  <minimizedRMSD>
1.36281133

$$$$
