
 OpenBabel03272503543D

 40 43  0  0  1  0  0  0  0  0999 V2000
   36.1420   27.1820   31.8660 C   0  0  1  0  0  0  0  0  0  0  0  0
   35.8440   26.2290   30.6700 C   0  0  0  0  0  0  0  0  0  0  0  0
   35.3230   24.9500   31.3360 C   0  0  0  0  0  0  0  0  0  0  0  0
   36.5140   24.3170   31.9790 C   0  0  0  0  0  0  0  0  0  0  0  0
   37.0440   25.2410   33.0360 C   0  0  0  0  0  0  0  0  0  0  0  0
   37.3830   26.6140   32.4830 C   0  0  2  0  0  0  0  0  0  0  0  0
   35.2730   27.0480   32.5380 H   0  0  0  0  0  0  0  0  0  0  0  0
   36.8180   25.9630   30.2080 H   0  0  0  0  0  0  0  0  0  0  0  0
   35.1250   26.6850   29.9920 H   0  0  0  0  0  0  0  0  0  0  0  0
   34.8830   24.3380   30.5390 H   0  0  0  0  0  0  0  0  0  0  0  0
   34.6160   25.2440   32.1080 H   0  0  0  0  0  0  0  0  0  0  0  0
   36.1800   23.3940   32.4980 H   0  0  0  0  0  0  0  0  0  0  0  0
   37.3060   24.0550   31.2270 H   0  0  0  0  0  0  0  0  0  0  0  0
   36.1930   25.3960   33.7320 H   0  0  0  0  0  0  0  0  0  0  0  0
   37.9080   24.7810   33.5500 H   0  0  0  0  0  0  0  0  0  0  0  0
   38.1240   26.4450   31.6810 H   0  0  0  0  0  0  0  0  0  0  0  0
   35.5690   29.6290   31.8910 C   0  0  0  0  0  0  0  0  0  0  0  0
   35.8240   30.9180   31.4430 C   0  0  0  0  0  0  0  0  0  0  0  0
   36.8160   31.1500   30.4780 C   0  0  0  0  0  0  0  0  0  0  0  0
   37.5140   30.0560   30.0020 C   0  0  0  0  0  0  0  0  0  0  0  0
   37.2700   28.7810   30.4350 C   0  0  0  0  0  0  0  0  0  0  0  0
   36.2740   28.5670   31.4030 C   0  0  0  0  0  0  0  0  0  0  0  0
   35.2800   31.7770   31.8130 H   0  0  0  0  0  0  0  0  0  0  0  0
   36.9860   32.1550   30.1580 H   0  0  0  0  0  0  0  0  0  0  0  0
   38.2610   30.2720   29.2660 H   0  0  0  0  0  0  0  0  0  0  0  0
   37.8760   28.0100   29.9910 H   0  0  0  0  0  0  0  0  0  0  0  0
   33.5390   29.5250   35.0750 C   0  0  0  0  0  0  0  0  0  0  0  0
   34.6710   29.6580   34.2360 C   0  0  0  0  0  0  0  0  0  0  0  0
   34.4990   29.5110   32.8630 C   0  0  0  0  0  0  0  0  0  0  0  0
   33.2490   29.2500   32.4370 N   0  0  0  0  0  0  0  0  0  0  0  0
   32.1780   29.1250   33.2380 C   0  0  0  0  0  0  0  0  0  0  0  0
   32.3260   29.2620   34.5480 N   0  0  0  0  0  0  0  0  0  0  0  0
   33.7110   29.6450   36.1220 H   0  0  0  0  0  0  0  0  0  0  0  0
   35.6570   29.8640   34.5760 H   0  0  0  0  0  0  0  0  0  0  0  0
   31.2110   28.9140   32.8000 H   0  0  0  0  0  0  0  0  0  0  0  0
   37.9820   27.4820   33.5510 C   0  0  0  0  0  3  0  0  0  0  0  0
   37.3970   27.2960   34.8980 C   0  0  0  0  0  2  0  0  0  0  0  0
   38.3110   26.4200   35.6840 C   0  0  0  0  0  2  0  0  0  0  0  0
   39.6490   26.4860   35.0410 C   0  0  0  0  0  2  0  0  0  0  0  0
   39.4500   27.2210   33.7520 C   0  0  0  0  0  2  0  0  0  0  0  0
  1  6  1  0  0  0  0
  1  7  1  1  0  0  0
  2  3  1  0  0  0  0
  2  1  1  0  0  0  0
  3  4  1  0  0  0  0
  3 11  1  0  0  0  0
  4 12  1  0  0  0  0
  4  5  1  0  0  0  0
  5 15  1  0  0  0  0
  5 14  1  0  0  0  0
  6 16  1  6  0  0  0
  6  5  1  0  0  0  0
  6 36  1  0  0  0  0
  8  2  1  0  0  0  0
  9  2  1  0  0  0  0
 10  3  1  0  0  0  0
 13  4  1  0  0  0  0
 17 29  1  0  0  0  0
 18 23  1  0  0  0  0
 18 17  1  0  0  0  0
 19 18  2  0  0  0  0
 20 21  2  0  0  0  0
 20 19  1  0  0  0  0
 21 22  1  0  0  0  0
 22  1  1  0  0  0  0
 22 17  2  0  0  0  0
 24 19  1  0  0  0  0
 25 20  1  0  0  0  0
 26 21  1  0  0  0  0
 27 33  1  0  0  0  0
 28 34  1  0  0  0  0
 28 27  2  0  0  0  0
 29 28  1  0  0  0  0
 30 29  2  0  0  0  0
 30 31  1  0  0  0  0
 31 32  2  0  0  0  0
 32 27  1  0  0  0  0
 35 31  1  0  0  0  0
 36 40  1  0  0  0  0
 36 37  1  0  0  0  0
 37 38  1  0  0  0  0
 39 38  1  0  0  0  0
 40 39  1  0  0  0  0
M  END
>  <minimizedAffinity>
-5.5440731

$$$$

 OpenBabel03272503543D

 40 43  0  0  1  0  0  0  0  0999 V2000
   38.0760   26.4580   33.1800 C   0  0  1  0  0  0  0  0  0  0  0  0
   38.1710   25.9230   34.6400 C   0  0  0  0  0  0  0  0  0  0  0  0
   38.9550   27.0100   35.3830 C   0  0  0  0  0  0  0  0  0  0  0  0
   40.3630   26.8970   34.8940 C   0  0  0  0  0  0  0  0  0  0  0  0
   40.3910   27.1890   33.4230 C   0  0  0  0  0  0  0  0  0  0  0  0
   39.4600   26.2810   32.6370 C   0  0  2  0  0  0  0  0  0  0  0  0
   37.8380   27.5310   33.3030 H   0  0  0  0  0  0  0  0  0  0  0  0
   38.8250   25.0250   34.6220 H   0  0  0  0  0  0  0  0  0  0  0  0
   37.1760   25.7550   35.0480 H   0  0  0  0  0  0  0  0  0  0  0  0
   38.8490   26.7970   36.4540 H   0  0  0  0  0  0  0  0  0  0  0  0
   38.5510   27.9730   35.0830 H   0  0  0  0  0  0  0  0  0  0  0  0
   40.9680   27.6840   35.3890 H   0  0  0  0  0  0  0  0  0  0  0  0
   40.8050   25.8900   35.1210 H   0  0  0  0  0  0  0  0  0  0  0  0
   39.9680   28.2110   33.3260 H   0  0  0  0  0  0  0  0  0  0  0  0
   41.4270   27.1430   33.0410 H   0  0  0  0  0  0  0  0  0  0  0  0
   39.7890   25.2480   32.8530 H   0  0  0  0  0  0  0  0  0  0  0  0
   36.1050   26.3300   31.6260 C   0  0  0  0  0  0  0  0  0  0  0  0
   35.2100   25.5590   30.8950 C   0  0  0  0  0  0  0  0  0  0  0  0
   35.2500   24.1590   30.9770 C   0  0  0  0  0  0  0  0  0  0  0  0
   36.2030   23.5920   31.8030 C   0  0  0  0  0  0  0  0  0  0  0  0
   37.0890   24.3420   32.5280 C   0  0  0  0  0  0  0  0  0  0  0  0
   37.0350   25.7440   32.4330 C   0  0  0  0  0  0  0  0  0  0  0  0
   34.4630   25.9980   30.2480 H   0  0  0  0  0  0  0  0  0  0  0  0
   34.5480   23.5980   30.4000 H   0  0  0  0  0  0  0  0  0  0  0  0
   36.2030   22.5220   31.8400 H   0  0  0  0  0  0  0  0  0  0  0  0
   37.7840   23.7890   33.1370 H   0  0  0  0  0  0  0  0  0  0  0  0
   36.3310   29.9240   30.4870 C   0  0  0  0  0  0  0  0  0  0  0  0
   36.5820   28.5310   30.5170 C   0  0  0  0  0  0  0  0  0  0  0  0
   35.9440   27.7640   31.4870 C   0  0  0  0  0  0  0  0  0  0  0  0
   35.1270   28.4200   32.3330 N   0  0  0  0  0  0  0  0  0  0  0  0
   34.8930   29.7420   32.3000 C   0  0  0  0  0  0  0  0  0  0  0  0
   35.4920   30.4860   31.3810 N   0  0  0  0  0  0  0  0  0  0  0  0
   36.8370   30.4790   29.7280 H   0  0  0  0  0  0  0  0  0  0  0  0
   37.2280   28.0170   29.8480 H   0  0  0  0  0  0  0  0  0  0  0  0
   34.2170   30.1780   33.0240 H   0  0  0  0  0  0  0  0  0  0  0  0
   39.5750   26.5510   31.1650 C   0  0  0  0  0  3  0  0  0  0  0  0
   40.5980   27.5570   30.7990 C   0  0  0  0  0  2  0  0  0  0  0  0
   41.8150   26.8320   30.3360 C   0  0  0  0  0  2  0  0  0  0  0  0
   41.3910   25.4650   29.9350 C   0  0  0  0  0  2  0  0  0  0  0  0
   39.9690   25.3280   30.3820 C   0  0  0  0  0  2  0  0  0  0  0  0
  1  7  1  1  0  0  0
  1  2  1  0  0  0  0
  2  9  1  0  0  0  0
  2  3  1  0  0  0  0
  3 10  1  0  0  0  0
  4 13  1  0  0  0  0
  4  3  1  0  0  0  0
  4 12  1  0  0  0  0
  5  4  1  0  0  0  0
  6 16  1  1  0  0  0
  6  1  1  0  0  0  0
  6  5  1  0  0  0  0
  8  2  1  0  0  0  0
 11  3  1  0  0  0  0
 14  5  1  0  0  0  0
 15  5  1  0  0  0  0
 17 22  1  0  0  0  0
 18 19  1  0  0  0  0
 18 17  2  0  0  0  0
 19 20  2  0  0  0  0
 20 25  1  0  0  0  0
 20 21  1  0  0  0  0
 21 26  1  0  0  0  0
 22 21  2  0  0  0  0
 22  1  1  0  0  0  0
 23 18  1  0  0  0  0
 24 19  1  0  0  0  0
 27 28  2  0  0  0  0
 27 32  1  0  0  0  0
 28 29  1  0  0  0  0
 29 17  1  0  0  0  0
 29 30  2  0  0  0  0
 31 30  1  0  0  0  0
 31 35  1  0  0  0  0
 32 31  2  0  0  0  0
 33 27  1  0  0  0  0
 34 28  1  0  0  0  0
 36  6  1  0  0  0  0
 37 36  1  0  0  0  0
 38 37  1  0  0  0  0
 39 38  1  0  0  0  0
 39 40  1  0  0  0  0
 40 36  1  0  0  0  0
M  END
>  <minimizedAffinity>
-5.40440273

$$$$

 OpenBabel03272503543D

 40 43  0  0  1  0  0  0  0  0999 V2000
   40.6930   25.6990   34.0960 C   0  0  1  0  0  0  0  0  0  0  0  0
   41.7850   26.8030   34.2140 C   0  0  0  0  0  0  0  0  0  0  0  0
   43.0540   26.1290   33.6800 C   0  0  0  0  0  0  0  0  0  0  0  0
   43.4590   25.1450   34.7290 C   0  0  0  0  0  0  0  0  0  0  0  0
   42.3780   24.1150   34.8730 C   0  0  0  0  0  0  0  0  0  0  0  0
   41.0300   24.7370   35.1930 C   0  0  2  0  0  0  0  0  0  0  0  0
   40.8780   25.2430   33.1050 H   0  0  0  0  0  0  0  0  0  0  0  0
   41.9600   26.9820   35.2960 H   0  0  0  0  0  0  0  0  0  0  0  0
   41.4950   27.6860   33.6460 H   0  0  0  0  0  0  0  0  0  0  0  0
   43.7910   26.9260   33.5230 H   0  0  0  0  0  0  0  0  0  0  0  0
   42.7860   25.5920   32.7740 H   0  0  0  0  0  0  0  0  0  0  0  0
   44.3660   24.6110   34.3750 H   0  0  0  0  0  0  0  0  0  0  0  0
   43.6820   25.6470   35.7090 H   0  0  0  0  0  0  0  0  0  0  0  0
   42.2730   23.6680   33.8620 H   0  0  0  0  0  0  0  0  0  0  0  0
   42.6670   23.3560   35.6220 H   0  0  0  0  0  0  0  0  0  0  0  0
   41.1720   25.3100   36.1270 H   0  0  0  0  0  0  0  0  0  0  0  0
   38.3100   26.0040   33.3570 C   0  0  0  0  0  0  0  0  0  0  0  0
   37.0530   26.5490   33.5810 C   0  0  0  0  0  0  0  0  0  0  0  0
   36.8340   27.4010   34.6740 C   0  0  0  0  0  0  0  0  0  0  0  0
   37.9080   27.6680   35.5040 C   0  0  0  0  0  0  0  0  0  0  0  0
   39.1510   27.1360   35.2920 C   0  0  0  0  0  0  0  0  0  0  0  0
   39.3520   26.2850   34.1930 C   0  0  0  0  0  0  0  0  0  0  0  0
   36.2100   26.3440   32.9350 H   0  0  0  0  0  0  0  0  0  0  0  0
   35.8540   27.8010   34.8160 H   0  0  0  0  0  0  0  0  0  0  0  0
   37.7020   28.3220   36.3260 H   0  0  0  0  0  0  0  0  0  0  0  0
   39.9080   27.4170   36.0040 H   0  0  0  0  0  0  0  0  0  0  0  0
   38.2080   23.1260   30.9130 C   0  0  0  0  0  0  0  0  0  0  0  0
   38.0540   23.8270   32.1330 C   0  0  0  0  0  0  0  0  0  0  0  0
   38.4220   25.1680   32.1780 C   0  0  0  0  0  0  0  0  0  0  0  0
   38.9040   25.6990   31.0380 N   0  0  0  0  0  0  0  0  0  0  0  0
   39.0480   25.0290   29.8830 C   0  0  0  0  0  0  0  0  0  0  0  0
   38.7010   23.7510   29.8250 N   0  0  0  0  0  0  0  0  0  0  0  0
   37.9140   22.0990   30.9180 H   0  0  0  0  0  0  0  0  0  0  0  0
   37.6730   23.4040   33.0310 H   0  0  0  0  0  0  0  0  0  0  0  0
   39.4450   25.5440   29.0190 H   0  0  0  0  0  0  0  0  0  0  0  0
   39.9930   23.6720   35.4070 C   0  0  0  0  0  3  0  0  0  0  0  0
   40.5300   22.2940   35.4830 C   0  0  0  0  0  2  0  0  0  0  0  0
   40.6160   21.9100   36.9210 C   0  0  0  0  0  2  0  0  0  0  0  0
   39.6930   22.7980   37.6730 C   0  0  0  0  0  2  0  0  0  0  0  0
   39.2450   23.8450   36.7000 C   0  0  0  0  0  2  0  0  0  0  0  0
  1  7  1  6  0  0  0
  1 22  1  0  0  0  0
  1  2  1  0  0  0  0
  1  6  1  0  0  0  0
  2  8  1  0  0  0  0
  3  2  1  0  0  0  0
  3  4  1  0  0  0  0
  4  5  1  0  0  0  0
  4 13  1  0  0  0  0
  5  6  1  0  0  0  0
  5 15  1  0  0  0  0
  6 36  1  0  0  0  0
  6 16  1  1  0  0  0
  9  2  1  0  0  0  0
 10  3  1  0  0  0  0
 11  3  1  0  0  0  0
 12  4  1  0  0  0  0
 14  5  1  0  0  0  0
 17 18  2  0  0  0  0
 17 22  1  0  0  0  0
 18 19  1  0  0  0  0
 19 24  1  0  0  0  0
 19 20  2  0  0  0  0
 20 25  1  0  0  0  0
 21 20  1  0  0  0  0
 21 26  1  0  0  0  0
 22 21  2  0  0  0  0
 23 18  1  0  0  0  0
 27 33  1  0  0  0  0
 27 28  1  0  0  0  0
 28 29  2  0  0  0  0
 28 34  1  0  0  0  0
 29 17  1  0  0  0  0
 30 29  1  0  0  0  0
 31 30  2  0  0  0  0
 32 31  1  0  0  0  0
 32 27  2  0  0  0  0
 35 31  1  0  0  0  0
 36 37  1  0  0  0  0
 36 40  1  0  0  0  0
 37 38  1  0  0  0  0
 38 39  1  0  0  0  0
 40 39  1  0  0  0  0
M  END
>  <minimizedAffinity>
-5.36850786

$$$$

 OpenBabel03272503543D

 40 43  0  0  1  0  0  0  0  0999 V2000
   39.4880   24.7780   33.7740 C   0  0  1  0  0  0  0  0  0  0  0  0
   40.8690   24.6770   33.0620 C   0  0  0  0  0  0  0  0  0  0  0  0
   41.6860   25.8210   33.6730 C   0  0  0  0  0  0  0  0  0  0  0  0
   41.1090   27.0770   33.1040 C   0  0  0  0  0  0  0  0  0  0  0  0
   39.6820   27.2000   33.5480 C   0  0  0  0  0  0  0  0  0  0  0  0
   38.8520   25.9880   33.1620 C   0  0  2  0  0  0  0  0  0  0  0  0
   39.7460   24.9660   34.8340 H   0  0  0  0  0  0  0  0  0  0  0  0
   40.7130   24.9420   31.9950 H   0  0  0  0  0  0  0  0  0  0  0  0
   41.3110   23.6960   33.2290 H   0  0  0  0  0  0  0  0  0  0  0  0
   42.7310   25.6520   33.3820 H   0  0  0  0  0  0  0  0  0  0  0  0
   41.5210   25.8090   34.7470 H   0  0  0  0  0  0  0  0  0  0  0  0
   41.6560   27.9400   33.5380 H   0  0  0  0  0  0  0  0  0  0  0  0
   41.1960   27.1070   31.9840 H   0  0  0  0  0  0  0  0  0  0  0  0
   39.7260   27.1950   34.6580 H   0  0  0  0  0  0  0  0  0  0  0  0
   39.2400   28.1380   33.1660 H   0  0  0  0  0  0  0  0  0  0  0  0
   38.9300   25.9030   32.0630 H   0  0  0  0  0  0  0  0  0  0  0  0
   38.1850   22.8010   34.6150 C   0  0  0  0  0  0  0  0  0  0  0  0
   37.4070   21.6830   34.3450 C   0  0  0  0  0  0  0  0  0  0  0  0
   37.1630   21.2930   33.0190 C   0  0  0  0  0  0  0  0  0  0  0  0
   37.7230   22.0580   32.0130 C   0  0  0  0  0  0  0  0  0  0  0  0
   38.4910   23.1610   32.2690 C   0  0  0  0  0  0  0  0  0  0  0  0
   38.7240   23.5380   33.6020 C   0  0  0  0  0  0  0  0  0  0  0  0
   36.9680   21.0800   35.1290 H   0  0  0  0  0  0  0  0  0  0  0  0
   36.5600   20.4280   32.8490 H   0  0  0  0  0  0  0  0  0  0  0  0
   37.5160   21.7290   31.0150 H   0  0  0  0  0  0  0  0  0  0  0  0
   38.8740   23.6770   31.4040 H   0  0  0  0  0  0  0  0  0  0  0  0
   37.8480   24.0370   38.1690 C   0  0  0  0  0  0  0  0  0  0  0  0
   37.5280   23.8420   36.8030 C   0  0  0  0  0  0  0  0  0  0  0  0
   38.3950   23.0840   36.0220 C   0  0  0  0  0  0  0  0  0  0  0  0
   39.4850   22.5890   36.6370 N   0  0  0  0  0  0  0  0  0  0  0  0
   39.7840   22.7780   37.9340 C   0  0  0  0  0  0  0  0  0  0  0  0
   38.9680   23.4970   38.6910 N   0  0  0  0  0  0  0  0  0  0  0  0
   37.1590   24.6240   38.7360 H   0  0  0  0  0  0  0  0  0  0  0  0
   36.6660   24.2350   36.3210 H   0  0  0  0  0  0  0  0  0  0  0  0
   40.6860   22.3380   38.3380 H   0  0  0  0  0  0  0  0  0  0  0  0
   37.4160   26.1830   33.5530 C   0  0  0  0  0  3  0  0  0  0  0  0
   37.1250   27.4770   34.2110 C   0  0  0  0  0  2  0  0  0  0  0  0
   36.5360   28.3930   33.1930 C   0  0  0  0  0  2  0  0  0  0  0  0
   36.0020   27.5480   32.0940 C   0  0  0  0  0  2  0  0  0  0  0  0
   36.4860   26.1580   32.3710 C   0  0  0  0  0  2  0  0  0  0  0  0
  1  7  1  1  0  0  0
  2  9  1  0  0  0  0
  2  3  1  0  0  0  0
  2  1  1  0  0  0  0
  3 11  1  0  0  0  0
  4 12  1  0  0  0  0
  4  5  1  0  0  0  0
  4  3  1  0  0  0  0
  5 14  1  0  0  0  0
  6 16  1  6  0  0  0
  6  5  1  0  0  0  0
  6 36  1  0  0  0  0
  6  1  1  0  0  0  0
  8  2  1  0  0  0  0
 10  3  1  0  0  0  0
 13  4  1  0  0  0  0
 15  5  1  0  0  0  0
 17 29  1  0  0  0  0
 18 17  1  0  0  0  0
 18 23  1  0  0  0  0
 19 18  2  0  0  0  0
 20 21  2  0  0  0  0
 20 19  1  0  0  0  0
 21 22  1  0  0  0  0
 22  1  1  0  0  0  0
 22 17  2  0  0  0  0
 24 19  1  0  0  0  0
 25 20  1  0  0  0  0
 26 21  1  0  0  0  0
 27 32  1  0  0  0  0
 27 33  1  0  0  0  0
 28 27  2  0  0  0  0
 29 30  2  0  0  0  0
 29 28  1  0  0  0  0
 30 31  1  0  0  0  0
 31 35  1  0  0  0  0
 31 32  2  0  0  0  0
 34 28  1  0  0  0  0
 36 37  1  0  0  0  0
 38 37  1  0  0  0  0
 39 40  1  0  0  0  0
 39 38  1  0  0  0  0
 40 36  1  0  0  0  0
M  END
>  <minimizedAffinity>
-5.32030582

$$$$

 OpenBabel03272503543D

 40 43  0  0  1  0  0  0  0  0999 V2000
   37.4800   24.5330   32.0690 C   0  0  1  0  0  0  0  0  0  0  0  0
   37.2950   25.7660   31.1370 C   0  0  0  0  0  0  0  0  0  0  0  0
   35.8580   26.2250   31.4100 C   0  0  0  0  0  0  0  0  0  0  0  0
   34.9790   25.1950   30.7780 C   0  0  0  0  0  0  0  0  0  0  0  0
   35.2120   23.8770   31.4550 C   0  0  0  0  0  0  0  0  0  0  0  0
   36.6700   23.4570   31.4130 C   0  0  2  0  0  0  0  0  0  0  0  0
   37.0150   24.8450   33.0240 H   0  0  0  0  0  0  0  0  0  0  0  0
   37.3090   25.3970   30.0900 H   0  0  0  0  0  0  0  0  0  0  0  0
   38.0400   26.5280   31.3630 H   0  0  0  0  0  0  0  0  0  0  0  0
   35.7550   27.2200   30.9590 H   0  0  0  0  0  0  0  0  0  0  0  0
   35.7050   26.2110   32.4860 H   0  0  0  0  0  0  0  0  0  0  0  0
   33.9220   25.4730   30.9700 H   0  0  0  0  0  0  0  0  0  0  0  0
   35.1490   25.1240   29.6700 H   0  0  0  0  0  0  0  0  0  0  0  0
   34.9810   24.0610   32.5250 H   0  0  0  0  0  0  0  0  0  0  0  0
   34.5490   23.1030   31.0260 H   0  0  0  0  0  0  0  0  0  0  0  0
   36.9450   23.4180   30.3430 H   0  0  0  0  0  0  0  0  0  0  0  0
   39.5040   23.8710   33.4030 C   0  0  0  0  0  0  0  0  0  0  0  0
   40.8430   23.5030   33.4360 C   0  0  0  0  0  0  0  0  0  0  0  0
   41.6000   23.4770   32.2550 C   0  0  0  0  0  0  0  0  0  0  0  0
   40.9630   23.8270   31.0780 C   0  0  0  0  0  0  0  0  0  0  0  0
   39.6450   24.1910   31.0350 C   0  0  0  0  0  0  0  0  0  0  0  0
   38.9020   24.2110   32.2270 C   0  0  0  0  0  0  0  0  0  0  0  0
   41.3460   23.2290   34.3540 H   0  0  0  0  0  0  0  0  0  0  0  0
   42.6260   23.1890   32.3170 H   0  0  0  0  0  0  0  0  0  0  0  0
   41.5730   23.7950   30.1980 H   0  0  0  0  0  0  0  0  0  0  0  0
   39.2600   24.4440   30.0610 H   0  0  0  0  0  0  0  0  0  0  0  0
   37.6730   22.9320   36.5710 C   0  0  0  0  0  0  0  0  0  0  0  0
   38.2920   22.7730   35.3080 C   0  0  0  0  0  0  0  0  0  0  0  0
   38.8370   23.8940   34.6900 C   0  0  0  0  0  0  0  0  0  0  0  0
   38.7290   25.0600   35.3540 N   0  0  0  0  0  0  0  0  0  0  0  0
   38.1400   25.2060   36.5530 C   0  0  0  0  0  0  0  0  0  0  0  0
   37.6170   24.1480   37.1540 N   0  0  0  0  0  0  0  0  0  0  0  0
   37.2670   22.0500   37.0130 H   0  0  0  0  0  0  0  0  0  0  0  0
   38.3750   21.8500   34.7860 H   0  0  0  0  0  0  0  0  0  0  0  0
   38.1030   26.1870   37.0080 H   0  0  0  0  0  0  0  0  0  0  0  0
   36.8490   22.1000   32.0290 C   0  0  0  0  0  3  0  0  0  0  0  0
   35.6120   21.5090   32.5900 C   0  0  0  0  0  2  0  0  0  0  0  0
   35.0790   20.5280   31.6020 C   0  0  0  0  0  2  0  0  0  0  0  0
   36.2030   20.1430   30.7090 C   0  0  0  0  0  2  0  0  0  0  0  0
   37.3280   21.0740   31.0400 C   0  0  0  0  0  2  0  0  0  0  0  0
  1 22  1  0  0  0  0
  1  7  1  1  0  0  0
  2  9  1  0  0  0  0
  2  3  1  0  0  0  0
  2  1  1  0  0  0  0
  3 11  1  0  0  0  0
  4 12  1  0  0  0  0
  4  3  1  0  0  0  0
  4  5  1  0  0  0  0
  5 14  1  0  0  0  0
  6 16  1  6  0  0  0
  6  5  1  0  0  0  0
  6 36  1  0  0  0  0
  6  1  1  0  0  0  0
  8  2  1  0  0  0  0
 10  3  1  0  0  0  0
 13  4  1  0  0  0  0
 15  5  1  0  0  0  0
 17 18  1  0  0  0  0
 17 29  1  0  0  0  0
 18 23  1  0  0  0  0
 19 24  1  0  0  0  0
 19 18  2  0  0  0  0
 20 19  1  0  0  0  0
 21 20  2  0  0  0  0
 21 22  1  0  0  0  0
 22 17  2  0  0  0  0
 25 20  1  0  0  0  0
 26 21  1  0  0  0  0
 27 33  1  0  0  0  0
 27 32  1  0  0  0  0
 28 27  2  0  0  0  0
 29 28  1  0  0  0  0
 29 30  2  0  0  0  0
 30 31  1  0  0  0  0
 31 35  1  0  0  0  0
 31 32  2  0  0  0  0
 34 28  1  0  0  0  0
 36 37  1  0  0  0  0
 38 37  1  0  0  0  0
 39 40  1  0  0  0  0
 39 38  1  0  0  0  0
 40 36  1  0  0  0  0
M  END
>  <minimizedAffinity>
-5.2594347

$$$$

 OpenBabel03272503543D

 40 43  0  0  1  0  0  0  0  0999 V2000
   38.7560   24.6850   32.0780 C   0  0  1  0  0  0  0  0  0  0  0  0
   39.0390   25.0350   30.5870 C   0  0  0  0  0  0  0  0  0  0  0  0
   40.3470   25.8310   30.6340 C   0  0  0  0  0  0  0  0  0  0  0  0
   39.9910   27.1570   31.2260 C   0  0  0  0  0  0  0  0  0  0  0  0
   39.4930   26.9460   32.6250 C   0  0  0  0  0  0  0  0  0  0  0  0
   38.3180   25.9850   32.6790 C   0  0  2  0  0  0  0  0  0  0  0  0
   39.7440   24.3840   32.4750 H   0  0  0  0  0  0  0  0  0  0  0  0
   38.2530   25.7470   30.2590 H   0  0  0  0  0  0  0  0  0  0  0  0
   39.1090   24.1260   29.9910 H   0  0  0  0  0  0  0  0  0  0  0  0
   40.7110   25.9000   29.6010 H   0  0  0  0  0  0  0  0  0  0  0  0
   41.0260   25.3130   31.3060 H   0  0  0  0  0  0  0  0  0  0  0  0
   40.9170   27.7640   31.3030 H   0  0  0  0  0  0  0  0  0  0  0  0
   39.2380   27.7060   30.5990 H   0  0  0  0  0  0  0  0  0  0  0  0
   40.3260   26.4340   33.1510 H   0  0  0  0  0  0  0  0  0  0  0  0
   39.2520   27.9150   33.0980 H   0  0  0  0  0  0  0  0  0  0  0  0
   37.5370   26.4220   32.0310 H   0  0  0  0  0  0  0  0  0  0  0  0
   37.8310   22.5630   33.0560 C   0  0  0  0  0  0  0  0  0  0  0  0
   36.8020   21.6330   33.1300 C   0  0  0  0  0  0  0  0  0  0  0  0
   35.6770   21.7540   32.3010 C   0  0  0  0  0  0  0  0  0  0  0  0
   35.6410   22.8200   31.4210 C   0  0  0  0  0  0  0  0  0  0  0  0
   36.6490   23.7410   31.3400 C   0  0  0  0  0  0  0  0  0  0  0  0
   37.7680   23.6060   32.1790 C   0  0  0  0  0  0  0  0  0  0  0  0
   36.8260   20.7970   33.8160 H   0  0  0  0  0  0  0  0  0  0  0  0
   34.9050   21.0210   32.3850 H   0  0  0  0  0  0  0  0  0  0  0  0
   34.7670   22.8790   30.8050 H   0  0  0  0  0  0  0  0  0  0  0  0
   36.5100   24.5270   30.6170 H   0  0  0  0  0  0  0  0  0  0  0  0
   41.2510   21.8000   34.4670 C   0  0  0  0  0  0  0  0  0  0  0  0
   40.2410   22.0140   33.4990 C   0  0  0  0  0  0  0  0  0  0  0  0
   38.9550   22.3140   33.9380 C   0  0  0  0  0  0  0  0  0  0  0  0
   38.7730   22.3780   35.2700 N   0  0  0  0  0  0  0  0  0  0  0  0
   39.7350   22.1740   36.1850 C   0  0  0  0  0  0  0  0  0  0  0  0
   40.9650   21.8870   35.7830 N   0  0  0  0  0  0  0  0  0  0  0  0
   42.2250   21.5730   34.0920 H   0  0  0  0  0  0  0  0  0  0  0  0
   40.3890   21.9630   32.4470 H   0  0  0  0  0  0  0  0  0  0  0  0
   39.4900   22.2470   37.2360 H   0  0  0  0  0  0  0  0  0  0  0  0
   37.7990   25.8610   34.0820 C   0  0  0  0  0  3  0  0  0  0  0  0
   38.8450   25.8680   35.1300 C   0  0  0  0  0  2  0  0  0  0  0  0
   38.9030   27.2360   35.7190 C   0  0  0  0  0  2  0  0  0  0  0  0
   37.6080   27.9010   35.4220 C   0  0  0  0  0  2  0  0  0  0  0  0
   36.8910   26.9980   34.4660 C   0  0  0  0  0  2  0  0  0  0  0  0
  1 22  1  0  0  0  0
  1  7  1  1  0  0  0
  1  6  1  0  0  0  0
  2  3  1  0  0  0  0
  2  1  1  0  0  0  0
  3  4  1  0  0  0  0
  3 11  1  0  0  0  0
  4 12  1  0  0  0  0
  4  5  1  0  0  0  0
  5  6  1  0  0  0  0
  5 15  1  0  0  0  0
  5 14  1  0  0  0  0
  6 16  1  6  0  0  0
  6 36  1  0  0  0  0
  8  2  1  0  0  0  0
  9  2  1  0  0  0  0
 10  3  1  0  0  0  0
 13  4  1  0  0  0  0
 17 18  1  0  0  0  0
 17 29  1  0  0  0  0
 18 23  1  0  0  0  0
 19 24  1  0  0  0  0
 19 18  2  0  0  0  0
 20 19  1  0  0  0  0
 21 20  2  0  0  0  0
 21 22  1  0  0  0  0
 22 17  2  0  0  0  0
 25 20  1  0  0  0  0
 26 21  1  0  0  0  0
 27 32  1  0  0  0  0
 28 29  1  0  0  0  0
 28 27  2  0  0  0  0
 29 30  2  0  0  0  0
 30 31  1  0  0  0  0
 31 35  1  0  0  0  0
 32 31  2  0  0  0  0
 33 27  1  0  0  0  0
 34 28  1  0  0  0  0
 36 40  1  0  0  0  0
 36 37  1  0  0  0  0
 37 38  1  0  0  0  0
 39 38  1  0  0  0  0
 40 39  1  0  0  0  0
M  END
>  <minimizedAffinity>
-5.23492146

$$$$

 OpenBabel03272503543D

 40 43  0  0  1  0  0  0  0  0999 V2000
   39.1280   22.6250   33.6820 C   0  0  1  0  0  0  0  0  0  0  0  0
   40.5170   21.9370   33.8380 C   0  0  0  0  0  0  0  0  0  0  0  0
   40.9380   21.6200   32.3990 C   0  0  0  0  0  0  0  0  0  0  0  0
   40.0570   20.4950   31.9610 C   0  0  0  0  0  0  0  0  0  0  0  0
   38.6320   20.9650   31.9640 C   0  0  0  0  0  0  0  0  0  0  0  0
   38.2060   21.5020   33.3190 C   0  0  2  0  0  0  0  0  0  0  0  0
   39.2640   23.3120   32.8250 H   0  0  0  0  0  0  0  0  0  0  0  0
   40.3490   20.9590   34.3360 H   0  0  0  0  0  0  0  0  0  0  0  0
   41.2120   22.5990   34.3540 H   0  0  0  0  0  0  0  0  0  0  0  0
   42.0010   21.3500   32.4350 H   0  0  0  0  0  0  0  0  0  0  0  0
   40.7260   22.4950   31.7910 H   0  0  0  0  0  0  0  0  0  0  0  0
   40.3090   20.2440   30.9100 H   0  0  0  0  0  0  0  0  0  0  0  0
   40.1900   19.5840   32.6030 H   0  0  0  0  0  0  0  0  0  0  0  0
   38.6160   21.8360   31.2760 H   0  0  0  0  0  0  0  0  0  0  0  0
   37.9610   20.1600   31.6130 H   0  0  0  0  0  0  0  0  0  0  0  0
   38.3630   20.6770   34.0370 H   0  0  0  0  0  0  0  0  0  0  0  0
   38.3040   24.6220   34.9650 C   0  0  0  0  0  0  0  0  0  0  0  0
   37.9050   25.1840   36.1720 C   0  0  0  0  0  0  0  0  0  0  0  0
   37.9680   24.4350   37.3560 C   0  0  0  0  0  0  0  0  0  0  0  0
   38.4370   23.1370   37.2700 C   0  0  0  0  0  0  0  0  0  0  0  0
   38.8330   22.5750   36.0870 C   0  0  0  0  0  0  0  0  0  0  0  0
   38.7620   23.3390   34.9100 C   0  0  0  0  0  0  0  0  0  0  0  0
   37.5390   26.1990   36.2440 H   0  0  0  0  0  0  0  0  0  0  0  0
   37.6530   24.8990   38.2660 H   0  0  0  0  0  0  0  0  0  0  0  0
   38.4720   22.5980   38.1950 H   0  0  0  0  0  0  0  0  0  0  0  0
   39.1810   21.5570   36.1450 H   0  0  0  0  0  0  0  0  0  0  0  0
   39.0620   27.1260   32.2400 C   0  0  0  0  0  0  0  0  0  0  0  0
   39.2680   26.3170   33.3830 C   0  0  0  0  0  0  0  0  0  0  0  0
   38.2260   25.5030   33.8160 C   0  0  0  0  0  0  0  0  0  0  0  0
   37.0870   25.5520   33.1010 N   0  0  0  0  0  0  0  0  0  0  0  0
   36.8960   26.3220   32.0160 C   0  0  0  0  0  0  0  0  0  0  0  0
   37.8790   27.1020   31.5920 N   0  0  0  0  0  0  0  0  0  0  0  0
   39.8840   27.7360   31.9380 H   0  0  0  0  0  0  0  0  0  0  0  0
   40.1700   26.2820   33.9460 H   0  0  0  0  0  0  0  0  0  0  0  0
   35.9420   26.2910   31.5070 H   0  0  0  0  0  0  0  0  0  0  0  0
   36.7550   21.8880   33.3040 C   0  0  0  0  0  3  0  0  0  0  0  0
   36.2130   22.2000   31.9620 C   0  0  0  0  0  2  0  0  0  0  0  0
   35.4680   21.0050   31.4740 C   0  0  0  0  0  2  0  0  0  0  0  0
   35.1190   20.1850   32.6630 C   0  0  0  0  0  2  0  0  0  0  0  0
   35.8600   20.7920   33.8140 C   0  0  0  0  0  2  0  0  0  0  0  0
  1  7  1  6  0  0  0
  1  2  1  0  0  0  0
  1 22  1  0  0  0  0
  2  8  1  0  0  0  0
  2  9  1  0  0  0  0
  3 10  1  0  0  0  0
  3  2  1  0  0  0  0
  4  5  1  0  0  0  0
  4  3  1  0  0  0  0
  4 13  1  0  0  0  0
  5  6  1  0  0  0  0
  6  1  1  0  0  0  0
  6 16  1  1  0  0  0
 11  3  1  0  0  0  0
 12  4  1  0  0  0  0
 14  5  1  0  0  0  0
 15  5  1  0  0  0  0
 17 18  1  0  0  0  0
 18 23  1  0  0  0  0
 18 19  2  0  0  0  0
 19 24  1  0  0  0  0
 20 19  1  0  0  0  0
 20 25  1  0  0  0  0
 21 26  1  0  0  0  0
 21 20  2  0  0  0  0
 22 17  2  0  0  0  0
 22 21  1  0  0  0  0
 27 28  1  0  0  0  0
 28 29  2  0  0  0  0
 28 34  1  0  0  0  0
 29 17  1  0  0  0  0
 30 29  1  0  0  0  0
 31 30  2  0  0  0  0
 32 31  1  0  0  0  0
 32 27  2  0  0  0  0
 33 27  1  0  0  0  0
 35 31  1  0  0  0  0
 36  6  1  0  0  0  0
 36 40  1  0  0  0  0
 37 36  1  0  0  0  0
 38 37  1  0  0  0  0
 38 39  1  0  0  0  0
 39 40  1  0  0  0  0
M  END
>  <minimizedAffinity>
-5.23395586

$$$$

 OpenBabel03272503543D

 40 43  0  0  1  0  0  0  0  0999 V2000
   38.5550   26.5280   33.0940 C   0  0  1  0  0  0  0  0  0  0  0  0
   39.5930   26.8130   34.2190 C   0  0  0  0  0  0  0  0  0  0  0  0
   38.7920   26.6420   35.5150 C   0  0  0  0  0  0  0  0  0  0  0  0
   37.8870   27.8290   35.5880 C   0  0  0  0  0  0  0  0  0  0  0  0
   36.9470   27.7950   34.4200 C   0  0  0  0  0  0  0  0  0  0  0  0
   37.6800   27.7430   33.0910 C   0  0  2  0  0  0  0  0  0  0  0  0
   37.9980   25.6450   33.4600 H   0  0  0  0  0  0  0  0  0  0  0  0
   39.8610   27.8890   34.1590 H   0  0  0  0  0  0  0  0  0  0  0  0
   40.4350   26.1270   34.1410 H   0  0  0  0  0  0  0  0  0  0  0  0
   39.5220   26.6020   36.3330 H   0  0  0  0  0  0  0  0  0  0  0  0
   38.1910   25.7430   35.4160 H   0  0  0  0  0  0  0  0  0  0  0  0
   37.2660   27.7380   36.5030 H   0  0  0  0  0  0  0  0  0  0  0  0
   38.4630   28.7930   35.6240 H   0  0  0  0  0  0  0  0  0  0  0  0
   36.4140   26.8250   34.5100 H   0  0  0  0  0  0  0  0  0  0  0  0
   36.2440   28.6470   34.4670 H   0  0  0  0  0  0  0  0  0  0  0  0
   38.3280   28.6380   33.0660 H   0  0  0  0  0  0  0  0  0  0  0  0
   38.9140   25.2580   30.9550 C   0  0  0  0  0  0  0  0  0  0  0  0
   39.5610   25.1400   29.7320 C   0  0  0  0  0  0  0  0  0  0  0  0
   40.5570   26.0580   29.3660 C   0  0  0  0  0  0  0  0  0  0  0  0
   40.8590   27.0670   30.2620 C   0  0  0  0  0  0  0  0  0  0  0  0
   40.2270   27.1920   31.4700 C   0  0  0  0  0  0  0  0  0  0  0  0
   39.2310   26.2640   31.8200 C   0  0  0  0  0  0  0  0  0  0  0  0
   39.3290   24.3520   29.0280 H   0  0  0  0  0  0  0  0  0  0  0  0
   41.0330   25.9370   28.4180 H   0  0  0  0  0  0  0  0  0  0  0  0
   41.6230   27.7470   29.9480 H   0  0  0  0  0  0  0  0  0  0  0  0
   40.5480   28.0160   32.0840 H   0  0  0  0  0  0  0  0  0  0  0  0
   35.7320   23.2360   31.2020 C   0  0  0  0  0  0  0  0  0  0  0  0
   36.5880   24.3140   30.8720 C   0  0  0  0  0  0  0  0  0  0  0  0
   37.9290   24.2310   31.2360 C   0  0  0  0  0  0  0  0  0  0  0  0
   38.3090   23.1140   31.8830 N   0  0  0  0  0  0  0  0  0  0  0  0
   37.4930   22.0930   32.1940 C   0  0  0  0  0  0  0  0  0  0  0  0
   36.2140   22.1570   31.8540 N   0  0  0  0  0  0  0  0  0  0  0  0
   34.7110   23.3350   30.9060 H   0  0  0  0  0  0  0  0  0  0  0  0
   36.2840   25.1950   30.3610 H   0  0  0  0  0  0  0  0  0  0  0  0
   37.8940   21.2350   32.7160 H   0  0  0  0  0  0  0  0  0  0  0  0
   36.7090   27.7900   31.9480 C   0  0  0  0  0  3  0  0  0  0  0  0
   35.3400   28.2200   32.3170 C   0  0  0  0  0  2  0  0  0  0  0  0
   35.1930   29.6580   31.9530 C   0  0  0  0  0  2  0  0  0  0  0  0
   36.2300   29.9660   30.9340 C   0  0  0  0  0  2  0  0  0  0  0  0
   37.1210   28.7640   30.8780 C   0  0  0  0  0  2  0  0  0  0  0  0
  1  7  1  1  0  0  0
  1  2  1  0  0  0  0
  2  3  1  0  0  0  0
  3  4  1  0  0  0  0
  3 10  1  0  0  0  0
  4 13  1  0  0  0  0
  4 12  1  0  0  0  0
  5 15  1  0  0  0  0
  5 14  1  0  0  0  0
  5  4  1  0  0  0  0
  6 16  1  6  0  0  0
  6  1  1  0  0  0  0
  6  5  1  0  0  0  0
  8  2  1  0  0  0  0
  9  2  1  0  0  0  0
 11  3  1  0  0  0  0
 17 29  1  0  0  0  0
 17 22  1  0  0  0  0
 18 17  2  0  0  0  0
 19 18  1  0  0  0  0
 19 20  2  0  0  0  0
 20 21  1  0  0  0  0
 21 22  2  0  0  0  0
 21 26  1  0  0  0  0
 22  1  1  0  0  0  0
 23 18  1  0  0  0  0
 24 19  1  0  0  0  0
 25 20  1  0  0  0  0
 27 32  1  0  0  0  0
 28 27  2  0  0  0  0
 28 29  1  0  0  0  0
 29 30  2  0  0  0  0
 30 31  1  0  0  0  0
 31 35  1  0  0  0  0
 32 31  2  0  0  0  0
 33 27  1  0  0  0  0
 34 28  1  0  0  0  0
 36 37  1  0  0  0  0
 36  6  1  0  0  0  0
 38 37  1  0  0  0  0
 39 38  1  0  0  0  0
 40 39  1  0  0  0  0
 40 36  1  0  0  0  0
M  END
>  <minimizedAffinity>
-5.20190334

$$$$

 OpenBabel03272503543D

 40 43  0  0  1  0  0  0  0  0999 V2000
   38.2110   26.8220   33.3070 C   0  0  1  0  0  0  0  0  0  0  0  0
   37.8560   27.5220   34.6520 C   0  0  0  0  0  0  0  0  0  0  0  0
   38.6520   26.7380   35.7000 C   0  0  0  0  0  0  0  0  0  0  0  0
   37.9670   25.4160   35.8210 C   0  0  0  0  0  0  0  0  0  0  0  0
   38.0510   24.7030   34.5030 C   0  0  0  0  0  0  0  0  0  0  0  0
   37.4690   25.5230   33.3660 C   0  0  2  0  0  0  0  0  0  0  0  0
   39.3030   26.6530   33.3720 H   0  0  0  0  0  0  0  0  0  0  0  0
   36.7840   27.3180   34.8590 H   0  0  0  0  0  0  0  0  0  0  0  0
   38.1200   28.5770   34.6120 H   0  0  0  0  0  0  0  0  0  0  0  0
   38.6230   27.3280   36.6240 H   0  0  0  0  0  0  0  0  0  0  0  0
   39.6540   26.5840   35.3070 H   0  0  0  0  0  0  0  0  0  0  0  0
   38.5250   24.7990   36.5560 H   0  0  0  0  0  0  0  0  0  0  0  0
   36.9020   25.5260   36.1610 H   0  0  0  0  0  0  0  0  0  0  0  0
   39.1380   24.6210   34.2920 H   0  0  0  0  0  0  0  0  0  0  0  0
   37.5780   23.7060   34.5750 H   0  0  0  0  0  0  0  0  0  0  0  0
   36.4210   25.7330   33.6480 H   0  0  0  0  0  0  0  0  0  0  0  0
   38.5810   27.8030   31.0230 C   0  0  0  0  0  0  0  0  0  0  0  0
   38.1150   28.5740   29.9660 C   0  0  0  0  0  0  0  0  0  0  0  0
   36.8820   29.2360   30.0610 C   0  0  0  0  0  0  0  0  0  0  0  0
   36.1650   29.0880   31.2340 C   0  0  0  0  0  0  0  0  0  0  0  0
   36.6150   28.3310   32.2820 C   0  0  0  0  0  0  0  0  0  0  0  0
   37.8520   27.6750   32.1690 C   0  0  0  0  0  0  0  0  0  0  0  0
   38.6720   28.6930   29.0460 H   0  0  0  0  0  0  0  0  0  0  0  0
   36.5540   29.8200   29.2290 H   0  0  0  0  0  0  0  0  0  0  0  0
   35.2290   29.6080   31.2710 H   0  0  0  0  0  0  0  0  0  0  0  0
   35.9700   28.2920   33.1440 H   0  0  0  0  0  0  0  0  0  0  0  0
   42.2560   26.9380   31.1650 C   0  0  0  0  0  0  0  0  0  0  0  0
   41.0490   27.6240   31.4460 C   0  0  0  0  0  0  0  0  0  0  0  0
   39.8830   27.1970   30.8200 C   0  0  0  0  0  0  0  0  0  0  0  0
   39.9970   26.1490   29.9830 N   0  0  0  0  0  0  0  0  0  0  0  0
   41.1440   25.5010   29.7190 C   0  0  0  0  0  0  0  0  0  0  0  0
   42.2640   25.8960   30.3080 N   0  0  0  0  0  0  0  0  0  0  0  0
   43.1290   27.2940   31.6640 H   0  0  0  0  0  0  0  0  0  0  0  0
   40.9640   28.4520   32.1070 H   0  0  0  0  0  0  0  0  0  0  0  0
   41.1340   24.6670   29.0310 H   0  0  0  0  0  0  0  0  0  0  0  0
   37.5000   24.7460   32.0820 C   0  0  0  0  0  3  0  0  0  0  0  0
   37.8360   23.3120   32.2360 C   0  0  0  0  0  2  0  0  0  0  0  0
   36.5670   22.5310   32.1900 C   0  0  0  0  0  2  0  0  0  0  0  0
   35.5490   23.3800   31.5170 C   0  0  0  0  0  2  0  0  0  0  0  0
   36.1700   24.7360   31.3800 C   0  0  0  0  0  2  0  0  0  0  0  0
  1  6  1  0  0  0  0
  1  7  1  6  0  0  0
  1  2  1  0  0  0  0
  2  8  1  0  0  0  0
  2  3  1  0  0  0  0
  3  4  1  0  0  0  0
  3 10  1  0  0  0  0
  4 13  1  0  0  0  0
  4 12  1  0  0  0  0
  5 15  1  0  0  0  0
  5  4  1  0  0  0  0
  6 16  1  1  0  0  0
  6  5  1  0  0  0  0
  9  2  1  0  0  0  0
 11  3  1  0  0  0  0
 14  5  1  0  0  0  0
 17 22  1  0  0  0  0
 18 19  1  0  0  0  0
 18 17  2  0  0  0  0
 19 20  2  0  0  0  0
 20 25  1  0  0  0  0
 20 21  1  0  0  0  0
 21 26  1  0  0  0  0
 22 21  2  0  0  0  0
 22  1  1  0  0  0  0
 23 18  1  0  0  0  0
 24 19  1  0  0  0  0
 27 28  1  0  0  0  0
 27 33  1  0  0  0  0
 28 34  1  0  0  0  0
 29 17  1  0  0  0  0
 29 28  2  0  0  0  0
 30 29  1  0  0  0  0
 31 30  2  0  0  0  0
 31 32  1  0  0  0  0
 32 27  2  0  0  0  0
 35 31  1  0  0  0  0
 36 37  1  0  0  0  0
 36  6  1  0  0  0  0
 38 37  1  0  0  0  0
 39 38  1  0  0  0  0
 40 39  1  0  0  0  0
 40 36  1  0  0  0  0
M  END
>  <minimizedAffinity>
-5.1812315

$$$$
