
 OpenBabel03272510343D

 24 26  0  0  0  0  0  0  0  0999 V2000
   38.2840   30.6970   45.8020 C   0  0  0  0  0  0  0  0  0  0  0  0
   39.6110   30.6090   45.4440 C   0  0  0  0  0  0  0  0  0  0  0  0
   39.9430   30.2560   44.1440 C   0  0  0  0  0  0  0  0  0  0  0  0
   38.9450   30.0010   43.2390 C   0  0  0  0  0  0  0  0  0  0  0  0
   37.6060   30.0880   43.5940 C   0  0  0  0  0  0  0  0  0  0  0  0
   37.2390   30.4410   44.8990 C   0  0  0  0  0  0  0  0  0  0  0  0
   40.4110   30.8080   46.1470 H   0  0  0  0  0  0  0  0  0  0  0  0
   40.9700   30.1810   43.8420 H   0  0  0  0  0  0  0  0  0  0  0  0
   39.2530   29.7250   42.2230 H   0  0  0  0  0  0  0  0  0  0  0  0
   36.8880   29.8700   42.8200 H   0  0  0  0  0  0  0  0  0  0  0  0
   37.9260   32.7760   48.7840 C   0  0  0  0  0  0  0  0  0  0  0  0
   37.4780   31.9010   49.7690 C   0  0  0  0  0  0  0  0  0  0  0  0
   37.2940   30.5390   49.3900 C   0  0  0  0  0  0  0  0  0  0  0  0
   37.5600   30.1760   48.1090 N   0  0  0  0  0  0  0  0  0  0  0  0
   37.9950   31.0680   47.1830 C   0  0  0  0  0  0  0  0  0  0  0  0
   38.1640   32.3440   47.5530 N   0  0  0  0  0  0  0  0  0  0  0  0
   38.0470   33.7920   49.1280 H   0  0  0  0  0  0  0  0  0  0  0  0
   37.2410   32.0970   50.8080 H   0  0  0  0  0  0  0  0  0  0  0  0
   36.9560   29.7530   50.0350 H   0  0  0  0  0  0  0  0  0  0  0  0
   35.8240   30.5350   45.2710 C   0  0  0  0  0  3  0  0  0  0  0  0
   34.9000   30.9730   44.1870 C   0  0  0  0  0  2  0  0  0  0  0  0
   33.6920   30.0300   44.2080 C   0  0  0  0  0  2  0  0  0  0  0  0
   34.3280   28.7370   44.6510 C   0  0  0  0  0  2  0  0  0  0  0  0
   35.2900   29.1810   45.7080 C   0  0  0  0  0  2  0  0  0  0  0  0
  1 15  1  0  0  0  0
  2  1  1  0  0  0  0
  2  7  1  0  0  0  0
  3  2  2  0  0  0  0
  4  5  2  0  0  0  0
  4  3  1  0  0  0  0
  5  6  1  0  0  0  0
  6 20  1  0  0  0  0
  6  1  2  0  0  0  0
  8  3  1  0  0  0  0
  9  4  1  0  0  0  0
 10  5  1  0  0  0  0
 11 17  1  0  0  0  0
 11 12  1  0  0  0  0
 12 18  1  0  0  0  0
 13 12  2  0  0  0  0
 13 19  1  0  0  0  0
 14 13  1  0  0  0  0
 15 16  1  0  0  0  0
 15 14  2  0  0  0  0
 16 11  2  0  0  0  0
 20 24  1  0  0  0  0
 21 22  1  0  0  0  0
 21 20  1  0  0  0  0
 22 23  1  0  0  0  0
 23 24  1  0  0  0  0
M  END
>  <minimizedAffinity>
-3.63192582

>  <minimizedRMSD>
5.61509371

$$$$
