
 OpenBabel03272509343D

 37 41  0  0  1  0  0  0  0  0999 V2000
   34.6390   30.2280   48.2090 C   0  0  1  0  0  0  0  0  0  0  0  0
   34.9980   30.4000   49.6280 C   0  0  0  0  0  0  0  0  0  0  0  0
   36.0990   30.0210   48.7050 C   0  0  2  0  0  0  0  0  0  0  0  0
   34.5950   31.0750   47.5440 H   0  0  0  0  0  0  0  0  0  0  0  0
   34.6590   29.5740   50.3480 H   0  0  0  0  0  0  0  0  0  0  0  0
   34.7070   31.3600   50.0090 H   0  0  0  0  0  0  0  0  0  0  0  0
   36.4730   29.0880   48.3210 H   0  0  0  0  0  0  0  0  0  0  0  0
   37.0630   31.1420   48.5590 C   0  0  0  0  0  0  0  0  0  0  0  0
   37.0260   31.9730   49.6850 C   0  0  0  0  0  0  0  0  0  0  0  0
   37.8910   33.0390   49.8080 C   0  0  0  0  0  0  0  0  0  0  0  0
   38.8310   33.3160   48.8100 C   0  0  0  0  0  0  0  0  0  0  0  0
   38.8470   32.4840   47.7170 C   0  0  0  0  0  0  0  0  0  0  0  0
   39.7040   32.6390   46.6520 C   0  0  0  0  0  0  0  0  0  0  0  0
   39.7260   31.8210   45.5440 C   0  0  0  0  0  0  0  0  0  0  0  0
   38.8380   30.7720   45.4780 C   0  0  0  0  0  0  0  0  0  0  0  0
   37.9670   30.5930   46.5310 C   0  0  0  0  0  0  0  0  0  0  0  0
   37.9840   31.4350   47.6130 C   0  0  0  0  0  0  0  0  0  0  0  0
   36.4730   32.0320   50.5980 H   0  0  0  0  0  0  0  0  0  0  0  0
   37.9950   33.7680   50.5960 H   0  0  0  0  0  0  0  0  0  0  0  0
   39.5730   34.1020   48.7490 H   0  0  0  0  0  0  0  0  0  0  0  0
   40.4260   33.4710   46.6780 H   0  0  0  0  0  0  0  0  0  0  0  0
   40.4280   31.9930   44.7310 H   0  0  0  0  0  0  0  0  0  0  0  0
   38.7910   30.0850   44.6450 H   0  0  0  0  0  0  0  0  0  0  0  0
   37.2620   29.7450   46.4590 H   0  0  0  0  0  0  0  0  0  0  0  0
   32.5730   27.0750   48.2450 C   0  0  0  0  0  0  0  0  0  0  0  0
   33.1810   28.2890   48.6740 C   0  0  0  0  0  0  0  0  0  0  0  0
   33.9820   28.9730   47.7890 C   0  0  0  0  0  0  0  0  0  0  0  0
   34.1290   28.4230   46.5570 N   0  0  0  0  0  0  0  0  0  0  0  0
   33.5570   27.2790   46.1500 C   0  0  0  0  0  0  0  0  0  0  0  0
   32.7650   26.5910   47.0060 N   0  0  0  0  0  0  0  0  0  0  0  0
   31.9430   26.5330   48.9350 H   0  0  0  0  0  0  0  0  0  0  0  0
   32.9870   28.6200   49.6780 H   0  0  0  0  0  0  0  0  0  0  0  0
   33.8730   26.8790   44.7320 C   0  0  0  0  0  3  0  0  0  0  0  0
   34.7140   27.9030   44.0450 C   0  0  0  0  0  2  0  0  0  0  0  0
   34.0730   28.2500   42.7370 C   0  0  0  0  0  2  0  0  0  0  0  0
   32.9110   27.2980   42.5450 C   0  0  0  0  0  2  0  0  0  0  0  0
   32.6300   26.7170   43.9190 C   0  0  0  0  0  2  0  0  0  0  0  0
  1  4  1  6  0  0  0
  1  3  1  0  0  0  0
  1  2  1  0  0  0  0
  2  6  1  0  0  0  0
  2  5  1  0  0  0  0
  3  7  1  1  0  0  0
  3  2  1  0  0  0  0
  8  3  1  0  0  0  0
  8  9  1  0  0  0  0
  9 10  2  0  0  0  0
  9 18  1  0  0  0  0
 10 19  1  0  0  0  0
 11 10  1  0  0  0  0
 12 11  2  0  0  0  0
 13 21  1  0  0  0  0
 13 12  1  0  0  0  0
 14 13  2  0  0  0  0
 15 14  1  0  0  0  0
 15 16  2  0  0  0  0
 16 17  1  0  0  0  0
 17 12  1  0  0  0  0
 17  8  2  0  0  0  0
 20 11  1  0  0  0  0
 22 14  1  0  0  0  0
 23 15  1  0  0  0  0
 24 16  1  0  0  0  0
 25 26  1  0  0  0  0
 25 31  1  0  0  0  0
 26 32  1  0  0  0  0
 27  1  1  0  0  0  0
 27 26  2  0  0  0  0
 28 27  1  0  0  0  0
 29 28  2  0  0  0  0
 29 30  1  0  0  0  0
 30 25  2  0  0  0  0
 33 29  1  0  0  0  0
 34 33  1  0  0  0  0
 35 34  1  0  0  0  0
 36 35  1  0  0  0  0
 36 37  1  0  0  0  0
 37 33  1  0  0  0  0
M  END
>  <minimizedAffinity>
-6.49661493

>  <minimizedRMSD>
6.41693306

$$$$
