
 OpenBabel03272510303D

 24 26  0  0  0  0  0  0  0  0999 V2000
   37.1450   31.2860   49.2560 C   0  0  0  0  0  0  0  0  0  0  0  0
   37.3640   32.5400   49.8310 C   0  0  0  0  0  0  0  0  0  0  0  0
   38.3090   33.3380   49.1860 C   0  0  0  0  0  0  0  0  0  0  0  0
   38.9460   32.8780   48.0760 N   0  0  0  0  0  0  0  0  0  0  0  0
   38.6900   31.6410   47.5590 C   0  0  0  0  0  0  0  0  0  0  0  0
   37.7620   30.8220   48.1700 N   0  0  0  0  0  0  0  0  0  0  0  0
   36.8330   32.8680   50.7150 H   0  0  0  0  0  0  0  0  0  0  0  0
   38.5380   34.3270   49.5670 H   0  0  0  0  0  0  0  0  0  0  0  0
   36.1020   30.4200   49.8940 C   0  0  0  0  0  0  0  0  0  0  0  0
   36.0360   28.9920   49.6870 C   0  0  0  0  0  0  0  0  0  0  0  0
   36.6600   29.4860   50.9720 C   0  0  0  0  0  0  0  0  0  0  0  0
   35.2360   31.0580   50.2400 H   0  0  0  0  0  0  0  0  0  0  0  0
   36.7620   28.5590   48.9650 H   0  0  0  0  0  0  0  0  0  0  0  0
   35.0710   28.4580   49.6960 H   0  0  0  0  0  0  0  0  0  0  0  0
   36.0370   29.3790   51.8560 H   0  0  0  0  0  0  0  0  0  0  0  0
   37.7360   29.4630   51.1270 H   0  0  0  0  0  0  0  0  0  0  0  0
   39.3400   31.1360   46.3610 C   0  0  0  0  0  0  0  0  0  0  0  0
   39.9350   31.8960   45.8370 H   0  0  0  0  0  0  0  0  0  0  0  0
   40.0260   30.3160   46.6620 H   0  0  0  0  0  0  0  0  0  0  0  0
   38.3870   30.5610   45.3420 C   0  0  0  0  0  3  0  0  0  0  0  0
   39.2550   29.9250   44.2530 C   0  0  0  0  0  2  0  0  0  0  0  0
   38.4730   30.0400   42.9650 C   0  0  0  0  0  2  0  0  0  0  0  0
   37.2970   30.9500   43.2710 C   0  0  0  0  0  2  0  0  0  0  0  0
   37.6330   31.6170   44.5890 C   0  0  0  0  0  2  0  0  0  0  0  0
  1  2  1  0  0  0  0
  1  9  1  0  0  0  0
  2  7  1  0  0  0  0
  3  8  1  0  0  0  0
  3  2  2  0  0  0  0
  4  3  1  0  0  0  0
  5  4  2  0  0  0  0
  5  6  1  0  0  0  0
  6  1  2  0  0  0  0
  9 12  1  0  0  0  0
  9 11  1  0  0  0  0
 10 14  1  0  0  0  0
 10  9  1  0  0  0  0
 10 11  1  0  0  0  0
 11 16  1  0  0  0  0
 11 15  1  0  0  0  0
 13 10  1  0  0  0  0
 17 19  1  0  0  0  0
 17  5  1  0  0  0  0
 18 17  1  0  0  0  0
 20 17  1  0  0  0  0
 21 20  1  0  0  0  0
 22 23  1  0  0  0  0
 22 21  1  0  0  0  0
 23 24  1  0  0  0  0
 24 20  1  0  0  0  0
M  END
>  <minimizedAffinity>
-5.10224533

>  <minimizedRMSD>
1.43455935

$$$$
