
 OpenBabel03272510273D

 41 45  0  0  1  0  0  0  0  0999 V2000
   36.2340   30.1970   46.9180 C   0  0  0  0  0  0  0  0  0  0  0  0
   37.0790   30.7490   47.8780 C   0  0  0  0  0  0  0  0  0  0  0  0
   38.0770   31.6610   47.5230 C   0  0  0  0  0  0  0  0  0  0  0  0
   38.1730   31.9780   46.1720 C   0  0  0  0  0  0  0  0  0  0  0  0
   39.0570   32.8380   45.5850 N   0  0  0  0  0  0  0  0  0  0  0  0
   38.7760   32.8300   44.2750 C   0  0  0  0  0  0  0  0  0  0  0  0
   37.7650   32.0080   44.0390 N   0  0  0  0  0  0  0  0  0  0  0  0
   37.3600   31.4570   45.1960 C   0  0  0  0  0  0  0  0  0  0  0  0
   36.3710   30.5460   45.5860 C   0  0  0  0  0  0  0  0  0  0  0  0
   35.4600   29.4900   47.1910 H   0  0  0  0  0  0  0  0  0  0  0  0
   38.7420   32.0970   48.2650 H   0  0  0  0  0  0  0  0  0  0  0  0
   39.8120   33.3970   46.0670 H   0  0  0  0  0  0  0  0  0  0  0  0
   35.7310   30.1350   44.8150 H   0  0  0  0  0  0  0  0  0  0  0  0
   37.4410   30.1380   51.5590 C   0  0  0  0  0  0  0  0  0  0  0  0
   37.7810   30.5870   50.2960 C   0  0  0  0  0  0  0  0  0  0  0  0
   36.9000   30.3560   49.2640 C   0  0  0  0  0  0  0  0  0  0  0  0
   35.7310   29.6860   49.5640 N   0  0  0  0  0  0  0  0  0  0  0  0
   35.4220   29.2570   50.8040 C   0  0  0  0  0  0  0  0  0  0  0  0
   36.2690   29.4820   51.7830 N   0  0  0  0  0  0  0  0  0  0  0  0
   38.1920   30.3630   52.3130 H   0  0  0  0  0  0  0  0  0  0  0  0
   38.6920   31.1120   50.0480 H   0  0  0  0  0  0  0  0  0  0  0  0
   34.4870   28.7380   50.9680 H   0  0  0  0  0  0  0  0  0  0  0  0
   39.4850   33.6000   43.3520 O   0  0  0  0  0  0  0  0  0  0  0  0
   39.6530   31.8290   41.8840 N   0  0  0  0  0  0  0  0  0  0  0  0
   39.3130   33.2400   41.9890 C   0  0  1  0  0  0  0  0  0  0  0  0
   37.9430   33.4670   41.5590 C   0  0  0  0  0  0  0  0  0  0  0  0
   37.8330   33.1170   40.2010 O   0  0  0  0  0  0  0  0  0  0  0  0
   38.2350   31.8510   39.8880 C   0  0  0  0  0  0  0  0  0  0  0  0
   39.6090   31.5660   40.4660 C   0  0  2  0  0  0  0  0  0  0  0  0
   39.0210   31.1610   42.2980 H   0  0  0  0  0  0  0  0  0  0  0  0
   40.0230   33.7830   41.3440 H   0  0  0  0  0  0  0  0  0  0  0  0
   37.7790   34.5890   41.5420 H   0  0  0  0  0  0  0  0  0  0  0  0
   37.0800   33.0480   41.9990 H   0  0  0  0  0  0  0  0  0  0  0  0
   37.4700   31.1550   40.2640 H   0  0  0  0  0  0  0  0  0  0  0  0
   38.3490   31.7970   38.7980 H   0  0  0  0  0  0  0  0  0  0  0  0
   40.2680   32.3410   40.0080 H   0  0  0  0  0  0  0  0  0  0  0  0
   40.1590   30.2500   40.0680 C   0  0  0  0  0  3  0  0  0  0  0  0
   39.8830   29.1900   41.1020 C   0  0  0  0  0  2  0  0  0  0  0  0
   40.6560   28.0200   40.4780 C   0  0  0  0  0  2  0  0  0  0  0  0
   41.9690   28.6980   40.1520 C   0  0  0  0  0  2  0  0  0  0  0  0
   41.6500   30.1850   39.9570 C   0  0  0  0  0  2  0  0  0  0  0  0
  1 10  1  0  0  0  0
  1  2  1  0  0  0  0
  2 16  1  0  0  0  0
  3  2  2  0  0  0  0
  3 11  1  0  0  0  0
  4  3  1  0  0  0  0
  5 12  1  0  0  0  0
  5  4  1  0  0  0  0
  6  5  1  0  0  0  0
  7  6  2  0  0  0  0
  7  8  1  0  0  0  0
  8  9  1  0  0  0  0
  8  4  2  0  0  0  0
  9  1  2  0  0  0  0
 13  9  1  0  0  0  0
 14 19  1  0  0  0  0
 14 20  1  0  0  0  0
 15 14  2  0  0  0  0
 16 17  2  0  0  0  0
 16 15  1  0  0  0  0
 17 18  1  0  0  0  0
 18 22  1  0  0  0  0
 18 19  2  0  0  0  0
 21 15  1  0  0  0  0
 23  6  1  0  0  0  0
 24 25  1  0  0  0  0
 24 30  1  0  0  0  0
 25 31  1  6  0  0  0
 25 23  1  0  0  0  0
 26 25  1  0  0  0  0
 26 33  1  0  0  0  0
 27 26  1  0  0  0  0
 28 27  1  0  0  0  0
 28 34  1  0  0  0  0
 28 29  1  0  0  0  0
 29 36  1  6  0  0  0
 29 24  1  0  0  0  0
 32 26  1  0  0  0  0
 35 28  1  0  0  0  0
 37 29  1  0  0  0  0
 37 38  1  0  0  0  0
 39 38  1  0  0  0  0
 40 39  1  0  0  0  0
 41 37  1  0  0  0  0
 41 40  1  0  0  0  0
M  END
>  <minimizedAffinity>
-6.02362061

>  <minimizedRMSD>
0.262543619

$$$$
