
 OpenBabel03272508293D

 34 37  0  0  1  0  0  0  0  0999 V2000
   35.3430   25.4070   31.1320 C   0  0  2  0  0  0  0  0  0  0  0  0
   36.4770   26.4210   31.1020 C   0  0  2  0  0  0  0  0  0  0  0  0
   37.3990   25.9670   31.9970 O   0  0  0  0  0  0  0  0  0  0  0  0
   37.2700   24.6190   32.1730 C   0  0  0  0  0  0  0  0  0  0  0  0
   36.1670   24.1240   31.2620 C   0  0  1  0  0  0  0  0  0  0  0  0
   34.6790   25.5470   31.9890 H   0  0  0  0  0  0  0  0  0  0  0  0
   36.9220   26.4350   30.0880 H   0  0  0  0  0  0  0  0  0  0  0  0
   38.2170   24.1220   31.8460 H   0  0  0  0  0  0  0  0  0  0  0  0
   37.1250   24.2880   33.2200 H   0  0  0  0  0  0  0  0  0  0  0  0
   36.5660   23.8820   30.2480 H   0  0  0  0  0  0  0  0  0  0  0  0
   36.1680   28.3540   32.7960 C   0  0  1  0  0  0  0  0  0  0  0  0
   35.9000   27.7380   31.5180 C   0  0  1  0  0  0  0  0  0  0  0  0
   36.7100   28.9910   31.5060 C   0  0  0  0  0  0  0  0  0  0  0  0
   37.0090   28.1650   33.4870 H   0  0  0  0  0  0  0  0  0  0  0  0
   34.8510   27.8740   31.1290 H   0  0  0  0  0  0  0  0  0  0  0  0
   36.2540   29.9440   31.1570 H   0  0  0  0  0  0  0  0  0  0  0  0
   37.7930   28.9570   31.2980 H   0  0  0  0  0  0  0  0  0  0  0  0
   35.1390   29.2460   33.4710 C   0  0  0  0  0  0  0  0  0  0  0  0
   35.5670   30.0200   34.5500 C   0  0  0  0  0  0  0  0  0  0  0  0
   34.5840   30.7970   35.1470 C   0  0  0  0  0  0  0  0  0  0  0  0
   33.2900   30.7770   34.6790 N   0  0  0  0  0  0  0  0  0  0  0  0
   32.9240   30.0110   33.6320 C   0  0  0  0  0  0  0  0  0  0  0  0
   33.8600   29.2350   33.0170 N   0  0  0  0  0  0  0  0  0  0  0  0
   36.5840   30.0130   34.8900 H   0  0  0  0  0  0  0  0  0  0  0  0
   34.8210   31.4360   35.9960 H   0  0  0  0  0  0  0  0  0  0  0  0
   31.8950   30.0310   33.3030 H   0  0  0  0  0  0  0  0  0  0  0  0
   34.5800   25.3950   29.9820 O   0  0  0  0  0  0  0  0  0  0  0  0
   35.1760   25.0130   29.2650 H   0  0  0  0  0  0  0  0  0  0  0  0
   35.4480   23.0970   31.8000 O   0  0  0  0  0  0  0  0  0  0  0  0
   36.1350   21.9250   31.9720 C   0  0  0  0  0  3  0  0  0  0  0  0
   35.6120   20.8400   31.0250 C   0  0  0  0  0  2  0  0  0  0  0  0
   34.6950   20.0140   31.9210 C   0  0  0  0  0  2  0  0  0  0  0  0
   35.5790   19.9330   33.1710 C   0  0  0  0  0  2  0  0  0  0  0  0
   35.8710   21.4230   33.3780 C   0  0  0  0  0  2  0  0  0  0  0  0
  1  5  1  0  0  0  0
  1  6  1  1  0  0  0
  2  7  1  6  0  0  0
  2  1  1  0  0  0  0
  2 12  1  0  0  0  0
  2  3  1  0  0  0  0
  3  4  1  0  0  0  0
  4  9  1  0  0  0  0
  5 10  1  6  0  0  0
  5 29  1  0  0  0  0
  5  4  1  0  0  0  0
  8  4  1  0  0  0  0
 11 18  1  0  0  0  0
 11 14  1  1  0  0  0
 12 15  1  6  0  0  0
 12 11  1  0  0  0  0
 13 12  1  0  0  0  0
 13 11  1  0  0  0  0
 16 13  1  0  0  0  0
 17 13  1  0  0  0  0
 18 19  1  0  0  0  0
 19 24  1  0  0  0  0
 19 20  2  0  0  0  0
 20 25  1  0  0  0  0
 21 20  1  0  0  0  0
 22 21  2  0  0  0  0
 23 18  2  0  0  0  0
 23 22  1  0  0  0  0
 26 22  1  0  0  0  0
 27  1  1  0  0  0  0
 28 27  1  0  0  0  0
 29 30  1  0  0  0  0
 30 34  1  0  0  0  0
 31 32  1  0  0  0  0
 31 30  1  0  0  0  0
 32 33  1  0  0  0  0
 33 34  1  0  0  0  0
M  END
>  <minimizedAffinity>
-5.3226552

$$$$

 OpenBabel03272508293D

 34 37  0  0  1  0  0  0  0  0999 V2000
   38.9170   23.7920   34.0550 C   0  0  2  0  0  0  0  0  0  0  0  0
   39.1620   24.6830   35.2650 C   0  0  2  0  0  0  0  0  0  0  0  0
   38.3620   24.1890   36.2510 O   0  0  0  0  0  0  0  0  0  0  0  0
   38.0760   22.8740   36.0220 C   0  0  0  0  0  0  0  0  0  0  0  0
   38.8030   22.4420   34.7660 C   0  0  1  0  0  0  0  0  0  0  0  0
   37.9950   24.0480   33.5270 H   0  0  0  0  0  0  0  0  0  0  0  0
   40.2230   24.5930   35.5700 H   0  0  0  0  0  0  0  0  0  0  0  0
   38.4860   22.2650   36.8670 H   0  0  0  0  0  0  0  0  0  0  0  0
   36.9990   22.6200   35.9880 H   0  0  0  0  0  0  0  0  0  0  0  0
   39.8400   22.1030   35.0020 H   0  0  0  0  0  0  0  0  0  0  0  0
   37.4160   26.5670   34.9520 C   0  0  1  0  0  0  0  0  0  0  0  0
   38.7700   26.0730   34.8740 C   0  0  1  0  0  0  0  0  0  0  0  0
   38.4950   27.1280   35.8920 C   0  0  0  0  0  0  0  0  0  0  0  0
   36.5760   26.1790   35.5560 H   0  0  0  0  0  0  0  0  0  0  0  0
   39.3670   26.4410   33.9910 H   0  0  0  0  0  0  0  0  0  0  0  0
   38.8510   28.1690   35.7230 H   0  0  0  0  0  0  0  0  0  0  0  0
   38.4620   26.8780   36.9660 H   0  0  0  0  0  0  0  0  0  0  0  0
   36.9080   27.6260   33.9880 C   0  0  0  0  0  0  0  0  0  0  0  0
   37.3910   27.5920   32.6790 C   0  0  0  0  0  0  0  0  0  0  0  0
   36.9170   28.5950   31.8460 C   0  0  0  0  0  0  0  0  0  0  0  0
   36.0330   29.5400   32.3160 N   0  0  0  0  0  0  0  0  0  0  0  0
   35.5940   29.5330   33.5900 C   0  0  0  0  0  0  0  0  0  0  0  0
   36.0350   28.5630   34.4390 N   0  0  0  0  0  0  0  0  0  0  0  0
   38.0810   26.8410   32.3450 H   0  0  0  0  0  0  0  0  0  0  0  0
   37.2360   28.6520   30.8070 H   0  0  0  0  0  0  0  0  0  0  0  0
   34.9000   30.2970   33.9090 H   0  0  0  0  0  0  0  0  0  0  0  0
   39.9570   23.7920   33.1480 O   0  0  0  0  0  0  0  0  0  0  0  0
   40.7150   23.3110   33.6050 H   0  0  0  0  0  0  0  0  0  0  0  0
   38.1070   21.5260   34.0330 O   0  0  0  0  0  0  0  0  0  0  0  0
   36.7970   21.8420   33.7880 C   0  0  0  0  0  3  0  0  0  0  0  0
   35.8610   20.7680   34.3510 C   0  0  0  0  0  2  0  0  0  0  0  0
   35.5140   19.9350   33.1210 C   0  0  0  0  0  2  0  0  0  0  0  0
   35.2740   21.0680   32.1160 C   0  0  0  0  0  2  0  0  0  0  0  0
   36.5830   21.8460   32.2870 C   0  0  0  0  0  2  0  0  0  0  0  0
  1  6  1  6  0  0  0
  1  5  1  0  0  0  0
  1  2  1  0  0  0  0
  2  7  1  1  0  0  0
  2  3  1  0  0  0  0
  4  3  1  0  0  0  0
  4  8  1  0  0  0  0
  5 10  1  1  0  0  0
  5  4  1  0  0  0  0
  9  4  1  0  0  0  0
 11 14  1  1  0  0  0
 11 13  1  0  0  0  0
 12 15  1  6  0  0  0
 12 11  1  0  0  0  0
 12  2  1  0  0  0  0
 12 13  1  0  0  0  0
 13 17  1  0  0  0  0
 16 13  1  0  0  0  0
 18 23  1  0  0  0  0
 18 11  1  0  0  0  0
 19 18  2  0  0  0  0
 20 21  2  0  0  0  0
 20 19  1  0  0  0  0
 21 22  1  0  0  0  0
 22 26  1  0  0  0  0
 22 23  2  0  0  0  0
 24 19  1  0  0  0  0
 25 20  1  0  0  0  0
 27 28  1  0  0  0  0
 27  1  1  0  0  0  0
 29  5  1  0  0  0  0
 30 29  1  0  0  0  0
 30 31  1  0  0  0  0
 32 31  1  0  0  0  0
 33 34  1  0  0  0  0
 33 32  1  0  0  0  0
 34 30  1  0  0  0  0
M  END
>  <minimizedAffinity>
-5.20600557

$$$$

 OpenBabel03272508293D

 34 37  0  0  1  0  0  0  0  0999 V2000
   36.2620   25.0420   31.3080 C   0  0  2  0  0  0  0  0  0  0  0  0
   37.6110   25.6950   31.0360 C   0  0  2  0  0  0  0  0  0  0  0  0
   38.5400   24.8440   31.5540 O   0  0  0  0  0  0  0  0  0  0  0  0
   38.0420   23.5740   31.6220 C   0  0  0  0  0  0  0  0  0  0  0  0
   36.6420   23.5830   31.0470 C   0  0  1  0  0  0  0  0  0  0  0  0
   35.9250   25.1920   32.3370 H   0  0  0  0  0  0  0  0  0  0  0  0
   37.7560   25.7800   29.9420 H   0  0  0  0  0  0  0  0  0  0  0  0
   38.6630   22.9100   30.9700 H   0  0  0  0  0  0  0  0  0  0  0  0
   38.0780   23.1020   32.6230 H   0  0  0  0  0  0  0  0  0  0  0  0
   36.6630   23.4400   29.9400 H   0  0  0  0  0  0  0  0  0  0  0  0
   36.7310   27.3250   32.8440 C   0  0  1  0  0  0  0  0  0  0  0  0
   37.6100   27.0140   31.7420 C   0  0  1  0  0  0  0  0  0  0  0  0
   38.2430   27.1900   33.0820 C   0  0  0  0  0  0  0  0  0  0  0  0
   36.1960   26.6280   33.5140 H   0  0  0  0  0  0  0  0  0  0  0  0
   37.8110   27.8670   31.0320 H   0  0  0  0  0  0  0  0  0  0  0  0
   38.8260   28.1120   33.3040 H   0  0  0  0  0  0  0  0  0  0  0  0
   38.6290   26.3200   33.6390 H   0  0  0  0  0  0  0  0  0  0  0  0
   36.2500   28.7450   33.0910 C   0  0  0  0  0  0  0  0  0  0  0  0
   35.7860   29.0550   34.3700 C   0  0  0  0  0  0  0  0  0  0  0  0
   35.3340   30.3560   34.5370 C   0  0  0  0  0  0  0  0  0  0  0  0
   35.3580   31.2480   33.4890 N   0  0  0  0  0  0  0  0  0  0  0  0
   35.8150   30.9020   32.2690 C   0  0  0  0  0  0  0  0  0  0  0  0
   36.2690   29.6340   32.0650 N   0  0  0  0  0  0  0  0  0  0  0  0
   35.7810   28.3350   35.1650 H   0  0  0  0  0  0  0  0  0  0  0  0
   34.9540   30.6930   35.5000 H   0  0  0  0  0  0  0  0  0  0  0  0
   35.8130   31.6400   31.4800 H   0  0  0  0  0  0  0  0  0  0  0  0
   35.2630   25.4590   30.4520 O   0  0  0  0  0  0  0  0  0  0  0  0
   35.4980   25.0730   29.5520 H   0  0  0  0  0  0  0  0  0  0  0  0
   35.8010   22.7090   31.6710 O   0  0  0  0  0  0  0  0  0  0  0  0
   36.3570   21.5070   32.0220 C   0  0  0  0  0  3  0  0  0  0  0  0
   35.8710   20.3870   31.0980 C   0  0  0  0  0  2  0  0  0  0  0  0
   34.7770   19.7120   31.9210 C   0  0  0  0  0  2  0  0  0  0  0  0
   35.4820   19.6740   33.2820 C   0  0  0  0  0  2  0  0  0  0  0  0
   35.8710   21.1500   33.4130 C   0  0  0  0  0  2  0  0  0  0  0  0
  1  6  1  1  0  0  0
  2  7  1  6  0  0  0
  2  1  1  0  0  0  0
  2  3  1  0  0  0  0
  2 12  1  0  0  0  0
  3  4  1  0  0  0  0
  4  9  1  0  0  0  0
  5 10  1  6  0  0  0
  5  1  1  0  0  0  0
  5  4  1  0  0  0  0
  5 29  1  0  0  0  0
  8  4  1  0  0  0  0
 11 13  1  0  0  0  0
 11 18  1  0  0  0  0
 11 14  1  1  0  0  0
 12 15  1  6  0  0  0
 12 11  1  0  0  0  0
 12 13  1  0  0  0  0
 13 16  1  0  0  0  0
 13 17  1  0  0  0  0
 18 19  1  0  0  0  0
 19 20  2  0  0  0  0
 19 24  1  0  0  0  0
 20 25  1  0  0  0  0
 21 20  1  0  0  0  0
 22 21  2  0  0  0  0
 23 22  1  0  0  0  0
 23 18  2  0  0  0  0
 26 22  1  0  0  0  0
 27  1  1  0  0  0  0
 28 27  1  0  0  0  0
 29 30  1  0  0  0  0
 30 34  1  0  0  0  0
 31 32  1  0  0  0  0
 31 30  1  0  0  0  0
 32 33  1  0  0  0  0
 33 34  1  0  0  0  0
M  END
>  <minimizedAffinity>
-5.11158705

$$$$

 OpenBabel03272508293D

 34 37  0  0  1  0  0  0  0  0999 V2000
   36.5110   27.3110   30.9030 C   0  0  2  0  0  0  0  0  0  0  0  0
   36.8960   28.3900   31.9050 C   0  0  2  0  0  0  0  0  0  0  0  0
   37.3680   27.7250   32.9960 O   0  0  0  0  0  0  0  0  0  0  0  0
   37.8180   26.4850   32.6430 C   0  0  0  0  0  0  0  0  0  0  0  0
   37.6620   26.3330   31.1450 C   0  0  1  0  0  0  0  0  0  0  0  0
   35.5420   26.8570   31.1290 H   0  0  0  0  0  0  0  0  0  0  0  0
   37.7040   29.0120   31.4720 H   0  0  0  0  0  0  0  0  0  0  0  0
   38.9120   26.4230   32.8700 H   0  0  0  0  0  0  0  0  0  0  0  0
   37.3660   25.6400   33.1970 H   0  0  0  0  0  0  0  0  0  0  0  0
   38.5550   26.7320   30.6080 H   0  0  0  0  0  0  0  0  0  0  0  0
   35.2120   29.4430   33.5640 C   0  0  1  0  0  0  0  0  0  0  0  0
   35.6530   29.1620   32.2180 C   0  0  1  0  0  0  0  0  0  0  0  0
   35.7020   30.5860   32.6600 C   0  0  0  0  0  0  0  0  0  0  0  0
   35.8040   29.4400   34.4960 H   0  0  0  0  0  0  0  0  0  0  0  0
   34.8310   28.9470   31.4770 H   0  0  0  0  0  0  0  0  0  0  0  0
   34.9520   31.3130   32.2760 H   0  0  0  0  0  0  0  0  0  0  0  0
   36.6670   31.0740   32.8780 H   0  0  0  0  0  0  0  0  0  0  0  0
   33.7350   29.5860   33.8940 C   0  0  0  0  0  0  0  0  0  0  0  0
   33.4020   30.1190   35.1400 C   0  0  0  0  0  0  0  0  0  0  0  0
   32.0420   30.2040   35.4030 C   0  0  0  0  0  0  0  0  0  0  0  0
   31.1180   29.7800   34.4750 N   0  0  0  0  0  0  0  0  0  0  0  0
   31.4880   29.2700   33.2830 C   0  0  0  0  0  0  0  0  0  0  0  0
   32.8140   29.1720   32.9860 N   0  0  0  0  0  0  0  0  0  0  0  0
   34.1470   30.4400   35.8410 H   0  0  0  0  0  0  0  0  0  0  0  0
   31.6830   30.6070   36.3490 H   0  0  0  0  0  0  0  0  0  0  0  0
   30.7240   28.9520   32.5890 H   0  0  0  0  0  0  0  0  0  0  0  0
   36.4960   27.7500   29.5940 O   0  0  0  0  0  0  0  0  0  0  0  0
   37.4600   27.9170   29.3530 H   0  0  0  0  0  0  0  0  0  0  0  0
   37.3500   25.0600   30.7660 O   0  0  0  0  0  0  0  0  0  0  0  0
   36.9290   24.2330   31.7740 C   0  0  0  0  0  3  0  0  0  0  0  0
   37.7940   22.9710   31.8440 C   0  0  0  0  0  2  0  0  0  0  0  0
   36.9440   21.9300   31.1220 C   0  0  0  0  0  2  0  0  0  0  0  0
   35.5780   22.2620   31.7350 C   0  0  0  0  0  2  0  0  0  0  0  0
   35.5240   23.7660   31.4480 C   0  0  0  0  0  2  0  0  0  0  0  0
  1  6  1  1  0  0  0
  1  5  1  0  0  0  0
  1  2  1  0  0  0  0
  2  7  1  6  0  0  0
  2 12  1  0  0  0  0
  2  3  1  0  0  0  0
  4  8  1  0  0  0  0
  4  3  1  0  0  0  0
  4  9  1  0  0  0  0
  5 10  1  6  0  0  0
  5  4  1  0  0  0  0
 11 18  1  0  0  0  0
 11 14  1  1  0  0  0
 12 15  1  6  0  0  0
 12 13  1  0  0  0  0
 12 11  1  0  0  0  0
 13 17  1  0  0  0  0
 13 11  1  0  0  0  0
 16 13  1  0  0  0  0
 18 19  1  0  0  0  0
 19 20  2  0  0  0  0
 19 24  1  0  0  0  0
 20 25  1  0  0  0  0
 21 20  1  0  0  0  0
 22 21  2  0  0  0  0
 23 22  1  0  0  0  0
 23 18  2  0  0  0  0
 26 22  1  0  0  0  0
 27  1  1  0  0  0  0
 28 27  1  0  0  0  0
 29  5  1  0  0  0  0
 29 30  1  0  0  0  0
 30 31  1  0  0  0  0
 32 33  1  0  0  0  0
 32 31  1  0  0  0  0
 34 33  1  0  0  0  0
 34 30  1  0  0  0  0
M  END
>  <minimizedAffinity>
-5.02568436

$$$$

 OpenBabel03272508293D

 34 37  0  0  1  0  0  0  0  0999 V2000
   38.5640   24.5120   33.2550 C   0  0  2  0  0  0  0  0  0  0  0  0
   37.6720   25.0890   32.1650 C   0  0  2  0  0  0  0  0  0  0  0  0
   36.7800   25.8930   32.8080 O   0  0  0  0  0  0  0  0  0  0  0  0
   37.2880   26.3080   34.0060 C   0  0  0  0  0  0  0  0  0  0  0  0
   38.6870   25.7480   34.1480 C   0  0  1  0  0  0  0  0  0  0  0  0
   38.0920   23.6790   33.7840 H   0  0  0  0  0  0  0  0  0  0  0  0
   38.2920   25.6980   31.4780 H   0  0  0  0  0  0  0  0  0  0  0  0
   37.3780   27.4230   33.9890 H   0  0  0  0  0  0  0  0  0  0  0  0
   36.6590   26.0890   34.8910 H   0  0  0  0  0  0  0  0  0  0  0  0
   39.4380   26.4250   33.6750 H   0  0  0  0  0  0  0  0  0  0  0  0
   36.1310   23.0100   32.1840 C   0  0  1  0  0  0  0  0  0  0  0  0
   36.9970   23.9350   31.4930 C   0  0  1  0  0  0  0  0  0  0  0  0
   35.5490   23.9700   31.1350 C   0  0  0  0  0  0  0  0  0  0  0  0
   35.5970   23.1530   33.1410 H   0  0  0  0  0  0  0  0  0  0  0  0
   37.6490   23.4780   30.6940 H   0  0  0  0  0  0  0  0  0  0  0  0
   35.2070   23.5460   30.1640 H   0  0  0  0  0  0  0  0  0  0  0  0
   34.9110   24.8080   31.4610 H   0  0  0  0  0  0  0  0  0  0  0  0
   36.0140   21.5600   31.7430 C   0  0  0  0  0  0  0  0  0  0  0  0
   34.9950   20.7940   32.3100 C   0  0  0  0  0  0  0  0  0  0  0  0
   34.9470   19.4710   31.8930 C   0  0  0  0  0  0  0  0  0  0  0  0
   35.8590   18.9870   30.9830 N   0  0  0  0  0  0  0  0  0  0  0  0
   36.8280   19.7670   30.4620 C   0  0  0  0  0  0  0  0  0  0  0  0
   36.9070   21.0720   30.8440 N   0  0  0  0  0  0  0  0  0  0  0  0
   34.3010   21.2020   33.0180 H   0  0  0  0  0  0  0  0  0  0  0  0
   34.1870   18.7940   32.2800 H   0  0  0  0  0  0  0  0  0  0  0  0
   37.5180   19.3380   29.7500 H   0  0  0  0  0  0  0  0  0  0  0  0
   39.8000   24.1000   32.8000 O   0  0  0  0  0  0  0  0  0  0  0  0
   40.2940   24.9440   32.5580 H   0  0  0  0  0  0  0  0  0  0  0  0
   39.0070   25.4290   35.4350 O   0  0  0  0  0  0  0  0  0  0  0  0
   38.6430   24.1720   35.8370 C   0  0  0  0  0  3  0  0  0  0  0  0
   37.6030   24.2350   36.9590 C   0  0  0  0  0  2  0  0  0  0  0  0
   38.4360   24.0040   38.2160 C   0  0  0  0  0  2  0  0  0  0  0  0
   39.3240   22.8580   37.7150 C   0  0  0  0  0  2  0  0  0  0  0  0
   39.8630   23.4920   36.4290 C   0  0  0  0  0  2  0  0  0  0  0  0
  1  6  1  1  0  0  0
  1  5  1  0  0  0  0
  2  7  1  6  0  0  0
  2  3  1  0  0  0  0
  2  1  1  0  0  0  0
  3  4  1  0  0  0  0
  4  5  1  0  0  0  0
  4  9  1  0  0  0  0
  5 10  1  6  0  0  0
  5 29  1  0  0  0  0
  8  4  1  0  0  0  0
 11 14  1  1  0  0  0
 12 15  1  6  0  0  0
 12  2  1  0  0  0  0
 12 11  1  0  0  0  0
 13 17  1  0  0  0  0
 13 12  1  0  0  0  0
 13 11  1  0  0  0  0
 16 13  1  0  0  0  0
 18 11  1  0  0  0  0
 18 19  1  0  0  0  0
 19 24  1  0  0  0  0
 20 25  1  0  0  0  0
 20 19  2  0  0  0  0
 21 20  1  0  0  0  0
 22 23  1  0  0  0  0
 22 21  2  0  0  0  0
 23 18  2  0  0  0  0
 26 22  1  0  0  0  0
 27  1  1  0  0  0  0
 28 27  1  0  0  0  0
 29 30  1  0  0  0  0
 30 34  1  0  0  0  0
 30 31  1  0  0  0  0
 31 32  1  0  0  0  0
 33 32  1  0  0  0  0
 34 33  1  0  0  0  0
M  END
>  <minimizedAffinity>
-5.01913309

$$$$

 OpenBabel03272508293D

 34 37  0  0  1  0  0  0  0  0999 V2000
   38.3010   26.7280   34.4590 C   0  0  2  0  0  0  0  0  0  0  0  0
   37.2120   26.6950   33.3960 C   0  0  2  0  0  0  0  0  0  0  0  0
   37.2830   25.4550   32.8370 O   0  0  0  0  0  0  0  0  0  0  0  0
   37.8570   24.5710   33.7050 C   0  0  0  0  0  0  0  0  0  0  0  0
   38.1610   25.3020   34.9950 C   0  0  1  0  0  0  0  0  0  0  0  0
   39.2940   26.9030   34.0350 H   0  0  0  0  0  0  0  0  0  0  0  0
   36.2270   26.8240   33.8860 H   0  0  0  0  0  0  0  0  0  0  0  0
   37.1140   23.7700   33.9450 H   0  0  0  0  0  0  0  0  0  0  0  0
   38.7410   24.0280   33.3160 H   0  0  0  0  0  0  0  0  0  0  0  0
   37.2770   25.2900   35.6780 H   0  0  0  0  0  0  0  0  0  0  0  0
   37.1670   27.6990   31.0110 C   0  0  1  0  0  0  0  0  0  0  0  0
   37.5310   27.7710   32.4070 C   0  0  1  0  0  0  0  0  0  0  0  0
   36.4950   28.7330   31.9290 C   0  0  0  0  0  0  0  0  0  0  0  0
   36.3880   27.0770   30.5350 H   0  0  0  0  0  0  0  0  0  0  0  0
   38.5290   28.2510   32.6190 H   0  0  0  0  0  0  0  0  0  0  0  0
   36.7550   29.8060   31.7930 H   0  0  0  0  0  0  0  0  0  0  0  0
   35.4360   28.6020   32.2090 H   0  0  0  0  0  0  0  0  0  0  0  0
   38.0150   28.3680   29.9420 C   0  0  0  0  0  0  0  0  0  0  0  0
   39.4010   28.2770   30.0670 C   0  0  0  0  0  0  0  0  0  0  0  0
   40.1290   28.9260   29.0800 C   0  0  0  0  0  0  0  0  0  0  0  0
   39.4910   29.6020   28.0650 N   0  0  0  0  0  0  0  0  0  0  0  0
   38.1470   29.6640   27.9860 C   0  0  0  0  0  0  0  0  0  0  0  0
   37.3960   29.0380   28.9350 N   0  0  0  0  0  0  0  0  0  0  0  0
   39.8680   27.7410   30.8710 H   0  0  0  0  0  0  0  0  0  0  0  0
   41.2180   28.9100   29.0920 H   0  0  0  0  0  0  0  0  0  0  0  0
   37.6940   30.2070   27.1690 H   0  0  0  0  0  0  0  0  0  0  0  0
   38.0770   27.6590   35.4530 O   0  0  0  0  0  0  0  0  0  0  0  0
   37.2910   27.3120   35.9780 H   0  0  0  0  0  0  0  0  0  0  0  0
   39.2990   24.8620   35.6050 O   0  0  0  0  0  0  0  0  0  0  0  0
   39.3360   23.5220   35.8860 C   0  0  0  0  0  3  0  0  0  0  0  0
   38.4410   23.1900   37.0840 C   0  0  0  0  0  2  0  0  0  0  0  0
   39.4340   23.0920   38.2390 C   0  0  0  0  0  2  0  0  0  0  0  0
   40.5420   22.2920   37.5430 C   0  0  0  0  0  2  0  0  0  0  0  0
   40.7500   23.1640   36.3010 C   0  0  0  0  0  2  0  0  0  0  0  0
  1  6  1  6  0  0  0
  1  5  1  0  0  0  0
  1 27  1  0  0  0  0
  2  7  1  1  0  0  0
  2  1  1  0  0  0  0
  3  2  1  0  0  0  0
  3  4  1  0  0  0  0
  4  8  1  0  0  0  0
  4  5  1  0  0  0  0
  5 29  1  0  0  0  0
  5 10  1  1  0  0  0
  9  4  1  0  0  0  0
 11 14  1  6  0  0  0
 11 13  1  0  0  0  0
 11 12  1  0  0  0  0
 12 15  1  1  0  0  0
 12  2  1  0  0  0  0
 13 17  1  0  0  0  0
 13 12  1  0  0  0  0
 16 13  1  0  0  0  0
 18 19  1  0  0  0  0
 18 11  1  0  0  0  0
 19 24  1  0  0  0  0
 20 25  1  0  0  0  0
 20 19  2  0  0  0  0
 21 20  1  0  0  0  0
 22 21  2  0  0  0  0
 22 23  1  0  0  0  0
 23 18  2  0  0  0  0
 26 22  1  0  0  0  0
 27 28  1  0  0  0  0
 29 30  1  0  0  0  0
 30 34  1  0  0  0  0
 30 31  1  0  0  0  0
 31 32  1  0  0  0  0
 33 32  1  0  0  0  0
 34 33  1  0  0  0  0
M  END
>  <minimizedAffinity>
-4.81975651

$$$$

 OpenBabel03272508293D

 34 37  0  0  1  0  0  0  0  0999 V2000
   37.5450   24.4100   32.0280 C   0  0  2  0  0  0  0  0  0  0  0  0
   36.4720   25.4850   32.1370 C   0  0  2  0  0  0  0  0  0  0  0  0
   35.4640   25.0810   31.3150 O   0  0  0  0  0  0  0  0  0  0  0  0
   35.5050   23.7280   31.1370 C   0  0  0  0  0  0  0  0  0  0  0  0
   36.6440   23.1740   31.9660 C   0  0  1  0  0  0  0  0  0  0  0  0
   38.1500   24.5130   31.1240 H   0  0  0  0  0  0  0  0  0  0  0  0
   36.1060   25.5240   33.1820 H   0  0  0  0  0  0  0  0  0  0  0  0
   34.5590   23.2840   31.5360 H   0  0  0  0  0  0  0  0  0  0  0  0
   35.5540   23.3890   30.0830 H   0  0  0  0  0  0  0  0  0  0  0  0
   36.3100   22.9550   33.0080 H   0  0  0  0  0  0  0  0  0  0  0  0
   36.3270   27.9700   31.4280 C   0  0  1  0  0  0  0  0  0  0  0  0
   37.0870   26.7680   31.6740 C   0  0  1  0  0  0  0  0  0  0  0  0
   37.3160   27.9120   32.6030 C   0  0  0  0  0  0  0  0  0  0  0  0
   35.3260   28.2400   31.8110 H   0  0  0  0  0  0  0  0  0  0  0  0
   37.9430   26.5860   30.9620 H   0  0  0  0  0  0  0  0  0  0  0  0
   38.2540   28.5070   32.5330 H   0  0  0  0  0  0  0  0  0  0  0  0
   36.9290   27.8820   33.6360 H   0  0  0  0  0  0  0  0  0  0  0  0
   36.7640   28.9780   30.3780 C   0  0  0  0  0  0  0  0  0  0  0  0
   36.4100   30.3130   30.5790 C   0  0  0  0  0  0  0  0  0  0  0  0
   36.8110   31.1880   29.5800 C   0  0  0  0  0  0  0  0  0  0  0  0
   37.5050   30.7330   28.4820 N   0  0  0  0  0  0  0  0  0  0  0  0
   37.8240   29.4320   28.3310 C   0  0  0  0  0  0  0  0  0  0  0  0
   37.4500   28.5400   29.2910 N   0  0  0  0  0  0  0  0  0  0  0  0
   35.8680   30.6350   31.4470 H   0  0  0  0  0  0  0  0  0  0  0  0
   36.5820   32.2500   29.6480 H   0  0  0  0  0  0  0  0  0  0  0  0
   38.3700   29.1250   27.4510 H   0  0  0  0  0  0  0  0  0  0  0  0
   38.3890   24.3570   33.1190 O   0  0  0  0  0  0  0  0  0  0  0  0
   37.8280   24.0100   33.8800 H   0  0  0  0  0  0  0  0  0  0  0  0
   37.2650   22.1090   31.3810 O   0  0  0  0  0  0  0  0  0  0  0  0
   37.1850   20.9300   32.0730 C   0  0  0  0  0  3  0  0  0  0  0  0
   36.2900   19.9260   31.3420 C   0  0  0  0  0  2  0  0  0  0  0  0
   34.9650   20.0370   32.0900 C   0  0  0  0  0  2  0  0  0  0  0  0
   35.4970   20.0670   33.5280 C   0  0  0  0  0  2  0  0  0  0  0  0
   36.5140   21.2070   33.4040 C   0  0  0  0  0  2  0  0  0  0  0  0
  1  6  1  6  0  0  0
  1  2  1  0  0  0  0
  1 27  1  0  0  0  0
  2  7  1  1  0  0  0
  3  2  1  0  0  0  0
  4  3  1  0  0  0  0
  4  8  1  0  0  0  0
  4  5  1  0  0  0  0
  5  1  1  0  0  0  0
  5 10  1  1  0  0  0
  9  4  1  0  0  0  0
 11 12  1  0  0  0  0
 11 14  1  1  0  0  0
 11 13  1  0  0  0  0
 12 15  1  6  0  0  0
 12  2  1  0  0  0  0
 12 13  1  0  0  0  0
 13 17  1  0  0  0  0
 16 13  1  0  0  0  0
 18 19  1  0  0  0  0
 18 11  1  0  0  0  0
 19 24  1  0  0  0  0
 20 25  1  0  0  0  0
 20 19  2  0  0  0  0
 21 20  1  0  0  0  0
 22 21  2  0  0  0  0
 22 23  1  0  0  0  0
 23 18  2  0  0  0  0
 26 22  1  0  0  0  0
 27 28  1  0  0  0  0
 29  5  1  0  0  0  0
 29 30  1  0  0  0  0
 30 34  1  0  0  0  0
 31 30  1  0  0  0  0
 31 32  1  0  0  0  0
 32 33  1  0  0  0  0
 34 33  1  0  0  0  0
M  END
>  <minimizedAffinity>
-4.81262684

$$$$

 OpenBabel03272508293D

 34 37  0  0  1  0  0  0  0  0999 V2000
   36.1290   26.3080   31.4450 C   0  0  2  0  0  0  0  0  0  0  0  0
   36.9450   27.1830   32.3860 C   0  0  2  0  0  0  0  0  0  0  0  0
   37.4530   26.3370   33.3260 O   0  0  0  0  0  0  0  0  0  0  0  0
   37.5210   25.0640   32.8360 C   0  0  0  0  0  0  0  0  0  0  0  0
   37.0440   25.0820   31.4000 C   0  0  1  0  0  0  0  0  0  0  0  0
   35.1450   26.0610   31.8520 H   0  0  0  0  0  0  0  0  0  0  0  0
   37.7760   27.6460   31.8180 H   0  0  0  0  0  0  0  0  0  0  0  0
   38.5920   24.7420   32.8250 H   0  0  0  0  0  0  0  0  0  0  0  0
   37.0010   24.2940   33.4390 H   0  0  0  0  0  0  0  0  0  0  0  0
   37.8830   25.3200   30.7030 H   0  0  0  0  0  0  0  0  0  0  0  0
   35.9690   29.5710   32.5970 C   0  0  1  0  0  0  0  0  0  0  0  0
   36.0040   28.1800   32.9850 C   0  0  1  0  0  0  0  0  0  0  0  0
   34.7870   28.6480   32.2600 C   0  0  0  0  0  0  0  0  0  0  0  0
   36.3430   30.0340   31.6670 H   0  0  0  0  0  0  0  0  0  0  0  0
   35.8290   27.9820   34.0810 H   0  0  0  0  0  0  0  0  0  0  0  0
   33.8320   28.7900   32.8120 H   0  0  0  0  0  0  0  0  0  0  0  0
   34.6110   28.3540   31.2110 H   0  0  0  0  0  0  0  0  0  0  0  0
   35.5680   30.6530   33.5860 C   0  0  0  0  0  0  0  0  0  0  0  0
   35.8110   30.4130   34.9390 C   0  0  0  0  0  0  0  0  0  0  0  0
   35.4040   31.4210   35.8020 C   0  0  0  0  0  0  0  0  0  0  0  0
   34.8040   32.5610   35.3180 N   0  0  0  0  0  0  0  0  0  0  0  0
   34.5890   32.7480   34.0010 C   0  0  0  0  0  0  0  0  0  0  0  0
   34.9760   31.7830   33.1200 N   0  0  0  0  0  0  0  0  0  0  0  0
   36.2810   29.5120   35.2830 H   0  0  0  0  0  0  0  0  0  0  0  0
   35.5520   31.3250   36.8760 H   0  0  0  0  0  0  0  0  0  0  0  0
   34.1150   33.6620   33.6720 H   0  0  0  0  0  0  0  0  0  0  0  0
   35.9620   26.8520   30.1870 O   0  0  0  0  0  0  0  0  0  0  0  0
   36.8720   26.8230   29.7560 H   0  0  0  0  0  0  0  0  0  0  0  0
   36.3740   23.9480   31.0440 O   0  0  0  0  0  0  0  0  0  0  0  0
   36.5800   22.8640   31.8560 C   0  0  0  0  0  3  0  0  0  0  0  0
   37.4210   21.8000   31.1460 C   0  0  0  0  0  2  0  0  0  0  0  0
   36.3770   20.7930   30.6740 C   0  0  0  0  0  2  0  0  0  0  0  0
   35.5090   20.7290   31.9370 C   0  0  0  0  0  2  0  0  0  0  0  0
   35.2350   22.2220   32.1390 C   0  0  0  0  0  2  0  0  0  0  0  0
  1  6  1  1  0  0  0
  1  2  1  0  0  0  0
  2  7  1  6  0  0  0
  2 12  1  0  0  0  0
  2  3  1  0  0  0  0
  4  3  1  0  0  0  0
  4  9  1  0  0  0  0
  5 10  1  6  0  0  0
  5  1  1  0  0  0  0
  5  4  1  0  0  0  0
  8  4  1  0  0  0  0
 11 14  1  6  0  0  0
 11 12  1  0  0  0  0
 11 18  1  0  0  0  0
 12 15  1  1  0  0  0
 13 11  1  0  0  0  0
 13 16  1  0  0  0  0
 13 12  1  0  0  0  0
 17 13  1  0  0  0  0
 18 19  1  0  0  0  0
 19 24  1  0  0  0  0
 19 20  2  0  0  0  0
 20 25  1  0  0  0  0
 21 20  1  0  0  0  0
 22 21  2  0  0  0  0
 23 18  2  0  0  0  0
 23 22  1  0  0  0  0
 26 22  1  0  0  0  0
 27  1  1  0  0  0  0
 28 27  1  0  0  0  0
 29  5  1  0  0  0  0
 29 30  1  0  0  0  0
 30 34  1  0  0  0  0
 31 30  1  0  0  0  0
 32 31  1  0  0  0  0
 32 33  1  0  0  0  0
 33 34  1  0  0  0  0
M  END
>  <minimizedAffinity>
-4.74755764

$$$$

 OpenBabel03272508293D

 34 37  0  0  1  0  0  0  0  0999 V2000
   36.9110   25.7430   32.8230 C   0  0  2  0  0  0  0  0  0  0  0  0
   37.4100   27.0040   32.1310 C   0  0  2  0  0  0  0  0  0  0  0  0
   38.4610   27.4420   32.8800 O   0  0  0  0  0  0  0  0  0  0  0  0
   39.0070   26.4090   33.5870 C   0  0  0  0  0  0  0  0  0  0  0  0
   38.2580   25.1420   33.2330 C   0  0  1  0  0  0  0  0  0  0  0  0
   36.2870   25.9630   33.6930 H   0  0  0  0  0  0  0  0  0  0  0  0
   37.7640   26.7410   31.1150 H   0  0  0  0  0  0  0  0  0  0  0  0
   40.0670   26.2690   33.2580 H   0  0  0  0  0  0  0  0  0  0  0  0
   39.0700   26.5630   34.6820 H   0  0  0  0  0  0  0  0  0  0  0  0
   38.6950   24.6600   32.3270 H   0  0  0  0  0  0  0  0  0  0  0  0
   36.0430   28.9200   33.2070 C   0  0  1  0  0  0  0  0  0  0  0  0
   36.2790   27.9830   32.1340 C   0  0  1  0  0  0  0  0  0  0  0  0
   36.4890   29.4290   31.8270 C   0  0  0  0  0  0  0  0  0  0  0  0
   36.7530   29.2810   33.9720 H   0  0  0  0  0  0  0  0  0  0  0  0
   35.3520   27.5510   31.6600 H   0  0  0  0  0  0  0  0  0  0  0  0
   35.7480   29.9760   31.2030 H   0  0  0  0  0  0  0  0  0  0  0  0
   37.5070   29.8340   31.7010 H   0  0  0  0  0  0  0  0  0  0  0  0
   34.6380   29.3880   33.5480 C   0  0  0  0  0  0  0  0  0  0  0  0
   34.4830   30.1920   34.6780 C   0  0  0  0  0  0  0  0  0  0  0  0
   33.1780   30.5710   34.9610 C   0  0  0  0  0  0  0  0  0  0  0  0
   32.1380   30.1610   34.1600 N   0  0  0  0  0  0  0  0  0  0  0  0
   32.3360   29.3820   33.0770 C   0  0  0  0  0  0  0  0  0  0  0  0
   33.6030   28.9900   32.7640 N   0  0  0  0  0  0  0  0  0  0  0  0
   35.3160   30.4940   35.2820 H   0  0  0  0  0  0  0  0  0  0  0  0
   32.9570   31.1990   35.8220 H   0  0  0  0  0  0  0  0  0  0  0  0
   31.4850   29.0880   32.4800 H   0  0  0  0  0  0  0  0  0  0  0  0
   36.2180   24.8900   31.9880 O   0  0  0  0  0  0  0  0  0  0  0  0
   36.9040   24.5170   31.3520 H   0  0  0  0  0  0  0  0  0  0  0  0
   38.1420   24.2770   34.2820 O   0  0  0  0  0  0  0  0  0  0  0  0
   38.7410   24.6810   35.4460 C   0  0  0  0  0  3  0  0  0  0  0  0
   39.8830   23.7360   35.8290 C   0  0  0  0  0  2  0  0  0  0  0  0
   39.2490   22.8400   36.8890 C   0  0  0  0  0  2  0  0  0  0  0  0
   38.4970   23.9070   37.6940 C   0  0  0  0  0  2  0  0  0  0  0  0
   37.7190   24.5850   36.5620 C   0  0  0  0  0  2  0  0  0  0  0  0
  1  5  1  0  0  0  0
  1  6  1  1  0  0  0
  2  7  1  6  0  0  0
  2 12  1  0  0  0  0
  2  1  1  0  0  0  0
  2  3  1  0  0  0  0
  3  4  1  0  0  0  0
  4  9  1  0  0  0  0
  5 10  1  6  0  0  0
  5  4  1  0  0  0  0
  5 29  1  0  0  0  0
  8  4  1  0  0  0  0
 11 18  1  0  0  0  0
 11 14  1  1  0  0  0
 12 15  1  6  0  0  0
 12 11  1  0  0  0  0
 13 12  1  0  0  0  0
 13 11  1  0  0  0  0
 16 13  1  0  0  0  0
 17 13  1  0  0  0  0
 18 19  1  0  0  0  0
 19 20  2  0  0  0  0
 19 24  1  0  0  0  0
 20 25  1  0  0  0  0
 21 20  1  0  0  0  0
 22 21  2  0  0  0  0
 23 22  1  0  0  0  0
 23 18  2  0  0  0  0
 26 22  1  0  0  0  0
 27  1  1  0  0  0  0
 28 27  1  0  0  0  0
 29 30  1  0  0  0  0
 30 31  1  0  0  0  0
 30 34  1  0  0  0  0
 31 32  1  0  0  0  0
 32 33  1  0  0  0  0
 34 33  1  0  0  0  0
M  END
>  <minimizedAffinity>
-4.72105026

$$$$
