
 OpenBabel03272508273D

 34 37  0  0  1  0  0  0  0  0999 V2000
   33.8560   28.9420   47.2630 C   0  0  2  0  0  0  0  0  0  0  0  0
   34.5830   28.1520   48.3420 C   0  0  2  0  0  0  0  0  0  0  0  0
   33.6780   27.9840   49.3470 O   0  0  0  0  0  0  0  0  0  0  0  0
   32.4040   28.0720   48.8620 C   0  0  0  0  0  0  0  0  0  0  0  0
   32.4790   28.2800   47.3650 C   0  0  1  0  0  0  0  0  0  0  0  0
   33.8060   30.0100   47.4880 H   0  0  0  0  0  0  0  0  0  0  0  0
   34.8700   27.1640   47.9340 H   0  0  0  0  0  0  0  0  0  0  0  0
   31.8870   27.0950   49.0340 H   0  0  0  0  0  0  0  0  0  0  0  0
   31.7580   28.8250   49.3550 H   0  0  0  0  0  0  0  0  0  0  0  0
   32.5410   27.3030   46.8280 H   0  0  0  0  0  0  0  0  0  0  0  0
   35.6660   30.3960   49.0440 C   0  0  1  0  0  0  0  0  0  0  0  0
   35.7510   28.9790   48.7790 C   0  0  1  0  0  0  0  0  0  0  0  0
   35.9230   29.4120   50.1970 C   0  0  0  0  0  0  0  0  0  0  0  0
   34.7700   30.9990   49.2760 H   0  0  0  0  0  0  0  0  0  0  0  0
   36.7090   28.6380   48.2920 H   0  0  0  0  0  0  0  0  0  0  0  0
   36.9330   29.3990   50.6630 H   0  0  0  0  0  0  0  0  0  0  0  0
   35.1290   29.2290   50.9400 H   0  0  0  0  0  0  0  0  0  0  0  0
   36.8570   31.3120   48.8150 C   0  0  0  0  0  0  0  0  0  0  0  0
   37.0590   32.3470   49.7300 C   0  0  0  0  0  0  0  0  0  0  0  0
   38.1430   33.1710   49.4620 C   0  0  0  0  0  0  0  0  0  0  0  0
   38.9380   32.9500   48.3610 N   0  0  0  0  0  0  0  0  0  0  0  0
   38.7030   31.9370   47.5040 C   0  0  0  0  0  0  0  0  0  0  0  0
   37.6490   31.1040   47.7330 N   0  0  0  0  0  0  0  0  0  0  0  0
   36.4190   32.4920   50.5780 H   0  0  0  0  0  0  0  0  0  0  0  0
   38.3820   34.0050   50.1190 H   0  0  0  0  0  0  0  0  0  0  0  0
   39.3580   31.8060   46.6550 H   0  0  0  0  0  0  0  0  0  0  0  0
   34.3940   28.7820   46.0020 O   0  0  0  0  0  0  0  0  0  0  0  0
   34.1860   27.8330   45.7370 H   0  0  0  0  0  0  0  0  0  0  0  0
   31.4830   29.0790   46.8840 O   0  0  0  0  0  0  0  0  0  0  0  0
   30.3380   28.4290   46.5070 C   0  0  0  0  0  3  0  0  0  0  0  0
   29.9950   28.7270   45.0460 C   0  0  0  0  0  2  0  0  0  0  0  0
   28.9170   29.8020   45.1560 C   0  0  0  0  0  2  0  0  0  0  0  0
   28.0850   29.1980   46.2940 C   0  0  0  0  0  2  0  0  0  0  0  0
   29.1890   28.9750   47.3330 C   0  0  0  0  0  2  0  0  0  0  0  0
  1  5  1  0  0  0  0
  1  6  1  1  0  0  0
  1  2  1  0  0  0  0
  2  7  1  6  0  0  0
  2 12  1  0  0  0  0
  2  3  1  0  0  0  0
  4  8  1  0  0  0  0
  4  3  1  0  0  0  0
  4  9  1  0  0  0  0
  5 10  1  6  0  0  0
  5  4  1  0  0  0  0
 11 14  1  6  0  0  0
 11 13  1  0  0  0  0
 12 15  1  6  0  0  0
 12 11  1  0  0  0  0
 12 13  1  0  0  0  0
 13 16  1  0  0  0  0
 13 17  1  0  0  0  0
 18 11  1  0  0  0  0
 18 19  1  0  0  0  0
 19 24  1  0  0  0  0
 20 19  2  0  0  0  0
 20 25  1  0  0  0  0
 21 20  1  0  0  0  0
 22 23  1  0  0  0  0
 22 21  2  0  0  0  0
 23 18  2  0  0  0  0
 26 22  1  0  0  0  0
 27  1  1  0  0  0  0
 28 27  1  0  0  0  0
 29  5  1  0  0  0  0
 30 29  1  0  0  0  0
 30 34  1  0  0  0  0
 31 32  1  0  0  0  0
 31 30  1  0  0  0  0
 32 33  1  0  0  0  0
 33 34  1  0  0  0  0
M  END
>  <minimizedAffinity>
-5.0018115

>  <minimizedRMSD>
0.734330118

$$$$
