
 OpenBabel03272500193D

 30 32  0  0  0  0  0  0  0  0999 V2000
   35.4260   29.1760   50.3410 C   0  0  0  0  0  0  0  0  0  0  0  0
   36.3320   30.1040   49.7960 C   0  0  0  0  0  0  0  0  0  0  0  0
   36.2960   30.3350   48.4300 C   0  0  0  0  0  0  0  0  0  0  0  0
   35.3980   29.6660   47.6640 N   0  0  0  0  0  0  0  0  0  0  0  0
   34.5460   28.7890   48.2030 C   0  0  0  0  0  0  0  0  0  0  0  0
   34.5490   28.5370   49.5260 N   0  0  0  0  0  0  0  0  0  0  0  0
   35.4460   28.9900   51.4070 H   0  0  0  0  0  0  0  0  0  0  0  0
   32.8410   30.5490   46.4350 Cl  0  0  0  0  0  0  0  0  0  0  0  0
   32.7600   28.7990   46.4710 C   0  0  0  0  0  0  0  0  0  0  0  0
   33.5950   28.0920   47.3270 C   0  0  0  0  0  0  0  0  0  0  0  0
   33.5730   26.6890   47.3980 C   0  0  0  0  0  0  0  0  0  0  0  0
   32.6670   26.0450   46.5590 C   0  0  0  0  0  0  0  0  0  0  0  0
   31.8340   26.7170   45.7080 C   0  0  0  0  0  0  0  0  0  0  0  0
   30.7410   25.7910   44.7080 Cl  0  0  0  0  0  0  0  0  0  0  0  0
   31.8920   28.1000   45.6740 C   0  0  0  0  0  0  0  0  0  0  0  0
   34.2110   26.1400   48.0520 H   0  0  0  0  0  0  0  0  0  0  0  0
   32.6370   24.9620   46.6020 H   0  0  0  0  0  0  0  0  0  0  0  0
   30.9950   28.8510   44.7550 C   0  0  0  0  0  0  0  0  0  0  0  0
   30.0740   27.9840   44.1630 F   0  0  0  0  0  0  0  0  0  0  0  0
   31.6920   29.5270   43.7880 F   0  0  0  0  0  0  0  0  0  0  0  0
   30.2650   29.7790   45.4640 F   0  0  0  0  0  0  0  0  0  0  0  0
   37.1930   31.2580   47.7610 C   0  0  0  0  0  0  0  0  0  0  0  0
   37.9980   32.1630   48.6500 C   0  0  0  0  0  0  0  0  0  0  0  0
   38.9230   32.7890   47.5950 C   0  0  0  0  0  0  0  0  0  0  0  0
   39.2450   31.6090   46.6790 C   0  0  0  0  0  0  0  0  0  0  0  0
   38.3310   30.4760   47.0900 C   0  0  0  0  0  0  0  0  0  0  0  0
   37.2830   30.8100   50.6940 C   0  0  0  0  0  0  0  0  0  0  0  0
   38.6020   30.6560   50.2800 F   0  0  0  0  0  0  0  0  0  0  0  0
   36.9860   32.1650   50.6900 F   0  0  0  0  0  0  0  0  0  0  0  0
   37.1940   30.3790   52.0050 F   0  0  0  0  0  0  0  0  0  0  0  0
  1  7  1  0  0  0  0
  2  1  1  0  0  0  0
  2 27  1  0  0  0  0
  3  2  2  0  0  0  0
  4  5  2  0  0  0  0
  4  3  1  0  0  0  0
  5  6  1  0  0  0  0
  6  1  2  0  0  0  0
  8  9  1  0  0  0  0
  9 10  1  0  0  0  0
 10 11  2  0  0  0  0
 10  5  1  0  0  0  0
 11 16  1  0  0  0  0
 12 17  1  0  0  0  0
 12 11  1  0  0  0  0
 13 12  2  0  0  0  0
 14 13  1  0  0  0  0
 15 13  1  0  0  0  0
 15  9  2  0  0  0  0
 18 21  1  0  0  0  0
 18 15  1  0  0  0  0
 19 18  1  0  0  0  0
 20 18  1  0  0  0  0
 22  3  1  0  0  0  0
 22 23  1  0  0  0  0
 24 23  1  0  0  0  0
 25 26  1  0  0  0  0
 25 24  1  0  0  0  0
 26 22  1  0  0  0  0
 27 30  1  0  0  0  0
 28 27  1  0  0  0  0
 29 27  1  0  0  0  0
M  END
>  <minimizedAffinity>
-6.61057758

>  <minimizedRMSD>
0.606042922

$$$$
