
 OpenBabel03272510273D

 41 45  0  0  1  0  0  0  0  0999 V2000
   36.1980   30.1510   46.9800 C   0  0  0  0  0  0  0  0  0  0  0  0
   37.0350   30.7150   47.9410 C   0  0  0  0  0  0  0  0  0  0  0  0
   38.0210   31.6400   47.5870 C   0  0  0  0  0  0  0  0  0  0  0  0
   38.1130   31.9580   46.2360 C   0  0  0  0  0  0  0  0  0  0  0  0
   38.9860   32.8290   45.6490 N   0  0  0  0  0  0  0  0  0  0  0  0
   38.7070   32.8170   44.3380 C   0  0  0  0  0  0  0  0  0  0  0  0
   37.7080   31.9810   44.1020 N   0  0  0  0  0  0  0  0  0  0  0  0
   37.3080   31.4260   45.2590 C   0  0  0  0  0  0  0  0  0  0  0  0
   36.3310   30.5020   45.6480 C   0  0  0  0  0  0  0  0  0  0  0  0
   35.4330   29.4340   47.2520 H   0  0  0  0  0  0  0  0  0  0  0  0
   38.6790   32.0860   48.3290 H   0  0  0  0  0  0  0  0  0  0  0  0
   39.7340   33.3990   46.1320 H   0  0  0  0  0  0  0  0  0  0  0  0
   35.6980   30.0820   44.8760 H   0  0  0  0  0  0  0  0  0  0  0  0
   37.4100   30.0930   51.6190 C   0  0  0  0  0  0  0  0  0  0  0  0
   37.7470   30.5430   50.3550 C   0  0  0  0  0  0  0  0  0  0  0  0
   36.8600   30.3210   49.3270 C   0  0  0  0  0  0  0  0  0  0  0  0
   35.6870   29.6580   49.6310 N   0  0  0  0  0  0  0  0  0  0  0  0
   35.3810   29.2280   50.8710 C   0  0  0  0  0  0  0  0  0  0  0  0
   36.2350   29.4450   51.8470 N   0  0  0  0  0  0  0  0  0  0  0  0
   38.1670   30.3110   52.3700 H   0  0  0  0  0  0  0  0  0  0  0  0
   38.6600   31.0620   50.1040 H   0  0  0  0  0  0  0  0  0  0  0  0
   34.4430   28.7160   51.0390 H   0  0  0  0  0  0  0  0  0  0  0  0
   39.4070   33.5960   43.4160 O   0  0  0  0  0  0  0  0  0  0  0  0
   39.9450   31.6870   42.2400 N   0  0  0  0  0  0  0  0  0  0  0  0
   39.4950   33.0630   42.1020 C   0  0  1  0  0  0  0  0  0  0  0  0
   38.2060   33.1130   41.4320 C   0  0  0  0  0  0  0  0  0  0  0  0
   38.3540   32.5970   40.1330 O   0  0  0  0  0  0  0  0  0  0  0  0
   38.8910   31.3440   40.0570 C   0  0  0  0  0  0  0  0  0  0  0  0
   40.1630   31.2550   40.8810 C   0  0  2  0  0  0  0  0  0  0  0  0
   39.3000   31.0180   42.6310 H   0  0  0  0  0  0  0  0  0  0  0  0
   40.2660   33.5890   41.5140 H   0  0  0  0  0  0  0  0  0  0  0  0
   37.9700   34.2050   41.2420 H   0  0  0  0  0  0  0  0  0  0  0  0
   37.3120   32.6720   41.7790 H   0  0  0  0  0  0  0  0  0  0  0  0
   38.1230   30.6310   40.3940 H   0  0  0  0  0  0  0  0  0  0  0  0
   39.1930   31.1720   39.0160 H   0  0  0  0  0  0  0  0  0  0  0  0
   40.8350   32.0270   40.4370 H   0  0  0  0  0  0  0  0  0  0  0  0
   40.8630   29.9570   40.7530 C   0  0  0  0  0  3  0  0  0  0  0  0
   41.6860   29.8850   39.4940 C   0  0  0  0  0  2  0  0  0  0  0  0
   42.1680   28.4310   39.5900 C   0  0  0  0  0  2  0  0  0  0  0  0
   40.8680   27.7260   39.9060 C   0  0  0  0  0  2  0  0  0  0  0  0
   39.9770   28.7610   40.6070 C   0  0  0  0  0  2  0  0  0  0  0  0
  1 10  1  0  0  0  0
  1  2  1  0  0  0  0
  2 16  1  0  0  0  0
  3  2  2  0  0  0  0
  3 11  1  0  0  0  0
  4  3  1  0  0  0  0
  5 12  1  0  0  0  0
  5  4  1  0  0  0  0
  6  5  1  0  0  0  0
  7  6  2  0  0  0  0
  7  8  1  0  0  0  0
  8  9  1  0  0  0  0
  8  4  2  0  0  0  0
  9  1  2  0  0  0  0
 13  9  1  0  0  0  0
 14 19  1  0  0  0  0
 14 20  1  0  0  0  0
 15 14  2  0  0  0  0
 16 17  2  0  0  0  0
 16 15  1  0  0  0  0
 17 18  1  0  0  0  0
 18 22  1  0  0  0  0
 18 19  2  0  0  0  0
 21 15  1  0  0  0  0
 23  6  1  0  0  0  0
 24 30  1  0  0  0  0
 25 31  1  6  0  0  0
 25 24  1  0  0  0  0
 25 23  1  0  0  0  0
 26 33  1  0  0  0  0
 26 25  1  0  0  0  0
 27 26  1  0  0  0  0
 28 27  1  0  0  0  0
 28 34  1  0  0  0  0
 28 29  1  0  0  0  0
 29 36  1  6  0  0  0
 29 24  1  0  0  0  0
 32 26  1  0  0  0  0
 35 28  1  0  0  0  0
 37 29  1  0  0  0  0
 38 39  1  0  0  0  0
 38 37  1  0  0  0  0
 39 40  1  0  0  0  0
 40 41  1  0  0  0  0
 41 37  1  0  0  0  0
M  END
>  <minimizedAffinity>
-5.93249512

>  <minimizedRMSD>
0.807590127

$$$$
