
 OpenBabel03272508163D

 27 28  0  0  0  0  0  0  0  0999 V2000
   37.6080   31.1190   46.7390 Cl  0  0  0  0  0 15  0  0  0  0  0  0
   36.1110   30.2760   46.5760 C   0  0  0  0  0  3  0  0  0  0  0  0
   35.6380   29.8010   47.7660 C   0  0  0  0  0  0  0  0  0  0  0  0
   34.4110   29.0890   47.7600 C   0  0  0  0  0  0  0  0  0  0  0  0
   33.7180   28.8800   46.6020 C   0  0  0  0  0  0  0  0  0  0  0  0
   34.2200   29.3700   45.4240 C   0  0  0  0  0  0  0  0  0  0  0  0
   33.3740   29.1270   43.9290 Cl  0  0  0  0  0  0  0  0  0  0  0  0
   35.3940   30.0520   45.4220 C   0  0  0  0  0  0  0  0  0  0  0  0
   33.9550   28.6740   48.6470 H   0  0  0  0  0  0  0  0  0  0  0  0
   32.7790   28.3400   46.5630 H   0  0  0  0  0  0  0  0  0  0  0  0
   37.4020   30.6120   49.2800 C   0  0  0  0  0  0  0  0  0  0  0  0
   36.2010   29.8990   49.1210 C   0  0  0  0  0  0  0  0  0  0  0  0
   35.6070   29.3250   50.2490 C   0  0  0  0  0  0  0  0  0  0  0  0
   36.2500   29.5020   51.4400 N   0  0  0  0  0  0  0  0  0  0  0  0
   37.4060   30.1960   51.5540 C   0  0  0  0  0  0  0  0  0  0  0  0
   37.9910   30.7600   50.4570 N   0  0  0  0  0  0  0  0  0  0  0  0
   37.8590   31.0570   48.4030 H   0  0  0  0  0  0  0  0  0  0  0  0
   34.7030   28.7900   50.1170 H   0  0  0  0  0  0  0  0  0  0  0  0
   37.8840   30.3140   52.5220 H   0  0  0  0  0  0  0  0  0  0  0  0
   36.0120   30.6170   44.2060 C   0  0  0  0  0  0  0  0  0  0  0  0
   35.7080   31.6660   43.6050 O   0  0  0  0  0  0  0  0  0  0  0  0
   37.0850   30.0630   43.4800 O   0  0  0  0  0  0  0  0  0  0  0  0
   38.2690   30.7040   43.1950 C   0  0  0  0  0  3  0  0  0  0  0  0
   38.6430   30.7110   41.7330 C   0  0  0  0  0  2  0  0  0  0  0  0
   40.1100   31.1090   41.8190 C   0  0  0  0  0  2  0  0  0  0  0  0
   40.6080   30.4310   43.0930 C   0  0  0  0  0  2  0  0  0  0  0  0
   39.4060   29.9290   43.8210 C   0  0  0  0  0  2  0  0  0  0  0  0
  2  3  1  0  0  0  0
  3 12  1  0  0  0  0
  4  3  2  0  0  0  0
  4  9  1  0  0  0  0
  5  4  1  0  0  0  0
  6  5  2  0  0  0  0
  7  6  1  0  0  0  0
  8  6  1  0  0  0  0
  8  2  2  0  0  0  0
 10  5  1  0  0  0  0
 11 16  1  0  0  0  0
 12 11  2  0  0  0  0
 12 13  1  0  0  0  0
 13 14  2  0  0  0  0
 14 15  1  0  0  0  0
 15 19  1  0  0  0  0
 16 15  2  0  0  0  0
 17 11  1  0  0  0  0
 18 13  1  0  0  0  0
 20  8  1  0  0  0  0
 21 20  2  0  0  0  0
 22 20  1  0  0  0  0
 23 22  1  0  0  0  0
 23 27  1  0  0  0  0
 24 25  1  0  0  0  0
 24 23  1  0  0  0  0
 25 26  1  0  0  0  0
 26 27  1  0  0  0  0
M  END
>  <minimizedAffinity>
-5.08297634

>  <minimizedRMSD>
6.69886589

$$$$
