
 OpenBabel03272510273D

 41 45  0  0  1  0  0  0  0  0999 V2000
   36.2040   30.1830   46.9930 C   0  0  0  0  0  0  0  0  0  0  0  0
   37.0500   30.7300   47.9550 C   0  0  0  0  0  0  0  0  0  0  0  0
   38.0480   31.6440   47.6050 C   0  0  0  0  0  0  0  0  0  0  0  0
   38.1420   31.9690   46.2550 C   0  0  0  0  0  0  0  0  0  0  0  0
   39.0250   32.8330   45.6720 N   0  0  0  0  0  0  0  0  0  0  0  0
   38.7420   32.8320   44.3620 C   0  0  0  0  0  0  0  0  0  0  0  0
   37.7320   32.0100   44.1220 N   0  0  0  0  0  0  0  0  0  0  0  0
   37.3280   31.4530   45.2760 C   0  0  0  0  0  0  0  0  0  0  0  0
   36.3400   30.5400   45.6620 C   0  0  0  0  0  0  0  0  0  0  0  0
   35.4310   29.4740   47.2620 H   0  0  0  0  0  0  0  0  0  0  0  0
   38.7130   32.0770   48.3480 H   0  0  0  0  0  0  0  0  0  0  0  0
   39.7810   33.3900   46.1560 H   0  0  0  0  0  0  0  0  0  0  0  0
   35.6990   30.1330   44.8890 H   0  0  0  0  0  0  0  0  0  0  0  0
   37.4190   30.0940   51.6310 C   0  0  0  0  0  0  0  0  0  0  0  0
   37.7580   30.5490   50.3700 C   0  0  0  0  0  0  0  0  0  0  0  0
   36.8730   30.3300   49.3390 C   0  0  0  0  0  0  0  0  0  0  0  0
   35.7010   29.6640   49.6380 N   0  0  0  0  0  0  0  0  0  0  0  0
   35.3920   29.2290   50.8760 C   0  0  0  0  0  0  0  0  0  0  0  0
   36.2440   29.4430   51.8550 N   0  0  0  0  0  0  0  0  0  0  0  0
   38.1730   30.3090   52.3850 H   0  0  0  0  0  0  0  0  0  0  0  0
   38.6710   31.0700   50.1230 H   0  0  0  0  0  0  0  0  0  0  0  0
   34.4550   28.7150   51.0400 H   0  0  0  0  0  0  0  0  0  0  0  0
   39.4510   33.6070   43.4420 O   0  0  0  0  0  0  0  0  0  0  0  0
   39.8620   31.7300   42.1670 N   0  0  0  0  0  0  0  0  0  0  0  0
   39.4550   33.1260   42.1060 C   0  0  1  0  0  0  0  0  0  0  0  0
   38.1380   33.2470   41.5040 C   0  0  0  0  0  0  0  0  0  0  0  0
   38.2030   32.7800   40.1790 O   0  0  0  0  0  0  0  0  0  0  0  0
   38.6910   31.5140   40.0280 C   0  0  0  0  0  0  0  0  0  0  0  0
   39.9970   31.3470   40.7830 C   0  0  2  0  0  0  0  0  0  0  0  0
   39.2120   31.0680   42.5640 H   0  0  0  0  0  0  0  0  0  0  0  0
   40.2150   33.6490   41.5010 H   0  0  0  0  0  0  0  0  0  0  0  0
   37.9330   34.3540   41.3680 H   0  0  0  0  0  0  0  0  0  0  0  0
   37.2470   32.8240   41.8780 H   0  0  0  0  0  0  0  0  0  0  0  0
   37.9140   30.8140   40.3750 H   0  0  0  0  0  0  0  0  0  0  0  0
   38.9340   31.3740   38.9670 H   0  0  0  0  0  0  0  0  0  0  0  0
   40.6740   32.1130   40.3360 H   0  0  0  0  0  0  0  0  0  0  0  0
   40.6420   30.0320   40.5690 C   0  0  0  0  0  3  0  0  0  0  0  0
   41.8950   30.1500   39.7430 C   0  0  0  0  0  2  0  0  0  0  0  0
   42.2460   28.6620   39.6020 C   0  0  0  0  0  2  0  0  0  0  0  0
   40.9010   28.0960   39.1990 C   0  0  0  0  0  2  0  0  0  0  0  0
   39.8440   29.0470   39.7760 C   0  0  0  0  0  2  0  0  0  0  0  0
  1 10  1  0  0  0  0
  1  2  1  0  0  0  0
  2 16  1  0  0  0  0
  3  2  2  0  0  0  0
  3 11  1  0  0  0  0
  4  3  1  0  0  0  0
  5 12  1  0  0  0  0
  5  4  1  0  0  0  0
  6  5  1  0  0  0  0
  7  6  2  0  0  0  0
  7  8  1  0  0  0  0
  8  9  1  0  0  0  0
  8  4  2  0  0  0  0
  9  1  2  0  0  0  0
 13  9  1  0  0  0  0
 14 19  1  0  0  0  0
 14 20  1  0  0  0  0
 15 14  2  0  0  0  0
 16 17  2  0  0  0  0
 16 15  1  0  0  0  0
 17 18  1  0  0  0  0
 18 22  1  0  0  0  0
 18 19  2  0  0  0  0
 21 15  1  0  0  0  0
 23  6  1  0  0  0  0
 24 30  1  0  0  0  0
 25 31  1  6  0  0  0
 25 24  1  0  0  0  0
 25 23  1  0  0  0  0
 26 33  1  0  0  0  0
 26 25  1  0  0  0  0
 27 26  1  0  0  0  0
 28 27  1  0  0  0  0
 28 34  1  0  0  0  0
 28 29  1  0  0  0  0
 29 36  1  6  0  0  0
 29 24  1  0  0  0  0
 32 26  1  0  0  0  0
 35 28  1  0  0  0  0
 37 29  1  0  0  0  0
 38 37  1  0  0  0  0
 39 38  1  0  0  0  0
 40 39  1  0  0  0  0
 40 41  1  0  0  0  0
 41 37  1  0  0  0  0
M  END
>  <minimizedAffinity>
-5.94632673

>  <minimizedRMSD>
0.613185108

$$$$
