
 OpenBabel03272508453D

 23 25  0  0  0  0  0  0  0  0999 V2000
   35.9290   30.0530   49.6680 C   0  0  0  0  0  0  0  0  0  0  0  0
   36.7960   29.3970   50.5360 C   0  0  0  0  0  0  0  0  0  0  0  0
   37.9840   30.1250   50.3590 C   0  0  0  0  0  0  0  0  0  0  0  0
   37.7820   31.1270   49.4450 C   0  0  0  0  0  0  0  0  0  0  0  0
   36.5320   31.0550   49.0470 O   0  0  0  0  0  0  0  0  0  0  0  0
   36.5370   28.5530   51.1500 H   0  0  0  0  0  0  0  0  0  0  0  0
   38.8980   29.8630   50.9140 H   0  0  0  0  0  0  0  0  0  0  0  0
   38.7620   32.1020   48.9860 C   0  0  0  0  0  3  0  0  0  0  0  0
   38.5130   33.5020   49.5020 C   0  0  0  0  0  2  0  0  0  0  0  0
   39.5670   34.2760   48.7230 C   0  0  0  0  0  2  0  0  0  0  0  0
   39.7600   33.5070   47.4240 C   0  0  0  0  0  2  0  0  0  0  0  0
   38.7400   32.3710   47.4930 C   0  0  0  0  0  2  0  0  0  0  0  0
   34.5190   29.6590   49.4840 C   0  0  0  0  0  0  0  0  0  0  0  0
   33.7770   29.6440   50.4810 O   0  0  0  0  0  0  0  0  0  0  0  0
   32.6080   28.0060   46.8580 C   0  0  0  0  0  0  0  0  0  0  0  0
   33.1010   28.5910   45.6920 C   0  0  0  0  0  0  0  0  0  0  0  0
   34.0880   29.5520   45.7880 C   0  0  0  0  0  0  0  0  0  0  0  0
   34.5260   29.8760   47.0290 N   0  0  0  0  0  0  0  0  0  0  0  0
   34.0410   29.3020   48.1600 C   0  0  0  0  0  0  0  0  0  0  0  0
   33.0850   28.3710   48.0540 N   0  0  0  0  0  0  0  0  0  0  0  0
   31.8410   27.2630   46.7250 H   0  0  0  0  0  0  0  0  0  0  0  0
   32.7950   28.3770   44.6790 H   0  0  0  0  0  0  0  0  0  0  0  0
   34.5830   30.1070   45.0040 H   0  0  0  0  0  0  0  0  0  0  0  0
  1  2  2  0  0  0  0
  2  6  1  0  0  0  0
  3  2  1  0  0  0  0
  3  7  1  0  0  0  0
  4  3  2  0  0  0  0
  5  4  1  0  0  0  0
  5  1  1  0  0  0  0
  8  4  1  0  0  0  0
  8  9  1  0  0  0  0
 10  9  1  0  0  0  0
 11 12  1  0  0  0  0
 11 10  1  0  0  0  0
 12  8  1  0  0  0  0
 13  1  1  0  0  0  0
 13 14  2  0  0  0  0
 15 20  1  0  0  0  0
 16 17  1  0  0  0  0
 16 15  2  0  0  0  0
 17 18  2  0  0  0  0
 18 19  1  0  0  0  0
 19 13  1  0  0  0  0
 20 19  2  0  0  0  0
 21 15  1  0  0  0  0
 22 16  1  0  0  0  0
 23 17  1  0  0  0  0
M  END
>  <minimizedAffinity>
-5.34100389

>  <minimizedRMSD>
1.48158181

$$$$
