
 OpenBabel03272506303D

 30 32  0  0  1  0  0  0  0  0999 V2000
   34.7970   30.0540   46.7630 C   0  0  1  0  0  0  0  0  0  0  0  0
   33.3500   30.3240   46.8210 C   0  0  0  0  0  0  0  0  0  0  0  0
   32.4500   29.1600   47.1290 C   0  0  0  0  0  0  0  0  0  0  0  0
   32.9870   28.2120   48.1360 C   0  0  0  0  0  0  0  0  0  0  0  0
   34.4300   27.8880   48.0320 C   0  0  0  0  0  0  0  0  0  0  0  0
   35.2620   29.1300   47.8330 C   0  0  2  0  0  0  0  0  0  0  0  0
   35.3300   31.0350   46.9780 H   0  0  0  0  0  0  0  0  0  0  0  0
   33.2110   30.9880   47.7360 H   0  0  0  0  0  0  0  0  0  0  0  0
   32.9070   30.8970   46.0250 H   0  0  0  0  0  0  0  0  0  0  0  0
   32.2240   28.5860   46.2050 H   0  0  0  0  0  0  0  0  0  0  0  0
   31.4810   29.5570   47.4960 H   0  0  0  0  0  0  0  0  0  0  0  0
   32.8080   28.6520   49.1530 H   0  0  0  0  0  0  0  0  0  0  0  0
   32.4030   27.2720   48.0940 H   0  0  0  0  0  0  0  0  0  0  0  0
   34.5950   27.2390   47.1460 H   0  0  0  0  0  0  0  0  0  0  0  0
   34.7850   27.3600   48.9060 H   0  0  0  0  0  0  0  0  0  0  0  0
   36.2930   28.7660   47.7290 H   0  0  0  0  0  0  0  0  0  0  0  0
   34.6950   28.7840   44.5430 C   0  0  0  0  0  0  0  0  0  0  0  0
   35.3160   29.7130   45.4130 C   0  0  0  0  0  0  0  0  0  0  0  0
   36.4680   30.3220   44.9510 C   0  0  0  0  0  0  0  0  0  0  0  0
   36.9480   30.0170   43.7180 N   0  0  0  0  0  0  0  0  0  0  0  0
   36.3170   29.1180   42.9170 C   0  0  0  0  0  0  0  0  0  0  0  0
   35.1840   28.5030   43.3420 N   0  0  0  0  0  0  0  0  0  0  0  0
   33.7940   28.2760   44.8470 H   0  0  0  0  0  0  0  0  0  0  0  0
   37.0820   31.0520   45.4460 H   0  0  0  0  0  0  0  0  0  0  0  0
   36.6660   28.8460   41.9290 H   0  0  0  0  0  0  0  0  0  0  0  0
   35.3180   29.9390   49.1490 C   0  0  0  0  0  0  0  0  0  0  0  0
   36.3650   31.0180   49.0280 C   0  0  0  0  0  0  0  0  0  0  0  0
   36.8070   31.2860   50.4720 C   0  0  0  0  0  0  0  0  0  0  0  0
   36.8370   29.8990   51.0420 C   0  0  0  0  0  0  0  0  0  0  0  0
   35.8130   29.0960   50.2740 C   0  0  0  0  0  0  0  0  0  0  0  0
  1  2  1  0  0  0  0
  1  7  1  1  0  0  0
  1  6  1  0  0  0  0
  2  3  1  0  0  0  0
  2  8  1  0  0  0  0
  3 11  1  0  0  0  0
  3  4  1  0  0  0  0
  4 12  1  0  0  0  0
  5  4  1  0  0  0  0
  5 15  1  0  0  0  0
  6 16  1  6  0  0  0
  6  5  1  0  0  0  0
  6 26  1  0  0  0  0
  9  2  1  0  0  0  0
 10  3  1  0  0  0  0
 13  4  1  0  0  0  0
 14  5  1  0  0  0  0
 17 23  1  0  0  0  0
 17 18  1  0  0  0  0
 18  1  1  0  0  0  0
 19 18  2  0  0  0  0
 19 24  1  0  0  0  0
 20 19  1  0  0  0  0
 21 22  1  0  0  0  0
 21 20  2  0  0  0  0
 22 17  2  0  0  0  0
 25 21  1  0  0  0  0
 26 30  1  0  0  0  0
 27 26  1  0  0  0  0
 27 28  1  0  0  0  0
 28 29  1  0  0  0  0
 30 29  1  0  0  0  0
M  END
>  <minimizedAffinity>
-4.43990755

>  <minimizedRMSD>
5.00958729

$$$$
