
 OpenBabel03272509343D

 37 41  0  0  1  0  0  0  0  0999 V2000
   37.3510   31.7250   48.5490 C   0  0  1  0  0  0  0  0  0  0  0  0
   38.6140   32.4640   48.7290 C   0  0  0  0  0  0  0  0  0  0  0  0
   38.6070   31.3990   47.6910 C   0  0  2  0  0  0  0  0  0  0  0  0
   36.5680   32.1150   47.9190 H   0  0  0  0  0  0  0  0  0  0  0  0
   39.2210   32.2220   49.6710 H   0  0  0  0  0  0  0  0  0  0  0  0
   38.4830   33.5250   48.6400 H   0  0  0  0  0  0  0  0  0  0  0  0
   38.7740   30.3370   47.7000 H   0  0  0  0  0  0  0  0  0  0  0  0
   38.7140   31.9970   46.3350 C   0  0  0  0  0  0  0  0  0  0  0  0
   39.7990   32.8790   46.2700 C   0  0  0  0  0  0  0  0  0  0  0  0
   40.1410   33.4960   45.0850 C   0  0  0  0  0  0  0  0  0  0  0  0
   39.4130   33.2520   43.9160 C   0  0  0  0  0  0  0  0  0  0  0  0
   38.3540   32.3810   44.0080 C   0  0  0  0  0  0  0  0  0  0  0  0
   37.5390   32.0550   42.9490 C   0  0  0  0  0  0  0  0  0  0  0  0
   36.4680   31.1930   43.0250 C   0  0  0  0  0  0  0  0  0  0  0  0
   36.1750   30.6070   44.2350 C   0  0  0  0  0  0  0  0  0  0  0  0
   36.9750   30.9150   45.3150 C   0  0  0  0  0  0  0  0  0  0  0  0
   38.0310   31.7810   45.1880 C   0  0  0  0  0  0  0  0  0  0  0  0
   40.5440   33.2560   46.9370 H   0  0  0  0  0  0  0  0  0  0  0  0
   40.9330   34.1920   44.8630 H   0  0  0  0  0  0  0  0  0  0  0  0
   39.5440   33.6480   42.9170 H   0  0  0  0  0  0  0  0  0  0  0  0
   37.7500   32.5100   41.9670 H   0  0  0  0  0  0  0  0  0  0  0  0
   35.8580   30.9730   42.1510 H   0  0  0  0  0  0  0  0  0  0  0  0
   35.3550   29.9190   44.3800 H   0  0  0  0  0  0  0  0  0  0  0  0
   36.7240   30.4350   46.2770 H   0  0  0  0  0  0  0  0  0  0  0  0
   35.3910   29.3710   50.7460 C   0  0  0  0  0  0  0  0  0  0  0  0
   35.6900   30.3970   49.8050 C   0  0  0  0  0  0  0  0  0  0  0  0
   37.0080   30.6570   49.5110 C   0  0  0  0  0  0  0  0  0  0  0  0
   37.9320   29.9000   50.1540 N   0  0  0  0  0  0  0  0  0  0  0  0
   37.6530   28.9320   51.0420 C   0  0  0  0  0  0  0  0  0  0  0  0
   36.3620   28.6610   51.3450 N   0  0  0  0  0  0  0  0  0  0  0  0
   34.3570   29.1620   50.9820 H   0  0  0  0  0  0  0  0  0  0  0  0
   34.8670   30.9280   49.3630 H   0  0  0  0  0  0  0  0  0  0  0  0
   38.8570   28.2320   51.6180 C   0  0  0  0  0  3  0  0  0  0  0  0
   39.2680   27.0640   50.7870 C   0  0  0  0  0  2  0  0  0  0  0  0
   39.4010   25.8660   51.6760 C   0  0  0  0  0  2  0  0  0  0  0  0
   39.2330   26.3490   53.1010 C   0  0  0  0  0  2  0  0  0  0  0  0
   38.5790   27.7160   52.9940 C   0  0  0  0  0  2  0  0  0  0  0  0
  1  4  1  6  0  0  0
  1  2  1  0  0  0  0
  1 27  1  0  0  0  0
  2  5  1  0  0  0  0
  3  7  1  1  0  0  0
  3  1  1  0  0  0  0
  3  2  1  0  0  0  0
  6  2  1  0  0  0  0
  8  3  1  0  0  0  0
  9  8  1  0  0  0  0
  9 18  1  0  0  0  0
 10  9  2  0  0  0  0
 11 12  2  0  0  0  0
 11 10  1  0  0  0  0
 12 17  1  0  0  0  0
 13 14  2  0  0  0  0
 13 12  1  0  0  0  0
 14 15  1  0  0  0  0
 15 23  1  0  0  0  0
 15 16  2  0  0  0  0
 16 24  1  0  0  0  0
 17 16  1  0  0  0  0
 17  8  2  0  0  0  0
 19 10  1  0  0  0  0
 20 11  1  0  0  0  0
 21 13  1  0  0  0  0
 22 14  1  0  0  0  0
 25 31  1  0  0  0  0
 25 30  1  0  0  0  0
 26 25  2  0  0  0  0
 27 26  1  0  0  0  0
 27 28  2  0  0  0  0
 28 29  1  0  0  0  0
 29 30  2  0  0  0  0
 29 33  1  0  0  0  0
 32 26  1  0  0  0  0
 33 37  1  0  0  0  0
 34 33  1  0  0  0  0
 34 35  1  0  0  0  0
 35 36  1  0  0  0  0
 37 36  1  0  0  0  0
M  END
>  <minimizedAffinity>
-1.5117805

>  <minimizedRMSD>
1.78120983

$$$$
