
 OpenBabel03272502593D

 30 32  0  0  1  0  0  0  0  0999 V2000
   35.8080   29.5600   48.8440 N   0  0  0  0  0  0  0  0  0  0  0  0
   36.4530   28.8000   49.8940 C   0  0  0  0  0  0  0  0  0  0  0  0
   36.9520   29.5300   51.0600 C   0  0  0  0  0  0  0  0  0  0  0  0
   37.2960   30.9470   50.9110 C   0  0  0  0  0  0  0  0  0  0  0  0
   36.6350   31.6290   49.7380 C   0  0  0  0  0  0  0  0  0  0  0  0
   36.6410   30.6890   48.5270 C   0  0  1  0  0  0  0  0  0  0  0  0
   37.3060   28.2700   49.3800 H   0  0  0  0  0  0  0  0  0  0  0  0
   35.7460   27.9940   50.1900 H   0  0  0  0  0  0  0  0  0  0  0  0
   36.1920   29.4200   51.8820 H   0  0  0  0  0  0  0  0  0  0  0  0
   37.8490   28.9920   51.4610 H   0  0  0  0  0  0  0  0  0  0  0  0
   36.9780   31.5320   51.8230 H   0  0  0  0  0  0  0  0  0  0  0  0
   38.4020   31.1050   50.8600 H   0  0  0  0  0  0  0  0  0  0  0  0
   37.2000   32.5490   49.4550 H   0  0  0  0  0  0  0  0  0  0  0  0
   35.5860   31.8680   49.9660 H   0  0  0  0  0  0  0  0  0  0  0  0
   36.2740   31.2440   47.6620 H   0  0  0  0  0  0  0  0  0  0  0  0
   34.5540   29.2230   48.2420 C   0  0  0  0  0  0  0  0  0  0  0  0
   34.0560   29.8180   47.0870 C   0  0  0  0  0  0  0  0  0  0  0  0
   32.8290   29.4060   46.5990 C   0  0  0  0  0  0  0  0  0  0  0  0
   32.1670   28.4290   47.2820 N   0  0  0  0  0  0  0  0  0  0  0  0
   32.6820   27.8760   48.4000 C   0  0  0  0  0  0  0  0  0  0  0  0
   33.8690   28.2770   48.8690 N   0  0  0  0  0  0  0  0  0  0  0  0
   34.6420   30.5730   46.6170 H   0  0  0  0  0  0  0  0  0  0  0  0
   32.4370   29.8650   45.7020 H   0  0  0  0  0  0  0  0  0  0  0  0
   32.1120   27.1050   48.9010 H   0  0  0  0  0  0  0  0  0  0  0  0
   37.9850   30.2990   48.3750 O   0  0  0  0  0  0  0  0  0  0  0  0
   38.4360   30.8460   47.1970 C   0  0  0  0  0  3  0  0  0  0  0  0
   37.3130   31.1860   46.2290 C   0  0  0  0  0  2  0  0  0  0  0  0
   38.0490   32.0540   45.2110 C   0  0  0  0  0  2  0  0  0  0  0  0
   39.2490   32.6150   45.9070 C   0  0  0  0  0  2  0  0  0  0  0  0
   39.0820   32.1870   47.3540 C   0  0  0  0  0  2  0  0  0  0  0  0
  1  2  1  0  0  0  0
  2  8  1  0  0  0  0
  2  3  1  0  0  0  0
  3 10  1  0  0  0  0
  3  9  1  0  0  0  0
  4  3  1  0  0  0  0
  4 11  1  0  0  0  0
  5 14  1  0  0  0  0
  5  4  1  0  0  0  0
  6 15  1  6  0  0  0
  6  1  1  0  0  0  0
  6  5  1  0  0  0  0
  7  2  1  0  0  0  0
 12  4  1  0  0  0  0
 13  5  1  0  0  0  0
 16  1  1  0  0  0  0
 16 21  1  0  0  0  0
 17 16  2  0  0  0  0
 18 17  1  0  0  0  0
 18 19  2  0  0  0  0
 19 20  1  0  0  0  0
 20 21  2  0  0  0  0
 20 24  1  0  0  0  0
 22 17  1  0  0  0  0
 23 18  1  0  0  0  0
 25  6  1  0  0  0  0
 26 30  1  0  0  0  0
 26 25  1  0  0  0  0
 27 26  1  0  0  0  0
 28 29  1  0  0  0  0
 28 27  1  0  0  0  0
 29 30  1  0  0  0  0
M  END
>  <minimizedAffinity>
-5.58142948

>  <minimizedRMSD>
0.690395057

$$$$
