
 OpenBabel03272502153D

 38 41  0  0  1  0  0  0  0  0999 V2000
   36.3300   28.5370   33.5520 C   0  0  0  0  0  0  0  0  0  0  0  0
   36.1500   28.7830   32.2100 C   0  0  0  0  0  0  0  0  0  0  0  0
   35.4850   29.9180   31.7150 C   0  0  0  0  0  0  0  0  0  0  0  0
   35.0030   30.8060   32.6470 N   0  0  0  0  0  0  0  0  0  0  0  0
   35.1800   30.5620   33.9370 C   0  0  0  0  0  0  0  0  0  0  0  0
   35.8180   29.4730   34.3900 N   0  0  0  0  0  0  0  0  0  0  0  0
   36.5280   28.0870   31.4670 H   0  0  0  0  0  0  0  0  0  0  0  0
   35.3670   30.0700   30.6620 H   0  0  0  0  0  0  0  0  0  0  0  0
   34.6560   31.5250   34.9230 C   0  0  2  0  0  0  0  0  0  0  0  0
   35.6420   31.9200   35.9940 C   0  0  0  0  0  0  0  0  0  0  0  0
   34.7080   32.3560   37.1420 C   0  0  0  0  0  0  0  0  0  0  0  0
   33.3100   31.9550   36.7330 C   0  0  0  0  0  0  0  0  0  0  0  0
   33.6070   30.8320   35.7520 C   0  0  1  0  0  0  0  0  0  0  0  0
   34.2220   32.4130   34.4450 H   0  0  0  0  0  0  0  0  0  0  0  0
   36.2840   31.0850   36.2920 H   0  0  0  0  0  0  0  0  0  0  0  0
   36.2010   32.8030   35.6370 H   0  0  0  0  0  0  0  0  0  0  0  0
   34.8130   33.4570   37.3010 H   0  0  0  0  0  0  0  0  0  0  0  0
   34.9740   31.8550   38.0930 H   0  0  0  0  0  0  0  0  0  0  0  0
   32.6940   31.6070   37.5800 H   0  0  0  0  0  0  0  0  0  0  0  0
   32.8150   32.7650   36.1550 H   0  0  0  0  0  0  0  0  0  0  0  0
   34.0210   29.9670   36.2890 H   0  0  0  0  0  0  0  0  0  0  0  0
   32.4150   30.3650   34.9860 C   0  0  0  0  0  0  0  0  0  0  0  0
   32.7790   29.6840   34.2070 H   0  0  0  0  0  0  0  0  0  0  0  0
   31.8880   31.1890   34.4630 H   0  0  0  0  0  0  0  0  0  0  0  0
   31.7670   29.8160   35.6700 H   0  0  0  0  0  0  0  0  0  0  0  0
   37.1440   26.1830   33.3360 C   0  0  0  0  0  0  0  0  0  0  0  0
   37.0110   27.3750   34.0390 C   0  0  0  0  0  0  0  0  0  0  0  0
   37.5850   27.4130   35.2920 C   0  0  0  0  0  0  0  0  0  0  0  0
   38.2340   26.3170   35.7660 N   0  0  0  0  0  0  0  0  0  0  0  0
   38.3370   25.1850   35.0470 C   0  0  0  0  0  0  0  0  0  0  0  0
   37.7900   25.1260   33.8380 N   0  0  0  0  0  0  0  0  0  0  0  0
   36.6740   26.1930   32.3450 H   0  0  0  0  0  0  0  0  0  0  0  0
   37.5260   28.3010   35.9000 H   0  0  0  0  0  0  0  0  0  0  0  0
   39.0480   23.9900   35.5720 C   0  0  0  0  0  3  0  0  0  0  0  0
   38.7310   23.7350   37.0120 C   0  0  0  0  0  2  0  0  0  0  0  0
   37.4600   22.9220   36.9980 C   0  0  0  0  0  2  0  0  0  0  0  0
   37.5840   22.0620   35.7770 C   0  0  0  0  0  2  0  0  0  0  0  0
   38.6030   22.7120   34.8950 C   0  0  0  0  0  2  0  0  0  0  0  0
  1 27  1  0  0  0  0
  1  6  1  0  0  0  0
  2  1  2  0  0  0  0
  3  2  1  0  0  0  0
  3  4  2  0  0  0  0
  4  5  1  0  0  0  0
  5  6  2  0  0  0  0
  5  9  1  0  0  0  0
  7  2  1  0  0  0  0
  8  3  1  0  0  0  0
  9 14  1  6  0  0  0
  9 13  1  0  0  0  0
  9 10  1  0  0  0  0
 10 15  1  0  0  0  0
 10 11  1  0  0  0  0
 11 17  1  0  0  0  0
 11 18  1  0  0  0  0
 12 11  1  0  0  0  0
 12 19  1  0  0  0  0
 13 21  1  1  0  0  0
 13 12  1  0  0  0  0
 16 10  1  0  0  0  0
 20 12  1  0  0  0  0
 22 25  1  0  0  0  0
 22 13  1  0  0  0  0
 23 22  1  0  0  0  0
 24 22  1  0  0  0  0
 26 31  2  0  0  0  0
 26 27  1  0  0  0  0
 27 28  2  0  0  0  0
 28 29  1  0  0  0  0
 28 33  1  0  0  0  0
 30 34  1  0  0  0  0
 30 29  2  0  0  0  0
 31 30  1  0  0  0  0
 32 26  1  0  0  0  0
 34 35  1  0  0  0  0
 36 35  1  0  0  0  0
 37 36  1  0  0  0  0
 38 34  1  0  0  0  0
 38 37  1  0  0  0  0
M  END
>  <minimizedAffinity>
-5.95007801

$$$$

 OpenBabel03272502153D

 38 41  0  0  1  0  0  0  0  0999 V2000
   36.8820   27.5970   33.5140 C   0  0  0  0  0  0  0  0  0  0  0  0
   37.0130   27.8120   32.1610 C   0  0  0  0  0  0  0  0  0  0  0  0
   36.5740   28.9830   31.5180 C   0  0  0  0  0  0  0  0  0  0  0  0
   35.9890   29.9400   32.3130 N   0  0  0  0  0  0  0  0  0  0  0  0
   35.8670   29.7260   33.6140 C   0  0  0  0  0  0  0  0  0  0  0  0
   36.2910   28.6020   34.2090 N   0  0  0  0  0  0  0  0  0  0  0  0
   37.4740   27.0610   31.5260 H   0  0  0  0  0  0  0  0  0  0  0  0
   36.6960   29.1080   30.4620 H   0  0  0  0  0  0  0  0  0  0  0  0
   35.2370   30.7630   34.4510 C   0  0  2  0  0  0  0  0  0  0  0  0
   36.0560   31.1860   35.6440 C   0  0  0  0  0  0  0  0  0  0  0  0
   34.9730   31.7220   36.6030 C   0  0  0  0  0  0  0  0  0  0  0  0
   33.6410   31.3480   35.9960 C   0  0  0  0  0  0  0  0  0  0  0  0
   34.0400   30.1580   35.1360 C   0  0  1  0  0  0  0  0  0  0  0  0
   34.9230   31.6360   33.8630 H   0  0  0  0  0  0  0  0  0  0  0  0
   36.6060   30.3480   36.0850 H   0  0  0  0  0  0  0  0  0  0  0  0
   36.7040   32.0270   35.3350 H   0  0  0  0  0  0  0  0  0  0  0  0
   35.1000   32.8260   36.7170 H   0  0  0  0  0  0  0  0  0  0  0  0
   35.0620   31.2690   37.6090 H   0  0  0  0  0  0  0  0  0  0  0  0
   32.8840   31.0720   36.7510 H   0  0  0  0  0  0  0  0  0  0  0  0
   33.2800   32.1380   35.3040 H   0  0  0  0  0  0  0  0  0  0  0  0
   34.3250   29.3130   35.7770 H   0  0  0  0  0  0  0  0  0  0  0  0
   32.9640   29.6890   34.2140 C   0  0  0  0  0  0  0  0  0  0  0  0
   33.4170   28.9500   33.5410 H   0  0  0  0  0  0  0  0  0  0  0  0
   32.5640   30.4990   33.5710 H   0  0  0  0  0  0  0  0  0  0  0  0
   32.1920   29.2050   34.8140 H   0  0  0  0  0  0  0  0  0  0  0  0
   37.5870   26.2730   35.5140 C   0  0  0  0  0  0  0  0  0  0  0  0
   37.3340   26.3980   34.1520 C   0  0  0  0  0  0  0  0  0  0  0  0
   37.5420   25.2710   33.3870 C   0  0  0  0  0  0  0  0  0  0  0  0
   37.9710   24.1260   33.9810 N   0  0  0  0  0  0  0  0  0  0  0  0
   38.2020   24.0540   35.3030 C   0  0  0  0  0  0  0  0  0  0  0  0
   38.0090   25.1290   36.0600 N   0  0  0  0  0  0  0  0  0  0  0  0
   37.4100   27.1910   36.0880 H   0  0  0  0  0  0  0  0  0  0  0  0
   37.3680   25.2850   32.3230 H   0  0  0  0  0  0  0  0  0  0  0  0
   38.6710   22.7990   35.9460 C   0  0  0  0  0  3  0  0  0  0  0  0
   39.7730   22.1480   35.1700 C   0  0  0  0  0  2  0  0  0  0  0  0
   41.0390   22.8180   35.6480 C   0  0  0  0  0  2  0  0  0  0  0  0
   40.7900   23.0900   37.1000 C   0  0  0  0  0  2  0  0  0  0  0  0
   39.3070   23.0470   37.2960 C   0  0  0  0  0  2  0  0  0  0  0  0
  1 27  1  0  0  0  0
  1  6  1  0  0  0  0
  2  1  2  0  0  0  0
  3  2  1  0  0  0  0
  3  4  2  0  0  0  0
  4  5  1  0  0  0  0
  5  6  2  0  0  0  0
  5  9  1  0  0  0  0
  7  2  1  0  0  0  0
  8  3  1  0  0  0  0
  9 14  1  6  0  0  0
  9 13  1  0  0  0  0
  9 10  1  0  0  0  0
 10 15  1  0  0  0  0
 10 11  1  0  0  0  0
 11 17  1  0  0  0  0
 11 18  1  0  0  0  0
 12 11  1  0  0  0  0
 12 19  1  0  0  0  0
 13 21  1  1  0  0  0
 13 12  1  0  0  0  0
 16 10  1  0  0  0  0
 20 12  1  0  0  0  0
 22 25  1  0  0  0  0
 22 13  1  0  0  0  0
 23 22  1  0  0  0  0
 24 22  1  0  0  0  0
 26 31  1  0  0  0  0
 26 32  1  0  0  0  0
 27 26  2  0  0  0  0
 28 29  2  0  0  0  0
 28 27  1  0  0  0  0
 29 30  1  0  0  0  0
 30 34  1  0  0  0  0
 30 31  2  0  0  0  0
 33 28  1  0  0  0  0
 34 38  1  0  0  0  0
 35 36  1  0  0  0  0
 35 34  1  0  0  0  0
 36 37  1  0  0  0  0
 37 38  1  0  0  0  0
M  END
>  <minimizedAffinity>
-5.79645395

$$$$

 OpenBabel03272502153D

 38 41  0  0  1  0  0  0  0  0999 V2000
   35.4460   29.3130   32.3870 C   0  0  0  0  0  0  0  0  0  0  0  0
   35.9730   30.1200   31.4050 C   0  0  0  0  0  0  0  0  0  0  0  0
   36.6200   29.6230   30.2600 C   0  0  0  0  0  0  0  0  0  0  0  0
   36.7120   28.2560   30.1490 N   0  0  0  0  0  0  0  0  0  0  0  0
   36.2010   27.4860   31.0980 C   0  0  0  0  0  0  0  0  0  0  0  0
   35.5880   27.9790   32.1840 N   0  0  0  0  0  0  0  0  0  0  0  0
   35.9050   31.2010   31.4850 H   0  0  0  0  0  0  0  0  0  0  0  0
   37.0160   30.2880   29.5200 H   0  0  0  0  0  0  0  0  0  0  0  0
   36.3090   26.0220   30.9630 C   0  0  2  0  0  0  0  0  0  0  0  0
   34.9860   25.2980   30.9360 C   0  0  0  0  0  0  0  0  0  0  0  0
   35.3830   23.8880   31.4210 C   0  0  0  0  0  0  0  0  0  0  0  0
   36.8110   23.9880   31.9040 C   0  0  0  0  0  0  0  0  0  0  0  0
   36.9020   25.4700   32.2330 C   0  0  1  0  0  0  0  0  0  0  0  0
   36.9330   25.7290   30.1070 H   0  0  0  0  0  0  0  0  0  0  0  0
   34.2490   25.7610   31.6000 H   0  0  0  0  0  0  0  0  0  0  0  0
   34.6540   25.2310   29.8840 H   0  0  0  0  0  0  0  0  0  0  0  0
   35.2610   23.1640   30.5790 H   0  0  0  0  0  0  0  0  0  0  0  0
   34.7340   23.5480   32.2500 H   0  0  0  0  0  0  0  0  0  0  0  0
   37.0130   23.3590   32.7890 H   0  0  0  0  0  0  0  0  0  0  0  0
   37.5280   23.7970   31.0770 H   0  0  0  0  0  0  0  0  0  0  0  0
   36.2740   25.6980   33.1050 H   0  0  0  0  0  0  0  0  0  0  0  0
   38.2860   25.9410   32.5310 C   0  0  0  0  0  0  0  0  0  0  0  0
   38.2490   27.0360   32.5870 H   0  0  0  0  0  0  0  0  0  0  0  0
   39.0090   25.6900   31.7290 H   0  0  0  0  0  0  0  0  0  0  0  0
   38.5770   25.5400   33.5030 H   0  0  0  0  0  0  0  0  0  0  0  0
   33.4480   29.6410   33.8550 C   0  0  0  0  0  0  0  0  0  0  0  0
   34.7900   29.8370   33.5470 C   0  0  0  0  0  0  0  0  0  0  0  0
   35.5180   30.5930   34.4420 C   0  0  0  0  0  0  0  0  0  0  0  0
   34.9070   31.0960   35.5480 N   0  0  0  0  0  0  0  0  0  0  0  0
   33.6050   30.8790   35.8020 C   0  0  0  0  0  0  0  0  0  0  0  0
   32.8850   30.1540   34.9530 N   0  0  0  0  0  0  0  0  0  0  0  0
   32.9040   29.0350   33.1190 H   0  0  0  0  0  0  0  0  0  0  0  0
   36.5640   30.7900   34.2760 H   0  0  0  0  0  0  0  0  0  0  0  0
   32.9440   31.4320   37.0130 C   0  0  0  0  0  3  0  0  0  0  0  0
   33.4630   32.7910   37.3650 C   0  0  0  0  0  2  0  0  0  0  0  0
   32.6490   33.7510   36.5320 C   0  0  0  0  0  2  0  0  0  0  0  0
   31.2890   33.1250   36.4680 C   0  0  0  0  0  2  0  0  0  0  0  0
   31.4660   31.6770   36.8000 C   0  0  0  0  0  2  0  0  0  0  0  0
  1 27  1  0  0  0  0
  2  7  1  0  0  0  0
  2  1  2  0  0  0  0
  3  2  1  0  0  0  0
  4  3  2  0  0  0  0
  4  5  1  0  0  0  0
  5  6  2  0  0  0  0
  6  1  1  0  0  0  0
  8  3  1  0  0  0  0
  9 14  1  6  0  0  0
  9  5  1  0  0  0  0
  9 13  1  0  0  0  0
 10  9  1  0  0  0  0
 10 11  1  0  0  0  0
 10 15  1  0  0  0  0
 11 12  1  0  0  0  0
 11 18  1  0  0  0  0
 12 13  1  0  0  0  0
 12 19  1  0  0  0  0
 13 22  1  0  0  0  0
 13 21  1  1  0  0  0
 16 10  1  0  0  0  0
 17 11  1  0  0  0  0
 20 12  1  0  0  0  0
 22 23  1  0  0  0  0
 22 25  1  0  0  0  0
 24 22  1  0  0  0  0
 26 31  1  0  0  0  0
 27 26  2  0  0  0  0
 27 28  1  0  0  0  0
 28 29  2  0  0  0  0
 29 30  1  0  0  0  0
 30 34  1  0  0  0  0
 31 30  2  0  0  0  0
 32 26  1  0  0  0  0
 33 28  1  0  0  0  0
 34 35  1  0  0  0  0
 36 35  1  0  0  0  0
 37 36  1  0  0  0  0
 37 38  1  0  0  0  0
 38 34  1  0  0  0  0
M  END
>  <minimizedAffinity>
-5.64171743

$$$$

 OpenBabel03272502153D

 38 41  0  0  1  0  0  0  0  0999 V2000
   36.2360   28.6830   33.9880 C   0  0  0  0  0  0  0  0  0  0  0  0
   35.7310   29.0760   32.7700 C   0  0  0  0  0  0  0  0  0  0  0  0
   34.9640   30.2400   32.5910 C   0  0  0  0  0  0  0  0  0  0  0  0
   34.7260   31.0010   33.7110 N   0  0  0  0  0  0  0  0  0  0  0  0
   35.2160   30.6150   34.8800 C   0  0  0  0  0  0  0  0  0  0  0  0
   35.9460   29.5010   35.0310 N   0  0  0  0  0  0  0  0  0  0  0  0
   35.9140   28.4810   31.8800 H   0  0  0  0  0  0  0  0  0  0  0  0
   34.5900   30.5090   31.6240 H   0  0  0  0  0  0  0  0  0  0  0  0
   34.9520   31.4430   36.0710 C   0  0  2  0  0  0  0  0  0  0  0  0
   33.4960   31.5390   36.4540 C   0  0  0  0  0  0  0  0  0  0  0  0
   33.4580   32.8690   37.2350 C   0  0  0  0  0  0  0  0  0  0  0  0
   34.8040   33.5240   37.0310 C   0  0  0  0  0  0  0  0  0  0  0  0
   35.2440   32.8790   35.7260 C   0  0  1  0  0  0  0  0  0  0  0  0
   35.5630   31.1380   36.9320 H   0  0  0  0  0  0  0  0  0  0  0  0
   32.8400   31.5670   35.5770 H   0  0  0  0  0  0  0  0  0  0  0  0
   33.2690   30.7120   37.1500 H   0  0  0  0  0  0  0  0  0  0  0  0
   33.2400   32.6550   38.3090 H   0  0  0  0  0  0  0  0  0  0  0  0
   32.6600   33.5370   36.8590 H   0  0  0  0  0  0  0  0  0  0  0  0
   34.7420   34.6230   36.9450 H   0  0  0  0  0  0  0  0  0  0  0  0
   35.5280   33.2010   37.8100 H   0  0  0  0  0  0  0  0  0  0  0  0
   34.6110   33.2350   34.9020 H   0  0  0  0  0  0  0  0  0  0  0  0
   36.6650   33.1560   35.3620 C   0  0  0  0  0  0  0  0  0  0  0  0
   36.9090   32.5140   34.5070 H   0  0  0  0  0  0  0  0  0  0  0  0
   37.3770   32.8910   36.1700 H   0  0  0  0  0  0  0  0  0  0  0  0
   36.7390   34.2020   35.0600 H   0  0  0  0  0  0  0  0  0  0  0  0
   37.0160   26.4180   33.2700 C   0  0  0  0  0  0  0  0  0  0  0  0
   37.0160   27.4930   34.1520 C   0  0  0  0  0  0  0  0  0  0  0  0
   37.8350   27.3780   35.2550 C   0  0  0  0  0  0  0  0  0  0  0  0
   38.5810   26.2540   35.4230 N   0  0  0  0  0  0  0  0  0  0  0  0
   38.5470   25.2400   34.5410 C   0  0  0  0  0  0  0  0  0  0  0  0
   37.7640   25.3290   33.4710 N   0  0  0  0  0  0  0  0  0  0  0  0
   36.3520   26.5480   32.4060 H   0  0  0  0  0  0  0  0  0  0  0  0
   37.8930   28.1680   35.9860 H   0  0  0  0  0  0  0  0  0  0  0  0
   39.3640   24.0130   34.7310 C   0  0  0  0  0  3  0  0  0  0  0  0
   39.5560   23.6840   36.1780 C   0  0  0  0  0  2  0  0  0  0  0  0
   38.3370   22.8810   36.5630 C   0  0  0  0  0  2  0  0  0  0  0  0
   38.0120   22.0870   35.3340 C   0  0  0  0  0  2  0  0  0  0  0  0
   38.6820   22.7770   34.1880 C   0  0  0  0  0  2  0  0  0  0  0  0
  1 27  1  0  0  0  0
  1  6  1  0  0  0  0
  2  1  2  0  0  0  0
  3  2  1  0  0  0  0
  3  4  2  0  0  0  0
  4  5  1  0  0  0  0
  5  6  2  0  0  0  0
  5  9  1  0  0  0  0
  7  2  1  0  0  0  0
  8  3  1  0  0  0  0
  9 10  1  0  0  0  0
  9 14  1  1  0  0  0
 10 16  1  0  0  0  0
 10 11  1  0  0  0  0
 11 17  1  0  0  0  0
 12 11  1  0  0  0  0
 12 20  1  0  0  0  0
 13 21  1  6  0  0  0
 13  9  1  0  0  0  0
 13 12  1  0  0  0  0
 15 10  1  0  0  0  0
 18 11  1  0  0  0  0
 19 12  1  0  0  0  0
 22 13  1  0  0  0  0
 22 24  1  0  0  0  0
 23 22  1  0  0  0  0
 25 22  1  0  0  0  0
 26 31  2  0  0  0  0
 26 27  1  0  0  0  0
 27 28  2  0  0  0  0
 28 29  1  0  0  0  0
 28 33  1  0  0  0  0
 30 34  1  0  0  0  0
 30 29  2  0  0  0  0
 31 30  1  0  0  0  0
 32 26  1  0  0  0  0
 34 35  1  0  0  0  0
 35 36  1  0  0  0  0
 37 36  1  0  0  0  0
 38 34  1  0  0  0  0
 38 37  1  0  0  0  0
M  END
>  <minimizedAffinity>
-5.526649

$$$$

 OpenBabel03272502153D

 38 41  0  0  1  0  0  0  0  0999 V2000
   35.9940   27.2510   31.4410 C   0  0  0  0  0  0  0  0  0  0  0  0
   36.6890   28.0680   30.5790 C   0  0  0  0  0  0  0  0  0  0  0  0
   36.5010   29.4600   30.5130 C   0  0  0  0  0  0  0  0  0  0  0  0
   35.5690   29.9970   31.3690 N   0  0  0  0  0  0  0  0  0  0  0  0
   34.9050   29.2040   32.1960 C   0  0  0  0  0  0  0  0  0  0  0  0
   35.0970   27.8780   32.2430 N   0  0  0  0  0  0  0  0  0  0  0  0
   37.4270   27.6520   29.9000 H   0  0  0  0  0  0  0  0  0  0  0  0
   37.0640   30.0580   29.8270 H   0  0  0  0  0  0  0  0  0  0  0  0
   33.9090   29.7970   33.1060 C   0  0  2  0  0  0  0  0  0  0  0  0
   32.8570   30.6350   32.4210 C   0  0  0  0  0  0  0  0  0  0  0  0
   32.4080   31.5760   33.5580 C   0  0  0  0  0  0  0  0  0  0  0  0
   33.3810   31.3700   34.6950 C   0  0  0  0  0  0  0  0  0  0  0  0
   34.5940   30.8440   33.9440 C   0  0  1  0  0  0  0  0  0  0  0  0
   33.4450   29.0460   33.7600 H   0  0  0  0  0  0  0  0  0  0  0  0
   33.2640   31.1930   31.5720 H   0  0  0  0  0  0  0  0  0  0  0  0
   32.0130   29.9740   32.1530 H   0  0  0  0  0  0  0  0  0  0  0  0
   31.3550   31.3310   33.8410 H   0  0  0  0  0  0  0  0  0  0  0  0
   32.4300   32.6360   33.2390 H   0  0  0  0  0  0  0  0  0  0  0  0
   33.6100   32.3010   35.2420 H   0  0  0  0  0  0  0  0  0  0  0  0
   33.0420   30.5550   35.3690 H   0  0  0  0  0  0  0  0  0  0  0  0
   35.0250   31.6420   33.3230 H   0  0  0  0  0  0  0  0  0  0  0  0
   35.6760   30.3220   34.8300 C   0  0  0  0  0  0  0  0  0  0  0  0
   36.4110   29.8270   34.1840 H   0  0  0  0  0  0  0  0  0  0  0  0
   35.3160   29.5550   35.5450 H   0  0  0  0  0  0  0  0  0  0  0  0
   36.1470   31.1730   35.3250 H   0  0  0  0  0  0  0  0  0  0  0  0
   35.3340   24.8890   30.9510 C   0  0  0  0  0  0  0  0  0  0  0  0
   36.1970   25.8340   31.4940 C   0  0  0  0  0  0  0  0  0  0  0  0
   37.3220   25.3440   32.1220 C   0  0  0  0  0  0  0  0  0  0  0  0
   37.5280   24.0010   32.1790 N   0  0  0  0  0  0  0  0  0  0  0  0
   36.6620   23.1260   31.6380 C   0  0  0  0  0  0  0  0  0  0  0  0
   35.5710   23.5770   31.0290 N   0  0  0  0  0  0  0  0  0  0  0  0
   34.4510   25.3190   30.4600 H   0  0  0  0  0  0  0  0  0  0  0  0
   38.0420   26.0110   32.5680 H   0  0  0  0  0  0  0  0  0  0  0  0
   36.8930   21.6600   31.7040 C   0  0  0  0  0  3  0  0  0  0  0  0
   37.0090   21.1720   33.1140 C   0  0  0  0  0  2  0  0  0  0  0  0
   35.5900   20.9280   33.5640 C   0  0  0  0  0  2  0  0  0  0  0  0
   34.8890   20.4380   32.3340 C   0  0  0  0  0  2  0  0  0  0  0  0
   35.7210   20.8680   31.1670 C   0  0  0  0  0  2  0  0  0  0  0  0
  1 27  1  0  0  0  0
  1  6  1  0  0  0  0
  2  1  2  0  0  0  0
  3  2  1  0  0  0  0
  3  4  2  0  0  0  0
  4  5  1  0  0  0  0
  5  6  2  0  0  0  0
  5  9  1  0  0  0  0
  7  2  1  0  0  0  0
  8  3  1  0  0  0  0
  9 14  1  1  0  0  0
  9 13  1  0  0  0  0
 10  9  1  0  0  0  0
 10 11  1  0  0  0  0
 11 17  1  0  0  0  0
 11 12  1  0  0  0  0
 12 19  1  0  0  0  0
 12 20  1  0  0  0  0
 13 21  1  6  0  0  0
 13 12  1  0  0  0  0
 13 22  1  0  0  0  0
 15 10  1  0  0  0  0
 16 10  1  0  0  0  0
 18 11  1  0  0  0  0
 22 25  1  0  0  0  0
 22 24  1  0  0  0  0
 23 22  1  0  0  0  0
 26 31  2  0  0  0  0
 26 27  1  0  0  0  0
 27 28  2  0  0  0  0
 28 29  1  0  0  0  0
 28 33  1  0  0  0  0
 30 34  1  0  0  0  0
 30 29  2  0  0  0  0
 31 30  1  0  0  0  0
 32 26  1  0  0  0  0
 34 35  1  0  0  0  0
 35 36  1  0  0  0  0
 37 36  1  0  0  0  0
 38 34  1  0  0  0  0
 38 37  1  0  0  0  0
M  END
>  <minimizedAffinity>
-5.51831388

$$$$

 OpenBabel03272502153D

 38 41  0  0  1  0  0  0  0  0999 V2000
   37.3960   25.7240   33.6610 C   0  0  0  0  0  0  0  0  0  0  0  0
   37.4440   25.0530   32.4600 C   0  0  0  0  0  0  0  0  0  0  0  0
   37.9030   23.7310   32.3320 C   0  0  0  0  0  0  0  0  0  0  0  0
   38.3170   23.1070   33.4840 N   0  0  0  0  0  0  0  0  0  0  0  0
   38.2680   23.7590   34.6360 C   0  0  0  0  0  0  0  0  0  0  0  0
   37.8270   25.0210   34.7390 N   0  0  0  0  0  0  0  0  0  0  0  0
   37.1180   25.5380   31.5450 H   0  0  0  0  0  0  0  0  0  0  0  0
   37.9230   23.2460   31.3770 H   0  0  0  0  0  0  0  0  0  0  0  0
   38.7170   23.0750   35.8620 C   0  0  2  0  0  0  0  0  0  0  0  0
   37.9980   23.5050   37.1160 C   0  0  0  0  0  0  0  0  0  0  0  0
   39.0290   23.1600   38.2110 C   0  0  0  0  0  0  0  0  0  0  0  0
   40.3090   22.7990   37.4940 C   0  0  0  0  0  0  0  0  0  0  0  0
   40.1180   23.5310   36.1750 C   0  0  1  0  0  0  0  0  0  0  0  0
   38.7000   21.9820   35.7570 H   0  0  0  0  0  0  0  0  0  0  0  0
   37.7590   24.5740   37.1090 H   0  0  0  0  0  0  0  0  0  0  0  0
   37.1130   22.8550   37.2440 H   0  0  0  0  0  0  0  0  0  0  0  0
   38.6320   22.3230   38.8350 H   0  0  0  0  0  0  0  0  0  0  0  0
   39.2090   24.0210   38.8820 H   0  0  0  0  0  0  0  0  0  0  0  0
   41.2130   23.1430   38.0260 H   0  0  0  0  0  0  0  0  0  0  0  0
   40.3430   21.7140   37.2580 H   0  0  0  0  0  0  0  0  0  0  0  0
   40.1630   24.6160   36.3400 H   0  0  0  0  0  0  0  0  0  0  0  0
   41.1330   23.1850   35.1370 C   0  0  0  0  0  0  0  0  0  0  0  0
   40.7980   23.6390   34.1960 H   0  0  0  0  0  0  0  0  0  0  0  0
   41.2070   22.0940   34.9530 H   0  0  0  0  0  0  0  0  0  0  0  0
   42.0840   23.6290   35.4330 H   0  0  0  0  0  0  0  0  0  0  0  0
   36.2420   27.7580   32.7760 C   0  0  0  0  0  0  0  0  0  0  0  0
   36.9260   27.0720   33.7740 C   0  0  0  0  0  0  0  0  0  0  0  0
   37.1510   27.7620   34.9450 C   0  0  0  0  0  0  0  0  0  0  0  0
   36.7090   29.0420   35.0650 N   0  0  0  0  0  0  0  0  0  0  0  0
   36.0530   29.6640   34.0710 C   0  0  0  0  0  0  0  0  0  0  0  0
   35.8250   29.0170   32.9330 N   0  0  0  0  0  0  0  0  0  0  0  0
   36.0830   27.1740   31.8600 H   0  0  0  0  0  0  0  0  0  0  0  0
   37.6730   27.3010   35.7670 H   0  0  0  0  0  0  0  0  0  0  0  0
   35.5720   31.0640   34.2090 C   0  0  0  0  0  3  0  0  0  0  0  0
   34.0780   31.1480   34.2070 C   0  0  0  0  0  2  0  0  0  0  0  0
   33.6690   30.9100   35.6410 C   0  0  0  0  0  2  0  0  0  0  0  0
   34.7610   31.5430   36.4490 C   0  0  0  0  0  2  0  0  0  0  0  0
   35.9450   31.6710   35.5440 C   0  0  0  0  0  2  0  0  0  0  0  0
  1 27  1  0  0  0  0
  1  6  1  0  0  0  0
  2  1  2  0  0  0  0
  3  2  1  0  0  0  0
  3  4  2  0  0  0  0
  4  5  1  0  0  0  0
  5  6  2  0  0  0  0
  5  9  1  0  0  0  0
  7  2  1  0  0  0  0
  8  3  1  0  0  0  0
  9 14  1  6  0  0  0
  9 13  1  0  0  0  0
  9 10  1  0  0  0  0
 10 16  1  0  0  0  0
 10 11  1  0  0  0  0
 11 17  1  0  0  0  0
 11 18  1  0  0  0  0
 12 19  1  0  0  0  0
 12 11  1  0  0  0  0
 13 21  1  1  0  0  0
 13 12  1  0  0  0  0
 15 10  1  0  0  0  0
 20 12  1  0  0  0  0
 22 25  1  0  0  0  0
 22 13  1  0  0  0  0
 23 22  1  0  0  0  0
 24 22  1  0  0  0  0
 26 31  2  0  0  0  0
 26 27  1  0  0  0  0
 27 28  2  0  0  0  0
 28 29  1  0  0  0  0
 28 33  1  0  0  0  0
 30 34  1  0  0  0  0
 30 29  2  0  0  0  0
 31 30  1  0  0  0  0
 32 26  1  0  0  0  0
 34 38  1  0  0  0  0
 35 34  1  0  0  0  0
 35 36  1  0  0  0  0
 36 37  1  0  0  0  0
 38 37  1  0  0  0  0
M  END
>  <minimizedAffinity>
-5.44588709

$$$$

 OpenBabel03272502153D

 38 41  0  0  1  0  0  0  0  0999 V2000
   37.6390   25.4470   33.5790 C   0  0  0  0  0  0  0  0  0  0  0  0
   37.4300   24.4500   32.6550 C   0  0  0  0  0  0  0  0  0  0  0  0
   38.0500   23.1900   32.7240 C   0  0  0  0  0  0  0  0  0  0  0  0
   38.9010   22.9780   33.7830 N   0  0  0  0  0  0  0  0  0  0  0  0
   39.0960   23.9440   34.6680 C   0  0  0  0  0  0  0  0  0  0  0  0
   38.4960   25.1400   34.5850 N   0  0  0  0  0  0  0  0  0  0  0  0
   36.7600   24.6080   31.8150 H   0  0  0  0  0  0  0  0  0  0  0  0
   37.8580   22.4410   31.9830 H   0  0  0  0  0  0  0  0  0  0  0  0
   40.0120   23.7000   35.7970 C   0  0  2  0  0  0  0  0  0  0  0  0
   41.2600   22.9340   35.4350 C   0  0  0  0  0  0  0  0  0  0  0  0
   41.6540   22.3060   36.7880 C   0  0  0  0  0  0  0  0  0  0  0  0
   40.4990   22.5570   37.7290 C   0  0  0  0  0  0  0  0  0  0  0  0
   39.3550   22.7290   36.7420 C   0  0  1  0  0  0  0  0  0  0  0  0
   40.2640   24.6250   36.3350 H   0  0  0  0  0  0  0  0  0  0  0  0
   41.0690   22.1690   34.6750 H   0  0  0  0  0  0  0  0  0  0  0  0
   42.0380   23.6630   35.1430 H   0  0  0  0  0  0  0  0  0  0  0  0
   42.6080   22.7670   37.1420 H   0  0  0  0  0  0  0  0  0  0  0  0
   41.8250   21.2160   36.6940 H   0  0  0  0  0  0  0  0  0  0  0  0
   40.3180   21.7190   38.4240 H   0  0  0  0  0  0  0  0  0  0  0  0
   40.6170   23.5270   38.2570 H   0  0  0  0  0  0  0  0  0  0  0  0
   39.1380   21.7710   36.2510 H   0  0  0  0  0  0  0  0  0  0  0  0
   38.0900   23.2220   37.3610 C   0  0  0  0  0  0  0  0  0  0  0  0
   37.4020   23.4610   36.5410 H   0  0  0  0  0  0  0  0  0  0  0  0
   38.2280   24.1560   37.9410 H   0  0  0  0  0  0  0  0  0  0  0  0
   37.6680   22.4120   37.9590 H   0  0  0  0  0  0  0  0  0  0  0  0
   36.4430   27.2560   32.3340 C   0  0  0  0  0  0  0  0  0  0  0  0
   37.0000   26.7260   33.4930 C   0  0  0  0  0  0  0  0  0  0  0  0
   36.9150   27.5090   34.6240 C   0  0  0  0  0  0  0  0  0  0  0  0
   36.3100   28.7240   34.5560 N   0  0  0  0  0  0  0  0  0  0  0  0
   35.7860   29.1930   33.4100 C   0  0  0  0  0  0  0  0  0  0  0  0
   35.8570   28.4560   32.3080 N   0  0  0  0  0  0  0  0  0  0  0  0
   36.5310   26.6030   31.4560 H   0  0  0  0  0  0  0  0  0  0  0  0
   37.3220   27.1690   35.5630 H   0  0  0  0  0  0  0  0  0  0  0  0
   35.1260   30.5240   33.3430 C   0  0  0  0  0  3  0  0  0  0  0  0
   33.7030   30.4230   32.8910 C   0  0  0  0  0  2  0  0  0  0  0  0
   32.9110   30.1400   34.1440 C   0  0  0  0  0  2  0  0  0  0  0  0
   33.6260   30.9060   35.2160 C   0  0  0  0  0  2  0  0  0  0  0  0
   35.0050   31.1760   34.7030 C   0  0  0  0  0  2  0  0  0  0  0  0
  1  6  1  0  0  0  0
  2  3  1  0  0  0  0
  2  1  2  0  0  0  0
  3  4  2  0  0  0  0
  4  5  1  0  0  0  0
  5  9  1  0  0  0  0
  6  5  2  0  0  0  0
  7  2  1  0  0  0  0
  8  3  1  0  0  0  0
  9 14  1  1  0  0  0
  9 13  1  0  0  0  0
 10  9  1  0  0  0  0
 10 11  1  0  0  0  0
 11 17  1  0  0  0  0
 11 12  1  0  0  0  0
 12 20  1  0  0  0  0
 12 19  1  0  0  0  0
 13 21  1  6  0  0  0
 13 22  1  0  0  0  0
 13 12  1  0  0  0  0
 15 10  1  0  0  0  0
 16 10  1  0  0  0  0
 18 11  1  0  0  0  0
 22 24  1  0  0  0  0
 22 25  1  0  0  0  0
 23 22  1  0  0  0  0
 26 27  1  0  0  0  0
 27  1  1  0  0  0  0
 27 28  2  0  0  0  0
 28 33  1  0  0  0  0
 29 28  1  0  0  0  0
 30 29  2  0  0  0  0
 31 26  2  0  0  0  0
 31 30  1  0  0  0  0
 32 26  1  0  0  0  0
 34 30  1  0  0  0  0
 34 38  1  0  0  0  0
 35 34  1  0  0  0  0
 35 36  1  0  0  0  0
 36 37  1  0  0  0  0
 38 37  1  0  0  0  0
M  END
>  <minimizedAffinity>
-5.38907909

$$$$

 OpenBabel03272502153D

 38 41  0  0  1  0  0  0  0  0999 V2000
   37.4020   25.7000   33.4600 C   0  0  0  0  0  0  0  0  0  0  0  0
   37.2780   24.6930   32.5300 C   0  0  0  0  0  0  0  0  0  0  0  0
   37.8990   23.4380   32.6630 C   0  0  0  0  0  0  0  0  0  0  0  0
   38.6600   23.2420   33.7910 N   0  0  0  0  0  0  0  0  0  0  0  0
   38.7730   24.2170   34.6810 C   0  0  0  0  0  0  0  0  0  0  0  0
   38.1740   25.4070   34.5370 N   0  0  0  0  0  0  0  0  0  0  0  0
   36.6790   24.8380   31.6360 H   0  0  0  0  0  0  0  0  0  0  0  0
   37.7760   22.6820   31.9140 H   0  0  0  0  0  0  0  0  0  0  0  0
   39.5930   23.9900   35.8850 C   0  0  2  0  0  0  0  0  0  0  0  0
   40.9400   23.3670   35.6150 C   0  0  0  0  0  0  0  0  0  0  0  0
   41.2590   22.6950   36.9670 C   0  0  0  0  0  0  0  0  0  0  0  0
   39.9970   22.7790   37.7940 C   0  0  0  0  0  0  0  0  0  0  0  0
   38.9450   22.9050   36.7040 C   0  0  1  0  0  0  0  0  0  0  0  0
   39.6980   24.8990   36.4930 H   0  0  0  0  0  0  0  0  0  0  0  0
   40.9010   22.6360   34.8000 H   0  0  0  0  0  0  0  0  0  0  0  0
   41.6670   24.1820   35.4440 H   0  0  0  0  0  0  0  0  0  0  0  0
   42.1220   23.2210   37.4410 H   0  0  0  0  0  0  0  0  0  0  0  0
   41.5450   21.6340   36.8340 H   0  0  0  0  0  0  0  0  0  0  0  0
   39.8320   21.8860   38.4220 H   0  0  0  0  0  0  0  0  0  0  0  0
   39.9660   23.7210   38.3820 H   0  0  0  0  0  0  0  0  0  0  0  0
   38.8730   21.9630   36.1430 H   0  0  0  0  0  0  0  0  0  0  0  0
   37.5820   23.2380   37.2130 C   0  0  0  0  0  0  0  0  0  0  0  0
   36.9580   23.4640   36.3390 H   0  0  0  0  0  0  0  0  0  0  0  0
   37.5700   24.1440   37.8520 H   0  0  0  0  0  0  0  0  0  0  0  0
   37.1860   22.3580   37.7200 H   0  0  0  0  0  0  0  0  0  0  0  0
   36.6380   27.9210   34.3180 C   0  0  0  0  0  0  0  0  0  0  0  0
   36.7630   26.9720   33.3080 C   0  0  0  0  0  0  0  0  0  0  0  0
   36.2250   27.3080   32.0850 C   0  0  0  0  0  0  0  0  0  0  0  0
   35.6160   28.5140   31.9280 N   0  0  0  0  0  0  0  0  0  0  0  0
   35.5200   29.3980   32.9350 C   0  0  0  0  0  0  0  0  0  0  0  0
   36.0310   29.0950   34.1230 N   0  0  0  0  0  0  0  0  0  0  0  0
   37.0780   27.6150   35.2760 H   0  0  0  0  0  0  0  0  0  0  0  0
   36.2810   26.6280   31.2510 H   0  0  0  0  0  0  0  0  0  0  0  0
   34.8520   30.7140   32.7570 C   0  0  0  0  0  3  0  0  0  0  0  0
   35.7530   31.8540   33.1140 C   0  0  0  0  0  2  0  0  0  0  0  0
   36.5490   32.1340   31.8630 C   0  0  0  0  0  2  0  0  0  0  0  0
   35.5910   31.8570   30.7440 C   0  0  0  0  0  2  0  0  0  0  0  0
   34.5090   30.9930   31.3090 C   0  0  0  0  0  2  0  0  0  0  0  0
  1  6  1  0  0  0  0
  2  3  1  0  0  0  0
  2  1  2  0  0  0  0
  3  4  2  0  0  0  0
  4  5  1  0  0  0  0
  5  9  1  0  0  0  0
  6  5  2  0  0  0  0
  7  2  1  0  0  0  0
  8  3  1  0  0  0  0
  9 14  1  1  0  0  0
  9 13  1  0  0  0  0
 10  9  1  0  0  0  0
 10 11  1  0  0  0  0
 11 17  1  0  0  0  0
 11 12  1  0  0  0  0
 12 20  1  0  0  0  0
 12 19  1  0  0  0  0
 13 21  1  6  0  0  0
 13 22  1  0  0  0  0
 13 12  1  0  0  0  0
 15 10  1  0  0  0  0
 16 10  1  0  0  0  0
 18 11  1  0  0  0  0
 22 25  1  0  0  0  0
 22 24  1  0  0  0  0
 23 22  1  0  0  0  0
 26 32  1  0  0  0  0
 27  1  1  0  0  0  0
 27 26  2  0  0  0  0
 28 27  1  0  0  0  0
 29 28  2  0  0  0  0
 29 30  1  0  0  0  0
 30 31  2  0  0  0  0
 31 26  1  0  0  0  0
 33 28  1  0  0  0  0
 34 30  1  0  0  0  0
 34 35  1  0  0  0  0
 36 35  1  0  0  0  0
 37 38  1  0  0  0  0
 37 36  1  0  0  0  0
 38 34  1  0  0  0  0
M  END
>  <minimizedAffinity>
-5.35865355

$$$$

 OpenBabel03272502153D

 38 41  0  0  1  0  0  0  0  0999 V2000
   35.7940   29.1670   32.9880 C   0  0  0  0  0  0  0  0  0  0  0  0
   36.2280   29.8060   31.8500 C   0  0  0  0  0  0  0  0  0  0  0  0
   36.8790   29.1450   30.7930 C   0  0  0  0  0  0  0  0  0  0  0  0
   37.0740   27.7920   30.9390 N   0  0  0  0  0  0  0  0  0  0  0  0
   36.6530   27.1850   32.0370 C   0  0  0  0  0  0  0  0  0  0  0  0
   36.0340   27.8320   33.0350 N   0  0  0  0  0  0  0  0  0  0  0  0
   36.0790   30.8750   31.7260 H   0  0  0  0  0  0  0  0  0  0  0  0
   37.2010   29.6820   29.9240 H   0  0  0  0  0  0  0  0  0  0  0  0
   36.8700   25.7340   32.1770 C   0  0  2  0  0  0  0  0  0  0  0  0
   38.3040   25.2980   32.0110 C   0  0  0  0  0  0  0  0  0  0  0  0
   38.1430   23.8260   31.5780 C   0  0  0  0  0  0  0  0  0  0  0  0
   36.6720   23.6180   31.3050 C   0  0  0  0  0  0  0  0  0  0  0  0
   36.2320   25.0420   31.0020 C   0  0  1  0  0  0  0  0  0  0  0  0
   36.4480   25.3390   33.1120 H   0  0  0  0  0  0  0  0  0  0  0  0
   38.8290   25.8870   31.2510 H   0  0  0  0  0  0  0  0  0  0  0  0
   38.7890   25.3250   33.0040 H   0  0  0  0  0  0  0  0  0  0  0  0
   38.5300   23.1620   32.3890 H   0  0  0  0  0  0  0  0  0  0  0  0
   38.7250   23.6070   30.6620 H   0  0  0  0  0  0  0  0  0  0  0  0
   36.4820   22.9410   30.4540 H   0  0  0  0  0  0  0  0  0  0  0  0
   36.1350   23.3040   32.2240 H   0  0  0  0  0  0  0  0  0  0  0  0
   36.6680   25.3740   30.0500 H   0  0  0  0  0  0  0  0  0  0  0  0
   34.7520   25.2110   30.9080 C   0  0  0  0  0  0  0  0  0  0  0  0
   34.5530   26.2890   30.8540 H   0  0  0  0  0  0  0  0  0  0  0  0
   34.2170   24.8360   31.8040 H   0  0  0  0  0  0  0  0  0  0  0  0
   34.4150   24.7370   29.9850 H   0  0  0  0  0  0  0  0  0  0  0  0
   35.7360   30.7940   34.8860 C   0  0  0  0  0  0  0  0  0  0  0  0
   35.1330   29.8560   34.0550 C   0  0  0  0  0  0  0  0  0  0  0  0
   33.8020   29.5920   34.2980 C   0  0  0  0  0  0  0  0  0  0  0  0
   33.1630   30.2400   35.3080 N   0  0  0  0  0  0  0  0  0  0  0  0
   33.7900   31.1390   36.0850 C   0  0  0  0  0  0  0  0  0  0  0  0
   35.0730   31.4090   35.8690 N   0  0  0  0  0  0  0  0  0  0  0  0
   36.7950   30.9760   34.6600 H   0  0  0  0  0  0  0  0  0  0  0  0
   33.2620   28.8780   33.6980 H   0  0  0  0  0  0  0  0  0  0  0  0
   33.0850   31.8440   37.1880 C   0  0  0  0  0  3  0  0  0  0  0  0
   33.6700   33.1940   37.4570 C   0  0  0  0  0  2  0  0  0  0  0  0
   32.9850   34.1210   36.4820 C   0  0  0  0  0  2  0  0  0  0  0  0
   31.5930   33.5780   36.3690 C   0  0  0  0  0  2  0  0  0  0  0  0
   31.6460   32.1590   36.8410 C   0  0  0  0  0  2  0  0  0  0  0  0
  1  6  1  0  0  0  0
  1 27  1  0  0  0  0
  2  1  2  0  0  0  0
  3  4  2  0  0  0  0
  3  2  1  0  0  0  0
  4  5  1  0  0  0  0
  5  9  1  0  0  0  0
  5  6  2  0  0  0  0
  7  2  1  0  0  0  0
  8  3  1  0  0  0  0
  9 14  1  1  0  0  0
 10  9  1  0  0  0  0
 10 16  1  0  0  0  0
 11 10  1  0  0  0  0
 11 17  1  0  0  0  0
 12 11  1  0  0  0  0
 12 20  1  0  0  0  0
 13 21  1  6  0  0  0
 13 12  1  0  0  0  0
 13  9  1  0  0  0  0
 15 10  1  0  0  0  0
 18 11  1  0  0  0  0
 19 12  1  0  0  0  0
 22 13  1  0  0  0  0
 22 24  1  0  0  0  0
 23 22  1  0  0  0  0
 25 22  1  0  0  0  0
 26 31  1  0  0  0  0
 27 28  1  0  0  0  0
 27 26  2  0  0  0  0
 28 29  2  0  0  0  0
 29 30  1  0  0  0  0
 30 34  1  0  0  0  0
 31 30  2  0  0  0  0
 32 26  1  0  0  0  0
 33 28  1  0  0  0  0
 34 35  1  0  0  0  0
 36 35  1  0  0  0  0
 37 36  1  0  0  0  0
 37 38  1  0  0  0  0
 38 34  1  0  0  0  0
M  END
>  <minimizedAffinity>
-5.30146885

$$$$
