
 OpenBabel03272506323D

 36 38  0  0  1  0  0  0  0  0999 V2000
   35.3880   30.3540   48.5700 C   0  0  1  0  0  0  0  0  0  0  0  0
   34.8730   30.4850   49.9170 C   0  0  0  0  0  0  0  0  0  0  0  0
   35.5530   29.6610   50.9930 C   0  0  0  0  0  0  0  0  0  0  0  0
   37.0300   29.5350   50.8630 C   0  0  0  0  0  0  0  0  0  0  0  0
   37.5920   29.4380   49.4970 C   0  0  0  0  0  0  0  0  0  0  0  0
   36.8970   30.3360   48.5290 C   0  0  2  0  0  0  0  0  0  0  0  0
   35.1450   31.3010   47.9930 H   0  0  0  0  0  0  0  0  0  0  0  0
   33.8040   30.3760   50.0770 H   0  0  0  0  0  0  0  0  0  0  0  0
   35.0990   31.5460   50.2390 H   0  0  0  0  0  0  0  0  0  0  0  0
   35.3460   30.1190   51.9860 H   0  0  0  0  0  0  0  0  0  0  0  0
   35.0710   28.6550   51.0390 H   0  0  0  0  0  0  0  0  0  0  0  0
   37.3010   28.5690   51.3820 H   0  0  0  0  0  0  0  0  0  0  0  0
   37.5450   30.3300   51.4410 H   0  0  0  0  0  0  0  0  0  0  0  0
   38.6450   29.7670   49.5330 H   0  0  0  0  0  0  0  0  0  0  0  0
   37.5980   28.4000   49.0790 H   0  0  0  0  0  0  0  0  0  0  0  0
   37.3070   30.1460   47.5430 H   0  0  0  0  0  0  0  0  0  0  0  0
   34.3610   28.0350   48.2350 C   0  0  0  0  0  0  0  0  0  0  0  0
   34.7940   29.2980   47.7310 C   0  0  0  0  0  0  0  0  0  0  0  0
   34.6200   29.4770   46.3730 C   0  0  0  0  0  0  0  0  0  0  0  0
   34.0670   28.4870   45.6030 N   0  0  0  0  0  0  0  0  0  0  0  0
   33.6830   27.3230   46.1400 C   0  0  0  0  0  0  0  0  0  0  0  0
   33.8310   27.0960   47.4700 N   0  0  0  0  0  0  0  0  0  0  0  0
   34.4850   27.8650   49.2970 H   0  0  0  0  0  0  0  0  0  0  0  0
   34.9030   30.3780   45.8790 H   0  0  0  0  0  0  0  0  0  0  0  0
   33.2460   26.5410   45.5340 H   0  0  0  0  0  0  0  0  0  0  0  0
   37.3180   31.7540   48.9250 C   0  0  0  0  0  0  0  0  0  0  0  0
   36.6360   32.5160   48.4920 H   0  0  0  0  0  0  0  0  0  0  0  0
   37.3080   31.8720   50.0270 H   0  0  0  0  0  0  0  0  0  0  0  0
   38.7010   32.0950   48.4380 C   0  0  0  0  0  0  0  0  0  0  0  0
   39.0620   32.9730   49.0210 H   0  0  0  0  0  0  0  0  0  0  0  0
   39.3490   31.2330   48.7060 H   0  0  0  0  0  0  0  0  0  0  0  0
   38.8650   32.3870   47.0060 C   0  0  0  0  0  3  0  0  0  0  0  0
   39.4830   31.1290   46.3710 C   0  0  0  0  0  2  0  0  0  0  0  0
   40.5730   31.5850   45.4600 C   0  0  0  0  0  2  0  0  0  0  0  0
   40.2550   33.0650   45.2460 C   0  0  0  0  0  2  0  0  0  0  0  0
   39.8970   33.4390   46.6910 C   0  0  0  0  0  2  0  0  0  0  0  0
  1  7  1  6  0  0  0
  1  2  1  0  0  0  0
  2  8  1  0  0  0  0
  2  9  1  0  0  0  0
  2  3  1  0  0  0  0
  3 11  1  0  0  0  0
  3 10  1  0  0  0  0
  4  3  1  0  0  0  0
  4 12  1  0  0  0  0
  4 13  1  0  0  0  0
  5 14  1  0  0  0  0
  5  4  1  0  0  0  0
  6 16  1  6  0  0  0
  6  1  1  0  0  0  0
  6 26  1  0  0  0  0
  6  5  1  0  0  0  0
 15  5  1  0  0  0  0
 17 23  1  0  0  0  0
 18 17  1  0  0  0  0
 18  1  1  0  0  0  0
 19 18  2  0  0  0  0
 20 21  2  0  0  0  0
 20 19  1  0  0  0  0
 21 22  1  0  0  0  0
 22 17  2  0  0  0  0
 24 19  1  0  0  0  0
 25 21  1  0  0  0  0
 26 28  1  0  0  0  0
 27 26  1  0  0  0  0
 29 31  1  0  0  0  0
 29 26  1  0  0  0  0
 29 30  1  0  0  0  0
 32 29  1  0  0  0  0
 33 32  1  0  0  0  0
 34 33  1  0  0  0  0
 35 34  1  0  0  0  0
 35 36  1  0  0  0  0
 36 32  1  0  0  0  0
M  END
>  <minimizedAffinity>
-5.97197676

>  <minimizedRMSD>
1.32342315

$$$$
