
 OpenBabel03272501333D

 23 25  0  0  1  0  0  0  0  0999 V2000
   39.3620   25.7710   34.2840 C   0  0  2  0  0  0  0  0  0  0  0  0
   39.0870   27.0020   35.2110 C   0  0  0  0  0  0  0  0  0  0  0  0
   38.8410   26.9590   33.7050 C   0  0  2  0  0  0  0  0  0  0  0  0
   40.4710   25.5330   34.3470 H   0  0  0  0  0  0  0  0  0  0  0  0
   39.9840   27.4810   35.5890 H   0  0  0  0  0  0  0  0  0  0  0  0
   38.2630   26.9350   35.9130 H   0  0  0  0  0  0  0  0  0  0  0  0
   39.6250   27.5720   33.1450 H   0  0  0  0  0  0  0  0  0  0  0  0
   37.4740   27.3840   33.3870 C   0  0  0  0  0  3  0  0  0  0  0  0
   37.3070   28.1630   32.1090 C   0  0  0  0  0  2  0  0  0  0  0  0
   35.8680   28.6240   32.2520 C   0  0  0  0  0  2  0  0  0  0  0  0
   35.8270   29.0510   33.7240 C   0  0  0  0  0  2  0  0  0  0  0  0
   36.6530   28.0080   34.4560 C   0  0  0  0  0  2  0  0  0  0  0  0
   38.6010   24.5850   34.7420 C   0  0  0  0  0  0  0  0  0  0  0  0
   37.8270   24.0590   33.8790 O   0  0  0  0  0  0  0  0  0  0  0  0
   37.9500   23.9370   38.3620 C   0  0  0  0  0  0  0  0  0  0  0  0
   37.8060   24.3920   37.0630 C   0  0  0  0  0  0  0  0  0  0  0  0
   38.7370   24.0890   36.0790 C   0  0  0  0  0  0  0  0  0  0  0  0
   39.7710   23.3400   36.4480 N   0  0  0  0  0  0  0  0  0  0  0  0
   39.9050   22.8950   37.7300 C   0  0  0  0  0  0  0  0  0  0  0  0
   39.0230   23.1800   38.6710 N   0  0  0  0  0  0  0  0  0  0  0  0
   37.2150   24.1820   39.1200 H   0  0  0  0  0  0  0  0  0  0  0  0
   36.9450   24.9950   36.8310 H   0  0  0  0  0  0  0  0  0  0  0  0
   40.7600   22.2780   38.0220 H   0  0  0  0  0  0  0  0  0  0  0  0
  1  4  1  6  0  0  0
  1 13  1  0  0  0  0
  1  2  1  0  0  0  0
  2  5  1  0  0  0  0
  2  6  1  0  0  0  0
  3  7  1  6  0  0  0
  3  1  1  0  0  0  0
  3  2  1  0  0  0  0
  8  3  1  0  0  0  0
  8 12  1  0  0  0  0
  9 10  1  0  0  0  0
  9  8  1  0  0  0  0
 10 11  1  0  0  0  0
 11 12  1  0  0  0  0
 13 17  1  0  0  0  0
 14 13  2  0  0  0  0
 15 20  1  0  0  0  0
 15 21  1  0  0  0  0
 16 15  2  0  0  0  0
 17 18  2  0  0  0  0
 17 16  1  0  0  0  0
 18 19  1  0  0  0  0
 19 23  1  0  0  0  0
 19 20  2  0  0  0  0
 22 16  1  0  0  0  0
M  END
>  <minimizedAffinity>
-4.8367095

$$$$

 OpenBabel03272501333D

 23 25  0  0  1  0  0  0  0  0999 V2000
   37.7980   27.5080   35.2040 C   0  0  2  0  0  0  0  0  0  0  0  0
   39.3070   27.0940   35.1740 C   0  0  0  0  0  0  0  0  0  0  0  0
   38.2830   26.6210   36.2020 C   0  0  2  0  0  0  0  0  0  0  0  0
   37.7530   28.6370   35.3300 H   0  0  0  0  0  0  0  0  0  0  0  0
   39.9920   27.8940   35.4360 H   0  0  0  0  0  0  0  0  0  0  0  0
   39.6380   26.4400   34.3750 H   0  0  0  0  0  0  0  0  0  0  0  0
   38.4540   27.1250   37.2130 H   0  0  0  0  0  0  0  0  0  0  0  0
   38.2830   25.1590   36.3050 C   0  0  0  0  0  3  0  0  0  0  0  0
   37.9780   24.5940   37.6680 C   0  0  0  0  0  2  0  0  0  0  0  0
   38.3110   23.1310   37.4420 C   0  0  0  0  0  2  0  0  0  0  0  0
   39.6170   23.2320   36.6450 C   0  0  0  0  0  2  0  0  0  0  0  0
   39.4050   24.4000   35.6970 C   0  0  0  0  0  2  0  0  0  0  0  0
   37.1280   27.1520   33.9320 C   0  0  0  0  0  0  0  0  0  0  0  0
   37.0560   25.9060   33.6770 O   0  0  0  0  0  0  0  0  0  0  0  0
   35.1770   30.0670   32.6520 C   0  0  0  0  0  0  0  0  0  0  0  0
   35.6970   29.1070   33.5010 C   0  0  0  0  0  0  0  0  0  0  0  0
   36.6120   28.1620   33.0570 C   0  0  0  0  0  0  0  0  0  0  0  0
   36.9620   28.2280   31.7770 N   0  0  0  0  0  0  0  0  0  0  0  0
   36.4440   29.1770   30.9470 C   0  0  0  0  0  0  0  0  0  0  0  0
   35.5730   30.0790   31.3630 N   0  0  0  0  0  0  0  0  0  0  0  0
   34.4620   30.7980   33.0130 H   0  0  0  0  0  0  0  0  0  0  0  0
   35.3720   29.1100   34.5280 H   0  0  0  0  0  0  0  0  0  0  0  0
   36.7390   29.2220   29.8940 H   0  0  0  0  0  0  0  0  0  0  0  0
  1  4  1  1  0  0  0
  1  3  1  0  0  0  0
  2  1  1  0  0  0  0
  2  5  1  0  0  0  0
  2  3  1  0  0  0  0
  3  8  1  0  0  0  0
  3  7  1  1  0  0  0
  6  2  1  0  0  0  0
  8  9  1  0  0  0  0
 10  9  1  0  0  0  0
 11 10  1  0  0  0  0
 12  8  1  0  0  0  0
 12 11  1  0  0  0  0
 13  1  1  0  0  0  0
 14 13  2  0  0  0  0
 15 21  1  0  0  0  0
 15 16  1  0  0  0  0
 16 22  1  0  0  0  0
 17 16  2  0  0  0  0
 17 13  1  0  0  0  0
 18 17  1  0  0  0  0
 19 20  1  0  0  0  0
 19 18  2  0  0  0  0
 20 15  2  0  0  0  0
 23 19  1  0  0  0  0
M  END
>  <minimizedAffinity>
-4.77315283

$$$$

 OpenBabel03272501333D

 23 25  0  0  1  0  0  0  0  0999 V2000
   37.8040   27.4270   35.0570 C   0  0  2  0  0  0  0  0  0  0  0  0
   39.3150   27.0250   35.1180 C   0  0  0  0  0  0  0  0  0  0  0  0
   38.2510   26.6140   36.1320 C   0  0  2  0  0  0  0  0  0  0  0  0
   37.7460   28.5610   35.1040 H   0  0  0  0  0  0  0  0  0  0  0  0
   39.9830   27.8480   35.3530 H   0  0  0  0  0  0  0  0  0  0  0  0
   39.6840   26.3220   34.3800 H   0  0  0  0  0  0  0  0  0  0  0  0
   38.3760   27.1870   37.1120 H   0  0  0  0  0  0  0  0  0  0  0  0
   38.2570   25.1620   36.3340 C   0  0  0  0  0  3  0  0  0  0  0  0
   37.9810   24.6910   37.7390 C   0  0  0  0  0  2  0  0  0  0  0  0
   38.3130   23.2160   37.6060 C   0  0  0  0  0  2  0  0  0  0  0  0
   39.6020   23.2640   36.7770 C   0  0  0  0  0  2  0  0  0  0  0  0
   39.3670   24.3640   35.7560 C   0  0  0  0  0  2  0  0  0  0  0  0
   37.1910   26.9780   33.7850 C   0  0  0  0  0  0  0  0  0  0  0  0
   37.0510   25.7190   33.6540 O   0  0  0  0  0  0  0  0  0  0  0  0
   37.2310   29.0910   30.7060 C   0  0  0  0  0  0  0  0  0  0  0  0
   37.5930   28.1630   31.6660 C   0  0  0  0  0  0  0  0  0  0  0  0
   36.7990   27.9200   32.7780 C   0  0  0  0  0  0  0  0  0  0  0  0
   35.6760   28.6220   32.8730 N   0  0  0  0  0  0  0  0  0  0  0  0
   35.3260   29.5360   31.9230 C   0  0  0  0  0  0  0  0  0  0  0  0
   36.0770   29.7720   30.8620 N   0  0  0  0  0  0  0  0  0  0  0  0
   37.8610   29.2710   29.8430 H   0  0  0  0  0  0  0  0  0  0  0  0
   38.5160   27.6270   31.5270 H   0  0  0  0  0  0  0  0  0  0  0  0
   34.3990   30.1090   32.0110 H   0  0  0  0  0  0  0  0  0  0  0  0
  1  4  1  1  0  0  0
  1  2  1  0  0  0  0
  1  3  1  0  0  0  0
  2  5  1  0  0  0  0
  2  3  1  0  0  0  0
  3  8  1  0  0  0  0
  3  7  1  1  0  0  0
  6  2  1  0  0  0  0
  8  9  1  0  0  0  0
 10  9  1  0  0  0  0
 11 10  1  0  0  0  0
 12  8  1  0  0  0  0
 12 11  1  0  0  0  0
 13  1  1  0  0  0  0
 14 13  2  0  0  0  0
 15 20  2  0  0  0  0
 15 16  1  0  0  0  0
 16 17  2  0  0  0  0
 17 18  1  0  0  0  0
 17 13  1  0  0  0  0
 19 23  1  0  0  0  0
 19 18  2  0  0  0  0
 20 19  1  0  0  0  0
 21 15  1  0  0  0  0
 22 16  1  0  0  0  0
M  END
>  <minimizedAffinity>
-4.71128225

$$$$

 OpenBabel03272501333D

 23 25  0  0  1  0  0  0  0  0999 V2000
   37.8330   27.2200   34.5280 C   0  0  2  0  0  0  0  0  0  0  0  0
   39.1710   27.1740   35.3380 C   0  0  0  0  0  0  0  0  0  0  0  0
   37.9010   26.4030   35.6870 C   0  0  2  0  0  0  0  0  0  0  0  0
   37.4640   28.2950   34.5330 H   0  0  0  0  0  0  0  0  0  0  0  0
   39.3990   28.0910   35.8710 H   0  0  0  0  0  0  0  0  0  0  0  0
   40.0210   26.6730   34.8870 H   0  0  0  0  0  0  0  0  0  0  0  0
   37.3810   26.8600   36.5960 H   0  0  0  0  0  0  0  0  0  0  0  0
   38.1890   24.9780   35.8730 C   0  0  0  0  0  3  0  0  0  0  0  0
   37.8800   24.4150   37.2360 C   0  0  0  0  0  2  0  0  0  0  0  0
   38.5250   23.0450   37.1220 C   0  0  0  0  0  2  0  0  0  0  0  0
   39.8510   23.3850   36.4320 C   0  0  0  0  0  2  0  0  0  0  0  0
   39.4940   24.4460   35.4040 C   0  0  0  0  0  2  0  0  0  0  0  0
   38.0530   26.8080   33.1220 C   0  0  0  0  0  0  0  0  0  0  0  0
   39.1170   27.2490   32.5780 O   0  0  0  0  0  0  0  0  0  0  0  0
   36.3370   23.7860   31.7550 C   0  0  0  0  0  0  0  0  0  0  0  0
   37.2300   24.5920   32.4380 C   0  0  0  0  0  0  0  0  0  0  0  0
   37.1100   25.9750   32.4370 C   0  0  0  0  0  0  0  0  0  0  0  0
   36.0950   26.4840   31.7480 N   0  0  0  0  0  0  0  0  0  0  0  0
   35.2180   25.6830   31.0770 C   0  0  0  0  0  0  0  0  0  0  0  0
   35.3270   24.3660   31.0740 N   0  0  0  0  0  0  0  0  0  0  0  0
   36.4440   22.7080   31.7640 H   0  0  0  0  0  0  0  0  0  0  0  0
   38.0310   24.1150   32.9770 H   0  0  0  0  0  0  0  0  0  0  0  0
   34.3860   26.1120   30.5130 H   0  0  0  0  0  0  0  0  0  0  0  0
  1  4  1  1  0  0  0
  1  2  1  0  0  0  0
  1  3  1  0  0  0  0
  2  3  1  0  0  0  0
  2  5  1  0  0  0  0
  3  8  1  0  0  0  0
  3  7  1  1  0  0  0
  6  2  1  0  0  0  0
  8  9  1  0  0  0  0
 10  9  1  0  0  0  0
 11 10  1  0  0  0  0
 12  8  1  0  0  0  0
 12 11  1  0  0  0  0
 13  1  1  0  0  0  0
 14 13  2  0  0  0  0
 15 21  1  0  0  0  0
 15 16  1  0  0  0  0
 16 22  1  0  0  0  0
 17 16  2  0  0  0  0
 17 13  1  0  0  0  0
 18 17  1  0  0  0  0
 19 18  2  0  0  0  0
 20 19  1  0  0  0  0
 20 15  2  0  0  0  0
 23 19  1  0  0  0  0
M  END
>  <minimizedAffinity>
-4.61088324

$$$$

 OpenBabel03272501333D

 23 25  0  0  1  0  0  0  0  0999 V2000
   38.0660   27.7090   35.4680 C   0  0  2  0  0  0  0  0  0  0  0  0
   39.3860   26.9400   35.1280 C   0  0  0  0  0  0  0  0  0  0  0  0
   38.4740   26.6440   36.3150 C   0  0  2  0  0  0  0  0  0  0  0  0
   38.3380   28.7970   35.6460 H   0  0  0  0  0  0  0  0  0  0  0  0
   40.2900   27.5200   35.2850 H   0  0  0  0  0  0  0  0  0  0  0  0
   39.3900   26.2980   34.2540 H   0  0  0  0  0  0  0  0  0  0  0  0
   38.9450   26.9980   37.2930 H   0  0  0  0  0  0  0  0  0  0  0  0
   38.1130   25.2240   36.3560 C   0  0  0  0  0  3  0  0  0  0  0  0
   37.8730   24.6440   37.7260 C   0  0  0  0  0  2  0  0  0  0  0  0
   37.7840   23.1670   37.3890 C   0  0  0  0  0  2  0  0  0  0  0  0
   38.9430   23.0060   36.3990 C   0  0  0  0  0  2  0  0  0  0  0  0
   38.9040   24.2630   35.5460 C   0  0  0  0  0  2  0  0  0  0  0  0
   37.1120   27.6430   34.3360 C   0  0  0  0  0  0  0  0  0  0  0  0
   35.9760   28.1790   34.5400 O   0  0  0  0  0  0  0  0  0  0  0  0
   37.3830   25.0910   31.6230 C   0  0  0  0  0  0  0  0  0  0  0  0
   37.0210   25.7230   32.7980 C   0  0  0  0  0  0  0  0  0  0  0  0
   37.4670   27.0020   33.1040 C   0  0  0  0  0  0  0  0  0  0  0  0
   38.2580   27.5870   32.2110 N   0  0  0  0  0  0  0  0  0  0  0  0
   38.6110   26.9570   31.0540 C   0  0  0  0  0  0  0  0  0  0  0  0
   38.1900   25.7400   30.7570 N   0  0  0  0  0  0  0  0  0  0  0  0
   37.0280   24.0930   31.3970 H   0  0  0  0  0  0  0  0  0  0  0  0
   36.3760   25.1940   33.4790 H   0  0  0  0  0  0  0  0  0  0  0  0
   39.2620   27.4470   30.3260 H   0  0  0  0  0  0  0  0  0  0  0  0
  1  4  1  1  0  0  0
  1  3  1  0  0  0  0
  2  5  1  0  0  0  0
  2  1  1  0  0  0  0
  2  3  1  0  0  0  0
  3  8  1  0  0  0  0
  3  7  1  1  0  0  0
  6  2  1  0  0  0  0
  8  9  1  0  0  0  0
 10  9  1  0  0  0  0
 11 10  1  0  0  0  0
 12  8  1  0  0  0  0
 12 11  1  0  0  0  0
 13 14  2  0  0  0  0
 13  1  1  0  0  0  0
 15 16  1  0  0  0  0
 16 17  2  0  0  0  0
 16 22  1  0  0  0  0
 17 13  1  0  0  0  0
 18 17  1  0  0  0  0
 19 18  2  0  0  0  0
 20 19  1  0  0  0  0
 20 15  2  0  0  0  0
 21 15  1  0  0  0  0
 23 19  1  0  0  0  0
M  END
>  <minimizedAffinity>
-4.59536552

$$$$

 OpenBabel03272501333D

 23 25  0  0  1  0  0  0  0  0999 V2000
   38.0340   27.3270   34.8860 C   0  0  2  0  0  0  0  0  0  0  0  0
   39.5130   26.9100   35.1840 C   0  0  0  0  0  0  0  0  0  0  0  0
   38.3090   26.5770   36.0610 C   0  0  2  0  0  0  0  0  0  0  0  0
   37.9950   28.4620   34.8560 H   0  0  0  0  0  0  0  0  0  0  0  0
   40.1590   27.7370   35.4610 H   0  0  0  0  0  0  0  0  0  0  0  0
   39.9670   26.1570   34.5490 H   0  0  0  0  0  0  0  0  0  0  0  0
   38.3080   27.2080   37.0130 H   0  0  0  0  0  0  0  0  0  0  0  0
   38.2550   25.1400   36.3480 C   0  0  0  0  0  3  0  0  0  0  0  0
   37.9790   24.7650   37.7810 C   0  0  0  0  0  2  0  0  0  0  0  0
   38.2450   23.2710   37.7320 C   0  0  0  0  0  2  0  0  0  0  0  0
   39.5240   23.2140   36.8870 C   0  0  0  0  0  2  0  0  0  0  0  0
   39.3230   24.2620   35.8060 C   0  0  0  0  0  2  0  0  0  0  0  0
   37.5950   26.8080   33.5700 C   0  0  0  0  0  0  0  0  0  0  0  0
   37.0160   25.6740   33.5890 O   0  0  0  0  0  0  0  0  0  0  0  0
   37.1490   29.2180   30.7530 C   0  0  0  0  0  0  0  0  0  0  0  0
   36.9400   28.5210   31.9290 C   0  0  0  0  0  0  0  0  0  0  0  0
   37.8290   27.5480   32.3660 C   0  0  0  0  0  0  0  0  0  0  0  0
   38.8900   27.3220   31.5980 N   0  0  0  0  0  0  0  0  0  0  0  0
   39.0880   28.0140   30.4400 C   0  0  0  0  0  0  0  0  0  0  0  0
   38.2460   28.9410   30.0180 N   0  0  0  0  0  0  0  0  0  0  0  0
   36.4460   29.9740   30.4240 H   0  0  0  0  0  0  0  0  0  0  0  0
   36.0610   28.7530   32.5050 H   0  0  0  0  0  0  0  0  0  0  0  0
   39.9650   27.8200   29.8150 H   0  0  0  0  0  0  0  0  0  0  0  0
  1  4  1  1  0  0  0
  1  2  1  0  0  0  0
  1  3  1  0  0  0  0
  2  5  1  0  0  0  0
  2  3  1  0  0  0  0
  3  8  1  0  0  0  0
  3  7  1  1  0  0  0
  6  2  1  0  0  0  0
  8  9  1  0  0  0  0
 10  9  1  0  0  0  0
 11 10  1  0  0  0  0
 12  8  1  0  0  0  0
 12 11  1  0  0  0  0
 13 14  2  0  0  0  0
 13  1  1  0  0  0  0
 15 16  1  0  0  0  0
 16 17  2  0  0  0  0
 16 22  1  0  0  0  0
 17 13  1  0  0  0  0
 18 17  1  0  0  0  0
 19 18  2  0  0  0  0
 20 19  1  0  0  0  0
 20 15  2  0  0  0  0
 21 15  1  0  0  0  0
 23 19  1  0  0  0  0
M  END
>  <minimizedAffinity>
-4.48556376

$$$$

 OpenBabel03272501333D

 23 25  0  0  1  0  0  0  0  0999 V2000
   36.9980   24.1230   31.3840 C   0  0  2  0  0  0  0  0  0  0  0  0
   35.4500   23.8950   31.3670 C   0  0  0  0  0  0  0  0  0  0  0  0
   36.4950   22.8870   30.8960 C   0  0  2  0  0  0  0  0  0  0  0  0
   37.2220   25.0190   30.7230 H   0  0  0  0  0  0  0  0  0  0  0  0
   34.9220   24.4940   30.6320 H   0  0  0  0  0  0  0  0  0  0  0  0
   34.9440   23.7710   32.3180 H   0  0  0  0  0  0  0  0  0  0  0  0
   36.5070   22.8110   29.7560 H   0  0  0  0  0  0  0  0  0  0  0  0
   36.2900   21.5840   31.5360 C   0  0  0  0  0  3  0  0  0  0  0  0
   36.4870   20.3790   30.6540 C   0  0  0  0  0  2  0  0  0  0  0  0
   35.9580   19.2830   31.5620 C   0  0  0  0  0  2  0  0  0  0  0  0
   34.6950   19.9390   32.1320 C   0  0  0  0  0  2  0  0  0  0  0  0
   35.0850   21.3850   32.3810 C   0  0  0  0  0  2  0  0  0  0  0  0
   37.4710   24.4220   32.7550 C   0  0  0  0  0  0  0  0  0  0  0  0
   38.0540   23.4650   33.3590 O   0  0  0  0  0  0  0  0  0  0  0  0
   37.3820   27.2010   35.2480 C   0  0  0  0  0  0  0  0  0  0  0  0
   37.6060   25.9660   34.6670 C   0  0  0  0  0  0  0  0  0  0  0  0
   37.2640   25.7110   33.3460 C   0  0  0  0  0  0  0  0  0  0  0  0
   36.7120   26.7130   32.6700 N   0  0  0  0  0  0  0  0  0  0  0  0
   36.4950   27.9270   33.2500 C   0  0  0  0  0  0  0  0  0  0  0  0
   36.8180   28.1770   34.5070 N   0  0  0  0  0  0  0  0  0  0  0  0
   37.6530   27.3860   36.2810 H   0  0  0  0  0  0  0  0  0  0  0  0
   38.0570   25.1980   35.2710 H   0  0  0  0  0  0  0  0  0  0  0  0
   36.0400   28.7450   32.6840 H   0  0  0  0  0  0  0  0  0  0  0  0
  1  4  1  6  0  0  0
  1 13  1  0  0  0  0
  2  1  1  0  0  0  0
  2  6  1  0  0  0  0
  3  7  1  6  0  0  0
  3  2  1  0  0  0  0
  3  1  1  0  0  0  0
  3  8  1  0  0  0  0
  5  2  1  0  0  0  0
  8 12  1  0  0  0  0
  9  8  1  0  0  0  0
  9 10  1  0  0  0  0
 10 11  1  0  0  0  0
 11 12  1  0  0  0  0
 13 17  1  0  0  0  0
 13 14  2  0  0  0  0
 15 21  1  0  0  0  0
 16 15  1  0  0  0  0
 16 22  1  0  0  0  0
 17 16  2  0  0  0  0
 18 19  2  0  0  0  0
 18 17  1  0  0  0  0
 19 20  1  0  0  0  0
 20 15  2  0  0  0  0
 23 19  1  0  0  0  0
M  END
>  <minimizedAffinity>
-4.34346294

$$$$

 OpenBabel03272501333D

 23 25  0  0  1  0  0  0  0  0999 V2000
   39.3000   24.3820   33.7790 C   0  0  2  0  0  0  0  0  0  0  0  0
   39.7700   22.9250   34.1030 C   0  0  0  0  0  0  0  0  0  0  0  0
   39.7060   24.0750   35.1050 C   0  0  2  0  0  0  0  0  0  0  0  0
   39.9980   24.8010   32.9870 H   0  0  0  0  0  0  0  0  0  0  0  0
   40.7250   22.6590   33.6620 H   0  0  0  0  0  0  0  0  0  0  0  0
   39.0230   22.1390   34.1070 H   0  0  0  0  0  0  0  0  0  0  0  0
   40.7520   24.4560   35.3600 H   0  0  0  0  0  0  0  0  0  0  0  0
   38.9520   23.6840   36.3010 C   0  0  0  0  0  3  0  0  0  0  0  0
   38.1430   24.7730   36.9550 C   0  0  0  0  0  2  0  0  0  0  0  0
   37.7350   24.0790   38.2420 C   0  0  0  0  0  2  0  0  0  0  0  0
   39.0430   23.3910   38.6490 C   0  0  0  0  0  2  0  0  0  0  0  0
   39.6370   22.8820   37.3460 C   0  0  0  0  0  2  0  0  0  0  0  0
   37.9210   24.3830   33.2370 C   0  0  0  0  0  0  0  0  0  0  0  0
   37.4000   23.2350   33.0550 O   0  0  0  0  0  0  0  0  0  0  0  0
   36.6140   27.8690   33.5240 C   0  0  0  0  0  0  0  0  0  0  0  0
   37.2890   26.6940   33.8000 C   0  0  0  0  0  0  0  0  0  0  0  0
   37.2440   25.6090   32.9350 C   0  0  0  0  0  0  0  0  0  0  0  0
   36.5210   25.7570   31.8310 N   0  0  0  0  0  0  0  0  0  0  0  0
   35.8580   26.9180   31.5660 C   0  0  0  0  0  0  0  0  0  0  0  0
   35.8960   27.9550   32.3840 N   0  0  0  0  0  0  0  0  0  0  0  0
   36.6580   28.7080   34.2080 H   0  0  0  0  0  0  0  0  0  0  0  0
   37.8580   26.6400   34.7120 H   0  0  0  0  0  0  0  0  0  0  0  0
   35.2650   27.0300   30.6530 H   0  0  0  0  0  0  0  0  0  0  0  0
  1  4  1  6  0  0  0
  1  2  1  0  0  0  0
  1  3  1  0  0  0  0
  2  6  1  0  0  0  0
  2  3  1  0  0  0  0
  3  7  1  1  0  0  0
  3  8  1  0  0  0  0
  5  2  1  0  0  0  0
  8  9  1  0  0  0  0
  8 12  1  0  0  0  0
  9 10  1  0  0  0  0
 10 11  1  0  0  0  0
 12 11  1  0  0  0  0
 13  1  1  0  0  0  0
 14 13  2  0  0  0  0
 15 16  1  0  0  0  0
 15 21  1  0  0  0  0
 16 22  1  0  0  0  0
 17 13  1  0  0  0  0
 17 16  2  0  0  0  0
 18 17  1  0  0  0  0
 19 18  2  0  0  0  0
 19 20  1  0  0  0  0
 20 15  2  0  0  0  0
 23 19  1  0  0  0  0
M  END
>  <minimizedAffinity>
-4.29102945

$$$$

 OpenBabel03272501333D

 23 25  0  0  1  0  0  0  0  0999 V2000
   38.4200   24.2020   32.8970 C   0  0  2  0  0  0  0  0  0  0  0  0
   37.3080   24.4950   31.8350 C   0  0  0  0  0  0  0  0  0  0  0  0
   37.7500   23.1060   32.2900 C   0  0  2  0  0  0  0  0  0  0  0  0
   39.3930   24.6420   32.5070 H   0  0  0  0  0  0  0  0  0  0  0  0
   37.6840   24.8900   30.8980 H   0  0  0  0  0  0  0  0  0  0  0  0
   36.3750   24.9250   32.1820 H   0  0  0  0  0  0  0  0  0  0  0  0
   38.3680   22.5880   31.4820 H   0  0  0  0  0  0  0  0  0  0  0  0
   36.5970   22.3030   32.7080 C   0  0  0  0  0  3  0  0  0  0  0  0
   36.8730   21.2450   33.7450 C   0  0  0  0  0  2  0  0  0  0  0  0
   35.5560   20.4900   33.7270 C   0  0  0  0  0  2  0  0  0  0  0  0
   35.2730   20.4000   32.2220 C   0  0  0  0  0  2  0  0  0  0  0  0
   35.6970   21.7480   31.6650 C   0  0  0  0  0  2  0  0  0  0  0  0
   38.0980   24.8500   34.1900 C   0  0  0  0  0  0  0  0  0  0  0  0
   37.5210   25.9830   34.1110 O   0  0  0  0  0  0  0  0  0  0  0  0
   38.0900   23.9520   37.8140 C   0  0  0  0  0  0  0  0  0  0  0  0
   37.7510   24.5310   36.6050 C   0  0  0  0  0  0  0  0  0  0  0  0
   38.4330   24.2260   35.4350 C   0  0  0  0  0  0  0  0  0  0  0  0
   39.4270   23.3500   35.5370 N   0  0  0  0  0  0  0  0  0  0  0  0
   39.7560   22.7830   36.7320 C   0  0  0  0  0  0  0  0  0  0  0  0
   39.1100   23.0690   37.8500 N   0  0  0  0  0  0  0  0  0  0  0  0
   37.5490   24.2000   38.7200 H   0  0  0  0  0  0  0  0  0  0  0  0
   36.9350   25.2340   36.5930 H   0  0  0  0  0  0  0  0  0  0  0  0
   40.5750   22.0630   36.8050 H   0  0  0  0  0  0  0  0  0  0  0  0
  1  4  1  6  0  0  0
  1 13  1  0  0  0  0
  2  6  1  0  0  0  0
  2  3  1  0  0  0  0
  2  1  1  0  0  0  0
  3  7  1  6  0  0  0
  3  8  1  0  0  0  0
  3  1  1  0  0  0  0
  5  2  1  0  0  0  0
  8  9  1  0  0  0  0
 10  9  1  0  0  0  0
 11 10  1  0  0  0  0
 12 11  1  0  0  0  0
 12  8  1  0  0  0  0
 13 17  1  0  0  0  0
 14 13  2  0  0  0  0
 15 20  1  0  0  0  0
 15 21  1  0  0  0  0
 16 15  2  0  0  0  0
 17 18  2  0  0  0  0
 17 16  1  0  0  0  0
 18 19  1  0  0  0  0
 19 23  1  0  0  0  0
 19 20  2  0  0  0  0
 22 16  1  0  0  0  0
M  END
>  <minimizedAffinity>
-4.23838949

$$$$
