
 OpenBabel03272500483D

 35 39  0  0  1  0  0  0  0  0999 V2000
   34.1280   29.1890   49.6120 C   0  0  1  0  0  0  0  0  0  0  0  0
   34.8520   28.7170   50.9180 C   0  0  0  0  0  0  0  0  0  0  0  0
   35.5540   28.8120   49.6130 C   0  0  2  0  0  0  0  0  0  0  0  0
   33.8890   30.2610   49.5350 H   0  0  0  0  0  0  0  0  0  0  0  0
   34.5330   27.7500   51.3290 H   0  0  0  0  0  0  0  0  0  0  0  0
   34.9790   29.5590   51.6570 H   0  0  0  0  0  0  0  0  0  0  0  0
   35.8120   27.8620   49.1360 H   0  0  0  0  0  0  0  0  0  0  0  0
   31.1750   27.3510   48.6650 C   0  0  0  0  0  0  0  0  0  0  0  0
   32.1510   26.6260   47.9850 C   0  0  0  0  0  0  0  0  0  0  0  0
   33.3940   27.2250   48.2530 C   0  0  0  0  0  0  0  0  0  0  0  0
   33.1490   28.2680   49.0650 N   0  0  0  0  0  0  0  0  0  0  0  0
   31.8560   28.2980   49.2720 N   0  0  0  0  0  0  0  0  0  0  0  0
   32.0220   25.7470   47.3480 H   0  0  0  0  0  0  0  0  0  0  0  0
   34.3410   26.8830   47.8630 H   0  0  0  0  0  0  0  0  0  0  0  0
   28.9460   27.0570   49.7820 C   0  0  0  0  0  0  0  0  0  0  0  0
   29.7730   27.0350   48.6290 C   0  0  0  0  0  0  0  0  0  0  0  0
   29.1700   26.6900   47.4350 C   0  0  0  0  0  0  0  0  0  0  0  0
   27.8390   26.3950   47.4330 N   0  0  0  0  0  0  0  0  0  0  0  0
   27.0980   26.4300   48.5540 C   0  0  0  0  0  0  0  0  0  0  0  0
   27.6570   26.7650   49.7450 N   0  0  0  0  0  0  0  0  0  0  0  0
   29.4870   27.3380   50.6940 H   0  0  0  0  0  0  0  0  0  0  0  0
   29.7060   26.6390   46.4820 H   0  0  0  0  0  0  0  0  0  0  0  0
   26.0520   26.1880   48.4950 H   0  0  0  0  0  0  0  0  0  0  0  0
   36.5910   29.8790   49.4040 C   0  0  0  0  0  0  0  0  0  0  0  0
   37.9130   29.7770   49.8520 C   0  0  0  0  0  0  0  0  0  0  0  0
   38.5500   30.9230   49.4920 N   0  0  0  0  0  0  0  0  0  0  0  0
   37.6550   31.7150   48.8390 C   0  0  0  0  0  0  0  0  0  0  0  0
   36.4540   31.0830   48.7830 N   0  0  0  0  0  0  0  0  0  0  0  0
   38.3520   28.9320   50.3920 H   0  0  0  0  0  0  0  0  0  0  0  0
   39.5490   31.0910   49.7110 H   0  0  0  0  0  0  0  0  0  0  0  0
   37.9690   33.0770   48.2780 C   0  0  0  0  0  0  0  0  0  0  0  0
   39.2400   33.0380   47.4960 C   0  0  0  0  0  0  0  0  0  0  0  0
   40.2660   33.6860   48.3950 C   0  0  0  0  0  0  0  0  0  0  0  0
   39.5580   34.1740   49.6240 C   0  0  0  0  0  0  0  0  0  0  0  0
   38.0880   34.1020   49.3620 C   0  0  0  0  0  0  0  0  0  0  0  0
  1  4  1  6  0  0  0
  1  3  1  0  0  0  0
  1  2  1  0  0  0  0
  2  5  1  0  0  0  0
  2  6  1  0  0  0  0
  3  7  1  6  0  0  0
  3  2  1  0  0  0  0
  8 12  2  0  0  0  0
  9 10  2  0  0  0  0
  9  8  1  0  0  0  0
 10 11  1  0  0  0  0
 11 12  1  0  0  0  0
 11  1  1  0  0  0  0
 13  9  1  0  0  0  0
 14 10  1  0  0  0  0
 15 21  1  0  0  0  0
 16  8  1  0  0  0  0
 16 15  2  0  0  0  0
 17 16  1  0  0  0  0
 18 17  2  0  0  0  0
 18 19  1  0  0  0  0
 19 20  2  0  0  0  0
 20 15  1  0  0  0  0
 22 17  1  0  0  0  0
 23 19  1  0  0  0  0
 24  3  1  0  0  0  0
 24 25  2  0  0  0  0
 25 29  1  0  0  0  0
 26 30  1  0  0  0  0
 26 25  1  0  0  0  0
 27 26  1  0  0  0  0
 28 27  2  0  0  0  0
 28 24  1  0  0  0  0
 31 27  1  0  0  0  0
 31 35  1  0  0  0  0
 32 31  1  0  0  0  0
 32 33  1  0  0  0  0
 33 34  1  0  0  0  0
 35 34  1  0  0  0  0
M  END
>  <minimizedAffinity>
-4.86630869

>  <minimizedRMSD>
3.28358483

$$$$
