
 OpenBabel03272508453D

 23 25  0  0  0  0  0  0  0  0999 V2000
   35.7170   29.9790   50.0410 C   0  0  0  0  0  0  0  0  0  0  0  0
   36.4730   29.6840   51.1690 C   0  0  0  0  0  0  0  0  0  0  0  0
   37.6540   30.4020   50.9190 C   0  0  0  0  0  0  0  0  0  0  0  0
   37.5530   31.0570   49.7190 C   0  0  0  0  0  0  0  0  0  0  0  0
   36.3720   30.7800   49.2150 O   0  0  0  0  0  0  0  0  0  0  0  0
   36.1560   29.0540   51.9820 H   0  0  0  0  0  0  0  0  0  0  0  0
   38.4900   30.3870   51.6360 H   0  0  0  0  0  0  0  0  0  0  0  0
   38.5600   31.9090   49.1000 C   0  0  0  0  0  3  0  0  0  0  0  0
   38.4100   33.3730   49.4450 C   0  0  0  0  0  2  0  0  0  0  0  0
   39.4650   33.9830   48.5320 C   0  0  0  0  0  2  0  0  0  0  0  0
   39.5530   33.0480   47.3330 C   0  0  0  0  0  2  0  0  0  0  0  0
   38.4810   31.9910   47.5890 C   0  0  0  0  0  2  0  0  0  0  0  0
   34.3570   29.4500   49.8190 C   0  0  0  0  0  0  0  0  0  0  0  0
   33.5110   29.6070   50.7160 O   0  0  0  0  0  0  0  0  0  0  0  0
   33.8130   26.7550   47.4290 C   0  0  0  0  0  0  0  0  0  0  0  0
   33.4670   27.4330   46.2600 C   0  0  0  0  0  0  0  0  0  0  0  0
   33.4170   28.8130   46.2740 C   0  0  0  0  0  0  0  0  0  0  0  0
   33.7100   29.4370   47.4420 N   0  0  0  0  0  0  0  0  0  0  0  0
   34.0460   28.7690   48.5750 C   0  0  0  0  0  0  0  0  0  0  0  0
   34.0920   27.4320   48.5490 N   0  0  0  0  0  0  0  0  0  0  0  0
   33.8370   25.6810   47.3600 H   0  0  0  0  0  0  0  0  0  0  0  0
   33.2240   26.9950   45.3030 H   0  0  0  0  0  0  0  0  0  0  0  0
   33.1710   29.4980   45.4750 H   0  0  0  0  0  0  0  0  0  0  0  0
  1  2  2  0  0  0  0
  2  6  1  0  0  0  0
  3  2  1  0  0  0  0
  3  7  1  0  0  0  0
  4  3  2  0  0  0  0
  5  4  1  0  0  0  0
  5  1  1  0  0  0  0
  8  9  1  0  0  0  0
  8  4  1  0  0  0  0
 10  9  1  0  0  0  0
 11 12  1  0  0  0  0
 11 10  1  0  0  0  0
 12  8  1  0  0  0  0
 13  1  1  0  0  0  0
 13 14  2  0  0  0  0
 15 20  1  0  0  0  0
 16 17  1  0  0  0  0
 16 15  2  0  0  0  0
 17 18  2  0  0  0  0
 18 19  1  0  0  0  0
 19 13  1  0  0  0  0
 20 19  2  0  0  0  0
 21 15  1  0  0  0  0
 22 16  1  0  0  0  0
 23 17  1  0  0  0  0
M  END
>  <minimizedAffinity>
-5.65711546

>  <minimizedRMSD>
2.14734149

$$$$
