
 OpenBabel03272510273D

 41 45  0  0  1  0  0  0  0  0999 V2000
   36.2590   30.1660   46.9290 C   0  0  0  0  0  0  0  0  0  0  0  0
   37.0790   30.7420   47.8980 C   0  0  0  0  0  0  0  0  0  0  0  0
   38.0560   31.6800   47.5540 C   0  0  0  0  0  0  0  0  0  0  0  0
   38.1570   31.9990   46.2030 C   0  0  0  0  0  0  0  0  0  0  0  0
   39.0240   32.8820   45.6250 N   0  0  0  0  0  0  0  0  0  0  0  0
   38.7580   32.8650   44.3120 C   0  0  0  0  0  0  0  0  0  0  0  0
   37.7730   32.0160   44.0650 N   0  0  0  0  0  0  0  0  0  0  0  0
   37.3690   31.4560   45.2180 C   0  0  0  0  0  0  0  0  0  0  0  0
   36.4010   30.5180   45.5980 C   0  0  0  0  0  0  0  0  0  0  0  0
   35.5020   29.4390   47.1940 H   0  0  0  0  0  0  0  0  0  0  0  0
   38.7000   32.1350   48.3020 H   0  0  0  0  0  0  0  0  0  0  0  0
   39.7590   33.4610   46.1150 H   0  0  0  0  0  0  0  0  0  0  0  0
   35.7810   30.0900   44.8200 H   0  0  0  0  0  0  0  0  0  0  0  0
   37.4300   30.1180   51.5780 C   0  0  0  0  0  0  0  0  0  0  0  0
   37.7740   30.5700   50.3170 C   0  0  0  0  0  0  0  0  0  0  0  0
   36.8950   30.3450   49.2820 C   0  0  0  0  0  0  0  0  0  0  0  0
   35.7230   29.6780   49.5780 N   0  0  0  0  0  0  0  0  0  0  0  0
   35.4090   29.2460   50.8150 C   0  0  0  0  0  0  0  0  0  0  0  0
   36.2550   29.4650   51.7970 N   0  0  0  0  0  0  0  0  0  0  0  0
   38.1800   30.3370   52.3350 H   0  0  0  0  0  0  0  0  0  0  0  0
   38.6880   31.0930   50.0730 H   0  0  0  0  0  0  0  0  0  0  0  0
   34.4720   28.7310   50.9760 H   0  0  0  0  0  0  0  0  0  0  0  0
   39.4570   33.6540   43.3960 O   0  0  0  0  0  0  0  0  0  0  0  0
   39.7520   31.8850   41.9450 N   0  0  0  0  0  0  0  0  0  0  0  0
   39.3280   33.2740   42.0330 C   0  0  1  0  0  0  0  0  0  0  0  0
   37.9540   33.4160   41.5800 C   0  0  0  0  0  0  0  0  0  0  0  0
   37.8860   33.0510   40.2240 O   0  0  0  0  0  0  0  0  0  0  0  0
   38.3680   31.8090   39.9270 C   0  0  0  0  0  0  0  0  0  0  0  0
   39.7470   31.6100   40.5290 C   0  0  2  0  0  0  0  0  0  0  0  0
   39.1550   31.1840   42.3550 H   0  0  0  0  0  0  0  0  0  0  0  0
   40.0150   33.8540   41.3950 H   0  0  0  0  0  0  0  0  0  0  0  0
   37.7240   34.5270   41.5520 H   0  0  0  0  0  0  0  0  0  0  0  0
   37.1100   32.9500   42.0110 H   0  0  0  0  0  0  0  0  0  0  0  0
   37.6390   31.0710   40.2980 H   0  0  0  0  0  0  0  0  0  0  0  0
   38.5010   31.7540   38.8400 H   0  0  0  0  0  0  0  0  0  0  0  0
   40.3660   32.4190   40.0750 H   0  0  0  0  0  0  0  0  0  0  0  0
   40.3800   30.3260   40.1510 C   0  0  0  0  0  3  0  0  0  0  0  0
   41.1290   29.7090   41.3020 C   0  0  0  0  0  2  0  0  0  0  0  0
   41.7490   28.5030   40.5840 C   0  0  0  0  0  2  0  0  0  0  0  0
   42.3070   29.1720   39.3480 C   0  0  0  0  0  2  0  0  0  0  0  0
   41.4490   30.4210   39.1080 C   0  0  0  0  0  2  0  0  0  0  0  0
  1 10  1  0  0  0  0
  1  2  1  0  0  0  0
  2 16  1  0  0  0  0
  3  2  2  0  0  0  0
  3 11  1  0  0  0  0
  4  3  1  0  0  0  0
  5 12  1  0  0  0  0
  5  4  1  0  0  0  0
  6  5  1  0  0  0  0
  7  6  2  0  0  0  0
  7  8  1  0  0  0  0
  8  9  1  0  0  0  0
  8  4  2  0  0  0  0
  9  1  2  0  0  0  0
 13  9  1  0  0  0  0
 14 19  1  0  0  0  0
 14 20  1  0  0  0  0
 15 14  2  0  0  0  0
 16 17  2  0  0  0  0
 16 15  1  0  0  0  0
 17 18  1  0  0  0  0
 18 22  1  0  0  0  0
 18 19  2  0  0  0  0
 21 15  1  0  0  0  0
 23  6  1  0  0  0  0
 24 25  1  0  0  0  0
 24 30  1  0  0  0  0
 25 31  1  6  0  0  0
 25 23  1  0  0  0  0
 26 33  1  0  0  0  0
 26 25  1  0  0  0  0
 27 26  1  0  0  0  0
 28 27  1  0  0  0  0
 28 34  1  0  0  0  0
 28 29  1  0  0  0  0
 29 36  1  6  0  0  0
 29 24  1  0  0  0  0
 32 26  1  0  0  0  0
 35 28  1  0  0  0  0
 37 29  1  0  0  0  0
 37 38  1  0  0  0  0
 39 38  1  0  0  0  0
 40 39  1  0  0  0  0
 41 40  1  0  0  0  0
 41 37  1  0  0  0  0
M  END
>  <minimizedAffinity>
-6.00745964

>  <minimizedRMSD>
0.476586282

$$$$
