
 OpenBabel03272502143D

 38 41  0  0  1  0  0  0  0  0999 V2000
   36.8890   30.8830   47.9760 C   0  0  0  0  0  0  0  0  0  0  0  0
   37.4300   31.4980   49.0820 C   0  0  0  0  0  0  0  0  0  0  0  0
   38.4520   32.4610   49.0070 C   0  0  0  0  0  0  0  0  0  0  0  0
   38.9080   32.7810   47.7500 N   0  0  0  0  0  0  0  0  0  0  0  0
   38.3810   32.1840   46.6920 C   0  0  0  0  0  0  0  0  0  0  0  0
   37.4070   31.2670   46.7830 N   0  0  0  0  0  0  0  0  0  0  0  0
   37.0760   31.2520   50.0780 H   0  0  0  0  0  0  0  0  0  0  0  0
   38.8450   32.9150   49.8940 H   0  0  0  0  0  0  0  0  0  0  0  0
   38.8820   32.5390   45.3510 C   0  0  2  0  0  0  0  0  0  0  0  0
   37.8280   32.5500   44.2730 C   0  0  0  0  0  0  0  0  0  0  0  0
   38.6680   32.3110   43.0010 C   0  0  0  0  0  0  0  0  0  0  0  0
   40.0580   31.9500   43.4690 C   0  0  0  0  0  0  0  0  0  0  0  0
   39.7660   31.4210   44.8630 C   0  0  1  0  0  0  0  0  0  0  0  0
   39.4470   33.4810   45.3550 H   0  0  0  0  0  0  0  0  0  0  0  0
   37.0810   31.7620   44.4180 H   0  0  0  0  0  0  0  0  0  0  0  0
   37.3950   33.5660   44.2270 H   0  0  0  0  0  0  0  0  0  0  0  0
   38.6490   33.2340   42.3720 H   0  0  0  0  0  0  0  0  0  0  0  0
   38.2550   31.4840   42.3930 H   0  0  0  0  0  0  0  0  0  0  0  0
   40.5430   31.1880   42.8340 H   0  0  0  0  0  0  0  0  0  0  0  0
   40.6870   32.8580   43.5940 H   0  0  0  0  0  0  0  0  0  0  0  0
   39.2170   30.4720   44.7960 H   0  0  0  0  0  0  0  0  0  0  0  0
   40.9860   31.1850   45.6900 C   0  0  0  0  0  0  0  0  0  0  0  0
   40.6460   30.9690   46.7110 H   0  0  0  0  0  0  0  0  0  0  0  0
   41.6400   32.0770   45.7580 H   0  0  0  0  0  0  0  0  0  0  0  0
   41.5020   30.3110   45.2900 H   0  0  0  0  0  0  0  0  0  0  0  0
   35.6300   29.0830   49.1720 C   0  0  0  0  0  0  0  0  0  0  0  0
   35.8490   29.9030   48.0710 C   0  0  0  0  0  0  0  0  0  0  0  0
   34.9860   29.7400   47.0080 C   0  0  0  0  0  0  0  0  0  0  0  0
   33.9930   28.8140   47.0850 N   0  0  0  0  0  0  0  0  0  0  0  0
   33.8230   28.0440   48.1730 C   0  0  0  0  0  0  0  0  0  0  0  0
   34.6440   28.1830   49.2090 N   0  0  0  0  0  0  0  0  0  0  0  0
   36.3380   29.2430   49.9960 H   0  0  0  0  0  0  0  0  0  0  0  0
   35.0870   30.3380   46.1170 H   0  0  0  0  0  0  0  0  0  0  0  0
   32.7370   27.0330   48.2500 C   0  0  0  0  0  0  0  0  0  0  0  0
   31.4450   27.6300   48.7110 C   0  0  0  0  0  0  0  0  0  0  0  0
   30.7950   28.1730   47.4620 C   0  0  0  0  0  0  0  0  0  0  0  0
   31.1840   27.2030   46.3880 C   0  0  0  0  0  0  0  0  0  0  0  0
   32.3830   26.4640   46.8930 C   0  0  0  0  0  0  0  0  0  0  0  0
  1 27  1  0  0  0  0
  1  2  1  0  0  0  0
  2  7  1  0  0  0  0
  3  2  2  0  0  0  0
  3  8  1  0  0  0  0
  4  3  1  0  0  0  0
  5  6  1  0  0  0  0
  5  4  2  0  0  0  0
  6  1  2  0  0  0  0
  9 14  1  1  0  0  0
  9  5  1  0  0  0  0
 10 15  1  0  0  0  0
 10  9  1  0  0  0  0
 11 12  1  0  0  0  0
 11 10  1  0  0  0  0
 12 20  1  0  0  0  0
 12 13  1  0  0  0  0
 13 21  1  6  0  0  0
 13  9  1  0  0  0  0
 13 22  1  0  0  0  0
 16 10  1  0  0  0  0
 17 11  1  0  0  0  0
 18 11  1  0  0  0  0
 19 12  1  0  0  0  0
 22 24  1  0  0  0  0
 22 23  1  0  0  0  0
 25 22  1  0  0  0  0
 26 31  1  0  0  0  0
 26 32  1  0  0  0  0
 27 26  2  0  0  0  0
 28 29  2  0  0  0  0
 28 27  1  0  0  0  0
 29 30  1  0  0  0  0
 30 34  1  0  0  0  0
 30 31  2  0  0  0  0
 33 28  1  0  0  0  0
 34 35  1  0  0  0  0
 36 35  1  0  0  0  0
 37 38  1  0  0  0  0
 37 36  1  0  0  0  0
 38 34  1  0  0  0  0
M  END
>  <minimizedAffinity>
-6.28502989

>  <minimizedRMSD>
2.68869233

$$$$
