
 OpenBabel03272509513D

 29 31  0  0  0  0  0  0  0  0999 V2000
   38.6310   26.0390   34.3370 C   0  0  0  0  0  0  0  0  0  0  0  0
   39.6710   26.2110   34.7040 H   0  0  0  0  0  0  0  0  0  0  0  0
   38.2050   27.0140   34.0030 H   0  0  0  0  0  0  0  0  0  0  0  0
   37.7600   25.4630   35.4070 C   0  0  0  0  0  0  0  0  0  0  0  0
   36.8970   24.9310   34.9380 H   0  0  0  0  0  0  0  0  0  0  0  0
   37.3090   26.2770   36.0390 H   0  0  0  0  0  0  0  0  0  0  0  0
   38.4810   24.5150   36.3010 C   0  0  0  0  0  0  0  0  0  0  0  0
   37.9940   24.3440   37.5710 C   0  0  0  0  0  0  0  0  0  0  0  0
   38.5810   23.4910   38.4850 C   0  0  0  0  0  0  0  0  0  0  0  0
   39.6660   22.8100   38.1090 N   0  0  0  0  0  0  0  0  0  0  0  0
   40.1420   22.9790   36.8620 C   0  0  0  0  0  0  0  0  0  0  0  0
   39.5850   23.8070   35.9550 N   0  0  0  0  0  0  0  0  0  0  0  0
   37.1030   24.9000   37.8870 H   0  0  0  0  0  0  0  0  0  0  0  0
   38.1880   23.3650   39.4840 H   0  0  0  0  0  0  0  0  0  0  0  0
   41.0270   22.4290   36.5440 H   0  0  0  0  0  0  0  0  0  0  0  0
   38.6330   25.1800   33.1920 O   0  0  0  0  0  0  0  0  0  0  0  0
   35.6160   25.8920   31.3000 C   0  0  0  0  0  0  0  0  0  0  0  0
   35.1890   24.5810   31.0290 C   0  0  0  0  0  0  0  0  0  0  0  0
   35.9580   23.5260   31.5080 C   0  0  0  0  0  0  0  0  0  0  0  0
   37.0850   23.8510   32.2160 N   0  0  0  0  0  0  0  0  0  0  0  0
   37.4690   25.1000   32.4610 C   0  0  0  0  0  0  0  0  0  0  0  0
   36.7300   26.1450   32.0000 N   0  0  0  0  0  0  0  0  0  0  0  0
   35.0580   26.7490   30.9530 H   0  0  0  0  0  0  0  0  0  0  0  0
   34.2830   24.4050   30.4590 H   0  0  0  0  0  0  0  0  0  0  0  0
   35.5710   22.1230   31.2610 C   0  0  0  0  0  3  0  0  0  0  0  0
   36.7480   21.2510   30.8940 C   0  0  0  0  0  2  0  0  0  0  0  0
   36.1360   19.8490   30.9950 C   0  0  0  0  0  2  0  0  0  0  0  0
   35.0860   19.9470   32.0700 C   0  0  0  0  0  2  0  0  0  0  0  0
   35.0120   21.4110   32.4520 C   0  0  0  0  0  2  0  0  0  0  0  0
  1  2  1  0  0  0  0
  1  4  1  0  0  0  0
  3  1  1  0  0  0  0
  4  6  1  0  0  0  0
  4  7  1  0  0  0  0
  5  4  1  0  0  0  0
  7  8  1  0  0  0  0
  8 13  1  0  0  0  0
  8  9  2  0  0  0  0
  9 14  1  0  0  0  0
 10  9  1  0  0  0  0
 11 10  2  0  0  0  0
 12  7  2  0  0  0  0
 12 11  1  0  0  0  0
 15 11  1  0  0  0  0
 16  1  1  0  0  0  0
 17 22  1  0  0  0  0
 18 17  2  0  0  0  0
 18 19  1  0  0  0  0
 19 20  2  0  0  0  0
 20 21  1  0  0  0  0
 21 16  1  0  0  0  0
 22 21  2  0  0  0  0
 23 17  1  0  0  0  0
 24 18  1  0  0  0  0
 25 19  1  0  0  0  0
 25 29  1  0  0  0  0
 26 27  1  0  0  0  0
 26 25  1  0  0  0  0
 27 28  1  0  0  0  0
 28 29  1  0  0  0  0
M  END
>  <minimizedAffinity>
-5.32024288

$$$$

 OpenBabel03272509513D

 29 31  0  0  0  0  0  0  0  0999 V2000
   36.7680   23.8150   30.7940 C   0  0  0  0  0  0  0  0  0  0  0  0
   36.5630   24.8580   30.4510 H   0  0  0  0  0  0  0  0  0  0  0  0
   37.0460   23.1960   29.9090 H   0  0  0  0  0  0  0  0  0  0  0  0
   35.5730   23.2120   31.4610 C   0  0  0  0  0  0  0  0  0  0  0  0
   34.6620   23.4210   30.8500 H   0  0  0  0  0  0  0  0  0  0  0  0
   35.3870   23.6920   32.4610 H   0  0  0  0  0  0  0  0  0  0  0  0
   35.6940   21.7410   31.6580 C   0  0  0  0  0  0  0  0  0  0  0  0
   35.4660   21.2470   32.9170 C   0  0  0  0  0  0  0  0  0  0  0  0
   35.5490   19.9010   33.2150 C   0  0  0  0  0  0  0  0  0  0  0  0
   35.8650   19.0530   32.2330 N   0  0  0  0  0  0  0  0  0  0  0  0
   36.0870   19.5400   30.9980 C   0  0  0  0  0  0  0  0  0  0  0  0
   36.0120   20.8490   30.6860 N   0  0  0  0  0  0  0  0  0  0  0  0
   35.2060   21.9380   33.7280 H   0  0  0  0  0  0  0  0  0  0  0  0
   35.3670   19.5240   34.2110 H   0  0  0  0  0  0  0  0  0  0  0  0
   36.3450   18.8580   30.1900 H   0  0  0  0  0  0  0  0  0  0  0  0
   37.8900   23.7860   31.6820 O   0  0  0  0  0  0  0  0  0  0  0  0
   37.4300   26.4360   34.1220 C   0  0  0  0  0  0  0  0  0  0  0  0
   37.7280   25.7300   35.3010 C   0  0  0  0  0  0  0  0  0  0  0  0
   38.0700   24.3860   35.1940 C   0  0  0  0  0  0  0  0  0  0  0  0
   38.0900   23.8490   33.9340 N   0  0  0  0  0  0  0  0  0  0  0  0
   37.8040   24.5370   32.8320 C   0  0  0  0  0  0  0  0  0  0  0  0
   37.4670   25.8530   32.9170 N   0  0  0  0  0  0  0  0  0  0  0  0
   37.1580   27.4810   34.1450 H   0  0  0  0  0  0  0  0  0  0  0  0
   37.6890   26.2290   36.2630 H   0  0  0  0  0  0  0  0  0  0  0  0
   38.3950   23.5830   36.3890 C   0  0  0  0  0  3  0  0  0  0  0  0
   39.8760   23.3220   36.5280 C   0  0  0  0  0  2  0  0  0  0  0  0
   39.9570   22.7630   37.9530 C   0  0  0  0  0  2  0  0  0  0  0  0
   38.8470   23.4390   38.7120 C   0  0  0  0  0  2  0  0  0  0  0  0
   38.0690   24.2430   37.6920 C   0  0  0  0  0  2  0  0  0  0  0  0
  1  4  1  0  0  0  0
  1 16  1  0  0  0  0
  2  1  1  0  0  0  0
  3  1  1  0  0  0  0
  4  7  1  0  0  0  0
  4  6  1  0  0  0  0
  5  4  1  0  0  0  0
  7  8  1  0  0  0  0
  8  9  2  0  0  0  0
  8 13  1  0  0  0  0
  9 14  1  0  0  0  0
 10  9  1  0  0  0  0
 11 10  2  0  0  0  0
 12 11  1  0  0  0  0
 12  7  2  0  0  0  0
 15 11  1  0  0  0  0
 16 21  1  0  0  0  0
 17 23  1  0  0  0  0
 17 18  1  0  0  0  0
 18 24  1  0  0  0  0
 19 18  2  0  0  0  0
 19 25  1  0  0  0  0
 20 19  1  0  0  0  0
 21 22  1  0  0  0  0
 21 20  2  0  0  0  0
 22 17  2  0  0  0  0
 25 26  1  0  0  0  0
 25 29  1  0  0  0  0
 26 27  1  0  0  0  0
 27 28  1  0  0  0  0
 29 28  1  0  0  0  0
M  END
>  <minimizedAffinity>
-5.0539794

$$$$

 OpenBabel03272509513D

 29 31  0  0  0  0  0  0  0  0999 V2000
   38.2930   26.3370   34.6180 C   0  0  0  0  0  0  0  0  0  0  0  0
   39.0350   27.0910   34.2610 H   0  0  0  0  0  0  0  0  0  0  0  0
   37.9960   26.5950   35.6620 H   0  0  0  0  0  0  0  0  0  0  0  0
   38.8620   24.9540   34.5970 C   0  0  0  0  0  0  0  0  0  0  0  0
   39.8930   24.9830   34.1670 H   0  0  0  0  0  0  0  0  0  0  0  0
   38.2660   24.2850   33.9180 H   0  0  0  0  0  0  0  0  0  0  0  0
   38.9220   24.3260   35.9460 C   0  0  0  0  0  0  0  0  0  0  0  0
   38.0310   24.7650   36.8920 C   0  0  0  0  0  0  0  0  0  0  0  0
   37.9950   24.2540   38.1740 C   0  0  0  0  0  0  0  0  0  0  0  0
   38.8660   23.2960   38.5000 N   0  0  0  0  0  0  0  0  0  0  0  0
   39.7390   22.8660   37.5700 C   0  0  0  0  0  0  0  0  0  0  0  0
   39.7920   23.3510   36.3130 N   0  0  0  0  0  0  0  0  0  0  0  0
   37.3130   25.5520   36.6320 H   0  0  0  0  0  0  0  0  0  0  0  0
   37.2880   24.6080   38.9110 H   0  0  0  0  0  0  0  0  0  0  0  0
   40.4540   22.0850   37.8230 H   0  0  0  0  0  0  0  0  0  0  0  0
   37.1000   26.3870   33.8290 O   0  0  0  0  0  0  0  0  0  0  0  0
   36.3980   29.3140   31.7980 C   0  0  0  0  0  0  0  0  0  0  0  0
   35.8010   30.1390   32.7670 C   0  0  0  0  0  0  0  0  0  0  0  0
   35.6720   29.6470   34.0610 C   0  0  0  0  0  0  0  0  0  0  0  0
   36.1420   28.3820   34.2940 N   0  0  0  0  0  0  0  0  0  0  0  0
   36.7040   27.6190   33.3610 C   0  0  0  0  0  0  0  0  0  0  0  0
   36.8380   28.0830   32.0890 N   0  0  0  0  0  0  0  0  0  0  0  0
   36.5230   29.6440   30.7770 H   0  0  0  0  0  0  0  0  0  0  0  0
   35.4530   31.1320   32.5020 H   0  0  0  0  0  0  0  0  0  0  0  0
   35.0560   30.4590   35.1300 C   0  0  0  0  0  3  0  0  0  0  0  0
   36.0470   31.3730   35.8100 C   0  0  0  0  0  2  0  0  0  0  0  0
   35.1190   32.2820   36.6230 C   0  0  0  0  0  2  0  0  0  0  0  0
   33.8490   32.3800   35.8200 C   0  0  0  0  0  2  0  0  0  0  0  0
   34.0130   31.4220   34.6580 C   0  0  0  0  0  2  0  0  0  0  0  0
  1  3  1  0  0  0  0
  2  1  1  0  0  0  0
  4  1  1  0  0  0  0
  4  7  1  0  0  0  0
  5  4  1  0  0  0  0
  6  4  1  0  0  0  0
  7 12  2  0  0  0  0
  7  8  1  0  0  0  0
  8  9  2  0  0  0  0
  9 10  1  0  0  0  0
  9 14  1  0  0  0  0
 11 15  1  0  0  0  0
 11 10  2  0  0  0  0
 12 11  1  0  0  0  0
 13  8  1  0  0  0  0
 16  1  1  0  0  0  0
 17 22  2  0  0  0  0
 17 18  1  0  0  0  0
 18 19  2  0  0  0  0
 19 20  1  0  0  0  0
 19 25  1  0  0  0  0
 21 16  1  0  0  0  0
 21 20  2  0  0  0  0
 22 21  1  0  0  0  0
 23 17  1  0  0  0  0
 24 18  1  0  0  0  0
 25 26  1  0  0  0  0
 26 27  1  0  0  0  0
 28 27  1  0  0  0  0
 29 25  1  0  0  0  0
 29 28  1  0  0  0  0
M  END
>  <minimizedAffinity>
-5.02647781

$$$$

 OpenBabel03272509513D

 29 31  0  0  0  0  0  0  0  0999 V2000
   37.2710   27.0940   34.7970 C   0  0  0  0  0  0  0  0  0  0  0  0
   36.9000   28.1430   34.8920 H   0  0  0  0  0  0  0  0  0  0  0  0
   36.4170   26.3980   34.9640 H   0  0  0  0  0  0  0  0  0  0  0  0
   38.3470   26.8010   35.7930 C   0  0  0  0  0  0  0  0  0  0  0  0
   38.0460   27.1960   36.7930 H   0  0  0  0  0  0  0  0  0  0  0  0
   39.2980   27.3380   35.5260 H   0  0  0  0  0  0  0  0  0  0  0  0
   38.6450   25.3470   35.9200 C   0  0  0  0  0  0  0  0  0  0  0  0
   37.7690   24.5790   36.6450 C   0  0  0  0  0  0  0  0  0  0  0  0
   37.9440   23.2220   36.8280 C   0  0  0  0  0  0  0  0  0  0  0  0
   39.0120   22.6410   36.2760 N   0  0  0  0  0  0  0  0  0  0  0  0
   39.8700   23.3960   35.5650 C   0  0  0  0  0  0  0  0  0  0  0  0
   39.7180   24.7220   35.3740 N   0  0  0  0  0  0  0  0  0  0  0  0
   36.8890   25.0500   37.1010 H   0  0  0  0  0  0  0  0  0  0  0  0
   37.2470   22.6280   37.4010 H   0  0  0  0  0  0  0  0  0  0  0  0
   40.7440   22.9320   35.1100 H   0  0  0  0  0  0  0  0  0  0  0  0
   37.7500   26.8450   33.4710 O   0  0  0  0  0  0  0  0  0  0  0  0
   35.3030   25.8300   30.9860 C   0  0  0  0  0  0  0  0  0  0  0  0
   35.4290   24.4340   31.0830 C   0  0  0  0  0  0  0  0  0  0  0  0
   36.3450   23.9170   31.9940 C   0  0  0  0  0  0  0  0  0  0  0  0
   37.0610   24.8200   32.7340 N   0  0  0  0  0  0  0  0  0  0  0  0
   36.9240   26.1390   32.6260 C   0  0  0  0  0  0  0  0  0  0  0  0
   36.0340   26.6630   31.7400 N   0  0  0  0  0  0  0  0  0  0  0  0
   34.6090   26.2870   30.2970 H   0  0  0  0  0  0  0  0  0  0  0  0
   34.8250   23.7840   30.4590 H   0  0  0  0  0  0  0  0  0  0  0  0
   36.5300   22.4610   32.1490 C   0  0  0  0  0  3  0  0  0  0  0  0
   35.2210   21.7110   32.2010 C   0  0  0  0  0  2  0  0  0  0  0  0
   35.6910   20.2600   32.0560 C   0  0  0  0  0  2  0  0  0  0  0  0
   36.9310   20.3240   31.2030 C   0  0  0  0  0  2  0  0  0  0  0  0
   37.2280   21.7950   31.0040 C   0  0  0  0  0  2  0  0  0  0  0  0
  1  2  1  0  0  0  0
  1  3  1  0  0  0  0
  1  4  1  0  0  0  0
  4  7  1  0  0  0  0
  4  5  1  0  0  0  0
  6  4  1  0  0  0  0
  7  8  1  0  0  0  0
  8  9  2  0  0  0  0
  8 13  1  0  0  0  0
  9 14  1  0  0  0  0
 10  9  1  0  0  0  0
 11 10  2  0  0  0  0
 12 11  1  0  0  0  0
 12  7  2  0  0  0  0
 15 11  1  0  0  0  0
 16  1  1  0  0  0  0
 17 18  2  0  0  0  0
 17 22  1  0  0  0  0
 18 19  1  0  0  0  0
 19 25  1  0  0  0  0
 19 20  2  0  0  0  0
 21 20  1  0  0  0  0
 21 16  1  0  0  0  0
 22 21  2  0  0  0  0
 23 17  1  0  0  0  0
 24 18  1  0  0  0  0
 25 26  1  0  0  0  0
 27 26  1  0  0  0  0
 28 27  1  0  0  0  0
 29 28  1  0  0  0  0
 29 25  1  0  0  0  0
M  END
>  <minimizedAffinity>
-5.00400448

$$$$

 OpenBabel03272509513D

 29 31  0  0  0  0  0  0  0  0999 V2000
   42.1290   22.7520   35.6810 C   0  0  0  0  0  0  0  0  0  0  0  0
   41.4190   22.9580   34.8440 H   0  0  0  0  0  0  0  0  0  0  0  0
   42.9040   22.0340   35.3230 H   0  0  0  0  0  0  0  0  0  0  0  0
   41.4260   22.1670   36.8640 C   0  0  0  0  0  0  0  0  0  0  0  0
   42.0300   22.3530   37.7850 H   0  0  0  0  0  0  0  0  0  0  0  0
   41.3470   21.0490   36.7720 H   0  0  0  0  0  0  0  0  0  0  0  0
   40.0590   22.7220   37.0650 C   0  0  0  0  0  0  0  0  0  0  0  0
   39.2490   22.8330   35.9640 C   0  0  0  0  0  0  0  0  0  0  0  0
   37.9640   23.3330   36.0330 C   0  0  0  0  0  0  0  0  0  0  0  0
   37.4980   23.7220   37.2210 N   0  0  0  0  0  0  0  0  0  0  0  0
   38.2940   23.6110   38.3010 C   0  0  0  0  0  0  0  0  0  0  0  0
   39.5510   23.1270   38.2570 N   0  0  0  0  0  0  0  0  0  0  0  0
   39.6260   22.5160   34.9840 H   0  0  0  0  0  0  0  0  0  0  0  0
   37.3360   23.4160   35.1570 H   0  0  0  0  0  0  0  0  0  0  0  0
   37.9240   23.9250   39.2760 H   0  0  0  0  0  0  0  0  0  0  0  0
   42.8210   23.9450   36.0630 O   0  0  0  0  0  0  0  0  0  0  0  0
   43.3810   26.7320   33.8030 C   0  0  0  0  0  0  0  0  0  0  0  0
   42.0660   27.2140   33.6880 C   0  0  0  0  0  0  0  0  0  0  0  0
   41.0610   26.5580   34.3900 C   0  0  0  0  0  0  0  0  0  0  0  0
   41.4350   25.4800   35.1480 N   0  0  0  0  0  0  0  0  0  0  0  0
   42.6870   25.0420   35.2430 C   0  0  0  0  0  0  0  0  0  0  0  0
   43.6840   25.6710   34.5630 N   0  0  0  0  0  0  0  0  0  0  0  0
   44.2010   27.2020   33.2800 H   0  0  0  0  0  0  0  0  0  0  0  0
   41.8500   28.0760   33.0650 H   0  0  0  0  0  0  0  0  0  0  0  0
   39.6570   27.0090   34.3160 C   0  0  0  0  0  3  0  0  0  0  0  0
   38.7780   26.0500   33.5490 C   0  0  0  0  0  2  0  0  0  0  0  0
   37.3790   26.5810   33.8820 C   0  0  0  0  0  2  0  0  0  0  0  0
   37.4900   27.1610   35.2670 C   0  0  0  0  0  2  0  0  0  0  0  0
   38.9570   27.0890   35.6360 C   0  0  0  0  0  2  0  0  0  0  0  0
  1 16  1  0  0  0  0
  1  4  1  0  0  0  0
  2  1  1  0  0  0  0
  3  1  1  0  0  0  0
  4  7  1  0  0  0  0
  4  5  1  0  0  0  0
  6  4  1  0  0  0  0
  7 12  1  0  0  0  0
  8  9  1  0  0  0  0
  8  7  2  0  0  0  0
  9 10  2  0  0  0  0
 10 11  1  0  0  0  0
 11 15  1  0  0  0  0
 12 11  2  0  0  0  0
 13  8  1  0  0  0  0
 14  9  1  0  0  0  0
 17 22  1  0  0  0  0
 18 17  2  0  0  0  0
 18 19  1  0  0  0  0
 19 20  2  0  0  0  0
 20 21  1  0  0  0  0
 21 16  1  0  0  0  0
 22 21  2  0  0  0  0
 23 17  1  0  0  0  0
 24 18  1  0  0  0  0
 25 19  1  0  0  0  0
 25 29  1  0  0  0  0
 26 27  1  0  0  0  0
 26 25  1  0  0  0  0
 27 28  1  0  0  0  0
 28 29  1  0  0  0  0
M  END
>  <minimizedAffinity>
-4.88514185

$$$$

 OpenBabel03272509513D

 29 31  0  0  0  0  0  0  0  0999 V2000
   37.7800   21.9960   32.9700 C   0  0  0  0  0  0  0  0  0  0  0  0
   38.4290   21.1990   32.5320 H   0  0  0  0  0  0  0  0  0  0  0  0
   38.4000   22.9080   33.1350 H   0  0  0  0  0  0  0  0  0  0  0  0
   37.1850   21.5640   34.2720 C   0  0  0  0  0  0  0  0  0  0  0  0
   37.3610   20.4710   34.4170 H   0  0  0  0  0  0  0  0  0  0  0  0
   36.0680   21.6950   34.2650 H   0  0  0  0  0  0  0  0  0  0  0  0
   37.7400   22.3000   35.4410 C   0  0  0  0  0  0  0  0  0  0  0  0
   39.0240   22.7730   35.3440 C   0  0  0  0  0  0  0  0  0  0  0  0
   39.6400   23.4690   36.3650 C   0  0  0  0  0  0  0  0  0  0  0  0
   38.9530   23.6860   37.4890 N   0  0  0  0  0  0  0  0  0  0  0  0
   37.6920   23.2220   37.5820 C   0  0  0  0  0  0  0  0  0  0  0  0
   37.0730   22.5400   36.5980 N   0  0  0  0  0  0  0  0  0  0  0  0
   39.5940   22.5980   34.4240 H   0  0  0  0  0  0  0  0  0  0  0  0
   40.6520   23.8360   36.2770 H   0  0  0  0  0  0  0  0  0  0  0  0
   37.1220   23.3930   38.4940 H   0  0  0  0  0  0  0  0  0  0  0  0
   36.7430   22.3640   32.0550 O   0  0  0  0  0  0  0  0  0  0  0  0
   35.4720   25.6020   31.0110 C   0  0  0  0  0  0  0  0  0  0  0  0
   36.1960   26.4350   31.8810 C   0  0  0  0  0  0  0  0  0  0  0  0
   37.0790   25.8410   32.7770 C   0  0  0  0  0  0  0  0  0  0  0  0
   37.1760   24.4760   32.7410 N   0  0  0  0  0  0  0  0  0  0  0  0
   36.4800   23.7070   31.9080 C   0  0  0  0  0  0  0  0  0  0  0  0
   35.6110   24.2690   31.0250 N   0  0  0  0  0  0  0  0  0  0  0  0
   34.7730   26.0070   30.2950 H   0  0  0  0  0  0  0  0  0  0  0  0
   36.0630   27.5110   31.8480 H   0  0  0  0  0  0  0  0  0  0  0  0
   37.8730   26.6540   33.7200 C   0  0  0  0  0  3  0  0  0  0  0  0
   37.4410   26.4650   35.1550 C   0  0  0  0  0  2  0  0  0  0  0  0
   38.5830   27.1530   35.9130 C   0  0  0  0  0  2  0  0  0  0  0  0
   39.8070   26.9540   35.0580 C   0  0  0  0  0  2  0  0  0  0  0  0
   39.3250   26.3010   33.7800 C   0  0  0  0  0  2  0  0  0  0  0  0
  1  3  1  0  0  0  0
  1  4  1  0  0  0  0
  2  1  1  0  0  0  0
  4  5  1  0  0  0  0
  4  7  1  0  0  0  0
  6  4  1  0  0  0  0
  7 12  1  0  0  0  0
  8  7  2  0  0  0  0
  8  9  1  0  0  0  0
  9 10  2  0  0  0  0
 10 11  1  0  0  0  0
 11 15  1  0  0  0  0
 12 11  2  0  0  0  0
 13  8  1  0  0  0  0
 14  9  1  0  0  0  0
 16  1  1  0  0  0  0
 17 22  2  0  0  0  0
 17 18  1  0  0  0  0
 18 19  2  0  0  0  0
 19 25  1  0  0  0  0
 20 19  1  0  0  0  0
 21 16  1  0  0  0  0
 21 20  2  0  0  0  0
 22 21  1  0  0  0  0
 23 17  1  0  0  0  0
 24 18  1  0  0  0  0
 25 29  1  0  0  0  0
 25 26  1  0  0  0  0
 26 27  1  0  0  0  0
 28 27  1  0  0  0  0
 29 28  1  0  0  0  0
M  END
>  <minimizedAffinity>
-4.85544634

$$$$

 OpenBabel03272509513D

 29 31  0  0  0  0  0  0  0  0999 V2000
   39.8180   22.5060   33.9190 C   0  0  0  0  0  0  0  0  0  0  0  0
   40.5560   22.1070   33.1820 H   0  0  0  0  0  0  0  0  0  0  0  0
   39.5600   23.5530   33.6330 H   0  0  0  0  0  0  0  0  0  0  0  0
   40.3710   22.4970   35.3080 C   0  0  0  0  0  0  0  0  0  0  0  0
   41.3930   22.9470   35.3050 H   0  0  0  0  0  0  0  0  0  0  0  0
   40.5020   21.4440   35.6810 H   0  0  0  0  0  0  0  0  0  0  0  0
   39.5210   23.2400   36.2790 C   0  0  0  0  0  0  0  0  0  0  0  0
   39.4930   22.7900   37.5750 C   0  0  0  0  0  0  0  0  0  0  0  0
   38.7420   23.4010   38.5590 C   0  0  0  0  0  0  0  0  0  0  0  0
   38.0170   24.4720   38.2300 N   0  0  0  0  0  0  0  0  0  0  0  0
   38.0460   24.9130   36.9590 C   0  0  0  0  0  0  0  0  0  0  0  0
   38.7720   24.3320   35.9820 N   0  0  0  0  0  0  0  0  0  0  0  0
   40.0870   21.9100   37.8520 H   0  0  0  0  0  0  0  0  0  0  0  0
   38.7280   23.0360   39.5760 H   0  0  0  0  0  0  0  0  0  0  0  0
   37.4590   25.7860   36.6790 H   0  0  0  0  0  0  0  0  0  0  0  0
   38.6000   21.7560   33.8710 O   0  0  0  0  0  0  0  0  0  0  0  0
   35.6440   22.1820   31.8050 C   0  0  0  0  0  0  0  0  0  0  0  0
   35.7220   23.5630   31.5580 C   0  0  0  0  0  0  0  0  0  0  0  0
   36.7820   24.2720   32.1130 C   0  0  0  0  0  0  0  0  0  0  0  0
   37.6780   23.5600   32.8650 N   0  0  0  0  0  0  0  0  0  0  0  0
   37.5840   22.2520   33.0850 C   0  0  0  0  0  0  0  0  0  0  0  0
   36.5540   21.5420   32.5520 N   0  0  0  0  0  0  0  0  0  0  0  0
   34.8420   21.5810   31.4010 H   0  0  0  0  0  0  0  0  0  0  0  0
   34.9700   24.0550   30.9500 H   0  0  0  0  0  0  0  0  0  0  0  0
   36.9280   25.7250   31.8940 C   0  0  0  0  0  3  0  0  0  0  0  0
   35.7050   26.3420   31.2600 C   0  0  0  0  0  2  0  0  0  0  0  0
   35.9930   27.8380   31.4280 C   0  0  0  0  0  2  0  0  0  0  0  0
   36.7940   27.9510   32.6990 C   0  0  0  0  0  2  0  0  0  0  0  0
   37.0740   26.5320   33.1460 C   0  0  0  0  0  2  0  0  0  0  0  0
  1  4  1  0  0  0  0
  2  1  1  0  0  0  0
  3  1  1  0  0  0  0
  4  6  1  0  0  0  0
  4  7  1  0  0  0  0
  5  4  1  0  0  0  0
  7  8  1  0  0  0  0
  8 13  1  0  0  0  0
  8  9  2  0  0  0  0
  9 14  1  0  0  0  0
 10  9  1  0  0  0  0
 11 10  2  0  0  0  0
 12  7  2  0  0  0  0
 12 11  1  0  0  0  0
 15 11  1  0  0  0  0
 16  1  1  0  0  0  0
 17 22  1  0  0  0  0
 18 17  2  0  0  0  0
 18 19  1  0  0  0  0
 19 20  2  0  0  0  0
 20 21  1  0  0  0  0
 21 16  1  0  0  0  0
 22 21  2  0  0  0  0
 23 17  1  0  0  0  0
 24 18  1  0  0  0  0
 25 19  1  0  0  0  0
 25 29  1  0  0  0  0
 26 27  1  0  0  0  0
 26 25  1  0  0  0  0
 27 28  1  0  0  0  0
 28 29  1  0  0  0  0
M  END
>  <minimizedAffinity>
-4.64141035

$$$$

 OpenBabel03272509513D

 29 31  0  0  0  0  0  0  0  0999 V2000
   38.0640   26.7850   35.4120 C   0  0  0  0  0  0  0  0  0  0  0  0
   38.4780   27.2720   36.3280 H   0  0  0  0  0  0  0  0  0  0  0  0
   38.9080   26.5380   34.7270 H   0  0  0  0  0  0  0  0  0  0  0  0
   37.1010   27.6820   34.7020 C   0  0  0  0  0  0  0  0  0  0  0  0
   37.3090   28.7440   34.9780 H   0  0  0  0  0  0  0  0  0  0  0  0
   36.0450   27.4810   35.0330 H   0  0  0  0  0  0  0  0  0  0  0  0
   37.1640   27.5510   33.2200 C   0  0  0  0  0  0  0  0  0  0  0  0
   38.3850   27.2800   32.6560 C   0  0  0  0  0  0  0  0  0  0  0  0
   38.5610   27.1370   31.2940 C   0  0  0  0  0  0  0  0  0  0  0  0
   37.4960   27.2690   30.5000 N   0  0  0  0  0  0  0  0  0  0  0  0
   36.2980   27.5330   31.0550 C   0  0  0  0  0  0  0  0  0  0  0  0
   36.1040   27.6780   32.3820 N   0  0  0  0  0  0  0  0  0  0  0  0
   39.2640   27.1710   33.3020 H   0  0  0  0  0  0  0  0  0  0  0  0
   39.5280   26.9240   30.8620 H   0  0  0  0  0  0  0  0  0  0  0  0
   35.4220   27.6420   30.4180 H   0  0  0  0  0  0  0  0  0  0  0  0
   37.4270   25.5470   35.7410 O   0  0  0  0  0  0  0  0  0  0  0  0
   38.6270   23.3530   38.3750 C   0  0  0  0  0  0  0  0  0  0  0  0
   39.7940   22.8620   37.7640 C   0  0  0  0  0  0  0  0  0  0  0  0
   40.1050   23.3100   36.4840 C   0  0  0  0  0  0  0  0  0  0  0  0
   39.2390   24.2040   35.9120 N   0  0  0  0  0  0  0  0  0  0  0  0
   38.1400   24.6550   36.5100 C   0  0  0  0  0  0  0  0  0  0  0  0
   37.8200   24.2290   37.7620 N   0  0  0  0  0  0  0  0  0  0  0  0
   38.3370   23.0410   39.3670 H   0  0  0  0  0  0  0  0  0  0  0  0
   40.4290   22.1540   38.2840 H   0  0  0  0  0  0  0  0  0  0  0  0
   41.3140   22.8370   35.7820 C   0  0  0  0  0  3  0  0  0  0  0  0
   41.7590   23.7820   34.6910 C   0  0  0  0  0  2  0  0  0  0  0  0
   43.1480   23.2290   34.3530 C   0  0  0  0  0  2  0  0  0  0  0  0
   43.6740   22.6520   35.6410 C   0  0  0  0  0  2  0  0  0  0  0  0
   42.5380   22.7470   36.6380 C   0  0  0  0  0  2  0  0  0  0  0  0
  1 16  1  0  0  0  0
  1  2  1  0  0  0  0
  3  1  1  0  0  0  0
  4  5  1  0  0  0  0
  4  6  1  0  0  0  0
  4  1  1  0  0  0  0
  7  4  1  0  0  0  0
  8  7  1  0  0  0  0
  8 13  1  0  0  0  0
  9  8  2  0  0  0  0
 10 11  2  0  0  0  0
 10  9  1  0  0  0  0
 11 12  1  0  0  0  0
 12  7  2  0  0  0  0
 14  9  1  0  0  0  0
 15 11  1  0  0  0  0
 16 21  1  0  0  0  0
 17 23  1  0  0  0  0
 18 24  1  0  0  0  0
 18 17  1  0  0  0  0
 19 18  2  0  0  0  0
 20 19  1  0  0  0  0
 20 21  2  0  0  0  0
 21 22  1  0  0  0  0
 22 17  2  0  0  0  0
 25 19  1  0  0  0  0
 25 29  1  0  0  0  0
 26 25  1  0  0  0  0
 27 26  1  0  0  0  0
 27 28  1  0  0  0  0
 28 29  1  0  0  0  0
M  END
>  <minimizedAffinity>
-4.5806427

$$$$

 OpenBabel03272509513D

 29 31  0  0  0  0  0  0  0  0999 V2000
   36.9880   23.6570   32.1010 C   0  0  0  0  0  0  0  0  0  0  0  0
   37.8900   23.1100   31.7370 H   0  0  0  0  0  0  0  0  0  0  0  0
   36.9840   23.6340   33.2160 H   0  0  0  0  0  0  0  0  0  0  0  0
   35.7270   23.0340   31.5930 C   0  0  0  0  0  0  0  0  0  0  0  0
   35.4760   23.4640   30.5930 H   0  0  0  0  0  0  0  0  0  0  0  0
   34.8570   23.2860   32.2600 H   0  0  0  0  0  0  0  0  0  0  0  0
   35.8140   21.5530   31.4700 C   0  0  0  0  0  0  0  0  0  0  0  0
   34.8810   20.8030   32.1390 C   0  0  0  0  0  0  0  0  0  0  0  0
   34.8650   19.4230   32.0970 C   0  0  0  0  0  0  0  0  0  0  0  0
   35.7990   18.8000   31.3750 N   0  0  0  0  0  0  0  0  0  0  0  0
   36.7140   19.5380   30.7180 C   0  0  0  0  0  0  0  0  0  0  0  0
   36.7480   20.8850   30.7460 N   0  0  0  0  0  0  0  0  0  0  0  0
   34.1110   21.3080   32.7350 H   0  0  0  0  0  0  0  0  0  0  0  0
   34.1240   18.8430   32.6300 H   0  0  0  0  0  0  0  0  0  0  0  0
   37.4800   19.0410   30.1250 H   0  0  0  0  0  0  0  0  0  0  0  0
   37.0420   25.0350   31.7190 O   0  0  0  0  0  0  0  0  0  0  0  0
   37.2000   26.8280   34.8730 C   0  0  0  0  0  0  0  0  0  0  0  0
   36.6440   28.0570   34.4770 C   0  0  0  0  0  0  0  0  0  0  0  0
   36.2470   28.2030   33.1520 C   0  0  0  0  0  0  0  0  0  0  0  0
   36.4300   27.1260   32.3270 N   0  0  0  0  0  0  0  0  0  0  0  0
   36.9580   25.9710   32.7250 C   0  0  0  0  0  0  0  0  0  0  0  0
   37.3530   25.8100   34.0160 N   0  0  0  0  0  0  0  0  0  0  0  0
   37.5260   26.6590   35.8890 H   0  0  0  0  0  0  0  0  0  0  0  0
   36.5330   28.8650   35.1930 H   0  0  0  0  0  0  0  0  0  0  0  0
   35.6550   29.4660   32.6660 C   0  0  0  0  0  3  0  0  0  0  0  0
   35.6070   30.5330   33.7330 C   0  0  0  0  0  2  0  0  0  0  0  0
   35.2540   31.7760   32.9090 C   0  0  0  0  0  2  0  0  0  0  0  0
   35.8750   31.5490   31.5560 C   0  0  0  0  0  2  0  0  0  0  0  0
   36.4320   30.1420   31.5810 C   0  0  0  0  0  2  0  0  0  0  0  0
  1  3  1  0  0  0  0
  2  1  1  0  0  0  0
  4  1  1  0  0  0  0
  4  6  1  0  0  0  0
  5  4  1  0  0  0  0
  7  4  1  0  0  0  0
  7  8  1  0  0  0  0
  8 13  1  0  0  0  0
  9  8  2  0  0  0  0
  9 14  1  0  0  0  0
 10  9  1  0  0  0  0
 11 12  1  0  0  0  0
 11 10  2  0  0  0  0
 12  7  2  0  0  0  0
 15 11  1  0  0  0  0
 16  1  1  0  0  0  0
 16 21  1  0  0  0  0
 17 23  1  0  0  0  0
 18 17  1  0  0  0  0
 18 24  1  0  0  0  0
 19 18  2  0  0  0  0
 20 21  2  0  0  0  0
 20 19  1  0  0  0  0
 21 22  1  0  0  0  0
 22 17  2  0  0  0  0
 25 19  1  0  0  0  0
 25 26  1  0  0  0  0
 27 26  1  0  0  0  0
 28 29  1  0  0  0  0
 28 27  1  0  0  0  0
 29 25  1  0  0  0  0
M  END
>  <minimizedAffinity>
-4.55091429

$$$$
