
 OpenBabel03272506523D

 30 32  0  0  1  0  0  0  0  0999 V2000
   38.8560   26.7720   35.4060 C   0  0  1  0  0  0  0  0  0  0  0  0
   38.2280   25.7190   36.2060 C   0  0  0  0  0  0  0  0  0  0  0  0
   38.4710   24.2980   35.7760 C   0  0  0  0  0  0  0  0  0  0  0  0
   39.8280   24.0080   35.2450 C   0  0  1  0  0  0  0  0  0  0  0  0
   40.4790   25.0690   34.4320 C   0  0  0  0  0  0  0  0  0  0  0  0
   40.2550   26.4400   34.9960 C   0  0  0  0  0  0  0  0  0  0  0  0
   38.9840   27.6850   36.0720 H   0  0  0  0  0  0  0  0  0  0  0  0
   38.7570   25.7570   37.2160 H   0  0  0  0  0  0  0  0  0  0  0  0
   37.1870   25.8250   36.4730 H   0  0  0  0  0  0  0  0  0  0  0  0
   38.2370   23.6460   36.6180 H   0  0  0  0  0  0  0  0  0  0  0  0
   37.7270   24.0880   34.9730 H   0  0  0  0  0  0  0  0  0  0  0  0
   39.7240   23.1190   34.5630 H   0  0  0  0  0  0  0  0  0  0  0  0
   41.5720   24.9080   34.4200 H   0  0  0  0  0  0  0  0  0  0  0  0
   40.1390   25.0400   33.3710 H   0  0  0  0  0  0  0  0  0  0  0  0
   40.7610   27.1710   34.3820 H   0  0  0  0  0  0  0  0  0  0  0  0
   40.8410   26.4340   35.9720 H   0  0  0  0  0  0  0  0  0  0  0  0
   38.4370   27.2600   32.9350 C   0  0  0  0  0  0  0  0  0  0  0  0
   38.0340   27.3100   34.2930 C   0  0  0  0  0  0  0  0  0  0  0  0
   36.8080   27.8890   34.5550 C   0  0  0  0  0  0  0  0  0  0  0  0
   36.0560   28.3750   33.5320 N   0  0  0  0  0  0  0  0  0  0  0  0
   36.4830   28.3060   32.2460 C   0  0  0  0  0  0  0  0  0  0  0  0
   37.6800   27.7440   31.9580 N   0  0  0  0  0  0  0  0  0  0  0  0
   39.3860   26.8200   32.6690 H   0  0  0  0  0  0  0  0  0  0  0  0
   36.3420   28.0090   35.5180 H   0  0  0  0  0  0  0  0  0  0  0  0
   35.8650   28.7010   31.4530 H   0  0  0  0  0  0  0  0  0  0  0  0
   40.6890   23.4970   36.3840 C   0  0  0  0  0  3  0  0  0  0  0  0
   40.2820   22.0800   36.7110 C   0  0  0  0  0  2  0  0  0  0  0  0
   41.5220   21.4490   37.3540 C   0  0  0  0  0  2  0  0  0  0  0  0
   42.6300   22.0640   36.5650 C   0  0  0  0  0  2  0  0  0  0  0  0
   42.1390   23.3600   36.0020 C   0  0  0  0  0  2  0  0  0  0  0  0
  1  7  1  1  0  0  0
  1  2  1  0  0  0  0
  2  9  1  0  0  0  0
  2  8  1  0  0  0  0
  3  2  1  0  0  0  0
  3 10  1  0  0  0  0
  4 12  1  6  0  0  0
  4  3  1  0  0  0  0
  4 26  1  0  0  0  0
  5  6  1  0  0  0  0
  5  4  1  0  0  0  0
  6  1  1  0  0  0  0
  6 16  1  0  0  0  0
 11  3  1  0  0  0  0
 13  5  1  0  0  0  0
 14  5  1  0  0  0  0
 15  6  1  0  0  0  0
 17 18  1  0  0  0  0
 18 19  2  0  0  0  0
 18  1  1  0  0  0  0
 19 24  1  0  0  0  0
 20 19  1  0  0  0  0
 21 20  2  0  0  0  0
 22 21  1  0  0  0  0
 22 17  2  0  0  0  0
 23 17  1  0  0  0  0
 25 21  1  0  0  0  0
 26 27  1  0  0  0  0
 27 28  1  0  0  0  0
 29 28  1  0  0  0  0
 30 26  1  0  0  0  0
 30 29  1  0  0  0  0
M  END
>  <minimizedAffinity>
-4.93777657

$$$$

 OpenBabel03272506523D

 30 32  0  0  1  0  0  0  0  0999 V2000
   36.8040   27.7400   32.1450 C   0  0  1  0  0  0  0  0  0  0  0  0
   35.8230   28.7230   31.6810 C   0  0  0  0  0  0  0  0  0  0  0  0
   34.7740   29.1580   32.6680 C   0  0  0  0  0  0  0  0  0  0  0  0
   35.2280   29.2870   34.0770 C   0  0  1  0  0  0  0  0  0  0  0  0
   36.2260   28.2970   34.5610 C   0  0  0  0  0  0  0  0  0  0  0  0
   37.2810   28.0010   33.5380 C   0  0  0  0  0  0  0  0  0  0  0  0
   37.7430   27.8630   31.5160 H   0  0  0  0  0  0  0  0  0  0  0  0
   36.4160   29.6830   31.5230 H   0  0  0  0  0  0  0  0  0  0  0  0
   35.3510   28.5680   30.7230 H   0  0  0  0  0  0  0  0  0  0  0  0
   34.3450   30.0950   32.3120 H   0  0  0  0  0  0  0  0  0  0  0  0
   33.9720   28.3850   32.6260 H   0  0  0  0  0  0  0  0  0  0  0  0
   34.3180   29.1470   34.7230 H   0  0  0  0  0  0  0  0  0  0  0  0
   36.7490   28.7020   35.4460 H   0  0  0  0  0  0  0  0  0  0  0  0
   35.7390   27.3490   34.8840 H   0  0  0  0  0  0  0  0  0  0  0  0
   37.9890   27.2930   33.9430 H   0  0  0  0  0  0  0  0  0  0  0  0
   37.8660   28.9740   33.4580 H   0  0  0  0  0  0  0  0  0  0  0  0
   35.3850   25.9120   31.0650 C   0  0  0  0  0  0  0  0  0  0  0  0
   36.4510   26.3180   31.9060 C   0  0  0  0  0  0  0  0  0  0  0  0
   37.1790   25.3130   32.5140 C   0  0  0  0  0  0  0  0  0  0  0  0
   36.8550   24.0120   32.2870 N   0  0  0  0  0  0  0  0  0  0  0  0
   35.8250   23.6700   31.4730 C   0  0  0  0  0  0  0  0  0  0  0  0
   35.0940   24.6330   30.8640 N   0  0  0  0  0  0  0  0  0  0  0  0
   34.7810   26.6530   30.5640 H   0  0  0  0  0  0  0  0  0  0  0  0
   38.0180   25.4320   33.1770 H   0  0  0  0  0  0  0  0  0  0  0  0
   35.5910   22.6280   31.3120 H   0  0  0  0  0  0  0  0  0  0  0  0
   35.6310   30.7290   34.3200 C   0  0  0  0  0  3  0  0  0  0  0  0
   34.4120   31.6100   34.1870 C   0  0  0  0  0  2  0  0  0  0  0  0
   34.7260   32.8530   35.0280 C   0  0  0  0  0  2  0  0  0  0  0  0
   35.4760   32.2690   36.1800 C   0  0  0  0  0  2  0  0  0  0  0  0
   36.0830   30.9760   35.7340 C   0  0  0  0  0  2  0  0  0  0  0  0
  1  7  1  6  0  0  0
  1  6  1  0  0  0  0
  2  1  1  0  0  0  0
  2  3  1  0  0  0  0
  3  4  1  0  0  0  0
  4 26  1  0  0  0  0
  4  5  1  0  0  0  0
  4 12  1  1  0  0  0
  5 14  1  0  0  0  0
  5 13  1  0  0  0  0
  6 15  1  0  0  0  0
  6  5  1  0  0  0  0
  8  2  1  0  0  0  0
  9  2  1  0  0  0  0
 10  3  1  0  0  0  0
 11  3  1  0  0  0  0
 16  6  1  0  0  0  0
 17 18  1  0  0  0  0
 18  1  1  0  0  0  0
 18 19  2  0  0  0  0
 19 24  1  0  0  0  0
 20 19  1  0  0  0  0
 21 20  2  0  0  0  0
 22 17  2  0  0  0  0
 22 21  1  0  0  0  0
 23 17  1  0  0  0  0
 25 21  1  0  0  0  0
 26 30  1  0  0  0  0
 27 26  1  0  0  0  0
 27 28  1  0  0  0  0
 28 29  1  0  0  0  0
 30 29  1  0  0  0  0
M  END
>  <minimizedAffinity>
-4.80682087

$$$$

 OpenBabel03272506523D

 30 32  0  0  1  0  0  0  0  0999 V2000
   38.4410   24.1920   35.7070 C   0  0  1  0  0  0  0  0  0  0  0  0
   38.1090   25.4540   36.3700 C   0  0  0  0  0  0  0  0  0  0  0  0
   38.4870   26.7220   35.6520 C   0  0  0  0  0  0  0  0  0  0  0  0
   38.3470   26.6920   34.1740 C   0  0  1  0  0  0  0  0  0  0  0  0
   38.6790   25.4150   33.4870 C   0  0  0  0  0  0  0  0  0  0  0  0
   38.1780   24.2170   34.2350 C   0  0  0  0  0  0  0  0  0  0  0  0
   37.7230   23.3990   36.0920 H   0  0  0  0  0  0  0  0  0  0  0  0
   36.9700   25.5050   36.3610 H   0  0  0  0  0  0  0  0  0  0  0  0
   38.3490   25.5660   37.4160 H   0  0  0  0  0  0  0  0  0  0  0  0
   37.9030   27.5380   36.0800 H   0  0  0  0  0  0  0  0  0  0  0  0
   39.5570   26.9090   35.9010 H   0  0  0  0  0  0  0  0  0  0  0  0
   39.0660   27.4550   33.7670 H   0  0  0  0  0  0  0  0  0  0  0  0
   38.1940   25.3920   32.4950 H   0  0  0  0  0  0  0  0  0  0  0  0
   39.7750   25.3170   33.3110 H   0  0  0  0  0  0  0  0  0  0  0  0
   38.4270   23.3190   33.6890 H   0  0  0  0  0  0  0  0  0  0  0  0
   37.0460   24.2940   34.1520 H   0  0  0  0  0  0  0  0  0  0  0  0
   40.9680   23.9810   35.4050 C   0  0  0  0  0  0  0  0  0  0  0  0
   39.7630   23.6120   36.0540 C   0  0  0  0  0  0  0  0  0  0  0  0
   39.8620   22.6680   37.0570 C   0  0  0  0  0  0  0  0  0  0  0  0
   41.0760   22.1440   37.3750 N   0  0  0  0  0  0  0  0  0  0  0  0
   42.2040   22.5270   36.7260 C   0  0  0  0  0  0  0  0  0  0  0  0
   42.1380   23.4500   35.7390 N   0  0  0  0  0  0  0  0  0  0  0  0
   40.9520   24.7130   34.6130 H   0  0  0  0  0  0  0  0  0  0  0  0
   39.0600   22.2740   37.6560 H   0  0  0  0  0  0  0  0  0  0  0  0
   43.1550   22.0940   37.0000 H   0  0  0  0  0  0  0  0  0  0  0  0
   36.9820   27.2440   33.8100 C   0  0  0  0  0  3  0  0  0  0  0  0
   36.6580   28.3990   34.7280 C   0  0  0  0  0  2  0  0  0  0  0  0
   35.6590   29.2590   33.9450 C   0  0  0  0  0  2  0  0  0  0  0  0
   36.1750   29.1440   32.5490 C   0  0  0  0  0  2  0  0  0  0  0  0
   36.9540   27.8710   32.4420 C   0  0  0  0  0  2  0  0  0  0  0  0
  1 18  1  0  0  0  0
  1  7  1  1  0  0  0
  1  2  1  0  0  0  0
  2  9  1  0  0  0  0
  3 11  1  0  0  0  0
  3 10  1  0  0  0  0
  3  2  1  0  0  0  0
  4 12  1  6  0  0  0
  4  3  1  0  0  0  0
  5  4  1  0  0  0  0
  5  6  1  0  0  0  0
  6  1  1  0  0  0  0
  8  2  1  0  0  0  0
 13  5  1  0  0  0  0
 14  5  1  0  0  0  0
 15  6  1  0  0  0  0
 16  6  1  0  0  0  0
 17 22  2  0  0  0  0
 17 18  1  0  0  0  0
 18 19  2  0  0  0  0
 19 20  1  0  0  0  0
 19 24  1  0  0  0  0
 21 25  1  0  0  0  0
 21 20  2  0  0  0  0
 22 21  1  0  0  0  0
 23 17  1  0  0  0  0
 26  4  1  0  0  0  0
 26 27  1  0  0  0  0
 28 27  1  0  0  0  0
 29 28  1  0  0  0  0
 30 29  1  0  0  0  0
 30 26  1  0  0  0  0
M  END
>  <minimizedAffinity>
-4.79460001

$$$$

 OpenBabel03272506523D

 30 32  0  0  1  0  0  0  0  0999 V2000
   38.4430   27.1470   34.1630 C   0  0  1  0  0  0  0  0  0  0  0  0
   38.5290   27.1190   35.6240 C   0  0  0  0  0  0  0  0  0  0  0  0
   38.0520   25.8680   36.3120 C   0  0  0  0  0  0  0  0  0  0  0  0
   38.3420   24.5940   35.6050 C   0  0  1  0  0  0  0  0  0  0  0  0
   38.2620   24.6080   34.1200 C   0  0  0  0  0  0  0  0  0  0  0  0
   38.8460   25.8550   33.5280 C   0  0  0  0  0  0  0  0  0  0  0  0
   39.2230   27.8840   33.7840 H   0  0  0  0  0  0  0  0  0  0  0  0
   39.6440   27.1100   35.8570 H   0  0  0  0  0  0  0  0  0  0  0  0
   38.1710   27.9740   36.1780 H   0  0  0  0  0  0  0  0  0  0  0  0
   38.4710   25.8570   37.3180 H   0  0  0  0  0  0  0  0  0  0  0  0
   36.9470   25.9730   36.4090 H   0  0  0  0  0  0  0  0  0  0  0  0
   37.5690   23.8530   35.9480 H   0  0  0  0  0  0  0  0  0  0  0  0
   38.8420   23.7620   33.7100 H   0  0  0  0  0  0  0  0  0  0  0  0
   37.2130   24.4800   33.7660 H   0  0  0  0  0  0  0  0  0  0  0  0
   38.7800   25.8090   32.4510 H   0  0  0  0  0  0  0  0  0  0  0  0
   39.9590   25.7680   33.7480 H   0  0  0  0  0  0  0  0  0  0  0  0
   36.2860   28.5000   34.3560 C   0  0  0  0  0  0  0  0  0  0  0  0
   37.1870   27.7060   33.6030 C   0  0  0  0  0  0  0  0  0  0  0  0
   36.8490   27.4640   32.2860 C   0  0  0  0  0  0  0  0  0  0  0  0
   35.7000   27.9820   31.7760 N   0  0  0  0  0  0  0  0  0  0  0  0
   34.8660   28.7380   32.5350 C   0  0  0  0  0  0  0  0  0  0  0  0
   35.1710   28.9910   33.8290 N   0  0  0  0  0  0  0  0  0  0  0  0
   36.4970   28.7210   35.3910 H   0  0  0  0  0  0  0  0  0  0  0  0
   37.4100   26.8900   31.5690 H   0  0  0  0  0  0  0  0  0  0  0  0
   33.9600   29.1360   32.1040 H   0  0  0  0  0  0  0  0  0  0  0  0
   39.6470   24.0350   36.1400 C   0  0  0  0  0  3  0  0  0  0  0  0
   39.3650   23.2420   37.3940 C   0  0  0  0  0  2  0  0  0  0  0  0
   40.5210   22.2400   37.4980 C   0  0  0  0  0  2  0  0  0  0  0  0
   40.7580   21.8870   36.0670 C   0  0  0  0  0  2  0  0  0  0  0  0
   40.2660   23.0180   35.2190 C   0  0  0  0  0  2  0  0  0  0  0  0
  1  7  1  6  0  0  0
  1  2  1  0  0  0  0
  2  8  1  0  0  0  0
  2  9  1  0  0  0  0
  2  3  1  0  0  0  0
  3 11  1  0  0  0  0
  3 10  1  0  0  0  0
  4 12  1  1  0  0  0
  4 26  1  0  0  0  0
  4  3  1  0  0  0  0
  5  4  1  0  0  0  0
  6 16  1  0  0  0  0
  6  5  1  0  0  0  0
  6  1  1  0  0  0  0
 13  5  1  0  0  0  0
 14  5  1  0  0  0  0
 15  6  1  0  0  0  0
 17 23  1  0  0  0  0
 18  1  1  0  0  0  0
 18 17  2  0  0  0  0
 19 18  1  0  0  0  0
 20 19  2  0  0  0  0
 20 21  1  0  0  0  0
 21 22  2  0  0  0  0
 22 17  1  0  0  0  0
 24 19  1  0  0  0  0
 25 21  1  0  0  0  0
 26 27  1  0  0  0  0
 27 28  1  0  0  0  0
 29 28  1  0  0  0  0
 30 29  1  0  0  0  0
 30 26  1  0  0  0  0
M  END
>  <minimizedAffinity>
-4.78825474

$$$$

 OpenBabel03272506523D

 30 32  0  0  1  0  0  0  0  0999 V2000
   39.0400   26.8870   34.9870 C   0  0  1  0  0  0  0  0  0  0  0  0
   39.3890   26.9470   33.5670 C   0  0  0  0  0  0  0  0  0  0  0  0
   38.2610   26.8190   32.5790 C   0  0  0  0  0  0  0  0  0  0  0  0
   36.9820   27.4630   32.9760 C   0  0  1  0  0  0  0  0  0  0  0  0
   36.6150   27.4110   34.4160 C   0  0  0  0  0  0  0  0  0  0  0  0
   37.7920   27.6420   35.3150 C   0  0  0  0  0  0  0  0  0  0  0  0
   39.8460   27.4410   35.5670 H   0  0  0  0  0  0  0  0  0  0  0  0
   39.7400   28.0170   33.3910 H   0  0  0  0  0  0  0  0  0  0  0  0
   40.2230   26.3570   33.2150 H   0  0  0  0  0  0  0  0  0  0  0  0
   38.6080   27.2040   31.6200 H   0  0  0  0  0  0  0  0  0  0  0  0
   38.0820   25.7260   32.4570 H   0  0  0  0  0  0  0  0  0  0  0  0
   36.1640   26.9160   32.4300 H   0  0  0  0  0  0  0  0  0  0  0  0
   35.8850   28.2100   34.6400 H   0  0  0  0  0  0  0  0  0  0  0  0
   36.1250   26.4460   34.6800 H   0  0  0  0  0  0  0  0  0  0  0  0
   37.4710   27.6130   36.3460 H   0  0  0  0  0  0  0  0  0  0  0  0
   38.0660   28.7320   35.1340 H   0  0  0  0  0  0  0  0  0  0  0  0
   38.1730   25.1080   36.6020 C   0  0  0  0  0  0  0  0  0  0  0  0
   39.0830   25.5360   35.6030 C   0  0  0  0  0  0  0  0  0  0  0  0
   40.0410   24.6250   35.2040 C   0  0  0  0  0  0  0  0  0  0  0  0
   40.0730   23.3880   35.7670 N   0  0  0  0  0  0  0  0  0  0  0  0
   39.1810   23.0210   36.7210 C   0  0  0  0  0  0  0  0  0  0  0  0
   38.2310   23.8930   37.1320 N   0  0  0  0  0  0  0  0  0  0  0  0
   37.4040   25.7780   36.9530 H   0  0  0  0  0  0  0  0  0  0  0  0
   40.8060   24.7730   34.4610 H   0  0  0  0  0  0  0  0  0  0  0  0
   39.2300   22.0310   37.1510 H   0  0  0  0  0  0  0  0  0  0  0  0
   36.9450   28.8590   32.3860 C   0  0  0  0  0  3  0  0  0  0  0  0
   37.0680   28.7630   30.8840 C   0  0  0  0  0  2  0  0  0  0  0  0
   36.4090   30.0390   30.3490 C   0  0  0  0  0  2  0  0  0  0  0  0
   35.2700   30.2240   31.2970 C   0  0  0  0  0  2  0  0  0  0  0  0
   35.6160   29.5390   32.5810 C   0  0  0  0  0  2  0  0  0  0  0  0
  1  6  1  0  0  0  0
  1  7  1  1  0  0  0
  1 18  1  0  0  0  0
  2  1  1  0  0  0  0
  3  4  1  0  0  0  0
  3  2  1  0  0  0  0
  4 12  1  6  0  0  0
  4  5  1  0  0  0  0
  5 13  1  0  0  0  0
  5 14  1  0  0  0  0
  5  6  1  0  0  0  0
  6 15  1  0  0  0  0
  8  2  1  0  0  0  0
  9  2  1  0  0  0  0
 10  3  1  0  0  0  0
 11  3  1  0  0  0  0
 16  6  1  0  0  0  0
 17 23  1  0  0  0  0
 17 22  1  0  0  0  0
 18 17  2  0  0  0  0
 19 18  1  0  0  0  0
 19 20  2  0  0  0  0
 20 21  1  0  0  0  0
 21 22  2  0  0  0  0
 21 25  1  0  0  0  0
 24 19  1  0  0  0  0
 26 30  1  0  0  0  0
 26  4  1  0  0  0  0
 27 26  1  0  0  0  0
 28 27  1  0  0  0  0
 28 29  1  0  0  0  0
 29 30  1  0  0  0  0
M  END
>  <minimizedAffinity>
-4.76897669

$$$$

 OpenBabel03272506523D

 30 32  0  0  1  0  0  0  0  0999 V2000
   39.1310   26.7600   34.8860 C   0  0  1  0  0  0  0  0  0  0  0  0
   39.3090   26.6720   33.4360 C   0  0  0  0  0  0  0  0  0  0  0  0
   38.0620   26.5980   32.5980 C   0  0  0  0  0  0  0  0  0  0  0  0
   36.9140   27.4100   33.0780 C   0  0  1  0  0  0  0  0  0  0  0  0
   36.7220   27.5110   34.5480 C   0  0  0  0  0  0  0  0  0  0  0  0
   38.0180   27.6750   35.2840 C   0  0  0  0  0  0  0  0  0  0  0  0
   40.0550   27.2630   35.3200 H   0  0  0  0  0  0  0  0  0  0  0  0
   39.7450   27.6790   33.1270 H   0  0  0  0  0  0  0  0  0  0  0  0
   40.0280   25.9670   33.0460 H   0  0  0  0  0  0  0  0  0  0  0  0
   38.3270   26.8670   31.5750 H   0  0  0  0  0  0  0  0  0  0  0  0
   37.7570   25.5260   32.5940 H   0  0  0  0  0  0  0  0  0  0  0  0
   35.9840   26.9200   32.6790 H   0  0  0  0  0  0  0  0  0  0  0  0
   36.1120   28.4020   34.7820 H   0  0  0  0  0  0  0  0  0  0  0  0
   36.1710   26.6300   34.9510 H   0  0  0  0  0  0  0  0  0  0  0  0
   37.8240   27.7620   36.3430 H   0  0  0  0  0  0  0  0  0  0  0  0
   38.3790   28.7100   34.9770 H   0  0  0  0  0  0  0  0  0  0  0  0
   39.9980   24.3980   35.3230 C   0  0  0  0  0  0  0  0  0  0  0  0
   39.1100   25.4650   35.6110 C   0  0  0  0  0  0  0  0  0  0  0  0
   38.1970   25.2550   36.6260 C   0  0  0  0  0  0  0  0  0  0  0  0
   38.1850   24.0690   37.2910 N   0  0  0  0  0  0  0  0  0  0  0  0
   39.0550   23.0750   36.9800 C   0  0  0  0  0  0  0  0  0  0  0  0
   39.9610   23.2520   35.9910 N   0  0  0  0  0  0  0  0  0  0  0  0
   40.7330   24.5050   34.5400 H   0  0  0  0  0  0  0  0  0  0  0  0
   37.4540   25.9480   36.9810 H   0  0  0  0  0  0  0  0  0  0  0  0
   39.0220   22.1430   37.5260 H   0  0  0  0  0  0  0  0  0  0  0  0
   36.9500   28.7530   32.3740 C   0  0  0  0  0  3  0  0  0  0  0  0
   36.9490   28.5260   30.8800 C   0  0  0  0  0  2  0  0  0  0  0  0
   36.3610   29.8100   30.2840 C   0  0  0  0  0  2  0  0  0  0  0  0
   35.3180   30.1730   31.2890 C   0  0  0  0  0  2  0  0  0  0  0  0
   35.7020   29.5630   32.6010 C   0  0  0  0  0  2  0  0  0  0  0  0
  1  6  1  0  0  0  0
  1  7  1  1  0  0  0
  1 18  1  0  0  0  0
  2  1  1  0  0  0  0
  3  4  1  0  0  0  0
  3  2  1  0  0  0  0
  4 12  1  6  0  0  0
  4  5  1  0  0  0  0
  5 13  1  0  0  0  0
  5 14  1  0  0  0  0
  5  6  1  0  0  0  0
  6 15  1  0  0  0  0
  8  2  1  0  0  0  0
  9  2  1  0  0  0  0
 10  3  1  0  0  0  0
 11  3  1  0  0  0  0
 16  6  1  0  0  0  0
 17 18  2  0  0  0  0
 17 22  1  0  0  0  0
 18 19  1  0  0  0  0
 19 24  1  0  0  0  0
 19 20  2  0  0  0  0
 21 20  1  0  0  0  0
 21 25  1  0  0  0  0
 22 21  2  0  0  0  0
 23 17  1  0  0  0  0
 26 30  1  0  0  0  0
 26  4  1  0  0  0  0
 27 26  1  0  0  0  0
 28 27  1  0  0  0  0
 28 29  1  0  0  0  0
 29 30  1  0  0  0  0
M  END
>  <minimizedAffinity>
-4.74248695

$$$$

 OpenBabel03272506523D

 30 32  0  0  1  0  0  0  0  0999 V2000
   38.9790   27.1860   33.6130 C   0  0  1  0  0  0  0  0  0  0  0  0
   38.2670   27.4280   34.8680 C   0  0  0  0  0  0  0  0  0  0  0  0
   37.4800   26.2790   35.4390 C   0  0  0  0  0  0  0  0  0  0  0  0
   38.0890   24.9340   35.2690 C   0  0  1  0  0  0  0  0  0  0  0  0
   38.8180   24.6750   33.9990 C   0  0  0  0  0  0  0  0  0  0  0  0
   39.6440   25.8480   33.5650 C   0  0  0  0  0  0  0  0  0  0  0  0
   39.8490   27.9170   33.5610 H   0  0  0  0  0  0  0  0  0  0  0  0
   39.0830   27.5710   35.6510 H   0  0  0  0  0  0  0  0  0  0  0  0
   37.6780   28.3280   34.9630 H   0  0  0  0  0  0  0  0  0  0  0  0
   37.2940   26.4890   36.4930 H   0  0  0  0  0  0  0  0  0  0  0  0
   36.4970   26.2890   34.9160 H   0  0  0  0  0  0  0  0  0  0  0  0
   37.2430   24.1920   35.2950 H   0  0  0  0  0  0  0  0  0  0  0  0
   39.5170   23.8310   34.1400 H   0  0  0  0  0  0  0  0  0  0  0  0
   38.1220   24.3820   33.1800 H   0  0  0  0  0  0  0  0  0  0  0  0
   40.1660   25.6040   32.6510 H   0  0  0  0  0  0  0  0  0  0  0  0
   40.4640   25.9120   34.3510 H   0  0  0  0  0  0  0  0  0  0  0  0
   36.8640   27.9020   32.3730 C   0  0  0  0  0  0  0  0  0  0  0  0
   38.2260   27.5080   32.3740 C   0  0  0  0  0  0  0  0  0  0  0  0
   38.8520   27.4360   31.1450 C   0  0  0  0  0  0  0  0  0  0  0  0
   38.1590   27.7370   30.0150 N   0  0  0  0  0  0  0  0  0  0  0  0
   36.8550   28.1100   30.0620 C   0  0  0  0  0  0  0  0  0  0  0  0
   36.2160   28.1890   31.2510 N   0  0  0  0  0  0  0  0  0  0  0  0
   36.3230   27.9760   33.3040 H   0  0  0  0  0  0  0  0  0  0  0  0
   39.8750   27.1600   30.9560 H   0  0  0  0  0  0  0  0  0  0  0  0
   36.3300   28.3430   29.1470 H   0  0  0  0  0  0  0  0  0  0  0  0
   38.8960   24.6120   36.5120 C   0  0  0  0  0  3  0  0  0  0  0  0
   37.9550   24.1810   37.6120 C   0  0  0  0  0  2  0  0  0  0  0  0
   38.8050   23.3080   38.5420 C   0  0  0  0  0  2  0  0  0  0  0  0
   39.6860   22.5870   37.5760 C   0  0  0  0  0  2  0  0  0  0  0  0
   39.7890   23.4140   36.3330 C   0  0  0  0  0  2  0  0  0  0  0  0
  1  7  1  1  0  0  0
  1  2  1  0  0  0  0
  2  9  1  0  0  0  0
  2  3  1  0  0  0  0
  2  8  1  0  0  0  0
  3 10  1  0  0  0  0
  4 12  1  1  0  0  0
  4  3  1  0  0  0  0
  4 26  1  0  0  0  0
  5 13  1  0  0  0  0
  5  4  1  0  0  0  0
  6  1  1  0  0  0  0
  6  5  1  0  0  0  0
  6 16  1  0  0  0  0
 11  3  1  0  0  0  0
 14  5  1  0  0  0  0
 15  6  1  0  0  0  0
 17 18  1  0  0  0  0
 17 23  1  0  0  0  0
 18  1  1  0  0  0  0
 19 18  2  0  0  0  0
 20 21  2  0  0  0  0
 20 19  1  0  0  0  0
 21 22  1  0  0  0  0
 22 17  2  0  0  0  0
 24 19  1  0  0  0  0
 25 21  1  0  0  0  0
 26 27  1  0  0  0  0
 27 28  1  0  0  0  0
 29 28  1  0  0  0  0
 30 26  1  0  0  0  0
 30 29  1  0  0  0  0
M  END
>  <minimizedAffinity>
-4.69255161

$$$$

 OpenBabel03272506523D

 30 32  0  0  1  0  0  0  0  0999 V2000
   37.7720   22.7470   32.9420 C   0  0  1  0  0  0  0  0  0  0  0  0
   37.4120   21.5680   33.7300 C   0  0  0  0  0  0  0  0  0  0  0  0
   35.9540   21.1980   33.7800 C   0  0  0  0  0  0  0  0  0  0  0  0
   35.1920   21.4140   32.5240 C   0  0  1  0  0  0  0  0  0  0  0  0
   35.5480   22.6080   31.7110 C   0  0  0  0  0  0  0  0  0  0  0  0
   37.0280   22.8360   31.6480 C   0  0  0  0  0  0  0  0  0  0  0  0
   38.8560   22.6310   32.6170 H   0  0  0  0  0  0  0  0  0  0  0  0
   37.8640   20.6850   33.1680 H   0  0  0  0  0  0  0  0  0  0  0  0
   37.8280   21.4630   34.7210 H   0  0  0  0  0  0  0  0  0  0  0  0
   35.8810   20.1590   34.1040 H   0  0  0  0  0  0  0  0  0  0  0  0
   35.5040   21.8300   34.5790 H   0  0  0  0  0  0  0  0  0  0  0  0
   34.1160   21.5540   32.8210 H   0  0  0  0  0  0  0  0  0  0  0  0
   35.2060   22.4620   30.6710 H   0  0  0  0  0  0  0  0  0  0  0  0
   35.0420   23.5260   32.0890 H   0  0  0  0  0  0  0  0  0  0  0  0
   37.2340   23.7000   31.0340 H   0  0  0  0  0  0  0  0  0  0  0  0
   37.4150   21.9560   31.0390 H   0  0  0  0  0  0  0  0  0  0  0  0
   37.4030   25.2680   33.1190 C   0  0  0  0  0  0  0  0  0  0  0  0
   37.8040   24.0320   33.6860 C   0  0  0  0  0  0  0  0  0  0  0  0
   38.2340   24.0620   34.9980 C   0  0  0  0  0  0  0  0  0  0  0  0
   38.2560   25.2390   35.6760 N   0  0  0  0  0  0  0  0  0  0  0  0
   37.8630   26.4000   35.0920 C   0  0  0  0  0  0  0  0  0  0  0  0
   37.4370   26.4020   33.8080 N   0  0  0  0  0  0  0  0  0  0  0  0
   37.0580   25.3070   32.0970 H   0  0  0  0  0  0  0  0  0  0  0  0
   38.5700   23.2260   35.5870 H   0  0  0  0  0  0  0  0  0  0  0  0
   37.8910   27.3210   35.6560 H   0  0  0  0  0  0  0  0  0  0  0  0
   35.1880   20.1180   31.7360 C   0  0  0  0  0  3  0  0  0  0  0  0
   36.2150   20.2110   30.6320 C   0  0  0  0  0  2  0  0  0  0  0  0
   36.5980   18.7590   30.3240 C   0  0  0  0  0  2  0  0  0  0  0  0
   36.5720   18.1340   31.6790 C   0  0  0  0  0  2  0  0  0  0  0  0
   35.6590   18.9420   32.5480 C   0  0  0  0  0  2  0  0  0  0  0  0
  1  7  1  6  0  0  0
  1 18  1  0  0  0  0
  1  2  1  0  0  0  0
  2  3  1  0  0  0  0
  2  9  1  0  0  0  0
  3 10  1  0  0  0  0
  3 11  1  0  0  0  0
  4 12  1  1  0  0  0
  4  3  1  0  0  0  0
  5 14  1  0  0  0  0
  5  4  1  0  0  0  0
  6  5  1  0  0  0  0
  6  1  1  0  0  0  0
  8  2  1  0  0  0  0
 13  5  1  0  0  0  0
 15  6  1  0  0  0  0
 16  6  1  0  0  0  0
 17 18  2  0  0  0  0
 17 22  1  0  0  0  0
 18 19  1  0  0  0  0
 19 24  1  0  0  0  0
 19 20  2  0  0  0  0
 21 25  1  0  0  0  0
 21 20  1  0  0  0  0
 22 21  2  0  0  0  0
 23 17  1  0  0  0  0
 26  4  1  0  0  0  0
 26 30  1  0  0  0  0
 27 26  1  0  0  0  0
 28 27  1  0  0  0  0
 28 29  1  0  0  0  0
 29 30  1  0  0  0  0
M  END
>  <minimizedAffinity>
-4.66762018

$$$$

 OpenBabel03272506523D

 30 32  0  0  1  0  0  0  0  0999 V2000
   40.5550   25.0890   34.2850 C   0  0  1  0  0  0  0  0  0  0  0  0
   39.3590   24.2520   34.3900 C   0  0  0  0  0  0  0  0  0  0  0  0
   38.3490   24.6340   35.4380 C   0  0  0  0  0  0  0  0  0  0  0  0
   38.1600   26.0930   35.6490 C   0  0  1  0  0  0  0  0  0  0  0  0
   39.3660   26.9550   35.5430 C   0  0  0  0  0  0  0  0  0  0  0  0
   40.2610   26.5490   34.4120 C   0  0  0  0  0  0  0  0  0  0  0  0
   40.9560   24.9900   33.2250 H   0  0  0  0  0  0  0  0  0  0  0  0
   38.7820   24.4340   33.4240 H   0  0  0  0  0  0  0  0  0  0  0  0
   39.4790   23.1790   34.4030 H   0  0  0  0  0  0  0  0  0  0  0  0
   37.4030   24.1530   35.1850 H   0  0  0  0  0  0  0  0  0  0  0  0
   38.7090   24.1840   36.3910 H   0  0  0  0  0  0  0  0  0  0  0  0
   37.7830   26.2190   36.7020 H   0  0  0  0  0  0  0  0  0  0  0  0
   39.0590   27.9970   35.3440 H   0  0  0  0  0  0  0  0  0  0  0  0
   39.9460   26.9680   36.4950 H   0  0  0  0  0  0  0  0  0  0  0  0
   41.1110   27.2150   34.3660 H   0  0  0  0  0  0  0  0  0  0  0  0
   39.6560   26.7970   33.4800 H   0  0  0  0  0  0  0  0  0  0  0  0
   41.7270   23.4610   35.8650 C   0  0  0  0  0  0  0  0  0  0  0  0
   41.7170   24.6540   35.1010 C   0  0  0  0  0  0  0  0  0  0  0  0
   42.8640   25.4230   35.1360 C   0  0  0  0  0  0  0  0  0  0  0  0
   43.9270   25.0190   35.8800 N   0  0  0  0  0  0  0  0  0  0  0  0
   43.8920   23.8670   36.5970 C   0  0  0  0  0  0  0  0  0  0  0  0
   42.7820   23.0930   36.5820 N   0  0  0  0  0  0  0  0  0  0  0  0
   40.8590   22.8200   35.8770 H   0  0  0  0  0  0  0  0  0  0  0  0
   43.0360   26.3520   34.6200 H   0  0  0  0  0  0  0  0  0  0  0  0
   44.7520   23.5710   37.1800 H   0  0  0  0  0  0  0  0  0  0  0  0
   37.0010   26.5560   34.7880 C   0  0  0  0  0  3  0  0  0  0  0  0
   36.9820   28.0660   34.7580 C   0  0  0  0  0  2  0  0  0  0  0  0
   36.2660   28.4280   33.4520 C   0  0  0  0  0  2  0  0  0  0  0  0
   36.7570   27.3680   32.5220 C   0  0  0  0  0  2  0  0  0  0  0  0
   37.1670   26.1840   33.3390 C   0  0  0  0  0  2  0  0  0  0  0  0
  1  7  1  6  0  0  0
  1  2  1  0  0  0  0
  1  6  1  0  0  0  0
  1 18  1  0  0  0  0
  2  9  1  0  0  0  0
  2  3  1  0  0  0  0
  3  4  1  0  0  0  0
  3 11  1  0  0  0  0
  4 12  1  1  0  0  0
  5  4  1  0  0  0  0
  5 14  1  0  0  0  0
  6  5  1  0  0  0  0
  8  2  1  0  0  0  0
 10  3  1  0  0  0  0
 13  5  1  0  0  0  0
 15  6  1  0  0  0  0
 16  6  1  0  0  0  0
 17 23  1  0  0  0  0
 17 22  1  0  0  0  0
 18 19  1  0  0  0  0
 18 17  2  0  0  0  0
 19 20  2  0  0  0  0
 20 21  1  0  0  0  0
 21 25  1  0  0  0  0
 22 21  2  0  0  0  0
 24 19  1  0  0  0  0
 26  4  1  0  0  0  0
 27 26  1  0  0  0  0
 28 27  1  0  0  0  0
 29 30  1  0  0  0  0
 29 28  1  0  0  0  0
 30 26  1  0  0  0  0
M  END
>  <minimizedAffinity>
-4.64826536

$$$$
