
 OpenBabel03272509383D

 26 28  0  0  1  0  0  0  0  0999 V2000
   35.8860   29.5510   48.9190 C   0  0  0  0  0  0  0  0  0  0  0  0
   35.7830   29.1980   50.2750 C   0  0  0  0  0  0  0  0  0  0  0  0
   36.6560   29.7500   51.2380 C   0  0  0  0  0  0  0  0  0  0  0  0
   37.6430   30.6710   50.8170 C   0  0  0  0  0  0  0  0  0  0  0  0
   37.7100   30.9920   49.4580 C   0  0  0  0  0  0  0  0  0  0  0  0
   36.8470   30.4370   48.5550 C   0  0  0  0  0  0  0  0  0  0  0  0
   35.0230   28.4950   50.5810 H   0  0  0  0  0  0  0  0  0  0  0  0
   36.5070   29.4250   52.2580 H   0  0  0  0  0  0  0  0  0  0  0  0
   38.2730   31.0500   51.6090 H   0  0  0  0  0  0  0  0  0  0  0  0
   38.5090   31.7010   49.3130 H   0  0  0  0  0  0  0  0  0  0  0  0
   37.1140   30.9470   47.2200 C   0  0  0  0  0  3  0  0  0  0  0  0
   37.8350   32.2700   47.4110 C   0  0  0  0  0  2  0  0  0  0  0  0
   38.5840   32.3410   46.0790 C   0  0  0  0  0  2  0  0  0  0  0  0
   39.2320   30.9780   46.0800 C   0  0  0  0  0  2  0  0  0  0  0  0
   38.1540   30.0510   46.5100 C   0  0  0  0  0  2  0  0  0  0  0  0
   34.9620   28.9460   47.9960 C   0  0  2  0  0  3  0  0  0  0  0  0
   34.6510   27.7310   48.2930 O   0  0  0  0  0  1  0  0  0  0  0  0
   32.7160   31.0620   46.0940 C   0  0  0  0  0  0  0  0  0  0  0  0
   33.1250   30.8980   44.7800 C   0  0  0  0  0  0  0  0  0  0  0  0
   34.1780   30.0440   44.5300 C   0  0  0  0  0  0  0  0  0  0  0  0
   34.8080   29.3710   45.5530 N   0  0  0  0  0  0  0  0  0  0  0  0
   34.3780   29.5620   46.8110 C   0  0  0  0  0  0  0  0  0  0  0  0
   33.3640   30.3850   47.0300 N   0  0  0  0  0  0  0  0  0  0  0  0
   31.9000   31.7160   46.3320 H   0  0  0  0  0  0  0  0  0  0  0  0
   32.6140   31.4370   44.0050 H   0  0  0  0  0  0  0  0  0  0  0  0
   34.5220   29.8950   43.5140 H   0  0  0  0  0  0  0  0  0  0  0  0
  1  2  1  0  0  0  0
  2  7  1  0  0  0  0
  2  3  2  0  0  0  0
  3  8  1  0  0  0  0
  4  3  1  0  0  0  0
  4  9  1  0  0  0  0
  5  4  2  0  0  0  0
  6  1  2  0  0  0  0
  6  5  1  0  0  0  0
 10  5  1  0  0  0  0
 11 12  1  0  0  0  0
 11  6  1  0  0  0  0
 13 14  1  0  0  0  0
 13 12  1  0  0  0  0
 14 15  1  0  0  0  0
 15 11  1  0  0  0  0
 16 17  1  6  0  0  0
 16  1  1  0  0  0  0
 18 24  1  0  0  0  0
 18 23  1  0  0  0  0
 19 18  2  0  0  0  0
 20 19  1  0  0  0  0
 20 21  2  0  0  0  0
 21 22  1  0  0  0  0
 22 23  2  0  0  0  0
 22 16  1  0  0  0  0
 25 19  1  0  0  0  0
 26 20  1  0  0  0  0
M  END
>  <minimizedAffinity>
-5.09405422

>  <minimizedRMSD>
1.14387298

$$$$
