
 OpenBabel03272508453D

 23 25  0  0  0  0  0  0  0  0999 V2000
   35.8610   29.8710   49.3930 C   0  0  0  0  0  0  0  0  0  0  0  0
   36.7140   29.1520   50.2220 C   0  0  0  0  0  0  0  0  0  0  0  0
   37.8950   29.9080   50.1460 C   0  0  0  0  0  0  0  0  0  0  0  0
   37.7020   30.9860   49.3210 C   0  0  0  0  0  0  0  0  0  0  0  0
   36.4650   30.9330   48.8820 O   0  0  0  0  0  0  0  0  0  0  0  0
   36.4530   28.2520   50.7510 H   0  0  0  0  0  0  0  0  0  0  0  0
   38.7970   29.6100   50.7020 H   0  0  0  0  0  0  0  0  0  0  0  0
   38.6790   32.0120   48.9790 C   0  0  0  0  0  3  0  0  0  0  0  0
   38.3450   33.3760   49.5400 C   0  0  0  0  0  2  0  0  0  0  0  0
   39.4250   34.2200   48.8790 C   0  0  0  0  0  2  0  0  0  0  0  0
   39.7350   33.5210   47.5620 C   0  0  0  0  0  2  0  0  0  0  0  0
   38.7540   32.3520   47.5050 C   0  0  0  0  0  2  0  0  0  0  0  0
   34.4640   29.4760   49.1330 C   0  0  0  0  0  0  0  0  0  0  0  0
   33.6970   29.3530   50.1030 O   0  0  0  0  0  0  0  0  0  0  0  0
   32.4620   28.2860   46.3300 C   0  0  0  0  0  0  0  0  0  0  0  0
   33.1520   28.7730   45.2190 C   0  0  0  0  0  0  0  0  0  0  0  0
   34.3040   29.5100   45.4140 C   0  0  0  0  0  0  0  0  0  0  0  0
   34.7030   29.7210   46.6930 N   0  0  0  0  0  0  0  0  0  0  0  0
   34.0250   29.2430   47.7680 C   0  0  0  0  0  0  0  0  0  0  0  0
   32.9110   28.5290   47.5670 N   0  0  0  0  0  0  0  0  0  0  0  0
   31.5730   27.7180   46.1200 H   0  0  0  0  0  0  0  0  0  0  0  0
   32.8870   28.6400   44.1810 H   0  0  0  0  0  0  0  0  0  0  0  0
   34.9600   29.9620   44.6840 H   0  0  0  0  0  0  0  0  0  0  0  0
  1  2  2  0  0  0  0
  2  6  1  0  0  0  0
  3  2  1  0  0  0  0
  3  7  1  0  0  0  0
  4  3  2  0  0  0  0
  5  4  1  0  0  0  0
  5  1  1  0  0  0  0
  8  4  1  0  0  0  0
  8  9  1  0  0  0  0
 10  9  1  0  0  0  0
 11 10  1  0  0  0  0
 12 11  1  0  0  0  0
 12  8  1  0  0  0  0
 13  1  1  0  0  0  0
 13 14  2  0  0  0  0
 15 20  1  0  0  0  0
 16 17  1  0  0  0  0
 16 15  2  0  0  0  0
 17 18  2  0  0  0  0
 18 19  1  0  0  0  0
 19 13  1  0  0  0  0
 20 19  2  0  0  0  0
 21 15  1  0  0  0  0
 22 16  1  0  0  0  0
 23 17  1  0  0  0  0
M  END
>  <minimizedAffinity>
-5.28448725

>  <minimizedRMSD>
1.72352207

$$$$
