
 OpenBabel03272507023D

 42 45  0  0  1  0  0  0  0  0999 V2000
   35.0240   30.1160   49.2930 C   0  0  2  0  0  0  0  0  0  0  0  0
   35.9980   30.7590   48.3720 C   0  0  0  0  0  0  0  0  0  0  0  0
   37.3710   30.1070   48.4230 C   0  0  2  0  0  0  0  0  0  0  0  0
   37.9560   30.0480   49.7710 C   0  0  0  0  0  0  0  0  0  0  0  0
   36.9380   29.8090   50.8730 C   0  0  0  0  0  0  0  0  0  0  0  0
   35.6710   29.2100   50.3100 C   0  0  0  0  0  0  0  0  0  0  0  0
   34.4310   30.8540   49.9120 H   0  0  0  0  0  0  0  0  0  0  0  0
   36.1810   31.7920   48.8210 H   0  0  0  0  0  0  0  0  0  0  0  0
   35.7640   30.8530   47.3270 H   0  0  0  0  0  0  0  0  0  0  0  0
   37.1900   29.0780   48.0440 H   0  0  0  0  0  0  0  0  0  0  0  0
   38.6210   30.8130   50.1190 H   0  0  0  0  0  0  0  0  0  0  0  0
   38.5850   29.1050   49.8120 H   0  0  0  0  0  0  0  0  0  0  0  0
   36.6710   30.8190   51.2770 H   0  0  0  0  0  0  0  0  0  0  0  0
   37.3170   29.2160   51.7030 H   0  0  0  0  0  0  0  0  0  0  0  0
   35.9780   28.2650   49.8040 H   0  0  0  0  0  0  0  0  0  0  0  0
   34.9800   29.0330   51.1340 H   0  0  0  0  0  0  0  0  0  0  0  0
   38.2940   30.7360   47.5450 N   0  0  1  0  0  0  0  0  0  0  0  0
   38.2390   30.1630   46.2080 C   0  0  0  0  0  0  0  0  0  0  0  0
   39.3570   30.9550   45.5250 C   0  0  0  0  0  0  0  0  0  0  0  0
   39.0970   32.3320   46.0910 C   0  0  0  0  0  0  0  0  0  0  0  0
   38.2390   32.1040   47.3420 C   0  0  2  0  0  0  0  0  0  0  0  0
   38.4570   29.0820   46.2150 H   0  0  0  0  0  0  0  0  0  0  0  0
   37.3080   30.3940   45.6820 H   0  0  0  0  0  0  0  0  0  0  0  0
   40.3050   30.5410   45.9240 H   0  0  0  0  0  0  0  0  0  0  0  0
   39.2760   30.9230   44.4300 H   0  0  0  0  0  0  0  0  0  0  0  0
   38.5860   32.9020   45.3250 H   0  0  0  0  0  0  0  0  0  0  0  0
   40.0830   32.7620   46.3070 H   0  0  0  0  0  0  0  0  0  0  0  0
   37.1850   32.3180   46.9800 H   0  0  0  0  0  0  0  0  0  0  0  0
   38.5270   33.1350   48.3050 C   0  0  0  0  0  0  0  0  0  0  0  0
   39.7150   33.9570   47.7550 C   0  0  0  0  0  0  0  0  0  0  0  0
   40.1430   34.7640   48.9640 C   0  0  0  0  0  0  0  0  0  0  0  0
   39.3230   34.2380   50.1490 C   0  0  0  0  0  0  0  0  0  0  0  0
   39.0920   32.8030   49.6400 C   0  0  0  0  0  0  0  0  0  0  0  0
   33.9960   29.3200   48.5840 C   0  0  0  0  0  0  0  0  0  0  0  0
   33.7760   29.7000   47.2580 C   0  0  0  0  0  0  0  0  0  0  0  0
   32.8210   28.9740   46.5330 C   0  0  0  0  0  0  0  0  0  0  0  0
   32.1540   27.9330   47.1560 N   0  0  0  0  0  0  0  0  0  0  0  0
   32.4050   27.6030   48.4560 C   0  0  0  0  0  0  0  0  0  0  0  0
   33.3090   28.2980   49.1230 N   0  0  0  0  0  0  0  0  0  0  0  0
   34.1240   30.4340   46.5590 H   0  0  0  0  0  0  0  0  0  0  0  0
   32.4740   29.0560   45.5330 H   0  0  0  0  0  0  0  0  0  0  0  0
   31.8750   26.7910   48.9230 H   0  0  0  0  0  0  0  0  0  0  0  0
  1  7  1  1  0  0  0
  1  6  1  0  0  0  0
  2  3  1  0  0  0  0
  2  8  1  0  0  0  0
  2  1  1  0  0  0  0
  3 10  1  6  0  0  0
  3  4  1  0  0  0  0
  4 12  1  0  0  0  0
  4 11  1  0  0  0  0
  4  5  1  0  0  0  0
  5 13  1  0  0  0  0
  5 14  1  0  0  0  0
  6  5  1  0  0  0  0
  6 16  1  0  0  0  0
  9  2  1  0  0  0  0
 15  6  1  0  0  0  0
 17 18  1  6  0  0  0
 17  3  1  0  0  0  0
 18 22  1  0  0  0  0
 19 24  1  0  0  0  0
 19 20  1  0  0  0  0
 19 18  1  0  0  0  0
 20 27  1  0  0  0  0
 20 21  1  0  0  0  0
 21 28  1  6  0  0  0
 21 17  1  0  0  0  0
 21 29  1  0  0  0  0
 23 18  1  0  0  0  0
 25 19  1  0  0  0  0
 26 20  1  0  0  0  0
 29 33  1  0  0  0  0
 30 29  1  0  0  0  0
 30 31  1  0  0  0  0
 31 32  1  0  0  0  0
 33 32  1  0  0  0  0
 34 39  1  0  0  0  0
 34  1  1  0  0  0  0
 35 34  2  0  0  0  0
 36 37  2  0  0  0  0
 36 35  1  0  0  0  0
 37 38  1  0  0  0  0
 38 42  1  0  0  0  0
 38 39  2  0  0  0  0
 40 35  1  0  0  0  0
 41 36  1  0  0  0  0
M  END
>  <minimizedAffinity>
-5.90763903

>  <minimizedRMSD>
0.843335032

$$$$
