
 OpenBabel03272508273D

 34 37  0  0  1  0  0  0  0  0999 V2000
   33.9770   29.0410   47.3430 C   0  0  2  0  0  0  0  0  0  0  0  0
   34.7390   28.2520   48.3990 C   0  0  2  0  0  0  0  0  0  0  0  0
   33.8550   28.0510   49.4150 O   0  0  0  0  0  0  0  0  0  0  0  0
   32.5710   28.1180   48.9530 C   0  0  0  0  0  0  0  0  0  0  0  0
   32.6170   28.3490   47.4580 C   0  0  1  0  0  0  0  0  0  0  0  0
   33.9090   30.1050   47.5850 H   0  0  0  0  0  0  0  0  0  0  0  0
   35.0400   27.2760   47.9710 H   0  0  0  0  0  0  0  0  0  0  0  0
   32.0780   27.1280   49.1190 H   0  0  0  0  0  0  0  0  0  0  0  0
   31.9180   28.8500   49.4680 H   0  0  0  0  0  0  0  0  0  0  0  0
   32.6900   27.3820   46.9060 H   0  0  0  0  0  0  0  0  0  0  0  0
   35.8020   30.5220   49.0450 C   0  0  1  0  0  0  0  0  0  0  0  0
   35.8970   29.0980   48.8280 C   0  0  1  0  0  0  0  0  0  0  0  0
   36.0430   29.5770   50.2330 C   0  0  0  0  0  0  0  0  0  0  0  0
   34.9000   31.1280   49.2420 H   0  0  0  0  0  0  0  0  0  0  0  0
   36.8640   28.7440   48.3680 H   0  0  0  0  0  0  0  0  0  0  0  0
   37.0450   29.5820   50.7170 H   0  0  0  0  0  0  0  0  0  0  0  0
   35.2360   29.4140   50.9690 H   0  0  0  0  0  0  0  0  0  0  0  0
   36.9930   31.4350   48.8070 C   0  0  0  0  0  0  0  0  0  0  0  0
   37.1800   32.4960   49.6950 C   0  0  0  0  0  0  0  0  0  0  0  0
   38.2650   33.3150   49.4190 C   0  0  0  0  0  0  0  0  0  0  0  0
   39.0760   33.0660   48.3360 N   0  0  0  0  0  0  0  0  0  0  0  0
   38.8560   32.0280   47.5040 C   0  0  0  0  0  0  0  0  0  0  0  0
   37.8010   31.1990   47.7420 N   0  0  0  0  0  0  0  0  0  0  0  0
   36.5280   32.6620   50.5310 H   0  0  0  0  0  0  0  0  0  0  0  0
   38.4930   34.1680   50.0560 H   0  0  0  0  0  0  0  0  0  0  0  0
   39.5230   31.8760   46.6680 H   0  0  0  0  0  0  0  0  0  0  0  0
   34.4970   28.9110   46.0710 O   0  0  0  0  0  0  0  0  0  0  0  0
   34.3050   27.9620   45.7950 H   0  0  0  0  0  0  0  0  0  0  0  0
   31.5960   29.1340   47.0050 O   0  0  0  0  0  0  0  0  0  0  0  0
   30.8470   28.5970   45.9920 C   0  0  0  0  0  3  0  0  0  0  0  0
   31.1120   29.3230   44.6710 C   0  0  0  0  0  2  0  0  0  0  0  0
   29.9250   30.2760   44.5570 C   0  0  0  0  0  2  0  0  0  0  0  0
   28.8030   29.3240   44.9870 C   0  0  0  0  0  2  0  0  0  0  0  0
   29.3820   28.8240   46.3150 C   0  0  0  0  0  2  0  0  0  0  0  0
  1  5  1  0  0  0  0
  1  6  1  1  0  0  0
  1  2  1  0  0  0  0
  2  7  1  6  0  0  0
  2 12  1  0  0  0  0
  2  3  1  0  0  0  0
  4  8  1  0  0  0  0
  4  3  1  0  0  0  0
  4  9  1  0  0  0  0
  5 10  1  6  0  0  0
  5  4  1  0  0  0  0
 11 14  1  6  0  0  0
 11 13  1  0  0  0  0
 12 15  1  6  0  0  0
 12 11  1  0  0  0  0
 12 13  1  0  0  0  0
 13 16  1  0  0  0  0
 13 17  1  0  0  0  0
 18 11  1  0  0  0  0
 18 19  1  0  0  0  0
 19 24  1  0  0  0  0
 20 19  2  0  0  0  0
 20 25  1  0  0  0  0
 21 20  1  0  0  0  0
 22 23  1  0  0  0  0
 22 21  2  0  0  0  0
 23 18  2  0  0  0  0
 26 22  1  0  0  0  0
 27  1  1  0  0  0  0
 28 27  1  0  0  0  0
 29  5  1  0  0  0  0
 30 34  1  0  0  0  0
 30 29  1  0  0  0  0
 31 30  1  0  0  0  0
 32 31  1  0  0  0  0
 32 33  1  0  0  0  0
 33 34  1  0  0  0  0
M  END
>  <minimizedAffinity>
-4.77684879

>  <minimizedRMSD>
0.0609650984

$$$$
