
 OpenBabel03272509383D

 26 28  0  0  1  0  0  0  0  0999 V2000
   35.8860   29.5540   48.9180 C   0  0  0  0  0  0  0  0  0  0  0  0
   35.7830   29.2010   50.2750 C   0  0  0  0  0  0  0  0  0  0  0  0
   36.6550   29.7540   51.2380 C   0  0  0  0  0  0  0  0  0  0  0  0
   37.6430   30.6750   50.8170 C   0  0  0  0  0  0  0  0  0  0  0  0
   37.7100   30.9950   49.4580 C   0  0  0  0  0  0  0  0  0  0  0  0
   36.8470   30.4400   48.5540 C   0  0  0  0  0  0  0  0  0  0  0  0
   35.0230   28.4980   50.5810 H   0  0  0  0  0  0  0  0  0  0  0  0
   36.5070   29.4290   52.2580 H   0  0  0  0  0  0  0  0  0  0  0  0
   38.2720   31.0540   51.6090 H   0  0  0  0  0  0  0  0  0  0  0  0
   38.5100   31.7040   49.3130 H   0  0  0  0  0  0  0  0  0  0  0  0
   37.1150   30.9490   47.2190 C   0  0  0  0  0  3  0  0  0  0  0  0
   37.8360   32.2730   47.4100 C   0  0  0  0  0  2  0  0  0  0  0  0
   38.5860   32.3430   46.0780 C   0  0  0  0  0  2  0  0  0  0  0  0
   39.2330   30.9780   46.0810 C   0  0  0  0  0  2  0  0  0  0  0  0
   38.1540   30.0520   46.5110 C   0  0  0  0  0  2  0  0  0  0  0  0
   34.9630   28.9480   47.9950 C   0  0  2  0  0  3  0  0  0  0  0  0
   34.6530   27.7330   48.2930 O   0  0  0  0  0  1  0  0  0  0  0  0
   32.7150   31.0620   46.0930 C   0  0  0  0  0  0  0  0  0  0  0  0
   33.1250   30.8990   44.7800 C   0  0  0  0  0  0  0  0  0  0  0  0
   34.1790   30.0470   44.5300 C   0  0  0  0  0  0  0  0  0  0  0  0
   34.8090   29.3740   45.5530 N   0  0  0  0  0  0  0  0  0  0  0  0
   34.3790   29.5640   46.8100 C   0  0  0  0  0  0  0  0  0  0  0  0
   33.3640   30.3860   47.0290 N   0  0  0  0  0  0  0  0  0  0  0  0
   31.8980   31.7150   46.3310 H   0  0  0  0  0  0  0  0  0  0  0  0
   32.6130   31.4380   44.0050 H   0  0  0  0  0  0  0  0  0  0  0  0
   34.5230   29.8990   43.5140 H   0  0  0  0  0  0  0  0  0  0  0  0
  1  2  1  0  0  0  0
  2  7  1  0  0  0  0
  2  3  2  0  0  0  0
  3  8  1  0  0  0  0
  4  3  1  0  0  0  0
  4  9  1  0  0  0  0
  5  4  2  0  0  0  0
  6  1  2  0  0  0  0
  6  5  1  0  0  0  0
 10  5  1  0  0  0  0
 11 12  1  0  0  0  0
 11  6  1  0  0  0  0
 13 14  1  0  0  0  0
 13 12  1  0  0  0  0
 14 15  1  0  0  0  0
 15 11  1  0  0  0  0
 16 17  1  6  0  0  0
 16  1  1  0  0  0  0
 18 24  1  0  0  0  0
 18 23  1  0  0  0  0
 19 18  2  0  0  0  0
 20 19  1  0  0  0  0
 20 21  2  0  0  0  0
 21 22  1  0  0  0  0
 22 23  2  0  0  0  0
 22 16  1  0  0  0  0
 25 19  1  0  0  0  0
 26 20  1  0  0  0  0
M  END
>  <minimizedAffinity>
-5.09296274

>  <minimizedRMSD>
1.23387444

$$$$
