
 OpenBabel03272505463D

 21 23  0  0  0  0  0  0  0  0999 V2000
   38.3480   26.0710   35.1270 C   0  0  0  0  0  0  0  0  0  0  0  0
   38.5410   27.2030   36.0020 C   0  0  0  0  0  0  0  0  0  0  0  0
   39.6800   26.7830   35.1410 C   0  0  0  0  0  0  0  0  0  0  0  0
   38.0240   28.1570   35.6840 H   0  0  0  0  0  0  0  0  0  0  0  0
   38.5710   27.1580   37.1060 H   0  0  0  0  0  0  0  0  0  0  0  0
   40.5110   26.1800   35.5030 H   0  0  0  0  0  0  0  0  0  0  0  0
   39.9030   27.3670   34.2260 H   0  0  0  0  0  0  0  0  0  0  0  0
   36.6540   25.1230   31.9820 C   0  0  0  0  0  0  0  0  0  0  0  0
   36.0540   26.3100   31.5550 C   0  0  0  0  0  0  0  0  0  0  0  0
   36.2360   27.4450   32.3540 C   0  0  0  0  0  0  0  0  0  0  0  0
   36.9720   27.3290   33.4840 N   0  0  0  0  0  0  0  0  0  0  0  0
   37.5470   26.1520   33.8790 C   0  0  0  0  0  0  0  0  0  0  0  0
   37.3860   25.0600   33.1300 N   0  0  0  0  0  0  0  0  0  0  0  0
   36.5130   24.2540   31.3670 H   0  0  0  0  0  0  0  0  0  0  0  0
   35.4740   26.3630   30.6480 H   0  0  0  0  0  0  0  0  0  0  0  0
   35.7990   28.4060   32.0850 H   0  0  0  0  0  0  0  0  0  0  0  0
   38.3250   24.6380   35.6370 C   0  0  0  0  0  3  0  0  0  0  0  0
   37.6850   24.4360   36.9490 C   0  0  0  0  0  2  0  0  0  0  0  0
   38.5900   23.5260   37.7690 C   0  0  0  0  0  2  0  0  0  0  0  0
   39.6980   23.0670   36.8570 C   0  0  0  0  0  2  0  0  0  0  0  0
   39.7140   24.0390   35.6980 C   0  0  0  0  0  2  0  0  0  0  0  0
  1  3  1  0  0  0  0
  1 17  1  0  0  0  0
  1  2  1  0  0  0  0
  2  5  1  0  0  0  0
  3  6  1  0  0  0  0
  3  2  1  0  0  0  0
  4  2  1  0  0  0  0
  7  3  1  0  0  0  0
  8 13  1  0  0  0  0
  9  8  2  0  0  0  0
  9 10  1  0  0  0  0
 10 11  2  0  0  0  0
 11 12  1  0  0  0  0
 12  1  1  0  0  0  0
 13 12  2  0  0  0  0
 14  8  1  0  0  0  0
 15  9  1  0  0  0  0
 16 10  1  0  0  0  0
 17 21  1  0  0  0  0
 17 18  1  0  0  0  0
 18 19  1  0  0  0  0
 20 19  1  0  0  0  0
 21 20  1  0  0  0  0
M  END
>  <minimizedAffinity>
-4.50399017

$$$$

 OpenBabel03272505463D

 21 23  0  0  0  0  0  0  0  0999 V2000
   38.5300   25.2480   35.2470 C   0  0  0  0  0  0  0  0  0  0  0  0
   38.6420   26.5740   35.8080 C   0  0  0  0  0  0  0  0  0  0  0  0
   39.8440   25.9870   35.1530 C   0  0  0  0  0  0  0  0  0  0  0  0
   38.1280   27.3940   35.2240 H   0  0  0  0  0  0  0  0  0  0  0  0
   38.6000   26.8160   36.8860 H   0  0  0  0  0  0  0  0  0  0  0  0
   40.6610   25.5290   35.7090 H   0  0  0  0  0  0  0  0  0  0  0  0
   40.1150   26.3230   34.1340 H   0  0  0  0  0  0  0  0  0  0  0  0
   37.1420   23.4740   32.3170 C   0  0  0  0  0  0  0  0  0  0  0  0
   36.4730   24.4740   31.6080 C   0  0  0  0  0  0  0  0  0  0  0  0
   36.5000   25.7680   32.1410 C   0  0  0  0  0  0  0  0  0  0  0  0
   37.1650   25.9740   33.3020 N   0  0  0  0  0  0  0  0  0  0  0  0
   37.8120   24.9750   33.9760 C   0  0  0  0  0  0  0  0  0  0  0  0
   37.7970   23.7360   33.4830 N   0  0  0  0  0  0  0  0  0  0  0  0
   37.1200   22.4830   31.9050 H   0  0  0  0  0  0  0  0  0  0  0  0
   35.9530   24.2700   30.6850 H   0  0  0  0  0  0  0  0  0  0  0  0
   36.0000   26.5990   31.6450 H   0  0  0  0  0  0  0  0  0  0  0  0
   38.5010   23.9950   36.1090 C   0  0  0  0  0  3  0  0  0  0  0  0
   37.8250   24.1290   37.4110 C   0  0  0  0  0  2  0  0  0  0  0  0
   38.7120   23.4750   38.4630 C   0  0  0  0  0  2  0  0  0  0  0  0
   39.8490   22.8120   37.7300 C   0  0  0  0  0  2  0  0  0  0  0  0
   39.8920   23.4520   36.3590 C   0  0  0  0  0  2  0  0  0  0  0  0
  1  2  1  0  0  0  0
  1 17  1  0  0  0  0
  2  5  1  0  0  0  0
  3  1  1  0  0  0  0
  3  6  1  0  0  0  0
  3  2  1  0  0  0  0
  4  2  1  0  0  0  0
  7  3  1  0  0  0  0
  8 13  1  0  0  0  0
  9 10  1  0  0  0  0
  9  8  2  0  0  0  0
 10 11  2  0  0  0  0
 11 12  1  0  0  0  0
 12  1  1  0  0  0  0
 13 12  2  0  0  0  0
 14  8  1  0  0  0  0
 15  9  1  0  0  0  0
 16 10  1  0  0  0  0
 17 21  1  0  0  0  0
 17 18  1  0  0  0  0
 18 19  1  0  0  0  0
 20 19  1  0  0  0  0
 21 20  1  0  0  0  0
M  END
>  <minimizedAffinity>
-4.39754057

$$$$

 OpenBabel03272505463D

 21 23  0  0  0  0  0  0  0  0999 V2000
   38.9690   25.7430   34.8860 C   0  0  0  0  0  0  0  0  0  0  0  0
   40.0100   25.6560   33.8890 C   0  0  0  0  0  0  0  0  0  0  0  0
   40.0750   26.7710   34.8730 C   0  0  0  0  0  0  0  0  0  0  0  0
   40.7660   24.8310   34.0460 H   0  0  0  0  0  0  0  0  0  0  0  0
   39.8690   25.8170   32.8050 H   0  0  0  0  0  0  0  0  0  0  0  0
   39.7480   27.7850   34.6480 H   0  0  0  0  0  0  0  0  0  0  0  0
   40.7870   26.6970   35.7190 H   0  0  0  0  0  0  0  0  0  0  0  0
   39.6350   22.9080   37.1610 C   0  0  0  0  0  0  0  0  0  0  0  0
   38.7750   23.1350   38.2370 C   0  0  0  0  0  0  0  0  0  0  0  0
   37.9590   24.2710   38.1800 C   0  0  0  0  0  0  0  0  0  0  0  0
   38.0500   25.0760   37.0960 N   0  0  0  0  0  0  0  0  0  0  0  0
   38.9030   24.8300   36.0550 C   0  0  0  0  0  0  0  0  0  0  0  0
   39.6870   23.7520   36.0930 N   0  0  0  0  0  0  0  0  0  0  0  0
   40.2590   22.0350   37.2070 H   0  0  0  0  0  0  0  0  0  0  0  0
   38.7310   22.4680   39.0840 H   0  0  0  0  0  0  0  0  0  0  0  0
   37.2630   24.5130   38.9820 H   0  0  0  0  0  0  0  0  0  0  0  0
   37.5660   26.2340   34.5630 C   0  0  0  0  0  3  0  0  0  0  0  0
   37.1540   26.1120   33.1530 C   0  0  0  0  0  2  0  0  0  0  0  0
   36.4940   27.4240   32.7500 C   0  0  0  0  0  2  0  0  0  0  0  0
   36.3810   28.2630   33.9950 C   0  0  0  0  0  2  0  0  0  0  0  0
   37.3610   27.6730   34.9860 C   0  0  0  0  0  2  0  0  0  0  0  0
  1 12  1  0  0  0  0
  2  4  1  0  0  0  0
  2  3  1  0  0  0  0
  2  1  1  0  0  0  0
  3  1  1  0  0  0  0
  3  7  1  0  0  0  0
  5  2  1  0  0  0  0
  6  3  1  0  0  0  0
  8 14  1  0  0  0  0
  8  9  1  0  0  0  0
  9 15  1  0  0  0  0
 10  9  2  0  0  0  0
 10 16  1  0  0  0  0
 11 10  1  0  0  0  0
 12 13  1  0  0  0  0
 12 11  2  0  0  0  0
 13  8  2  0  0  0  0
 17  1  1  0  0  0  0
 17 21  1  0  0  0  0
 18 17  1  0  0  0  0
 19 18  1  0  0  0  0
 19 20  1  0  0  0  0
 20 21  1  0  0  0  0
M  END
>  <minimizedAffinity>
-4.39399624

$$$$

 OpenBabel03272505463D

 21 23  0  0  0  0  0  0  0  0999 V2000
   38.4790   26.3200   35.2470 C   0  0  0  0  0  0  0  0  0  0  0  0
   37.9480   27.6220   35.5730 C   0  0  0  0  0  0  0  0  0  0  0  0
   37.1270   26.7280   34.7100 C   0  0  0  0  0  0  0  0  0  0  0  0
   37.5730   27.7440   36.6330 H   0  0  0  0  0  0  0  0  0  0  0  0
   38.3610   28.5850   35.2220 H   0  0  0  0  0  0  0  0  0  0  0  0
   37.0820   26.8230   33.6270 H   0  0  0  0  0  0  0  0  0  0  0  0
   36.2680   26.1920   35.1600 H   0  0  0  0  0  0  0  0  0  0  0  0
   38.0620   24.3740   38.3620 C   0  0  0  0  0  0  0  0  0  0  0  0
   38.5760   23.1160   38.0410 C   0  0  0  0  0  0  0  0  0  0  0  0
   39.0720   22.9360   36.7430 C   0  0  0  0  0  0  0  0  0  0  0  0
   39.0230   23.9800   35.8830 N   0  0  0  0  0  0  0  0  0  0  0  0
   38.5120   25.2020   36.2250 C   0  0  0  0  0  0  0  0  0  0  0  0
   38.0370   25.3920   37.4560 N   0  0  0  0  0  0  0  0  0  0  0  0
   37.6840   24.5090   39.3570 H   0  0  0  0  0  0  0  0  0  0  0  0
   38.5980   22.3080   38.7540 H   0  0  0  0  0  0  0  0  0  0  0  0
   39.4890   21.9830   36.4200 H   0  0  0  0  0  0  0  0  0  0  0  0
   39.5950   26.1220   34.2330 C   0  0  0  0  0  3  0  0  0  0  0  0
   40.9100   26.6650   34.6150 C   0  0  0  0  0  2  0  0  0  0  0  0
   41.4700   27.4090   33.4090 C   0  0  0  0  0  2  0  0  0  0  0  0
   40.5300   27.1570   32.2590 C   0  0  0  0  0  2  0  0  0  0  0  0
   39.2310   26.6890   32.8770 C   0  0  0  0  0  2  0  0  0  0  0  0
  1  2  1  0  0  0  0
  1 12  1  0  0  0  0
  2  4  1  0  0  0  0
  3  7  1  0  0  0  0
  3  1  1  0  0  0  0
  3  2  1  0  0  0  0
  5  2  1  0  0  0  0
  6  3  1  0  0  0  0
  8 14  1  0  0  0  0
  9  8  1  0  0  0  0
  9 15  1  0  0  0  0
 10  9  2  0  0  0  0
 11 12  2  0  0  0  0
 11 10  1  0  0  0  0
 12 13  1  0  0  0  0
 13  8  2  0  0  0  0
 16 10  1  0  0  0  0
 17 18  1  0  0  0  0
 17  1  1  0  0  0  0
 19 18  1  0  0  0  0
 20 21  1  0  0  0  0
 20 19  1  0  0  0  0
 21 17  1  0  0  0  0
M  END
>  <minimizedAffinity>
-4.26454639

$$$$

 OpenBabel03272505463D

 21 23  0  0  0  0  0  0  0  0999 V2000
   38.5730   22.9600   36.4680 C   0  0  0  0  0  0  0  0  0  0  0  0
   38.3090   23.4260   37.8090 C   0  0  0  0  0  0  0  0  0  0  0  0
   38.2580   24.4190   36.7000 C   0  0  0  0  0  0  0  0  0  0  0  0
   37.3050   23.1320   38.2370 H   0  0  0  0  0  0  0  0  0  0  0  0
   39.0520   23.4720   38.6250 H   0  0  0  0  0  0  0  0  0  0  0  0
   39.0770   25.0990   36.4710 H   0  0  0  0  0  0  0  0  0  0  0  0
   37.2710   24.7460   36.3200 H   0  0  0  0  0  0  0  0  0  0  0  0
   36.8300   21.3400   33.6390 C   0  0  0  0  0  0  0  0  0  0  0  0
   35.7500   20.6920   34.2400 C   0  0  0  0  0  0  0  0  0  0  0  0
   35.6180   20.8150   35.6290 C   0  0  0  0  0  0  0  0  0  0  0  0
   36.5370   21.5450   36.3030 N   0  0  0  0  0  0  0  0  0  0  0  0
   37.5880   22.1680   35.6870 C   0  0  0  0  0  0  0  0  0  0  0  0
   37.7280   22.0640   34.3660 N   0  0  0  0  0  0  0  0  0  0  0  0
   36.9280   21.2460   32.5740 H   0  0  0  0  0  0  0  0  0  0  0  0
   35.0370   20.1190   33.6690 H   0  0  0  0  0  0  0  0  0  0  0  0
   34.8000   20.3370   36.1680 H   0  0  0  0  0  0  0  0  0  0  0  0
   39.9740   22.6240   35.9800 C   0  0  0  0  0  3  0  0  0  0  0  0
   40.8500   21.9570   36.9590 C   0  0  0  0  0  2  0  0  0  0  0  0
   42.2090   22.6420   36.9050 C   0  0  0  0  0  2  0  0  0  0  0  0
   42.1650   23.6210   35.7620 C   0  0  0  0  0  2  0  0  0  0  0  0
   40.6990   23.8480   35.4630 C   0  0  0  0  0  2  0  0  0  0  0  0
  1  3  1  0  0  0  0
  1  2  1  0  0  0  0
  2  4  1  0  0  0  0
  2  5  1  0  0  0  0
  3  2  1  0  0  0  0
  6  3  1  0  0  0  0
  7  3  1  0  0  0  0
  8  9  2  0  0  0  0
  8 13  1  0  0  0  0
  9 10  1  0  0  0  0
 10 16  1  0  0  0  0
 10 11  2  0  0  0  0
 12 11  1  0  0  0  0
 12  1  1  0  0  0  0
 13 12  2  0  0  0  0
 14  8  1  0  0  0  0
 15  9  1  0  0  0  0
 17  1  1  0  0  0  0
 17 18  1  0  0  0  0
 19 18  1  0  0  0  0
 20 19  1  0  0  0  0
 21 20  1  0  0  0  0
 21 17  1  0  0  0  0
M  END
>  <minimizedAffinity>
-4.25442219

$$$$

 OpenBabel03272505463D

 21 23  0  0  0  0  0  0  0  0999 V2000
   38.8150   23.7570   36.5750 C   0  0  0  0  0  0  0  0  0  0  0  0
   38.2830   23.7810   37.9170 C   0  0  0  0  0  0  0  0  0  0  0  0
   37.5570   22.9820   36.8920 C   0  0  0  0  0  0  0  0  0  0  0  0
   38.8580   23.1770   38.6790 H   0  0  0  0  0  0  0  0  0  0  0  0
   37.8440   24.6660   38.4130 H   0  0  0  0  0  0  0  0  0  0  0  0
   36.6660   23.3390   36.3790 H   0  0  0  0  0  0  0  0  0  0  0  0
   37.6780   21.8810   36.8880 H   0  0  0  0  0  0  0  0  0  0  0  0
   42.1220   22.1170   36.7640 C   0  0  0  0  0  0  0  0  0  0  0  0
   42.2650   21.5100   35.5140 C   0  0  0  0  0  0  0  0  0  0  0  0
   41.2170   21.6670   34.5990 C   0  0  0  0  0  0  0  0  0  0  0  0
   40.1360   22.3890   34.9740 N   0  0  0  0  0  0  0  0  0  0  0  0
   40.0210   22.9730   36.2070 C   0  0  0  0  0  0  0  0  0  0  0  0
   41.0100   22.8350   37.0900 N   0  0  0  0  0  0  0  0  0  0  0  0
   42.9280   21.9960   37.4630 H   0  0  0  0  0  0  0  0  0  0  0  0
   43.1430   20.9420   35.2520 H   0  0  0  0  0  0  0  0  0  0  0  0
   41.2570   21.2220   33.6060 H   0  0  0  0  0  0  0  0  0  0  0  0
   38.6810   24.9330   35.6200 C   0  0  0  0  0  3  0  0  0  0  0  0
   39.9140   25.3340   34.9210 C   0  0  0  0  0  2  0  0  0  0  0  0
   40.0150   26.8520   34.9960 C   0  0  0  0  0  2  0  0  0  0  0  0
   38.7350   27.3500   35.6140 C   0  0  0  0  0  2  0  0  0  0  0  0
   38.1160   26.1570   36.3100 C   0  0  0  0  0  2  0  0  0  0  0  0
  1  3  1  0  0  0  0
  1  2  1  0  0  0  0
  2  5  1  0  0  0  0
  2  4  1  0  0  0  0
  3  2  1  0  0  0  0
  6  3  1  0  0  0  0
  7  3  1  0  0  0  0
  8 13  1  0  0  0  0
  8 14  1  0  0  0  0
  9  8  2  0  0  0  0
 10 11  2  0  0  0  0
 10  9  1  0  0  0  0
 11 12  1  0  0  0  0
 12  1  1  0  0  0  0
 12 13  2  0  0  0  0
 15  9  1  0  0  0  0
 16 10  1  0  0  0  0
 17 21  1  0  0  0  0
 17  1  1  0  0  0  0
 18 19  1  0  0  0  0
 18 17  1  0  0  0  0
 19 20  1  0  0  0  0
 20 21  1  0  0  0  0
M  END
>  <minimizedAffinity>
-4.15414667

$$$$

 OpenBabel03272505463D

 21 23  0  0  0  0  0  0  0  0999 V2000
   38.4810   26.2500   35.2380 C   0  0  0  0  0  0  0  0  0  0  0  0
   38.0860   27.6000   35.5640 C   0  0  0  0  0  0  0  0  0  0  0  0
   37.3020   26.8730   34.5280 C   0  0  0  0  0  0  0  0  0  0  0  0
   37.5650   27.7270   36.5600 H   0  0  0  0  0  0  0  0  0  0  0  0
   38.6770   28.5080   35.3460 H   0  0  0  0  0  0  0  0  0  0  0  0
   37.4460   27.0210   33.4590 H   0  0  0  0  0  0  0  0  0  0  0  0
   36.3170   26.4470   34.8030 H   0  0  0  0  0  0  0  0  0  0  0  0
   37.9340   24.2280   38.2830 C   0  0  0  0  0  0  0  0  0  0  0  0
   37.6870   22.9450   37.7910 C   0  0  0  0  0  0  0  0  0  0  0  0
   37.7110   22.7730   36.4010 C   0  0  0  0  0  0  0  0  0  0  0  0
   37.9670   23.8500   35.6230 N   0  0  0  0  0  0  0  0  0  0  0  0
   38.2040   25.0970   36.1320 C   0  0  0  0  0  0  0  0  0  0  0  0
   38.1870   25.2790   37.4530 N   0  0  0  0  0  0  0  0  0  0  0  0
   37.9170   24.3570   39.3490 H   0  0  0  0  0  0  0  0  0  0  0  0
   37.4870   22.1110   38.4450 H   0  0  0  0  0  0  0  0  0  0  0  0
   37.5270   21.8010   35.9450 H   0  0  0  0  0  0  0  0  0  0  0  0
   39.7090   25.9390   34.3970 C   0  0  0  0  0  3  0  0  0  0  0  0
   40.7310   25.0970   35.0430 C   0  0  0  0  0  2  0  0  0  0  0  0
   42.0900   25.7290   34.7710 C   0  0  0  0  0  2  0  0  0  0  0  0
   41.8630   26.8720   33.8180 C   0  0  0  0  0  2  0  0  0  0  0  0
   40.3880   27.1990   33.9020 C   0  0  0  0  0  2  0  0  0  0  0  0
  1  2  1  0  0  0  0
  1 12  1  0  0  0  0
  2  4  1  0  0  0  0
  3  7  1  0  0  0  0
  3  1  1  0  0  0  0
  3  2  1  0  0  0  0
  5  2  1  0  0  0  0
  6  3  1  0  0  0  0
  8 14  1  0  0  0  0
  9  8  1  0  0  0  0
  9 15  1  0  0  0  0
 10  9  2  0  0  0  0
 11 12  2  0  0  0  0
 11 10  1  0  0  0  0
 12 13  1  0  0  0  0
 13  8  2  0  0  0  0
 16 10  1  0  0  0  0
 17 18  1  0  0  0  0
 17  1  1  0  0  0  0
 19 18  1  0  0  0  0
 20 21  1  0  0  0  0
 20 19  1  0  0  0  0
 21 17  1  0  0  0  0
M  END
>  <minimizedAffinity>
-4.10129929

$$$$

 OpenBabel03272505463D

 21 23  0  0  0  0  0  0  0  0999 V2000
   38.9600   25.9110   34.9100 C   0  0  0  0  0  0  0  0  0  0  0  0
   38.8530   27.2280   35.4920 C   0  0  0  0  0  0  0  0  0  0  0  0
   40.1730   26.8110   34.9430 C   0  0  0  0  0  0  0  0  0  0  0  0
   38.2940   27.9900   34.8710 H   0  0  0  0  0  0  0  0  0  0  0  0
   38.6850   27.4400   36.5630 H   0  0  0  0  0  0  0  0  0  0  0  0
   40.9890   26.4460   35.5660 H   0  0  0  0  0  0  0  0  0  0  0  0
   40.4900   27.2000   33.9560 H   0  0  0  0  0  0  0  0  0  0  0  0
   36.5680   25.4350   32.1330 C   0  0  0  0  0  0  0  0  0  0  0  0
   37.3610   24.9550   31.0880 C   0  0  0  0  0  0  0  0  0  0  0  0
   38.7290   24.7930   31.3410 C   0  0  0  0  0  0  0  0  0  0  0  0
   39.1990   25.1080   32.5700 N   0  0  0  0  0  0  0  0  0  0  0  0
   38.3990   25.5780   33.5750 C   0  0  0  0  0  0  0  0  0  0  0  0
   37.0940   25.7380   33.3530 N   0  0  0  0  0  0  0  0  0  0  0  0
   35.5200   25.5580   31.9360 H   0  0  0  0  0  0  0  0  0  0  0  0
   36.9480   24.7140   30.1210 H   0  0  0  0  0  0  0  0  0  0  0  0
   39.4090   24.4240   30.5750 H   0  0  0  0  0  0  0  0  0  0  0  0
   39.0140   24.6470   35.7520 C   0  0  0  0  0  3  0  0  0  0  0  0
   38.8510   23.3800   35.0170 C   0  0  0  0  0  2  0  0  0  0  0  0
   37.8710   22.5150   35.7980 C   0  0  0  0  0  2  0  0  0  0  0  0
   37.5820   23.2310   37.0910 C   0  0  0  0  0  2  0  0  0  0  0  0
   37.9930   24.6710   36.8710 C   0  0  0  0  0  2  0  0  0  0  0  0
  1  3  1  0  0  0  0
  1  2  1  0  0  0  0
  1 17  1  0  0  0  0
  2  5  1  0  0  0  0
  3  2  1  0  0  0  0
  3  6  1  0  0  0  0
  4  2  1  0  0  0  0
  7  3  1  0  0  0  0
  8 13  1  0  0  0  0
  9 10  1  0  0  0  0
  9  8  2  0  0  0  0
 10 11  2  0  0  0  0
 11 12  1  0  0  0  0
 12  1  1  0  0  0  0
 13 12  2  0  0  0  0
 14  8  1  0  0  0  0
 15  9  1  0  0  0  0
 16 10  1  0  0  0  0
 17 21  1  0  0  0  0
 18 17  1  0  0  0  0
 18 19  1  0  0  0  0
 19 20  1  0  0  0  0
 21 20  1  0  0  0  0
M  END
>  <minimizedAffinity>
-4.06068516

$$$$

 OpenBabel03272505463D

 21 23  0  0  0  0  0  0  0  0999 V2000
   38.8540   25.9330   34.9620 C   0  0  0  0  0  0  0  0  0  0  0  0
   39.7480   26.9990   34.5760 C   0  0  0  0  0  0  0  0  0  0  0  0
   38.8130   27.2460   35.7080 C   0  0  0  0  0  0  0  0  0  0  0  0
   40.8310   26.8560   34.8700 H   0  0  0  0  0  0  0  0  0  0  0  0
   39.7020   27.5560   33.6230 H   0  0  0  0  0  0  0  0  0  0  0  0
   37.8800   27.7970   35.6000 H   0  0  0  0  0  0  0  0  0  0  0  0
   39.2030   27.2040   36.7440 H   0  0  0  0  0  0  0  0  0  0  0  0
   38.9430   23.1270   37.3660 C   0  0  0  0  0  0  0  0  0  0  0  0
   40.1720   22.5120   37.1160 C   0  0  0  0  0  0  0  0  0  0  0  0
   40.9770   23.0680   36.1140 C   0  0  0  0  0  0  0  0  0  0  0  0
   40.5220   24.1570   35.4510 N   0  0  0  0  0  0  0  0  0  0  0  0
   39.3120   24.7380   35.7160 C   0  0  0  0  0  0  0  0  0  0  0  0
   38.5330   24.2230   36.6680 N   0  0  0  0  0  0  0  0  0  0  0  0
   38.3290   22.6990   38.1360 H   0  0  0  0  0  0  0  0  0  0  0  0
   40.5000   21.6450   37.6670 H   0  0  0  0  0  0  0  0  0  0  0  0
   41.9480   22.6430   35.8630 H   0  0  0  0  0  0  0  0  0  0  0  0
   37.6250   25.5610   34.1480 C   0  0  0  0  0  3  0  0  0  0  0  0
   37.7710   24.3890   33.2680 C   0  0  0  0  0  2  0  0  0  0  0  0
   37.1760   24.7500   31.9130 C   0  0  0  0  0  2  0  0  0  0  0  0
   36.5330   26.1040   32.0600 C   0  0  0  0  0  2  0  0  0  0  0  0
   37.1370   26.7200   33.3040 C   0  0  0  0  0  2  0  0  0  0  0  0
  1  3  1  0  0  0  0
  1 12  1  0  0  0  0
  2  4  1  0  0  0  0
  2  1  1  0  0  0  0
  2  3  1  0  0  0  0
  3  7  1  0  0  0  0
  5  2  1  0  0  0  0
  6  3  1  0  0  0  0
  8 14  1  0  0  0  0
  9  8  1  0  0  0  0
  9 15  1  0  0  0  0
 10  9  2  0  0  0  0
 11 12  2  0  0  0  0
 11 10  1  0  0  0  0
 12 13  1  0  0  0  0
 13  8  2  0  0  0  0
 16 10  1  0  0  0  0
 17  1  1  0  0  0  0
 18 17  1  0  0  0  0
 19 20  1  0  0  0  0
 19 18  1  0  0  0  0
 20 21  1  0  0  0  0
 21 17  1  0  0  0  0
M  END
>  <minimizedAffinity>
-4.04202175

$$$$
