
 OpenBabel03272507343D

 32 35  0  0  1  0  0  0  0  0999 V2000
   35.8750   29.1970   49.7940 C   0  0  0  0  0  0  0  0  0  0  0  0
   34.8210   29.6110   50.5750 C   0  0  0  0  0  0  0  0  0  0  0  0
   33.6570   29.0450   50.0400 C   0  0  0  0  0  0  0  0  0  0  0  0
   34.0820   28.3120   48.9550 C   0  0  0  0  0  0  0  0  0  0  0  0
   35.3880   28.4300   48.8470 O   0  0  0  0  0  0  0  0  0  0  0  0
   34.8500   30.2620   51.4580 H   0  0  0  0  0  0  0  0  0  0  0  0
   32.6390   29.1540   50.3970 H   0  0  0  0  0  0  0  0  0  0  0  0
   37.2490   29.5990   50.0630 C   0  0  0  0  0  0  0  0  0  0  0  0
   37.8650   29.0600   50.9880 O   0  0  0  0  0  0  0  0  0  0  0  0
   37.8050   30.6140   49.2140 C   0  0  0  0  0  0  0  0  0  0  0  0
   38.1450   31.8180   49.8100 C   0  0  0  0  0  0  0  0  0  0  0  0
   38.6870   32.8300   49.0120 C   0  0  0  0  0  0  0  0  0  0  0  0
   38.8570   32.5770   47.6700 N   0  0  0  0  0  0  0  0  0  0  0  0
   38.5170   31.4000   47.1300 C   0  0  0  0  0  0  0  0  0  0  0  0
   37.9960   30.4250   47.8880 N   0  0  0  0  0  0  0  0  0  0  0  0
   38.0220   32.0490   50.8710 H   0  0  0  0  0  0  0  0  0  0  0  0
   38.9590   33.7720   49.4500 H   0  0  0  0  0  0  0  0  0  0  0  0
   38.6620   31.2270   46.0650 H   0  0  0  0  0  0  0  0  0  0  0  0
   33.2290   27.5260   48.0640 C   0  0  0  0  0  0  0  0  0  0  0  0
   31.9650   27.5850   48.2260 O   0  0  0  0  0  0  0  0  0  0  0  0
   33.8410   26.6690   46.9930 C   0  0  1  0  0  0  0  0  0  0  0  0
   33.7180   25.1510   47.3870 C   0  0  0  0  0  0  0  0  0  0  0  0
   33.0180   25.7390   46.2180 C   0  0  2  0  0  0  0  0  0  0  0  0
   34.9260   26.8640   46.8660 H   0  0  0  0  0  0  0  0  0  0  0  0
   33.0780   24.9060   48.2470 H   0  0  0  0  0  0  0  0  0  0  0  0
   34.5850   24.5110   47.2740 H   0  0  0  0  0  0  0  0  0  0  0  0
   31.9270   25.8560   46.2600 H   0  0  0  0  0  0  0  0  0  0  0  0
   33.5510   25.4420   44.8160 C   0  0  0  0  0  3  0  0  0  0  0  0
   34.8950   24.7520   44.8770 C   0  0  0  0  0  2  0  0  0  0  0  0
   35.4090   25.0560   43.4630 C   0  0  0  0  0  2  0  0  0  0  0  0
   35.2350   26.5800   43.4760 C   0  0  0  0  0  2  0  0  0  0  0  0
   33.8570   26.7300   44.0870 C   0  0  0  0  0  2  0  0  0  0  0  0
  1  8  1  0  0  0  0
  1  2  2  0  0  0  0
  2  6  1  0  0  0  0
  3  7  1  0  0  0  0
  3  2  1  0  0  0  0
  4  3  2  0  0  0  0
  5  4  1  0  0  0  0
  5  1  1  0  0  0  0
  8  9  2  0  0  0  0
 10 11  1  0  0  0  0
 10  8  1  0  0  0  0
 11 16  1  0  0  0  0
 12 17  1  0  0  0  0
 12 11  2  0  0  0  0
 13 12  1  0  0  0  0
 14 13  2  0  0  0  0
 14 15  1  0  0  0  0
 15 10  2  0  0  0  0
 18 14  1  0  0  0  0
 19 20  2  0  0  0  0
 19  4  1  0  0  0  0
 21 24  1  6  0  0  0
 21 22  1  0  0  0  0
 21 19  1  0  0  0  0
 22 25  1  0  0  0  0
 23 27  1  1  0  0  0
 23 21  1  0  0  0  0
 23 22  1  0  0  0  0
 26 22  1  0  0  0  0
 28 29  1  0  0  0  0
 28 23  1  0  0  0  0
 30 31  1  0  0  0  0
 30 29  1  0  0  0  0
 31 32  1  0  0  0  0
 32 28  1  0  0  0  0
M  END
>  <minimizedAffinity>
-5.15837288

>  <minimizedRMSD>
1.40320039

$$$$
