
 OpenBabel03272507003D

 31 34  0  0  0  0  0  0  0  0999 V2000
   37.7900   25.0630   33.7250 C   0  0  0  0  0  0  0  0  0  0  0  0
   37.9070   24.4010   32.5070 C   0  0  0  0  0  0  0  0  0  0  0  0
   37.5960   24.9270   31.2670 C   0  0  0  0  0  0  0  0  0  0  0  0
   37.1390   26.1980   31.2760 N   0  0  0  0  0  0  0  0  0  0  0  0
   37.0130   26.8710   32.4400 C   0  0  0  0  0  0  0  0  0  0  0  0
   37.3290   26.3180   33.6310 N   0  0  0  0  0  0  0  0  0  0  0  0
   38.2760   23.3770   32.5070 H   0  0  0  0  0  0  0  0  0  0  0  0
   37.7070   24.3710   30.3670 H   0  0  0  0  0  0  0  0  0  0  0  0
   38.1170   24.4770   37.2790 C   0  0  0  0  0  0  0  0  0  0  0  0
   38.7850   23.2500   37.3950 C   0  0  0  0  0  0  0  0  0  0  0  0
   39.1160   22.6330   36.1940 C   0  0  0  0  0  0  0  0  0  0  0  0
   38.7900   23.2240   35.0250 N   0  0  0  0  0  0  0  0  0  0  0  0
   38.1550   24.3910   34.9680 C   0  0  0  0  0  0  0  0  0  0  0  0
   37.7830   25.0820   36.1030 N   0  0  0  0  0  0  0  0  0  0  0  0
   37.8370   24.9960   38.1870 H   0  0  0  0  0  0  0  0  0  0  0  0
   39.6350   21.6790   36.2330 H   0  0  0  0  0  0  0  0  0  0  0  0
   39.0880   22.7050   38.6570 N   0  0  0  0  0  0  0  0  0  0  0  0
   40.0870   22.5720   38.9250 H   0  0  0  0  0  0  0  0  0  0  0  0
   38.3740   22.4150   39.3630 H   0  0  0  0  0  0  0  0  0  0  0  0
   36.5340   28.2430   32.5760 C   0  0  0  0  0  0  0  0  0  0  0  0
   36.7620   29.0950   31.5070 C   0  0  0  0  0  0  0  0  0  0  0  0
   36.2490   30.3320   31.8020 N   0  0  0  0  0  0  0  0  0  0  0  0
   35.7180   30.2210   33.0370 C   0  0  0  0  0  0  0  0  0  0  0  0
   35.8770   28.9520   33.5370 N   0  0  0  0  0  0  0  0  0  0  0  0
   37.2400   28.9610   30.5490 H   0  0  0  0  0  0  0  0  0  0  0  0
   36.2520   31.1970   31.2170 H   0  0  0  0  0  0  0  0  0  0  0  0
   35.0300   31.3160   33.8100 C   0  0  0  0  0  3  0  0  0  0  0  0
   34.7460   30.9030   35.2150 C   0  0  0  0  0  2  0  0  0  0  0  0
   35.8440   31.5510   36.0060 C   0  0  0  0  0  2  0  0  0  0  0  0
   36.3830   32.7090   35.2150 C   0  0  0  0  0  2  0  0  0  0  0  0
   35.8640   32.5590   33.8230 C   0  0  0  0  0  2  0  0  0  0  0  0
  1 13  1  0  0  0  0
  2  7  1  0  0  0  0
  2  1  2  0  0  0  0
  3  4  2  0  0  0  0
  3  2  1  0  0  0  0
  4  5  1  0  0  0  0
  5 20  1  0  0  0  0
  5  6  2  0  0  0  0
  6  1  1  0  0  0  0
  8  3  1  0  0  0  0
  9 10  1  0  0  0  0
  9 15  1  0  0  0  0
 10 17  1  0  0  0  0
 11 16  1  0  0  0  0
 11 10  2  0  0  0  0
 12 11  1  0  0  0  0
 13 12  2  0  0  0  0
 13 14  1  0  0  0  0
 14  9  2  0  0  0  0
 17 18  1  0  0  0  0
 17 19  1  0  0  0  0
 20 24  1  0  0  0  0
 21 22  1  0  0  0  0
 21 20  2  0  0  0  0
 22 23  1  0  0  0  0
 23 24  2  0  0  0  0
 23 27  1  0  0  0  0
 25 21  1  0  0  0  0
 26 22  1  0  0  0  0
 27 31  1  0  0  0  0
 27 28  1  0  0  0  0
 28 29  1  0  0  0  0
 30 29  1  0  0  0  0
 31 30  1  0  0  0  0
M  END
>  <minimizedAffinity>
-6.0930934

$$$$

 OpenBabel03272507003D

 31 34  0  0  0  0  0  0  0  0999 V2000
   35.5070   29.4430   32.9270 C   0  0  0  0  0  0  0  0  0  0  0  0
   36.0070   30.1980   31.8700 C   0  0  0  0  0  0  0  0  0  0  0  0
   36.5370   29.6950   30.6970 C   0  0  0  0  0  0  0  0  0  0  0  0
   36.5590   28.3480   30.6020 N   0  0  0  0  0  0  0  0  0  0  0  0
   36.0830   27.5840   31.6090 C   0  0  0  0  0  0  0  0  0  0  0  0
   35.5720   28.1170   32.7390 N   0  0  0  0  0  0  0  0  0  0  0  0
   35.9860   31.2830   31.9530 H   0  0  0  0  0  0  0  0  0  0  0  0
   36.9040   30.3240   29.9210 H   0  0  0  0  0  0  0  0  0  0  0  0
   35.4330   31.4520   35.9330 C   0  0  0  0  0  0  0  0  0  0  0  0
   34.1080   31.3930   36.3890 C   0  0  0  0  0  0  0  0  0  0  0  0
   33.2410   30.6320   35.6120 C   0  0  0  0  0  0  0  0  0  0  0  0
   33.7020   30.0130   34.5040 N   0  0  0  0  0  0  0  0  0  0  0  0
   34.9710   30.1000   34.1140 C   0  0  0  0  0  0  0  0  0  0  0  0
   35.9080   30.8310   34.8160 N   0  0  0  0  0  0  0  0  0  0  0  0
   36.1440   32.0340   36.5040 H   0  0  0  0  0  0  0  0  0  0  0  0
   32.2040   30.5560   35.9250 H   0  0  0  0  0  0  0  0  0  0  0  0
   33.7110   32.0690   37.5580 N   0  0  0  0  0  0  0  0  0  0  0  0
   33.3650   31.5150   38.3710 H   0  0  0  0  0  0  0  0  0  0  0  0
   33.7360   33.1070   37.6780 H   0  0  0  0  0  0  0  0  0  0  0  0
   36.0530   26.1250   31.6210 C   0  0  0  0  0  0  0  0  0  0  0  0
   35.0650   25.5130   30.8650 C   0  0  0  0  0  0  0  0  0  0  0  0
   35.1850   24.1520   30.9900 N   0  0  0  0  0  0  0  0  0  0  0  0
   36.2350   23.9520   31.8130 C   0  0  0  0  0  0  0  0  0  0  0  0
   36.7870   25.1430   32.2160 N   0  0  0  0  0  0  0  0  0  0  0  0
   34.2750   25.8960   30.2400 H   0  0  0  0  0  0  0  0  0  0  0  0
   34.6040   23.4030   30.5530 H   0  0  0  0  0  0  0  0  0  0  0  0
   36.7700   22.6170   32.2610 C   0  0  0  0  0  3  0  0  0  0  0  0
   35.6740   21.7000   32.6900 C   0  0  0  0  0  2  0  0  0  0  0  0
   35.4780   20.8000   31.5060 C   0  0  0  0  0  2  0  0  0  0  0  0
   36.7340   20.8140   30.6830 C   0  0  0  0  0  2  0  0  0  0  0  0
   37.5530   21.9660   31.1650 C   0  0  0  0  0  2  0  0  0  0  0  0
  1 13  1  0  0  0  0
  2  7  1  0  0  0  0
  2  1  2  0  0  0  0
  3  2  1  0  0  0  0
  4  3  2  0  0  0  0
  4  5  1  0  0  0  0
  5 20  1  0  0  0  0
  5  6  2  0  0  0  0
  6  1  1  0  0  0  0
  8  3  1  0  0  0  0
  9 10  1  0  0  0  0
  9 15  1  0  0  0  0
 10 17  1  0  0  0  0
 11 16  1  0  0  0  0
 11 10  2  0  0  0  0
 12 11  1  0  0  0  0
 13 12  2  0  0  0  0
 13 14  1  0  0  0  0
 14  9  2  0  0  0  0
 17 19  1  0  0  0  0
 17 18  1  0  0  0  0
 20 24  1  0  0  0  0
 21 22  1  0  0  0  0
 21 20  2  0  0  0  0
 22 23  1  0  0  0  0
 23 24  2  0  0  0  0
 23 27  1  0  0  0  0
 25 21  1  0  0  0  0
 26 22  1  0  0  0  0
 27 28  1  0  0  0  0
 29 28  1  0  0  0  0
 30 31  1  0  0  0  0
 30 29  1  0  0  0  0
 31 27  1  0  0  0  0
M  END
>  <minimizedAffinity>
-5.68281937

$$$$

 OpenBabel03272507003D

 31 34  0  0  0  0  0  0  0  0999 V2000
   35.9730   29.1710   34.0070 C   0  0  0  0  0  0  0  0  0  0  0  0
   36.0910   29.4100   32.6420 C   0  0  0  0  0  0  0  0  0  0  0  0
   36.7650   28.6110   31.7370 C   0  0  0  0  0  0  0  0  0  0  0  0
   37.3500   27.5120   32.2590 N   0  0  0  0  0  0  0  0  0  0  0  0
   37.2560   27.2490   33.5800 C   0  0  0  0  0  0  0  0  0  0  0  0
   36.5860   28.0570   34.4300 N   0  0  0  0  0  0  0  0  0  0  0  0
   35.6180   30.2980   32.2280 H   0  0  0  0  0  0  0  0  0  0  0  0
   36.8210   28.8450   30.7000 H   0  0  0  0  0  0  0  0  0  0  0  0
   35.3610   31.8120   36.4010 C   0  0  0  0  0  0  0  0  0  0  0  0
   33.9660   31.8980   36.5150 C   0  0  0  0  0  0  0  0  0  0  0  0
   33.2460   31.0060   35.7280 C   0  0  0  0  0  0  0  0  0  0  0  0
   33.9010   30.1380   34.9280 N   0  0  0  0  0  0  0  0  0  0  0  0
   35.2290   30.0970   34.8560 C   0  0  0  0  0  0  0  0  0  0  0  0
   36.0330   30.9400   35.5970 N   0  0  0  0  0  0  0  0  0  0  0  0
   35.9650   32.4870   36.9940 H   0  0  0  0  0  0  0  0  0  0  0  0
   32.1620   31.0330   35.7820 H   0  0  0  0  0  0  0  0  0  0  0  0
   33.3640   32.8330   37.3770 N   0  0  0  0  0  0  0  0  0  0  0  0
   32.7910   32.4880   38.1780 H   0  0  0  0  0  0  0  0  0  0  0  0
   33.4470   33.8700   37.2760 H   0  0  0  0  0  0  0  0  0  0  0  0
   37.8420   26.0960   34.2570 C   0  0  0  0  0  0  0  0  0  0  0  0
   39.2080   25.9130   34.1140 C   0  0  0  0  0  0  0  0  0  0  0  0
   39.5860   24.7940   34.8110 N   0  0  0  0  0  0  0  0  0  0  0  0
   38.4550   24.3110   35.3650 C   0  0  0  0  0  0  0  0  0  0  0  0
   37.3690   25.0880   35.0430 N   0  0  0  0  0  0  0  0  0  0  0  0
   39.9720   26.4630   33.5870 H   0  0  0  0  0  0  0  0  0  0  0  0
   40.5370   24.3770   34.9110 H   0  0  0  0  0  0  0  0  0  0  0  0
   38.3450   23.0840   36.2320 C   0  0  0  0  0  3  0  0  0  0  0  0
   39.6680   22.4190   36.4160 C   0  0  0  0  0  2  0  0  0  0  0  0
   40.1110   22.8780   37.7740 C   0  0  0  0  0  2  0  0  0  0  0  0
   38.9000   23.3030   38.5520 C   0  0  0  0  0  2  0  0  0  0  0  0
   37.7800   23.4320   37.5730 C   0  0  0  0  0  2  0  0  0  0  0  0
  1  6  1  0  0  0  0
  1 13  1  0  0  0  0
  2  1  2  0  0  0  0
  3  4  2  0  0  0  0
  3  2  1  0  0  0  0
  4  5  1  0  0  0  0
  5 20  1  0  0  0  0
  5  6  2  0  0  0  0
  7  2  1  0  0  0  0
  8  3  1  0  0  0  0
  9 10  1  0  0  0  0
  9 15  1  0  0  0  0
 10 17  1  0  0  0  0
 11 16  1  0  0  0  0
 11 10  2  0  0  0  0
 12 11  1  0  0  0  0
 13 12  2  0  0  0  0
 13 14  1  0  0  0  0
 14  9  2  0  0  0  0
 17 18  1  0  0  0  0
 19 17  1  0  0  0  0
 20 24  1  0  0  0  0
 21 20  2  0  0  0  0
 21 22  1  0  0  0  0
 22 26  1  0  0  0  0
 22 23  1  0  0  0  0
 23 27  1  0  0  0  0
 24 23  2  0  0  0  0
 25 21  1  0  0  0  0
 27 28  1  0  0  0  0
 27 31  1  0  0  0  0
 28 29  1  0  0  0  0
 29 30  1  0  0  0  0
 31 30  1  0  0  0  0
M  END
>  <minimizedAffinity>
-5.67868567

$$$$

 OpenBabel03272507003D

 31 34  0  0  0  0  0  0  0  0999 V2000
   37.2830   26.5320   33.9080 C   0  0  0  0  0  0  0  0  0  0  0  0
   37.4040   26.6000   32.5240 C   0  0  0  0  0  0  0  0  0  0  0  0
   36.9570   27.6330   31.7230 C   0  0  0  0  0  0  0  0  0  0  0  0
   36.3510   28.6490   32.3740 N   0  0  0  0  0  0  0  0  0  0  0  0
   36.2150   28.6160   33.7170 C   0  0  0  0  0  0  0  0  0  0  0  0
   36.6680   27.5860   34.4630 N   0  0  0  0  0  0  0  0  0  0  0  0
   37.8930   25.7770   32.0060 H   0  0  0  0  0  0  0  0  0  0  0  0
   37.0790   27.6300   30.6660 H   0  0  0  0  0  0  0  0  0  0  0  0
   38.2900   24.4850   36.7150 C   0  0  0  0  0  0  0  0  0  0  0  0
   38.7630   23.2900   36.1560 C   0  0  0  0  0  0  0  0  0  0  0  0
   38.7170   23.2200   34.7680 C   0  0  0  0  0  0  0  0  0  0  0  0
   38.2390   24.2650   34.0590 N   0  0  0  0  0  0  0  0  0  0  0  0
   37.8020   25.3800   34.6390 C   0  0  0  0  0  0  0  0  0  0  0  0
   37.8060   25.5470   36.0100 N   0  0  0  0  0  0  0  0  0  0  0  0
   38.3050   24.5870   37.7930 H   0  0  0  0  0  0  0  0  0  0  0  0
   39.0730   22.3130   34.2870 H   0  0  0  0  0  0  0  0  0  0  0  0
   39.2460   22.2490   36.9690 N   0  0  0  0  0  0  0  0  0  0  0  0
   40.2460   21.9620   36.8860 H   0  0  0  0  0  0  0  0  0  0  0  0
   38.6690   21.7260   37.6670 H   0  0  0  0  0  0  0  0  0  0  0  0
   35.5830   29.6520   34.5290 C   0  0  0  0  0  0  0  0  0  0  0  0
   34.1990   29.7150   34.4970 C   0  0  0  0  0  0  0  0  0  0  0  0
   33.7780   30.7360   35.3110 N   0  0  0  0  0  0  0  0  0  0  0  0
   34.9000   31.2790   35.8250 C   0  0  0  0  0  0  0  0  0  0  0  0
   36.0230   30.6350   35.3640 N   0  0  0  0  0  0  0  0  0  0  0  0
   33.4490   29.1390   33.9790 H   0  0  0  0  0  0  0  0  0  0  0  0
   32.8030   31.0510   35.5120 H   0  0  0  0  0  0  0  0  0  0  0  0
   34.9680   32.4390   36.7830 C   0  0  0  0  0  3  0  0  0  0  0  0
   35.4820   33.6720   36.1190 C   0  0  0  0  0  2  0  0  0  0  0  0
   34.2420   34.4670   35.8340 C   0  0  0  0  0  2  0  0  0  0  0  0
   33.1570   34.0080   36.7640 C   0  0  0  0  0  2  0  0  0  0  0  0
   33.6190   32.7230   37.3670 C   0  0  0  0  0  2  0  0  0  0  0  0
  1  6  1  0  0  0  0
  1 13  1  0  0  0  0
  2  1  2  0  0  0  0
  3  4  2  0  0  0  0
  3  2  1  0  0  0  0
  4  5  1  0  0  0  0
  5  6  2  0  0  0  0
  5 20  1  0  0  0  0
  7  2  1  0  0  0  0
  8  3  1  0  0  0  0
  9 15  1  0  0  0  0
 10  9  1  0  0  0  0
 10 17  1  0  0  0  0
 11 10  2  0  0  0  0
 12 13  2  0  0  0  0
 12 11  1  0  0  0  0
 13 14  1  0  0  0  0
 14  9  2  0  0  0  0
 16 11  1  0  0  0  0
 17 19  1  0  0  0  0
 18 17  1  0  0  0  0
 20 24  1  0  0  0  0
 21 20  2  0  0  0  0
 21 22  1  0  0  0  0
 22 26  1  0  0  0  0
 22 23  1  0  0  0  0
 23 27  1  0  0  0  0
 24 23  2  0  0  0  0
 25 21  1  0  0  0  0
 27 31  1  0  0  0  0
 28 27  1  0  0  0  0
 29 28  1  0  0  0  0
 29 30  1  0  0  0  0
 30 31  1  0  0  0  0
M  END
>  <minimizedAffinity>
-5.65265656

$$$$

 OpenBabel03272507003D

 31 34  0  0  0  0  0  0  0  0999 V2000
   37.2220   24.9120   33.0690 C   0  0  0  0  0  0  0  0  0  0  0  0
   36.7450   24.2530   31.9410 C   0  0  0  0  0  0  0  0  0  0  0  0
   36.0240   24.8290   30.9120 C   0  0  0  0  0  0  0  0  0  0  0  0
   35.7750   26.1500   31.0480 N   0  0  0  0  0  0  0  0  0  0  0  0
   36.2220   26.8210   32.1320 C   0  0  0  0  0  0  0  0  0  0  0  0
   36.9250   26.2190   33.1140 N   0  0  0  0  0  0  0  0  0  0  0  0
   36.9490   23.1890   31.8380 H   0  0  0  0  0  0  0  0  0  0  0  0
   35.6850   24.2730   30.0710 H   0  0  0  0  0  0  0  0  0  0  0  0
   38.5390   22.1110   34.9400 C   0  0  0  0  0  0  0  0  0  0  0  0
   39.3370   22.6750   35.9450 C   0  0  0  0  0  0  0  0  0  0  0  0
   39.4030   24.0640   35.9470 C   0  0  0  0  0  0  0  0  0  0  0  0
   38.7210   24.7690   35.0200 N   0  0  0  0  0  0  0  0  0  0  0  0
   37.9750   24.1850   34.0860 C   0  0  0  0  0  0  0  0  0  0  0  0
   37.8460   22.8130   33.9980 N   0  0  0  0  0  0  0  0  0  0  0  0
   38.4570   21.0320   34.8960 H   0  0  0  0  0  0  0  0  0  0  0  0
   40.0090   24.5480   36.7080 H   0  0  0  0  0  0  0  0  0  0  0  0
   40.0140   21.8640   36.8750 N   0  0  0  0  0  0  0  0  0  0  0  0
   39.7680   21.9390   37.8860 H   0  0  0  0  0  0  0  0  0  0  0  0
   40.7620   21.1770   36.6270 H   0  0  0  0  0  0  0  0  0  0  0  0
   36.0190   28.2440   32.3880 C   0  0  0  0  0  0  0  0  0  0  0  0
   36.5930   29.1300   31.4900 C   0  0  0  0  0  0  0  0  0  0  0  0
   36.3020   30.4130   31.8800 N   0  0  0  0  0  0  0  0  0  0  0  0
   35.5610   30.2950   33.0000 C   0  0  0  0  0  0  0  0  0  0  0  0
   35.3700   28.9770   33.3360 N   0  0  0  0  0  0  0  0  0  0  0  0
   37.1870   28.9940   30.6000 H   0  0  0  0  0  0  0  0  0  0  0  0
   36.5800   31.3120   31.4270 H   0  0  0  0  0  0  0  0  0  0  0  0
   34.9920   31.4290   33.8130 C   0  0  0  0  0  3  0  0  0  0  0  0
   34.6840   31.0040   35.2090 C   0  0  0  0  0  2  0  0  0  0  0  0
   35.8490   31.5180   36.0030 C   0  0  0  0  0  2  0  0  0  0  0  0
   36.4890   32.6400   35.2380 C   0  0  0  0  0  2  0  0  0  0  0  0
   35.9430   32.5830   33.8500 C   0  0  0  0  0  2  0  0  0  0  0  0
  1  6  1  0  0  0  0
  1 13  1  0  0  0  0
  2  1  2  0  0  0  0
  3  4  2  0  0  0  0
  3  2  1  0  0  0  0
  4  5  1  0  0  0  0
  5 20  1  0  0  0  0
  5  6  2  0  0  0  0
  7  2  1  0  0  0  0
  8  3  1  0  0  0  0
  9 10  1  0  0  0  0
 10 11  2  0  0  0  0
 10 17  1  0  0  0  0
 11 16  1  0  0  0  0
 12 11  1  0  0  0  0
 13 12  2  0  0  0  0
 14 13  1  0  0  0  0
 14  9  2  0  0  0  0
 15  9  1  0  0  0  0
 17 18  1  0  0  0  0
 19 17  1  0  0  0  0
 20 24  1  0  0  0  0
 21 22  1  0  0  0  0
 21 20  2  0  0  0  0
 22 23  1  0  0  0  0
 23 24  2  0  0  0  0
 23 27  1  0  0  0  0
 25 21  1  0  0  0  0
 26 22  1  0  0  0  0
 27 31  1  0  0  0  0
 27 28  1  0  0  0  0
 28 29  1  0  0  0  0
 30 29  1  0  0  0  0
 31 30  1  0  0  0  0
M  END
>  <minimizedAffinity>
-5.57495022

$$$$

 OpenBabel03272507003D

 31 34  0  0  0  0  0  0  0  0999 V2000
   35.6680   29.4710   33.2670 C   0  0  0  0  0  0  0  0  0  0  0  0
   35.6870   30.0340   31.9950 C   0  0  0  0  0  0  0  0  0  0  0  0
   36.0800   29.3960   30.8340 C   0  0  0  0  0  0  0  0  0  0  0  0
   36.4770   28.1140   30.9840 N   0  0  0  0  0  0  0  0  0  0  0  0
   36.4730   27.5350   32.2050 C   0  0  0  0  0  0  0  0  0  0  0  0
   36.0800   28.1960   33.3140 N   0  0  0  0  0  0  0  0  0  0  0  0
   35.3660   31.0680   31.8810 H   0  0  0  0  0  0  0  0  0  0  0  0
   36.0720   29.8790   29.8860 H   0  0  0  0  0  0  0  0  0  0  0  0
   33.4300   30.9200   35.7100 C   0  0  0  0  0  0  0  0  0  0  0  0
   34.2430   31.6960   36.5480 C   0  0  0  0  0  0  0  0  0  0  0  0
   35.5980   31.6960   36.2340 C   0  0  0  0  0  0  0  0  0  0  0  0
   36.0420   30.9780   35.1810 N   0  0  0  0  0  0  0  0  0  0  0  0
   35.2270   30.2570   34.4150 C   0  0  0  0  0  0  0  0  0  0  0  0
   33.8680   30.1920   34.6440 N   0  0  0  0  0  0  0  0  0  0  0  0
   32.3670   30.8880   35.9150 H   0  0  0  0  0  0  0  0  0  0  0  0
   36.2690   32.2830   36.8550 H   0  0  0  0  0  0  0  0  0  0  0  0
   33.6960   32.4170   37.6260 N   0  0  0  0  0  0  0  0  0  0  0  0
   33.7630   33.4580   37.6260 H   0  0  0  0  0  0  0  0  0  0  0  0
   33.2180   31.9810   38.4470 H   0  0  0  0  0  0  0  0  0  0  0  0
   36.8770   26.1620   32.4910 C   0  0  0  0  0  0  0  0  0  0  0  0
   37.5140   25.9360   33.7000 C   0  0  0  0  0  0  0  0  0  0  0  0
   37.8180   24.6020   33.8030 N   0  0  0  0  0  0  0  0  0  0  0  0
   37.3670   24.0360   32.6660 C   0  0  0  0  0  0  0  0  0  0  0  0
   36.7850   24.9680   31.8410 N   0  0  0  0  0  0  0  0  0  0  0  0
   37.7910   26.5830   34.5170 H   0  0  0  0  0  0  0  0  0  0  0  0
   38.2960   24.1000   34.5840 H   0  0  0  0  0  0  0  0  0  0  0  0
   37.4650   22.5780   32.2990 C   0  0  0  0  0  3  0  0  0  0  0  0
   36.8520   21.7060   33.3440 C   0  0  0  0  0  2  0  0  0  0  0  0
   35.5030   21.3700   32.7800 C   0  0  0  0  0  2  0  0  0  0  0  0
   35.5490   21.5510   31.2900 C   0  0  0  0  0  2  0  0  0  0  0  0
   36.7960   22.3160   30.9870 C   0  0  0  0  0  2  0  0  0  0  0  0
  1  6  1  0  0  0  0
  1 13  1  0  0  0  0
  2  1  2  0  0  0  0
  3  4  2  0  0  0  0
  3  2  1  0  0  0  0
  4  5  1  0  0  0  0
  5 20  1  0  0  0  0
  5  6  2  0  0  0  0
  7  2  1  0  0  0  0
  8  3  1  0  0  0  0
  9 15  1  0  0  0  0
  9 10  1  0  0  0  0
 10 17  1  0  0  0  0
 11 10  2  0  0  0  0
 11 16  1  0  0  0  0
 12 11  1  0  0  0  0
 13 14  1  0  0  0  0
 13 12  2  0  0  0  0
 14  9  2  0  0  0  0
 17 19  1  0  0  0  0
 18 17  1  0  0  0  0
 20 21  2  0  0  0  0
 21 22  1  0  0  0  0
 21 25  1  0  0  0  0
 22 26  1  0  0  0  0
 23 22  1  0  0  0  0
 24 20  1  0  0  0  0
 24 23  2  0  0  0  0
 27 23  1  0  0  0  0
 27 28  1  0  0  0  0
 29 28  1  0  0  0  0
 30 29  1  0  0  0  0
 31 30  1  0  0  0  0
 31 27  1  0  0  0  0
M  END
>  <minimizedAffinity>
-5.52443933

$$$$

 OpenBabel03272507003D

 31 34  0  0  0  0  0  0  0  0999 V2000
   37.2150   27.1430   33.7850 C   0  0  0  0  0  0  0  0  0  0  0  0
   37.9380   27.4420   34.9360 C   0  0  0  0  0  0  0  0  0  0  0  0
   38.6610   26.5410   35.6930 C   0  0  0  0  0  0  0  0  0  0  0  0
   38.6410   25.2650   35.2510 N   0  0  0  0  0  0  0  0  0  0  0  0
   37.9490   24.9380   34.1380 C   0  0  0  0  0  0  0  0  0  0  0  0
   37.2550   25.8520   33.4260 N   0  0  0  0  0  0  0  0  0  0  0  0
   37.9490   28.4720   35.2860 H   0  0  0  0  0  0  0  0  0  0  0  0
   39.1970   26.8290   36.5660 H   0  0  0  0  0  0  0  0  0  0  0  0
   36.1240   29.2270   31.0390 C   0  0  0  0  0  0  0  0  0  0  0  0
   35.2080   30.1310   31.5960 C   0  0  0  0  0  0  0  0  0  0  0  0
   34.9820   29.9880   32.9610 C   0  0  0  0  0  0  0  0  0  0  0  0
   35.6300   29.0250   33.6510 N   0  0  0  0  0  0  0  0  0  0  0  0
   36.4920   28.1920   33.0740 C   0  0  0  0  0  0  0  0  0  0  0  0
   36.7840   28.2520   31.7260 N   0  0  0  0  0  0  0  0  0  0  0  0
   36.3320   29.2990   29.9790 H   0  0  0  0  0  0  0  0  0  0  0  0
   34.2800   30.6650   33.4390 H   0  0  0  0  0  0  0  0  0  0  0  0
   34.5760   31.1070   30.8030 N   0  0  0  0  0  0  0  0  0  0  0  0
   34.7520   32.1150   31.0050 H   0  0  0  0  0  0  0  0  0  0  0  0
   33.9290   30.8970   30.0110 H   0  0  0  0  0  0  0  0  0  0  0  0
   37.8540   23.5990   33.5640 C   0  0  0  0  0  0  0  0  0  0  0  0
   38.7370   22.6470   34.0480 C   0  0  0  0  0  0  0  0  0  0  0  0
   38.5080   21.4570   33.4040 N   0  0  0  0  0  0  0  0  0  0  0  0
   37.4980   21.6960   32.5440 C   0  0  0  0  0  0  0  0  0  0  0  0
   37.0760   23.0010   32.6200 N   0  0  0  0  0  0  0  0  0  0  0  0
   39.5180   22.6780   34.7910 H   0  0  0  0  0  0  0  0  0  0  0  0
   38.9950   20.5420   33.5310 H   0  0  0  0  0  0  0  0  0  0  0  0
   36.8780   20.6960   31.6030 C   0  0  0  0  0  3  0  0  0  0  0  0
   36.9300   19.3120   32.1570 C   0  0  0  0  0  2  0  0  0  0  0  0
   35.5470   19.0940   32.7000 C   0  0  0  0  0  2  0  0  0  0  0  0
   34.6090   20.0400   32.0090 C   0  0  0  0  0  2  0  0  0  0  0  0
   35.4540   21.0550   31.3120 C   0  0  0  0  0  2  0  0  0  0  0  0
  1  2  1  0  0  0  0
  2  7  1  0  0  0  0
  2  3  2  0  0  0  0
  3  8  1  0  0  0  0
  4  3  1  0  0  0  0
  5  4  2  0  0  0  0
  6  1  2  0  0  0  0
  6  5  1  0  0  0  0
  9 10  2  0  0  0  0
  9 14  1  0  0  0  0
 10 11  1  0  0  0  0
 11 16  1  0  0  0  0
 11 12  2  0  0  0  0
 13 12  1  0  0  0  0
 13  1  1  0  0  0  0
 14 13  2  0  0  0  0
 15  9  1  0  0  0  0
 17 18  1  0  0  0  0
 17 10  1  0  0  0  0
 19 17  1  0  0  0  0
 20 21  2  0  0  0  0
 20  5  1  0  0  0  0
 21 25  1  0  0  0  0
 22 26  1  0  0  0  0
 22 21  1  0  0  0  0
 23 24  2  0  0  0  0
 23 22  1  0  0  0  0
 24 20  1  0  0  0  0
 27 28  1  0  0  0  0
 27 23  1  0  0  0  0
 28 29  1  0  0  0  0
 30 29  1  0  0  0  0
 31 27  1  0  0  0  0
 31 30  1  0  0  0  0
M  END
>  <minimizedAffinity>
-5.51482964

$$$$

 OpenBabel03272507003D

 31 34  0  0  0  0  0  0  0  0999 V2000
   37.6960   25.1540   33.6640 C   0  0  0  0  0  0  0  0  0  0  0  0
   37.7420   24.4560   32.4620 C   0  0  0  0  0  0  0  0  0  0  0  0
   37.3420   24.9390   31.2310 C   0  0  0  0  0  0  0  0  0  0  0  0
   36.8670   26.2030   31.2310 N   0  0  0  0  0  0  0  0  0  0  0  0
   36.8070   26.9110   32.3800 C   0  0  0  0  0  0  0  0  0  0  0  0
   37.2100   26.4000   33.5630 N   0  0  0  0  0  0  0  0  0  0  0  0
   38.1250   23.4370   32.4690 H   0  0  0  0  0  0  0  0  0  0  0  0
   37.4010   24.3570   30.3420 H   0  0  0  0  0  0  0  0  0  0  0  0
   39.4420   22.8520   35.8400 C   0  0  0  0  0  0  0  0  0  0  0  0
   39.0940   23.2340   37.1440 C   0  0  0  0  0  0  0  0  0  0  0  0
   38.2330   24.3210   37.2390 C   0  0  0  0  0  0  0  0  0  0  0  0
   37.7930   24.9290   36.1160 N   0  0  0  0  0  0  0  0  0  0  0  0
   38.1530   24.5270   34.9000 C   0  0  0  0  0  0  0  0  0  0  0  0
   39.0030   23.4580   34.7000 N   0  0  0  0  0  0  0  0  0  0  0  0
   40.1110   22.0110   35.7150 H   0  0  0  0  0  0  0  0  0  0  0  0
   37.9350   24.6550   38.2290 H   0  0  0  0  0  0  0  0  0  0  0  0
   39.5980   22.5430   38.2610 N   0  0  0  0  0  0  0  0  0  0  0  0
   38.9330   22.0440   38.8910 H   0  0  0  0  0  0  0  0  0  0  0  0
   40.6100   22.4900   38.5170 H   0  0  0  0  0  0  0  0  0  0  0  0
   36.3180   28.2800   32.5060 C   0  0  0  0  0  0  0  0  0  0  0  0
   36.0790   28.9700   31.3280 C   0  0  0  0  0  0  0  0  0  0  0  0
   35.6260   30.2290   31.6310 N   0  0  0  0  0  0  0  0  0  0  0  0
   35.5930   30.2910   32.9770 C   0  0  0  0  0  0  0  0  0  0  0  0
   36.0120   29.1110   33.5420 N   0  0  0  0  0  0  0  0  0  0  0  0
   36.1810   28.7060   30.2870 H   0  0  0  0  0  0  0  0  0  0  0  0
   35.3540   30.9990   30.9800 H   0  0  0  0  0  0  0  0  0  0  0  0
   35.1620   31.4760   33.8020 C   0  0  0  0  0  3  0  0  0  0  0  0
   33.7640   31.8870   33.4850 C   0  0  0  0  0  2  0  0  0  0  0  0
   32.9560   31.2930   34.6020 C   0  0  0  0  0  2  0  0  0  0  0  0
   33.8660   31.0510   35.7720 C   0  0  0  0  0  2  0  0  0  0  0  0
   35.2650   31.1700   35.2630 C   0  0  0  0  0  2  0  0  0  0  0  0
  1 13  1  0  0  0  0
  2  7  1  0  0  0  0
  2  1  2  0  0  0  0
  3  4  2  0  0  0  0
  3  2  1  0  0  0  0
  4  5  1  0  0  0  0
  5 20  1  0  0  0  0
  5  6  2  0  0  0  0
  6  1  1  0  0  0  0
  8  3  1  0  0  0  0
  9 10  1  0  0  0  0
 10 11  2  0  0  0  0
 10 17  1  0  0  0  0
 11 16  1  0  0  0  0
 12 11  1  0  0  0  0
 13 12  2  0  0  0  0
 14 13  1  0  0  0  0
 14  9  2  0  0  0  0
 15  9  1  0  0  0  0
 17 19  1  0  0  0  0
 17 18  1  0  0  0  0
 20 24  1  0  0  0  0
 21 22  1  0  0  0  0
 21 20  2  0  0  0  0
 22 23  1  0  0  0  0
 23 24  2  0  0  0  0
 23 27  1  0  0  0  0
 25 21  1  0  0  0  0
 26 22  1  0  0  0  0
 27 31  1  0  0  0  0
 28 27  1  0  0  0  0
 28 29  1  0  0  0  0
 29 30  1  0  0  0  0
 31 30  1  0  0  0  0
M  END
>  <minimizedAffinity>
-5.50697851

$$$$

 OpenBabel03272507003D

 31 34  0  0  0  0  0  0  0  0999 V2000
   36.2500   28.6350   32.1500 C   0  0  0  0  0  0  0  0  0  0  0  0
   37.1940   28.6550   31.1280 C   0  0  0  0  0  0  0  0  0  0  0  0
   38.3680   27.9260   31.0970 C   0  0  0  0  0  0  0  0  0  0  0  0
   38.5880   27.1370   32.1710 N   0  0  0  0  0  0  0  0  0  0  0  0
   37.6930   27.0940   33.1820 C   0  0  0  0  0  0  0  0  0  0  0  0
   36.5570   27.8230   33.1710 N   0  0  0  0  0  0  0  0  0  0  0  0
   37.0100   29.2930   30.2650 H   0  0  0  0  0  0  0  0  0  0  0  0
   39.0530   27.9810   30.2850 H   0  0  0  0  0  0  0  0  0  0  0  0
   32.8650   29.7480   32.7700 C   0  0  0  0  0  0  0  0  0  0  0  0
   32.7000   30.8980   31.9850 C   0  0  0  0  0  0  0  0  0  0  0  0
   33.8080   31.2730   31.2330 C   0  0  0  0  0  0  0  0  0  0  0  0
   34.9400   30.5400   31.2960 N   0  0  0  0  0  0  0  0  0  0  0  0
   35.0460   29.4550   32.0580 C   0  0  0  0  0  0  0  0  0  0  0  0
   34.0040   29.0010   32.8410 N   0  0  0  0  0  0  0  0  0  0  0  0
   32.0300   29.4170   33.3730 H   0  0  0  0  0  0  0  0  0  0  0  0
   33.7290   32.1580   30.6080 H   0  0  0  0  0  0  0  0  0  0  0  0
   31.4820   31.6030   31.9770 N   0  0  0  0  0  0  0  0  0  0  0  0
   30.9400   31.6680   31.0880 H   0  0  0  0  0  0  0  0  0  0  0  0
   31.0690   32.0790   32.8100 H   0  0  0  0  0  0  0  0  0  0  0  0
   37.8200   26.2820   34.3890 C   0  0  0  0  0  0  0  0  0  0  0  0
   38.0980   26.9540   35.5690 C   0  0  0  0  0  0  0  0  0  0  0  0
   38.1800   26.0440   36.5930 N   0  0  0  0  0  0  0  0  0  0  0  0
   37.9530   24.8400   36.0300 C   0  0  0  0  0  0  0  0  0  0  0  0
   37.7280   24.9540   34.6790 N   0  0  0  0  0  0  0  0  0  0  0  0
   38.2500   27.9950   35.8040 H   0  0  0  0  0  0  0  0  0  0  0  0
   38.3750   26.2150   37.6040 H   0  0  0  0  0  0  0  0  0  0  0  0
   37.9360   23.5140   36.7450 C   0  0  0  0  0  3  0  0  0  0  0  0
   38.4840   22.4210   35.8900 C   0  0  0  0  0  2  0  0  0  0  0  0
   39.8880   22.2470   36.3900 C   0  0  0  0  0  2  0  0  0  0  0  0
   39.9660   22.7850   37.7890 C   0  0  0  0  0  2  0  0  0  0  0  0
   38.7260   23.5870   38.0140 C   0  0  0  0  0  2  0  0  0  0  0  0
  1  6  1  0  0  0  0
  2  1  2  0  0  0  0
  3  2  1  0  0  0  0
  3  4  2  0  0  0  0
  4  5  1  0  0  0  0
  5 20  1  0  0  0  0
  6  5  2  0  0  0  0
  7  2  1  0  0  0  0
  8  3  1  0  0  0  0
  9 14  1  0  0  0  0
  9 15  1  0  0  0  0
 10  9  2  0  0  0  0
 11 12  2  0  0  0  0
 11 10  1  0  0  0  0
 12 13  1  0  0  0  0
 13  1  1  0  0  0  0
 13 14  2  0  0  0  0
 16 11  1  0  0  0  0
 17 10  1  0  0  0  0
 17 19  1  0  0  0  0
 18 17  1  0  0  0  0
 20 24  1  0  0  0  0
 20 21  2  0  0  0  0
 21 25  1  0  0  0  0
 21 22  1  0  0  0  0
 22 26  1  0  0  0  0
 23 22  1  0  0  0  0
 23 27  1  0  0  0  0
 24 23  2  0  0  0  0
 27 31  1  0  0  0  0
 28 29  1  0  0  0  0
 28 27  1  0  0  0  0
 29 30  1  0  0  0  0
 30 31  1  0  0  0  0
M  END
>  <minimizedAffinity>
-5.49789953

$$$$
