
 OpenBabel03272509343D

 37 41  0  0  1  0  0  0  0  0999 V2000
   36.6420   30.8760   45.0280 C   0  0  1  0  0  0  0  0  0  0  0  0
   37.7100   31.8480   45.3240 C   0  0  0  0  0  0  0  0  0  0  0  0
   38.1410   30.4610   45.0090 C   0  0  2  0  0  0  0  0  0  0  0  0
   36.2280   30.7960   44.0360 H   0  0  0  0  0  0  0  0  0  0  0  0
   37.8330   32.1580   46.4210 H   0  0  0  0  0  0  0  0  0  0  0  0
   37.6540   32.7190   44.7000 H   0  0  0  0  0  0  0  0  0  0  0  0
   38.2660   29.5600   45.5840 H   0  0  0  0  0  0  0  0  0  0  0  0
   38.8500   30.4220   43.7040 C   0  0  0  0  0  0  0  0  0  0  0  0
   39.1760   31.7170   43.2810 C   0  0  0  0  0  0  0  0  0  0  0  0
   39.9060   31.9250   42.1300 C   0  0  0  0  0  0  0  0  0  0  0  0
   40.3430   30.8450   41.3560 C   0  0  0  0  0  0  0  0  0  0  0  0
   40.0100   29.5850   41.7940 C   0  0  0  0  0  0  0  0  0  0  0  0
   40.3570   28.4310   41.1310 C   0  0  0  0  0  0  0  0  0  0  0  0
   40.0240   27.1620   41.5500 C   0  0  0  0  0  0  0  0  0  0  0  0
   39.2940   27.0170   42.7080 C   0  0  0  0  0  0  0  0  0  0  0  0
   38.9320   28.1570   43.3920 C   0  0  0  0  0  0  0  0  0  0  0  0
   39.2880   29.4000   42.9340 C   0  0  0  0  0  0  0  0  0  0  0  0
   39.0250   32.7160   43.6290 H   0  0  0  0  0  0  0  0  0  0  0  0
   40.2370   32.8410   41.6680 H   0  0  0  0  0  0  0  0  0  0  0  0
   40.9160   30.8310   40.4380 H   0  0  0  0  0  0  0  0  0  0  0  0
   40.9420   28.5170   40.2010 H   0  0  0  0  0  0  0  0  0  0  0  0
   40.3270   26.2840   40.9830 H   0  0  0  0  0  0  0  0  0  0  0  0
   38.9930   26.0590   43.1050 H   0  0  0  0  0  0  0  0  0  0  0  0
   38.3470   28.0200   44.3190 H   0  0  0  0  0  0  0  0  0  0  0  0
   33.8320   29.5060   47.1330 C   0  0  0  0  0  0  0  0  0  0  0  0
   34.5350   30.0650   46.0280 C   0  0  0  0  0  0  0  0  0  0  0  0
   35.8880   30.2840   46.1510 C   0  0  0  0  0  0  0  0  0  0  0  0
   36.4500   29.9420   47.3380 N   0  0  0  0  0  0  0  0  0  0  0  0
   35.7890   29.4150   48.3810 C   0  0  0  0  0  0  0  0  0  0  0  0
   34.4580   29.1920   48.2800 N   0  0  0  0  0  0  0  0  0  0  0  0
   32.7690   29.3320   47.0430 H   0  0  0  0  0  0  0  0  0  0  0  0
   33.9740   30.2940   45.1400 H   0  0  0  0  0  0  0  0  0  0  0  0
   36.6400   29.1200   49.5890 C   0  0  0  0  0  3  0  0  0  0  0  0
   35.8830   29.3170   50.8590 C   0  0  0  0  0  2  0  0  0  0  0  0
   36.6860   30.2030   51.7630 C   0  0  0  0  0  2  0  0  0  0  0  0
   38.0320   30.4100   51.0990 C   0  0  0  0  0  2  0  0  0  0  0  0
   37.8360   30.0150   49.6460 C   0  0  0  0  0  2  0  0  0  0  0  0
  1  4  1  6  0  0  0
  1  2  1  0  0  0  0
  1 27  1  0  0  0  0
  2  5  1  0  0  0  0
  3  1  1  0  0  0  0
  3  2  1  0  0  0  0
  3  7  1  1  0  0  0
  6  2  1  0  0  0  0
  8  3  1  0  0  0  0
  9 18  1  0  0  0  0
  9  8  1  0  0  0  0
 10  9  2  0  0  0  0
 11 12  2  0  0  0  0
 11 10  1  0  0  0  0
 12 17  1  0  0  0  0
 13 14  2  0  0  0  0
 13 12  1  0  0  0  0
 14 15  1  0  0  0  0
 15 23  1  0  0  0  0
 15 16  2  0  0  0  0
 16 24  1  0  0  0  0
 17 16  1  0  0  0  0
 17  8  2  0  0  0  0
 19 10  1  0  0  0  0
 20 11  1  0  0  0  0
 21 13  1  0  0  0  0
 22 14  1  0  0  0  0
 25 30  1  0  0  0  0
 26 27  1  0  0  0  0
 26 25  2  0  0  0  0
 27 28  2  0  0  0  0
 28 29  1  0  0  0  0
 29 33  1  0  0  0  0
 30 29  2  0  0  0  0
 31 25  1  0  0  0  0
 32 26  1  0  0  0  0
 33 37  1  0  0  0  0
 33 34  1  0  0  0  0
 34 35  1  0  0  0  0
 36 35  1  0  0  0  0
 37 36  1  0  0  0  0
M  END
>  <minimizedAffinity>
-5.63506889

>  <minimizedRMSD>
3.52843571

$$$$
