
 OpenBabel03272510303D

 24 26  0  0  0  0  0  0  0  0999 V2000
   36.2380   21.3440   33.0920 C   0  0  0  0  0  0  0  0  0  0  0  0
   35.8840   22.1650   32.0200 C   0  0  0  0  0  0  0  0  0  0  0  0
   36.5810   23.3690   31.9310 C   0  0  0  0  0  0  0  0  0  0  0  0
   37.5330   23.6760   32.8540 N   0  0  0  0  0  0  0  0  0  0  0  0
   37.8350   22.8320   33.8830 C   0  0  0  0  0  0  0  0  0  0  0  0
   37.1660   21.6310   34.0050 N   0  0  0  0  0  0  0  0  0  0  0  0
   35.1210   21.8820   31.3060 H   0  0  0  0  0  0  0  0  0  0  0  0
   36.3680   24.0650   31.1270 H   0  0  0  0  0  0  0  0  0  0  0  0
   35.5430   20.0200   33.1930 C   0  0  0  0  0  0  0  0  0  0  0  0
   34.7720   19.4560   32.1090 C   0  0  0  0  0  0  0  0  0  0  0  0
   36.1740   18.9310   32.3200 C   0  0  0  0  0  0  0  0  0  0  0  0
   35.4280   19.7310   34.2800 H   0  0  0  0  0  0  0  0  0  0  0  0
   34.6520   20.0860   31.2020 H   0  0  0  0  0  0  0  0  0  0  0  0
   33.8940   18.8170   32.3060 H   0  0  0  0  0  0  0  0  0  0  0  0
   36.2320   17.9480   32.7800 H   0  0  0  0  0  0  0  0  0  0  0  0
   36.9900   19.2100   31.6580 H   0  0  0  0  0  0  0  0  0  0  0  0
   38.8640   23.1250   34.8670 C   0  0  0  0  0  0  0  0  0  0  0  0
   39.7760   22.5280   34.7330 H   0  0  0  0  0  0  0  0  0  0  0  0
   39.1420   24.1960   34.7650 H   0  0  0  0  0  0  0  0  0  0  0  0
   38.4240   22.9200   36.2960 C   0  0  0  0  0  3  0  0  0  0  0  0
   37.7150   24.2100   36.7160 C   0  0  0  0  0  2  0  0  0  0  0  0
   37.9450   24.3590   38.2030 C   0  0  0  0  0  2  0  0  0  0  0  0
   38.9790   23.3080   38.5700 C   0  0  0  0  0  2  0  0  0  0  0  0
   39.5760   22.8480   37.2550 C   0  0  0  0  0  2  0  0  0  0  0  0
  1  9  1  0  0  0  0
  1  6  1  0  0  0  0
  2  1  2  0  0  0  0
  3  2  1  0  0  0  0
  3  4  2  0  0  0  0
  4  5  1  0  0  0  0
  5  6  2  0  0  0  0
  5 17  1  0  0  0  0
  7  2  1  0  0  0  0
  8  3  1  0  0  0  0
  9 12  1  0  0  0  0
 10 14  1  0  0  0  0
 10 11  1  0  0  0  0
 10  9  1  0  0  0  0
 11 15  1  0  0  0  0
 11  9  1  0  0  0  0
 13 10  1  0  0  0  0
 16 11  1  0  0  0  0
 17 20  1  0  0  0  0
 18 17  1  0  0  0  0
 19 17  1  0  0  0  0
 20 21  1  0  0  0  0
 20 24  1  0  0  0  0
 21 22  1  0  0  0  0
 22 23  1  0  0  0  0
 24 23  1  0  0  0  0
M  END
>  <minimizedAffinity>
-4.68017387

$$$$

 OpenBabel03272510303D

 24 26  0  0  0  0  0  0  0  0999 V2000
   38.0760   24.9290   35.4180 C   0  0  0  0  0  0  0  0  0  0  0  0
   38.0030   24.6610   36.7860 C   0  0  0  0  0  0  0  0  0  0  0  0
   37.9030   23.3130   37.1290 C   0  0  0  0  0  0  0  0  0  0  0  0
   37.8830   22.3610   36.1570 N   0  0  0  0  0  0  0  0  0  0  0  0
   37.9570   22.6840   34.8320 C   0  0  0  0  0  0  0  0  0  0  0  0
   38.0560   24.0080   34.4540 N   0  0  0  0  0  0  0  0  0  0  0  0
   38.0240   25.4480   37.5280 H   0  0  0  0  0  0  0  0  0  0  0  0
   37.8420   23.0180   38.1710 H   0  0  0  0  0  0  0  0  0  0  0  0
   38.2320   26.3630   35.0140 C   0  0  0  0  0  0  0  0  0  0  0  0
   38.6060   27.4030   35.9440 C   0  0  0  0  0  0  0  0  0  0  0  0
   39.6830   26.8510   35.0390 C   0  0  0  0  0  0  0  0  0  0  0  0
   37.7020   26.5420   34.0310 H   0  0  0  0  0  0  0  0  0  0  0  0
   38.7080   27.1050   37.0100 H   0  0  0  0  0  0  0  0  0  0  0  0
   38.2400   28.4360   35.8210 H   0  0  0  0  0  0  0  0  0  0  0  0
   39.9670   27.4980   34.2130 H   0  0  0  0  0  0  0  0  0  0  0  0
   40.4480   26.1740   35.4140 H   0  0  0  0  0  0  0  0  0  0  0  0
   37.9620   21.6860   33.7760 C   0  0  0  0  0  0  0  0  0  0  0  0
   38.8430   21.7500   33.1230 H   0  0  0  0  0  0  0  0  0  0  0  0
   37.9660   20.6820   34.2520 H   0  0  0  0  0  0  0  0  0  0  0  0
   36.7540   21.7400   32.8740 C   0  0  0  0  0  3  0  0  0  0  0  0
   35.7260   20.7800   33.4760 C   0  0  0  0  0  2  0  0  0  0  0  0
   34.9170   20.2400   32.3180 C   0  0  0  0  0  2  0  0  0  0  0  0
   35.6410   20.6910   31.0600 C   0  0  0  0  0  2  0  0  0  0  0  0
   37.0110   21.1440   31.5210 C   0  0  0  0  0  2  0  0  0  0  0  0
  1  2  1  0  0  0  0
  2  3  2  0  0  0  0
  2  7  1  0  0  0  0
  3  8  1  0  0  0  0
  4  3  1  0  0  0  0
  5  4  2  0  0  0  0
  6  5  1  0  0  0  0
  6  1  2  0  0  0  0
  9 11  1  0  0  0  0
  9  1  1  0  0  0  0
  9 10  1  0  0  0  0
 10 13  1  0  0  0  0
 11 16  1  0  0  0  0
 11 10  1  0  0  0  0
 12  9  1  0  0  0  0
 14 10  1  0  0  0  0
 15 11  1  0  0  0  0
 17 19  1  0  0  0  0
 17  5  1  0  0  0  0
 18 17  1  0  0  0  0
 20 21  1  0  0  0  0
 20 17  1  0  0  0  0
 22 21  1  0  0  0  0
 23 24  1  0  0  0  0
 23 22  1  0  0  0  0
 24 20  1  0  0  0  0
M  END
>  <minimizedAffinity>
-4.65389252

$$$$

 OpenBabel03272510303D

 24 26  0  0  0  0  0  0  0  0999 V2000
   36.5830   21.2650   33.8040 C   0  0  0  0  0  0  0  0  0  0  0  0
   35.6910   20.6800   34.7040 C   0  0  0  0  0  0  0  0  0  0  0  0
   35.8750   21.0260   36.0420 C   0  0  0  0  0  0  0  0  0  0  0  0
   36.8740   21.8810   36.3940 N   0  0  0  0  0  0  0  0  0  0  0  0
   37.7170   22.4230   35.4670 C   0  0  0  0  0  0  0  0  0  0  0  0
   37.5660   22.1030   34.1330 N   0  0  0  0  0  0  0  0  0  0  0  0
   34.9090   20.0050   34.3820 H   0  0  0  0  0  0  0  0  0  0  0  0
   35.2250   20.6160   36.8060 H   0  0  0  0  0  0  0  0  0  0  0  0
   36.3860   20.9530   32.3520 C   0  0  0  0  0  0  0  0  0  0  0  0
   35.1120   20.5460   31.8030 C   0  0  0  0  0  0  0  0  0  0  0  0
   35.5290   21.9870   31.6150 C   0  0  0  0  0  0  0  0  0  0  0  0
   37.3860   20.7530   31.8650 H   0  0  0  0  0  0  0  0  0  0  0  0
   34.2820   20.4020   32.5280 H   0  0  0  0  0  0  0  0  0  0  0  0
   35.0550   19.8580   30.9440 H   0  0  0  0  0  0  0  0  0  0  0  0
   35.8700   22.2400   30.6150 H   0  0  0  0  0  0  0  0  0  0  0  0
   35.0780   22.7890   32.1950 H   0  0  0  0  0  0  0  0  0  0  0  0
   38.7750   23.3580   35.8130 C   0  0  0  0  0  0  0  0  0  0  0  0
   38.9160   23.4710   36.8960 H   0  0  0  0  0  0  0  0  0  0  0  0
   39.7260   22.9740   35.3860 H   0  0  0  0  0  0  0  0  0  0  0  0
   38.5740   24.7460   35.2590 C   0  0  0  0  0  3  0  0  0  0  0  0
   39.9580   25.2460   34.8410 C   0  0  0  0  0  2  0  0  0  0  0  0
   39.9410   26.7480   35.0150 C   0  0  0  0  0  2  0  0  0  0  0  0
   38.6560   27.0640   35.7620 C   0  0  0  0  0  2  0  0  0  0  0  0
   38.1680   25.7380   36.3100 C   0  0  0  0  0  2  0  0  0  0  0  0
  1  6  2  0  0  0  0
  1  2  1  0  0  0  0
  2  3  2  0  0  0  0
  3  4  1  0  0  0  0
  3  8  1  0  0  0  0
  5 17  1  0  0  0  0
  5  4  2  0  0  0  0
  6  5  1  0  0  0  0
  7  2  1  0  0  0  0
  9  1  1  0  0  0  0
 10  9  1  0  0  0  0
 10 13  1  0  0  0  0
 11 10  1  0  0  0  0
 11 16  1  0  0  0  0
 11  9  1  0  0  0  0
 12  9  1  0  0  0  0
 14 10  1  0  0  0  0
 15 11  1  0  0  0  0
 17 18  1  0  0  0  0
 19 17  1  0  0  0  0
 20 17  1  0  0  0  0
 20 24  1  0  0  0  0
 21 22  1  0  0  0  0
 21 20  1  0  0  0  0
 22 23  1  0  0  0  0
 23 24  1  0  0  0  0
M  END
>  <minimizedAffinity>
-4.6220994

$$$$

 OpenBabel03272510303D

 24 26  0  0  0  0  0  0  0  0999 V2000
   37.1240   27.5890   33.8730 C   0  0  0  0  0  0  0  0  0  0  0  0
   36.8890   27.1650   32.5630 C   0  0  0  0  0  0  0  0  0  0  0  0
   35.8150   27.7770   31.9180 C   0  0  0  0  0  0  0  0  0  0  0  0
   35.0780   28.7190   32.5660 N   0  0  0  0  0  0  0  0  0  0  0  0
   35.3560   29.0940   33.8490 C   0  0  0  0  0  0  0  0  0  0  0  0
   36.4100   28.5090   34.5210 N   0  0  0  0  0  0  0  0  0  0  0  0
   37.5010   26.4130   32.0840 H   0  0  0  0  0  0  0  0  0  0  0  0
   35.5640   27.5060   30.8990 H   0  0  0  0  0  0  0  0  0  0  0  0
   38.2990   26.9870   34.5810 C   0  0  0  0  0  0  0  0  0  0  0  0
   38.5900   27.2410   35.9730 C   0  0  0  0  0  0  0  0  0  0  0  0
   37.9100   25.9370   35.6260 C   0  0  0  0  0  0  0  0  0  0  0  0
   39.0570   26.6250   33.8240 H   0  0  0  0  0  0  0  0  0  0  0  0
   37.9350   27.9730   36.4930 H   0  0  0  0  0  0  0  0  0  0  0  0
   39.6280   27.2560   36.3450 H   0  0  0  0  0  0  0  0  0  0  0  0
   38.5520   25.0610   35.6600 H   0  0  0  0  0  0  0  0  0  0  0  0
   36.8530   25.7760   35.8260 H   0  0  0  0  0  0  0  0  0  0  0  0
   34.5990   30.1150   34.5550 C   0  0  0  0  0  0  0  0  0  0  0  0
   34.0030   30.7510   33.8880 H   0  0  0  0  0  0  0  0  0  0  0  0
   33.8990   29.6040   35.2510 H   0  0  0  0  0  0  0  0  0  0  0  0
   35.4480   31.0420   35.3890 C   0  0  0  0  0  3  0  0  0  0  0  0
   34.5160   31.6480   36.4410 C   0  0  0  0  0  2  0  0  0  0  0  0
   35.0560   33.0270   36.7460 C   0  0  0  0  0  2  0  0  0  0  0  0
   36.1240   33.2950   35.7000 C   0  0  0  0  0  2  0  0  0  0  0  0
   35.9130   32.2480   34.6260 C   0  0  0  0  0  2  0  0  0  0  0  0
  1  6  1  0  0  0  0
  1  9  1  0  0  0  0
  2  1  2  0  0  0  0
  3  2  1  0  0  0  0
  3  4  2  0  0  0  0
  4  5  1  0  0  0  0
  5  6  2  0  0  0  0
  5 17  1  0  0  0  0
  7  2  1  0  0  0  0
  8  3  1  0  0  0  0
  9 11  1  0  0  0  0
  9 10  1  0  0  0  0
 10 14  1  0  0  0  0
 10 13  1  0  0  0  0
 11 15  1  0  0  0  0
 11 16  1  0  0  0  0
 11 10  1  0  0  0  0
 12  9  1  0  0  0  0
 17 19  1  0  0  0  0
 17 20  1  0  0  0  0
 18 17  1  0  0  0  0
 20 21  1  0  0  0  0
 21 22  1  0  0  0  0
 23 22  1  0  0  0  0
 24 20  1  0  0  0  0
 24 23  1  0  0  0  0
M  END
>  <minimizedAffinity>
-4.4553504

$$$$

 OpenBabel03272510303D

 24 26  0  0  0  0  0  0  0  0999 V2000
   38.4620   24.9290   36.3500 C   0  0  0  0  0  0  0  0  0  0  0  0
   37.9640   25.0570   37.6480 C   0  0  0  0  0  0  0  0  0  0  0  0
   38.3060   24.0290   38.5260 C   0  0  0  0  0  0  0  0  0  0  0  0
   39.0760   22.9920   38.0960 N   0  0  0  0  0  0  0  0  0  0  0  0
   39.5350   22.9210   36.8120 C   0  0  0  0  0  0  0  0  0  0  0  0
   39.2160   23.9190   35.9140 N   0  0  0  0  0  0  0  0  0  0  0  0
   37.3550   25.8990   37.9490 H   0  0  0  0  0  0  0  0  0  0  0  0
   37.9600   24.0510   39.5530 H   0  0  0  0  0  0  0  0  0  0  0  0
   38.1550   26.0380   35.3920 C   0  0  0  0  0  0  0  0  0  0  0  0
   38.0960   27.4250   35.7910 C   0  0  0  0  0  0  0  0  0  0  0  0
   39.3540   26.9470   35.1030 C   0  0  0  0  0  0  0  0  0  0  0  0
   37.6630   25.6170   34.4650 H   0  0  0  0  0  0  0  0  0  0  0  0
   38.2200   27.6370   36.8760 H   0  0  0  0  0  0  0  0  0  0  0  0
   37.4140   28.1340   35.2920 H   0  0  0  0  0  0  0  0  0  0  0  0
   39.4580   27.2580   34.0680 H   0  0  0  0  0  0  0  0  0  0  0  0
   40.2740   26.7770   35.6570 H   0  0  0  0  0  0  0  0  0  0  0  0
   40.3790   21.8380   36.3340 C   0  0  0  0  0  0  0  0  0  0  0  0
   39.9870   20.8430   36.5800 H   0  0  0  0  0  0  0  0  0  0  0  0
   40.4420   21.9140   35.2280 H   0  0  0  0  0  0  0  0  0  0  0  0
   41.7930   21.8850   36.8590 C   0  0  0  0  0  3  0  0  0  0  0  0
   42.3640   23.2390   36.4330 C   0  0  0  0  0  2  0  0  0  0  0  0
   43.8500   23.0350   36.2440 C   0  0  0  0  0  2  0  0  0  0  0  0
   44.0750   21.5340   36.3120 C   0  0  0  0  0  2  0  0  0  0  0  0
   42.7020   20.9100   36.1680 C   0  0  0  0  0  2  0  0  0  0  0  0
  1  2  1  0  0  0  0
  2  7  1  0  0  0  0
  2  3  2  0  0  0  0
  3  8  1  0  0  0  0
  4  3  1  0  0  0  0
  5  4  2  0  0  0  0
  6  1  2  0  0  0  0
  6  5  1  0  0  0  0
  9 10  1  0  0  0  0
  9  1  1  0  0  0  0
 10 13  1  0  0  0  0
 11  9  1  0  0  0  0
 11 16  1  0  0  0  0
 11 10  1  0  0  0  0
 12  9  1  0  0  0  0
 14 10  1  0  0  0  0
 15 11  1  0  0  0  0
 17 18  1  0  0  0  0
 17  5  1  0  0  0  0
 17 20  1  0  0  0  0
 19 17  1  0  0  0  0
 21 20  1  0  0  0  0
 22 23  1  0  0  0  0
 22 21  1  0  0  0  0
 24 23  1  0  0  0  0
 24 20  1  0  0  0  0
M  END
>  <minimizedAffinity>
-4.42917538

$$$$

 OpenBabel03272510303D

 24 26  0  0  0  0  0  0  0  0999 V2000
   37.4040   25.5170   32.0260 C   0  0  0  0  0  0  0  0  0  0  0  0
   38.2660   26.4470   31.4400 C   0  0  0  0  0  0  0  0  0  0  0  0
   39.0130   27.2170   32.3320 C   0  0  0  0  0  0  0  0  0  0  0  0
   38.8740   27.0340   33.6730 N   0  0  0  0  0  0  0  0  0  0  0  0
   38.0130   26.1070   34.1880 C   0  0  0  0  0  0  0  0  0  0  0  0
   37.2570   25.3280   33.3370 N   0  0  0  0  0  0  0  0  0  0  0  0
   38.3470   26.5600   30.3680 H   0  0  0  0  0  0  0  0  0  0  0  0
   39.7070   27.9620   31.9610 H   0  0  0  0  0  0  0  0  0  0  0  0
   36.6200   24.6400   31.0980 C   0  0  0  0  0  0  0  0  0  0  0  0
   35.5820   23.7460   31.5550 C   0  0  0  0  0  0  0  0  0  0  0  0
   35.1560   25.0640   30.9490 C   0  0  0  0  0  0  0  0  0  0  0  0
   37.1720   24.5340   30.1170 H   0  0  0  0  0  0  0  0  0  0  0  0
   35.4300   23.6790   32.6550 H   0  0  0  0  0  0  0  0  0  0  0  0
   35.3800   22.7940   31.0370 H   0  0  0  0  0  0  0  0  0  0  0  0
   34.7580   24.9970   29.9400 H   0  0  0  0  0  0  0  0  0  0  0  0
   34.7900   25.8810   31.5660 H   0  0  0  0  0  0  0  0  0  0  0  0
   37.8650   25.8760   35.6150 C   0  0  0  0  0  0  0  0  0  0  0  0
   38.5340   26.4950   36.2270 H   0  0  0  0  0  0  0  0  0  0  0  0
   36.8190   26.1260   35.8970 H   0  0  0  0  0  0  0  0  0  0  0  0
   38.1010   24.4460   36.0330 C   0  0  0  0  0  3  0  0  0  0  0  0
   37.9310   24.4090   37.5540 C   0  0  0  0  0  2  0  0  0  0  0  0
   38.8440   23.3150   38.0590 C   0  0  0  0  0  2  0  0  0  0  0  0
   39.7050   22.9130   36.8740 C   0  0  0  0  0  2  0  0  0  0  0  0
   39.5270   24.0140   35.8500 C   0  0  0  0  0  2  0  0  0  0  0  0
  1  6  1  0  0  0  0
  2  1  2  0  0  0  0
  2  3  1  0  0  0  0
  3  4  2  0  0  0  0
  4  5  1  0  0  0  0
  5 17  1  0  0  0  0
  6  5  2  0  0  0  0
  7  2  1  0  0  0  0
  8  3  1  0  0  0  0
  9 10  1  0  0  0  0
  9  1  1  0  0  0  0
 10 13  1  0  0  0  0
 11  9  1  0  0  0  0
 11 10  1  0  0  0  0
 11 16  1  0  0  0  0
 12  9  1  0  0  0  0
 14 10  1  0  0  0  0
 15 11  1  0  0  0  0
 17 19  1  0  0  0  0
 17 20  1  0  0  0  0
 17 18  1  0  0  0  0
 20 21  1  0  0  0  0
 21 22  1  0  0  0  0
 23 22  1  0  0  0  0
 24 20  1  0  0  0  0
 24 23  1  0  0  0  0
M  END
>  <minimizedAffinity>
-4.42363262

$$$$

 OpenBabel03272510303D

 24 26  0  0  0  0  0  0  0  0999 V2000
   36.4810   26.7370   32.3520 C   0  0  0  0  0  0  0  0  0  0  0  0
   37.1350   26.0460   33.3750 C   0  0  0  0  0  0  0  0  0  0  0  0
   37.2670   26.7400   34.5780 C   0  0  0  0  0  0  0  0  0  0  0  0
   36.7750   28.0030   34.6940 N   0  0  0  0  0  0  0  0  0  0  0  0
   36.1440   28.6280   33.6570 C   0  0  0  0  0  0  0  0  0  0  0  0
   35.9950   27.9740   32.4510 N   0  0  0  0  0  0  0  0  0  0  0  0
   37.5100   25.0410   33.2410 H   0  0  0  0  0  0  0  0  0  0  0  0
   37.7610   26.2760   35.4230 H   0  0  0  0  0  0  0  0  0  0  0  0
   36.2790   26.0060   31.0610 C   0  0  0  0  0  0  0  0  0  0  0  0
   36.2020   24.5650   30.9790 C   0  0  0  0  0  0  0  0  0  0  0  0
   34.9040   25.3400   30.9440 C   0  0  0  0  0  0  0  0  0  0  0  0
   36.5370   26.6840   30.1940 H   0  0  0  0  0  0  0  0  0  0  0  0
   36.3730   24.0030   31.9230 H   0  0  0  0  0  0  0  0  0  0  0  0
   36.5610   24.0250   30.0870 H   0  0  0  0  0  0  0  0  0  0  0  0
   34.4390   25.4120   29.9650 H   0  0  0  0  0  0  0  0  0  0  0  0
   34.2400   25.3740   31.8050 H   0  0  0  0  0  0  0  0  0  0  0  0
   35.5890   29.9670   33.7630 C   0  0  0  0  0  0  0  0  0  0  0  0
   36.2680   30.7490   33.3990 H   0  0  0  0  0  0  0  0  0  0  0  0
   34.6660   30.0060   33.1450 H   0  0  0  0  0  0  0  0  0  0  0  0
   35.1950   30.3600   35.1660 C   0  0  0  0  0  3  0  0  0  0  0  0
   33.7780   30.9320   35.0700 C   0  0  0  0  0  2  0  0  0  0  0  0
   33.6600   31.9640   36.1680 C   0  0  0  0  0  2  0  0  0  0  0  0
   35.0650   32.1540   36.7120 C   0  0  0  0  0  2  0  0  0  0  0  0
   35.9860   31.5230   35.6880 C   0  0  0  0  0  2  0  0  0  0  0  0
  1  6  2  0  0  0  0
  1  2  1  0  0  0  0
  2  3  2  0  0  0  0
  3  4  1  0  0  0  0
  3  8  1  0  0  0  0
  5 17  1  0  0  0  0
  5  4  2  0  0  0  0
  6  5  1  0  0  0  0
  7  2  1  0  0  0  0
  9  1  1  0  0  0  0
 10  9  1  0  0  0  0
 10 13  1  0  0  0  0
 11 10  1  0  0  0  0
 11  9  1  0  0  0  0
 11 16  1  0  0  0  0
 12  9  1  0  0  0  0
 14 10  1  0  0  0  0
 15 11  1  0  0  0  0
 17 20  1  0  0  0  0
 18 17  1  0  0  0  0
 19 17  1  0  0  0  0
 20 24  1  0  0  0  0
 21 20  1  0  0  0  0
 21 22  1  0  0  0  0
 22 23  1  0  0  0  0
 24 23  1  0  0  0  0
M  END
>  <minimizedAffinity>
-4.41301346

$$$$

 OpenBabel03272510303D

 24 26  0  0  0  0  0  0  0  0999 V2000
   37.5380   26.0380   33.2200 C   0  0  0  0  0  0  0  0  0  0  0  0
   36.6810   26.9610   32.6170 C   0  0  0  0  0  0  0  0  0  0  0  0
   35.8750   26.4540   31.5990 C   0  0  0  0  0  0  0  0  0  0  0  0
   35.9560   25.1400   31.2540 N   0  0  0  0  0  0  0  0  0  0  0  0
   36.8150   24.2840   31.8810 C   0  0  0  0  0  0  0  0  0  0  0  0
   37.6300   24.7490   32.8930 N   0  0  0  0  0  0  0  0  0  0  0  0
   36.6460   27.9980   32.9230 H   0  0  0  0  0  0  0  0  0  0  0  0
   35.1800   27.1040   31.0780 H   0  0  0  0  0  0  0  0  0  0  0  0
   38.3850   26.5370   34.3510 C   0  0  0  0  0  0  0  0  0  0  0  0
   37.9050   27.4800   35.3340 C   0  0  0  0  0  0  0  0  0  0  0  0
   37.9400   26.0190   35.7220 C   0  0  0  0  0  0  0  0  0  0  0  0
   39.4760   26.3510   34.1200 H   0  0  0  0  0  0  0  0  0  0  0  0
   36.8820   27.8860   35.1770 H   0  0  0  0  0  0  0  0  0  0  0  0
   38.5860   28.2070   35.8070 H   0  0  0  0  0  0  0  0  0  0  0  0
   38.7480   25.7420   36.3940 H   0  0  0  0  0  0  0  0  0  0  0  0
   37.0320   25.4250   35.7790 H   0  0  0  0  0  0  0  0  0  0  0  0
   36.9040   22.8720   31.5490 C   0  0  0  0  0  0  0  0  0  0  0  0
   36.9530   22.6830   30.4680 H   0  0  0  0  0  0  0  0  0  0  0  0
   37.8340   22.4690   32.0050 H   0  0  0  0  0  0  0  0  0  0  0  0
   35.7600   22.0430   32.0780 C   0  0  0  0  0  3  0  0  0  0  0  0
   36.2970   21.3070   33.3080 C   0  0  0  0  0  2  0  0  0  0  0  0
   35.5380   20.0010   33.3880 C   0  0  0  0  0  2  0  0  0  0  0  0
   34.7690   19.8880   32.0830 C   0  0  0  0  0  2  0  0  0  0  0  0
   35.3820   20.9190   31.1580 C   0  0  0  0  0  2  0  0  0  0  0  0
  1  9  1  0  0  0  0
  2  7  1  0  0  0  0
  2  1  2  0  0  0  0
  3  2  1  0  0  0  0
  4  3  2  0  0  0  0
  4  5  1  0  0  0  0
  5  6  2  0  0  0  0
  6  1  1  0  0  0  0
  8  3  1  0  0  0  0
  9 10  1  0  0  0  0
  9 11  1  0  0  0  0
 10 11  1  0  0  0  0
 10 14  1  0  0  0  0
 11 16  1  0  0  0  0
 11 15  1  0  0  0  0
 12  9  1  0  0  0  0
 13 10  1  0  0  0  0
 17  5  1  0  0  0  0
 17 19  1  0  0  0  0
 17 20  1  0  0  0  0
 18 17  1  0  0  0  0
 20 21  1  0  0  0  0
 21 22  1  0  0  0  0
 23 22  1  0  0  0  0
 24 20  1  0  0  0  0
 24 23  1  0  0  0  0
M  END
>  <minimizedAffinity>
-4.39118576

$$$$

 OpenBabel03272510303D

 24 26  0  0  0  0  0  0  0  0999 V2000
   39.3070   24.5390   35.8450 C   0  0  0  0  0  0  0  0  0  0  0  0
   40.5630   24.5930   35.2380 C   0  0  0  0  0  0  0  0  0  0  0  0
   40.9020   25.8210   34.6700 C   0  0  0  0  0  0  0  0  0  0  0  0
   40.0310   26.8650   34.7320 N   0  0  0  0  0  0  0  0  0  0  0  0
   38.8140   26.7510   35.3410 C   0  0  0  0  0  0  0  0  0  0  0  0
   38.4430   25.5520   35.9130 N   0  0  0  0  0  0  0  0  0  0  0  0
   41.2260   23.7390   35.2120 H   0  0  0  0  0  0  0  0  0  0  0  0
   41.8590   25.9490   34.1790 H   0  0  0  0  0  0  0  0  0  0  0  0
   38.9280   23.2490   36.5070 C   0  0  0  0  0  0  0  0  0  0  0  0
   39.8830   22.4090   37.1910 C   0  0  0  0  0  0  0  0  0  0  0  0
   39.0030   23.3020   38.0360 C   0  0  0  0  0  0  0  0  0  0  0  0
   37.9320   22.8930   36.1070 H   0  0  0  0  0  0  0  0  0  0  0  0
   40.9470   22.7270   37.1470 H   0  0  0  0  0  0  0  0  0  0  0  0
   39.7640   21.3130   37.2150 H   0  0  0  0  0  0  0  0  0  0  0  0
   38.1960   22.7920   38.5550 H   0  0  0  0  0  0  0  0  0  0  0  0
   39.3910   24.2040   38.5020 H   0  0  0  0  0  0  0  0  0  0  0  0
   37.8760   27.8570   35.4420 C   0  0  0  0  0  0  0  0  0  0  0  0
   37.4690   27.9900   36.4530 H   0  0  0  0  0  0  0  0  0  0  0  0
   38.4140   28.7900   35.1670 H   0  0  0  0  0  0  0  0  0  0  0  0
   36.6910   27.7450   34.5150 C   0  0  0  0  0  3  0  0  0  0  0  0
   37.2630   27.6290   33.1000 C   0  0  0  0  0  2  0  0  0  0  0  0
   36.2450   28.2570   32.1750 C   0  0  0  0  0  2  0  0  0  0  0  0
   35.2340   28.9450   33.0770 C   0  0  0  0  0  2  0  0  0  0  0  0
   35.8860   29.0090   34.4430 C   0  0  0  0  0  2  0  0  0  0  0  0
  1  6  1  0  0  0  0
  1  9  1  0  0  0  0
  2  1  2  0  0  0  0
  3  4  2  0  0  0  0
  3  2  1  0  0  0  0
  4  5  1  0  0  0  0
  5 17  1  0  0  0  0
  5  6  2  0  0  0  0
  7  2  1  0  0  0  0
  8  3  1  0  0  0  0
  9 10  1  0  0  0  0
  9 11  1  0  0  0  0
 10 14  1  0  0  0  0
 10 11  1  0  0  0  0
 11 16  1  0  0  0  0
 11 15  1  0  0  0  0
 12  9  1  0  0  0  0
 13 10  1  0  0  0  0
 17 18  1  0  0  0  0
 19 17  1  0  0  0  0
 20 17  1  0  0  0  0
 21 20  1  0  0  0  0
 22 23  1  0  0  0  0
 22 21  1  0  0  0  0
 23 24  1  0  0  0  0
 24 20  1  0  0  0  0
M  END
>  <minimizedAffinity>
-4.38446379

$$$$
