
 OpenBabel03272510343D

 24 26  0  0  0  0  0  0  0  0999 V2000
   37.0080   30.6600   46.0840 C   0  0  0  0  0  0  0  0  0  0  0  0
   36.1670   30.4920   45.0070 C   0  0  0  0  0  0  0  0  0  0  0  0
   34.8850   30.0030   45.2140 C   0  0  0  0  0  0  0  0  0  0  0  0
   34.4780   29.6960   46.4870 C   0  0  0  0  0  0  0  0  0  0  0  0
   35.3220   29.8630   47.5770 C   0  0  0  0  0  0  0  0  0  0  0  0
   36.6220   30.3550   47.3990 C   0  0  0  0  0  0  0  0  0  0  0  0
   36.4720   30.7300   43.9950 H   0  0  0  0  0  0  0  0  0  0  0  0
   34.2110   29.8640   44.3900 H   0  0  0  0  0  0  0  0  0  0  0  0
   33.4570   29.3120   46.6040 H   0  0  0  0  0  0  0  0  0  0  0  0
   34.9210   29.5970   48.5410 H   0  0  0  0  0  0  0  0  0  0  0  0
   39.7420   33.0500   45.6850 C   0  0  0  0  0  0  0  0  0  0  0  0
   40.8330   32.2730   45.3080 C   0  0  0  0  0  0  0  0  0  0  0  0
   40.6170   30.8690   45.1860 C   0  0  0  0  0  0  0  0  0  0  0  0
   39.3790   30.3750   45.4410 N   0  0  0  0  0  0  0  0  0  0  0  0
   38.3440   31.1740   45.8060 C   0  0  0  0  0  0  0  0  0  0  0  0
   38.5620   32.4910   45.9150 N   0  0  0  0  0  0  0  0  0  0  0  0
   39.9650   34.1030   45.7600 H   0  0  0  0  0  0  0  0  0  0  0  0
   41.8500   32.5750   45.0870 H   0  0  0  0  0  0  0  0  0  0  0  0
   41.3580   30.1470   44.9070 H   0  0  0  0  0  0  0  0  0  0  0  0
   37.5100   30.5330   48.5520 C   0  0  0  0  0  3  0  0  0  0  0  0
   37.2770   31.7630   49.3600 C   0  0  0  0  0  2  0  0  0  0  0  0
   37.2810   31.3480   50.8350 C   0  0  0  0  0  2  0  0  0  0  0  0
   36.6960   29.9610   50.7570 C   0  0  0  0  0  2  0  0  0  0  0  0
   37.3490   29.3890   49.5400 C   0  0  0  0  0  2  0  0  0  0  0  0
  1  6  1  0  0  0  0
  2  3  1  0  0  0  0
  2  1  2  0  0  0  0
  3  4  2  0  0  0  0
  4  9  1  0  0  0  0
  4  5  1  0  0  0  0
  5 10  1  0  0  0  0
  6  5  2  0  0  0  0
  6 20  1  0  0  0  0
  7  2  1  0  0  0  0
  8  3  1  0  0  0  0
 11 17  1  0  0  0  0
 11 16  1  0  0  0  0
 12 11  2  0  0  0  0
 13 12  1  0  0  0  0
 13 14  2  0  0  0  0
 14 15  1  0  0  0  0
 15 16  2  0  0  0  0
 15  1  1  0  0  0  0
 18 12  1  0  0  0  0
 19 13  1  0  0  0  0
 20 21  1  0  0  0  0
 20 24  1  0  0  0  0
 21 22  1  0  0  0  0
 23 22  1  0  0  0  0
 24 23  1  0  0  0  0
M  END
>  <minimizedAffinity>
-5.58123541

>  <minimizedRMSD>
3.10687208

$$$$
