
 OpenBabel03262521033D

 14 15  0  0  0  0  0  0  0  0999 V2000
   37.2420   30.7780   46.6160 C   0  0  0  0  0  0  0  0  0  0  0  0
   38.0250   31.0730   47.7600 C   0  0  0  0  0  0  0  0  0  0  0  0
   39.0270   32.0550   47.6240 C   0  0  0  0  0  0  0  0  0  0  0  0
   39.1890   32.6620   46.4110 N   0  0  0  0  0  0  0  0  0  0  0  0
   38.4140   32.3430   45.3500 C   0  0  0  0  0  0  0  0  0  0  0  0
   37.4500   31.4070   45.4570 N   0  0  0  0  0  0  0  0  0  0  0  0
   36.4540   30.0540   46.5920 H   0  0  0  0  0  0  0  0  0  0  0  0
   39.6060   32.2630   48.5020 H   0  0  0  0  0  0  0  0  0  0  0  0
   38.7170   32.9450   44.4970 H   0  0  0  0  0  0  0  0  0  0  0  0
   37.7150   30.3290   48.9750 C   0  0  0  0  0  0  0  0  0  0  0  0
   36.2180   30.1610   49.2330 C   0  0  0  0  0  0  0  0  0  0  0  0
   36.3170   29.3880   50.5570 C   0  0  0  0  0  0  0  0  0  0  0  0
   37.3540   30.1900   51.3070 C   0  0  0  0  0  0  0  0  0  0  0  0
   38.1240   30.9780   50.2600 C   0  0  0  0  0  0  0  0  0  0  0  0
  1  2  1  0  0  0  0
  2 10  1  0  0  0  0
  3  2  2  0  0  0  0
  3  8  1  0  0  0  0
  4  3  1  0  0  0  0
  5  6  1  0  0  0  0
  5  4  2  0  0  0  0
  6  1  2  0  0  0  0
  7  1  1  0  0  0  0
  9  5  1  0  0  0  0
 10 11  1  0  0  0  0
 10 14  1  0  0  0  0
 11 12  1  0  0  0  0
 12 13  1  0  0  0  0
 14 13  1  0  0  0  0
M  END
>  <minimizedAffinity>
-4.90474653

>  <minimizedRMSD>
4.47834206

$$$$
