
 OpenBabel03272507343D

 32 35  0  0  1  0  0  0  0  0999 V2000
   35.8750   29.1970   49.7940 C   0  0  0  0  0  0  0  0  0  0  0  0
   34.8210   29.6110   50.5750 C   0  0  0  0  0  0  0  0  0  0  0  0
   33.6570   29.0450   50.0400 C   0  0  0  0  0  0  0  0  0  0  0  0
   34.0820   28.3130   48.9540 C   0  0  0  0  0  0  0  0  0  0  0  0
   35.3880   28.4310   48.8460 O   0  0  0  0  0  0  0  0  0  0  0  0
   34.8500   30.2620   51.4580 H   0  0  0  0  0  0  0  0  0  0  0  0
   32.6390   29.1530   50.3970 H   0  0  0  0  0  0  0  0  0  0  0  0
   37.2490   29.5990   50.0620 C   0  0  0  0  0  0  0  0  0  0  0  0
   37.8650   29.0610   50.9880 O   0  0  0  0  0  0  0  0  0  0  0  0
   37.8050   30.6140   49.2140 C   0  0  0  0  0  0  0  0  0  0  0  0
   38.1470   31.8180   49.8100 C   0  0  0  0  0  0  0  0  0  0  0  0
   38.6880   32.8290   49.0110 C   0  0  0  0  0  0  0  0  0  0  0  0
   38.8580   32.5760   47.6690 N   0  0  0  0  0  0  0  0  0  0  0  0
   38.5160   31.4000   47.1290 C   0  0  0  0  0  0  0  0  0  0  0  0
   37.9950   30.4250   47.8880 N   0  0  0  0  0  0  0  0  0  0  0  0
   38.0240   32.0480   50.8710 H   0  0  0  0  0  0  0  0  0  0  0  0
   38.9610   33.7720   49.4490 H   0  0  0  0  0  0  0  0  0  0  0  0
   38.6600   31.2270   46.0640 H   0  0  0  0  0  0  0  0  0  0  0  0
   33.2290   27.5270   48.0630 C   0  0  0  0  0  0  0  0  0  0  0  0
   31.9660   27.5870   48.2240 O   0  0  0  0  0  0  0  0  0  0  0  0
   33.8410   26.6690   46.9930 C   0  0  1  0  0  0  0  0  0  0  0  0
   33.7170   25.1520   47.3880 C   0  0  0  0  0  0  0  0  0  0  0  0
   33.0180   25.7390   46.2180 C   0  0  2  0  0  0  0  0  0  0  0  0
   34.9270   26.8640   46.8660 H   0  0  0  0  0  0  0  0  0  0  0  0
   33.0770   24.9070   48.2470 H   0  0  0  0  0  0  0  0  0  0  0  0
   34.5840   24.5110   47.2760 H   0  0  0  0  0  0  0  0  0  0  0  0
   31.9270   25.8570   46.2600 H   0  0  0  0  0  0  0  0  0  0  0  0
   33.5510   25.4410   44.8160 C   0  0  0  0  0  3  0  0  0  0  0  0
   34.8960   24.7510   44.8780 C   0  0  0  0  0  2  0  0  0  0  0  0
   35.4090   25.0550   43.4650 C   0  0  0  0  0  2  0  0  0  0  0  0
   35.2350   26.5800   43.4770 C   0  0  0  0  0  2  0  0  0  0  0  0
   33.8560   26.7280   44.0860 C   0  0  0  0  0  2  0  0  0  0  0  0
  1  8  1  0  0  0  0
  1  2  2  0  0  0  0
  2  6  1  0  0  0  0
  3  7  1  0  0  0  0
  3  2  1  0  0  0  0
  4  3  2  0  0  0  0
  5  4  1  0  0  0  0
  5  1  1  0  0  0  0
  8  9  2  0  0  0  0
 10 11  1  0  0  0  0
 10  8  1  0  0  0  0
 11 16  1  0  0  0  0
 12 17  1  0  0  0  0
 12 11  2  0  0  0  0
 13 12  1  0  0  0  0
 14 13  2  0  0  0  0
 14 15  1  0  0  0  0
 15 10  2  0  0  0  0
 18 14  1  0  0  0  0
 19 20  2  0  0  0  0
 19  4  1  0  0  0  0
 21 24  1  6  0  0  0
 21 22  1  0  0  0  0
 21 19  1  0  0  0  0
 22 25  1  0  0  0  0
 23 27  1  1  0  0  0
 23 21  1  0  0  0  0
 23 22  1  0  0  0  0
 26 22  1  0  0  0  0
 28 29  1  0  0  0  0
 28 23  1  0  0  0  0
 30 31  1  0  0  0  0
 30 29  1  0  0  0  0
 31 32  1  0  0  0  0
 32 28  1  0  0  0  0
M  END
>  <minimizedAffinity>
-5.15829086

>  <minimizedRMSD>
0.401245952

$$$$
