
 OpenBabel03272509383D

 26 28  0  0  1  0  0  0  0  0999 V2000
   37.4020   31.4120   48.3170 C   0  0  0  0  0  0  0  0  0  0  0  0
   37.2400   32.1090   49.5270 C   0  0  0  0  0  0  0  0  0  0  0  0
   38.0570   33.2170   49.8410 C   0  0  0  0  0  0  0  0  0  0  0  0
   39.0490   33.6190   48.9170 C   0  0  0  0  0  0  0  0  0  0  0  0
   39.1750   32.8960   47.7280 C   0  0  0  0  0  0  0  0  0  0  0  0
   38.3650   31.8280   47.4570 C   0  0  0  0  0  0  0  0  0  0  0  0
   36.4780   31.7910   50.2220 H   0  0  0  0  0  0  0  0  0  0  0  0
   37.8660   33.6960   50.7910 H   0  0  0  0  0  0  0  0  0  0  0  0
   39.6340   34.4730   49.2270 H   0  0  0  0  0  0  0  0  0  0  0  0
   39.9700   33.3330   47.1430 H   0  0  0  0  0  0  0  0  0  0  0  0
   38.6870   31.2640   46.1570 C   0  0  0  0  0  3  0  0  0  0  0  0
   38.3070   32.3210   45.1340 C   0  0  0  0  0  2  0  0  0  0  0  0
   39.2420   31.9130   43.9940 C   0  0  0  0  0  2  0  0  0  0  0  0
   40.5480   31.8470   44.7490 C   0  0  0  0  0  2  0  0  0  0  0  0
   40.2180   31.1260   46.0050 C   0  0  0  0  0  2  0  0  0  0  0  0
   36.5330   30.2920   48.0670 C   0  0  2  0  0  3  0  0  0  0  0  0
   36.7540   29.2810   48.8350 O   0  0  0  0  0  1  0  0  0  0  0  0
   33.1490   30.3600   46.7690 C   0  0  0  0  0  0  0  0  0  0  0  0
   33.3040   30.1600   45.4070 C   0  0  0  0  0  0  0  0  0  0  0  0
   34.5800   29.9870   44.9170 C   0  0  0  0  0  0  0  0  0  0  0  0
   35.6740   30.0110   45.7530 N   0  0  0  0  0  0  0  0  0  0  0  0
   35.4760   30.2100   47.0660 C   0  0  0  0  0  0  0  0  0  0  0  0
   34.2420   30.3730   47.5170 N   0  0  0  0  0  0  0  0  0  0  0  0
   32.1730   30.4990   47.1910 H   0  0  0  0  0  0  0  0  0  0  0  0
   32.4310   30.1470   44.7810 H   0  0  0  0  0  0  0  0  0  0  0  0
   34.7340   29.8280   43.8560 H   0  0  0  0  0  0  0  0  0  0  0  0
  1  2  1  0  0  0  0
  2  3  2  0  0  0  0
  2  7  1  0  0  0  0
  3  8  1  0  0  0  0
  4  9  1  0  0  0  0
  4  3  1  0  0  0  0
  5  4  2  0  0  0  0
  6  5  1  0  0  0  0
  6  1  2  0  0  0  0
 10  5  1  0  0  0  0
 11  6  1  0  0  0  0
 12 11  1  0  0  0  0
 13 14  1  0  0  0  0
 13 12  1  0  0  0  0
 14 15  1  0  0  0  0
 15 11  1  0  0  0  0
 16  1  1  0  0  0  0
 16 17  1  6  0  0  0
 18 24  1  0  0  0  0
 18 23  1  0  0  0  0
 19 18  2  0  0  0  0
 20 19  1  0  0  0  0
 20 21  2  0  0  0  0
 21 22  1  0  0  0  0
 22 23  2  0  0  0  0
 22 16  1  0  0  0  0
 25 19  1  0  0  0  0
 26 20  1  0  0  0  0
M  END
>  <minimizedAffinity>
-5.77720976

>  <minimizedRMSD>
2.25089288

$$$$
