
 OpenBabel03272510273D

 41 45  0  0  1  0  0  0  0  0999 V2000
   36.2080   30.1570   46.9700 C   0  0  0  0  0  0  0  0  0  0  0  0
   37.0440   30.7210   47.9310 C   0  0  0  0  0  0  0  0  0  0  0  0
   38.0310   31.6450   47.5770 C   0  0  0  0  0  0  0  0  0  0  0  0
   38.1250   31.9630   46.2260 C   0  0  0  0  0  0  0  0  0  0  0  0
   38.9990   32.8330   45.6400 N   0  0  0  0  0  0  0  0  0  0  0  0
   38.7200   32.8210   44.3290 C   0  0  0  0  0  0  0  0  0  0  0  0
   37.7210   31.9850   44.0920 N   0  0  0  0  0  0  0  0  0  0  0  0
   37.3210   31.4310   45.2490 C   0  0  0  0  0  0  0  0  0  0  0  0
   36.3430   30.5070   45.6370 C   0  0  0  0  0  0  0  0  0  0  0  0
   35.4430   29.4400   47.2410 H   0  0  0  0  0  0  0  0  0  0  0  0
   38.6890   32.0910   48.3200 H   0  0  0  0  0  0  0  0  0  0  0  0
   39.7460   33.4030   46.1230 H   0  0  0  0  0  0  0  0  0  0  0  0
   35.7100   30.0870   44.8650 H   0  0  0  0  0  0  0  0  0  0  0  0
   37.4150   30.1030   51.6100 C   0  0  0  0  0  0  0  0  0  0  0  0
   37.7530   30.5530   50.3460 C   0  0  0  0  0  0  0  0  0  0  0  0
   36.8680   30.3270   49.3170 C   0  0  0  0  0  0  0  0  0  0  0  0
   35.6960   29.6620   49.6200 N   0  0  0  0  0  0  0  0  0  0  0  0
   35.3890   29.2320   50.8600 C   0  0  0  0  0  0  0  0  0  0  0  0
   36.2400   29.4520   51.8370 N   0  0  0  0  0  0  0  0  0  0  0  0
   38.1700   30.3230   52.3620 H   0  0  0  0  0  0  0  0  0  0  0  0
   38.6660   31.0730   50.0960 H   0  0  0  0  0  0  0  0  0  0  0  0
   34.4520   28.7180   51.0270 H   0  0  0  0  0  0  0  0  0  0  0  0
   39.4210   33.5990   43.4070 O   0  0  0  0  0  0  0  0  0  0  0  0
   39.9150   31.7060   42.1850 N   0  0  0  0  0  0  0  0  0  0  0  0
   39.4720   33.0880   42.0830 C   0  0  1  0  0  0  0  0  0  0  0  0
   38.1660   33.1590   41.4470 C   0  0  0  0  0  0  0  0  0  0  0  0
   38.2760   32.6640   40.1360 O   0  0  0  0  0  0  0  0  0  0  0  0
   38.8020   31.4080   40.0250 C   0  0  0  0  0  0  0  0  0  0  0  0
   40.0940   31.2960   40.8150 C   0  0  2  0  0  0  0  0  0  0  0  0
   39.2750   31.0350   42.5820 H   0  0  0  0  0  0  0  0  0  0  0  0
   40.2310   33.6180   41.4830 H   0  0  0  0  0  0  0  0  0  0  0  0
   37.9340   34.2560   41.2810 H   0  0  0  0  0  0  0  0  0  0  0  0
   37.2780   32.7190   41.8100 H   0  0  0  0  0  0  0  0  0  0  0  0
   38.0370   30.6950   40.3700 H   0  0  0  0  0  0  0  0  0  0  0  0
   39.0750   31.2520   38.9740 H   0  0  0  0  0  0  0  0  0  0  0  0
   40.7600   32.0700   40.3660 H   0  0  0  0  0  0  0  0  0  0  0  0
   40.7800   29.9950   40.6470 C   0  0  0  0  0  3  0  0  0  0  0  0
   41.8490   30.0560   39.5880 C   0  0  0  0  0  2  0  0  0  0  0  0
   42.2720   28.5810   39.5690 C   0  0  0  0  0  2  0  0  0  0  0  0
   40.9200   27.9050   39.5040 C   0  0  0  0  0  2  0  0  0  0  0  0
   39.9220   28.8760   40.1480 C   0  0  0  0  0  2  0  0  0  0  0  0
  1 10  1  0  0  0  0
  1  2  1  0  0  0  0
  2 16  1  0  0  0  0
  3  2  2  0  0  0  0
  3 11  1  0  0  0  0
  4  3  1  0  0  0  0
  5 12  1  0  0  0  0
  5  4  1  0  0  0  0
  6  5  1  0  0  0  0
  7  6  2  0  0  0  0
  7  8  1  0  0  0  0
  8  9  1  0  0  0  0
  8  4  2  0  0  0  0
  9  1  2  0  0  0  0
 13  9  1  0  0  0  0
 14 19  1  0  0  0  0
 14 20  1  0  0  0  0
 15 14  2  0  0  0  0
 16 17  2  0  0  0  0
 16 15  1  0  0  0  0
 17 18  1  0  0  0  0
 18 22  1  0  0  0  0
 18 19  2  0  0  0  0
 21 15  1  0  0  0  0
 23  6  1  0  0  0  0
 24 30  1  0  0  0  0
 25 31  1  6  0  0  0
 25 24  1  0  0  0  0
 25 23  1  0  0  0  0
 26 33  1  0  0  0  0
 26 25  1  0  0  0  0
 27 26  1  0  0  0  0
 28 27  1  0  0  0  0
 28 34  1  0  0  0  0
 28 29  1  0  0  0  0
 29 36  1  6  0  0  0
 29 24  1  0  0  0  0
 32 26  1  0  0  0  0
 35 28  1  0  0  0  0
 37 29  1  0  0  0  0
 38 37  1  0  0  0  0
 39 38  1  0  0  0  0
 40 39  1  0  0  0  0
 40 41  1  0  0  0  0
 41 37  1  0  0  0  0
M  END
>  <minimizedAffinity>
-5.94503355

>  <minimizedRMSD>
0.672838211

$$$$
