
 OpenBabel03272501133D

 24 26  0  0  1  0  0  0  0  0999 V2000
   36.6720   31.0860   50.1000 C   0  0  1  0  0  0  0  0  0  0  0  0
   36.5400   29.6470   50.0720 C   0  0  1  0  0  0  0  0  0  0  0  0
   37.3470   30.2620   51.1960 C   0  0  0  0  0  0  0  0  0  0  0  0
   35.8430   31.7460   50.4350 H   0  0  0  0  0  0  0  0  0  0  0  0
   37.1820   29.1040   49.3200 H   0  0  0  0  0  0  0  0  0  0  0  0
   38.4350   30.1660   51.1990 H   0  0  0  0  0  0  0  0  0  0  0  0
   36.8440   30.3310   52.1800 H   0  0  0  0  0  0  0  0  0  0  0  0
   37.6850   31.8050   49.2320 C   0  0  0  0  0  0  0  0  0  0  0  0
   38.0810   33.0700   49.6740 C   0  0  0  0  0  0  0  0  0  0  0  0
   38.9960   33.7180   48.8450 C   0  0  0  0  0  0  0  0  0  0  0  0
   39.4490   33.1270   47.6970 N   0  0  0  0  0  0  0  0  0  0  0  0
   39.0260   31.8850   47.3150 C   0  0  0  0  0  0  0  0  0  0  0  0
   38.1240   31.2200   48.1090 N   0  0  0  0  0  0  0  0  0  0  0  0
   37.6950   33.4910   50.5840 H   0  0  0  0  0  0  0  0  0  0  0  0
   39.3490   34.7050   49.1250 H   0  0  0  0  0  0  0  0  0  0  0  0
   39.4030   31.4500   46.4010 H   0  0  0  0  0  0  0  0  0  0  0  0
   35.1860   29.0570   50.3380 C   0  0  0  0  0  0  0  0  0  0  0  0
   35.2170   28.4130   51.2270 H   0  0  0  0  0  0  0  0  0  0  0  0
   34.4900   29.9030   50.6000 H   0  0  0  0  0  0  0  0  0  0  0  0
   34.5700   28.3860   49.1430 C   0  0  0  0  0  0  0  0  0  0  0  0
   34.8260   29.1150   47.8420 C   0  0  0  0  0  0  0  0  0  0  0  0
   33.9430   28.2990   46.8910 C   0  0  0  0  0  0  0  0  0  0  0  0
   32.7290   27.9820   47.7040 C   0  0  0  0  0  0  0  0  0  0  0  0
   33.0900   28.2590   49.1710 C   0  0  0  0  0  0  0  0  0  0  0  0
  1  4  1  1  0  0  0
  1  3  1  0  0  0  0
  2  5  1  6  0  0  0
  2  1  1  0  0  0  0
  2 17  1  0  0  0  0
  2  3  1  0  0  0  0
  3  6  1  0  0  0  0
  3  7  1  0  0  0  0
  8  9  1  0  0  0  0
  8  1  1  0  0  0  0
  9 14  1  0  0  0  0
 10 15  1  0  0  0  0
 10  9  2  0  0  0  0
 11 10  1  0  0  0  0
 12 11  2  0  0  0  0
 12 13  1  0  0  0  0
 13  8  2  0  0  0  0
 16 12  1  0  0  0  0
 17 19  1  0  0  0  0
 17 18  1  0  0  0  0
 20 24  1  0  0  0  0
 20 17  1  0  0  0  0
 21 20  1  0  0  0  0
 22 23  1  0  0  0  0
 22 21  1  0  0  0  0
 23 24  1  0  0  0  0
M  END
>  <minimizedAffinity>
-5.47934675

>  <minimizedRMSD>
1.82197642

$$$$
