
 OpenBabel03272510243D

 28 31  0  0  0  0  0  0  0  0999 V2000
   36.0520   30.1740   46.9940 C   0  0  0  0  0  0  0  0  0  0  0  0
   36.9650   30.7010   47.9050 C   0  0  0  0  0  0  0  0  0  0  0  0
   37.9590   31.5730   47.5020 C   0  0  0  0  0  0  0  0  0  0  0  0
   37.9860   31.8880   46.1400 C   0  0  0  0  0  0  0  0  0  0  0  0
   38.8710   32.7250   45.5020 N   0  0  0  0  0  0  0  0  0  0  0  0
   38.5270   32.7280   44.2170 C   0  0  0  0  0  0  0  0  0  0  0  0
   37.4700   31.9380   44.0120 N   0  0  0  0  0  0  0  0  0  0  0  0
   37.1120   31.3980   45.2030 C   0  0  0  0  0  0  0  0  0  0  0  0
   36.1190   30.5180   45.6450 C   0  0  0  0  0  0  0  0  0  0  0  0
   35.2650   29.4880   47.2940 H   0  0  0  0  0  0  0  0  0  0  0  0
   38.6750   31.9890   48.1980 H   0  0  0  0  0  0  0  0  0  0  0  0
   39.6650   33.2520   45.9700 H   0  0  0  0  0  0  0  0  0  0  0  0
   35.4250   30.1260   44.9170 H   0  0  0  0  0  0  0  0  0  0  0  0
   37.5350   30.0860   51.5770 C   0  0  0  0  0  0  0  0  0  0  0  0
   37.7710   30.5170   50.2780 C   0  0  0  0  0  0  0  0  0  0  0  0
   36.8360   30.2990   49.2970 C   0  0  0  0  0  0  0  0  0  0  0  0
   35.6810   29.6470   49.6600 N   0  0  0  0  0  0  0  0  0  0  0  0
   35.4770   29.2390   50.9280 C   0  0  0  0  0  0  0  0  0  0  0  0
   36.3830   29.4540   51.8650 N   0  0  0  0  0  0  0  0  0  0  0  0
   38.2610   30.2490   52.3610 H   0  0  0  0  0  0  0  0  0  0  0  0
   38.6810   31.0280   50.0000 H   0  0  0  0  0  0  0  0  0  0  0  0
   34.5210   28.7300   51.1040 H   0  0  0  0  0  0  0  0  0  0  0  0
   39.2050   33.4720   43.2540 O   0  0  0  0  0  0  0  0  0  0  0  0
   39.3630   32.9730   41.9200 C   0  0  0  0  0  3  0  0  0  0  0  0
   38.8320   31.5600   41.7840 C   0  0  0  0  0  2  0  0  0  0  0  0
   37.9790   31.5810   40.5210 C   0  0  0  0  0  2  0  0  0  0  0  0
   37.3770   32.9650   40.6080 C   0  0  0  0  0  2  0  0  0  0  0  0
   38.5320   33.8260   41.0070 C   0  0  0  0  0  2  0  0  0  0  0  0
  1 10  1  0  0  0  0
  1  2  1  0  0  0  0
  2 16  1  0  0  0  0
  3  2  2  0  0  0  0
  3 11  1  0  0  0  0
  4  3  1  0  0  0  0
  5 12  1  0  0  0  0
  5  4  1  0  0  0  0
  6  5  1  0  0  0  0
  7  6  2  0  0  0  0
  7  8  1  0  0  0  0
  8  9  1  0  0  0  0
  8  4  2  0  0  0  0
  9  1  2  0  0  0  0
 13  9  1  0  0  0  0
 14 19  1  0  0  0  0
 14 20  1  0  0  0  0
 15 14  2  0  0  0  0
 16 17  2  0  0  0  0
 16 15  1  0  0  0  0
 17 18  1  0  0  0  0
 18 22  1  0  0  0  0
 18 19  2  0  0  0  0
 21 15  1  0  0  0  0
 23  6  1  0  0  0  0
 24 23  1  0  0  0  0
 25 24  1  0  0  0  0
 26 27  1  0  0  0  0
 26 25  1  0  0  0  0
 27 28  1  0  0  0  0
 28 24  1  0  0  0  0
M  END
>  <minimizedAffinity>
-5.25939178

>  <minimizedRMSD>
1.34319687

$$$$
