
 OpenBabel03272506193D

 30 32  0  0  0  0  0  0  0  0999 V2000
   35.5110   30.3170   49.6850 C   0  0  0  0  0  0  0  0  0  0  0  0
   36.4680   31.1110   48.8170 C   0  0  0  0  0  0  0  0  0  0  0  0
   37.9040   30.7150   49.0040 C   0  0  0  0  0  0  0  0  0  0  0  0
   38.3250   30.8130   50.4460 C   0  0  0  0  0  0  0  0  0  0  0  0
   37.3360   30.2050   51.3990 C   0  0  0  0  0  0  0  0  0  0  0  0
   36.2090   29.4760   50.6990 C   0  0  0  0  0  0  0  0  0  0  0  0
   34.7840   31.0270   50.1270 H   0  0  0  0  0  0  0  0  0  0  0  0
   36.4030   32.1810   49.1000 H   0  0  0  0  0  0  0  0  0  0  0  0
   36.2150   31.0350   47.7450 H   0  0  0  0  0  0  0  0  0  0  0  0
   38.0300   29.6650   48.6320 H   0  0  0  0  0  0  0  0  0  0  0  0
   38.5150   31.3840   48.3970 H   0  0  0  0  0  0  0  0  0  0  0  0
   38.3680   31.9110   50.6720 H   0  0  0  0  0  0  0  0  0  0  0  0
   39.3430   30.4120   50.5480 H   0  0  0  0  0  0  0  0  0  0  0  0
   36.8610   30.9610   52.0570 H   0  0  0  0  0  0  0  0  0  0  0  0
   37.8520   29.4710   52.0490 H   0  0  0  0  0  0  0  0  0  0  0  0
   35.5120   29.1530   51.4790 H   0  0  0  0  0  0  0  0  0  0  0  0
   36.6800   28.6070   50.1640 H   0  0  0  0  0  0  0  0  0  0  0  0
   34.7020   29.4010   48.8210 C   0  0  0  0  0  0  0  0  0  0  0  0
   33.9390   30.0270   47.8190 C   0  0  0  0  0  0  0  0  0  0  0  0
   33.1650   29.1780   47.0090 C   0  0  0  0  0  0  0  0  0  0  0  0
   33.1850   27.8160   47.2230 N   0  0  0  0  0  0  0  0  0  0  0  0
   33.9510   27.2670   48.2170 C   0  0  0  0  0  0  0  0  0  0  0  0
   34.6880   28.0580   48.9930 N   0  0  0  0  0  0  0  0  0  0  0  0
   33.8790   31.0690   47.6060 H   0  0  0  0  0  0  0  0  0  0  0  0
   33.9830   26.2190   48.4020 H   0  0  0  0  0  0  0  0  0  0  0  0
   32.3100   29.6290   45.9200 C   0  0  0  0  0  3  0  0  0  0  0  0
   32.3110   31.1540   45.7540 C   0  0  0  0  0  2  0  0  0  0  0  0
   31.3440   31.2250   44.5640 C   0  0  0  0  0  2  0  0  0  0  0  0
   30.2590   30.2700   45.0040 C   0  0  0  0  0  2  0  0  0  0  0  0
   30.8470   29.3800   46.0820 C   0  0  0  0  0  2  0  0  0  0  0  0
  1  7  1  0  0  0  0
  1  6  1  0  0  0  0
  2  3  1  0  0  0  0
  2  8  1  0  0  0  0
  2  1  1  0  0  0  0
  3  4  1  0  0  0  0
  4 13  1  0  0  0  0
  4 12  1  0  0  0  0
  4  5  1  0  0  0  0
  5 15  1  0  0  0  0
  5 14  1  0  0  0  0
  6  5  1  0  0  0  0
  6 16  1  0  0  0  0
  9  2  1  0  0  0  0
 10  3  1  0  0  0  0
 11  3  1  0  0  0  0
 17  6  1  0  0  0  0
 18 23  1  0  0  0  0
 18  1  1  0  0  0  0
 19 18  2  0  0  0  0
 20 21  2  0  0  0  0
 20 19  1  0  0  0  0
 21 22  1  0  0  0  0
 22 25  1  0  0  0  0
 22 23  2  0  0  0  0
 24 19  1  0  0  0  0
 26 30  1  0  0  0  0
 26 20  1  0  0  0  0
 27 26  1  0  0  0  0
 28 29  1  0  0  0  0
 28 27  1  0  0  0  0
 29 30  1  0  0  0  0
M  END
>  <minimizedAffinity>
-5.23516989

>  <minimizedRMSD>
0.534697413

$$$$
