
 OpenBabel03262523443D

 24 26  0  0  0  0  0  0  0  0999 V2000
   38.2790   33.2610   49.7320 Cl  0  0  0  0  0  0  0  0  0  0  0  0
   38.5270   32.4350   48.2290 C   0  0  0  0  0  0  0  0  0  0  0  0
   38.0240   31.1550   48.0330 C   0  0  0  0  0  0  0  0  0  0  0  0
   38.2550   30.5560   46.8230 C   0  0  0  0  0  0  0  0  0  0  0  0
   38.9510   31.1500   45.8030 C   0  0  0  0  0  0  0  0  0  0  0  0
   39.4470   32.4470   46.0350 C   0  0  0  0  0  0  0  0  0  0  0  0
   40.3410   33.2240   44.7440 Cl  0  0  0  0  0  0  0  0  0  0  0  0
   39.2420   33.0960   47.2410 C   0  0  0  0  0  0  0  0  0  0  0  0
   37.8590   29.5800   46.6990 H   0  0  0  0  0  0  0  0  0  0  0  0
   39.6310   34.0980   47.4080 H   0  0  0  0  0  0  0  0  0  0  0  0
   37.2120   29.4280   51.3040 C   0  0  0  0  0  0  0  0  0  0  0  0
   37.9330   30.0030   50.2490 C   0  0  0  0  0  0  0  0  0  0  0  0
   37.2890   30.5540   49.1360 C   0  0  0  0  0  0  0  0  0  0  0  0
   35.9340   30.4900   49.1560 N   0  0  0  0  0  0  0  0  0  0  0  0
   35.2540   29.9390   50.1690 C   0  0  0  0  0  0  0  0  0  0  0  0
   35.8820   29.4130   51.2300 N   0  0  0  0  0  0  0  0  0  0  0  0
   37.6980   29.0020   52.1640 H   0  0  0  0  0  0  0  0  0  0  0  0
   39.0140   30.0300   50.2790 H   0  0  0  0  0  0  0  0  0  0  0  0
   34.1760   29.9940   49.9790 H   0  0  0  0  0  0  0  0  0  0  0  0
   39.2050   30.5160   44.4960 C   0  0  0  0  0  0  0  0  0  0  0  0
   40.6080   30.7860   43.9950 C   0  0  0  0  0  0  0  0  0  0  0  0
   40.4970   30.8790   42.4980 C   0  0  0  0  0  0  0  0  0  0  0  0
   39.0680   31.1780   42.1610 C   0  0  0  0  0  0  0  0  0  0  0  0
   38.2600   30.9030   43.4110 C   0  0  0  0  0  0  0  0  0  0  0  0
  2  1  1  0  0  0  0
  3  2  1  0  0  0  0
  3 13  1  0  0  0  0
  4  3  2  0  0  0  0
  5  6  2  0  0  0  0
  5  4  1  0  0  0  0
  6  8  1  0  0  0  0
  7  6  1  0  0  0  0
  8 10  1  0  0  0  0
  8  2  2  0  0  0  0
  9  4  1  0  0  0  0
 11 17  1  0  0  0  0
 12 18  1  0  0  0  0
 12 11  2  0  0  0  0
 13 14  2  0  0  0  0
 13 12  1  0  0  0  0
 14 15  1  0  0  0  0
 15 16  2  0  0  0  0
 16 11  1  0  0  0  0
 19 15  1  0  0  0  0
 20  5  1  0  0  0  0
 21 20  1  0  0  0  0
 22 21  1  0  0  0  0
 23 22  1  0  0  0  0
 23 24  1  0  0  0  0
 24 20  1  0  0  0  0
M  END
>  <minimizedAffinity>
-6.29701471

>  <minimizedRMSD>
0.410157353

$$$$
