
 OpenBabel03272509513D

 29 31  0  0  0  0  0  0  0  0999 V2000
   33.7380   28.6040   48.7180 C   0  0  0  0  0  0  0  0  0  0  0  0
   33.1650   29.4920   49.0780 H   0  0  0  0  0  0  0  0  0  0  0  0
   34.3470   28.9060   47.8340 H   0  0  0  0  0  0  0  0  0  0  0  0
   32.8250   27.4860   48.3250 C   0  0  0  0  0  0  0  0  0  0  0  0
   32.9760   26.6220   49.0170 H   0  0  0  0  0  0  0  0  0  0  0  0
   33.0790   27.1020   47.2990 H   0  0  0  0  0  0  0  0  0  0  0  0
   31.3870   27.8710   48.3440 C   0  0  0  0  0  0  0  0  0  0  0  0
   30.7070   27.7350   49.5270 C   0  0  0  0  0  0  0  0  0  0  0  0
   29.3720   28.0610   49.6610 C   0  0  0  0  0  0  0  0  0  0  0  0
   28.7240   28.5270   48.5910 N   0  0  0  0  0  0  0  0  0  0  0  0
   29.3930   28.6610   47.4310 C   0  0  0  0  0  0  0  0  0  0  0  0
   30.6950   28.3480   47.2780 N   0  0  0  0  0  0  0  0  0  0  0  0
   31.2340   27.3520   50.4100 H   0  0  0  0  0  0  0  0  0  0  0  0
   28.8470   27.9490   50.5990 H   0  0  0  0  0  0  0  0  0  0  0  0
   28.8740   29.0410   46.5520 H   0  0  0  0  0  0  0  0  0  0  0  0
   34.6590   28.1560   49.7170 O   0  0  0  0  0  0  0  0  0  0  0  0
   37.1840   30.1760   51.3700 C   0  0  0  0  0  0  0  0  0  0  0  0
   37.8820   30.6530   50.2470 C   0  0  0  0  0  0  0  0  0  0  0  0
   37.4490   30.2560   48.9860 C   0  0  0  0  0  0  0  0  0  0  0  0
   36.3640   29.4220   48.9370 N   0  0  0  0  0  0  0  0  0  0  0  0
   35.7190   28.9830   50.0140 C   0  0  0  0  0  0  0  0  0  0  0  0
   36.1280   29.3600   51.2550 N   0  0  0  0  0  0  0  0  0  0  0  0
   37.4760   30.4500   52.3730 H   0  0  0  0  0  0  0  0  0  0  0  0
   38.7340   31.3120   50.3700 H   0  0  0  0  0  0  0  0  0  0  0  0
   38.1330   30.7190   47.7620 C   0  0  0  0  0  0  0  0  0  0  0  0
   37.1770   30.9680   46.6210 C   0  0  0  0  0  0  0  0  0  0  0  0
   38.0760   31.7050   45.6220 C   0  0  0  0  0  0  0  0  0  0  0  0
   39.0670   32.4670   46.4610 C   0  0  0  0  0  0  0  0  0  0  0  0
   38.8180   32.0430   47.8930 C   0  0  0  0  0  0  0  0  0  0  0  0
  1  2  1  0  0  0  0
  1 16  1  0  0  0  0
  3  1  1  0  0  0  0
  4  7  1  0  0  0  0
  4  1  1  0  0  0  0
  4  5  1  0  0  0  0
  6  4  1  0  0  0  0
  7  8  1  0  0  0  0
  8  9  2  0  0  0  0
  8 13  1  0  0  0  0
  9 14  1  0  0  0  0
 10  9  1  0  0  0  0
 11 10  2  0  0  0  0
 12 11  1  0  0  0  0
 12  7  2  0  0  0  0
 15 11  1  0  0  0  0
 16 21  1  0  0  0  0
 17 23  1  0  0  0  0
 18 24  1  0  0  0  0
 18 17  2  0  0  0  0
 19 18  1  0  0  0  0
 20 19  2  0  0  0  0
 20 21  1  0  0  0  0
 21 22  2  0  0  0  0
 22 17  1  0  0  0  0
 25 29  1  0  0  0  0
 25 19  1  0  0  0  0
 26 25  1  0  0  0  0
 27 28  1  0  0  0  0
 27 26  1  0  0  0  0
 28 29  1  0  0  0  0
M  END
>  <minimizedAffinity>
-5.82141304

>  <minimizedRMSD>
0.097887896

$$$$
