
 OpenBabel03272507343D

 32 35  0  0  1  0  0  0  0  0999 V2000
   35.8380   29.1300   49.8020 C   0  0  0  0  0  0  0  0  0  0  0  0
   34.8020   29.6290   50.5570 C   0  0  0  0  0  0  0  0  0  0  0  0
   33.6170   29.0730   50.0580 C   0  0  0  0  0  0  0  0  0  0  0  0
   34.0120   28.2620   49.0180 C   0  0  0  0  0  0  0  0  0  0  0  0
   35.3200   28.3260   48.9020 O   0  0  0  0  0  0  0  0  0  0  0  0
   34.8570   30.3300   51.3990 H   0  0  0  0  0  0  0  0  0  0  0  0
   32.6040   29.2400   50.4090 H   0  0  0  0  0  0  0  0  0  0  0  0
   37.2260   29.4980   50.0440 C   0  0  0  0  0  0  0  0  0  0  0  0
   37.8610   28.9100   50.9250 O   0  0  0  0  0  0  0  0  0  0  0  0
   37.7740   30.5410   49.2230 C   0  0  0  0  0  0  0  0  0  0  0  0
   38.1160   31.7260   49.8530 C   0  0  0  0  0  0  0  0  0  0  0  0
   38.6490   32.7640   49.0830 C   0  0  0  0  0  0  0  0  0  0  0  0
   38.8100   32.5530   47.7330 N   0  0  0  0  0  0  0  0  0  0  0  0
   38.4680   31.3920   47.1590 C   0  0  0  0  0  0  0  0  0  0  0  0
   37.9550   30.3930   47.8900 N   0  0  0  0  0  0  0  0  0  0  0  0
   38.0000   31.9230   50.9220 H   0  0  0  0  0  0  0  0  0  0  0  0
   38.9220   33.6930   49.5480 H   0  0  0  0  0  0  0  0  0  0  0  0
   38.6060   31.2530   46.0880 H   0  0  0  0  0  0  0  0  0  0  0  0
   33.1280   27.4550   48.1780 C   0  0  0  0  0  0  0  0  0  0  0  0
   31.8880   27.4090   48.4700 O   0  0  0  0  0  0  0  0  0  0  0  0
   33.6830   26.6990   47.0050 C   0  0  1  0  0  0  0  0  0  0  0  0
   33.8000   25.1710   47.3600 C   0  0  0  0  0  0  0  0  0  0  0  0
   32.8790   25.6870   46.3190 C   0  0  2  0  0  0  0  0  0  0  0  0
   34.7090   27.0290   46.7380 H   0  0  0  0  0  0  0  0  0  0  0  0
   33.3210   24.8340   48.2910 H   0  0  0  0  0  0  0  0  0  0  0  0
   34.7140   24.6460   47.1090 H   0  0  0  0  0  0  0  0  0  0  0  0
   31.7980   25.6670   46.5130 H   0  0  0  0  0  0  0  0  0  0  0  0
   33.2420   25.4820   44.8470 C   0  0  0  0  0  3  0  0  0  0  0  0
   33.9530   24.1630   44.6390 C   0  0  0  0  0  2  0  0  0  0  0  0
   34.6420   24.4480   43.2970 C   0  0  0  0  0  2  0  0  0  0  0  0
   35.3610   25.7500   43.6770 C   0  0  0  0  0  2  0  0  0  0  0  0
   34.2700   26.5000   44.4130 C   0  0  0  0  0  2  0  0  0  0  0  0
  1  8  1  0  0  0  0
  1  2  2  0  0  0  0
  2  6  1  0  0  0  0
  3  7  1  0  0  0  0
  3  2  1  0  0  0  0
  4  3  2  0  0  0  0
  5  4  1  0  0  0  0
  5  1  1  0  0  0  0
  8  9  2  0  0  0  0
 10 11  1  0  0  0  0
 10  8  1  0  0  0  0
 11 16  1  0  0  0  0
 12 17  1  0  0  0  0
 12 11  2  0  0  0  0
 13 12  1  0  0  0  0
 14 13  2  0  0  0  0
 14 15  1  0  0  0  0
 15 10  2  0  0  0  0
 18 14  1  0  0  0  0
 19 20  2  0  0  0  0
 19  4  1  0  0  0  0
 21 24  1  6  0  0  0
 21 22  1  0  0  0  0
 21 19  1  0  0  0  0
 22 25  1  0  0  0  0
 23 27  1  1  0  0  0
 23 21  1  0  0  0  0
 23 22  1  0  0  0  0
 26 22  1  0  0  0  0
 28 23  1  0  0  0  0
 29 28  1  0  0  0  0
 30 31  1  0  0  0  0
 30 29  1  0  0  0  0
 31 32  1  0  0  0  0
 32 28  1  0  0  0  0
M  END
>  <minimizedAffinity>
-5.04335594

>  <minimizedRMSD>
0.286936373

$$$$
