
 OpenBabel03272501413D

 41 45  0  0  1  0  0  0  0  0999 V2000
   37.1390   26.4370   33.2500 C   0  0  1  0  0  0  0  0  0  0  0  0
   38.1040   26.6790   32.6430 H   0  0  0  0  0  0  0  0  0  0  0  0
   35.7670   29.3810   31.4960 C   0  0  0  0  0  0  0  0  0  0  0  0
   36.2870   28.1470   31.8030 C   0  0  0  0  0  0  0  0  0  0  0  0
   36.4880   27.7130   33.1220 C   0  0  0  0  0  0  0  0  0  0  0  0
   36.1540   28.5400   34.0730 N   0  0  0  0  0  0  0  0  0  0  0  0
   35.6350   29.7700   33.7610 C   0  0  0  0  0  0  0  0  0  0  0  0
   35.4490   30.1790   32.5130 N   0  0  0  0  0  0  0  0  0  0  0  0
   35.6160   29.7050   30.4750 H   0  0  0  0  0  0  0  0  0  0  0  0
   36.5330   27.5220   30.9290 H   0  0  0  0  0  0  0  0  0  0  0  0
   35.2240   30.6900   34.8180 C   0  0  0  0  0  0  0  0  0  0  0  0
   35.9670   31.4450   35.7010 C   0  0  0  0  0  0  0  0  0  0  0  0
   35.3570   32.2500   36.5820 C   0  0  0  0  0  0  0  0  0  0  0  0
   33.9610   32.2630   36.5350 C   0  0  0  0  0  0  0  0  0  0  0  0
   33.5420   31.0810   35.1860 S   0  0  0  0  0  0  0  0  0  0  0  0
   37.0470   31.3400   35.6310 H   0  0  0  0  0  0  0  0  0  0  0  0
   35.8270   32.8750   37.3060 H   0  0  0  0  0  0  0  0  0  0  0  0
   32.9240   32.9850   37.3040 C   0  0  0  0  0  3  0  0  0  0  0  0
   31.6910   33.3080   36.5010 C   0  0  0  0  0  2  0  0  0  0  0  0
   31.0650   34.4250   37.3140 C   0  0  0  0  0  2  0  0  0  0  0  0
   32.2400   35.2780   37.6740 C   0  0  0  0  0  2  0  0  0  0  0  0
   33.4020   34.3220   37.8180 C   0  0  0  0  0  2  0  0  0  0  0  0
   37.6150   26.0680   34.6430 C   0  0  2  0  0  0  0  0  0  0  0  0
   39.1380   26.1820   34.6280 C   0  0  0  0  0  0  0  0  0  0  0  0
   38.4260   24.8930   34.8490 C   0  0  1  0  0  0  0  0  0  0  0  0
   37.0770   26.5360   35.4680 H   0  0  0  0  0  0  0  0  0  0  0  0
   39.7430   26.2070   33.7290 H   0  0  0  0  0  0  0  0  0  0  0  0
   39.5530   26.7220   35.4990 H   0  0  0  0  0  0  0  0  0  0  0  0
   38.3170   24.1240   34.0560 H   0  0  0  0  0  0  0  0  0  0  0  0
   38.7140   24.2750   36.1500 C   0  0  0  0  0  0  0  0  0  0  0  0
   37.9090   24.6100   37.2090 C   0  0  0  0  0  0  0  0  0  0  0  0
   38.1850   23.9930   38.4070 C   0  0  0  0  0  0  0  0  0  0  0  0
   39.1940   23.0890   38.5790 C   0  0  0  0  0  0  0  0  0  0  0  0
   39.9930   22.7710   37.4840 C   0  0  0  0  0  0  0  0  0  0  0  0
   39.7370   23.3650   36.3060 N   0  0  0  0  0  0  0  0  0  0  0  0
   37.1060   25.3070   37.1450 H   0  0  0  0  0  0  0  0  0  0  0  0
   37.6140   24.1800   39.3160 H   0  0  0  0  0  0  0  0  0  0  0  0
   39.4630   22.5710   39.4880 H   0  0  0  0  0  0  0  0  0  0  0  0
   40.8230   22.0750   37.4760 H   0  0  0  0  0  0  0  0  0  0  0  0
   36.8060   25.4090   32.5270 O   0  0  0  0  0  0  0  0  0  0  0  0
   35.8930   25.4400   32.2020 H   0  0  0  0  0  0  0  0  0  0  0  0
  1  2  1  6  0  0  0
  1 23  1  0  0  0  0
  3  4  2  0  0  0  0
  3  8  1  0  0  0  0
  4  5  1  0  0  0  0
  5  1  1  0  0  0  0
  5  6  2  0  0  0  0
  7  6  1  0  0  0  0
  7 11  1  0  0  0  0
  8  7  2  0  0  0  0
  9  3  1  0  0  0  0
 10  4  1  0  0  0  0
 11 15  1  0  0  0  0
 11 12  2  0  0  0  0
 12 13  1  0  0  0  0
 13 17  1  0  0  0  0
 14 13  2  0  0  0  0
 14 18  1  0  0  0  0
 15 14  1  0  0  0  0
 16 12  1  0  0  0  0
 18 22  1  0  0  0  0
 19 18  1  0  0  0  0
 19 20  1  0  0  0  0
 20 21  1  0  0  0  0
 21 22  1  0  0  0  0
 23 25  1  0  0  0  0
 23 26  1  1  0  0  0
 24 23  1  0  0  0  0
 24 25  1  0  0  0  0
 24 28  1  0  0  0  0
 25 29  1  6  0  0  0
 25 30  1  0  0  0  0
 27 24  1  0  0  0  0
 30 35  2  0  0  0  0
 30 31  1  0  0  0  0
 31 32  2  0  0  0  0
 32 33  1  0  0  0  0
 32 37  1  0  0  0  0
 33 38  1  0  0  0  0
 34 33  2  0  0  0  0
 35 34  1  0  0  0  0
 36 31  1  0  0  0  0
 39 34  1  0  0  0  0
 40  1  1  0  0  0  0
 41 40  1  0  0  0  0
M  END
>  <minimizedAffinity>
-6.52929306

$$$$

 OpenBabel03272501413D

 41 45  0  0  1  0  0  0  0  0999 V2000
   38.9010   24.1620   32.0800 C   0  0  1  0  0  0  0  0  0  0  0  0
   39.6630   24.9690   31.7230 H   0  0  0  0  0  0  0  0  0  0  0  0
   35.4630   24.8770   30.9400 C   0  0  0  0  0  0  0  0  0  0  0  0
   36.6500   24.2650   31.2620 C   0  0  0  0  0  0  0  0  0  0  0  0
   37.6950   24.9310   31.9200 C   0  0  0  0  0  0  0  0  0  0  0  0
   37.4970   26.1820   32.2270 N   0  0  0  0  0  0  0  0  0  0  0  0
   36.3110   26.7880   31.9040 C   0  0  0  0  0  0  0  0  0  0  0  0
   35.3250   26.1570   31.2790 N   0  0  0  0  0  0  0  0  0  0  0  0
   34.6630   24.3540   30.4330 H   0  0  0  0  0  0  0  0  0  0  0  0
   36.7160   23.2060   30.9640 H   0  0  0  0  0  0  0  0  0  0  0  0
   36.0660   28.1790   32.2740 C   0  0  0  0  0  0  0  0  0  0  0  0
   35.9270   29.3110   31.5010 C   0  0  0  0  0  0  0  0  0  0  0  0
   35.6760   30.4960   32.0740 C   0  0  0  0  0  0  0  0  0  0  0  0
   35.5700   30.4910   33.4680 C   0  0  0  0  0  0  0  0  0  0  0  0
   35.8420   28.7320   33.9370 S   0  0  0  0  0  0  0  0  0  0  0  0
   36.0330   29.1750   30.4270 H   0  0  0  0  0  0  0  0  0  0  0  0
   35.5500   31.4310   31.5780 H   0  0  0  0  0  0  0  0  0  0  0  0
   35.3090   31.5460   34.4710 C   0  0  0  0  0  3  0  0  0  0  0  0
   35.9780   31.2980   35.7980 C   0  0  0  0  0  2  0  0  0  0  0  0
   35.1760   32.1840   36.7300 C   0  0  0  0  0  2  0  0  0  0  0  0
   33.7650   31.9420   36.2950 C   0  0  0  0  0  2  0  0  0  0  0  0
   33.8430   31.6840   34.8070 C   0  0  0  0  0  2  0  0  0  0  0  0
   39.2960   23.8310   33.5070 C   0  0  2  0  0  0  0  0  0  0  0  0
   38.7450   22.4360   33.7990 C   0  0  0  0  0  0  0  0  0  0  0  0
   38.2840   23.6550   34.5200 C   0  0  1  0  0  0  0  0  0  0  0  0
   40.3330   24.0350   33.7730 H   0  0  0  0  0  0  0  0  0  0  0  0
   37.9730   21.9470   33.2170 H   0  0  0  0  0  0  0  0  0  0  0  0
   39.4710   21.7650   34.2910 H   0  0  0  0  0  0  0  0  0  0  0  0
   37.3220   24.1600   34.2910 H   0  0  0  0  0  0  0  0  0  0  0  0
   38.5280   23.6120   35.9680 C   0  0  0  0  0  0  0  0  0  0  0  0
   37.6790   24.3200   36.7800 C   0  0  0  0  0  0  0  0  0  0  0  0
   37.9150   24.2360   38.1330 C   0  0  0  0  0  0  0  0  0  0  0  0
   38.9250   23.5000   38.6820 C   0  0  0  0  0  0  0  0  0  0  0  0
   39.7700   22.7940   37.8300 C   0  0  0  0  0  0  0  0  0  0  0  0
   39.5540   22.8650   36.5050 N   0  0  0  0  0  0  0  0  0  0  0  0
   36.8710   24.9130   36.4190 H   0  0  0  0  0  0  0  0  0  0  0  0
   37.3060   24.7540   38.8750 H   0  0  0  0  0  0  0  0  0  0  0  0
   39.1640   23.3930   39.7310 H   0  0  0  0  0  0  0  0  0  0  0  0
   40.6080   22.1740   38.1250 H   0  0  0  0  0  0  0  0  0  0  0  0
   39.2740   23.2650   31.2170 O   0  0  0  0  0  0  0  0  0  0  0  0
   38.5440   22.8890   30.7020 H   0  0  0  0  0  0  0  0  0  0  0  0
  1  2  1  6  0  0  0
  1 23  1  0  0  0  0
  3  4  2  0  0  0  0
  3  8  1  0  0  0  0
  4  5  1  0  0  0  0
  5  1  1  0  0  0  0
  5  6  2  0  0  0  0
  7  6  1  0  0  0  0
  7 11  1  0  0  0  0
  8  7  2  0  0  0  0
  9  3  1  0  0  0  0
 10  4  1  0  0  0  0
 11 15  1  0  0  0  0
 12 13  1  0  0  0  0
 12 11  2  0  0  0  0
 13 14  2  0  0  0  0
 14 15  1  0  0  0  0
 14 18  1  0  0  0  0
 16 12  1  0  0  0  0
 17 13  1  0  0  0  0
 18 22  1  0  0  0  0
 18 19  1  0  0  0  0
 19 20  1  0  0  0  0
 21 20  1  0  0  0  0
 22 21  1  0  0  0  0
 23 26  1  1  0  0  0
 23 24  1  0  0  0  0
 23 25  1  0  0  0  0
 24 28  1  0  0  0  0
 24 25  1  0  0  0  0
 25 29  1  6  0  0  0
 25 30  1  0  0  0  0
 27 24  1  0  0  0  0
 30 35  2  0  0  0  0
 30 31  1  0  0  0  0
 31 32  2  0  0  0  0
 32 33  1  0  0  0  0
 32 37  1  0  0  0  0
 33 38  1  0  0  0  0
 34 39  1  0  0  0  0
 34 33  2  0  0  0  0
 35 34  1  0  0  0  0
 36 31  1  0  0  0  0
 40  1  1  0  0  0  0
 41 40  1  0  0  0  0
M  END
>  <minimizedAffinity>
-6.45290947

$$$$

 OpenBabel03272501413D

 41 45  0  0  1  0  0  0  0  0999 V2000
   36.9650   25.6710   31.3510 C   0  0  1  0  0  0  0  0  0  0  0  0
   37.9930   25.9170   30.8610 H   0  0  0  0  0  0  0  0  0  0  0  0
   37.3060   27.3430   34.6260 C   0  0  0  0  0  0  0  0  0  0  0  0
   36.9420   27.0010   33.3460 C   0  0  0  0  0  0  0  0  0  0  0  0
   37.3550   25.8110   32.7290 C   0  0  0  0  0  0  0  0  0  0  0  0
   38.1130   25.0150   33.4310 N   0  0  0  0  0  0  0  0  0  0  0  0
   38.4730   25.3600   34.7070 C   0  0  0  0  0  0  0  0  0  0  0  0
   38.0840   26.4890   35.2870 N   0  0  0  0  0  0  0  0  0  0  0  0
   36.9820   28.2640   35.0910 H   0  0  0  0  0  0  0  0  0  0  0  0
   36.2970   27.7380   32.8400 H   0  0  0  0  0  0  0  0  0  0  0  0
   39.2930   24.4600   35.5150 C   0  0  0  0  0  0  0  0  0  0  0  0
   38.9940   23.7350   36.6480 C   0  0  0  0  0  0  0  0  0  0  0  0
   39.9200   22.9440   37.2080 C   0  0  0  0  0  0  0  0  0  0  0  0
   41.1650   22.9140   36.5740 C   0  0  0  0  0  0  0  0  0  0  0  0
   40.9730   24.0590   35.1450 S   0  0  0  0  0  0  0  0  0  0  0  0
   37.9860   23.8500   37.0400 H   0  0  0  0  0  0  0  0  0  0  0  0
   39.8010   22.3410   38.0790 H   0  0  0  0  0  0  0  0  0  0  0  0
   42.4290   22.1990   36.8500 C   0  0  0  0  0  3  0  0  0  0  0  0
   43.2390   21.9020   35.6140 C   0  0  0  0  0  2  0  0  0  0  0  0
   44.1480   20.7860   36.0890 C   0  0  0  0  0  2  0  0  0  0  0  0
   43.2250   19.9110   36.8770 C   0  0  0  0  0  2  0  0  0  0  0  0
   42.2100   20.8490   37.4920 C   0  0  0  0  0  2  0  0  0  0  0  0
   36.6210   24.2650   30.8950 C   0  0  2  0  0  0  0  0  0  0  0  0
   35.1220   24.0870   31.1260 C   0  0  0  0  0  0  0  0  0  0  0  0
   36.1520   23.2860   31.8450 C   0  0  1  0  0  0  0  0  0  0  0  0
   37.0270   23.9670   29.9290 H   0  0  0  0  0  0  0  0  0  0  0  0
   34.5210   24.7170   31.7710 H   0  0  0  0  0  0  0  0  0  0  0  0
   34.5900   23.6330   30.2710 H   0  0  0  0  0  0  0  0  0  0  0  0
   36.4500   23.4940   32.8940 H   0  0  0  0  0  0  0  0  0  0  0  0
   36.0530   21.8410   31.5990 C   0  0  0  0  0  0  0  0  0  0  0  0
   35.0310   21.1580   32.2080 C   0  0  0  0  0  0  0  0  0  0  0  0
   34.9480   19.8120   31.9350 C   0  0  0  0  0  0  0  0  0  0  0  0
   35.8110   19.1510   31.1100 C   0  0  0  0  0  0  0  0  0  0  0  0
   36.8380   19.8740   30.5080 C   0  0  0  0  0  0  0  0  0  0  0  0
   36.9350   21.1900   30.7640 N   0  0  0  0  0  0  0  0  0  0  0  0
   34.3240   21.6110   32.8620 H   0  0  0  0  0  0  0  0  0  0  0  0
   34.1780   19.1670   32.3610 H   0  0  0  0  0  0  0  0  0  0  0  0
   35.8010   18.1000   30.8550 H   0  0  0  0  0  0  0  0  0  0  0  0
   37.5900   19.4810   29.8350 H   0  0  0  0  0  0  0  0  0  0  0  0
   36.3110   26.5970   30.7160 O   0  0  0  0  0  0  0  0  0  0  0  0
   35.7910   27.1760   31.2940 H   0  0  0  0  0  0  0  0  0  0  0  0
  1  2  1  6  0  0  0
  1  5  1  0  0  0  0
  3  9  1  0  0  0  0
  3  8  1  0  0  0  0
  4  3  2  0  0  0  0
  5  4  1  0  0  0  0
  5  6  2  0  0  0  0
  6  7  1  0  0  0  0
  7  8  2  0  0  0  0
  7 11  1  0  0  0  0
 10  4  1  0  0  0  0
 11 12  2  0  0  0  0
 12 16  1  0  0  0  0
 12 13  1  0  0  0  0
 13 17  1  0  0  0  0
 14 18  1  0  0  0  0
 14 13  2  0  0  0  0
 15 11  1  0  0  0  0
 15 14  1  0  0  0  0
 18 22  1  0  0  0  0
 19 20  1  0  0  0  0
 19 18  1  0  0  0  0
 20 21  1  0  0  0  0
 21 22  1  0  0  0  0
 23 26  1  6  0  0  0
 23 24  1  0  0  0  0
 23  1  1  0  0  0  0
 23 25  1  0  0  0  0
 24 27  1  0  0  0  0
 24 25  1  0  0  0  0
 25 29  1  1  0  0  0
 28 24  1  0  0  0  0
 30 25  1  0  0  0  0
 30 31  1  0  0  0  0
 31 36  1  0  0  0  0
 32 31  2  0  0  0  0
 32 37  1  0  0  0  0
 33 32  1  0  0  0  0
 34 35  1  0  0  0  0
 34 33  2  0  0  0  0
 35 30  2  0  0  0  0
 38 33  1  0  0  0  0
 39 34  1  0  0  0  0
 40 41  1  0  0  0  0
 40  1  1  0  0  0  0
M  END
>  <minimizedAffinity>
-6.29584169

$$$$

 OpenBabel03272501413D

 41 45  0  0  1  0  0  0  0  0999 V2000
   37.8270   26.7370   33.0760 C   0  0  1  0  0  0  0  0  0  0  0  0
   38.8050   27.3170   32.8200 H   0  0  0  0  0  0  0  0  0  0  0  0
   36.1000   29.4130   31.2060 C   0  0  0  0  0  0  0  0  0  0  0  0
   36.8640   28.3270   31.5620 C   0  0  0  0  0  0  0  0  0  0  0  0
   36.8900   27.8090   32.8650 C   0  0  0  0  0  0  0  0  0  0  0  0
   36.1440   28.4060   33.7520 N   0  0  0  0  0  0  0  0  0  0  0  0
   35.3840   29.4880   33.3930 C   0  0  0  0  0  0  0  0  0  0  0  0
   35.3630   29.9770   32.1600 N   0  0  0  0  0  0  0  0  0  0  0  0
   36.0870   29.8030   30.1980 H   0  0  0  0  0  0  0  0  0  0  0  0
   37.4550   27.8930   30.7390 H   0  0  0  0  0  0  0  0  0  0  0  0
   34.5180   30.1410   34.3700 C   0  0  0  0  0  0  0  0  0  0  0  0
   33.2470   29.8310   34.8050 C   0  0  0  0  0  0  0  0  0  0  0  0
   32.6530   30.5780   35.7460 C   0  0  0  0  0  0  0  0  0  0  0  0
   33.3980   31.6550   36.2340 C   0  0  0  0  0  0  0  0  0  0  0  0
   34.9830   31.5690   35.3010 S   0  0  0  0  0  0  0  0  0  0  0  0
   32.7790   28.9660   34.3410 H   0  0  0  0  0  0  0  0  0  0  0  0
   31.6790   30.4330   36.1550 H   0  0  0  0  0  0  0  0  0  0  0  0
   33.1310   32.7000   37.2450 C   0  0  0  0  0  3  0  0  0  0  0  0
   31.9830   33.6090   36.8880 C   0  0  0  0  0  2  0  0  0  0  0  0
   32.2470   34.8160   37.7650 C   0  0  0  0  0  2  0  0  0  0  0  0
   33.7230   35.0180   37.6250 C   0  0  0  0  0  2  0  0  0  0  0  0
   34.3030   33.6330   37.4460 C   0  0  0  0  0  2  0  0  0  0  0  0
   37.9920   26.2690   34.5100 C   0  0  2  0  0  0  0  0  0  0  0  0
   39.4240   26.6100   34.9170 C   0  0  0  0  0  0  0  0  0  0  0  0
   38.9210   25.2120   34.8270 C   0  0  1  0  0  0  0  0  0  0  0  0
   37.1890   26.5410   35.1940 H   0  0  0  0  0  0  0  0  0  0  0  0
   40.2230   26.8400   34.2210 H   0  0  0  0  0  0  0  0  0  0  0  0
   39.5030   27.0890   35.9090 H   0  0  0  0  0  0  0  0  0  0  0  0
   39.1540   24.5430   33.9730 H   0  0  0  0  0  0  0  0  0  0  0  0
   38.9760   24.4820   36.1010 C   0  0  0  0  0  0  0  0  0  0  0  0
   38.0590   24.8130   37.0670 C   0  0  0  0  0  0  0  0  0  0  0  0
   38.1160   24.0920   38.2370 C   0  0  0  0  0  0  0  0  0  0  0  0
   39.0180   23.0940   38.4690 C   0  0  0  0  0  0  0  0  0  0  0  0
   39.9360   22.7830   37.4690 C   0  0  0  0  0  0  0  0  0  0  0  0
   39.8940   23.4780   36.3190 N   0  0  0  0  0  0  0  0  0  0  0  0
   37.3290   25.5790   36.9520 H   0  0  0  0  0  0  0  0  0  0  0  0
   37.4400   24.2650   39.0740 H   0  0  0  0  0  0  0  0  0  0  0  0
   39.1170   22.4920   39.3620 H   0  0  0  0  0  0  0  0  0  0  0  0
   40.7030   22.0200   37.5160 H   0  0  0  0  0  0  0  0  0  0  0  0
   38.0190   25.7980   32.1980 O   0  0  0  0  0  0  0  0  0  0  0  0
   37.2620   25.6510   31.6110 H   0  0  0  0  0  0  0  0  0  0  0  0
  1  2  1  6  0  0  0
  1 23  1  0  0  0  0
  3  4  2  0  0  0  0
  3  8  1  0  0  0  0
  4  5  1  0  0  0  0
  5  1  1  0  0  0  0
  5  6  2  0  0  0  0
  7  6  1  0  0  0  0
  7 11  1  0  0  0  0
  8  7  2  0  0  0  0
  9  3  1  0  0  0  0
 10  4  1  0  0  0  0
 11 12  2  0  0  0  0
 11 15  1  0  0  0  0
 12 13  1  0  0  0  0
 13 17  1  0  0  0  0
 13 14  2  0  0  0  0
 14 18  1  0  0  0  0
 15 14  1  0  0  0  0
 16 12  1  0  0  0  0
 18 22  1  0  0  0  0
 19 18  1  0  0  0  0
 19 20  1  0  0  0  0
 21 20  1  0  0  0  0
 22 21  1  0  0  0  0
 23 25  1  0  0  0  0
 23 24  1  0  0  0  0
 23 26  1  1  0  0  0
 24 28  1  0  0  0  0
 25 29  1  6  0  0  0
 25 24  1  0  0  0  0
 25 30  1  0  0  0  0
 27 24  1  0  0  0  0
 30 35  2  0  0  0  0
 30 31  1  0  0  0  0
 31 32  2  0  0  0  0
 32 33  1  0  0  0  0
 32 37  1  0  0  0  0
 33 38  1  0  0  0  0
 34 39  1  0  0  0  0
 34 33  2  0  0  0  0
 35 34  1  0  0  0  0
 36 31  1  0  0  0  0
 40  1  1  0  0  0  0
 41 40  1  0  0  0  0
M  END
>  <minimizedAffinity>
-6.24891376

$$$$

 OpenBabel03272501413D

 41 45  0  0  1  0  0  0  0  0999 V2000
   35.9320   27.9390   31.7900 C   0  0  1  0  0  0  0  0  0  0  0  0
   34.8190   27.6610   31.5850 H   0  0  0  0  0  0  0  0  0  0  0  0
   36.3200   24.3050   31.2620 C   0  0  0  0  0  0  0  0  0  0  0  0
   36.0160   25.6370   31.1230 C   0  0  0  0  0  0  0  0  0  0  0  0
   36.4330   26.6130   32.0410 C   0  0  0  0  0  0  0  0  0  0  0  0
   37.1410   26.2040   33.0560 N   0  0  0  0  0  0  0  0  0  0  0  0
   37.4430   24.8740   33.1900 C   0  0  0  0  0  0  0  0  0  0  0  0
   37.0440   23.9530   32.3220 N   0  0  0  0  0  0  0  0  0  0  0  0
   35.9940   23.5610   30.5480 H   0  0  0  0  0  0  0  0  0  0  0  0
   35.4170   25.8800   30.2300 H   0  0  0  0  0  0  0  0  0  0  0  0
   38.2650   24.4100   34.3040 C   0  0  0  0  0  0  0  0  0  0  0  0
   37.9660   24.2340   35.6380 C   0  0  0  0  0  0  0  0  0  0  0  0
   38.8950   23.7630   36.4820 C   0  0  0  0  0  0  0  0  0  0  0  0
   40.1420   23.4750   35.9230 C   0  0  0  0  0  0  0  0  0  0  0  0
   39.9490   23.9010   34.1420 S   0  0  0  0  0  0  0  0  0  0  0  0
   36.9560   24.4980   35.9430 H   0  0  0  0  0  0  0  0  0  0  0  0
   38.7760   23.5880   37.5270 H   0  0  0  0  0  0  0  0  0  0  0  0
   41.4100   22.9540   36.4780 C   0  0  0  0  0  3  0  0  0  0  0  0
   42.2990   22.3040   35.4500 C   0  0  0  0  0  2  0  0  0  0  0  0
   43.2130   21.4550   36.3100 C   0  0  0  0  0  2  0  0  0  0  0  0
   42.2730   20.8470   37.3030 C   0  0  0  0  0  2  0  0  0  0  0  0
   41.1950   21.8850   37.5230 C   0  0  0  0  0  2  0  0  0  0  0  0
   35.9060   28.8770   32.9820 C   0  0  2  0  0  0  0  0  0  0  0  0
   34.4400   29.2280   33.2290 C   0  0  0  0  0  0  0  0  0  0  0  0
   35.4570   30.2390   32.8260 C   0  0  1  0  0  0  0  0  0  0  0  0
   36.5090   28.5750   33.8380 H   0  0  0  0  0  0  0  0  0  0  0  0
   33.6450   29.0860   32.5060 H   0  0  0  0  0  0  0  0  0  0  0  0
   34.1390   29.1630   34.2900 H   0  0  0  0  0  0  0  0  0  0  0  0
   35.5400   30.6270   31.7900 H   0  0  0  0  0  0  0  0  0  0  0  0
   35.6420   31.3140   33.8100 C   0  0  0  0  0  0  0  0  0  0  0  0
   35.6060   30.9760   35.1400 C   0  0  0  0  0  0  0  0  0  0  0  0
   35.8120   31.9990   36.0370 C   0  0  0  0  0  0  0  0  0  0  0  0
   36.0430   33.2930   35.6700 C   0  0  0  0  0  0  0  0  0  0  0  0
   36.0730   33.6030   34.3120 C   0  0  0  0  0  0  0  0  0  0  0  0
   35.8730   32.6160   33.4220 N   0  0  0  0  0  0  0  0  0  0  0  0
   35.4310   29.9870   35.4950 H   0  0  0  0  0  0  0  0  0  0  0  0
   35.8070   31.8510   37.1170 H   0  0  0  0  0  0  0  0  0  0  0  0
   36.2110   34.1400   36.3210 H   0  0  0  0  0  0  0  0  0  0  0  0
   36.2440   34.5820   33.8810 H   0  0  0  0  0  0  0  0  0  0  0  0
   36.1070   28.5460   30.6550 O   0  0  0  0  0  0  0  0  0  0  0  0
   36.8830   28.2370   30.1620 H   0  0  0  0  0  0  0  0  0  0  0  0
  1  2  1  6  0  0  0
  1  5  1  0  0  0  0
  1 23  1  0  0  0  0
  3  8  1  0  0  0  0
  4  3  2  0  0  0  0
  4  5  1  0  0  0  0
  5  6  2  0  0  0  0
  6  7  1  0  0  0  0
  7 11  1  0  0  0  0
  8  7  2  0  0  0  0
  9  3  1  0  0  0  0
 10  4  1  0  0  0  0
 11 12  2  0  0  0  0
 12 16  1  0  0  0  0
 12 13  1  0  0  0  0
 13 17  1  0  0  0  0
 14 18  1  0  0  0  0
 14 13  2  0  0  0  0
 15 11  1  0  0  0  0
 15 14  1  0  0  0  0
 18 22  1  0  0  0  0
 19 20  1  0  0  0  0
 19 18  1  0  0  0  0
 20 21  1  0  0  0  0
 21 22  1  0  0  0  0
 23 24  1  0  0  0  0
 23 26  1  1  0  0  0
 24 28  1  0  0  0  0
 25 29  1  6  0  0  0
 25 23  1  0  0  0  0
 25 24  1  0  0  0  0
 25 30  1  0  0  0  0
 27 24  1  0  0  0  0
 30 31  1  0  0  0  0
 31 36  1  0  0  0  0
 31 32  2  0  0  0  0
 32 37  1  0  0  0  0
 33 32  1  0  0  0  0
 33 38  1  0  0  0  0
 34 33  2  0  0  0  0
 35 30  2  0  0  0  0
 35 34  1  0  0  0  0
 39 34  1  0  0  0  0
 40  1  1  0  0  0  0
 41 40  1  0  0  0  0
M  END
>  <minimizedAffinity>
-6.06853199

$$$$

 OpenBabel03272501413D

 41 45  0  0  1  0  0  0  0  0999 V2000
   35.4840   29.3760   31.7600 C   0  0  1  0  0  0  0  0  0  0  0  0
   34.4770   28.8100   31.6080 H   0  0  0  0  0  0  0  0  0  0  0  0
   38.4020   27.6820   30.2610 C   0  0  0  0  0  0  0  0  0  0  0  0
   37.4950   28.6160   30.7000 C   0  0  0  0  0  0  0  0  0  0  0  0
   36.3790   28.2840   31.4820 C   0  0  0  0  0  0  0  0  0  0  0  0
   36.2270   27.0270   31.7900 N   0  0  0  0  0  0  0  0  0  0  0  0
   37.1340   26.0990   31.3500 C   0  0  0  0  0  0  0  0  0  0  0  0
   38.1870   26.4150   30.6070 N   0  0  0  0  0  0  0  0  0  0  0  0
   39.2600   27.9490   29.6580 H   0  0  0  0  0  0  0  0  0  0  0  0
   37.7160   29.6510   30.3900 H   0  0  0  0  0  0  0  0  0  0  0  0
   36.9920   24.6920   31.7180 C   0  0  0  0  0  0  0  0  0  0  0  0
   37.7560   23.8900   32.5380 C   0  0  0  0  0  0  0  0  0  0  0  0
   37.4080   22.6120   32.7480 C   0  0  0  0  0  0  0  0  0  0  0  0
   36.2530   22.1770   32.0940 C   0  0  0  0  0  0  0  0  0  0  0  0
   35.6740   23.6550   31.1630 S   0  0  0  0  0  0  0  0  0  0  0  0
   38.6310   24.3550   32.9850 H   0  0  0  0  0  0  0  0  0  0  0  0
   37.9200   21.9040   33.3590 H   0  0  0  0  0  0  0  0  0  0  0  0
   35.5360   20.8840   32.0500 C   0  0  0  0  0  3  0  0  0  0  0  0
   35.6180   20.1020   33.3360 C   0  0  0  0  0  2  0  0  0  0  0  0
   35.2780   18.6980   32.8770 C   0  0  0  0  0  2  0  0  0  0  0  0
   36.0560   18.5610   31.6070 C   0  0  0  0  0  2  0  0  0  0  0  0
   36.0850   19.9460   31.0010 C   0  0  0  0  0  2  0  0  0  0  0  0
   35.4610   29.8720   33.1940 C   0  0  2  0  0  0  0  0  0  0  0  0
   34.1260   29.4270   33.7880 C   0  0  0  0  0  0  0  0  0  0  0  0
   34.4940   30.8590   33.6080 C   0  0  1  0  0  0  0  0  0  0  0  0
   36.3640   29.6860   33.7740 H   0  0  0  0  0  0  0  0  0  0  0  0
   33.2690   29.1130   33.2040 H   0  0  0  0  0  0  0  0  0  0  0  0
   34.2140   28.9720   34.7900 H   0  0  0  0  0  0  0  0  0  0  0  0
   34.0990   31.4810   32.7780 H   0  0  0  0  0  0  0  0  0  0  0  0
   34.5390   31.6190   34.8640 C   0  0  0  0  0  0  0  0  0  0  0  0
   35.4310   32.6570   34.9510 C   0  0  0  0  0  0  0  0  0  0  0  0
   35.4290   33.3690   36.1290 C   0  0  0  0  0  0  0  0  0  0  0  0
   34.6010   33.0930   37.1790 C   0  0  0  0  0  0  0  0  0  0  0  0
   33.7070   32.0320   37.0590 C   0  0  0  0  0  0  0  0  0  0  0  0
   33.6970   31.3260   35.9150 N   0  0  0  0  0  0  0  0  0  0  0  0
   36.1050   32.9260   34.1710 H   0  0  0  0  0  0  0  0  0  0  0  0
   36.0930   34.2130   36.3130 H   0  0  0  0  0  0  0  0  0  0  0  0
   34.5490   33.6100   38.1270 H   0  0  0  0  0  0  0  0  0  0  0  0
   32.9970   31.7030   37.8070 H   0  0  0  0  0  0  0  0  0  0  0  0
   35.2250   30.3030   30.8860 O   0  0  0  0  0  0  0  0  0  0  0  0
   35.9260   30.4270   30.2280 H   0  0  0  0  0  0  0  0  0  0  0  0
  1  2  1  6  0  0  0
  1 23  1  0  0  0  0
  3  8  2  0  0  0  0
  3  4  1  0  0  0  0
  4  5  2  0  0  0  0
  5  1  1  0  0  0  0
  5  6  1  0  0  0  0
  7 11  1  0  0  0  0
  7  6  2  0  0  0  0
  8  7  1  0  0  0  0
  9  3  1  0  0  0  0
 10  4  1  0  0  0  0
 11 12  2  0  0  0  0
 12 13  1  0  0  0  0
 12 16  1  0  0  0  0
 13 17  1  0  0  0  0
 14 13  2  0  0  0  0
 15 11  1  0  0  0  0
 15 14  1  0  0  0  0
 18 14  1  0  0  0  0
 18 19  1  0  0  0  0
 20 19  1  0  0  0  0
 21 20  1  0  0  0  0
 22 21  1  0  0  0  0
 22 18  1  0  0  0  0
 23 25  1  0  0  0  0
 23 26  1  1  0  0  0
 23 24  1  0  0  0  0
 24 28  1  0  0  0  0
 25 29  1  6  0  0  0
 25 24  1  0  0  0  0
 25 30  1  0  0  0  0
 27 24  1  0  0  0  0
 30 31  2  0  0  0  0
 30 35  1  0  0  0  0
 31 32  1  0  0  0  0
 32 37  1  0  0  0  0
 32 33  2  0  0  0  0
 33 38  1  0  0  0  0
 34 33  1  0  0  0  0
 34 39  1  0  0  0  0
 35 34  2  0  0  0  0
 36 31  1  0  0  0  0
 40  1  1  0  0  0  0
 41 40  1  0  0  0  0
M  END
>  <minimizedAffinity>
-5.99548244

$$$$

 OpenBabel03272501413D

 41 45  0  0  1  0  0  0  0  0999 V2000
   38.9490   26.2360   32.4250 C   0  0  1  0  0  0  0  0  0  0  0  0
   39.9240   26.8750   32.4320 H   0  0  0  0  0  0  0  0  0  0  0  0
   37.5680   28.2870   29.6830 C   0  0  0  0  0  0  0  0  0  0  0  0
   38.2490   27.3480   30.4200 C   0  0  0  0  0  0  0  0  0  0  0  0
   38.0770   27.1970   31.8040 C   0  0  0  0  0  0  0  0  0  0  0  0
   37.2250   27.9960   32.3840 N   0  0  0  0  0  0  0  0  0  0  0  0
   36.5490   28.9300   31.6440 C   0  0  0  0  0  0  0  0  0  0  0  0
   36.7150   29.0730   30.3360 N   0  0  0  0  0  0  0  0  0  0  0  0
   37.7080   28.3940   28.6160 H   0  0  0  0  0  0  0  0  0  0  0  0
   38.9410   26.7200   29.8360 H   0  0  0  0  0  0  0  0  0  0  0  0
   35.5670   29.8070   32.2770 C   0  0  0  0  0  0  0  0  0  0  0  0
   34.6660   30.6980   31.7350 C   0  0  0  0  0  0  0  0  0  0  0  0
   33.8330   31.3850   32.5290 C   0  0  0  0  0  0  0  0  0  0  0  0
   33.9460   31.1330   33.8990 C   0  0  0  0  0  0  0  0  0  0  0  0
   35.2880   29.8790   34.0200 S   0  0  0  0  0  0  0  0  0  0  0  0
   34.6830   30.7990   30.6520 H   0  0  0  0  0  0  0  0  0  0  0  0
   33.1000   32.0960   32.2220 H   0  0  0  0  0  0  0  0  0  0  0  0
   33.2430   31.6570   35.0900 C   0  0  0  0  0  3  0  0  0  0  0  0
   34.1690   32.0740   36.2040 C   0  0  0  0  0  2  0  0  0  0  0  0
   33.2430   32.0720   37.4050 C   0  0  0  0  0  2  0  0  0  0  0  0
   32.4530   30.8150   37.2190 C   0  0  0  0  0  2  0  0  0  0  0  0
   32.3250   30.6390   35.7230 C   0  0  0  0  0  2  0  0  0  0  0  0
   38.6600   25.9150   33.8800 C   0  0  2  0  0  0  0  0  0  0  0  0
   39.7800   26.5550   34.6980 C   0  0  0  0  0  0  0  0  0  0  0  0
   39.5640   25.0830   34.6350 C   0  0  1  0  0  0  0  0  0  0  0  0
   37.6330   26.0770   34.2070 H   0  0  0  0  0  0  0  0  0  0  0  0
   40.7290   26.8830   34.2900 H   0  0  0  0  0  0  0  0  0  0  0  0
   39.4220   27.1120   35.5820 H   0  0  0  0  0  0  0  0  0  0  0  0
   40.1900   24.4110   34.0110 H   0  0  0  0  0  0  0  0  0  0  0  0
   39.2710   24.4730   35.9390 C   0  0  0  0  0  0  0  0  0  0  0  0
   38.2040   24.9640   36.6480 C   0  0  0  0  0  0  0  0  0  0  0  0
   37.9370   24.3530   37.8520 C   0  0  0  0  0  0  0  0  0  0  0  0
   38.6650   23.3130   38.3520 C   0  0  0  0  0  0  0  0  0  0  0  0
   39.7430   22.8390   37.6080 C   0  0  0  0  0  0  0  0  0  0  0  0
   40.0180   23.4240   36.4300 N   0  0  0  0  0  0  0  0  0  0  0  0
   37.5950   25.7730   36.3170 H   0  0  0  0  0  0  0  0  0  0  0  0
   37.1160   24.6570   38.5010 H   0  0  0  0  0  0  0  0  0  0  0  0
   38.5090   22.7920   39.2860 H   0  0  0  0  0  0  0  0  0  0  0  0
   40.4030   22.0250   37.8810 H   0  0  0  0  0  0  0  0  0  0  0  0
   39.4700   25.2430   31.7680 O   0  0  0  0  0  0  0  0  0  0  0  0
   38.9570   24.9760   30.9900 H   0  0  0  0  0  0  0  0  0  0  0  0
  1  2  1  1  0  0  0
  1 23  1  0  0  0  0
  3  8  2  0  0  0  0
  3  4  1  0  0  0  0
  4  5  2  0  0  0  0
  5  6  1  0  0  0  0
  5  1  1  0  0  0  0
  7 11  1  0  0  0  0
  7  6  2  0  0  0  0
  8  7  1  0  0  0  0
  9  3  1  0  0  0  0
 10  4  1  0  0  0  0
 11 15  1  0  0  0  0
 12 11  2  0  0  0  0
 12 13  1  0  0  0  0
 13 14  2  0  0  0  0
 14 15  1  0  0  0  0
 14 18  1  0  0  0  0
 16 12  1  0  0  0  0
 17 13  1  0  0  0  0
 18 22  1  0  0  0  0
 18 19  1  0  0  0  0
 19 20  1  0  0  0  0
 21 20  1  0  0  0  0
 22 21  1  0  0  0  0
 23 26  1  1  0  0  0
 23 25  1  0  0  0  0
 23 24  1  0  0  0  0
 24 28  1  0  0  0  0
 25 29  1  6  0  0  0
 25 24  1  0  0  0  0
 25 30  1  0  0  0  0
 27 24  1  0  0  0  0
 30 35  2  0  0  0  0
 30 31  1  0  0  0  0
 31 32  2  0  0  0  0
 32 33  1  0  0  0  0
 32 37  1  0  0  0  0
 33 38  1  0  0  0  0
 34 39  1  0  0  0  0
 34 33  2  0  0  0  0
 35 34  1  0  0  0  0
 36 31  1  0  0  0  0
 40  1  1  0  0  0  0
 41 40  1  0  0  0  0
M  END
>  <minimizedAffinity>
-5.98410702

$$$$

 OpenBabel03272501413D

 41 45  0  0  1  0  0  0  0  0999 V2000
   34.8920   29.8000   33.8320 C   0  0  1  0  0  0  0  0  0  0  0  0
   35.0110   29.0460   34.7130 H   0  0  0  0  0  0  0  0  0  0  0  0
   36.4520   29.1260   30.5540 C   0  0  0  0  0  0  0  0  0  0  0  0
   35.9310   29.7300   31.6730 C   0  0  0  0  0  0  0  0  0  0  0  0
   35.5070   29.0090   32.7990 C   0  0  0  0  0  0  0  0  0  0  0  0
   35.6280   27.7120   32.7490 N   0  0  0  0  0  0  0  0  0  0  0  0
   36.1480   27.1140   31.6310 C   0  0  0  0  0  0  0  0  0  0  0  0
   36.5460   27.7990   30.5660 N   0  0  0  0  0  0  0  0  0  0  0  0
   36.7760   29.6920   29.6910 H   0  0  0  0  0  0  0  0  0  0  0  0
   35.8750   30.8300   31.6170 H   0  0  0  0  0  0  0  0  0  0  0  0
   36.3210   25.6650   31.5790 C   0  0  0  0  0  0  0  0  0  0  0  0
   37.4140   24.8730   31.8570 C   0  0  0  0  0  0  0  0  0  0  0  0
   37.3250   23.5390   31.7600 C   0  0  0  0  0  0  0  0  0  0  0  0
   36.0810   23.0350   31.3700 C   0  0  0  0  0  0  0  0  0  0  0  0
   35.0360   24.5340   31.1420 S   0  0  0  0  0  0  0  0  0  0  0  0
   38.3230   25.3940   32.1500 H   0  0  0  0  0  0  0  0  0  0  0  0
   38.1000   22.8320   31.9490 H   0  0  0  0  0  0  0  0  0  0  0  0
   35.5630   21.6680   31.1450 C   0  0  0  0  0  3  0  0  0  0  0  0
   34.9240   21.0560   32.3650 C   0  0  0  0  0  2  0  0  0  0  0  0
   34.9560   19.5770   32.0320 C   0  0  0  0  0  2  0  0  0  0  0  0
   36.3240   19.3900   31.4560 C   0  0  0  0  0  2  0  0  0  0  0  0
   36.6450   20.6900   30.7530 C   0  0  0  0  0  2  0  0  0  0  0  0
   35.6470   31.0460   34.2560 C   0  0  2  0  0  0  0  0  0  0  0  0
   36.1630   30.7830   35.6690 C   0  0  0  0  0  0  0  0  0  0  0  0
   35.1690   31.8470   35.3560 C   0  0  1  0  0  0  0  0  0  0  0  0
   36.3470   31.4480   33.5240 H   0  0  0  0  0  0  0  0  0  0  0  0
   35.7880   30.0060   36.3250 H   0  0  0  0  0  0  0  0  0  0  0  0
   37.2210   31.0640   35.8160 H   0  0  0  0  0  0  0  0  0  0  0  0
   34.0840   31.7350   35.5600 H   0  0  0  0  0  0  0  0  0  0  0  0
   35.6320   33.2020   35.6850 C   0  0  0  0  0  0  0  0  0  0  0  0
   36.9090   33.5470   35.3230 C   0  0  0  0  0  0  0  0  0  0  0  0
   37.3040   34.8320   35.6180 C   0  0  0  0  0  0  0  0  0  0  0  0
   36.5020   35.7470   36.2350 C   0  0  0  0  0  0  0  0  0  0  0  0
   35.2100   35.3660   36.5910 C   0  0  0  0  0  0  0  0  0  0  0  0
   34.8090   34.1140   36.3100 N   0  0  0  0  0  0  0  0  0  0  0  0
   37.5870   32.8830   34.8380 H   0  0  0  0  0  0  0  0  0  0  0  0
   38.2940   35.2180   35.3770 H   0  0  0  0  0  0  0  0  0  0  0  0
   36.7490   36.7670   36.4950 H   0  0  0  0  0  0  0  0  0  0  0  0
   34.4710   35.9850   37.0840 H   0  0  0  0  0  0  0  0  0  0  0  0
   33.6020   29.9080   33.9510 O   0  0  0  0  0  0  0  0  0  0  0  0
   33.1190   29.7620   33.1230 H   0  0  0  0  0  0  0  0  0  0  0  0
  1 40  1  0  0  0  0
  1 23  1  0  0  0  0
  1  2  1  1  0  0  0
  3  8  2  0  0  0  0
  3  4  1  0  0  0  0
  4  5  2  0  0  0  0
  5  1  1  0  0  0  0
  6  5  1  0  0  0  0
  7  6  2  0  0  0  0
  8  7  1  0  0  0  0
  9  3  1  0  0  0  0
 10  4  1  0  0  0  0
 11  7  1  0  0  0  0
 11 12  2  0  0  0  0
 12 16  1  0  0  0  0
 13 12  1  0  0  0  0
 13 17  1  0  0  0  0
 14 13  2  0  0  0  0
 15 14  1  0  0  0  0
 15 11  1  0  0  0  0
 18 14  1  0  0  0  0
 18 19  1  0  0  0  0
 20 19  1  0  0  0  0
 21 20  1  0  0  0  0
 22 18  1  0  0  0  0
 22 21  1  0  0  0  0
 23 26  1  6  0  0  0
 23 25  1  0  0  0  0
 23 24  1  0  0  0  0
 24 28  1  0  0  0  0
 24 27  1  0  0  0  0
 25 29  1  1  0  0  0
 25 24  1  0  0  0  0
 25 30  1  0  0  0  0
 30 35  1  0  0  0  0
 31 32  1  0  0  0  0
 31 30  2  0  0  0  0
 32 33  2  0  0  0  0
 33 38  1  0  0  0  0
 33 34  1  0  0  0  0
 34 39  1  0  0  0  0
 35 34  2  0  0  0  0
 36 31  1  0  0  0  0
 37 32  1  0  0  0  0
 41 40  1  0  0  0  0
M  END
>  <minimizedAffinity>
-5.96468163

$$$$

 OpenBabel03272501413D

 41 45  0  0  1  0  0  0  0  0999 V2000
   37.2860   26.1960   31.1900 C   0  0  1  0  0  0  0  0  0  0  0  0
   38.2470   26.4330   31.8050 H   0  0  0  0  0  0  0  0  0  0  0  0
   36.4400   29.6650   30.2480 C   0  0  0  0  0  0  0  0  0  0  0  0
   36.8940   28.3680   30.2530 C   0  0  0  0  0  0  0  0  0  0  0  0
   36.6430   27.4790   31.3090 C   0  0  0  0  0  0  0  0  0  0  0  0
   35.9440   27.9340   32.3100 N   0  0  0  0  0  0  0  0  0  0  0  0
   35.4930   29.2280   32.3000 C   0  0  0  0  0  0  0  0  0  0  0  0
   35.7340   30.0680   31.3020 N   0  0  0  0  0  0  0  0  0  0  0  0
   36.6390   30.3420   29.4280 H   0  0  0  0  0  0  0  0  0  0  0  0
   37.4710   28.0810   29.3590 H   0  0  0  0  0  0  0  0  0  0  0  0
   34.6790   29.7370   33.4010 C   0  0  0  0  0  0  0  0  0  0  0  0
   33.4110   29.3980   33.8220 C   0  0  0  0  0  0  0  0  0  0  0  0
   32.8720   29.9960   34.8930 C   0  0  0  0  0  0  0  0  0  0  0  0
   33.6680   30.9540   35.5250 C   0  0  0  0  0  0  0  0  0  0  0  0
   35.2210   30.9770   34.5360 S   0  0  0  0  0  0  0  0  0  0  0  0
   32.9000   28.6350   33.2390 H   0  0  0  0  0  0  0  0  0  0  0  0
   31.9060   29.8150   35.3060 H   0  0  0  0  0  0  0  0  0  0  0  0
   33.4680   31.8260   36.7030 C   0  0  0  0  0  3  0  0  0  0  0  0
   32.4670   32.9300   36.4750 C   0  0  0  0  0  2  0  0  0  0  0  0
   32.8220   33.9130   37.5740 C   0  0  0  0  0  2  0  0  0  0  0  0
   34.3170   33.9360   37.5350 C   0  0  0  0  0  2  0  0  0  0  0  0
   34.7300   32.5410   37.1230 C   0  0  0  0  0  2  0  0  0  0  0  0
   36.6120   25.0440   31.9120 C   0  0  2  0  0  0  0  0  0  0  0  0
   37.5910   24.5700   32.9840 C   0  0  0  0  0  0  0  0  0  0  0  0
   37.1680   23.7160   31.8400 C   0  0  1  0  0  0  0  0  0  0  0  0
   35.5760   25.2090   32.2060 H   0  0  0  0  0  0  0  0  0  0  0  0
   38.6500   24.8030   32.9950 H   0  0  0  0  0  0  0  0  0  0  0  0
   37.1260   24.4100   33.9730 H   0  0  0  0  0  0  0  0  0  0  0  0
   37.8100   23.5410   30.9510 H   0  0  0  0  0  0  0  0  0  0  0  0
   36.4810   22.4820   32.2470 C   0  0  0  0  0  0  0  0  0  0  0  0
   35.6140   21.9090   31.3520 C   0  0  0  0  0  0  0  0  0  0  0  0
   35.0080   20.7390   31.7490 C   0  0  0  0  0  0  0  0  0  0  0  0
   35.2290   20.1450   32.9580 C   0  0  0  0  0  0  0  0  0  0  0  0
   36.1150   20.7530   33.8450 C   0  0  0  0  0  0  0  0  0  0  0  0
   36.7150   21.8970   33.4720 N   0  0  0  0  0  0  0  0  0  0  0  0
   35.3960   22.3190   30.3930 H   0  0  0  0  0  0  0  0  0  0  0  0
   34.3020   20.1950   31.1230 H   0  0  0  0  0  0  0  0  0  0  0  0
   34.7880   19.2320   33.3310 H   0  0  0  0  0  0  0  0  0  0  0  0
   36.3830   20.3950   34.8310 H   0  0  0  0  0  0  0  0  0  0  0  0
   37.9240   25.8340   30.1170 O   0  0  0  0  0  0  0  0  0  0  0  0
   37.6240   26.2850   29.3130 H   0  0  0  0  0  0  0  0  0  0  0  0
  1  5  1  0  0  0  0
  1  2  1  1  0  0  0
  1 23  1  0  0  0  0
  3  4  2  0  0  0  0
  3  8  1  0  0  0  0
  4  5  1  0  0  0  0
  5  6  2  0  0  0  0
  7  6  1  0  0  0  0
  7 11  1  0  0  0  0
  8  7  2  0  0  0  0
  9  3  1  0  0  0  0
 10  4  1  0  0  0  0
 11 12  2  0  0  0  0
 11 15  1  0  0  0  0
 12 13  1  0  0  0  0
 13 17  1  0  0  0  0
 13 14  2  0  0  0  0
 14 18  1  0  0  0  0
 15 14  1  0  0  0  0
 16 12  1  0  0  0  0
 18 22  1  0  0  0  0
 19 18  1  0  0  0  0
 19 20  1  0  0  0  0
 21 20  1  0  0  0  0
 22 21  1  0  0  0  0
 23 26  1  1  0  0  0
 23 24  1  0  0  0  0
 24 27  1  0  0  0  0
 24 28  1  0  0  0  0
 25 29  1  6  0  0  0
 25 23  1  0  0  0  0
 25 30  1  0  0  0  0
 25 24  1  0  0  0  0
 30 35  1  0  0  0  0
 31 32  1  0  0  0  0
 31 30  2  0  0  0  0
 32 33  2  0  0  0  0
 33 38  1  0  0  0  0
 33 34  1  0  0  0  0
 34 39  1  0  0  0  0
 35 34  2  0  0  0  0
 36 31  1  0  0  0  0
 37 32  1  0  0  0  0
 40  1  1  0  0  0  0
 41 40  1  0  0  0  0
M  END
>  <minimizedAffinity>
-5.92445087

$$$$
