
 OpenBabel03262523513D

 32 34  0  0  1  0  0  0  0  0999 V2000
   36.5080   30.9890   48.3540 N   0  0  0  0  0  0  0  0  0  0  0  0
   36.2200   31.6260   49.6190 C   0  0  0  0  0  0  0  0  0  0  0  0
   37.2180   32.6980   49.9150 C   0  0  0  0  0  0  0  0  0  0  0  0
   38.5850   32.0170   49.8090 C   0  0  0  0  0  0  0  0  0  0  0  0
   38.8540   31.7680   48.3670 C   0  0  0  0  0  0  0  0  0  0  0  0
   37.5490   31.5900   47.6330 C   0  0  1  0  0  0  0  0  0  0  0  0
   35.1610   31.9940   49.6660 H   0  0  0  0  0  0  0  0  0  0  0  0
   36.3100   30.8640   50.4210 H   0  0  0  0  0  0  0  0  0  0  0  0
   37.1710   33.5880   49.2840 H   0  0  0  0  0  0  0  0  0  0  0  0
   37.0350   33.0410   50.9580 H   0  0  0  0  0  0  0  0  0  0  0  0
   39.2910   32.7230   50.2820 H   0  0  0  0  0  0  0  0  0  0  0  0
   38.5720   31.1080   50.4320 H   0  0  0  0  0  0  0  0  0  0  0  0
   39.4070   32.6480   47.9720 H   0  0  0  0  0  0  0  0  0  0  0  0
   39.4700   30.8340   48.2650 H   0  0  0  0  0  0  0  0  0  0  0  0
   37.2100   32.6650   47.4700 H   0  0  0  0  0  0  0  0  0  0  0  0
   37.7290   31.0640   46.2450 C   0  0  0  0  0  0  0  0  0  0  0  0
   39.0850   30.4060   46.0540 C   0  0  0  0  0  0  0  0  0  0  0  0
   39.4860   30.7640   44.6170 C   0  0  0  0  0  0  0  0  0  0  0  0
   39.1200   32.2480   44.6380 C   0  0  0  0  0  0  0  0  0  0  0  0
   37.7430   32.2070   45.2510 C   0  0  0  0  0  0  0  0  0  0  0  0
   36.4050   29.5730   48.4090 C   0  0  0  0  0  0  0  0  0  0  0  0
   36.6590   29.2620   49.4660 H   0  0  0  0  0  0  0  0  0  0  0  0
   37.1570   29.0220   47.8030 H   0  0  0  0  0  0  0  0  0  0  0  0
   35.0320   29.1160   48.1820 C   0  0  0  0  0  0  0  0  0  0  0  0
   34.4060   29.4820   47.0010 C   0  0  0  0  0  0  0  0  0  0  0  0
   33.1070   29.0740   46.7200 C   0  0  0  0  0  0  0  0  0  0  0  0
   32.4790   28.3070   47.6470 N   0  0  0  0  0  0  0  0  0  0  0  0
   33.0820   27.9500   48.7940 C   0  0  0  0  0  0  0  0  0  0  0  0
   34.3250   28.3550   49.0320 N   0  0  0  0  0  0  0  0  0  0  0  0
   34.9100   30.0930   46.2650 H   0  0  0  0  0  0  0  0  0  0  0  0
   32.5750   29.3350   45.8060 H   0  0  0  0  0  0  0  0  0  0  0  0
   32.6450   27.3430   49.5740 H   0  0  0  0  0  0  0  0  0  0  0  0
  1 21  1  0  0  0  0
  1  2  1  0  0  0  0
  2  7  1  0  0  0  0
  2  3  1  0  0  0  0
  2  8  1  0  0  0  0
  3 10  1  0  0  0  0
  4  3  1  0  0  0  0
  4 11  1  0  0  0  0
  4 12  1  0  0  0  0
  5  4  1  0  0  0  0
  6 15  1  6  0  0  0
  6  1  1  0  0  0  0
  6  5  1  0  0  0  0
  9  3  1  0  0  0  0
 13  5  1  0  0  0  0
 14  5  1  0  0  0  0
 16  6  1  0  0  0  0
 17 16  1  0  0  0  0
 18 19  1  0  0  0  0
 18 17  1  0  0  0  0
 19 20  1  0  0  0  0
 20 16  1  0  0  0  0
 21 22  1  0  0  0  0
 23 21  1  0  0  0  0
 24 21  1  0  0  0  0
 24 29  1  0  0  0  0
 25 24  2  0  0  0  0
 26 25  1  0  0  0  0
 26 27  2  0  0  0  0
 27 28  1  0  0  0  0
 28 29  2  0  0  0  0
 28 32  1  0  0  0  0
 30 25  1  0  0  0  0
 31 26  1  0  0  0  0
M  END
>  <minimizedAffinity>
-4.72529554

>  <minimizedRMSD>
1.92578948

$$$$
