
 OpenBabel03272508453D

 23 25  0  0  0  0  0  0  0  0999 V2000
   35.7080   30.2230   49.9710 C   0  0  0  0  0  0  0  0  0  0  0  0
   36.7680   29.8050   50.7690 C   0  0  0  0  0  0  0  0  0  0  0  0
   37.7800   30.7060   50.3980 C   0  0  0  0  0  0  0  0  0  0  0  0
   37.3030   31.5710   49.4470 C   0  0  0  0  0  0  0  0  0  0  0  0
   36.0510   31.2520   49.2120 O   0  0  0  0  0  0  0  0  0  0  0  0
   36.7330   28.9880   51.4680 H   0  0  0  0  0  0  0  0  0  0  0  0
   38.7800   30.6540   50.8530 H   0  0  0  0  0  0  0  0  0  0  0  0
   38.0360   32.6540   48.8040 C   0  0  0  0  0  3  0  0  0  0  0  0
   38.9940   32.1830   47.7310 C   0  0  0  0  0  2  0  0  0  0  0  0
   39.7010   33.4890   47.3980 C   0  0  0  0  0  2  0  0  0  0  0  0
   39.6650   34.3090   48.6800 C   0  0  0  0  0  2  0  0  0  0  0  0
   39.0060   33.3900   49.7080 C   0  0  0  0  0  2  0  0  0  0  0  0
   34.3810   29.5790   49.9880 C   0  0  0  0  0  0  0  0  0  0  0  0
   33.6850   29.6940   51.0120 O   0  0  0  0  0  0  0  0  0  0  0  0
   32.4770   27.2440   47.9390 C   0  0  0  0  0  0  0  0  0  0  0  0
   33.0310   27.4110   46.6710 C   0  0  0  0  0  0  0  0  0  0  0  0
   34.0580   28.3190   46.5010 C   0  0  0  0  0  0  0  0  0  0  0  0
   34.4730   29.0050   47.5940 N   0  0  0  0  0  0  0  0  0  0  0  0
   33.9270   28.8370   48.8260 C   0  0  0  0  0  0  0  0  0  0  0  0
   32.9330   27.9530   48.9780 N   0  0  0  0  0  0  0  0  0  0  0  0
   31.6810   26.5240   48.0140 H   0  0  0  0  0  0  0  0  0  0  0  0
   32.7470   26.8970   45.7650 H   0  0  0  0  0  0  0  0  0  0  0  0
   34.6020   28.5780   45.6040 H   0  0  0  0  0  0  0  0  0  0  0  0
  1 13  1  0  0  0  0
  1  2  2  0  0  0  0
  2  6  1  0  0  0  0
  3  2  1  0  0  0  0
  3  7  1  0  0  0  0
  4  3  2  0  0  0  0
  5  4  1  0  0  0  0
  5  1  1  0  0  0  0
  8  4  1  0  0  0  0
  8 12  1  0  0  0  0
  9  8  1  0  0  0  0
 10  9  1  0  0  0  0
 10 11  1  0  0  0  0
 11 12  1  0  0  0  0
 13 14  2  0  0  0  0
 15 21  1  0  0  0  0
 15 20  1  0  0  0  0
 16 15  2  0  0  0  0
 17 16  1  0  0  0  0
 17 18  2  0  0  0  0
 18 19  1  0  0  0  0
 19 20  2  0  0  0  0
 19 13  1  0  0  0  0
 22 16  1  0  0  0  0
 23 17  1  0  0  0  0
M  END
>  <minimizedAffinity>
-5.4839983

>  <minimizedRMSD>
2.01109147

$$$$
