
 OpenBabel03272506303D

 30 32  0  0  1  0  0  0  0  0999 V2000
   33.8790   29.2120   48.5510 C   0  0  1  0  0  0  0  0  0  0  0  0
   33.8950   29.7770   47.1910 C   0  0  0  0  0  0  0  0  0  0  0  0
   34.3110   28.8590   46.0750 C   0  0  0  0  0  0  0  0  0  0  0  0
   33.8250   27.4640   46.2070 C   0  0  0  0  0  0  0  0  0  0  0  0
   33.8760   26.8740   47.5650 C   0  0  0  0  0  0  0  0  0  0  0  0
   33.3370   27.8270   48.6020 C   0  0  2  0  0  0  0  0  0  0  0  0
   33.1470   29.8300   49.1630 H   0  0  0  0  0  0  0  0  0  0  0  0
   32.8000   29.9790   46.9440 H   0  0  0  0  0  0  0  0  0  0  0  0
   34.3660   30.7320   47.0420 H   0  0  0  0  0  0  0  0  0  0  0  0
   35.4190   28.8290   45.9880 H   0  0  0  0  0  0  0  0  0  0  0  0
   33.9330   29.2790   45.1210 H   0  0  0  0  0  0  0  0  0  0  0  0
   32.7570   27.4380   45.8630 H   0  0  0  0  0  0  0  0  0  0  0  0
   34.3940   26.8170   45.5110 H   0  0  0  0  0  0  0  0  0  0  0  0
   34.9330   26.6650   47.8320 H   0  0  0  0  0  0  0  0  0  0  0  0
   33.3270   25.9450   47.6180 H   0  0  0  0  0  0  0  0  0  0  0  0
   33.4630   27.3040   49.5600 H   0  0  0  0  0  0  0  0  0  0  0  0
   36.3850   29.7110   48.7180 C   0  0  0  0  0  0  0  0  0  0  0  0
   35.1420   29.3860   49.3150 C   0  0  0  0  0  0  0  0  0  0  0  0
   35.1360   29.2290   50.6890 C   0  0  0  0  0  0  0  0  0  0  0  0
   36.2850   29.3880   51.3940 N   0  0  0  0  0  0  0  0  0  0  0  0
   37.4550   29.7010   50.7770 C   0  0  0  0  0  0  0  0  0  0  0  0
   37.4940   29.8620   49.4300 N   0  0  0  0  0  0  0  0  0  0  0  0
   36.4530   29.8460   47.6500 H   0  0  0  0  0  0  0  0  0  0  0  0
   34.3070   28.9910   51.3300 H   0  0  0  0  0  0  0  0  0  0  0  0
   38.3920   29.8360   51.3020 H   0  0  0  0  0  0  0  0  0  0  0  0
   31.8000   27.9290   48.4710 C   0  0  0  0  0  3  0  0  0  0  0  0
   31.2280   28.5210   49.7340 C   0  0  0  0  0  2  0  0  0  0  0  0
   29.7940   27.9820   49.7950 C   0  0  0  0  0  2  0  0  0  0  0  0
   29.9810   26.5690   49.3290 C   0  0  0  0  0  2  0  0  0  0  0  0
   31.1780   26.5760   48.4070 C   0  0  0  0  0  2  0  0  0  0  0  0
  1  6  1  0  0  0  0
  1  7  1  1  0  0  0
  1 18  1  0  0  0  0
  2  1  1  0  0  0  0
  3  4  1  0  0  0  0
  3  2  1  0  0  0  0
  4  5  1  0  0  0  0
  5 15  1  0  0  0  0
  5 14  1  0  0  0  0
  5  6  1  0  0  0  0
  6 16  1  1  0  0  0
  8  2  1  0  0  0  0
  9  2  1  0  0  0  0
 10  3  1  0  0  0  0
 11  3  1  0  0  0  0
 12  4  1  0  0  0  0
 13  4  1  0  0  0  0
 17 18  2  0  0  0  0
 17 22  1  0  0  0  0
 18 19  1  0  0  0  0
 19 24  1  0  0  0  0
 19 20  2  0  0  0  0
 21 25  1  0  0  0  0
 21 20  1  0  0  0  0
 22 21  2  0  0  0  0
 23 17  1  0  0  0  0
 26  6  1  0  0  0  0
 26 27  1  0  0  0  0
 27 28  1  0  0  0  0
 29 28  1  0  0  0  0
 30 26  1  0  0  0  0
 30 29  1  0  0  0  0
M  END
>  <minimizedAffinity>
-4.39603853

>  <minimizedRMSD>
1.45657074

$$$$
