
 OpenBabel03272500473D

 28 31  0  0  1  0  0  0  0  0999 V2000
   35.9890   29.0710   34.2520 C   0  0  0  0  0  0  0  0  0  0  0  0
   35.9570   28.6540   32.9320 C   0  0  0  0  0  0  0  0  0  0  0  0
   36.6560   27.4370   32.8580 C   0  0  0  0  0  0  0  0  0  0  0  0
   37.0750   27.1670   34.1070 N   0  0  0  0  0  0  0  0  0  0  0  0
   36.6700   28.1370   34.8940 N   0  0  0  0  0  0  0  0  0  0  0  0
   35.4950   29.1390   32.0780 H   0  0  0  0  0  0  0  0  0  0  0  0
   36.7960   26.8710   31.9340 H   0  0  0  0  0  0  0  0  0  0  0  0
   35.9180   31.1150   35.7000 C   0  0  0  0  0  0  0  0  0  0  0  0
   35.3670   30.2920   34.7050 C   0  0  0  0  0  0  0  0  0  0  0  0
   34.1640   30.7010   34.1510 C   0  0  0  0  0  0  0  0  0  0  0  0
   33.5960   31.8600   34.5960 N   0  0  0  0  0  0  0  0  0  0  0  0
   34.1660   32.6140   35.5540 C   0  0  0  0  0  0  0  0  0  0  0  0
   35.3520   32.2410   36.1230 N   0  0  0  0  0  0  0  0  0  0  0  0
   36.8590   30.7210   36.0790 H   0  0  0  0  0  0  0  0  0  0  0  0
   33.7200   30.0870   33.3850 H   0  0  0  0  0  0  0  0  0  0  0  0
   33.6770   33.5250   35.8750 H   0  0  0  0  0  0  0  0  0  0  0  0
   37.8360   26.0110   34.5060 C   0  0  1  0  0  0  0  0  0  0  0  0
   39.2710   26.2630   35.0660 C   0  0  0  0  0  0  0  0  0  0  0  0
   38.1740   25.7860   35.9320 C   0  0  2  0  0  0  0  0  0  0  0  0
   37.8150   25.1460   33.8040 H   0  0  0  0  0  0  0  0  0  0  0  0
   40.0690   25.5900   34.7540 H   0  0  0  0  0  0  0  0  0  0  0  0
   39.5220   27.3660   35.1130 H   0  0  0  0  0  0  0  0  0  0  0  0
   37.7150   26.5640   36.6110 H   0  0  0  0  0  0  0  0  0  0  0  0
   38.1520   24.4350   36.5510 C   0  0  0  0  0  3  0  0  0  0  0  0
   39.4750   23.7570   36.2470 C   0  0  0  0  0  2  0  0  0  0  0  0
   39.5710   22.7070   37.3380 C   0  0  0  0  0  2  0  0  0  0  0  0
   38.9630   23.3370   38.5450 C   0  0  0  0  0  2  0  0  0  0  0  0
   37.9720   24.3810   38.0250 C   0  0  0  0  0  2  0  0  0  0  0  0
  1  9  1  0  0  0  0
  1  5  2  0  0  0  0
  2  1  1  0  0  0  0
  3  2  2  0  0  0  0
  3  4  1  0  0  0  0
  4 17  1  0  0  0  0
  4  5  1  0  0  0  0
  6  2  1  0  0  0  0
  7  3  1  0  0  0  0
  8 14  1  0  0  0  0
  8 13  1  0  0  0  0
  9  8  2  0  0  0  0
 10 11  2  0  0  0  0
 10  9  1  0  0  0  0
 11 12  1  0  0  0  0
 12 16  1  0  0  0  0
 12 13  2  0  0  0  0
 15 10  1  0  0  0  0
 17 20  1  6  0  0  0
 17 18  1  0  0  0  0
 17 19  1  0  0  0  0
 18 22  1  0  0  0  0
 18 19  1  0  0  0  0
 19 24  1  0  0  0  0
 19 23  1  1  0  0  0
 21 18  1  0  0  0  0
 24 28  1  0  0  0  0
 25 24  1  0  0  0  0
 25 26  1  0  0  0  0
 26 27  1  0  0  0  0
 28 27  1  0  0  0  0
M  END
>  <minimizedAffinity>
-5.33803272

$$$$

 OpenBabel03272500473D

 28 31  0  0  1  0  0  0  0  0999 V2000
   39.7040   23.3000   36.5380 C   0  0  0  0  0  0  0  0  0  0  0  0
   38.8880   23.3700   37.6550 C   0  0  0  0  0  0  0  0  0  0  0  0
   37.9680   24.4100   37.4400 C   0  0  0  0  0  0  0  0  0  0  0  0
   38.2520   24.9200   36.2290 N   0  0  0  0  0  0  0  0  0  0  0  0
   39.2670   24.2520   35.7300 N   0  0  0  0  0  0  0  0  0  0  0  0
   38.9140   22.7610   38.5530 H   0  0  0  0  0  0  0  0  0  0  0  0
   37.1960   24.6980   38.1580 H   0  0  0  0  0  0  0  0  0  0  0  0
   41.3390   21.6600   37.4950 C   0  0  0  0  0  0  0  0  0  0  0  0
   40.7730   22.3410   36.4050 C   0  0  0  0  0  0  0  0  0  0  0  0
   41.2910   22.0550   35.1510 C   0  0  0  0  0  0  0  0  0  0  0  0
   42.3030   21.1430   35.0510 N   0  0  0  0  0  0  0  0  0  0  0  0
   42.8120   20.5170   36.1280 C   0  0  0  0  0  0  0  0  0  0  0  0
   42.3250   20.7750   37.3800 N   0  0  0  0  0  0  0  0  0  0  0  0
   40.8760   21.9440   38.4370 H   0  0  0  0  0  0  0  0  0  0  0  0
   40.8740   22.5640   34.2990 H   0  0  0  0  0  0  0  0  0  0  0  0
   43.6140   19.8020   35.9980 H   0  0  0  0  0  0  0  0  0  0  0  0
   37.5590   26.0110   35.5920 C   0  0  1  0  0  0  0  0  0  0  0  0
   38.2660   27.4030   35.5980 C   0  0  0  0  0  0  0  0  0  0  0  0
   38.0940   26.6250   34.3540 C   0  0  2  0  0  0  0  0  0  0  0  0
   36.4730   26.1000   35.8240 H   0  0  0  0  0  0  0  0  0  0  0  0
   37.6590   28.2860   35.7920 H   0  0  0  0  0  0  0  0  0  0  0  0
   39.2820   27.3620   36.0950 H   0  0  0  0  0  0  0  0  0  0  0  0
   39.0200   26.0960   33.9770 H   0  0  0  0  0  0  0  0  0  0  0  0
   37.2150   27.0570   33.2360 C   0  0  0  0  0  3  0  0  0  0  0  0
   36.4190   28.2610   33.7030 C   0  0  0  0  0  2  0  0  0  0  0  0
   36.0260   28.9300   32.3990 C   0  0  0  0  0  2  0  0  0  0  0  0
   37.1880   28.7250   31.4870 C   0  0  0  0  0  2  0  0  0  0  0  0
   37.8910   27.4540   31.9740 C   0  0  0  0  0  2  0  0  0  0  0  0
  1  2  1  0  0  0  0
  2  6  1  0  0  0  0
  3  2  2  0  0  0  0
  3  7  1  0  0  0  0
  4  3  1  0  0  0  0
  5  4  1  0  0  0  0
  5  1  2  0  0  0  0
  8 14  1  0  0  0  0
  9  1  1  0  0  0  0
  9  8  2  0  0  0  0
 10  9  1  0  0  0  0
 11 10  2  0  0  0  0
 11 12  1  0  0  0  0
 12 13  2  0  0  0  0
 13  8  1  0  0  0  0
 15 10  1  0  0  0  0
 16 12  1  0  0  0  0
 17 18  1  0  0  0  0
 17 20  1  1  0  0  0
 17  4  1  0  0  0  0
 18 21  1  0  0  0  0
 18 22  1  0  0  0  0
 19 23  1  6  0  0  0
 19 17  1  0  0  0  0
 19 18  1  0  0  0  0
 24 25  1  0  0  0  0
 24 19  1  0  0  0  0
 26 25  1  0  0  0  0
 27 28  1  0  0  0  0
 27 26  1  0  0  0  0
 28 24  1  0  0  0  0
M  END
>  <minimizedAffinity>
-5.14020061

$$$$

 OpenBabel03272500473D

 28 31  0  0  1  0  0  0  0  0999 V2000
   36.3780   28.4690   32.5940 C   0  0  0  0  0  0  0  0  0  0  0  0
   37.4110   28.3400   31.6820 C   0  0  0  0  0  0  0  0  0  0  0  0
   38.3640   27.4750   32.2460 C   0  0  0  0  0  0  0  0  0  0  0  0
   37.8850   27.1190   33.4510 N   0  0  0  0  0  0  0  0  0  0  0  0
   36.7260   27.7150   33.6230 N   0  0  0  0  0  0  0  0  0  0  0  0
   37.5150   28.7990   30.7040 H   0  0  0  0  0  0  0  0  0  0  0  0
   39.2940   27.1870   31.7500 H   0  0  0  0  0  0  0  0  0  0  0  0
   34.0070   29.1400   33.0540 C   0  0  0  0  0  0  0  0  0  0  0  0
   35.2140   29.2870   32.3520 C   0  0  0  0  0  0  0  0  0  0  0  0
   35.2570   30.2800   31.3850 C   0  0  0  0  0  0  0  0  0  0  0  0
   34.1440   31.0420   31.1750 N   0  0  0  0  0  0  0  0  0  0  0  0
   33.0090   30.8590   31.8760 C   0  0  0  0  0  0  0  0  0  0  0  0
   32.9310   29.8900   32.8370 N   0  0  0  0  0  0  0  0  0  0  0  0
   34.0600   28.3420   33.7920 H   0  0  0  0  0  0  0  0  0  0  0  0
   36.1730   30.4140   30.8330 H   0  0  0  0  0  0  0  0  0  0  0  0
   32.1520   31.4890   31.6730 H   0  0  0  0  0  0  0  0  0  0  0  0
   38.5330   26.2360   34.3870 C   0  0  1  0  0  0  0  0  0  0  0  0
   39.0530   26.8670   35.7170 C   0  0  0  0  0  0  0  0  0  0  0  0
   37.9080   25.9350   35.6970 C   0  0  2  0  0  0  0  0  0  0  0  0
   39.2700   25.5220   33.9540 H   0  0  0  0  0  0  0  0  0  0  0  0
   40.0260   26.5490   36.0890 H   0  0  0  0  0  0  0  0  0  0  0  0
   38.8170   27.9720   35.7840 H   0  0  0  0  0  0  0  0  0  0  0  0
   36.8880   26.4120   35.8070 H   0  0  0  0  0  0  0  0  0  0  0  0
   37.9490   24.5790   36.3050 C   0  0  0  0  0  3  0  0  0  0  0  0
   39.2610   23.9280   35.9130 C   0  0  0  0  0  2  0  0  0  0  0  0
   39.4450   22.8720   36.9870 C   0  0  0  0  0  2  0  0  0  0  0  0
   38.9040   23.4820   38.2350 C   0  0  0  0  0  2  0  0  0  0  0  0
   37.8630   24.5120   37.7870 C   0  0  0  0  0  2  0  0  0  0  0  0
  1  5  2  0  0  0  0
  2  3  2  0  0  0  0
  2  1  1  0  0  0  0
  3  4  1  0  0  0  0
  4  5  1  0  0  0  0
  4 17  1  0  0  0  0
  6  2  1  0  0  0  0
  7  3  1  0  0  0  0
  8 14  1  0  0  0  0
  9  1  1  0  0  0  0
  9  8  2  0  0  0  0
 10  9  1  0  0  0  0
 11 10  2  0  0  0  0
 11 12  1  0  0  0  0
 12 13  2  0  0  0  0
 13  8  1  0  0  0  0
 15 10  1  0  0  0  0
 16 12  1  0  0  0  0
 17 20  1  6  0  0  0
 17 19  1  0  0  0  0
 17 18  1  0  0  0  0
 18 22  1  0  0  0  0
 18 21  1  0  0  0  0
 19 18  1  0  0  0  0
 19 23  1  1  0  0  0
 19 24  1  0  0  0  0
 24 28  1  0  0  0  0
 25 24  1  0  0  0  0
 25 26  1  0  0  0  0
 26 27  1  0  0  0  0
 28 27  1  0  0  0  0
M  END
>  <minimizedAffinity>
-5.10017347

$$$$

 OpenBabel03272500473D

 28 31  0  0  1  0  0  0  0  0999 V2000
   37.6070   26.1770   34.2630 C   0  0  0  0  0  0  0  0  0  0  0  0
   37.9960   26.2740   32.9370 C   0  0  0  0  0  0  0  0  0  0  0  0
   37.4210   27.4450   32.4150 C   0  0  0  0  0  0  0  0  0  0  0  0
   36.7220   28.0030   33.4190 N   0  0  0  0  0  0  0  0  0  0  0  0
   36.8510   27.2400   34.4810 N   0  0  0  0  0  0  0  0  0  0  0  0
   38.6230   25.5990   32.3630 H   0  0  0  0  0  0  0  0  0  0  0  0
   37.5550   27.7810   31.3840 H   0  0  0  0  0  0  0  0  0  0  0  0
   38.0030   25.1730   36.5240 C   0  0  0  0  0  0  0  0  0  0  0  0
   38.0120   25.0920   35.1230 C   0  0  0  0  0  0  0  0  0  0  0  0
   38.4360   23.8930   34.5690 C   0  0  0  0  0  0  0  0  0  0  0  0
   38.8140   22.8810   35.4040 N   0  0  0  0  0  0  0  0  0  0  0  0
   38.7870   23.0100   36.7440 C   0  0  0  0  0  0  0  0  0  0  0  0
   38.3740   24.1770   37.3240 N   0  0  0  0  0  0  0  0  0  0  0  0
   37.6580   26.1440   36.8740 H   0  0  0  0  0  0  0  0  0  0  0  0
   38.4520   23.8050   33.4960 H   0  0  0  0  0  0  0  0  0  0  0  0
   39.0960   22.1790   37.3640 H   0  0  0  0  0  0  0  0  0  0  0  0
   35.9650   29.2250   33.3390 C   0  0  1  0  0  0  0  0  0  0  0  0
   34.4510   29.1020   32.9790 C   0  0  0  0  0  0  0  0  0  0  0  0
   34.8970   29.5170   34.3240 C   0  0  2  0  0  0  0  0  0  0  0  0
   36.4510   30.0650   32.7910 H   0  0  0  0  0  0  0  0  0  0  0  0
   34.0290   29.8250   32.2820 H   0  0  0  0  0  0  0  0  0  0  0  0
   34.1300   28.0240   32.8530 H   0  0  0  0  0  0  0  0  0  0  0  0
   34.8250   28.7260   35.1280 H   0  0  0  0  0  0  0  0  0  0  0  0
   34.6720   30.8800   34.8730 C   0  0  0  0  0  3  0  0  0  0  0  0
   33.4050   30.8470   35.7070 C   0  0  0  0  0  2  0  0  0  0  0  0
   33.5800   32.0400   36.6290 C   0  0  0  0  0  2  0  0  0  0  0  0
   35.0390   32.0920   36.9320 C   0  0  0  0  0  2  0  0  0  0  0  0
   35.7430   31.4310   35.7430 C   0  0  0  0  0  2  0  0  0  0  0  0
  1  5  2  0  0  0  0
  1  9  1  0  0  0  0
  2  1  1  0  0  0  0
  3  2  2  0  0  0  0
  3  4  1  0  0  0  0
  4  5  1  0  0  0  0
  6  2  1  0  0  0  0
  7  3  1  0  0  0  0
  8 14  1  0  0  0  0
  8 13  1  0  0  0  0
  9  8  2  0  0  0  0
 10  9  1  0  0  0  0
 10 11  2  0  0  0  0
 11 12  1  0  0  0  0
 12 13  2  0  0  0  0
 12 16  1  0  0  0  0
 15 10  1  0  0  0  0
 17 20  1  6  0  0  0
 17  4  1  0  0  0  0
 17 19  1  0  0  0  0
 18 17  1  0  0  0  0
 18 19  1  0  0  0  0
 19 24  1  0  0  0  0
 19 23  1  1  0  0  0
 21 18  1  0  0  0  0
 22 18  1  0  0  0  0
 24 25  1  0  0  0  0
 24 28  1  0  0  0  0
 25 26  1  0  0  0  0
 26 27  1  0  0  0  0
 28 27  1  0  0  0  0
M  END
>  <minimizedAffinity>
-5.04656887

$$$$

 OpenBabel03272500473D

 28 31  0  0  1  0  0  0  0  0999 V2000
   36.0450   28.6080   33.1290 C   0  0  0  0  0  0  0  0  0  0  0  0
   36.8990   28.4470   32.0520 C   0  0  0  0  0  0  0  0  0  0  0  0
   37.8940   27.5320   32.4370 C   0  0  0  0  0  0  0  0  0  0  0  0
   37.6120   27.1790   33.7040 N   0  0  0  0  0  0  0  0  0  0  0  0
   36.5290   27.8240   34.0770 N   0  0  0  0  0  0  0  0  0  0  0  0
   36.8540   28.9160   31.0740 H   0  0  0  0  0  0  0  0  0  0  0  0
   38.7100   27.2110   31.7860 H   0  0  0  0  0  0  0  0  0  0  0  0
   34.5510   30.2620   31.9830 C   0  0  0  0  0  0  0  0  0  0  0  0
   34.8960   29.4810   33.0980 C   0  0  0  0  0  0  0  0  0  0  0  0
   34.0710   29.5770   34.2080 C   0  0  0  0  0  0  0  0  0  0  0  0
   32.9910   30.4090   34.1540 N   0  0  0  0  0  0  0  0  0  0  0  0
   32.7030   31.1380   33.0590 C   0  0  0  0  0  0  0  0  0  0  0  0
   33.4940   31.0690   31.9460 N   0  0  0  0  0  0  0  0  0  0  0  0
   35.2480   30.1270   31.1590 H   0  0  0  0  0  0  0  0  0  0  0  0
   34.3140   28.9880   35.0760 H   0  0  0  0  0  0  0  0  0  0  0  0
   31.8340   31.7850   33.0640 H   0  0  0  0  0  0  0  0  0  0  0  0
   38.3690   26.2550   34.5080 C   0  0  1  0  0  0  0  0  0  0  0  0
   39.0600   26.8240   35.7870 C   0  0  0  0  0  0  0  0  0  0  0  0
   37.9160   25.8940   35.8720 C   0  0  2  0  0  0  0  0  0  0  0  0
   39.0420   25.5620   33.9520 H   0  0  0  0  0  0  0  0  0  0  0  0
   40.0700   26.4890   36.0170 H   0  0  0  0  0  0  0  0  0  0  0  0
   38.8400   27.9240   35.9340 H   0  0  0  0  0  0  0  0  0  0  0  0
   36.9220   26.3650   36.1330 H   0  0  0  0  0  0  0  0  0  0  0  0
   38.0270   24.5120   36.4070 C   0  0  0  0  0  3  0  0  0  0  0  0
   39.3970   23.9740   36.0400 C   0  0  0  0  0  2  0  0  0  0  0  0
   39.6100   22.8730   37.0630 C   0  0  0  0  0  2  0  0  0  0  0  0
   38.9750   23.3730   38.3160 C   0  0  0  0  0  2  0  0  0  0  0  0
   37.8840   24.3540   37.8780 C   0  0  0  0  0  2  0  0  0  0  0  0
  1  5  2  0  0  0  0
  2  3  2  0  0  0  0
  2  1  1  0  0  0  0
  3  4  1  0  0  0  0
  4  5  1  0  0  0  0
  4 17  1  0  0  0  0
  6  2  1  0  0  0  0
  7  3  1  0  0  0  0
  8  9  1  0  0  0  0
  9  1  1  0  0  0  0
  9 10  2  0  0  0  0
 10 15  1  0  0  0  0
 11 10  1  0  0  0  0
 12 16  1  0  0  0  0
 12 11  2  0  0  0  0
 13  8  2  0  0  0  0
 13 12  1  0  0  0  0
 14  8  1  0  0  0  0
 17 20  1  6  0  0  0
 17 18  1  0  0  0  0
 17 19  1  0  0  0  0
 18 19  1  0  0  0  0
 18 22  1  0  0  0  0
 18 21  1  0  0  0  0
 19 23  1  1  0  0  0
 19 24  1  0  0  0  0
 24 28  1  0  0  0  0
 25 24  1  0  0  0  0
 25 26  1  0  0  0  0
 26 27  1  0  0  0  0
 28 27  1  0  0  0  0
M  END
>  <minimizedAffinity>
-5.04424572

$$$$

 OpenBabel03272500473D

 28 31  0  0  1  0  0  0  0  0999 V2000
   37.5840   26.0310   34.3070 C   0  0  0  0  0  0  0  0  0  0  0  0
   37.7630   25.9570   32.9360 C   0  0  0  0  0  0  0  0  0  0  0  0
   37.1860   27.1080   32.3740 C   0  0  0  0  0  0  0  0  0  0  0  0
   36.6910   27.8220   33.4010 N   0  0  0  0  0  0  0  0  0  0  0  0
   36.9400   27.1670   34.5130 N   0  0  0  0  0  0  0  0  0  0  0  0
   38.2480   25.1780   32.3560 H   0  0  0  0  0  0  0  0  0  0  0  0
   37.1750   27.3230   31.3030 H   0  0  0  0  0  0  0  0  0  0  0  0
   38.6900   23.8350   34.7950 C   0  0  0  0  0  0  0  0  0  0  0  0
   38.0530   25.0130   35.2170 C   0  0  0  0  0  0  0  0  0  0  0  0
   37.8810   25.1760   36.5830 C   0  0  0  0  0  0  0  0  0  0  0  0
   38.3330   24.2000   37.4230 N   0  0  0  0  0  0  0  0  0  0  0  0
   38.9380   23.0870   36.9670 C   0  0  0  0  0  0  0  0  0  0  0  0
   39.1240   22.8930   35.6270 N   0  0  0  0  0  0  0  0  0  0  0  0
   38.7830   23.7880   33.7120 H   0  0  0  0  0  0  0  0  0  0  0  0
   37.3960   26.0720   36.9320 H   0  0  0  0  0  0  0  0  0  0  0  0
   39.2800   22.3400   37.6730 H   0  0  0  0  0  0  0  0  0  0  0  0
   36.0070   29.0850   33.2950 C   0  0  1  0  0  0  0  0  0  0  0  0
   34.5130   29.0510   32.8460 C   0  0  0  0  0  0  0  0  0  0  0  0
   34.9010   29.4250   34.2210 C   0  0  2  0  0  0  0  0  0  0  0  0
   36.5700   29.9030   32.7890 H   0  0  0  0  0  0  0  0  0  0  0  0
   34.1720   29.8040   32.1370 H   0  0  0  0  0  0  0  0  0  0  0  0
   34.1420   27.9930   32.6860 H   0  0  0  0  0  0  0  0  0  0  0  0
   34.7400   28.6290   35.0080 H   0  0  0  0  0  0  0  0  0  0  0  0
   34.7200   30.7920   34.7760 C   0  0  0  0  0  3  0  0  0  0  0  0
   33.4420   30.8010   35.5940 C   0  0  0  0  0  2  0  0  0  0  0  0
   33.6490   31.9800   36.5260 C   0  0  0  0  0  2  0  0  0  0  0  0
   35.1060   31.9770   36.8470 C   0  0  0  0  0  2  0  0  0  0  0  0
   35.8000   31.2980   35.6620 C   0  0  0  0  0  2  0  0  0  0  0  0
  1  5  2  0  0  0  0
  1  9  1  0  0  0  0
  2  1  1  0  0  0  0
  3  2  2  0  0  0  0
  3  4  1  0  0  0  0
  4  5  1  0  0  0  0
  6  2  1  0  0  0  0
  7  3  1  0  0  0  0
  8  9  2  0  0  0  0
  8 13  1  0  0  0  0
  9 10  1  0  0  0  0
 10 15  1  0  0  0  0
 10 11  2  0  0  0  0
 12 11  1  0  0  0  0
 12 16  1  0  0  0  0
 13 12  2  0  0  0  0
 14  8  1  0  0  0  0
 17 20  1  6  0  0  0
 17  4  1  0  0  0  0
 17 19  1  0  0  0  0
 18 17  1  0  0  0  0
 18 19  1  0  0  0  0
 19 24  1  0  0  0  0
 19 23  1  1  0  0  0
 21 18  1  0  0  0  0
 22 18  1  0  0  0  0
 24 25  1  0  0  0  0
 24 28  1  0  0  0  0
 25 26  1  0  0  0  0
 26 27  1  0  0  0  0
 28 27  1  0  0  0  0
M  END
>  <minimizedAffinity>
-5.00865412

$$$$

 OpenBabel03272500473D

 28 31  0  0  1  0  0  0  0  0999 V2000
   37.2670   27.5990   31.9420 C   0  0  0  0  0  0  0  0  0  0  0  0
   36.5740   26.4200   31.7270 C   0  0  0  0  0  0  0  0  0  0  0  0
   36.9430   25.5240   32.7440 C   0  0  0  0  0  0  0  0  0  0  0  0
   37.8250   26.1770   33.5220 N   0  0  0  0  0  0  0  0  0  0  0  0
   37.9920   27.3830   33.0270 N   0  0  0  0  0  0  0  0  0  0  0  0
   35.8690   26.1820   30.9370 H   0  0  0  0  0  0  0  0  0  0  0  0
   36.5520   24.5070   32.8310 H   0  0  0  0  0  0  0  0  0  0  0  0
   37.6300   28.8000   29.7720 C   0  0  0  0  0  0  0  0  0  0  0  0
   37.1370   28.7540   31.0860 C   0  0  0  0  0  0  0  0  0  0  0  0
   36.4990   29.8920   31.5550 C   0  0  0  0  0  0  0  0  0  0  0  0
   36.3880   30.9710   30.7270 N   0  0  0  0  0  0  0  0  0  0  0  0
   36.8790   30.9650   29.4730 C   0  0  0  0  0  0  0  0  0  0  0  0
   37.5140   29.8600   28.9780 N   0  0  0  0  0  0  0  0  0  0  0  0
   38.1150   27.8690   29.4860 H   0  0  0  0  0  0  0  0  0  0  0  0
   36.1110   29.8820   32.5600 H   0  0  0  0  0  0  0  0  0  0  0  0
   36.7670   31.8460   28.8540 H   0  0  0  0  0  0  0  0  0  0  0  0
   38.4720   25.6430   34.6920 C   0  0  1  0  0  0  0  0  0  0  0  0
   38.4820   26.5380   35.9710 C   0  0  0  0  0  0  0  0  0  0  0  0
   37.6830   25.2980   35.8990 C   0  0  2  0  0  0  0  0  0  0  0  0
   39.4590   25.1550   34.5240 H   0  0  0  0  0  0  0  0  0  0  0  0
   39.3970   26.5800   36.5600 H   0  0  0  0  0  0  0  0  0  0  0  0
   37.9330   27.5150   35.8110 H   0  0  0  0  0  0  0  0  0  0  0  0
   36.5730   25.4410   35.7430 H   0  0  0  0  0  0  0  0  0  0  0  0
   37.9720   24.0940   36.7210 C   0  0  0  0  0  3  0  0  0  0  0  0
   39.3840   23.6390   36.4070 C   0  0  0  0  0  2  0  0  0  0  0  0
   39.7550   22.8280   37.6350 C   0  0  0  0  0  2  0  0  0  0  0  0
   39.1030   23.5270   38.7800 C   0  0  0  0  0  2  0  0  0  0  0  0
   37.8920   24.2590   38.1950 C   0  0  0  0  0  2  0  0  0  0  0  0
  1  5  2  0  0  0  0
  2  1  1  0  0  0  0
  2  3  2  0  0  0  0
  3  7  1  0  0  0  0
  3  4  1  0  0  0  0
  4 17  1  0  0  0  0
  5  4  1  0  0  0  0
  6  2  1  0  0  0  0
  8  9  1  0  0  0  0
  9 10  2  0  0  0  0
  9  1  1  0  0  0  0
 10 15  1  0  0  0  0
 11 10  1  0  0  0  0
 12 11  2  0  0  0  0
 13 12  1  0  0  0  0
 13  8  2  0  0  0  0
 14  8  1  0  0  0  0
 16 12  1  0  0  0  0
 17 20  1  6  0  0  0
 17 19  1  0  0  0  0
 17 18  1  0  0  0  0
 18 21  1  0  0  0  0
 19 23  1  6  0  0  0
 19 18  1  0  0  0  0
 19 24  1  0  0  0  0
 22 18  1  0  0  0  0
 24 28  1  0  0  0  0
 25 24  1  0  0  0  0
 25 26  1  0  0  0  0
 26 27  1  0  0  0  0
 28 27  1  0  0  0  0
M  END
>  <minimizedAffinity>
-4.98542595

$$$$

 OpenBabel03272500473D

 28 31  0  0  1  0  0  0  0  0999 V2000
   36.1530   27.3800   31.9170 C   0  0  0  0  0  0  0  0  0  0  0  0
   36.3400   28.1610   30.7890 C   0  0  0  0  0  0  0  0  0  0  0  0
   36.1110   29.4970   31.1600 C   0  0  0  0  0  0  0  0  0  0  0  0
   35.8020   29.4780   32.4690 N   0  0  0  0  0  0  0  0  0  0  0  0
   35.8360   28.2300   32.8790 N   0  0  0  0  0  0  0  0  0  0  0  0
   36.6100   27.8500   29.7850 H   0  0  0  0  0  0  0  0  0  0  0  0
   36.1860   30.3420   30.4710 H   0  0  0  0  0  0  0  0  0  0  0  0
   35.4820   25.0840   31.1700 C   0  0  0  0  0  0  0  0  0  0  0  0
   36.3050   25.9450   31.9120 C   0  0  0  0  0  0  0  0  0  0  0  0
   37.3060   25.3550   32.6690 C   0  0  0  0  0  0  0  0  0  0  0  0
   37.4300   23.9960   32.6480 N   0  0  0  0  0  0  0  0  0  0  0  0
   36.6130   23.2130   31.9190 C   0  0  0  0  0  0  0  0  0  0  0  0
   35.6150   23.7610   31.1610 N   0  0  0  0  0  0  0  0  0  0  0  0
   34.7260   25.6280   30.6080 H   0  0  0  0  0  0  0  0  0  0  0  0
   37.9530   25.9940   33.2470 H   0  0  0  0  0  0  0  0  0  0  0  0
   36.7510   22.1400   31.9340 H   0  0  0  0  0  0  0  0  0  0  0  0
   35.4900   30.6290   33.2770 C   0  0  1  0  0  0  0  0  0  0  0  0
   34.1140   30.6290   34.0140 C   0  0  0  0  0  0  0  0  0  0  0  0
   35.3880   30.5120   34.7510 C   0  0  2  0  0  0  0  0  0  0  0  0
   35.7110   31.6210   32.8190 H   0  0  0  0  0  0  0  0  0  0  0  0
   33.5410   31.5550   34.0320 H   0  0  0  0  0  0  0  0  0  0  0  0
   33.5350   29.6730   33.8320 H   0  0  0  0  0  0  0  0  0  0  0  0
   35.6460   29.4740   35.1180 H   0  0  0  0  0  0  0  0  0  0  0  0
   35.8990   31.5620   35.6690 C   0  0  0  0  0  3  0  0  0  0  0  0
   36.2730   32.7730   34.8360 C   0  0  0  0  0  2  0  0  0  0  0  0
   36.2250   33.9040   35.8480 C   0  0  0  0  0  2  0  0  0  0  0  0
   35.1000   33.5630   36.7650 C   0  0  0  0  0  2  0  0  0  0  0  0
   34.9640   32.0380   36.7210 C   0  0  0  0  0  2  0  0  0  0  0  0
  1  5  2  0  0  0  0
  2  3  2  0  0  0  0
  2  1  1  0  0  0  0
  3  4  1  0  0  0  0
  4  5  1  0  0  0  0
  4 17  1  0  0  0  0
  6  2  1  0  0  0  0
  7  3  1  0  0  0  0
  8  9  1  0  0  0  0
  9  1  1  0  0  0  0
  9 10  2  0  0  0  0
 10 15  1  0  0  0  0
 11 10  1  0  0  0  0
 12 16  1  0  0  0  0
 12 11  2  0  0  0  0
 13  8  2  0  0  0  0
 13 12  1  0  0  0  0
 14  8  1  0  0  0  0
 17 20  1  6  0  0  0
 17 18  1  0  0  0  0
 17 19  1  0  0  0  0
 18 21  1  0  0  0  0
 18 19  1  0  0  0  0
 19 23  1  1  0  0  0
 19 24  1  0  0  0  0
 22 18  1  0  0  0  0
 24 28  1  0  0  0  0
 25 24  1  0  0  0  0
 25 26  1  0  0  0  0
 26 27  1  0  0  0  0
 28 27  1  0  0  0  0
M  END
>  <minimizedAffinity>
-4.94857168

$$$$

 OpenBabel03272500473D

 28 31  0  0  1  0  0  0  0  0999 V2000
   39.7170   23.3020   36.4370 C   0  0  0  0  0  0  0  0  0  0  0  0
   38.7680   23.3170   37.4450 C   0  0  0  0  0  0  0  0  0  0  0  0
   37.8710   24.3600   37.1620 C   0  0  0  0  0  0  0  0  0  0  0  0
   38.2980   24.9260   36.0190 N   0  0  0  0  0  0  0  0  0  0  0  0
   39.3750   24.2860   35.6230 N   0  0  0  0  0  0  0  0  0  0  0  0
   38.6880   22.6680   38.3110 H   0  0  0  0  0  0  0  0  0  0  0  0
   37.0120   24.6120   37.7890 H   0  0  0  0  0  0  0  0  0  0  0  0
   41.4710   21.9940   35.2140 C   0  0  0  0  0  0  0  0  0  0  0  0
   40.8050   22.3550   36.3970 C   0  0  0  0  0  0  0  0  0  0  0  0
   41.2410   21.7540   37.5680 C   0  0  0  0  0  0  0  0  0  0  0  0
   42.2730   20.8630   37.5050 N   0  0  0  0  0  0  0  0  0  0  0  0
   42.8780   20.5490   36.3430 C   0  0  0  0  0  0  0  0  0  0  0  0
   42.4740   21.1220   35.1690 N   0  0  0  0  0  0  0  0  0  0  0  0
   41.0670   22.5100   34.3460 H   0  0  0  0  0  0  0  0  0  0  0  0
   40.7480   22.0150   38.4890 H   0  0  0  0  0  0  0  0  0  0  0  0
   43.6920   19.8360   36.3430 H   0  0  0  0  0  0  0  0  0  0  0  0
   37.6780   26.0410   35.3500 C   0  0  1  0  0  0  0  0  0  0  0  0
   38.1800   27.4690   35.7310 C   0  0  0  0  0  0  0  0  0  0  0  0
   38.4530   26.8790   34.4040 C   0  0  2  0  0  0  0  0  0  0  0  0
   36.5680   26.0040   35.2660 H   0  0  0  0  0  0  0  0  0  0  0  0
   37.4400   28.2580   35.8490 H   0  0  0  0  0  0  0  0  0  0  0  0
   39.0180   27.4360   36.4910 H   0  0  0  0  0  0  0  0  0  0  0  0
   39.5040   26.4920   34.2490 H   0  0  0  0  0  0  0  0  0  0  0  0
   37.8690   27.4040   33.1430 C   0  0  0  0  0  3  0  0  0  0  0  0
   38.9290   27.3160   32.0620 C   0  0  0  0  0  2  0  0  0  0  0  0
   38.1080   27.3200   30.7860 C   0  0  0  0  0  2  0  0  0  0  0  0
   36.8710   26.5540   31.1120 C   0  0  0  0  0  2  0  0  0  0  0  0
   36.6680   26.7000   32.6230 C   0  0  0  0  0  2  0  0  0  0  0  0
  1  2  1  0  0  0  0
  2  6  1  0  0  0  0
  3  2  2  0  0  0  0
  3  7  1  0  0  0  0
  4  3  1  0  0  0  0
  5  4  1  0  0  0  0
  5  1  2  0  0  0  0
  8  9  1  0  0  0  0
  9  1  1  0  0  0  0
  9 10  2  0  0  0  0
 10 15  1  0  0  0  0
 11 10  1  0  0  0  0
 12 16  1  0  0  0  0
 12 11  2  0  0  0  0
 13  8  2  0  0  0  0
 13 12  1  0  0  0  0
 14  8  1  0  0  0  0
 17 20  1  6  0  0  0
 17 18  1  0  0  0  0
 17  4  1  0  0  0  0
 18 21  1  0  0  0  0
 18 22  1  0  0  0  0
 19 23  1  6  0  0  0
 19 17  1  0  0  0  0
 19 18  1  0  0  0  0
 24 19  1  0  0  0  0
 25 24  1  0  0  0  0
 26 27  1  0  0  0  0
 26 25  1  0  0  0  0
 27 28  1  0  0  0  0
 28 24  1  0  0  0  0
M  END
>  <minimizedAffinity>
-4.93468857

$$$$
