
 OpenBabel03272504543D

 21 23  0  0  0  0  0  0  0  0999 V2000
   37.2580   31.3520   49.1450 C   0  0  0  0  0  0  0  0  0  0  0  0
   37.4050   32.6390   49.6990 C   0  0  0  0  0  0  0  0  0  0  0  0
   38.3670   33.4330   49.0980 C   0  0  0  0  0  0  0  0  0  0  0  0
   39.0970   32.9770   48.0550 N   0  0  0  0  0  0  0  0  0  0  0  0
   38.9270   31.7290   47.5460 C   0  0  0  0  0  0  0  0  0  0  0  0
   37.9920   30.9090   48.1040 N   0  0  0  0  0  0  0  0  0  0  0  0
   36.7850   32.9100   50.5200 H   0  0  0  0  0  0  0  0  0  0  0  0
   38.5130   34.4300   49.4950 H   0  0  0  0  0  0  0  0  0  0  0  0
   36.2050   30.4550   49.7490 C   0  0  0  0  0  0  0  0  0  0  0  0
   36.2400   29.0090   49.5460 C   0  0  0  0  0  0  0  0  0  0  0  0
   36.7580   29.5600   50.8480 C   0  0  0  0  0  0  0  0  0  0  0  0
   35.2710   30.9870   49.9830 H   0  0  0  0  0  0  0  0  0  0  0  0
   37.0630   28.5580   48.9190 H   0  0  0  0  0  0  0  0  0  0  0  0
   35.2890   28.4340   49.5280 H   0  0  0  0  0  0  0  0  0  0  0  0
   36.1100   29.4920   51.7410 H   0  0  0  0  0  0  0  0  0  0  0  0
   37.8270   29.5820   51.0650 H   0  0  0  0  0  0  0  0  0  0  0  0
   39.7070   31.1910   46.4020 C   0  0  0  0  0  0  0  0  0  0  0  0
   40.3820   32.2730   45.6010 C   0  0  0  0  0  0  0  0  0  0  0  0
   40.2730   31.9190   44.1600 C   0  0  0  0  0  0  0  0  0  0  0  0
   39.5660   30.5860   44.1070 C   0  0  0  0  0  0  0  0  0  0  0  0
   38.8670   30.4180   45.4410 C   0  0  0  0  0  0  0  0  0  0  0  0
  1  2  1  0  0  0  0
  1  9  1  0  0  0  0
  2  7  1  0  0  0  0
  3  8  1  0  0  0  0
  3  2  2  0  0  0  0
  4  3  1  0  0  0  0
  5  4  2  0  0  0  0
  5  6  1  0  0  0  0
  6  1  2  0  0  0  0
  9 12  1  0  0  0  0
  9 11  1  0  0  0  0
 10  9  1  0  0  0  0
 10 11  1  0  0  0  0
 11 16  1  0  0  0  0
 11 15  1  0  0  0  0
 13 10  1  0  0  0  0
 14 10  1  0  0  0  0
 17  5  1  0  0  0  0
 18 17  1  0  0  0  0
 19 18  1  0  0  0  0
 20 19  1  0  0  0  0
 20 21  1  0  0  0  0
 21 17  1  0  0  0  0
M  END
>  <minimizedAffinity>
-5.55521345

>  <minimizedRMSD>
0.984463692

$$$$
