
 OpenBabel03272510273D

 41 45  0  0  1  0  0  0  0  0999 V2000
   36.2260   30.2030   46.9170 C   0  0  0  0  0  0  0  0  0  0  0  0
   37.0770   30.7500   47.8750 C   0  0  0  0  0  0  0  0  0  0  0  0
   38.0790   31.6570   47.5180 C   0  0  0  0  0  0  0  0  0  0  0  0
   38.1720   31.9750   46.1670 C   0  0  0  0  0  0  0  0  0  0  0  0
   39.0580   32.8300   45.5770 N   0  0  0  0  0  0  0  0  0  0  0  0
   38.7730   32.8250   44.2670 C   0  0  0  0  0  0  0  0  0  0  0  0
   37.7570   32.0080   44.0340 N   0  0  0  0  0  0  0  0  0  0  0  0
   37.3530   31.4590   45.1920 C   0  0  0  0  0  0  0  0  0  0  0  0
   36.3600   30.5530   45.5850 C   0  0  0  0  0  0  0  0  0  0  0  0
   35.4490   29.5000   47.1920 H   0  0  0  0  0  0  0  0  0  0  0  0
   38.7490   32.0900   48.2570 H   0  0  0  0  0  0  0  0  0  0  0  0
   39.8190   33.3850   46.0570 H   0  0  0  0  0  0  0  0  0  0  0  0
   35.7160   30.1460   44.8160 H   0  0  0  0  0  0  0  0  0  0  0  0
   37.4460   30.1400   51.5550 C   0  0  0  0  0  0  0  0  0  0  0  0
   37.7840   30.5890   50.2920 C   0  0  0  0  0  0  0  0  0  0  0  0
   36.9010   30.3580   49.2610 C   0  0  0  0  0  0  0  0  0  0  0  0
   35.7330   29.6870   49.5640 N   0  0  0  0  0  0  0  0  0  0  0  0
   35.4260   29.2580   50.8040 C   0  0  0  0  0  0  0  0  0  0  0  0
   36.2750   29.4830   51.7820 N   0  0  0  0  0  0  0  0  0  0  0  0
   38.1990   30.3650   52.3080 H   0  0  0  0  0  0  0  0  0  0  0  0
   38.6940   31.1150   50.0420 H   0  0  0  0  0  0  0  0  0  0  0  0
   34.4910   28.7390   50.9700 H   0  0  0  0  0  0  0  0  0  0  0  0
   39.4830   33.5920   43.3420 O   0  0  0  0  0  0  0  0  0  0  0  0
   39.6510   31.8020   41.8970 N   0  0  0  0  0  0  0  0  0  0  0  0
   39.3240   33.2170   41.9820 C   0  0  1  0  0  0  0  0  0  0  0  0
   37.9620   33.4530   41.5320 C   0  0  0  0  0  0  0  0  0  0  0  0
   37.8660   33.0890   40.1780 O   0  0  0  0  0  0  0  0  0  0  0  0
   38.2590   31.8150   39.8840 C   0  0  0  0  0  0  0  0  0  0  0  0
   39.6230   31.5230   40.4830 C   0  0  2  0  0  0  0  0  0  0  0  0
   39.0070   31.1450   42.3110 H   0  0  0  0  0  0  0  0  0  0  0  0
   40.0490   33.7460   41.3400 H   0  0  0  0  0  0  0  0  0  0  0  0
   37.8110   34.5760   41.5000 H   0  0  0  0  0  0  0  0  0  0  0  0
   37.0900   33.0480   41.9660 H   0  0  0  0  0  0  0  0  0  0  0  0
   37.4820   31.1310   40.2590 H   0  0  0  0  0  0  0  0  0  0  0  0
   38.3860   31.7470   38.7960 H   0  0  0  0  0  0  0  0  0  0  0  0
   40.2960   32.2850   40.0240 H   0  0  0  0  0  0  0  0  0  0  0  0
   40.1640   30.1970   40.1070 C   0  0  0  0  0  3  0  0  0  0  0  0
   40.1040   29.2210   41.2530 C   0  0  0  0  0  2  0  0  0  0  0  0
   40.8230   28.0280   40.6080 C   0  0  0  0  0  2  0  0  0  0  0  0
   42.0350   28.7180   40.0220 C   0  0  0  0  0  2  0  0  0  0  0  0
   41.6210   30.1720   39.7640 C   0  0  0  0  0  2  0  0  0  0  0  0
  1 10  1  0  0  0  0
  1  2  1  0  0  0  0
  2 16  1  0  0  0  0
  3  2  2  0  0  0  0
  3 11  1  0  0  0  0
  4  3  1  0  0  0  0
  5 12  1  0  0  0  0
  5  4  1  0  0  0  0
  6  5  1  0  0  0  0
  7  6  2  0  0  0  0
  7  8  1  0  0  0  0
  8  9  1  0  0  0  0
  8  4  2  0  0  0  0
  9  1  2  0  0  0  0
 13  9  1  0  0  0  0
 14 19  1  0  0  0  0
 14 20  1  0  0  0  0
 15 14  2  0  0  0  0
 16 17  2  0  0  0  0
 16 15  1  0  0  0  0
 17 18  1  0  0  0  0
 18 22  1  0  0  0  0
 18 19  2  0  0  0  0
 21 15  1  0  0  0  0
 23  6  1  0  0  0  0
 24 25  1  0  0  0  0
 24 30  1  0  0  0  0
 25 31  1  6  0  0  0
 25 23  1  0  0  0  0
 26 33  1  0  0  0  0
 26 25  1  0  0  0  0
 27 26  1  0  0  0  0
 28 27  1  0  0  0  0
 28 34  1  0  0  0  0
 28 29  1  0  0  0  0
 29 36  1  6  0  0  0
 29 24  1  0  0  0  0
 32 26  1  0  0  0  0
 35 28  1  0  0  0  0
 37 29  1  0  0  0  0
 37 38  1  0  0  0  0
 39 38  1  0  0  0  0
 40 39  1  0  0  0  0
 41 40  1  0  0  0  0
 41 37  1  0  0  0  0
M  END
>  <minimizedAffinity>
-6.03425074

>  <minimizedRMSD>
0.237412199

$$$$
