
 OpenBabel03272506363D

 19 20  0  0  0  0  0  0  0  0999 V2000
   37.3900   30.6030   47.3020 C   0  0  0  0  0  0  0  0  0  0  0  0
   38.6650   30.9580   46.7900 C   0  0  0  0  0  0  0  0  0  0  0  0
   38.7750   31.2240   45.4220 C   0  0  0  0  0  0  0  0  0  0  0  0
   37.6440   31.1280   44.6480 N   0  0  0  0  0  0  0  0  0  0  0  0
   36.4540   30.7880   45.1800 C   0  0  0  0  0  0  0  0  0  0  0  0
   36.3390   30.5320   46.4820 N   0  0  0  0  0  0  0  0  0  0  0  0
   34.7080   29.3860   44.3720 C   0  0  0  0  0  0  0  0  0  0  0  0
   35.0940   28.3580   45.0070 O   0  0  0  0  0  0  0  0  0  0  0  0
   35.2860   30.6940   44.3520 N   0  0  0  0  0  0  0  0  0  0  0  0
   39.5810   31.0450   47.3640 H   0  0  0  0  0  0  0  0  0  0  0  0
   39.6930   31.5000   44.9330 H   0  0  0  0  0  0  0  0  0  0  0  0
   33.8210   29.1080   43.8150 H   0  0  0  0  0  0  0  0  0  0  0  0
   34.8080   31.3870   43.7650 H   0  0  0  0  0  0  0  0  0  0  0  0
   37.4650   30.3780   48.6590 O   0  0  0  0  0  0  0  0  0  0  0  0
   36.8390   31.0710   49.6820 C   0  0  0  0  0  3  0  0  0  0  0  0
   35.4440   30.4810   49.8040 C   0  0  0  0  0  2  0  0  0  0  0  0
   35.8160   29.0380   50.0890 C   0  0  0  0  0  2  0  0  0  0  0  0
   37.0690   29.1120   50.9140 C   0  0  0  0  0  2  0  0  0  0  0  0
   37.4330   30.5860   51.0110 C   0  0  0  0  0  2  0  0  0  0  0  0
  1 14  1  0  0  0  0
  2  1  1  0  0  0  0
  2 10  1  0  0  0  0
  3  2  2  0  0  0  0
  4  5  2  0  0  0  0
  4  3  1  0  0  0  0
  5  6  1  0  0  0  0
  6  1  2  0  0  0  0
  7  8  2  0  0  0  0
  9  7  1  0  0  0  0
  9  5  1  0  0  0  0
 11  3  1  0  0  0  0
 12  7  1  0  0  0  0
 13  9  1  0  0  0  0
 14 15  1  0  0  0  0
 15 16  1  0  0  0  0
 15 19  1  0  0  0  0
 16 17  1  0  0  0  0
 17 18  1  0  0  0  0
 18 19  1  0  0  0  0
M  END
>  <minimizedAffinity>
-4.26082611

>  <minimizedRMSD>
4.41594839

$$$$
