
 OpenBabel03272506363D

 19 20  0  0  0  0  0  0  0  0999 V2000
   38.2980   32.6640   48.5200 C   0  0  0  0  0  0  0  0  0  0  0  0
   38.8760   33.6380   49.3770 C   0  0  0  0  0  0  0  0  0  0  0  0
   39.8780   34.4610   48.8560 C   0  0  0  0  0  0  0  0  0  0  0  0
   40.2490   34.2850   47.5440 N   0  0  0  0  0  0  0  0  0  0  0  0
   39.6710   33.3460   46.7700 C   0  0  0  0  0  0  0  0  0  0  0  0
   38.7150   32.5560   47.2570 N   0  0  0  0  0  0  0  0  0  0  0  0
   40.5790   31.8670   45.1400 C   0  0  0  0  0  0  0  0  0  0  0  0
   40.7010   30.8900   45.9400 O   0  0  0  0  0  0  0  0  0  0  0  0
   40.0750   33.1800   45.4030 N   0  0  0  0  0  0  0  0  0  0  0  0
   38.6140   33.8100   50.4140 H   0  0  0  0  0  0  0  0  0  0  0  0
   40.3810   35.2290   49.4170 H   0  0  0  0  0  0  0  0  0  0  0  0
   40.9340   31.5390   44.1710 H   0  0  0  0  0  0  0  0  0  0  0  0
   40.0620   33.8240   44.6050 H   0  0  0  0  0  0  0  0  0  0  0  0
   37.3350   31.9470   49.1940 O   0  0  0  0  0  0  0  0  0  0  0  0
   36.4720   30.9840   48.6950 C   0  0  0  0  0  3  0  0  0  0  0  0
   37.2400   29.6750   48.7110 C   0  0  0  0  0  2  0  0  0  0  0  0
   37.5600   29.5980   50.1920 C   0  0  0  0  0  2  0  0  0  0  0  0
   36.3650   30.1960   50.8800 C   0  0  0  0  0  2  0  0  0  0  0  0
   35.4310   30.6770   49.7780 C   0  0  0  0  0  2  0  0  0  0  0  0
  1 14  1  0  0  0  0
  1  2  1  0  0  0  0
  2 10  1  0  0  0  0
  3  2  2  0  0  0  0
  3 11  1  0  0  0  0
  4  3  1  0  0  0  0
  5  6  1  0  0  0  0
  5  4  2  0  0  0  0
  6  1  2  0  0  0  0
  7  9  1  0  0  0  0
  7  8  2  0  0  0  0
  9  5  1  0  0  0  0
 12  7  1  0  0  0  0
 13  9  1  0  0  0  0
 15 16  1  0  0  0  0
 15 14  1  0  0  0  0
 15 19  1  0  0  0  0
 16 17  1  0  0  0  0
 17 18  1  0  0  0  0
 19 18  1  0  0  0  0
M  END
>  <minimizedAffinity>
-4.98321009

>  <minimizedRMSD>
5.33488178

$$$$
