
 OpenBabel03272506193D

 30 32  0  0  0  0  0  0  0  0999 V2000
   37.1740   27.1540   33.6360 C   0  0  0  0  0  0  0  0  0  0  0  0
   37.3150   27.0620   35.1430 C   0  0  0  0  0  0  0  0  0  0  0  0
   38.7050   27.3590   35.6250 C   0  0  0  0  0  0  0  0  0  0  0  0
   39.7250   26.4700   34.9660 C   0  0  0  0  0  0  0  0  0  0  0  0
   39.5450   26.3580   33.4790 C   0  0  0  0  0  0  0  0  0  0  0  0
   38.4830   27.2910   32.9380 C   0  0  0  0  0  0  0  0  0  0  0  0
   36.5840   26.2780   33.2960 H   0  0  0  0  0  0  0  0  0  0  0  0
   37.0910   26.0240   35.4610 H   0  0  0  0  0  0  0  0  0  0  0  0
   36.6070   27.7300   35.6670 H   0  0  0  0  0  0  0  0  0  0  0  0
   38.9300   28.4360   35.4100 H   0  0  0  0  0  0  0  0  0  0  0  0
   38.7230   27.2000   36.7050 H   0  0  0  0  0  0  0  0  0  0  0  0
   39.5550   25.4480   35.3960 H   0  0  0  0  0  0  0  0  0  0  0  0
   40.7290   26.7950   35.2670 H   0  0  0  0  0  0  0  0  0  0  0  0
   39.2550   25.3350   33.1620 H   0  0  0  0  0  0  0  0  0  0  0  0
   40.4970   26.6100   32.9710 H   0  0  0  0  0  0  0  0  0  0  0  0
   38.3790   27.0640   31.8720 H   0  0  0  0  0  0  0  0  0  0  0  0
   38.8620   28.3350   33.1140 H   0  0  0  0  0  0  0  0  0  0  0  0
   36.3480   28.3520   33.2860 C   0  0  0  0  0  0  0  0  0  0  0  0
   35.9580   29.1590   34.3710 C   0  0  0  0  0  0  0  0  0  0  0  0
   35.1720   30.2820   34.0550 C   0  0  0  0  0  0  0  0  0  0  0  0
   34.8300   30.5350   32.7440 N   0  0  0  0  0  0  0  0  0  0  0  0
   35.2430   29.7100   31.7320 C   0  0  0  0  0  0  0  0  0  0  0  0
   35.9860   28.6430   32.0140 N   0  0  0  0  0  0  0  0  0  0  0  0
   36.1870   29.0160   35.4010 H   0  0  0  0  0  0  0  0  0  0  0  0
   34.9910   29.8850   30.7120 H   0  0  0  0  0  0  0  0  0  0  0  0
   34.6690   31.2380   35.0310 C   0  0  0  0  0  3  0  0  0  0  0  0
   35.6830   31.5460   36.1400 C   0  0  0  0  0  2  0  0  0  0  0  0
   34.8190   32.5450   36.9240 C   0  0  0  0  0  2  0  0  0  0  0  0
   33.4910   31.8270   36.9600 C   0  0  0  0  0  2  0  0  0  0  0  0
   33.5030   30.7930   35.8520 C   0  0  0  0  0  2  0  0  0  0  0  0
  1  2  1  0  0  0  0
  2  8  1  0  0  0  0
  2  3  1  0  0  0  0
  2  9  1  0  0  0  0
  3 11  1  0  0  0  0
  4 13  1  0  0  0  0
  4 12  1  0  0  0  0
  4  3  1  0  0  0  0
  5  4  1  0  0  0  0
  6 17  1  0  0  0  0
  6  5  1  0  0  0  0
  6  1  1  0  0  0  0
  7  1  1  0  0  0  0
 10  3  1  0  0  0  0
 14  5  1  0  0  0  0
 15  5  1  0  0  0  0
 16  6  1  0  0  0  0
 18  1  1  0  0  0  0
 18 19  1  0  0  0  0
 19 24  1  0  0  0  0
 20 19  2  0  0  0  0
 20 26  1  0  0  0  0
 21 20  1  0  0  0  0
 22 23  1  0  0  0  0
 22 21  2  0  0  0  0
 23 18  2  0  0  0  0
 25 22  1  0  0  0  0
 26 30  1  0  0  0  0
 26 27  1  0  0  0  0
 27 28  1  0  0  0  0
 28 29  1  0  0  0  0
 30 29  1  0  0  0  0
M  END
>  <minimizedAffinity>
-5.37762928

$$$$

 OpenBabel03272506193D

 30 32  0  0  0  0  0  0  0  0999 V2000
   38.0770   25.8680   33.5890 C   0  0  0  0  0  0  0  0  0  0  0  0
   38.3450   24.7780   34.6090 C   0  0  0  0  0  0  0  0  0  0  0  0
   37.8380   25.1150   35.9800 C   0  0  0  0  0  0  0  0  0  0  0  0
   38.3970   26.4220   36.4750 C   0  0  0  0  0  0  0  0  0  0  0  0
   38.3360   27.5210   35.4540 C   0  0  0  0  0  0  0  0  0  0  0  0
   37.5770   27.1290   34.2050 C   0  0  0  0  0  0  0  0  0  0  0  0
   39.0000   26.0080   32.9900 H   0  0  0  0  0  0  0  0  0  0  0  0
   39.4410   24.6430   34.7080 H   0  0  0  0  0  0  0  0  0  0  0  0
   37.9180   23.8080   34.3000 H   0  0  0  0  0  0  0  0  0  0  0  0
   36.7180   25.1610   35.9400 H   0  0  0  0  0  0  0  0  0  0  0  0
   38.1380   24.3090   36.6530 H   0  0  0  0  0  0  0  0  0  0  0  0
   39.4810   26.2250   36.6830 H   0  0  0  0  0  0  0  0  0  0  0  0
   37.9160   26.6770   37.4290 H   0  0  0  0  0  0  0  0  0  0  0  0
   39.3430   27.8470   35.1200 H   0  0  0  0  0  0  0  0  0  0  0  0
   37.8250   28.4030   35.8890 H   0  0  0  0  0  0  0  0  0  0  0  0
   37.6700   27.9660   33.5050 H   0  0  0  0  0  0  0  0  0  0  0  0
   36.5120   26.9610   34.5240 H   0  0  0  0  0  0  0  0  0  0  0  0
   37.0390   25.3970   32.6200 C   0  0  0  0  0  0  0  0  0  0  0  0
   36.9190   24.0010   32.4880 C   0  0  0  0  0  0  0  0  0  0  0  0
   35.9540   23.5470   31.5710 C   0  0  0  0  0  0  0  0  0  0  0  0
   35.1930   24.4550   30.8660 N   0  0  0  0  0  0  0  0  0  0  0  0
   35.3580   25.8040   31.0410 C   0  0  0  0  0  0  0  0  0  0  0  0
   36.2680   26.2500   31.9040 N   0  0  0  0  0  0  0  0  0  0  0  0
   37.4760   23.2520   32.9990 H   0  0  0  0  0  0  0  0  0  0  0  0
   34.7830   26.5240   30.5080 H   0  0  0  0  0  0  0  0  0  0  0  0
   35.6770   22.1450   31.2920 C   0  0  0  0  0  3  0  0  0  0  0  0
   35.1410   21.3890   32.5130 C   0  0  0  0  0  2  0  0  0  0  0  0
   34.9780   20.0180   31.8400 C   0  0  0  0  0  2  0  0  0  0  0  0
   36.2820   19.8980   31.0870 C   0  0  0  0  0  2  0  0  0  0  0  0
   36.8560   21.2950   30.9470 C   0  0  0  0  0  2  0  0  0  0  0  0
  1  6  1  0  0  0  0
  1  2  1  0  0  0  0
  2  8  1  0  0  0  0
  2  3  1  0  0  0  0
  3  4  1  0  0  0  0
  3 11  1  0  0  0  0
  4 12  1  0  0  0  0
  4 13  1  0  0  0  0
  5 15  1  0  0  0  0
  5  4  1  0  0  0  0
  6 17  1  0  0  0  0
  6  5  1  0  0  0  0
  7  1  1  0  0  0  0
  9  2  1  0  0  0  0
 10  3  1  0  0  0  0
 14  5  1  0  0  0  0
 16  6  1  0  0  0  0
 18  1  1  0  0  0  0
 19 18  1  0  0  0  0
 19 24  1  0  0  0  0
 20 19  2  0  0  0  0
 21 22  2  0  0  0  0
 21 20  1  0  0  0  0
 22 23  1  0  0  0  0
 23 18  2  0  0  0  0
 25 22  1  0  0  0  0
 26 20  1  0  0  0  0
 26 27  1  0  0  0  0
 28 27  1  0  0  0  0
 29 28  1  0  0  0  0
 30 29  1  0  0  0  0
 30 26  1  0  0  0  0
M  END
>  <minimizedAffinity>
-5.3198781

$$$$

 OpenBabel03272506193D

 30 32  0  0  0  0  0  0  0  0999 V2000
   35.7810   22.1610   31.2010 C   0  0  0  0  0  0  0  0  0  0  0  0
   34.9280   21.5360   32.2880 C   0  0  0  0  0  0  0  0  0  0  0  0
   35.6820   20.5600   33.1430 C   0  0  0  0  0  0  0  0  0  0  0  0
   36.3250   19.4780   32.3180 C   0  0  0  0  0  0  0  0  0  0  0  0
   37.0460   20.0000   31.1080 C   0  0  0  0  0  0  0  0  0  0  0  0
   37.1150   21.5110   31.0650 C   0  0  0  0  0  0  0  0  0  0  0  0
   35.1920   22.1560   30.2620 H   0  0  0  0  0  0  0  0  0  0  0  0
   34.1070   20.9620   31.8130 H   0  0  0  0  0  0  0  0  0  0  0  0
   34.4650   22.2980   32.9410 H   0  0  0  0  0  0  0  0  0  0  0  0
   36.4600   21.1250   33.7190 H   0  0  0  0  0  0  0  0  0  0  0  0
   34.9730   20.1150   33.8440 H   0  0  0  0  0  0  0  0  0  0  0  0
   35.4790   18.8410   31.9480 H   0  0  0  0  0  0  0  0  0  0  0  0
   36.9500   18.8550   32.9720 H   0  0  0  0  0  0  0  0  0  0  0  0
   36.5690   19.6800   30.1590 H   0  0  0  0  0  0  0  0  0  0  0  0
   38.0870   19.6200   31.1060 H   0  0  0  0  0  0  0  0  0  0  0  0
   37.5800   21.7770   30.1100 H   0  0  0  0  0  0  0  0  0  0  0  0
   37.7440   21.8230   31.9430 H   0  0  0  0  0  0  0  0  0  0  0  0
   36.0130   23.6040   31.5200 C   0  0  0  0  0  0  0  0  0  0  0  0
   36.9990   23.8610   32.4910 C   0  0  0  0  0  0  0  0  0  0  0  0
   37.2180   25.2140   32.8070 C   0  0  0  0  0  0  0  0  0  0  0  0
   36.4850   26.1960   32.1760 N   0  0  0  0  0  0  0  0  0  0  0  0
   35.5390   25.8800   31.2370 C   0  0  0  0  0  0  0  0  0  0  0  0
   35.3190   24.6040   30.9270 N   0  0  0  0  0  0  0  0  0  0  0  0
   37.5940   23.1500   33.0140 H   0  0  0  0  0  0  0  0  0  0  0  0
   34.9600   26.6200   30.7360 H   0  0  0  0  0  0  0  0  0  0  0  0
   38.1910   25.6860   33.7820 C   0  0  0  0  0  3  0  0  0  0  0  0
   37.6190   26.7500   34.7270 C   0  0  0  0  0  2  0  0  0  0  0  0
   38.8870   26.9750   35.5620 C   0  0  0  0  0  2  0  0  0  0  0  0
   39.9420   27.0620   34.4850 C   0  0  0  0  0  2  0  0  0  0  0  0
   39.3710   26.4210   33.2360 C   0  0  0  0  0  2  0  0  0  0  0  0
  1 18  1  0  0  0  0
  1  2  1  0  0  0  0
  2  9  1  0  0  0  0
  2  3  1  0  0  0  0
  3 10  1  0  0  0  0
  3 11  1  0  0  0  0
  4 13  1  0  0  0  0
  4  3  1  0  0  0  0
  5  4  1  0  0  0  0
  6  5  1  0  0  0  0
  6  1  1  0  0  0  0
  6 17  1  0  0  0  0
  7  1  1  0  0  0  0
  8  2  1  0  0  0  0
 12  4  1  0  0  0  0
 14  5  1  0  0  0  0
 15  5  1  0  0  0  0
 16  6  1  0  0  0  0
 18 19  1  0  0  0  0
 19 20  2  0  0  0  0
 19 24  1  0  0  0  0
 20 26  1  0  0  0  0
 21 20  1  0  0  0  0
 22 21  2  0  0  0  0
 23 22  1  0  0  0  0
 23 18  2  0  0  0  0
 25 22  1  0  0  0  0
 26 27  1  0  0  0  0
 27 28  1  0  0  0  0
 29 28  1  0  0  0  0
 30 26  1  0  0  0  0
 30 29  1  0  0  0  0
M  END
>  <minimizedAffinity>
-5.15525484

$$$$

 OpenBabel03272506193D

 30 32  0  0  0  0  0  0  0  0999 V2000
   38.6740   24.3870   35.8210 C   0  0  0  0  0  0  0  0  0  0  0  0
   39.9590   23.6360   36.1120 C   0  0  0  0  0  0  0  0  0  0  0  0
   39.8110   22.6080   37.1950 C   0  0  0  0  0  0  0  0  0  0  0  0
   39.2770   23.2100   38.4660 C   0  0  0  0  0  0  0  0  0  0  0  0
   38.1030   24.1210   38.2470 C   0  0  0  0  0  0  0  0  0  0  0  0
   37.6010   24.1090   36.8190 C   0  0  0  0  0  0  0  0  0  0  0  0
   38.9220   25.4640   35.7310 H   0  0  0  0  0  0  0  0  0  0  0  0
   40.7210   24.3570   36.4720 H   0  0  0  0  0  0  0  0  0  0  0  0
   40.3660   23.1470   35.2090 H   0  0  0  0  0  0  0  0  0  0  0  0
   39.1220   21.8040   36.8250 H   0  0  0  0  0  0  0  0  0  0  0  0
   40.7960   22.1750   37.3790 H   0  0  0  0  0  0  0  0  0  0  0  0
   40.1110   23.8400   38.8730 H   0  0  0  0  0  0  0  0  0  0  0  0
   39.0840   22.4060   39.1890 H   0  0  0  0  0  0  0  0  0  0  0  0
   38.3340   25.1780   38.4900 H   0  0  0  0  0  0  0  0  0  0  0  0
   37.2620   23.8030   38.8960 H   0  0  0  0  0  0  0  0  0  0  0  0
   36.8110   24.8640   36.7570 H   0  0  0  0  0  0  0  0  0  0  0  0
   37.2120   23.0710   36.6300 H   0  0  0  0  0  0  0  0  0  0  0  0
   38.1550   23.9810   34.4780 C   0  0  0  0  0  0  0  0  0  0  0  0
   37.7510   22.6390   34.3620 C   0  0  0  0  0  0  0  0  0  0  0  0
   37.2730   22.2430   33.1000 C   0  0  0  0  0  0  0  0  0  0  0  0
   37.2210   23.1540   32.0670 N   0  0  0  0  0  0  0  0  0  0  0  0
   37.6290   24.4500   32.2440 C   0  0  0  0  0  0  0  0  0  0  0  0
   38.0850   24.8400   33.4330 N   0  0  0  0  0  0  0  0  0  0  0  0
   37.7690   21.8880   35.1180 H   0  0  0  0  0  0  0  0  0  0  0  0
   37.5980   25.1720   31.4630 H   0  0  0  0  0  0  0  0  0  0  0  0
   36.8080   20.9010   32.7770 C   0  0  0  0  0  3  0  0  0  0  0  0
   36.2010   20.8030   31.3720 C   0  0  0  0  0  2  0  0  0  0  0  0
   35.8530   19.3080   31.4110 C   0  0  0  0  0  2  0  0  0  0  0  0
   35.2250   19.1830   32.7790 C   0  0  0  0  0  2  0  0  0  0  0  0
   35.6720   20.3800   33.5950 C   0  0  0  0  0  2  0  0  0  0  0  0
  1  2  1  0  0  0  0
  1  6  1  0  0  0  0
  2  8  1  0  0  0  0
  2  3  1  0  0  0  0
  3 11  1  0  0  0  0
  3  4  1  0  0  0  0
  4 12  1  0  0  0  0
  4 13  1  0  0  0  0
  5  4  1  0  0  0  0
  5 14  1  0  0  0  0
  5 15  1  0  0  0  0
  6  5  1  0  0  0  0
  7  1  1  0  0  0  0
  9  2  1  0  0  0  0
 10  3  1  0  0  0  0
 16  6  1  0  0  0  0
 17  6  1  0  0  0  0
 18  1  1  0  0  0  0
 19 18  1  0  0  0  0
 19 24  1  0  0  0  0
 20 19  2  0  0  0  0
 21 22  2  0  0  0  0
 21 20  1  0  0  0  0
 22 23  1  0  0  0  0
 23 18  2  0  0  0  0
 25 22  1  0  0  0  0
 26 20  1  0  0  0  0
 26 30  1  0  0  0  0
 27 28  1  0  0  0  0
 27 26  1  0  0  0  0
 28 29  1  0  0  0  0
 29 30  1  0  0  0  0
M  END
>  <minimizedAffinity>
-5.10610056

$$$$

 OpenBabel03272506193D

 30 32  0  0  0  0  0  0  0  0999 V2000
   37.2300   23.3070   31.6110 C   0  0  0  0  0  0  0  0  0  0  0  0
   35.7500   23.0380   31.4170 C   0  0  0  0  0  0  0  0  0  0  0  0
   35.3490   21.6410   31.7910 C   0  0  0  0  0  0  0  0  0  0  0  0
   36.1540   20.6120   31.0430 C   0  0  0  0  0  0  0  0  0  0  0  0
   37.6270   20.9020   31.0300 C   0  0  0  0  0  0  0  0  0  0  0  0
   38.0100   22.0730   31.9100 C   0  0  0  0  0  0  0  0  0  0  0  0
   37.5960   23.8520   30.7180 H   0  0  0  0  0  0  0  0  0  0  0  0
   35.5030   23.1540   30.3420 H   0  0  0  0  0  0  0  0  0  0  0  0
   35.1220   23.7510   31.9800 H   0  0  0  0  0  0  0  0  0  0  0  0
   35.4910   21.5180   32.8960 H   0  0  0  0  0  0  0  0  0  0  0  0
   34.2900   21.5240   31.5510 H   0  0  0  0  0  0  0  0  0  0  0  0
   35.7990   20.6670   29.9810 H   0  0  0  0  0  0  0  0  0  0  0  0
   35.9020   19.6140   31.4270 H   0  0  0  0  0  0  0  0  0  0  0  0
   38.0050   21.1360   30.0140 H   0  0  0  0  0  0  0  0  0  0  0  0
   38.1820   20.0160   31.3990 H   0  0  0  0  0  0  0  0  0  0  0  0
   39.0800   22.2440   31.7570 H   0  0  0  0  0  0  0  0  0  0  0  0
   37.7760   21.7620   32.9660 H   0  0  0  0  0  0  0  0  0  0  0  0
   37.4180   24.2480   32.7590 C   0  0  0  0  0  0  0  0  0  0  0  0
   38.0350   23.7010   33.8990 C   0  0  0  0  0  0  0  0  0  0  0  0
   38.2060   24.5730   34.9890 C   0  0  0  0  0  0  0  0  0  0  0  0
   37.7780   25.8800   34.8980 N   0  0  0  0  0  0  0  0  0  0  0  0
   37.1830   26.3530   33.7580 C   0  0  0  0  0  0  0  0  0  0  0  0
   37.0130   25.5400   32.7180 N   0  0  0  0  0  0  0  0  0  0  0  0
   38.3840   22.7030   34.0310 H   0  0  0  0  0  0  0  0  0  0  0  0
   36.8440   27.3570   33.6640 H   0  0  0  0  0  0  0  0  0  0  0  0
   38.8220   24.2000   36.2540 C   0  0  0  0  0  3  0  0  0  0  0  0
   39.3680   22.7680   36.2530 C   0  0  0  0  0  2  0  0  0  0  0  0
   39.9120   22.7620   37.6890 C   0  0  0  0  0  2  0  0  0  0  0  0
   38.7650   23.3900   38.4450 C   0  0  0  0  0  2  0  0  0  0  0  0
   37.9130   24.1380   37.4380 C   0  0  0  0  0  2  0  0  0  0  0  0
  1  6  1  0  0  0  0
  1 18  1  0  0  0  0
  2  1  1  0  0  0  0
  2  3  1  0  0  0  0
  2  9  1  0  0  0  0
  3 10  1  0  0  0  0
  4 13  1  0  0  0  0
  4  3  1  0  0  0  0
  5  4  1  0  0  0  0
  5 15  1  0  0  0  0
  5  6  1  0  0  0  0
  6 17  1  0  0  0  0
  7  1  1  0  0  0  0
  8  2  1  0  0  0  0
 11  3  1  0  0  0  0
 12  4  1  0  0  0  0
 14  5  1  0  0  0  0
 16  6  1  0  0  0  0
 18 19  1  0  0  0  0
 19 24  1  0  0  0  0
 19 20  2  0  0  0  0
 20 26  1  0  0  0  0
 21 20  1  0  0  0  0
 22 21  2  0  0  0  0
 23 18  2  0  0  0  0
 23 22  1  0  0  0  0
 25 22  1  0  0  0  0
 26 30  1  0  0  0  0
 27 26  1  0  0  0  0
 27 28  1  0  0  0  0
 28 29  1  0  0  0  0
 30 29  1  0  0  0  0
M  END
>  <minimizedAffinity>
-5.104949

$$$$

 OpenBabel03272506193D

 30 32  0  0  0  0  0  0  0  0999 V2000
   37.5240   26.9960   33.2450 C   0  0  0  0  0  0  0  0  0  0  0  0
   38.9140   27.1300   32.6530 C   0  0  0  0  0  0  0  0  0  0  0  0
   39.9800   26.4980   33.5000 C   0  0  0  0  0  0  0  0  0  0  0  0
   39.9710   27.0410   34.9040 C   0  0  0  0  0  0  0  0  0  0  0  0
   38.5970   27.1140   35.5060 C   0  0  0  0  0  0  0  0  0  0  0  0
   37.5350   26.4720   34.6400 C   0  0  0  0  0  0  0  0  0  0  0  0
   37.0170   27.9770   33.1470 H   0  0  0  0  0  0  0  0  0  0  0  0
   39.1710   28.2060   32.5840 H   0  0  0  0  0  0  0  0  0  0  0  0
   38.9730   26.7080   31.6340 H   0  0  0  0  0  0  0  0  0  0  0  0
   39.8100   25.3890   33.5110 H   0  0  0  0  0  0  0  0  0  0  0  0
   40.9440   26.7060   33.0320 H   0  0  0  0  0  0  0  0  0  0  0  0
   40.3500   28.0930   34.8200 H   0  0  0  0  0  0  0  0  0  0  0  0
   40.6910   26.4750   35.5100 H   0  0  0  0  0  0  0  0  0  0  0  0
   38.2680   28.1580   35.6860 H   0  0  0  0  0  0  0  0  0  0  0  0
   38.5930   26.5870   36.4810 H   0  0  0  0  0  0  0  0  0  0  0  0
   36.5740   26.6590   35.1310 H   0  0  0  0  0  0  0  0  0  0  0  0
   37.7840   25.3760   34.5970 H   0  0  0  0  0  0  0  0  0  0  0  0
   36.7200   26.0460   32.4130 C   0  0  0  0  0  0  0  0  0  0  0  0
   37.0550   24.6860   32.5490 C   0  0  0  0  0  0  0  0  0  0  0  0
   36.3140   23.7850   31.7630 C   0  0  0  0  0  0  0  0  0  0  0  0
   35.3260   24.2550   30.9250 N   0  0  0  0  0  0  0  0  0  0  0  0
   35.0470   25.5930   30.8390 C   0  0  0  0  0  0  0  0  0  0  0  0
   35.7400   26.4590   31.5750 N   0  0  0  0  0  0  0  0  0  0  0  0
   37.8060   24.2620   33.1740 H   0  0  0  0  0  0  0  0  0  0  0  0
   34.2890   25.9800   30.1990 H   0  0  0  0  0  0  0  0  0  0  0  0
   36.5070   22.3420   31.7590 C   0  0  0  0  0  3  0  0  0  0  0  0
   37.6450   21.8960   30.8340 C   0  0  0  0  0  2  0  0  0  0  0  0
   37.5370   20.3870   31.1010 C   0  0  0  0  0  2  0  0  0  0  0  0
   36.0430   20.1760   31.0170 C   0  0  0  0  0  2  0  0  0  0  0  0
   35.3820   21.5270   31.2100 C   0  0  0  0  0  2  0  0  0  0  0  0
  1  6  1  0  0  0  0
  2  1  1  0  0  0  0
  2  3  1  0  0  0  0
  3 10  1  0  0  0  0
  3  4  1  0  0  0  0
  4  5  1  0  0  0  0
  4 13  1  0  0  0  0
  5 14  1  0  0  0  0
  5 15  1  0  0  0  0
  6 16  1  0  0  0  0
  6  5  1  0  0  0  0
  7  1  1  0  0  0  0
  8  2  1  0  0  0  0
  9  2  1  0  0  0  0
 11  3  1  0  0  0  0
 12  4  1  0  0  0  0
 17  6  1  0  0  0  0
 18 19  1  0  0  0  0
 18  1  1  0  0  0  0
 19 24  1  0  0  0  0
 20 19  2  0  0  0  0
 21 20  1  0  0  0  0
 22 21  2  0  0  0  0
 22 23  1  0  0  0  0
 23 18  2  0  0  0  0
 25 22  1  0  0  0  0
 26 20  1  0  0  0  0
 27 28  1  0  0  0  0
 27 26  1  0  0  0  0
 29 28  1  0  0  0  0
 29 30  1  0  0  0  0
 30 26  1  0  0  0  0
M  END
>  <minimizedAffinity>
-5.07437944

$$$$

 OpenBabel03272506193D

 30 32  0  0  0  0  0  0  0  0999 V2000
   38.2040   26.6420   32.9700 C   0  0  0  0  0  0  0  0  0  0  0  0
   39.6160   26.6310   33.5230 C   0  0  0  0  0  0  0  0  0  0  0  0
   39.6680   26.3790   35.0020 C   0  0  0  0  0  0  0  0  0  0  0  0
   38.8320   27.3700   35.7660 C   0  0  0  0  0  0  0  0  0  0  0  0
   37.4680   27.5790   35.1740 C   0  0  0  0  0  0  0  0  0  0  0  0
   37.1620   26.6300   34.0350 C   0  0  0  0  0  0  0  0  0  0  0  0
   38.1160   27.5060   32.2790 H   0  0  0  0  0  0  0  0  0  0  0  0
   40.0710   27.6290   33.3630 H   0  0  0  0  0  0  0  0  0  0  0  0
   40.2550   25.8890   33.0120 H   0  0  0  0  0  0  0  0  0  0  0  0
   39.3080   25.3350   35.1940 H   0  0  0  0  0  0  0  0  0  0  0  0
   40.7110   26.4600   35.3150 H   0  0  0  0  0  0  0  0  0  0  0  0
   39.3780   28.3460   35.6880 H   0  0  0  0  0  0  0  0  0  0  0  0
   38.8160   27.0800   36.8250 H   0  0  0  0  0  0  0  0  0  0  0  0
   37.3320   28.6050   34.7730 H   0  0  0  0  0  0  0  0  0  0  0  0
   36.6980   27.4190   35.9550 H   0  0  0  0  0  0  0  0  0  0  0  0
   36.1900   26.9280   33.6300 H   0  0  0  0  0  0  0  0  0  0  0  0
   37.1370   25.5990   34.4840 H   0  0  0  0  0  0  0  0  0  0  0  0
   37.9930   25.4280   32.1200 C   0  0  0  0  0  0  0  0  0  0  0  0
   37.0980   24.4740   32.6360 C   0  0  0  0  0  0  0  0  0  0  0  0
   36.9010   23.3230   31.8520 C   0  0  0  0  0  0  0  0  0  0  0  0
   37.5700   23.1840   30.6540 N   0  0  0  0  0  0  0  0  0  0  0  0
   38.4290   24.1510   30.2060 C   0  0  0  0  0  0  0  0  0  0  0  0
   38.6270   25.2460   30.9370 N   0  0  0  0  0  0  0  0  0  0  0  0
   36.5550   24.5210   33.5510 H   0  0  0  0  0  0  0  0  0  0  0  0
   38.9570   24.0670   29.2860 H   0  0  0  0  0  0  0  0  0  0  0  0
   36.0170   22.2220   32.2090 C   0  0  0  0  0  3  0  0  0  0  0  0
   36.6440   21.2620   33.2270 C   0  0  0  0  0  2  0  0  0  0  0  0
   35.4580   20.2930   33.3400 C   0  0  0  0  0  2  0  0  0  0  0  0
   35.0880   20.1030   31.8880 C   0  0  0  0  0  2  0  0  0  0  0  0
   35.6780   21.2650   31.1130 C   0  0  0  0  0  2  0  0  0  0  0  0
  1  2  1  0  0  0  0
  1  6  1  0  0  0  0
  2  3  1  0  0  0  0
  3 10  1  0  0  0  0
  3 11  1  0  0  0  0
  3  4  1  0  0  0  0
  4 13  1  0  0  0  0
  5  4  1  0  0  0  0
  5 15  1  0  0  0  0
  6 17  1  0  0  0  0
  6  5  1  0  0  0  0
  7  1  1  0  0  0  0
  8  2  1  0  0  0  0
  9  2  1  0  0  0  0
 12  4  1  0  0  0  0
 14  5  1  0  0  0  0
 16  6  1  0  0  0  0
 18 19  1  0  0  0  0
 18  1  1  0  0  0  0
 19 24  1  0  0  0  0
 20 26  1  0  0  0  0
 20 19  2  0  0  0  0
 21 20  1  0  0  0  0
 22 21  2  0  0  0  0
 22 23  1  0  0  0  0
 23 18  2  0  0  0  0
 25 22  1  0  0  0  0
 26 27  1  0  0  0  0
 27 28  1  0  0  0  0
 29 28  1  0  0  0  0
 30 29  1  0  0  0  0
 30 26  1  0  0  0  0
M  END
>  <minimizedAffinity>
-5.0633893

$$$$

 OpenBabel03272506193D

 30 32  0  0  0  0  0  0  0  0999 V2000
   38.6640   26.4000   34.5320 C   0  0  0  0  0  0  0  0  0  0  0  0
   38.0070   27.5640   35.2490 C   0  0  0  0  0  0  0  0  0  0  0  0
   36.6340   27.8790   34.7290 C   0  0  0  0  0  0  0  0  0  0  0  0
   36.6460   28.1370   33.2460 C   0  0  0  0  0  0  0  0  0  0  0  0
   37.4350   27.1220   32.4710 C   0  0  0  0  0  0  0  0  0  0  0  0
   37.9120   25.9640   33.3220 C   0  0  0  0  0  0  0  0  0  0  0  0
   39.7150   26.6810   34.3190 H   0  0  0  0  0  0  0  0  0  0  0  0
   38.6170   28.4750   35.0850 H   0  0  0  0  0  0  0  0  0  0  0  0
   37.9450   27.3970   36.3390 H   0  0  0  0  0  0  0  0  0  0  0  0
   35.9600   27.0150   34.9680 H   0  0  0  0  0  0  0  0  0  0  0  0
   36.2760   28.7670   35.2530 H   0  0  0  0  0  0  0  0  0  0  0  0
   37.1630   29.1240   33.1180 H   0  0  0  0  0  0  0  0  0  0  0  0
   35.6120   28.2550   32.8960 H   0  0  0  0  0  0  0  0  0  0  0  0
   38.3400   27.5580   31.9990 H   0  0  0  0  0  0  0  0  0  0  0  0
   36.8040   26.7010   31.6630 H   0  0  0  0  0  0  0  0  0  0  0  0
   38.5400   25.3400   32.6790 H   0  0  0  0  0  0  0  0  0  0  0  0
   36.9870   25.4240   33.6640 H   0  0  0  0  0  0  0  0  0  0  0  0
   38.7440   25.2280   35.4590 C   0  0  0  0  0  0  0  0  0  0  0  0
   39.8880   24.4210   35.3210 C   0  0  0  0  0  0  0  0  0  0  0  0
   39.9690   23.3100   36.1790 C   0  0  0  0  0  0  0  0  0  0  0  0
   38.9600   23.0660   37.0860 N   0  0  0  0  0  0  0  0  0  0  0  0
   37.8700   23.8910   37.1710 C   0  0  0  0  0  0  0  0  0  0  0  0
   37.7780   24.9460   36.3660 N   0  0  0  0  0  0  0  0  0  0  0  0
   40.6970   24.5540   34.6420 H   0  0  0  0  0  0  0  0  0  0  0  0
   37.0780   23.7230   37.8630 H   0  0  0  0  0  0  0  0  0  0  0  0
   41.0700   22.3570   36.1930 C   0  0  0  0  0  3  0  0  0  0  0  0
   41.2450   21.6700   37.5530 C   0  0  0  0  0  2  0  0  0  0  0  0
   42.4410   20.7840   37.1750 C   0  0  0  0  0  2  0  0  0  0  0  0
   43.3170   21.7660   36.4340 C   0  0  0  0  0  2  0  0  0  0  0  0
   42.4380   22.9240   36.0030 C   0  0  0  0  0  2  0  0  0  0  0  0
  1  2  1  0  0  0  0
  1 18  1  0  0  0  0
  2  9  1  0  0  0  0
  3 10  1  0  0  0  0
  3  2  1  0  0  0  0
  3 11  1  0  0  0  0
  4  3  1  0  0  0  0
  5  4  1  0  0  0  0
  5  6  1  0  0  0  0
  6 17  1  0  0  0  0
  6  1  1  0  0  0  0
  7  1  1  0  0  0  0
  8  2  1  0  0  0  0
 12  4  1  0  0  0  0
 13  4  1  0  0  0  0
 14  5  1  0  0  0  0
 15  5  1  0  0  0  0
 16  6  1  0  0  0  0
 18 23  1  0  0  0  0
 19 18  2  0  0  0  0
 19 20  1  0  0  0  0
 20 26  1  0  0  0  0
 20 21  2  0  0  0  0
 21 22  1  0  0  0  0
 22 25  1  0  0  0  0
 23 22  2  0  0  0  0
 24 19  1  0  0  0  0
 26 27  1  0  0  0  0
 28 27  1  0  0  0  0
 29 28  1  0  0  0  0
 30 26  1  0  0  0  0
 30 29  1  0  0  0  0
M  END
>  <minimizedAffinity>
-5.05573273

$$$$

 OpenBabel03272506193D

 30 32  0  0  0  0  0  0  0  0999 V2000
   38.7190   24.9410   35.9720 C   0  0  0  0  0  0  0  0  0  0  0  0
   39.8490   23.9310   35.9270 C   0  0  0  0  0  0  0  0  0  0  0  0
   39.5570   22.6830   36.7080 C   0  0  0  0  0  0  0  0  0  0  0  0
   39.2080   22.9900   38.1390 C   0  0  0  0  0  0  0  0  0  0  0  0
   38.2210   24.1120   38.2840 C   0  0  0  0  0  0  0  0  0  0  0  0
   37.6610   24.5840   36.9590 C   0  0  0  0  0  0  0  0  0  0  0  0
   39.1630   25.9410   36.1460 H   0  0  0  0  0  0  0  0  0  0  0  0
   40.7500   24.3820   36.3890 H   0  0  0  0  0  0  0  0  0  0  0  0
   40.1120   23.6490   34.8920 H   0  0  0  0  0  0  0  0  0  0  0  0
   38.7110   22.1440   36.2070 H   0  0  0  0  0  0  0  0  0  0  0  0
   40.4490   22.0540   36.6750 H   0  0  0  0  0  0  0  0  0  0  0  0
   40.1650   23.3300   38.6150 H   0  0  0  0  0  0  0  0  0  0  0  0
   38.8990   22.0610   38.6380 H   0  0  0  0  0  0  0  0  0  0  0  0
   38.6610   25.0040   38.7750 H   0  0  0  0  0  0  0  0  0  0  0  0
   37.3660   23.7750   38.9040 H   0  0  0  0  0  0  0  0  0  0  0  0
   37.0270   25.4500   37.1770 H   0  0  0  0  0  0  0  0  0  0  0  0
   37.0720   23.7220   36.5420 H   0  0  0  0  0  0  0  0  0  0  0  0
   38.0700   25.0200   34.6260 C   0  0  0  0  0  0  0  0  0  0  0  0
   37.5520   26.2800   34.2740 C   0  0  0  0  0  0  0  0  0  0  0  0
   36.9290   26.3630   33.0160 C   0  0  0  0  0  0  0  0  0  0  0  0
   36.8550   25.2480   32.2090 N   0  0  0  0  0  0  0  0  0  0  0  0
   37.3800   24.0480   32.6100 C   0  0  0  0  0  0  0  0  0  0  0  0
   37.9720   23.9520   33.7980 N   0  0  0  0  0  0  0  0  0  0  0  0
   37.5740   27.1740   34.8510 H   0  0  0  0  0  0  0  0  0  0  0  0
   37.3360   23.1730   32.0050 H   0  0  0  0  0  0  0  0  0  0  0  0
   36.3320   27.5740   32.4690 C   0  0  0  0  0  3  0  0  0  0  0  0
   37.2480   28.2900   31.4690 C   0  0  0  0  0  2  0  0  0  0  0  0
   36.3040   29.4540   31.1360 C   0  0  0  0  0  2  0  0  0  0  0  0
   35.8250   29.8540   32.5110 C   0  0  0  0  0  2  0  0  0  0  0  0
   36.0780   28.6810   33.4390 C   0  0  0  0  0  2  0  0  0  0  0  0
  1  7  1  0  0  0  0
  1  6  1  0  0  0  0
  2  1  1  0  0  0  0
  2  8  1  0  0  0  0
  2  3  1  0  0  0  0
  3  4  1  0  0  0  0
  4  5  1  0  0  0  0
  4 12  1  0  0  0  0
  4 13  1  0  0  0  0
  5 14  1  0  0  0  0
  5 15  1  0  0  0  0
  6 16  1  0  0  0  0
  6  5  1  0  0  0  0
  9  2  1  0  0  0  0
 10  3  1  0  0  0  0
 11  3  1  0  0  0  0
 17  6  1  0  0  0  0
 18  1  1  0  0  0  0
 19 18  1  0  0  0  0
 19 24  1  0  0  0  0
 20 19  2  0  0  0  0
 21 22  2  0  0  0  0
 21 20  1  0  0  0  0
 22 23  1  0  0  0  0
 23 18  2  0  0  0  0
 25 22  1  0  0  0  0
 26 20  1  0  0  0  0
 26 30  1  0  0  0  0
 27 26  1  0  0  0  0
 28 27  1  0  0  0  0
 28 29  1  0  0  0  0
 29 30  1  0  0  0  0
M  END
>  <minimizedAffinity>
-5.01425838

$$$$
