
 OpenBabel03272503523D

 24 26  0  0  0  0  0  0  0  0999 V2000
   38.4390   32.2260   48.7280 C   0  0  0  0  0  0  0  0  0  0  0  0
   38.7280   33.3170   49.5390 C   0  0  0  0  0  0  0  0  0  0  0  0
   39.5640   34.3390   49.0810 C   0  0  0  0  0  0  0  0  0  0  0  0
   40.0780   34.2140   47.8070 C   0  0  0  0  0  0  0  0  0  0  0  0
   39.8020   33.1420   46.9940 C   0  0  0  0  0  0  0  0  0  0  0  0
   38.9680   32.1500   47.4880 C   0  0  0  0  0  0  0  0  0  0  0  0
   38.3050   33.3920   50.5520 H   0  0  0  0  0  0  0  0  0  0  0  0
   39.7390   35.1510   49.7710 H   0  0  0  0  0  0  0  0  0  0  0  0
   40.7110   35.0490   47.5400 H   0  0  0  0  0  0  0  0  0  0  0  0
   40.2750   33.2160   46.0560 H   0  0  0  0  0  0  0  0  0  0  0  0
   37.0290   29.2870   50.6540 C   0  0  0  0  0  0  0  0  0  0  0  0
   37.9980   30.1950   50.1480 C   0  0  0  0  0  0  0  0  0  0  0  0
   37.5530   31.2260   49.3070 C   0  0  0  0  0  0  0  0  0  0  0  0
   36.2410   31.2870   49.0370 N   0  0  0  0  0  0  0  0  0  0  0  0
   35.3380   30.4050   49.5350 C   0  0  0  0  0  0  0  0  0  0  0  0
   35.7420   29.4190   50.3360 N   0  0  0  0  0  0  0  0  0  0  0  0
   37.4060   28.5030   51.2990 H   0  0  0  0  0  0  0  0  0  0  0  0
   39.0370   30.1460   50.3620 H   0  0  0  0  0  0  0  0  0  0  0  0
   34.3140   30.5950   49.2180 H   0  0  0  0  0  0  0  0  0  0  0  0
   38.6770   31.0100   46.5880 C   0  0  0  0  0  0  0  0  0  0  0  0
   39.7770   30.8120   45.5330 C   0  0  0  0  0  0  0  0  0  0  0  0
   39.1270   29.7570   44.6720 C   0  0  0  0  0  0  0  0  0  0  0  0
   37.6970   30.2570   44.5360 C   0  0  0  0  0  0  0  0  0  0  0  0
   37.5460   31.3690   45.5890 C   0  0  0  0  0  0  0  0  0  0  0  0
  1 13  1  0  0  0  0
  1  2  1  0  0  0  0
  2  7  1  0  0  0  0
  3  2  2  0  0  0  0
  3  8  1  0  0  0  0
  4  3  1  0  0  0  0
  5  6  1  0  0  0  0
  5  4  2  0  0  0  0
  6  1  2  0  0  0  0
  9  4  1  0  0  0  0
 10  5  1  0  0  0  0
 11 17  1  0  0  0  0
 12 18  1  0  0  0  0
 12 11  2  0  0  0  0
 13 12  1  0  0  0  0
 14 13  2  0  0  0  0
 14 15  1  0  0  0  0
 15 16  2  0  0  0  0
 16 11  1  0  0  0  0
 19 15  1  0  0  0  0
 20  6  1  0  0  0  0
 21 20  1  0  0  0  0
 22 21  1  0  0  0  0
 23 22  1  0  0  0  0
 23 24  1  0  0  0  0
 24 20  1  0  0  0  0
M  END
>  <minimizedAffinity>
-6.18330622

>  <minimizedRMSD>
1.95271635

$$$$
