
 OpenBabel03272507343D

 32 35  0  0  1  0  0  0  0  0999 V2000
   35.8380   29.1300   49.8020 C   0  0  0  0  0  0  0  0  0  0  0  0
   34.8020   29.6280   50.5580 C   0  0  0  0  0  0  0  0  0  0  0  0
   33.6160   29.0730   50.0600 C   0  0  0  0  0  0  0  0  0  0  0  0
   34.0110   28.2630   49.0180 C   0  0  0  0  0  0  0  0  0  0  0  0
   35.3200   28.3270   48.9020 O   0  0  0  0  0  0  0  0  0  0  0  0
   34.8580   30.3280   51.4010 H   0  0  0  0  0  0  0  0  0  0  0  0
   32.6040   29.2390   50.4110 H   0  0  0  0  0  0  0  0  0  0  0  0
   37.2260   29.4980   50.0440 C   0  0  0  0  0  0  0  0  0  0  0  0
   37.8610   28.9090   50.9250 O   0  0  0  0  0  0  0  0  0  0  0  0
   37.7730   30.5410   49.2230 C   0  0  0  0  0  0  0  0  0  0  0  0
   38.1140   31.7270   49.8540 C   0  0  0  0  0  0  0  0  0  0  0  0
   38.6470   32.7640   49.0830 C   0  0  0  0  0  0  0  0  0  0  0  0
   38.8090   32.5530   47.7340 N   0  0  0  0  0  0  0  0  0  0  0  0
   38.4680   31.3920   47.1600 C   0  0  0  0  0  0  0  0  0  0  0  0
   37.9560   30.3930   47.8910 N   0  0  0  0  0  0  0  0  0  0  0  0
   37.9970   31.9240   50.9220 H   0  0  0  0  0  0  0  0  0  0  0  0
   38.9190   33.6940   49.5490 H   0  0  0  0  0  0  0  0  0  0  0  0
   38.6070   31.2530   46.0890 H   0  0  0  0  0  0  0  0  0  0  0  0
   33.1270   27.4570   48.1770 C   0  0  0  0  0  0  0  0  0  0  0  0
   31.8870   27.4110   48.4690 O   0  0  0  0  0  0  0  0  0  0  0  0
   33.6830   26.7000   47.0050 C   0  0  1  0  0  0  0  0  0  0  0  0
   33.8000   25.1730   47.3610 C   0  0  0  0  0  0  0  0  0  0  0  0
   32.8780   25.6880   46.3190 C   0  0  2  0  0  0  0  0  0  0  0  0
   34.7080   27.0310   46.7370 H   0  0  0  0  0  0  0  0  0  0  0  0
   33.3210   24.8350   48.2910 H   0  0  0  0  0  0  0  0  0  0  0  0
   34.7140   24.6480   47.1090 H   0  0  0  0  0  0  0  0  0  0  0  0
   31.7970   25.6680   46.5140 H   0  0  0  0  0  0  0  0  0  0  0  0
   33.2410   25.4820   44.8470 C   0  0  0  0  0  3  0  0  0  0  0  0
   33.9520   24.1630   44.6390 C   0  0  0  0  0  2  0  0  0  0  0  0
   34.6410   24.4490   43.2980 C   0  0  0  0  0  2  0  0  0  0  0  0
   35.3590   25.7500   43.6760 C   0  0  0  0  0  2  0  0  0  0  0  0
   34.2690   26.5020   44.4130 C   0  0  0  0  0  2  0  0  0  0  0  0
  1  8  1  0  0  0  0
  1  2  2  0  0  0  0
  2  6  1  0  0  0  0
  3  7  1  0  0  0  0
  3  2  1  0  0  0  0
  4  3  2  0  0  0  0
  5  4  1  0  0  0  0
  5  1  1  0  0  0  0
  8  9  2  0  0  0  0
 10 11  1  0  0  0  0
 10  8  1  0  0  0  0
 11 16  1  0  0  0  0
 12 17  1  0  0  0  0
 12 11  2  0  0  0  0
 13 12  1  0  0  0  0
 14 13  2  0  0  0  0
 14 15  1  0  0  0  0
 15 10  2  0  0  0  0
 18 14  1  0  0  0  0
 19 20  2  0  0  0  0
 19  4  1  0  0  0  0
 21 24  1  6  0  0  0
 21 22  1  0  0  0  0
 21 19  1  0  0  0  0
 22 25  1  0  0  0  0
 23 27  1  1  0  0  0
 23 21  1  0  0  0  0
 23 22  1  0  0  0  0
 26 22  1  0  0  0  0
 28 23  1  0  0  0  0
 29 28  1  0  0  0  0
 30 31  1  0  0  0  0
 30 29  1  0  0  0  0
 31 32  1  0  0  0  0
 32 28  1  0  0  0  0
M  END
>  <minimizedAffinity>
-5.04541922

>  <minimizedRMSD>
0.162285864

$$$$
