
 OpenBabel03272509343D

 37 41  0  0  1  0  0  0  0  0999 V2000
   37.4260   31.7240   48.3450 C   0  0  1  0  0  0  0  0  0  0  0  0
   38.6890   32.4630   48.5270 C   0  0  0  0  0  0  0  0  0  0  0  0
   38.7020   31.3570   47.5340 C   0  0  2  0  0  0  0  0  0  0  0  0
   36.6630   32.0920   47.6790 H   0  0  0  0  0  0  0  0  0  0  0  0
   39.2710   32.2560   49.4930 H   0  0  0  0  0  0  0  0  0  0  0  0
   38.5670   33.5200   48.3910 H   0  0  0  0  0  0  0  0  0  0  0  0
   38.8620   30.2940   47.5900 H   0  0  0  0  0  0  0  0  0  0  0  0
   38.8470   31.8970   46.1580 C   0  0  0  0  0  0  0  0  0  0  0  0
   39.7910   32.9300   46.1310 C   0  0  0  0  0  0  0  0  0  0  0  0
   40.1490   33.5340   44.9450 C   0  0  0  0  0  0  0  0  0  0  0  0
   39.5790   33.1260   43.7350 C   0  0  0  0  0  0  0  0  0  0  0  0
   38.6560   32.1090   43.7890 C   0  0  0  0  0  0  0  0  0  0  0  0
   38.0030   31.6120   42.6850 C   0  0  0  0  0  0  0  0  0  0  0  0
   37.0690   30.6010   42.7230 C   0  0  0  0  0  0  0  0  0  0  0  0
   36.7530   30.0360   43.9370 C   0  0  0  0  0  0  0  0  0  0  0  0
   37.3920   30.5150   45.0600 C   0  0  0  0  0  0  0  0  0  0  0  0
   38.3150   31.5240   44.9710 C   0  0  0  0  0  0  0  0  0  0  0  0
   40.4060   33.4490   46.8360 H   0  0  0  0  0  0  0  0  0  0  0  0
   40.8480   34.3320   44.7490 H   0  0  0  0  0  0  0  0  0  0  0  0
   39.7440   33.4880   42.7280 H   0  0  0  0  0  0  0  0  0  0  0  0
   38.2370   32.0450   41.6990 H   0  0  0  0  0  0  0  0  0  0  0  0
   36.5840   30.2480   41.8140 H   0  0  0  0  0  0  0  0  0  0  0  0
   36.0320   29.2390   44.0520 H   0  0  0  0  0  0  0  0  0  0  0  0
   37.1240   30.0490   46.0250 H   0  0  0  0  0  0  0  0  0  0  0  0
   35.3970   29.4840   50.5970 C   0  0  0  0  0  0  0  0  0  0  0  0
   35.7250   30.4700   49.6230 C   0  0  0  0  0  0  0  0  0  0  0  0
   37.0520   30.6980   49.3400 C   0  0  0  0  0  0  0  0  0  0  0  0
   37.9540   29.9520   50.0260 N   0  0  0  0  0  0  0  0  0  0  0  0
   37.6470   29.0230   50.9450 C   0  0  0  0  0  0  0  0  0  0  0  0
   36.3470   28.7830   51.2370 N   0  0  0  0  0  0  0  0  0  0  0  0
   34.3560   29.3000   50.8240 H   0  0  0  0  0  0  0  0  0  0  0  0
   34.9180   30.9950   49.1480 H   0  0  0  0  0  0  0  0  0  0  0  0
   38.8300   28.3270   51.5670 C   0  0  0  0  0  3  0  0  0  0  0  0
   39.2420   27.1300   50.7810 C   0  0  0  0  0  2  0  0  0  0  0  0
   39.3440   25.9570   51.7080 C   0  0  0  0  0  2  0  0  0  0  0  0
   39.1540   26.4880   53.1140 C   0  0  0  0  0  2  0  0  0  0  0  0
   38.5200   27.8570   52.9520 C   0  0  0  0  0  2  0  0  0  0  0  0
  1  4  1  6  0  0  0
  1  2  1  0  0  0  0
  1 27  1  0  0  0  0
  2  5  1  0  0  0  0
  3  7  1  1  0  0  0
  3  1  1  0  0  0  0
  3  2  1  0  0  0  0
  6  2  1  0  0  0  0
  8  3  1  0  0  0  0
  9  8  1  0  0  0  0
  9 18  1  0  0  0  0
 10  9  2  0  0  0  0
 11 12  2  0  0  0  0
 11 10  1  0  0  0  0
 12 17  1  0  0  0  0
 13 14  2  0  0  0  0
 13 12  1  0  0  0  0
 14 15  1  0  0  0  0
 15 23  1  0  0  0  0
 15 16  2  0  0  0  0
 16 24  1  0  0  0  0
 17 16  1  0  0  0  0
 17  8  2  0  0  0  0
 19 10  1  0  0  0  0
 20 11  1  0  0  0  0
 21 13  1  0  0  0  0
 22 14  1  0  0  0  0
 25 31  1  0  0  0  0
 25 30  1  0  0  0  0
 26 25  2  0  0  0  0
 27 26  1  0  0  0  0
 27 28  2  0  0  0  0
 28 29  1  0  0  0  0
 29 30  2  0  0  0  0
 29 33  1  0  0  0  0
 32 26  1  0  0  0  0
 33 37  1  0  0  0  0
 34 33  1  0  0  0  0
 34 35  1  0  0  0  0
 35 36  1  0  0  0  0
 37 36  1  0  0  0  0
M  END
>  <minimizedAffinity>
-1.40247202

>  <minimizedRMSD>
1.44786608

$$$$
