
 OpenBabel03272508273D

 34 37  0  0  1  0  0  0  0  0999 V2000
   33.9850   29.0130   47.3570 C   0  0  2  0  0  0  0  0  0  0  0  0
   34.7420   28.2430   48.4300 C   0  0  2  0  0  0  0  0  0  0  0  0
   33.8520   28.0570   49.4440 O   0  0  0  0  0  0  0  0  0  0  0  0
   32.5720   28.1150   48.9740 C   0  0  0  0  0  0  0  0  0  0  0  0
   32.6250   28.3210   47.4750 C   0  0  1  0  0  0  0  0  0  0  0  0
   33.9140   30.0810   47.5800 H   0  0  0  0  0  0  0  0  0  0  0  0
   35.0470   27.2600   48.0210 H   0  0  0  0  0  0  0  0  0  0  0  0
   32.0780   27.1280   49.1540 H   0  0  0  0  0  0  0  0  0  0  0  0
   31.9140   28.8540   49.4720 H   0  0  0  0  0  0  0  0  0  0  0  0
   32.7030   27.3440   46.9400 H   0  0  0  0  0  0  0  0  0  0  0  0
   35.7990   30.5250   49.0420 C   0  0  1  0  0  0  0  0  0  0  0  0
   35.8960   29.0970   48.8510 C   0  0  1  0  0  0  0  0  0  0  0  0
   36.0320   29.6020   50.2490 C   0  0  0  0  0  0  0  0  0  0  0  0
   34.8950   31.1340   49.2220 H   0  0  0  0  0  0  0  0  0  0  0  0
   36.8670   28.7360   48.4050 H   0  0  0  0  0  0  0  0  0  0  0  0
   37.0310   29.6170   50.7390 H   0  0  0  0  0  0  0  0  0  0  0  0
   35.2210   29.4510   50.9810 H   0  0  0  0  0  0  0  0  0  0  0  0
   36.9910   31.4350   48.7960 C   0  0  0  0  0  0  0  0  0  0  0  0
   37.1880   32.4930   49.6840 C   0  0  0  0  0  0  0  0  0  0  0  0
   38.2740   33.3090   49.4000 C   0  0  0  0  0  0  0  0  0  0  0  0
   39.0750   33.0600   48.3090 N   0  0  0  0  0  0  0  0  0  0  0  0
   38.8440   32.0240   47.4770 C   0  0  0  0  0  0  0  0  0  0  0  0
   37.7890   31.1980   47.7230 N   0  0  0  0  0  0  0  0  0  0  0  0
   36.5440   32.6600   50.5250 H   0  0  0  0  0  0  0  0  0  0  0  0
   38.5100   34.1610   50.0360 H   0  0  0  0  0  0  0  0  0  0  0  0
   39.5030   31.8710   46.6350 H   0  0  0  0  0  0  0  0  0  0  0  0
   34.5130   28.8620   46.0900 O   0  0  0  0  0  0  0  0  0  0  0  0
   34.3230   27.9080   45.8290 H   0  0  0  0  0  0  0  0  0  0  0  0
   31.6060   29.0960   47.0040 O   0  0  0  0  0  0  0  0  0  0  0  0
   30.6550   28.4350   46.2730 C   0  0  0  0  0  3  0  0  0  0  0  0
   31.2910   27.3580   45.3910 C   0  0  0  0  0  2  0  0  0  0  0  0
   31.3590   28.0300   44.0210 C   0  0  0  0  0  2  0  0  0  0  0  0
   29.9670   28.6750   43.9970 C   0  0  0  0  0  2  0  0  0  0  0  0
   30.0080   29.4290   45.3290 C   0  0  0  0  0  2  0  0  0  0  0  0
  1  5  1  0  0  0  0
  1  6  1  1  0  0  0
  1  2  1  0  0  0  0
  2  7  1  6  0  0  0
  2 12  1  0  0  0  0
  2  3  1  0  0  0  0
  4  8  1  0  0  0  0
  4  3  1  0  0  0  0
  4  9  1  0  0  0  0
  5 10  1  6  0  0  0
  5  4  1  0  0  0  0
 11 14  1  6  0  0  0
 11 13  1  0  0  0  0
 12 15  1  6  0  0  0
 12 11  1  0  0  0  0
 12 13  1  0  0  0  0
 13 16  1  0  0  0  0
 13 17  1  0  0  0  0
 18 11  1  0  0  0  0
 18 19  1  0  0  0  0
 19 24  1  0  0  0  0
 20 19  2  0  0  0  0
 20 25  1  0  0  0  0
 21 20  1  0  0  0  0
 22 23  1  0  0  0  0
 22 21  2  0  0  0  0
 23 18  2  0  0  0  0
 26 22  1  0  0  0  0
 27  1  1  0  0  0  0
 28 27  1  0  0  0  0
 29  5  1  0  0  0  0
 30 29  1  0  0  0  0
 31 30  1  0  0  0  0
 32 31  1  0  0  0  0
 33 32  1  0  0  0  0
 33 34  1  0  0  0  0
 34 30  1  0  0  0  0
M  END
>  <minimizedAffinity>
-4.71292257

>  <minimizedRMSD>
0.359402955

$$$$
