
 OpenBabel03262523323D

 36 40  0  0  1  0  0  0  0  0999 V2000
   35.7060   29.4400   50.6740 C   0  0  0  0  0  0  0  0  0  0  0  0
   36.4810   30.1560   49.7820 C   0  0  0  0  0  0  0  0  0  0  0  0
   36.1900   30.0570   48.4090 C   0  0  0  0  0  0  0  0  0  0  0  0
   35.1450   29.2530   48.0070 N   0  0  0  0  0  0  0  0  0  0  0  0
   34.4270   28.5790   48.9380 C   0  0  0  0  0  0  0  0  0  0  0  0
   34.6850   28.6580   50.2380 N   0  0  0  0  0  0  0  0  0  0  0  0
   35.9430   29.5280   51.7210 H   0  0  0  0  0  0  0  0  0  0  0  0
   37.2810   30.7700   50.1100 H   0  0  0  0  0  0  0  0  0  0  0  0
   36.5650   30.5220   46.0700 C   0  0  0  0  0  0  0  0  0  0  0  0
   36.9390   30.7710   47.4010 C   0  0  0  0  0  0  0  0  0  0  0  0
   37.9550   31.6500   47.6600 C   0  0  0  0  0  0  0  0  0  0  0  0
   38.5850   32.2700   46.6050 C   0  0  0  0  0  0  0  0  0  0  0  0
   39.6000   33.1640   46.6260 N   0  0  0  0  0  0  0  0  0  0  0  0
   39.8800   33.4870   45.3610 C   0  0  0  0  0  0  0  0  0  0  0  0
   39.0750   32.8270   44.5410 N   0  0  0  0  0  0  0  0  0  0  0  0
   38.2540   32.0570   45.2820 C   0  0  0  0  0  0  0  0  0  0  0  0
   37.2320   31.1720   45.0300 C   0  0  0  0  0  0  0  0  0  0  0  0
   35.7720   29.8410   45.7700 H   0  0  0  0  0  0  0  0  0  0  0  0
   38.2400   31.8400   48.6720 H   0  0  0  0  0  0  0  0  0  0  0  0
   40.0920   33.5470   47.4600 H   0  0  0  0  0  0  0  0  0  0  0  0
   40.6460   34.1840   45.0350 H   0  0  0  0  0  0  0  0  0  0  0  0
   36.9390   30.9770   43.9890 H   0  0  0  0  0  0  0  0  0  0  0  0
   33.3290   27.7540   48.4620 C   0  0  0  0  0  0  0  0  0  0  0  0
   33.5030   26.6200   47.9430 O   0  0  0  0  0  0  0  0  0  0  0  0
   31.9160   28.2700   48.5870 C   0  0  1  0  0  0  0  0  0  0  0  0
   30.9140   27.6770   47.5760 C   0  0  0  0  0  0  0  0  0  0  0  0
   30.8410   27.3720   49.0140 C   0  0  2  0  0  0  0  0  0  0  0  0
   31.8510   29.3860   48.6430 H   0  0  0  0  0  0  0  0  0  0  0  0
   31.3280   26.8640   46.9300 H   0  0  0  0  0  0  0  0  0  0  0  0
   30.2320   28.3370   47.0440 H   0  0  0  0  0  0  0  0  0  0  0  0
   31.1450   26.3650   49.3760 H   0  0  0  0  0  0  0  0  0  0  0  0
   29.8170   28.0020   49.9330 C   0  0  0  0  0  0  0  0  0  0  0  0
   28.7810   28.8150   49.2360 C   0  0  0  0  0  0  0  0  0  0  0  0
   27.5010   28.0260   49.2090 C   0  0  0  0  0  0  0  0  0  0  0  0
   27.8060   26.6800   49.8080 C   0  0  0  0  0  0  0  0  0  0  0  0
   29.0210   26.9590   50.6850 C   0  0  0  0  0  0  0  0  0  0  0  0
  1  7  1  0  0  0  0
  2  8  1  0  0  0  0
  2  1  2  0  0  0  0
  3  2  1  0  0  0  0
  4  3  2  0  0  0  0
  4  5  1  0  0  0  0
  5  6  2  0  0  0  0
  6  1  1  0  0  0  0
  9 10  1  0  0  0  0
 10 11  2  0  0  0  0
 10  3  1  0  0  0  0
 11 19  1  0  0  0  0
 12 13  1  0  0  0  0
 12 11  1  0  0  0  0
 13 20  1  0  0  0  0
 14 13  1  0  0  0  0
 15 16  1  0  0  0  0
 15 14  2  0  0  0  0
 16 12  2  0  0  0  0
 17 16  1  0  0  0  0
 17  9  2  0  0  0  0
 18  9  1  0  0  0  0
 21 14  1  0  0  0  0
 22 17  1  0  0  0  0
 23 25  1  0  0  0  0
 23  5  1  0  0  0  0
 24 23  2  0  0  0  0
 25 28  1  1  0  0  0
 25 27  1  0  0  0  0
 26 25  1  0  0  0  0
 26 27  1  0  0  0  0
 27 31  1  1  0  0  0
 27 32  1  0  0  0  0
 29 26  1  0  0  0  0
 30 26  1  0  0  0  0
 32 36  1  0  0  0  0
 33 32  1  0  0  0  0
 34 33  1  0  0  0  0
 34 35  1  0  0  0  0
 35 36  1  0  0  0  0
M  END
>  <minimizedAffinity>
-6.93025589

>  <minimizedRMSD>
0.806856394

$$$$
