
 OpenBabel03272501443D

 30 33  0  0  0  0  0  0  0  0999 V2000
   34.6790   28.8300   49.0530 C   0  0  0  0  0  0  0  0  0  0  0  0
   34.7860   29.6640   47.9230 C   0  0  0  0  0  0  0  0  0  0  0  0
   33.7530   29.6210   46.9760 C   0  0  0  0  0  0  0  0  0  0  0  0
   32.7150   28.7830   47.2030 N   0  0  0  0  0  0  0  0  0  0  0  0
   32.6400   27.9890   48.3070 C   0  0  0  0  0  0  0  0  0  0  0  0
   33.6230   28.0230   49.2170 N   0  0  0  0  0  0  0  0  0  0  0  0
   35.3700   28.7270   49.8780 H   0  0  0  0  0  0  0  0  0  0  0  0
   33.8730   30.2620   46.1420 H   0  0  0  0  0  0  0  0  0  0  0  0
   36.4090   31.0700   49.0460 C   0  0  0  0  0  0  0  0  0  0  0  0
   35.9770   30.4890   47.8720 C   0  0  0  0  0  0  0  0  0  0  0  0
   36.7200   30.7470   46.7290 C   0  0  0  0  0  0  0  0  0  0  0  0
   37.8520   31.5640   46.8130 C   0  0  0  0  0  0  0  0  0  0  0  0
   38.7340   31.9740   45.8980 N   0  0  0  0  0  0  0  0  0  0  0  0
   39.6490   32.7530   46.4690 C   0  0  0  0  0  0  0  0  0  0  0  0
   39.3560   32.8530   47.7820 N   0  0  0  0  0  0  0  0  0  0  0  0
   38.2470   32.1200   47.9950 C   0  0  0  0  0  0  0  0  0  0  0  0
   37.5200   31.8720   49.1260 C   0  0  0  0  0  0  0  0  0  0  0  0
   35.9260   30.9640   50.0320 H   0  0  0  0  0  0  0  0  0  0  0  0
   36.3970   30.3040   45.8160 H   0  0  0  0  0  0  0  0  0  0  0  0
   38.7360   31.7370   44.8780 H   0  0  0  0  0  0  0  0  0  0  0  0
   40.5180   33.2730   46.0670 H   0  0  0  0  0  0  0  0  0  0  0  0
   37.8790   32.3420   50.0500 H   0  0  0  0  0  0  0  0  0  0  0  0
   31.4540   27.1030   48.4600 C   0  0  0  0  0  0  0  0  0  0  0  0
   31.3450   26.4860   47.5460 H   0  0  0  0  0  0  0  0  0  0  0  0
   31.6150   26.4760   49.3600 H   0  0  0  0  0  0  0  0  0  0  0  0
   30.1840   27.8680   48.6300 C   0  0  0  0  0  0  0  0  0  0  0  0
   29.0590   26.9640   48.1340 C   0  0  0  0  0  0  0  0  0  0  0  0
   28.0930   26.8020   49.2730 C   0  0  0  0  0  0  0  0  0  0  0  0
   28.9610   26.9790   50.4860 C   0  0  0  0  0  0  0  0  0  0  0  0
   29.8240   28.1630   50.0580 C   0  0  0  0  0  0  0  0  0  0  0  0
  1  6  1  0  0  0  0
  1  7  1  0  0  0  0
  2  1  2  0  0  0  0
  3  4  2  0  0  0  0
  3  2  1  0  0  0  0
  4  5  1  0  0  0  0
  5 23  1  0  0  0  0
  5  6  2  0  0  0  0
  8  3  1  0  0  0  0
  9 17  1  0  0  0  0
  9 18  1  0  0  0  0
 10  2  1  0  0  0  0
 10  9  2  0  0  0  0
 11 12  2  0  0  0  0
 11 10  1  0  0  0  0
 12 16  1  0  0  0  0
 13 14  1  0  0  0  0
 13 12  1  0  0  0  0
 14 15  2  0  0  0  0
 15 16  1  0  0  0  0
 16 17  2  0  0  0  0
 17 22  1  0  0  0  0
 19 11  1  0  0  0  0
 20 13  1  0  0  0  0
 21 14  1  0  0  0  0
 23 26  1  0  0  0  0
 23 25  1  0  0  0  0
 24 23  1  0  0  0  0
 26 30  1  0  0  0  0
 27 26  1  0  0  0  0
 27 28  1  0  0  0  0
 28 29  1  0  0  0  0
 30 29  1  0  0  0  0
M  END
>  <minimizedAffinity>
-6.15853405

>  <minimizedRMSD>
2.17077279

$$$$
