
 OpenBabel03272506363D

 19 20  0  0  0  0  0  0  0  0999 V2000
   37.4690   30.7370   47.1960 C   0  0  0  0  0  0  0  0  0  0  0  0
   38.7460   30.6030   46.5910 C   0  0  0  0  0  0  0  0  0  0  0  0
   38.8120   30.5500   45.1950 C   0  0  0  0  0  0  0  0  0  0  0  0
   37.6380   30.6290   44.4850 N   0  0  0  0  0  0  0  0  0  0  0  0
   36.4490   30.7550   45.1050 C   0  0  0  0  0  0  0  0  0  0  0  0
   36.3760   30.8070   46.4340 N   0  0  0  0  0  0  0  0  0  0  0  0
   34.3250   29.7790   44.6540 C   0  0  0  0  0  0  0  0  0  0  0  0
   34.4660   28.8300   45.4850 O   0  0  0  0  0  0  0  0  0  0  0  0
   35.2360   30.8370   44.3420 N   0  0  0  0  0  0  0  0  0  0  0  0
   39.6940   30.5370   47.1120 H   0  0  0  0  0  0  0  0  0  0  0  0
   39.7270   30.4500   44.6380 H   0  0  0  0  0  0  0  0  0  0  0  0
   33.3540   29.6610   44.1900 H   0  0  0  0  0  0  0  0  0  0  0  0
   34.9200   31.5060   43.6320 H   0  0  0  0  0  0  0  0  0  0  0  0
   37.5910   30.7720   48.5670 O   0  0  0  0  0  0  0  0  0  0  0  0
   36.6770   31.2350   49.5000 C   0  0  0  0  0  3  0  0  0  0  0  0
   35.5200   30.2530   49.4850 C   0  0  0  0  0  2  0  0  0  0  0  0
   36.2720   28.9860   49.8410 C   0  0  0  0  0  2  0  0  0  0  0  0
   37.3460   29.4230   50.7960 C   0  0  0  0  0  2  0  0  0  0  0  0
   37.2390   30.9370   50.8960 C   0  0  0  0  0  2  0  0  0  0  0  0
  1 14  1  0  0  0  0
  2 10  1  0  0  0  0
  2  1  1  0  0  0  0
  3  2  2  0  0  0  0
  4  5  2  0  0  0  0
  4  3  1  0  0  0  0
  5  6  1  0  0  0  0
  6  1  2  0  0  0  0
  7  8  2  0  0  0  0
  9  7  1  0  0  0  0
  9  5  1  0  0  0  0
 11  3  1  0  0  0  0
 12  7  1  0  0  0  0
 13  9  1  0  0  0  0
 14 15  1  0  0  0  0
 15 19  1  0  0  0  0
 16 15  1  0  0  0  0
 16 17  1  0  0  0  0
 17 18  1  0  0  0  0
 18 19  1  0  0  0  0
M  END
>  <minimizedAffinity>
-4.41712046

>  <minimizedRMSD>
4.42881966

$$$$
