
 OpenBabel03272501403D

 41 45  0  0  1  0  0  0  0  0999 V2000
   39.0480   32.1330   47.4280 C   0  0  1  0  0  0  0  0  0  0  0  0
   40.0370   31.8090   47.9530 H   0  0  0  0  0  0  0  0  0  0  0  0
   37.7530   30.8480   50.6380 C   0  0  0  0  0  0  0  0  0  0  0  0
   38.4720   31.5050   49.6690 C   0  0  0  0  0  0  0  0  0  0  0  0
   38.1210   31.4760   48.3110 C   0  0  0  0  0  0  0  0  0  0  0  0
   37.0600   30.7900   47.9900 N   0  0  0  0  0  0  0  0  0  0  0  0
   36.3460   30.1370   48.9600 C   0  0  0  0  0  0  0  0  0  0  0  0
   36.6820   30.1630   50.2440 N   0  0  0  0  0  0  0  0  0  0  0  0
   38.0320   30.8770   51.6830 H   0  0  0  0  0  0  0  0  0  0  0  0
   39.3480   32.0590   50.0440 H   0  0  0  0  0  0  0  0  0  0  0  0
   35.1360   29.3940   48.6160 C   0  0  0  0  0  0  0  0  0  0  0  0
   34.6090   28.2310   49.1360 C   0  0  0  0  0  0  0  0  0  0  0  0
   33.4510   27.7450   48.6680 C   0  0  0  0  0  0  0  0  0  0  0  0
   32.8440   28.4850   47.6490 C   0  0  0  0  0  0  0  0  0  0  0  0
   33.9850   29.9040   47.3780 S   0  0  0  0  0  0  0  0  0  0  0  0
   35.1850   27.7550   49.9260 H   0  0  0  0  0  0  0  0  0  0  0  0
   32.9530   26.8600   48.9920 H   0  0  0  0  0  0  0  0  0  0  0  0
   31.5980   28.3120   46.8720 C   0  0  0  0  0  0  0  0  0  0  0  0
   31.1950   29.5380   46.0940 C   0  0  0  0  0  0  0  0  0  0  0  0
   29.7240   29.2820   45.8350 C   0  0  0  0  0  0  0  0  0  0  0  0
   29.2350   28.7640   47.1510 C   0  0  0  0  0  0  0  0  0  0  0  0
   30.4020   28.0080   47.7430 C   0  0  0  0  0  0  0  0  0  0  0  0
   39.1330   31.5790   46.0180 C   0  0  2  0  0  0  0  0  0  0  0  0
   40.5990   31.2280   45.7750 C   0  0  0  0  0  0  0  0  0  0  0  0
   39.8810   32.2810   45.0040 C   0  0  1  0  0  0  0  0  0  0  0  0
   38.3810   30.8360   45.7540 H   0  0  0  0  0  0  0  0  0  0  0  0
   41.4260   31.6000   46.3690 H   0  0  0  0  0  0  0  0  0  0  0  0
   40.7500   30.2350   45.3150 H   0  0  0  0  0  0  0  0  0  0  0  0
   40.0090   33.3650   45.2050 H   0  0  0  0  0  0  0  0  0  0  0  0
   39.8160   32.0140   43.5610 C   0  0  0  0  0  0  0  0  0  0  0  0
   39.1100   32.8940   42.7800 C   0  0  0  0  0  0  0  0  0  0  0  0
   39.0920   32.6340   41.4290 C   0  0  0  0  0  0  0  0  0  0  0  0
   39.7270   31.5720   40.8530 C   0  0  0  0  0  0  0  0  0  0  0  0
   40.4340   30.6960   41.6740 C   0  0  0  0  0  0  0  0  0  0  0  0
   40.4620   30.9360   42.9960 N   0  0  0  0  0  0  0  0  0  0  0  0
   38.5920   33.7420   43.1630 H   0  0  0  0  0  0  0  0  0  0  0  0
   38.5650   33.2630   40.7110 H   0  0  0  0  0  0  0  0  0  0  0  0
   39.7520   31.3110   39.8040 H   0  0  0  0  0  0  0  0  0  0  0  0
   40.9820   29.8180   41.3550 H   0  0  0  0  0  0  0  0  0  0  0  0
   39.2950   33.4070   47.5010 O   0  0  0  0  0  0  0  0  0  0  0  0
   38.5730   33.9230   47.8910 H   0  0  0  0  0  0  0  0  0  0  0  0
  1 40  1  0  0  0  0
  1  2  1  1  0  0  0
  1  5  1  0  0  0  0
  3  9  1  0  0  0  0
  4 10  1  0  0  0  0
  4  3  2  0  0  0  0
  5  4  1  0  0  0  0
  6  5  2  0  0  0  0
  6  7  1  0  0  0  0
  7  8  2  0  0  0  0
  8  3  1  0  0  0  0
 11  7  1  0  0  0  0
 11 12  2  0  0  0  0
 12 16  1  0  0  0  0
 13 17  1  0  0  0  0
 13 12  1  0  0  0  0
 14 13  2  0  0  0  0
 15 14  1  0  0  0  0
 15 11  1  0  0  0  0
 18 14  1  0  0  0  0
 18 22  1  0  0  0  0
 19 18  1  0  0  0  0
 20 19  1  0  0  0  0
 20 21  1  0  0  0  0
 21 22  1  0  0  0  0
 23 26  1  6  0  0  0
 23  1  1  0  0  0  0
 24 23  1  0  0  0  0
 24 27  1  0  0  0  0
 25 29  1  1  0  0  0
 25 24  1  0  0  0  0
 25 23  1  0  0  0  0
 28 24  1  0  0  0  0
 30 25  1  0  0  0  0
 31 36  1  0  0  0  0
 31 30  2  0  0  0  0
 32 31  1  0  0  0  0
 33 32  2  0  0  0  0
 33 34  1  0  0  0  0
 34 35  2  0  0  0  0
 35 30  1  0  0  0  0
 37 32  1  0  0  0  0
 38 33  1  0  0  0  0
 39 34  1  0  0  0  0
 40 41  1  0  0  0  0
M  END
>  <minimizedAffinity>
-6.8226738

>  <minimizedRMSD>
0.458663613

$$$$
