
 OpenBabel03272504503D

 38 41  0  0  1  0  0  0  0  0999 V2000
   36.8180   30.7010   48.5860 N   0  0  0  0  0  0  0  0  0  0  0  0
   37.4020   30.5050   49.9010 C   0  0  0  0  0  0  0  0  0  0  0  0
   38.5530   31.4080   50.1930 C   0  0  0  0  0  0  0  0  0  0  0  0
   38.3660   32.7580   49.5320 C   0  0  0  0  0  0  0  0  0  0  0  0
   38.3990   32.5120   48.0510 C   0  0  0  0  0  0  0  0  0  0  0  0
   37.3320   31.5700   47.5820 C   0  0  1  0  0  0  0  0  0  0  0  0
   37.7780   29.4630   49.9340 H   0  0  0  0  0  0  0  0  0  0  0  0
   36.6030   30.5630   50.6890 H   0  0  0  0  0  0  0  0  0  0  0  0
   39.5290   30.9520   49.9740 H   0  0  0  0  0  0  0  0  0  0  0  0
   38.5560   31.6130   51.2930 H   0  0  0  0  0  0  0  0  0  0  0  0
   39.1310   33.4580   49.8570 H   0  0  0  0  0  0  0  0  0  0  0  0
   37.3310   33.0950   49.8120 H   0  0  0  0  0  0  0  0  0  0  0  0
   39.3830   32.0190   47.8680 H   0  0  0  0  0  0  0  0  0  0  0  0
   38.3130   33.4620   47.4740 H   0  0  0  0  0  0  0  0  0  0  0  0
   36.5020   32.1980   47.1980 H   0  0  0  0  0  0  0  0  0  0  0  0
   35.4460   28.7030   48.9160 C   0  0  0  0  0  0  0  0  0  0  0  0
   35.6450   29.9500   48.3130 C   0  0  0  0  0  0  0  0  0  0  0  0
   34.6700   30.4110   47.4470 C   0  0  0  0  0  0  0  0  0  0  0  0
   33.5680   29.6400   47.2210 N   0  0  0  0  0  0  0  0  0  0  0  0
   33.3960   28.4520   47.8070 C   0  0  0  0  0  0  0  0  0  0  0  0
   34.3440   27.9860   48.6590 N   0  0  0  0  0  0  0  0  0  0  0  0
   36.1650   28.2790   49.6030 H   0  0  0  0  0  0  0  0  0  0  0  0
   34.6990   31.3550   46.9280 H   0  0  0  0  0  0  0  0  0  0  0  0
   32.2140   27.6640   47.5500 C   0  0  0  0  0  0  0  0  0  0  0  0
   32.2900   26.3210   47.3500 C   0  0  0  0  0  0  0  0  0  0  0  0
   31.2270   25.4930   47.1040 C   0  0  0  0  0  0  0  0  0  0  0  0
   30.0120   26.1510   47.0720 C   0  0  0  0  0  0  0  0  0  0  0  0
   29.8620   27.5330   47.2690 C   0  0  0  0  0  0  0  0  0  0  0  0
   31.0080   28.2470   47.5070 N   0  0  0  0  0  0  0  0  0  0  0  0
   33.2950   25.8720   47.3930 H   0  0  0  0  0  0  0  0  0  0  0  0
   31.2810   24.4270   46.9440 H   0  0  0  0  0  0  0  0  0  0  0  0
   29.0920   25.6040   46.8850 H   0  0  0  0  0  0  0  0  0  0  0  0
   28.8870   27.9980   47.2330 H   0  0  0  0  0  0  0  0  0  0  0  0
   37.7830   30.7110   46.4300 C   0  0  0  0  0  0  0  0  0  0  0  0
   37.2110   31.0840   45.1030 C   0  0  0  0  0  0  0  0  0  0  0  0
   37.9460   30.0850   44.2070 C   0  0  0  0  0  0  0  0  0  0  0  0
   39.3240   29.9880   44.8100 C   0  0  0  0  0  0  0  0  0  0  0  0
   39.2570   30.7910   46.1220 C   0  0  0  0  0  0  0  0  0  0  0  0
  1  2  1  0  0  0  0
  2  7  1  0  0  0  0
  2  3  1  0  0  0  0
  2  8  1  0  0  0  0
  3 10  1  0  0  0  0
  4 12  1  0  0  0  0
  4 11  1  0  0  0  0
  4  3  1  0  0  0  0
  5  4  1  0  0  0  0
  6 15  1  6  0  0  0
  6  5  1  0  0  0  0
  6  1  1  0  0  0  0
  9  3  1  0  0  0  0
 13  5  1  0  0  0  0
 14  5  1  0  0  0  0
 16 22  1  0  0  0  0
 17  1  1  0  0  0  0
 17 16  2  0  0  0  0
 18 17  1  0  0  0  0
 19 18  2  0  0  0  0
 19 20  1  0  0  0  0
 20 21  2  0  0  0  0
 21 16  1  0  0  0  0
 23 18  1  0  0  0  0
 24 20  1  0  0  0  0
 25 30  1  0  0  0  0
 25 24  2  0  0  0  0
 26 25  1  0  0  0  0
 27 26  2  0  0  0  0
 27 28  1  0  0  0  0
 28 29  2  0  0  0  0
 29 24  1  0  0  0  0
 31 26  1  0  0  0  0
 32 27  1  0  0  0  0
 33 28  1  0  0  0  0
 34  6  1  0  0  0  0
 35 34  1  0  0  0  0
 36 37  1  0  0  0  0
 36 35  1  0  0  0  0
 37 38  1  0  0  0  0
 38 34  1  0  0  0  0
M  END
>  <minimizedAffinity>
-5.83473969

>  <minimizedRMSD>
1.03387833

$$$$
