
 OpenBabel03272507343D

 32 35  0  0  1  0  0  0  0  0999 V2000
   35.8350   29.1520   49.8150 C   0  0  0  0  0  0  0  0  0  0  0  0
   34.8330   29.6620   50.6080 C   0  0  0  0  0  0  0  0  0  0  0  0
   33.6210   29.1390   50.1390 C   0  0  0  0  0  0  0  0  0  0  0  0
   33.9670   28.3330   49.0770 C   0  0  0  0  0  0  0  0  0  0  0  0
   35.2730   28.3710   48.9220 O   0  0  0  0  0  0  0  0  0  0  0  0
   34.9290   30.3510   51.4570 H   0  0  0  0  0  0  0  0  0  0  0  0
   32.6240   29.3220   50.5230 H   0  0  0  0  0  0  0  0  0  0  0  0
   37.2370   29.4870   50.0190 C   0  0  0  0  0  0  0  0  0  0  0  0
   37.8880   28.8700   50.8680 O   0  0  0  0  0  0  0  0  0  0  0  0
   37.7790   30.5350   49.2000 C   0  0  0  0  0  0  0  0  0  0  0  0
   38.1270   31.7160   49.8350 C   0  0  0  0  0  0  0  0  0  0  0  0
   38.6560   32.7580   49.0670 C   0  0  0  0  0  0  0  0  0  0  0  0
   38.8060   32.5540   47.7140 N   0  0  0  0  0  0  0  0  0  0  0  0
   38.4590   31.3980   47.1360 C   0  0  0  0  0  0  0  0  0  0  0  0
   37.9510   30.3940   47.8650 N   0  0  0  0  0  0  0  0  0  0  0  0
   38.0190   31.9070   50.9050 H   0  0  0  0  0  0  0  0  0  0  0  0
   38.9330   33.6840   49.5350 H   0  0  0  0  0  0  0  0  0  0  0  0
   38.5880   31.2650   46.0630 H   0  0  0  0  0  0  0  0  0  0  0  0
   33.0410   27.5560   48.2540 C   0  0  0  0  0  0  0  0  0  0  0  0
   31.8210   27.4830   48.6170 O   0  0  0  0  0  0  0  0  0  0  0  0
   33.5310   26.8610   47.0170 C   0  0  1  0  0  0  0  0  0  0  0  0
   33.7950   25.3410   47.3250 C   0  0  0  0  0  0  0  0  0  0  0  0
   32.7380   25.8010   46.3910 C   0  0  2  0  0  0  0  0  0  0  0  0
   34.4980   27.2710   46.6570 H   0  0  0  0  0  0  0  0  0  0  0  0
   33.4360   24.9550   48.2910 H   0  0  0  0  0  0  0  0  0  0  0  0
   34.7150   24.8900   46.9740 H   0  0  0  0  0  0  0  0  0  0  0  0
   31.6870   25.6970   46.6900 H   0  0  0  0  0  0  0  0  0  0  0  0
   32.9680   25.6450   44.8870 C   0  0  0  0  0  3  0  0  0  0  0  0
   31.9170   26.3900   44.0940 C   0  0  0  0  0  2  0  0  0  0  0  0
   32.0420   25.6620   42.7490 C   0  0  0  0  0  2  0  0  0  0  0  0
   31.8680   24.2210   43.2450 C   0  0  0  0  0  2  0  0  0  0  0  0
   32.7610   24.2070   44.4700 C   0  0  0  0  0  2  0  0  0  0  0  0
  1  8  1  0  0  0  0
  1  2  2  0  0  0  0
  2  6  1  0  0  0  0
  3  7  1  0  0  0  0
  3  2  1  0  0  0  0
  4  3  2  0  0  0  0
  5  4  1  0  0  0  0
  5  1  1  0  0  0  0
  8  9  2  0  0  0  0
 10 11  1  0  0  0  0
 10  8  1  0  0  0  0
 11 16  1  0  0  0  0
 12 17  1  0  0  0  0
 12 11  2  0  0  0  0
 13 12  1  0  0  0  0
 14 13  2  0  0  0  0
 14 15  1  0  0  0  0
 15 10  2  0  0  0  0
 18 14  1  0  0  0  0
 19 20  2  0  0  0  0
 19  4  1  0  0  0  0
 21 24  1  6  0  0  0
 21 22  1  0  0  0  0
 21 19  1  0  0  0  0
 22 25  1  0  0  0  0
 23 27  1  1  0  0  0
 23 21  1  0  0  0  0
 23 22  1  0  0  0  0
 26 22  1  0  0  0  0
 28 23  1  0  0  0  0
 29 28  1  0  0  0  0
 30 31  1  0  0  0  0
 30 29  1  0  0  0  0
 31 32  1  0  0  0  0
 32 28  1  0  0  0  0
M  END
>  <minimizedAffinity>
-4.84353352

>  <minimizedRMSD>
0.120716229

$$$$
