
 OpenBabel03272507343D

 32 35  0  0  1  0  0  0  0  0999 V2000
   35.8390   29.1460   49.8160 C   0  0  0  0  0  0  0  0  0  0  0  0
   34.8180   29.6500   50.5880 C   0  0  0  0  0  0  0  0  0  0  0  0
   33.6210   29.1060   50.1050 C   0  0  0  0  0  0  0  0  0  0  0  0
   33.9950   28.2970   49.0550 C   0  0  0  0  0  0  0  0  0  0  0  0
   35.3020   28.3500   48.9210 O   0  0  0  0  0  0  0  0  0  0  0  0
   34.8920   30.3470   51.4320 H   0  0  0  0  0  0  0  0  0  0  0  0
   32.6150   29.2800   50.4710 H   0  0  0  0  0  0  0  0  0  0  0  0
   37.2340   29.5010   50.0390 C   0  0  0  0  0  0  0  0  0  0  0  0
   37.8760   28.9050   50.9110 O   0  0  0  0  0  0  0  0  0  0  0  0
   37.7790   30.5410   49.2130 C   0  0  0  0  0  0  0  0  0  0  0  0
   38.1320   31.7250   49.8400 C   0  0  0  0  0  0  0  0  0  0  0  0
   38.6630   32.7600   49.0650 C   0  0  0  0  0  0  0  0  0  0  0  0
   38.8110   32.5470   47.7130 N   0  0  0  0  0  0  0  0  0  0  0  0
   38.4590   31.3880   47.1430 C   0  0  0  0  0  0  0  0  0  0  0  0
   37.9480   30.3910   47.8800 N   0  0  0  0  0  0  0  0  0  0  0  0
   38.0260   31.9230   50.9100 H   0  0  0  0  0  0  0  0  0  0  0  0
   38.9440   33.6880   49.5270 H   0  0  0  0  0  0  0  0  0  0  0  0
   38.5870   31.2480   46.0710 H   0  0  0  0  0  0  0  0  0  0  0  0
   33.0920   27.5010   48.2240 C   0  0  0  0  0  0  0  0  0  0  0  0
   31.8650   27.4240   48.5620 O   0  0  0  0  0  0  0  0  0  0  0  0
   33.6140   26.7910   47.0080 C   0  0  1  0  0  0  0  0  0  0  0  0
   33.8220   25.2650   47.3270 C   0  0  0  0  0  0  0  0  0  0  0  0
   32.8180   25.7530   46.3490 C   0  0  2  0  0  0  0  0  0  0  0  0
   34.6050   27.1740   46.6890 H   0  0  0  0  0  0  0  0  0  0  0  0
   33.4130   24.8900   48.2760 H   0  0  0  0  0  0  0  0  0  0  0  0
   34.7430   24.7880   47.0140 H   0  0  0  0  0  0  0  0  0  0  0  0
   31.7530   25.6790   46.6040 H   0  0  0  0  0  0  0  0  0  0  0  0
   33.1060   25.5900   44.8560 C   0  0  0  0  0  3  0  0  0  0  0  0
   32.2360   26.5090   44.0290 C   0  0  0  0  0  2  0  0  0  0  0  0
   32.3190   25.7960   42.6720 C   0  0  0  0  0  2  0  0  0  0  0  0
   31.8870   24.3930   43.1200 C   0  0  0  0  0  2  0  0  0  0  0  0
   32.6950   24.2120   44.3900 C   0  0  0  0  0  2  0  0  0  0  0  0
  1  8  1  0  0  0  0
  1  2  2  0  0  0  0
  2  6  1  0  0  0  0
  3  7  1  0  0  0  0
  3  2  1  0  0  0  0
  4  3  2  0  0  0  0
  5  4  1  0  0  0  0
  5  1  1  0  0  0  0
  8  9  2  0  0  0  0
 10 11  1  0  0  0  0
 10  8  1  0  0  0  0
 11 16  1  0  0  0  0
 12 17  1  0  0  0  0
 12 11  2  0  0  0  0
 13 12  1  0  0  0  0
 14 13  2  0  0  0  0
 14 15  1  0  0  0  0
 15 10  2  0  0  0  0
 18 14  1  0  0  0  0
 19 20  2  0  0  0  0
 19  4  1  0  0  0  0
 21 24  1  6  0  0  0
 21 22  1  0  0  0  0
 21 19  1  0  0  0  0
 22 25  1  0  0  0  0
 23 27  1  1  0  0  0
 23 21  1  0  0  0  0
 23 22  1  0  0  0  0
 26 22  1  0  0  0  0
 28 23  1  0  0  0  0
 29 28  1  0  0  0  0
 30 31  1  0  0  0  0
 30 29  1  0  0  0  0
 31 32  1  0  0  0  0
 32 28  1  0  0  0  0
M  END
>  <minimizedAffinity>
-4.84369183

>  <minimizedRMSD>
0.0392243192

$$$$
