
 OpenBabel03272510243D

 28 31  0  0  0  0  0  0  0  0999 V2000
   36.1390   30.1330   46.3470 C   0  0  0  0  0  0  0  0  0  0  0  0
   37.1160   30.8400   47.0450 C   0  0  0  0  0  0  0  0  0  0  0  0
   37.9210   31.7680   46.4100 C   0  0  0  0  0  0  0  0  0  0  0  0
   37.6930   31.9470   45.0430 C   0  0  0  0  0  0  0  0  0  0  0  0
   38.3590   32.8040   44.1980 N   0  0  0  0  0  0  0  0  0  0  0  0
   37.8170   32.6440   42.9950 C   0  0  0  0  0  0  0  0  0  0  0  0
   36.8430   31.7300   43.0360 N   0  0  0  0  0  0  0  0  0  0  0  0
   36.7460   31.2770   44.3100 C   0  0  0  0  0  0  0  0  0  0  0  0
   35.9490   30.3450   44.9830 C   0  0  0  0  0  0  0  0  0  0  0  0
   35.4980   29.4010   46.8310 H   0  0  0  0  0  0  0  0  0  0  0  0
   38.6830   32.3240   46.9390 H   0  0  0  0  0  0  0  0  0  0  0  0
   39.1480   33.4560   44.4820 H   0  0  0  0  0  0  0  0  0  0  0  0
   35.2000   29.8130   44.4170 H   0  0  0  0  0  0  0  0  0  0  0  0
   38.1450   30.8870   50.6680 C   0  0  0  0  0  0  0  0  0  0  0  0
   38.0940   31.2390   49.3260 C   0  0  0  0  0  0  0  0  0  0  0  0
   37.2590   30.5680   48.4670 C   0  0  0  0  0  0  0  0  0  0  0  0
   36.4950   29.5540   48.9940 N   0  0  0  0  0  0  0  0  0  0  0  0
   36.5630   29.2330   50.3010 C   0  0  0  0  0  0  0  0  0  0  0  0
   37.3700   29.8850   51.1190 N   0  0  0  0  0  0  0  0  0  0  0  0
   38.7970   31.4050   51.3570 H   0  0  0  0  0  0  0  0  0  0  0  0
   38.6980   32.0360   48.9190 H   0  0  0  0  0  0  0  0  0  0  0  0
   35.9090   28.4090   50.6120 H   0  0  0  0  0  0  0  0  0  0  0  0
   38.2390   33.3550   41.8740 O   0  0  0  0  0  0  0  0  0  0  0  0
   37.7270   33.0440   40.5720 C   0  0  0  0  0  3  0  0  0  0  0  0
   37.0170   34.2300   39.9510 C   0  0  0  0  0  2  0  0  0  0  0  0
   37.5640   34.3150   38.5310 C   0  0  0  0  0  2  0  0  0  0  0  0
   39.0010   33.9030   38.7570 C   0  0  0  0  0  2  0  0  0  0  0  0
   38.8920   32.7340   39.6800 C   0  0  0  0  0  2  0  0  0  0  0  0
  1 10  1  0  0  0  0
  1  2  1  0  0  0  0
  2 16  1  0  0  0  0
  3 11  1  0  0  0  0
  3  2  2  0  0  0  0
  4  3  1  0  0  0  0
  5 12  1  0  0  0  0
  5  4  1  0  0  0  0
  6  7  2  0  0  0  0
  6  5  1  0  0  0  0
  7  8  1  0  0  0  0
  8  9  1  0  0  0  0
  8  4  2  0  0  0  0
  9  1  2  0  0  0  0
 13  9  1  0  0  0  0
 14 19  1  0  0  0  0
 14 20  1  0  0  0  0
 15 14  2  0  0  0  0
 16 17  2  0  0  0  0
 16 15  1  0  0  0  0
 17 18  1  0  0  0  0
 18 22  1  0  0  0  0
 18 19  2  0  0  0  0
 21 15  1  0  0  0  0
 23  6  1  0  0  0  0
 24 23  1  0  0  0  0
 25 24  1  0  0  0  0
 26 27  1  0  0  0  0
 26 25  1  0  0  0  0
 27 28  1  0  0  0  0
 28 24  1  0  0  0  0
M  END
>  <minimizedAffinity>
-4.91381216

>  <minimizedRMSD>
2.47850847

$$$$
