
 OpenBabel03272502593D

 30 32  0  0  1  0  0  0  0  0999 V2000
   35.9780   29.6900   48.7600 N   0  0  0  0  0  0  0  0  0  0  0  0
   36.7950   28.9460   49.6960 C   0  0  0  0  0  0  0  0  0  0  0  0
   37.3510   29.6660   50.8420 C   0  0  0  0  0  0  0  0  0  0  0  0
   37.5550   31.1140   50.7340 C   0  0  0  0  0  0  0  0  0  0  0  0
   36.7160   31.7840   49.6740 C   0  0  0  0  0  0  0  0  0  0  0  0
   36.6730   30.9030   48.4200 C   0  0  1  0  0  0  0  0  0  0  0  0
   37.6300   28.5200   49.0690 H   0  0  0  0  0  0  0  0  0  0  0  0
   36.1950   28.0670   50.0190 H   0  0  0  0  0  0  0  0  0  0  0  0
   36.6960   29.4510   51.7310 H   0  0  0  0  0  0  0  0  0  0  0  0
   38.3290   29.1950   51.1190 H   0  0  0  0  0  0  0  0  0  0  0  0
   37.2870   31.6260   51.7050 H   0  0  0  0  0  0  0  0  0  0  0  0
   38.6310   31.3730   50.5790 H   0  0  0  0  0  0  0  0  0  0  0  0
   37.1670   32.7630   49.3840 H   0  0  0  0  0  0  0  0  0  0  0  0
   35.6810   31.9160   50.0210 H   0  0  0  0  0  0  0  0  0  0  0  0
   36.1690   31.4600   47.6280 H   0  0  0  0  0  0  0  0  0  0  0  0
   34.7010   29.2670   48.2730 C   0  0  0  0  0  0  0  0  0  0  0  0
   34.1250   29.7220   47.0900 C   0  0  0  0  0  0  0  0  0  0  0  0
   32.8830   29.2390   46.7230 C   0  0  0  0  0  0  0  0  0  0  0  0
   32.2820   28.3330   47.5470 N   0  0  0  0  0  0  0  0  0  0  0  0
   32.8710   27.9160   48.6870 C   0  0  0  0  0  0  0  0  0  0  0  0
   34.0740   28.3860   49.0390 N   0  0  0  0  0  0  0  0  0  0  0  0
   34.6660   30.4300   46.5060 H   0  0  0  0  0  0  0  0  0  0  0  0
   32.4300   29.5890   45.8050 H   0  0  0  0  0  0  0  0  0  0  0  0
   32.3480   27.1960   49.3020 H   0  0  0  0  0  0  0  0  0  0  0  0
   38.0220   30.6440   48.1100 O   0  0  0  0  0  0  0  0  0  0  0  0
   38.3910   31.5350   47.1310 C   0  0  0  0  0  3  0  0  0  0  0  0
   39.7310   31.2020   46.4940 C   0  0  0  0  0  2  0  0  0  0  0  0
   39.7130   32.1090   45.2670 C   0  0  0  0  0  2  0  0  0  0  0  0
   38.2780   32.4020   44.9650 C   0  0  0  0  0  2  0  0  0  0  0  0
   37.5010   31.5210   45.9270 C   0  0  0  0  0  2  0  0  0  0  0  0
  1  2  1  0  0  0  0
  2  8  1  0  0  0  0
  2  3  1  0  0  0  0
  3 10  1  0  0  0  0
  3  9  1  0  0  0  0
  4  3  1  0  0  0  0
  4 11  1  0  0  0  0
  5 14  1  0  0  0  0
  5  4  1  0  0  0  0
  6 15  1  6  0  0  0
  6  1  1  0  0  0  0
  6  5  1  0  0  0  0
  7  2  1  0  0  0  0
 12  4  1  0  0  0  0
 13  5  1  0  0  0  0
 16  1  1  0  0  0  0
 16 21  1  0  0  0  0
 17 16  2  0  0  0  0
 18 17  1  0  0  0  0
 18 19  2  0  0  0  0
 19 20  1  0  0  0  0
 20 21  2  0  0  0  0
 20 24  1  0  0  0  0
 22 17  1  0  0  0  0
 23 18  1  0  0  0  0
 25  6  1  0  0  0  0
 26 25  1  0  0  0  0
 27 26  1  0  0  0  0
 28 27  1  0  0  0  0
 29 28  1  0  0  0  0
 29 30  1  0  0  0  0
 30 26  1  0  0  0  0
M  END
>  <minimizedAffinity>
-5.28404951

>  <minimizedRMSD>
0.730023563

$$$$
