
 OpenBabel03272500493D

 35 39  0  0  1  0  0  0  0  0999 V2000
   36.5890   27.6700   31.7690 C   0  0  1  0  0  0  0  0  0  0  0  0
   38.0610   27.2320   32.0750 C   0  0  0  0  0  0  0  0  0  0  0  0
   36.8890   26.5100   32.6310 C   0  0  2  0  0  0  0  0  0  0  0  0
   36.2080   27.4630   30.7580 H   0  0  0  0  0  0  0  0  0  0  0  0
   38.6570   27.9190   32.6900 H   0  0  0  0  0  0  0  0  0  0  0  0
   38.5710   26.8040   31.1640 H   0  0  0  0  0  0  0  0  0  0  0  0
   36.7120   26.6340   33.7030 H   0  0  0  0  0  0  0  0  0  0  0  0
   35.3240   30.2910   33.8960 C   0  0  0  0  0  0  0  0  0  0  0  0
   35.7120   31.0350   32.7850 C   0  0  0  0  0  0  0  0  0  0  0  0
   36.2410   30.1430   31.8360 C   0  0  0  0  0  0  0  0  0  0  0  0
   36.1630   28.9160   32.3790 N   0  0  0  0  0  0  0  0  0  0  0  0
   35.6280   29.0560   33.5660 N   0  0  0  0  0  0  0  0  0  0  0  0
   35.6380   32.1160   32.6320 H   0  0  0  0  0  0  0  0  0  0  0  0
   36.6250   30.4290   30.8680 H   0  0  0  0  0  0  0  0  0  0  0  0
   33.3780   30.6650   35.4380 C   0  0  0  0  0  0  0  0  0  0  0  0
   34.7360   30.8630   35.0770 C   0  0  0  0  0  0  0  0  0  0  0  0
   35.4980   31.6470   35.9210 C   0  0  0  0  0  0  0  0  0  0  0  0
   34.9120   32.1760   37.0330 N   0  0  0  0  0  0  0  0  0  0  0  0
   33.6200   31.9590   37.3310 C   0  0  0  0  0  0  0  0  0  0  0  0
   32.8400   31.1930   36.5240 N   0  0  0  0  0  0  0  0  0  0  0  0
   32.8310   30.0340   34.7250 H   0  0  0  0  0  0  0  0  0  0  0  0
   36.5550   31.8690   35.7470 H   0  0  0  0  0  0  0  0  0  0  0  0
   33.2090   32.4010   38.2210 H   0  0  0  0  0  0  0  0  0  0  0  0
   36.5630   25.1300   32.1340 C   0  0  0  0  0  0  0  0  0  0  0  0
   35.5680   24.8580   31.1890 C   0  0  0  0  0  0  0  0  0  0  0  0
   35.5570   23.5120   30.9920 N   0  0  0  0  0  0  0  0  0  0  0  0
   36.5150   22.9620   31.7880 C   0  0  0  0  0  0  0  0  0  0  0  0
   37.1340   23.9460   32.4900 N   0  0  0  0  0  0  0  0  0  0  0  0
   34.9200   25.5910   30.6990 H   0  0  0  0  0  0  0  0  0  0  0  0
   34.9010   23.0570   30.3310 H   0  0  0  0  0  0  0  0  0  0  0  0
   36.8210   21.4890   31.8640 C   0  0  0  0  0  3  0  0  0  0  0  0
   35.7960   20.7050   31.1150 C   0  0  0  0  0  2  0  0  0  0  0  0
   34.9150   20.1010   32.1830 C   0  0  0  0  0  2  0  0  0  0  0  0
   35.4990   20.4590   33.5170 C   0  0  0  0  0  2  0  0  0  0  0  0
   36.8680   21.0110   33.2820 C   0  0  0  0  0  2  0  0  0  0  0  0
  1  4  1  6  0  0  0
  1  2  1  0  0  0  0
  1 11  1  0  0  0  0
  1  3  1  0  0  0  0
  2  3  1  0  0  0  0
  2  5  1  0  0  0  0
  3  7  1  1  0  0  0
  6  2  1  0  0  0  0
  8 16  1  0  0  0  0
  9  8  1  0  0  0  0
 10 11  1  0  0  0  0
 10  9  2  0  0  0  0
 11 12  1  0  0  0  0
 12  8  2  0  0  0  0
 13  9  1  0  0  0  0
 14 10  1  0  0  0  0
 15 20  1  0  0  0  0
 16 15  2  0  0  0  0
 16 17  1  0  0  0  0
 17 18  2  0  0  0  0
 18 19  1  0  0  0  0
 19 23  1  0  0  0  0
 20 19  2  0  0  0  0
 21 15  1  0  0  0  0
 22 17  1  0  0  0  0
 24 28  1  0  0  0  0
 24  3  1  0  0  0  0
 25 24  2  0  0  0  0
 26 25  1  0  0  0  0
 26 27  1  0  0  0  0
 27 31  1  0  0  0  0
 27 28  2  0  0  0  0
 29 25  1  0  0  0  0
 30 26  1  0  0  0  0
 31 35  1  0  0  0  0
 32 31  1  0  0  0  0
 32 33  1  0  0  0  0
 33 34  1  0  0  0  0
 35 34  1  0  0  0  0
M  END
>  <minimizedAffinity>
-5.957201

$$$$

 OpenBabel03272500493D

 35 39  0  0  1  0  0  0  0  0999 V2000
   38.1200   26.6420   34.5180 C   0  0  1  0  0  0  0  0  0  0  0  0
   38.9660   27.2830   35.6700 C   0  0  0  0  0  0  0  0  0  0  0  0
   37.9450   26.2360   35.9260 C   0  0  2  0  0  0  0  0  0  0  0  0
   38.6400   25.9380   33.8510 H   0  0  0  0  0  0  0  0  0  0  0  0
   38.7690   28.3420   35.8880 H   0  0  0  0  0  0  0  0  0  0  0  0
   40.0490   26.9740   35.6190 H   0  0  0  0  0  0  0  0  0  0  0  0
   37.0300   26.5670   36.4250 H   0  0  0  0  0  0  0  0  0  0  0  0
   35.4680   28.9580   33.7470 C   0  0  0  0  0  0  0  0  0  0  0  0
   35.8870   28.6190   32.4620 C   0  0  0  0  0  0  0  0  0  0  0  0
   36.9430   27.7000   32.5850 C   0  0  0  0  0  0  0  0  0  0  0  0
   37.1340   27.5100   33.9020 N   0  0  0  0  0  0  0  0  0  0  0  0
   36.2590   28.2580   34.5280 N   0  0  0  0  0  0  0  0  0  0  0  0
   35.4960   28.9750   31.5050 H   0  0  0  0  0  0  0  0  0  0  0  0
   37.4720   27.2540   31.7560 H   0  0  0  0  0  0  0  0  0  0  0  0
   33.1390   29.8200   33.3740 C   0  0  0  0  0  0  0  0  0  0  0  0
   34.4010   29.8810   34.0220 C   0  0  0  0  0  0  0  0  0  0  0  0
   34.5750   30.8850   34.9550 C   0  0  0  0  0  0  0  0  0  0  0  0
   33.5440   31.7440   35.1940 N   0  0  0  0  0  0  0  0  0  0  0  0
   32.3670   31.6450   34.5530 C   0  0  0  0  0  0  0  0  0  0  0  0
   32.1600   30.6700   33.6300 N   0  0  0  0  0  0  0  0  0  0  0  0
   33.0690   29.0010   32.6470 H   0  0  0  0  0  0  0  0  0  0  0  0
   35.5020   31.0310   35.5170 H   0  0  0  0  0  0  0  0  0  0  0  0
   31.5880   32.3500   34.7810 H   0  0  0  0  0  0  0  0  0  0  0  0
   38.3820   24.8610   36.3480 C   0  0  0  0  0  0  0  0  0  0  0  0
   37.7740   24.1340   37.3790 C   0  0  0  0  0  0  0  0  0  0  0  0
   38.4340   22.9490   37.4790 N   0  0  0  0  0  0  0  0  0  0  0  0
   39.4220   22.9370   36.5420 C   0  0  0  0  0  0  0  0  0  0  0  0
   39.3960   24.1040   35.8470 N   0  0  0  0  0  0  0  0  0  0  0  0
   36.9250   24.4590   37.9890 H   0  0  0  0  0  0  0  0  0  0  0  0
   38.1710   22.2290   38.1760 H   0  0  0  0  0  0  0  0  0  0  0  0
   40.3830   21.7980   36.3280 C   0  0  0  0  0  3  0  0  0  0  0  0
   41.4010   21.7630   37.4190 C   0  0  0  0  0  2  0  0  0  0  0  0
   42.6560   22.3240   36.7950 C   0  0  0  0  0  2  0  0  0  0  0  0
   42.3740   22.5750   35.3430 C   0  0  0  0  0  2  0  0  0  0  0  0
   41.0800   21.9070   35.0080 C   0  0  0  0  0  2  0  0  0  0  0  0
  1  4  1  6  0  0  0
  1  2  1  0  0  0  0
  1  3  1  0  0  0  0
  2  5  1  0  0  0  0
  2  3  1  0  0  0  0
  3 24  1  0  0  0  0
  3  7  1  1  0  0  0
  6  2  1  0  0  0  0
  8 16  1  0  0  0  0
  8 12  2  0  0  0  0
  9 10  2  0  0  0  0
  9  8  1  0  0  0  0
 10 11  1  0  0  0  0
 11  1  1  0  0  0  0
 11 12  1  0  0  0  0
 13  9  1  0  0  0  0
 14 10  1  0  0  0  0
 15 20  2  0  0  0  0
 15 16  1  0  0  0  0
 16 17  2  0  0  0  0
 17 18  1  0  0  0  0
 17 22  1  0  0  0  0
 19 23  1  0  0  0  0
 19 18  2  0  0  0  0
 20 19  1  0  0  0  0
 21 15  1  0  0  0  0
 24 25  2  0  0  0  0
 25 26  1  0  0  0  0
 25 29  1  0  0  0  0
 26 30  1  0  0  0  0
 27 26  1  0  0  0  0
 28 24  1  0  0  0  0
 28 27  2  0  0  0  0
 31 27  1  0  0  0  0
 31 32  1  0  0  0  0
 33 32  1  0  0  0  0
 34 33  1  0  0  0  0
 35 34  1  0  0  0  0
 35 31  1  0  0  0  0
M  END
>  <minimizedAffinity>
-5.71195889

$$$$

 OpenBabel03272500493D

 35 39  0  0  1  0  0  0  0  0999 V2000
   36.6690   27.3140   32.9950 C   0  0  1  0  0  0  0  0  0  0  0  0
   38.0340   27.5680   32.2700 C   0  0  0  0  0  0  0  0  0  0  0  0
   37.9590   27.1420   33.6900 C   0  0  2  0  0  0  0  0  0  0  0  0
   36.1200   26.4020   32.7180 H   0  0  0  0  0  0  0  0  0  0  0  0
   38.2520   28.6080   31.9920 H   0  0  0  0  0  0  0  0  0  0  0  0
   38.2460   26.7850   31.4860 H   0  0  0  0  0  0  0  0  0  0  0  0
   38.2230   27.9000   34.4340 H   0  0  0  0  0  0  0  0  0  0  0  0
   35.0280   30.2060   34.3860 C   0  0  0  0  0  0  0  0  0  0  0  0
   34.4750   30.1950   33.1080 C   0  0  0  0  0  0  0  0  0  0  0  0
   35.0230   29.1020   32.4150 C   0  0  0  0  0  0  0  0  0  0  0  0
   35.8690   28.4940   33.2640 N   0  0  0  0  0  0  0  0  0  0  0  0
   35.8350   29.1700   34.3860 N   0  0  0  0  0  0  0  0  0  0  0  0
   33.7470   30.8880   32.6770 H   0  0  0  0  0  0  0  0  0  0  0  0
   34.7830   28.8350   31.3960 H   0  0  0  0  0  0  0  0  0  0  0  0
   35.5250   32.3120   35.6600 C   0  0  0  0  0  0  0  0  0  0  0  0
   34.7060   31.1850   35.3880 C   0  0  0  0  0  0  0  0  0  0  0  0
   33.5530   31.0570   36.1390 C   0  0  0  0  0  0  0  0  0  0  0  0
   33.2750   32.0030   37.0810 N   0  0  0  0  0  0  0  0  0  0  0  0
   34.0850   33.0520   37.3010 C   0  0  0  0  0  0  0  0  0  0  0  0
   35.2260   33.2100   36.5820 N   0  0  0  0  0  0  0  0  0  0  0  0
   36.4230   32.3520   35.0300 H   0  0  0  0  0  0  0  0  0  0  0  0
   32.8440   30.2320   36.0190 H   0  0  0  0  0  0  0  0  0  0  0  0
   33.8170   33.7680   38.0580 H   0  0  0  0  0  0  0  0  0  0  0  0
   38.4020   25.7590   34.0740 C   0  0  0  0  0  0  0  0  0  0  0  0
   39.3390   25.0130   33.3500 C   0  0  0  0  0  0  0  0  0  0  0  0
   39.4840   23.8200   33.9870 N   0  0  0  0  0  0  0  0  0  0  0  0
   38.6640   23.8220   35.0740 C   0  0  0  0  0  0  0  0  0  0  0  0
   37.9990   25.0040   35.1340 N   0  0  0  0  0  0  0  0  0  0  0  0
   39.8590   25.3310   32.4400 H   0  0  0  0  0  0  0  0  0  0  0  0
   40.1290   23.0860   33.6430 H   0  0  0  0  0  0  0  0  0  0  0  0
   38.5300   22.6780   36.0450 C   0  0  0  0  0  3  0  0  0  0  0  0
   37.7730   23.1090   37.2570 C   0  0  0  0  0  2  0  0  0  0  0  0
   38.8230   23.2830   38.3280 C   0  0  0  0  0  2  0  0  0  0  0  0
   40.1410   22.8560   37.7520 C   0  0  0  0  0  2  0  0  0  0  0  0
   39.8690   22.1530   36.4620 C   0  0  0  0  0  2  0  0  0  0  0  0
  1  4  1  6  0  0  0
  1 11  1  0  0  0  0
  1  3  1  0  0  0  0
  2  1  1  0  0  0  0
  2  3  1  0  0  0  0
  3 24  1  0  0  0  0
  3  7  1  1  0  0  0
  5  2  1  0  0  0  0
  6  2  1  0  0  0  0
  8 12  2  0  0  0  0
  8 16  1  0  0  0  0
  9  8  1  0  0  0  0
 10  9  2  0  0  0  0
 10 11  1  0  0  0  0
 11 12  1  0  0  0  0
 13  9  1  0  0  0  0
 14 10  1  0  0  0  0
 15 20  1  0  0  0  0
 16 15  2  0  0  0  0
 16 17  1  0  0  0  0
 17 18  2  0  0  0  0
 18 19  1  0  0  0  0
 19 23  1  0  0  0  0
 20 19  2  0  0  0  0
 21 15  1  0  0  0  0
 22 17  1  0  0  0  0
 24 28  1  0  0  0  0
 25 26  1  0  0  0  0
 25 24  2  0  0  0  0
 26 27  1  0  0  0  0
 27 28  2  0  0  0  0
 27 31  1  0  0  0  0
 29 25  1  0  0  0  0
 30 26  1  0  0  0  0
 31 35  1  0  0  0  0
 31 32  1  0  0  0  0
 32 33  1  0  0  0  0
 34 33  1  0  0  0  0
 35 34  1  0  0  0  0
M  END
>  <minimizedAffinity>
-5.63997555

$$$$

 OpenBabel03272500493D

 35 39  0  0  1  0  0  0  0  0999 V2000
   36.9520   27.0960   32.2210 C   0  0  1  0  0  0  0  0  0  0  0  0
   38.5140   27.0760   32.3380 C   0  0  0  0  0  0  0  0  0  0  0  0
   37.6410   26.2920   33.2480 C   0  0  2  0  0  0  0  0  0  0  0  0
   36.5100   26.5570   31.3700 H   0  0  0  0  0  0  0  0  0  0  0  0
   38.9910   28.0110   32.6630 H   0  0  0  0  0  0  0  0  0  0  0  0
   38.9950   26.5450   31.4670 H   0  0  0  0  0  0  0  0  0  0  0  0
   37.5770   26.6500   34.2790 H   0  0  0  0  0  0  0  0  0  0  0  0
   35.3770   29.8620   33.9130 C   0  0  0  0  0  0  0  0  0  0  0  0
   35.3710   30.3340   32.6030 C   0  0  0  0  0  0  0  0  0  0  0  0
   35.9660   29.3510   31.7920 C   0  0  0  0  0  0  0  0  0  0  0  0
   36.3070   28.3380   32.6060 N   0  0  0  0  0  0  0  0  0  0  0  0
   35.9470   28.6820   33.8180 N   0  0  0  0  0  0  0  0  0  0  0  0
   34.9870   31.2860   32.2260 H   0  0  0  0  0  0  0  0  0  0  0  0
   36.1020   29.4330   30.7240 H   0  0  0  0  0  0  0  0  0  0  0  0
   33.4730   30.5920   35.3780 C   0  0  0  0  0  0  0  0  0  0  0  0
   34.8490   30.5970   35.0300 C   0  0  0  0  0  0  0  0  0  0  0  0
   35.6910   31.3520   35.8240 C   0  0  0  0  0  0  0  0  0  0  0  0
   35.1600   32.0380   36.8760 N   0  0  0  0  0  0  0  0  0  0  0  0
   33.8480   32.0020   37.1630 C   0  0  0  0  0  0  0  0  0  0  0  0
   32.9910   31.2690   36.4050 N   0  0  0  0  0  0  0  0  0  0  0  0
   32.8630   29.9740   34.7080 H   0  0  0  0  0  0  0  0  0  0  0  0
   36.7680   31.4320   35.6540 H   0  0  0  0  0  0  0  0  0  0  0  0
   33.4830   32.5620   38.0060 H   0  0  0  0  0  0  0  0  0  0  0  0
   37.6140   24.7940   33.1400 C   0  0  0  0  0  0  0  0  0  0  0  0
   38.1530   23.9340   34.1050 C   0  0  0  0  0  0  0  0  0  0  0  0
   37.9500   22.6620   33.6690 N   0  0  0  0  0  0  0  0  0  0  0  0
   37.3050   22.7250   32.4720 C   0  0  0  0  0  0  0  0  0  0  0  0
   37.0970   24.0250   32.1420 N   0  0  0  0  0  0  0  0  0  0  0  0
   38.6450   24.2320   35.0360 H   0  0  0  0  0  0  0  0  0  0  0  0
   38.2620   21.8370   34.2130 H   0  0  0  0  0  0  0  0  0  0  0  0
   36.8980   21.5250   31.6570 C   0  0  0  0  0  3  0  0  0  0  0  0
   35.4780   21.6530   31.2150 C   0  0  0  0  0  2  0  0  0  0  0  0
   34.7070   20.7180   32.1170 C   0  0  0  0  0  2  0  0  0  0  0  0
   35.6960   19.9980   32.9850 C   0  0  0  0  0  2  0  0  0  0  0  0
   37.0610   20.2550   32.4310 C   0  0  0  0  0  2  0  0  0  0  0  0
  1  4  1  6  0  0  0
  1  2  1  0  0  0  0
  1 11  1  0  0  0  0
  1  3  1  0  0  0  0
  2  5  1  0  0  0  0
  2  3  1  0  0  0  0
  3  7  1  1  0  0  0
  6  2  1  0  0  0  0
  8 16  1  0  0  0  0
  9  8  1  0  0  0  0
 10  9  2  0  0  0  0
 10 11  1  0  0  0  0
 11 12  1  0  0  0  0
 12  8  2  0  0  0  0
 13  9  1  0  0  0  0
 14 10  1  0  0  0  0
 15 20  1  0  0  0  0
 16 15  2  0  0  0  0
 16 17  1  0  0  0  0
 17 18  2  0  0  0  0
 18 19  1  0  0  0  0
 19 23  1  0  0  0  0
 20 19  2  0  0  0  0
 21 15  1  0  0  0  0
 22 17  1  0  0  0  0
 24  3  1  0  0  0  0
 24 25  2  0  0  0  0
 25 29  1  0  0  0  0
 26 25  1  0  0  0  0
 26 30  1  0  0  0  0
 27 26  1  0  0  0  0
 28 27  2  0  0  0  0
 28 24  1  0  0  0  0
 31 35  1  0  0  0  0
 31 27  1  0  0  0  0
 32 31  1  0  0  0  0
 32 33  1  0  0  0  0
 33 34  1  0  0  0  0
 35 34  1  0  0  0  0
M  END
>  <minimizedAffinity>
-5.6344142

$$$$

 OpenBabel03272500493D

 35 39  0  0  1  0  0  0  0  0999 V2000
   36.9910   28.0430   32.1420 C   0  0  1  0  0  0  0  0  0  0  0  0
   36.2350   28.9520   31.1150 C   0  0  0  0  0  0  0  0  0  0  0  0
   35.5620   28.3700   32.3040 C   0  0  2  0  0  0  0  0  0  0  0  0
   37.7030   28.5410   32.8180 H   0  0  0  0  0  0  0  0  0  0  0  0
   36.0880   28.5340   30.1100 H   0  0  0  0  0  0  0  0  0  0  0  0
   36.5810   30.0240   31.1670 H   0  0  0  0  0  0  0  0  0  0  0  0
   34.8470   27.5660   32.1060 H   0  0  0  0  0  0  0  0  0  0  0  0
   37.2530   24.5450   31.3130 C   0  0  0  0  0  0  0  0  0  0  0  0
   38.4090   25.0330   30.7080 C   0  0  0  0  0  0  0  0  0  0  0  0
   38.4610   26.4180   30.9410 C   0  0  0  0  0  0  0  0  0  0  0  0
   37.3690   26.7270   31.6610 N   0  0  0  0  0  0  0  0  0  0  0  0
   36.7060   25.6130   31.8480 N   0  0  0  0  0  0  0  0  0  0  0  0
   39.1650   24.4800   30.1440 H   0  0  0  0  0  0  0  0  0  0  0  0
   39.2460   27.0730   30.5930 H   0  0  0  0  0  0  0  0  0  0  0  0
   35.6030   22.7070   31.7660 C   0  0  0  0  0  0  0  0  0  0  0  0
   36.8590   23.1620   31.2860 C   0  0  0  0  0  0  0  0  0  0  0  0
   37.7160   22.2070   30.7750 C   0  0  0  0  0  0  0  0  0  0  0  0
   37.3130   20.9040   30.7630 N   0  0  0  0  0  0  0  0  0  0  0  0
   36.1120   20.5230   31.2300 C   0  0  0  0  0  0  0  0  0  0  0  0
   35.2440   21.4350   31.7390 N   0  0  0  0  0  0  0  0  0  0  0  0
   34.9730   23.5160   32.1570 H   0  0  0  0  0  0  0  0  0  0  0  0
   38.7080   22.4380   30.3770 H   0  0  0  0  0  0  0  0  0  0  0  0
   35.8460   19.4810   31.1960 H   0  0  0  0  0  0  0  0  0  0  0  0
   35.1420   29.2680   33.4320 C   0  0  0  0  0  0  0  0  0  0  0  0
   33.8090   29.4790   33.8050 C   0  0  0  0  0  0  0  0  0  0  0  0
   33.8160   30.3480   34.8510 N   0  0  0  0  0  0  0  0  0  0  0  0
   35.1110   30.6690   35.1230 C   0  0  0  0  0  0  0  0  0  0  0  0
   35.9280   30.0130   34.2590 N   0  0  0  0  0  0  0  0  0  0  0  0
   32.9270   29.0280   33.3410 H   0  0  0  0  0  0  0  0  0  0  0  0
   32.9430   30.6640   35.3110 H   0  0  0  0  0  0  0  0  0  0  0  0
   35.5460   31.6100   36.2160 C   0  0  0  0  0  3  0  0  0  0  0  0
   34.3680   32.0700   37.0080 C   0  0  0  0  0  2  0  0  0  0  0  0
   34.1120   33.4820   36.5350 C   0  0  0  0  0  2  0  0  0  0  0  0
   35.1970   33.8440   35.5640 C   0  0  0  0  0  2  0  0  0  0  0  0
   36.2630   32.8010   35.6610 C   0  0  0  0  0  2  0  0  0  0  0  0
  1  3  1  0  0  0  0
  1  4  1  1  0  0  0
  2  6  1  0  0  0  0
  2  1  1  0  0  0  0
  2  3  1  0  0  0  0
  3  7  1  6  0  0  0
  3 24  1  0  0  0  0
  5  2  1  0  0  0  0
  8 12  2  0  0  0  0
  9 10  2  0  0  0  0
  9  8  1  0  0  0  0
 10 11  1  0  0  0  0
 11 12  1  0  0  0  0
 11  1  1  0  0  0  0
 13  9  1  0  0  0  0
 14 10  1  0  0  0  0
 15 21  1  0  0  0  0
 16  8  1  0  0  0  0
 16 15  2  0  0  0  0
 17 16  1  0  0  0  0
 18 17  2  0  0  0  0
 18 19  1  0  0  0  0
 19 20  2  0  0  0  0
 20 15  1  0  0  0  0
 22 17  1  0  0  0  0
 23 19  1  0  0  0  0
 24 25  2  0  0  0  0
 24 28  1  0  0  0  0
 25 26  1  0  0  0  0
 26 27  1  0  0  0  0
 26 30  1  0  0  0  0
 27 31  1  0  0  0  0
 28 27  2  0  0  0  0
 29 25  1  0  0  0  0
 31 32  1  0  0  0  0
 33 32  1  0  0  0  0
 34 35  1  0  0  0  0
 34 33  1  0  0  0  0
 35 31  1  0  0  0  0
M  END
>  <minimizedAffinity>
-5.32825232

$$$$

 OpenBabel03272500493D

 35 39  0  0  1  0  0  0  0  0999 V2000
   36.3360   28.5210   33.8240 C   0  0  1  0  0  0  0  0  0  0  0  0
   36.2750   29.0740   32.3600 C   0  0  0  0  0  0  0  0  0  0  0  0
   35.0580   28.6500   33.0980 C   0  0  2  0  0  0  0  0  0  0  0  0
   36.5370   29.2500   34.6230 H   0  0  0  0  0  0  0  0  0  0  0  0
   36.7240   28.4420   31.5810 H   0  0  0  0  0  0  0  0  0  0  0  0
   36.5180   30.1740   32.3150 H   0  0  0  0  0  0  0  0  0  0  0  0
   34.5890   27.7220   32.7580 H   0  0  0  0  0  0  0  0  0  0  0  0
   37.9070   25.4880   34.9740 C   0  0  0  0  0  0  0  0  0  0  0  0
   37.7290   25.1820   33.6260 C   0  0  0  0  0  0  0  0  0  0  0  0
   37.1110   26.2880   33.0150 C   0  0  0  0  0  0  0  0  0  0  0  0
   36.9360   27.2090   33.9780 N   0  0  0  0  0  0  0  0  0  0  0  0
   37.4110   26.6990   35.0880 N   0  0  0  0  0  0  0  0  0  0  0  0
   38.0020   24.2660   33.0960 H   0  0  0  0  0  0  0  0  0  0  0  0
   36.8460   26.3470   31.9700 H   0  0  0  0  0  0  0  0  0  0  0  0
   39.7330   23.9140   35.6770 C   0  0  0  0  0  0  0  0  0  0  0  0
   38.5110   24.5920   35.9230 C   0  0  0  0  0  0  0  0  0  0  0  0
   37.9020   24.3590   37.1410 C   0  0  0  0  0  0  0  0  0  0  0  0
   38.4990   23.5040   38.0200 N   0  0  0  0  0  0  0  0  0  0  0  0
   39.6580   22.8850   37.7390 C   0  0  0  0  0  0  0  0  0  0  0  0
   40.2860   23.0920   36.5520 N   0  0  0  0  0  0  0  0  0  0  0  0
   40.1620   24.1450   34.6930 H   0  0  0  0  0  0  0  0  0  0  0  0
   36.9590   24.8240   37.4420 H   0  0  0  0  0  0  0  0  0  0  0  0
   40.0850   22.2220   38.4700 H   0  0  0  0  0  0  0  0  0  0  0  0
   34.0650   29.6840   33.5460 C   0  0  0  0  0  0  0  0  0  0  0  0
   33.3970   30.5510   32.6740 C   0  0  0  0  0  0  0  0  0  0  0  0
   32.5900   31.3420   33.4320 N   0  0  0  0  0  0  0  0  0  0  0  0
   32.7490   30.9800   34.7350 C   0  0  0  0  0  0  0  0  0  0  0  0
   33.6500   29.9660   34.8120 N   0  0  0  0  0  0  0  0  0  0  0  0
   33.5040   30.5860   31.5850 H   0  0  0  0  0  0  0  0  0  0  0  0
   31.9860   32.0740   33.0150 H   0  0  0  0  0  0  0  0  0  0  0  0
   32.0290   31.6190   35.8930 C   0  0  0  0  0  3  0  0  0  0  0  0
   31.9160   33.0930   35.6870 C   0  0  0  0  0  2  0  0  0  0  0  0
   32.9550   33.6920   36.6070 C   0  0  0  0  0  2  0  0  0  0  0  0
   33.5710   32.5730   37.3940 C   0  0  0  0  0  2  0  0  0  0  0  0
   32.7310   31.3540   37.1880 C   0  0  0  0  0  2  0  0  0  0  0  0
  1 11  1  0  0  0  0
  1  4  1  1  0  0  0
  2  3  1  0  0  0  0
  2  1  1  0  0  0  0
  3  7  1  6  0  0  0
  3 24  1  0  0  0  0
  3  1  1  0  0  0  0
  5  2  1  0  0  0  0
  6  2  1  0  0  0  0
  8 12  2  0  0  0  0
  8 16  1  0  0  0  0
  9  8  1  0  0  0  0
 10  9  2  0  0  0  0
 10 11  1  0  0  0  0
 11 12  1  0  0  0  0
 13  9  1  0  0  0  0
 14 10  1  0  0  0  0
 15 16  2  0  0  0  0
 15 20  1  0  0  0  0
 16 17  1  0  0  0  0
 17 22  1  0  0  0  0
 17 18  2  0  0  0  0
 19 18  1  0  0  0  0
 19 23  1  0  0  0  0
 20 19  2  0  0  0  0
 21 15  1  0  0  0  0
 24 28  1  0  0  0  0
 25 26  1  0  0  0  0
 25 24  2  0  0  0  0
 26 27  1  0  0  0  0
 27 28  2  0  0  0  0
 27 31  1  0  0  0  0
 29 25  1  0  0  0  0
 30 26  1  0  0  0  0
 31 35  1  0  0  0  0
 32 31  1  0  0  0  0
 32 33  1  0  0  0  0
 33 34  1  0  0  0  0
 35 34  1  0  0  0  0
M  END
>  <minimizedAffinity>
-5.25521278

$$$$

 OpenBabel03272500493D

 35 39  0  0  1  0  0  0  0  0999 V2000
   36.3530   27.4170   32.3560 C   0  0  1  0  0  0  0  0  0  0  0  0
   36.5100   28.5420   31.2770 C   0  0  0  0  0  0  0  0  0  0  0  0
   35.2980   28.4230   32.1270 C   0  0  2  0  0  0  0  0  0  0  0  0
   36.9560   27.5180   33.2710 H   0  0  0  0  0  0  0  0  0  0  0  0
   36.5090   28.2140   30.2280 H   0  0  0  0  0  0  0  0  0  0  0  0
   37.2960   29.2960   31.5660 H   0  0  0  0  0  0  0  0  0  0  0  0
   34.3900   28.0790   31.6250 H   0  0  0  0  0  0  0  0  0  0  0  0
   36.6440   23.9580   31.3860 C   0  0  0  0  0  0  0  0  0  0  0  0
   35.3760   24.2520   30.8890 C   0  0  0  0  0  0  0  0  0  0  0  0
   35.1000   25.5970   31.1900 C   0  0  0  0  0  0  0  0  0  0  0  0
   36.1750   26.0710   31.8430 N   0  0  0  0  0  0  0  0  0  0  0  0
   37.0360   25.0880   31.9300 N   0  0  0  0  0  0  0  0  0  0  0  0
   34.6860   23.5910   30.3560 H   0  0  0  0  0  0  0  0  0  0  0  0
   34.1880   26.1120   30.9300 H   0  0  0  0  0  0  0  0  0  0  0  0
   38.4600   22.4540   30.5220 C   0  0  0  0  0  0  0  0  0  0  0  0
   37.2710   22.6700   31.2660 C   0  0  0  0  0  0  0  0  0  0  0  0
   36.7190   21.5690   31.8920 C   0  0  0  0  0  0  0  0  0  0  0  0
   37.3360   20.3600   31.7600 N   0  0  0  0  0  0  0  0  0  0  0  0
   38.4620   20.2080   31.0430 C   0  0  0  0  0  0  0  0  0  0  0  0
   39.0340   21.2680   30.4140 N   0  0  0  0  0  0  0  0  0  0  0  0
   38.8440   23.3690   30.0520 H   0  0  0  0  0  0  0  0  0  0  0  0
   35.8050   21.6120   32.4930 H   0  0  0  0  0  0  0  0  0  0  0  0
   38.9080   19.2320   30.9720 H   0  0  0  0  0  0  0  0  0  0  0  0
   35.0320   29.4550   33.1870 C   0  0  0  0  0  0  0  0  0  0  0  0
   33.8200   30.1430   33.3150 C   0  0  0  0  0  0  0  0  0  0  0  0
   33.9480   30.9920   34.3700 N   0  0  0  0  0  0  0  0  0  0  0  0
   35.1990   30.8360   34.8850 C   0  0  0  0  0  0  0  0  0  0  0  0
   35.8680   29.8980   34.1660 N   0  0  0  0  0  0  0  0  0  0  0  0
   32.9340   30.0220   32.6830 H   0  0  0  0  0  0  0  0  0  0  0  0
   33.1790   31.6180   34.6710 H   0  0  0  0  0  0  0  0  0  0  0  0
   35.7370   31.5990   36.0670 C   0  0  0  0  0  3  0  0  0  0  0  0
   34.6210   32.0450   36.9520 C   0  0  0  0  0  2  0  0  0  0  0  0
   34.4650   33.5200   36.6630 C   0  0  0  0  0  2  0  0  0  0  0  0
   35.5490   33.9170   35.7050 C   0  0  0  0  0  2  0  0  0  0  0  0
   36.5310   32.7920   35.6350 C   0  0  0  0  0  2  0  0  0  0  0  0
  1  4  1  1  0  0  0
  2  6  1  0  0  0  0
  2  3  1  0  0  0  0
  2  1  1  0  0  0  0
  3  7  1  6  0  0  0
  3  1  1  0  0  0  0
  3 24  1  0  0  0  0
  5  2  1  0  0  0  0
  8 12  2  0  0  0  0
  9 10  2  0  0  0  0
  9  8  1  0  0  0  0
 10 11  1  0  0  0  0
 11 12  1  0  0  0  0
 11  1  1  0  0  0  0
 13  9  1  0  0  0  0
 14 10  1  0  0  0  0
 15 16  1  0  0  0  0
 16  8  1  0  0  0  0
 16 17  2  0  0  0  0
 17 22  1  0  0  0  0
 18 17  1  0  0  0  0
 19 18  2  0  0  0  0
 20 15  2  0  0  0  0
 20 19  1  0  0  0  0
 21 15  1  0  0  0  0
 23 19  1  0  0  0  0
 24 25  2  0  0  0  0
 24 28  1  0  0  0  0
 25 26  1  0  0  0  0
 26 30  1  0  0  0  0
 26 27  1  0  0  0  0
 27 31  1  0  0  0  0
 28 27  2  0  0  0  0
 29 25  1  0  0  0  0
 31 32  1  0  0  0  0
 33 32  1  0  0  0  0
 34 33  1  0  0  0  0
 35 34  1  0  0  0  0
 35 31  1  0  0  0  0
M  END
>  <minimizedAffinity>
-5.23677492

$$$$

 OpenBabel03272500493D

 35 39  0  0  1  0  0  0  0  0999 V2000
   37.3680   25.7600   31.5460 C   0  0  1  0  0  0  0  0  0  0  0  0
   35.8960   25.4490   31.1110 C   0  0  0  0  0  0  0  0  0  0  0  0
   36.2460   26.6400   31.9250 C   0  0  2  0  0  0  0  0  0  0  0  0
   38.0510   26.1230   30.7630 H   0  0  0  0  0  0  0  0  0  0  0  0
   35.4320   24.5610   31.5620 H   0  0  0  0  0  0  0  0  0  0  0  0
   35.7470   25.5830   30.0020 H   0  0  0  0  0  0  0  0  0  0  0  0
   35.9330   26.6150   32.9730 H   0  0  0  0  0  0  0  0  0  0  0  0
   38.4450   24.0490   34.5290 C   0  0  0  0  0  0  0  0  0  0  0  0
   38.9900   23.2170   33.5530 C   0  0  0  0  0  0  0  0  0  0  0  0
   38.6540   23.7550   32.2980 C   0  0  0  0  0  0  0  0  0  0  0  0
   37.9360   24.8650   32.5370 N   0  0  0  0  0  0  0  0  0  0  0  0
   37.8430   24.9900   33.8380 N   0  0  0  0  0  0  0  0  0  0  0  0
   39.5770   22.3050   33.6890 H   0  0  0  0  0  0  0  0  0  0  0  0
   38.9390   23.3280   31.3480 H   0  0  0  0  0  0  0  0  0  0  0  0
   39.6480   23.0700   36.5040 C   0  0  0  0  0  0  0  0  0  0  0  0
   38.5800   23.8180   35.9420 C   0  0  0  0  0  0  0  0  0  0  0  0
   37.6490   24.3330   36.8210 C   0  0  0  0  0  0  0  0  0  0  0  0
   37.8050   24.0970   38.1550 N   0  0  0  0  0  0  0  0  0  0  0  0
   38.8340   23.3810   38.6390 C   0  0  0  0  0  0  0  0  0  0  0  0
   39.7700   22.8590   37.8030 N   0  0  0  0  0  0  0  0  0  0  0  0
   40.3500   22.6900   35.7510 H   0  0  0  0  0  0  0  0  0  0  0  0
   36.7850   24.9250   36.5060 H   0  0  0  0  0  0  0  0  0  0  0  0
   38.9080   23.2260   39.7000 H   0  0  0  0  0  0  0  0  0  0  0  0
   36.1540   28.0090   31.3140 C   0  0  0  0  0  0  0  0  0  0  0  0
   36.7030   28.3450   30.0710 C   0  0  0  0  0  0  0  0  0  0  0  0
   36.4290   29.6590   29.8510 N   0  0  0  0  0  0  0  0  0  0  0  0
   35.7310   30.1290   30.9220 C   0  0  0  0  0  0  0  0  0  0  0  0
   35.5600   29.1250   31.8210 N   0  0  0  0  0  0  0  0  0  0  0  0
   37.2500   27.6750   29.4010 H   0  0  0  0  0  0  0  0  0  0  0  0
   36.7330   30.1500   28.9900 H   0  0  0  0  0  0  0  0  0  0  0  0
   35.2390   31.5440   31.0670 C   0  0  0  0  0  3  0  0  0  0  0  0
   35.8740   32.4250   30.0430 C   0  0  0  0  0  2  0  0  0  0  0  0
   36.9210   33.2060   30.8010 C   0  0  0  0  0  2  0  0  0  0  0  0
   36.8050   32.8420   32.2520 C   0  0  0  0  0  2  0  0  0  0  0  0
   35.5260   32.0880   32.4320 C   0  0  0  0  0  2  0  0  0  0  0  0
  1  4  1  6  0  0  0
  1  3  1  0  0  0  0
  1 11  1  0  0  0  0
  2  1  1  0  0  0  0
  2  5  1  0  0  0  0
  2  3  1  0  0  0  0
  3  7  1  1  0  0  0
  6  2  1  0  0  0  0
  8 16  1  0  0  0  0
  9 13  1  0  0  0  0
  9  8  1  0  0  0  0
 10 11  1  0  0  0  0
 10  9  2  0  0  0  0
 11 12  1  0  0  0  0
 12  8  2  0  0  0  0
 14 10  1  0  0  0  0
 15 20  1  0  0  0  0
 16 15  2  0  0  0  0
 16 17  1  0  0  0  0
 17 18  2  0  0  0  0
 18 19  1  0  0  0  0
 19 23  1  0  0  0  0
 20 19  2  0  0  0  0
 21 15  1  0  0  0  0
 22 17  1  0  0  0  0
 24 28  1  0  0  0  0
 24  3  1  0  0  0  0
 25 24  2  0  0  0  0
 26 25  1  0  0  0  0
 26 27  1  0  0  0  0
 27 31  1  0  0  0  0
 27 28  2  0  0  0  0
 29 25  1  0  0  0  0
 30 26  1  0  0  0  0
 31 35  1  0  0  0  0
 32 33  1  0  0  0  0
 32 31  1  0  0  0  0
 33 34  1  0  0  0  0
 34 35  1  0  0  0  0
M  END
>  <minimizedAffinity>
-5.23134851

$$$$

 OpenBabel03272500493D

 35 39  0  0  1  0  0  0  0  0999 V2000
   36.1720   27.9210   32.1470 C   0  0  1  0  0  0  0  0  0  0  0  0
   37.6600   27.6920   31.7140 C   0  0  0  0  0  0  0  0  0  0  0  0
   36.9480   26.7610   32.6260 C   0  0  2  0  0  0  0  0  0  0  0  0
   35.3980   27.7330   31.3880 H   0  0  0  0  0  0  0  0  0  0  0  0
   38.3950   28.4160   32.0930 H   0  0  0  0  0  0  0  0  0  0  0  0
   37.7440   27.4160   30.6240 H   0  0  0  0  0  0  0  0  0  0  0  0
   37.2630   26.7770   33.6730 H   0  0  0  0  0  0  0  0  0  0  0  0
   35.5890   31.1260   33.6920 C   0  0  0  0  0  0  0  0  0  0  0  0
   35.6220   30.3070   34.8180 C   0  0  0  0  0  0  0  0  0  0  0  0
   35.8470   28.9890   34.3830 C   0  0  0  0  0  0  0  0  0  0  0  0
   35.9410   29.0400   33.0430 N   0  0  0  0  0  0  0  0  0  0  0  0
   35.7860   30.2930   32.6950 N   0  0  0  0  0  0  0  0  0  0  0  0
   35.5010   30.5900   35.8670 H   0  0  0  0  0  0  0  0  0  0  0  0
   35.9220   28.1290   35.0320 H   0  0  0  0  0  0  0  0  0  0  0  0
   36.2070   33.4250   34.4890 C   0  0  0  0  0  0  0  0  0  0  0  0
   35.3790   32.5470   33.7420 C   0  0  0  0  0  0  0  0  0  0  0  0
   34.3330   33.1180   33.0440 C   0  0  0  0  0  0  0  0  0  0  0  0
   34.1590   34.4690   33.1120 N   0  0  0  0  0  0  0  0  0  0  0  0
   34.9720   35.2590   33.8350 C   0  0  0  0  0  0  0  0  0  0  0  0
   36.0110   34.7310   34.5340 N   0  0  0  0  0  0  0  0  0  0  0  0
   37.0170   32.9060   35.0180 H   0  0  0  0  0  0  0  0  0  0  0  0
   33.6300   32.5440   32.4350 H   0  0  0  0  0  0  0  0  0  0  0  0
   34.7890   36.3180   33.8530 H   0  0  0  0  0  0  0  0  0  0  0  0
   36.5780   25.3870   32.1420 C   0  0  0  0  0  0  0  0  0  0  0  0
   35.5330   25.1330   31.2470 C   0  0  0  0  0  0  0  0  0  0  0  0
   35.4930   23.7880   31.0460 N   0  0  0  0  0  0  0  0  0  0  0  0
   36.4820   23.2220   31.7910 C   0  0  0  0  0  0  0  0  0  0  0  0
   37.1500   24.1940   32.4650 N   0  0  0  0  0  0  0  0  0  0  0  0
   34.8710   25.8770   30.7930 H   0  0  0  0  0  0  0  0  0  0  0  0
   34.7980   23.3450   30.4170 H   0  0  0  0  0  0  0  0  0  0  0  0
   36.7710   21.7450   31.8470 C   0  0  0  0  0  3  0  0  0  0  0  0
   35.6600   20.9730   31.2160 C   0  0  0  0  0  2  0  0  0  0  0  0
   34.8870   20.3910   32.3750 C   0  0  0  0  0  2  0  0  0  0  0  0
   35.6140   20.7470   33.6380 C   0  0  0  0  0  2  0  0  0  0  0  0
   36.9590   21.2750   33.2550 C   0  0  0  0  0  2  0  0  0  0  0  0
  1  4  1  6  0  0  0
  1  3  1  0  0  0  0
  1 11  1  0  0  0  0
  2  5  1  0  0  0  0
  2  1  1  0  0  0  0
  2  3  1  0  0  0  0
  3  7  1  1  0  0  0
  6  2  1  0  0  0  0
  8 16  1  0  0  0  0
  8  9  1  0  0  0  0
  9 13  1  0  0  0  0
 10  9  2  0  0  0  0
 10 14  1  0  0  0  0
 11 10  1  0  0  0  0
 12 11  1  0  0  0  0
 12  8  2  0  0  0  0
 15 20  1  0  0  0  0
 15 21  1  0  0  0  0
 16 15  2  0  0  0  0
 17 18  2  0  0  0  0
 17 16  1  0  0  0  0
 18 19  1  0  0  0  0
 19 23  1  0  0  0  0
 19 20  2  0  0  0  0
 22 17  1  0  0  0  0
 24 28  1  0  0  0  0
 24  3  1  0  0  0  0
 25 24  2  0  0  0  0
 26 25  1  0  0  0  0
 26 27  1  0  0  0  0
 27 31  1  0  0  0  0
 27 28  2  0  0  0  0
 29 25  1  0  0  0  0
 30 26  1  0  0  0  0
 31 35  1  0  0  0  0
 32 31  1  0  0  0  0
 32 33  1  0  0  0  0
 33 34  1  0  0  0  0
 35 34  1  0  0  0  0
M  END
>  <minimizedAffinity>
-5.16387415

$$$$
