
 OpenBabel03272505203D

 44 47  0  0  1  0  0  0  0  0999 V2000
   40.4350   22.8790   33.1210 C   0  0  0  0  0  0  0  0  0  0  0  0
   39.3410   22.0300   32.8340 C   0  0  0  0  0  0  0  0  0  0  0  0
   38.0370   22.4980   32.9180 C   0  0  0  0  0  0  0  0  0  0  0  0
   37.9690   23.8020   33.2890 N   0  0  0  0  0  0  0  0  0  0  0  0
   38.9850   24.6130   33.5610 C   0  0  0  0  0  0  0  0  0  0  0  0
   40.2340   24.1410   33.4760 N   0  0  0  0  0  0  0  0  0  0  0  0
   38.7240   25.9670   33.9390 N   0  0  0  0  0  0  0  0  0  0  0  0
   39.6410   26.6790   34.8120 C   0  0  0  0  0  0  0  0  0  0  0  0
   38.8010   27.0270   36.0500 C   0  0  0  0  0  0  0  0  0  0  0  0
   37.7100   27.9470   35.6060 C   0  0  0  0  0  0  0  0  0  0  0  0
   36.8080   27.2670   34.6030 C   0  0  0  0  0  0  0  0  0  0  0  0
   37.5420   26.6460   33.4570 C   0  0  1  0  0  0  0  0  0  0  0  0
   41.4520   22.4930   33.0510 H   0  0  0  0  0  0  0  0  0  0  0  0
   39.6230   21.0170   32.5560 H   0  0  0  0  0  0  0  0  0  0  0  0
   40.4820   26.0000   35.0860 H   0  0  0  0  0  0  0  0  0  0  0  0
   39.9890   27.6240   34.3900 H   0  0  0  0  0  0  0  0  0  0  0  0
   38.3530   26.1290   36.4960 H   0  0  0  0  0  0  0  0  0  0  0  0
   39.4850   27.5870   36.7150 H   0  0  0  0  0  0  0  0  0  0  0  0
   37.0660   28.2240   36.4700 H   0  0  0  0  0  0  0  0  0  0  0  0
   38.1360   28.8480   35.1480 H   0  0  0  0  0  0  0  0  0  0  0  0
   36.1360   28.0450   34.1740 H   0  0  0  0  0  0  0  0  0  0  0  0
   36.1430   26.5310   35.1020 H   0  0  0  0  0  0  0  0  0  0  0  0
   36.8320   25.8610   33.0600 H   0  0  0  0  0  0  0  0  0  0  0  0
   36.2850   20.9990   33.6210 C   0  0  0  0  0  0  0  0  0  0  0  0
   36.9850   21.5660   32.6090 C   0  0  0  0  0  0  0  0  0  0  0  0
   36.6400   21.2080   31.3220 C   0  0  0  0  0  0  0  0  0  0  0  0
   35.6650   20.3430   31.0420 C   0  0  0  0  0  0  0  0  0  0  0  0
   34.9250   19.7410   32.0550 C   0  0  0  0  0  0  0  0  0  0  0  0
   35.2610   20.0900   33.3360 C   0  0  0  0  0  0  0  0  0  0  0  0
   37.2090   21.6700   30.5080 H   0  0  0  0  0  0  0  0  0  0  0  0
   35.4450   20.1040   30.0100 H   0  0  0  0  0  0  0  0  0  0  0  0
   34.1350   19.0380   31.8220 H   0  0  0  0  0  0  0  0  0  0  0  0
   34.6570   19.5950   34.0970 H   0  0  0  0  0  0  0  0  0  0  0  0
   35.5870   20.7250   35.8900 N   0  0  0  0  0  0  0  0  0  0  0  0
   36.4620   21.2170   35.0270 C   0  0  0  0  0  0  0  0  0  0  0  0
   37.2810   21.8100   35.9860 N   0  0  0  0  0  0  0  0  0  0  0  0
   35.7220   20.8890   36.9130 H   0  0  0  0  0  0  0  0  0  0  0  0
   37.1060   22.7730   36.3940 H   0  0  0  0  0  0  0  0  0  0  0  0
   38.1110   21.2600   36.3080 H   0  0  0  0  0  0  0  0  0  0  0  0
   37.7860   27.5730   32.3130 C   0  0  0  0  0  3  0  0  0  0  0  0
   37.5520   26.8180   31.0220 C   0  0  0  0  0  2  0  0  0  0  0  0
   36.8330   27.7730   30.1000 C   0  0  0  0  0  2  0  0  0  0  0  0
   36.3070   28.8980   30.9340 C   0  0  0  0  0  2  0  0  0  0  0  0
   36.7420   28.6530   32.3480 C   0  0  0  0  0  2  0  0  0  0  0  0
  1  6  1  0  0  0  0
  2  3  1  0  0  0  0
  2  1  2  0  0  0  0
  3  4  2  0  0  0  0
  4  5  1  0  0  0  0
  5  7  1  0  0  0  0
  6  5  2  0  0  0  0
  7  8  1  0  0  0  0
  8 15  1  0  0  0  0
  8  9  1  0  0  0  0
  9 17  1  0  0  0  0
  9 18  1  0  0  0  0
 10  9  1  0  0  0  0
 10 19  1  0  0  0  0
 11 22  1  0  0  0  0
 11 10  1  0  0  0  0
 12 23  1  6  0  0  0
 12  7  1  0  0  0  0
 12 11  1  0  0  0  0
 13  1  1  0  0  0  0
 14  2  1  0  0  0  0
 16  8  1  0  0  0  0
 20 10  1  0  0  0  0
 21 11  1  0  0  0  0
 24 35  1  0  0  0  0
 25  3  1  0  0  0  0
 25 24  2  0  0  0  0
 26 25  1  0  0  0  0
 27 26  2  0  0  0  0
 27 28  1  0  0  0  0
 28 29  2  0  0  0  0
 29 24  1  0  0  0  0
 29 33  1  0  0  0  0
 30 26  1  0  0  0  0
 31 27  1  0  0  0  0
 32 28  1  0  0  0  0
 34 37  1  0  0  0  0
 35 34  2  0  0  0  0
 35 36  1  0  0  0  0
 36 39  1  0  0  0  0
 36 38  1  0  0  0  0
 40 44  1  0  0  0  0
 40 12  1  0  0  0  0
 41 40  1  0  0  0  0
 42 43  1  0  0  0  0
 42 41  1  0  0  0  0
 43 44  1  0  0  0  0
M  END
>  <minimizedAffinity>
-6.61409712

$$$$

 OpenBabel03272505203D

 44 47  0  0  1  0  0  0  0  0999 V2000
   38.2330   25.5370   35.7400 C   0  0  0  0  0  0  0  0  0  0  0  0
   37.7630   26.6910   35.0720 C   0  0  0  0  0  0  0  0  0  0  0  0
   37.3070   26.6180   33.7630 C   0  0  0  0  0  0  0  0  0  0  0  0
   37.3710   25.3610   33.2520 N   0  0  0  0  0  0  0  0  0  0  0  0
   37.8090   24.2680   33.8660 C   0  0  0  0  0  0  0  0  0  0  0  0
   38.2460   24.3600   35.1280 N   0  0  0  0  0  0  0  0  0  0  0  0
   37.8050   23.0190   33.1690 N   0  0  0  0  0  0  0  0  0  0  0  0
   38.7810   21.9930   33.4890 C   0  0  0  0  0  0  0  0  0  0  0  0
   39.5680   21.7900   32.1860 C   0  0  0  0  0  0  0  0  0  0  0  0
   38.6100   21.2740   31.1610 C   0  0  0  0  0  0  0  0  0  0  0  0
   37.5140   22.2780   30.8950 C   0  0  0  0  0  0  0  0  0  0  0  0
   36.8280   22.7630   32.1340 C   0  0  1  0  0  0  0  0  0  0  0  0
   38.5880   25.6140   36.7680 H   0  0  0  0  0  0  0  0  0  0  0  0
   37.8000   27.5980   35.6700 H   0  0  0  0  0  0  0  0  0  0  0  0
   39.4500   22.3680   34.2990 H   0  0  0  0  0  0  0  0  0  0  0  0
   38.3260   21.0310   33.7370 H   0  0  0  0  0  0  0  0  0  0  0  0
   40.0000   22.7340   31.8280 H   0  0  0  0  0  0  0  0  0  0  0  0
   40.3030   20.9950   32.4120 H   0  0  0  0  0  0  0  0  0  0  0  0
   39.1330   21.1170   30.1910 H   0  0  0  0  0  0  0  0  0  0  0  0
   38.1580   20.3350   31.5020 H   0  0  0  0  0  0  0  0  0  0  0  0
   36.7390   21.7740   30.2740 H   0  0  0  0  0  0  0  0  0  0  0  0
   37.8900   23.1260   30.2860 H   0  0  0  0  0  0  0  0  0  0  0  0
   36.3750   23.7540   31.8360 H   0  0  0  0  0  0  0  0  0  0  0  0
   37.2300   28.1390   31.8950 C   0  0  0  0  0  0  0  0  0  0  0  0
   36.8470   27.8400   33.1600 C   0  0  0  0  0  0  0  0  0  0  0  0
   36.0260   28.7440   33.8030 C   0  0  0  0  0  0  0  0  0  0  0  0
   35.6050   29.8760   33.2390 C   0  0  0  0  0  0  0  0  0  0  0  0
   35.9770   30.2160   31.9420 C   0  0  0  0  0  0  0  0  0  0  0  0
   36.7930   29.3250   31.2960 C   0  0  0  0  0  0  0  0  0  0  0  0
   35.7200   28.4970   34.8250 H   0  0  0  0  0  0  0  0  0  0  0  0
   34.9620   30.5430   33.7990 H   0  0  0  0  0  0  0  0  0  0  0  0
   35.6320   31.1370   31.4900 H   0  0  0  0  0  0  0  0  0  0  0  0
   37.0590   29.6310   30.2840 H   0  0  0  0  0  0  0  0  0  0  0  0
   39.3100   27.7510   30.7850 N   0  0  0  0  0  0  0  0  0  0  0  0
   38.0720   27.3590   31.0360 C   0  0  0  0  0  0  0  0  0  0  0  0
   38.1330   26.2060   30.2550 N   0  0  0  0  0  0  0  0  0  0  0  0
   39.9180   27.1780   30.1570 H   0  0  0  0  0  0  0  0  0  0  0  0
   37.9510   26.1940   29.2100 H   0  0  0  0  0  0  0  0  0  0  0  0
   38.3720   25.3120   30.7430 H   0  0  0  0  0  0  0  0  0  0  0  0
   35.6770   21.9160   32.5680 C   0  0  0  0  0  3  0  0  0  0  0  0
   35.2490   21.0520   31.4010 C   0  0  0  0  0  2  0  0  0  0  0  0
   34.9320   19.6930   31.9780 C   0  0  0  0  0  2  0  0  0  0  0  0
   35.5280   19.6330   33.3480 C   0  0  0  0  0  2  0  0  0  0  0  0
   36.1640   20.9640   33.6230 C   0  0  0  0  0  2  0  0  0  0  0  0
  1 13  1  0  0  0  0
  2 14  1  0  0  0  0
  2  1  2  0  0  0  0
  3  2  1  0  0  0  0
  4  3  2  0  0  0  0
  4  5  1  0  0  0  0
  5  6  2  0  0  0  0
  6  1  1  0  0  0  0
  7  8  1  0  0  0  0
  7  5  1  0  0  0  0
  8 16  1  0  0  0  0
  8 15  1  0  0  0  0
  9 18  1  0  0  0  0
  9  8  1  0  0  0  0
 10 20  1  0  0  0  0
 10  9  1  0  0  0  0
 11 10  1  0  0  0  0
 11 12  1  0  0  0  0
 12 23  1  6  0  0  0
 12 40  1  0  0  0  0
 12  7  1  0  0  0  0
 17  9  1  0  0  0  0
 19 10  1  0  0  0  0
 21 11  1  0  0  0  0
 22 11  1  0  0  0  0
 24 25  1  0  0  0  0
 25  3  1  0  0  0  0
 25 26  2  0  0  0  0
 26 30  1  0  0  0  0
 27 31  1  0  0  0  0
 27 26  1  0  0  0  0
 28 27  2  0  0  0  0
 29 24  2  0  0  0  0
 29 28  1  0  0  0  0
 32 28  1  0  0  0  0
 33 29  1  0  0  0  0
 34 35  2  0  0  0  0
 35 24  1  0  0  0  0
 36 39  1  0  0  0  0
 36 35  1  0  0  0  0
 37 34  1  0  0  0  0
 38 36  1  0  0  0  0
 40 44  1  0  0  0  0
 41 42  1  0  0  0  0
 41 40  1  0  0  0  0
 42 43  1  0  0  0  0
 43 44  1  0  0  0  0
M  END
>  <minimizedAffinity>
-6.42166281

$$$$

 OpenBabel03272505203D

 44 47  0  0  1  0  0  0  0  0999 V2000
   40.2210   25.4290   32.5030 C   0  0  0  0  0  0  0  0  0  0  0  0
   39.2870   26.4590   32.7620 C   0  0  0  0  0  0  0  0  0  0  0  0
   37.9290   26.1860   32.8320 C   0  0  0  0  0  0  0  0  0  0  0  0
   37.6440   24.8740   32.6300 N   0  0  0  0  0  0  0  0  0  0  0  0
   38.5070   23.8950   32.3860 C   0  0  0  0  0  0  0  0  0  0  0  0
   39.8130   24.1790   32.3210 N   0  0  0  0  0  0  0  0  0  0  0  0
   38.0250   22.5610   32.1960 N   0  0  0  0  0  0  0  0  0  0  0  0
   38.7510   21.6280   31.3530 C   0  0  0  0  0  0  0  0  0  0  0  0
   37.7630   21.2760   30.2310 C   0  0  0  0  0  0  0  0  0  0  0  0
   36.5970   20.5850   30.8630 C   0  0  0  0  0  0  0  0  0  0  0  0
   35.8940   21.4990   31.8370 C   0  0  0  0  0  0  0  0  0  0  0  0
   36.8080   22.1260   32.8430 C   0  0  1  0  0  0  0  0  0  0  0  0
   41.2840   25.6620   32.4520 H   0  0  0  0  0  0  0  0  0  0  0  0
   39.7340   27.4420   32.8930 H   0  0  0  0  0  0  0  0  0  0  0  0
   39.6520   22.1380   30.9380 H   0  0  0  0  0  0  0  0  0  0  0  0
   38.9990   20.6940   31.8620 H   0  0  0  0  0  0  0  0  0  0  0  0
   37.4070   22.1750   29.7130 H   0  0  0  0  0  0  0  0  0  0  0  0
   38.2980   20.5480   29.5920 H   0  0  0  0  0  0  0  0  0  0  0  0
   35.8460   20.3140   30.0880 H   0  0  0  0  0  0  0  0  0  0  0  0
   36.9320   19.6860   31.3950 H   0  0  0  0  0  0  0  0  0  0  0  0
   35.1610   20.8830   32.4060 H   0  0  0  0  0  0  0  0  0  0  0  0
   35.2970   22.2670   31.3020 H   0  0  0  0  0  0  0  0  0  0  0  0
   36.2540   23.0480   33.1910 H   0  0  0  0  0  0  0  0  0  0  0  0
   36.3700   27.8620   32.0740 C   0  0  0  0  0  0  0  0  0  0  0  0
   37.0500   27.2940   33.1000 C   0  0  0  0  0  0  0  0  0  0  0  0
   36.8560   27.8230   34.3590 C   0  0  0  0  0  0  0  0  0  0  0  0
   36.0410   28.8510   34.6010 C   0  0  0  0  0  0  0  0  0  0  0  0
   35.3260   29.4590   33.5740 C   0  0  0  0  0  0  0  0  0  0  0  0
   35.5140   28.9410   32.3190 C   0  0  0  0  0  0  0  0  0  0  0  0
   37.4080   27.3600   35.1830 H   0  0  0  0  0  0  0  0  0  0  0  0
   35.9340   29.2180   35.6120 H   0  0  0  0  0  0  0  0  0  0  0  0
   34.6670   30.2940   33.7760 H   0  0  0  0  0  0  0  0  0  0  0  0
   34.9350   29.4470   31.5460 H   0  0  0  0  0  0  0  0  0  0  0  0
   35.8130   26.3750   30.2890 N   0  0  0  0  0  0  0  0  0  0  0  0
   36.4100   27.4850   30.6920 C   0  0  0  0  0  0  0  0  0  0  0  0
   36.8790   27.8520   29.4320 N   0  0  0  0  0  0  0  0  0  0  0  0
   35.8470   26.1050   29.2810 H   0  0  0  0  0  0  0  0  0  0  0  0
   37.7820   27.4890   29.0130 H   0  0  0  0  0  0  0  0  0  0  0  0
   36.2940   28.5260   28.8840 H   0  0  0  0  0  0  0  0  0  0  0  0
   37.0210   21.3050   34.0710 C   0  0  0  0  0  3  0  0  0  0  0  0
   37.5020   22.2140   35.1810 C   0  0  0  0  0  2  0  0  0  0  0  0
   36.7970   21.7580   36.4350 C   0  0  0  0  0  2  0  0  0  0  0  0
   35.6530   20.8890   36.0200 C   0  0  0  0  0  2  0  0  0  0  0  0
   35.6880   20.7790   34.5250 C   0  0  0  0  0  2  0  0  0  0  0  0
  1  2  1  0  0  0  0
  2  3  2  0  0  0  0
  2 14  1  0  0  0  0
  3 25  1  0  0  0  0
  4  3  1  0  0  0  0
  5  4  2  0  0  0  0
  6  5  1  0  0  0  0
  6  1  2  0  0  0  0
  7  5  1  0  0  0  0
  7 12  1  0  0  0  0
  8 16  1  0  0  0  0
  8  7  1  0  0  0  0
  9 10  1  0  0  0  0
  9  8  1  0  0  0  0
 10 20  1  0  0  0  0
 10 11  1  0  0  0  0
 11 21  1  0  0  0  0
 11 12  1  0  0  0  0
 12 23  1  1  0  0  0
 12 40  1  0  0  0  0
 13  1  1  0  0  0  0
 15  8  1  0  0  0  0
 17  9  1  0  0  0  0
 18  9  1  0  0  0  0
 19 10  1  0  0  0  0
 22 11  1  0  0  0  0
 24 29  2  0  0  0  0
 24 25  1  0  0  0  0
 25 26  2  0  0  0  0
 26 27  1  0  0  0  0
 26 30  1  0  0  0  0
 27 31  1  0  0  0  0
 28 32  1  0  0  0  0
 28 27  2  0  0  0  0
 29 28  1  0  0  0  0
 33 29  1  0  0  0  0
 34 35  2  0  0  0  0
 35 24  1  0  0  0  0
 36 35  1  0  0  0  0
 37 34  1  0  0  0  0
 38 36  1  0  0  0  0
 39 36  1  0  0  0  0
 40 44  1  0  0  0  0
 40 41  1  0  0  0  0
 41 42  1  0  0  0  0
 43 42  1  0  0  0  0
 44 43  1  0  0  0  0
M  END
>  <minimizedAffinity>
-6.34706783

$$$$

 OpenBabel03272505203D

 44 47  0  0  1  0  0  0  0  0999 V2000
   36.8590   25.1180   32.1790 C   0  0  0  0  0  0  0  0  0  0  0  0
   36.3580   23.8040   32.0270 C   0  0  0  0  0  0  0  0  0  0  0  0
   37.0090   22.7250   32.6080 C   0  0  0  0  0  0  0  0  0  0  0  0
   38.1210   23.0880   33.2970 N   0  0  0  0  0  0  0  0  0  0  0  0
   38.6040   24.3150   33.4500 C   0  0  0  0  0  0  0  0  0  0  0  0
   37.9620   25.3430   32.8810 N   0  0  0  0  0  0  0  0  0  0  0  0
   39.7960   24.5140   34.2150 N   0  0  0  0  0  0  0  0  0  0  0  0
   40.6860   25.6220   33.9190 C   0  0  0  0  0  0  0  0  0  0  0  0
   42.0160   24.9560   33.5340 C   0  0  0  0  0  0  0  0  0  0  0  0
   42.5100   24.2180   34.7370 C   0  0  0  0  0  0  0  0  0  0  0  0
   41.5400   23.1320   35.1380 C   0  0  0  0  0  0  0  0  0  0  0  0
   40.1310   23.6100   35.2930 C   0  0  1  0  0  0  0  0  0  0  0  0
   36.3350   25.9540   31.7150 H   0  0  0  0  0  0  0  0  0  0  0  0
   35.4510   23.7390   31.4320 H   0  0  0  0  0  0  0  0  0  0  0  0
   40.2730   26.2010   33.0600 H   0  0  0  0  0  0  0  0  0  0  0  0
   40.8890   26.2530   34.7880 H   0  0  0  0  0  0  0  0  0  0  0  0
   41.8840   24.2450   32.7080 H   0  0  0  0  0  0  0  0  0  0  0  0
   42.7090   25.7920   33.3260 H   0  0  0  0  0  0  0  0  0  0  0  0
   43.4720   23.7090   34.5060 H   0  0  0  0  0  0  0  0  0  0  0  0
   42.6400   24.9080   35.5790 H   0  0  0  0  0  0  0  0  0  0  0  0
   41.8610   22.7440   36.1310 H   0  0  0  0  0  0  0  0  0  0  0  0
   41.5980   22.2700   34.4410 H   0  0  0  0  0  0  0  0  0  0  0  0
   39.5020   22.6800   35.1700 H   0  0  0  0  0  0  0  0  0  0  0  0
   36.1040   20.6670   33.4780 C   0  0  0  0  0  0  0  0  0  0  0  0
   36.4300   21.4230   32.4020 C   0  0  0  0  0  0  0  0  0  0  0  0
   36.1850   20.8890   31.1540 C   0  0  0  0  0  0  0  0  0  0  0  0
   35.6500   19.6810   30.9700 C   0  0  0  0  0  0  0  0  0  0  0  0
   35.3010   18.8770   32.0500 C   0  0  0  0  0  0  0  0  0  0  0  0
   35.5420   19.3990   33.2940 C   0  0  0  0  0  0  0  0  0  0  0  0
   36.4510   21.5050   30.2890 H   0  0  0  0  0  0  0  0  0  0  0  0
   35.4830   19.3210   29.9640 H   0  0  0  0  0  0  0  0  0  0  0  0
   34.8680   17.8970   31.8950 H   0  0  0  0  0  0  0  0  0  0  0  0
   35.2550   18.7360   34.1100 H   0  0  0  0  0  0  0  0  0  0  0  0
   35.3070   20.7270   35.7300 N   0  0  0  0  0  0  0  0  0  0  0  0
   36.2640   21.0100   34.8610 C   0  0  0  0  0  0  0  0  0  0  0  0
   37.1240   21.5940   35.7900 N   0  0  0  0  0  0  0  0  0  0  0  0
   35.4300   20.9810   36.7360 H   0  0  0  0  0  0  0  0  0  0  0  0
   37.0620   22.6090   36.0900 H   0  0  0  0  0  0  0  0  0  0  0  0
   37.8650   20.9810   36.2030 H   0  0  0  0  0  0  0  0  0  0  0  0
   39.8080   24.1290   36.6550 C   0  0  0  0  0  3  0  0  0  0  0  0
   38.3820   24.6370   36.6510 C   0  0  0  0  0  2  0  0  0  0  0  0
   37.7790   24.2090   37.9680 C   0  0  0  0  0  2  0  0  0  0  0  0
   38.6660   23.1550   38.5500 C   0  0  0  0  0  2  0  0  0  0  0  0
   39.8260   22.9750   37.6170 C   0  0  0  0  0  2  0  0  0  0  0  0
  1  6  1  0  0  0  0
  2  1  2  0  0  0  0
  2  3  1  0  0  0  0
  3  4  2  0  0  0  0
  4  5  1  0  0  0  0
  5  7  1  0  0  0  0
  6  5  2  0  0  0  0
  7 12  1  0  0  0  0
  8  7  1  0  0  0  0
  8 16  1  0  0  0  0
  9  8  1  0  0  0  0
  9 10  1  0  0  0  0
 10 11  1  0  0  0  0
 10 20  1  0  0  0  0
 11 12  1  0  0  0  0
 11 21  1  0  0  0  0
 12 23  1  6  0  0  0
 12 40  1  0  0  0  0
 13  1  1  0  0  0  0
 14  2  1  0  0  0  0
 15  8  1  0  0  0  0
 17  9  1  0  0  0  0
 18  9  1  0  0  0  0
 19 10  1  0  0  0  0
 22 11  1  0  0  0  0
 24 35  1  0  0  0  0
 25  3  1  0  0  0  0
 25 24  2  0  0  0  0
 26 25  1  0  0  0  0
 27 26  2  0  0  0  0
 27 28  1  0  0  0  0
 28 29  2  0  0  0  0
 29 24  1  0  0  0  0
 29 33  1  0  0  0  0
 30 26  1  0  0  0  0
 31 27  1  0  0  0  0
 32 28  1  0  0  0  0
 34 37  1  0  0  0  0
 35 34  2  0  0  0  0
 35 36  1  0  0  0  0
 36 38  1  0  0  0  0
 36 39  1  0  0  0  0
 40 44  1  0  0  0  0
 41 40  1  0  0  0  0
 41 42  1  0  0  0  0
 42 43  1  0  0  0  0
 44 43  1  0  0  0  0
M  END
>  <minimizedAffinity>
-6.34547806

$$$$

 OpenBabel03272505203D

 44 47  0  0  1  0  0  0  0  0999 V2000
   40.4100   26.3000   32.9140 C   0  0  0  0  0  0  0  0  0  0  0  0
   39.2890   27.1570   33.0170 C   0  0  0  0  0  0  0  0  0  0  0  0
   38.0240   26.6460   33.2650 C   0  0  0  0  0  0  0  0  0  0  0  0
   38.0170   25.2930   33.3890 N   0  0  0  0  0  0  0  0  0  0  0  0
   39.0580   24.4750   33.2960 C   0  0  0  0  0  0  0  0  0  0  0  0
   40.2700   24.9880   33.0550 N   0  0  0  0  0  0  0  0  0  0  0  0
   38.8640   23.0660   33.4540 N   0  0  0  0  0  0  0  0  0  0  0  0
   39.7380   22.1210   32.7810 C   0  0  0  0  0  0  0  0  0  0  0  0
   38.8040   21.3240   31.8590 C   0  0  0  0  0  0  0  0  0  0  0  0
   37.8370   20.5870   32.7300 C   0  0  0  0  0  0  0  0  0  0  0  0
   36.9950   21.5490   33.5320 C   0  0  0  0  0  0  0  0  0  0  0  0
   37.7930   22.5650   34.2870 C   0  0  1  0  0  0  0  0  0  0  0  0
   41.3960   26.7200   32.7180 H   0  0  0  0  0  0  0  0  0  0  0  0
   39.5210   28.2110   32.8840 H   0  0  0  0  0  0  0  0  0  0  0  0
   40.4920   22.6850   32.1840 H   0  0  0  0  0  0  0  0  0  0  0  0
   40.1980   21.4030   33.4630 H   0  0  0  0  0  0  0  0  0  0  0  0
   38.2440   21.9860   31.1850 H   0  0  0  0  0  0  0  0  0  0  0  0
   39.4560   20.5860   31.3540 H   0  0  0  0  0  0  0  0  0  0  0  0
   37.1310   19.9970   32.1050 H   0  0  0  0  0  0  0  0  0  0  0  0
   38.3760   19.9250   33.4190 H   0  0  0  0  0  0  0  0  0  0  0  0
   36.4320   20.9550   34.2870 H   0  0  0  0  0  0  0  0  0  0  0  0
   36.2270   22.0350   32.8930 H   0  0  0  0  0  0  0  0  0  0  0  0
   37.0710   23.4160   34.4660 H   0  0  0  0  0  0  0  0  0  0  0  0
   36.0980   27.7300   32.3020 C   0  0  0  0  0  0  0  0  0  0  0  0
   36.9410   27.5890   33.3540 C   0  0  0  0  0  0  0  0  0  0  0  0
   36.7050   28.3740   34.4630 C   0  0  0  0  0  0  0  0  0  0  0  0
   35.7010   29.2480   34.5390 C   0  0  0  0  0  0  0  0  0  0  0  0
   34.8160   29.4190   33.4800 C   0  0  0  0  0  0  0  0  0  0  0  0
   35.0420   28.6450   32.3730 C   0  0  0  0  0  0  0  0  0  0  0  0
   37.3900   28.2560   35.3100 H   0  0  0  0  0  0  0  0  0  0  0  0
   35.5720   29.8340   35.4390 H   0  0  0  0  0  0  0  0  0  0  0  0
   34.0030   30.1310   33.5470 H   0  0  0  0  0  0  0  0  0  0  0  0
   34.3260   28.8110   31.5680 H   0  0  0  0  0  0  0  0  0  0  0  0
   36.4850   27.6640   29.9450 N   0  0  0  0  0  0  0  0  0  0  0  0
   36.1440   27.0270   31.0540 C   0  0  0  0  0  0  0  0  0  0  0  0
   35.9530   25.7870   30.4450 N   0  0  0  0  0  0  0  0  0  0  0  0
   36.5150   27.1460   29.0390 H   0  0  0  0  0  0  0  0  0  0  0  0
   35.0490   25.4990   29.9720 H   0  0  0  0  0  0  0  0  0  0  0  0
   36.7560   25.1170   30.4680 H   0  0  0  0  0  0  0  0  0  0  0  0
   38.2240   22.1190   35.6440 C   0  0  0  0  0  3  0  0  0  0  0  0
   39.7120   22.3610   35.7810 C   0  0  0  0  0  2  0  0  0  0  0  0
   39.9280   22.8780   37.1820 C   0  0  0  0  0  2  0  0  0  0  0  0
   38.5990   23.3070   37.7160 C   0  0  0  0  0  2  0  0  0  0  0  0
   37.5720   23.0100   36.6630 C   0  0  0  0  0  2  0  0  0  0  0  0
  1  2  2  0  0  0  0
  1  6  1  0  0  0  0
  2  3  1  0  0  0  0
  3 25  1  0  0  0  0
  3  4  2  0  0  0  0
  5  4  1  0  0  0  0
  5  7  1  0  0  0  0
  6  5  2  0  0  0  0
  7 12  1  0  0  0  0
  8  7  1  0  0  0  0
  8 16  1  0  0  0  0
  9 10  1  0  0  0  0
  9  8  1  0  0  0  0
 10 20  1  0  0  0  0
 10 11  1  0  0  0  0
 11 12  1  0  0  0  0
 11 21  1  0  0  0  0
 12 23  1  1  0  0  0
 12 40  1  0  0  0  0
 13  1  1  0  0  0  0
 14  2  1  0  0  0  0
 15  8  1  0  0  0  0
 17  9  1  0  0  0  0
 18  9  1  0  0  0  0
 19 10  1  0  0  0  0
 22 11  1  0  0  0  0
 24 29  2  0  0  0  0
 24 25  1  0  0  0  0
 25 26  2  0  0  0  0
 26 27  1  0  0  0  0
 26 30  1  0  0  0  0
 27 31  1  0  0  0  0
 28 32  1  0  0  0  0
 28 27  2  0  0  0  0
 29 28  1  0  0  0  0
 33 29  1  0  0  0  0
 34 35  2  0  0  0  0
 35 24  1  0  0  0  0
 36 39  1  0  0  0  0
 36 35  1  0  0  0  0
 37 34  1  0  0  0  0
 38 36  1  0  0  0  0
 40 41  1  0  0  0  0
 40 44  1  0  0  0  0
 41 42  1  0  0  0  0
 42 43  1  0  0  0  0
 44 43  1  0  0  0  0
M  END
>  <minimizedAffinity>
-6.32006502

$$$$

 OpenBabel03272505203D

 44 47  0  0  1  0  0  0  0  0999 V2000
   35.9680   26.3970   31.6840 C   0  0  0  0  0  0  0  0  0  0  0  0
   37.3550   26.3100   31.9490 C   0  0  0  0  0  0  0  0  0  0  0  0
   38.0530   27.4030   32.4440 C   0  0  0  0  0  0  0  0  0  0  0  0
   37.2640   28.4930   32.6250 N   0  0  0  0  0  0  0  0  0  0  0  0
   35.9630   28.5910   32.3810 C   0  0  0  0  0  0  0  0  0  0  0  0
   35.3080   27.5260   31.9030 N   0  0  0  0  0  0  0  0  0  0  0  0
   35.2900   29.8280   32.6330 N   0  0  0  0  0  0  0  0  0  0  0  0
   34.1220   30.2030   31.8550 C   0  0  0  0  0  0  0  0  0  0  0  0
   34.5310   31.5060   31.1520 C   0  0  0  0  0  0  0  0  0  0  0  0
   34.7810   32.5280   32.2140 C   0  0  0  0  0  0  0  0  0  0  0  0
   35.9180   32.1030   33.1130 C   0  0  0  0  0  0  0  0  0  0  0  0
   35.7650   30.7210   33.6660 C   0  0  1  0  0  0  0  0  0  0  0  0
   35.4370   25.5280   31.2950 H   0  0  0  0  0  0  0  0  0  0  0  0
   37.7900   25.3380   31.7310 H   0  0  0  0  0  0  0  0  0  0  0  0
   33.9100   29.4030   31.1080 H   0  0  0  0  0  0  0  0  0  0  0  0
   33.2520   30.4370   32.4740 H   0  0  0  0  0  0  0  0  0  0  0  0
   35.4470   31.3720   30.5620 H   0  0  0  0  0  0  0  0  0  0  0  0
   33.6410   31.8130   30.5710 H   0  0  0  0  0  0  0  0  0  0  0  0
   35.0900   33.4930   31.7540 H   0  0  0  0  0  0  0  0  0  0  0  0
   33.8800   32.6710   32.8230 H   0  0  0  0  0  0  0  0  0  0  0  0
   35.9380   32.7990   33.9820 H   0  0  0  0  0  0  0  0  0  0  0  0
   36.8960   32.2260   32.6020 H   0  0  0  0  0  0  0  0  0  0  0  0
   36.8160   30.4070   33.9360 H   0  0  0  0  0  0  0  0  0  0  0  0
   39.8970   27.0460   33.9550 C   0  0  0  0  0  0  0  0  0  0  0  0
   39.4600   27.2270   32.6850 C   0  0  0  0  0  0  0  0  0  0  0  0
   40.4100   27.2320   31.6840 C   0  0  0  0  0  0  0  0  0  0  0  0
   41.7130   27.0700   31.9130 C   0  0  0  0  0  0  0  0  0  0  0  0
   42.1980   26.8820   33.2040 C   0  0  0  0  0  0  0  0  0  0  0  0
   41.2630   26.8760   34.2050 C   0  0  0  0  0  0  0  0  0  0  0  0
   40.0500   27.3790   30.6590 H   0  0  0  0  0  0  0  0  0  0  0  0
   42.4060   27.0850   31.0830 H   0  0  0  0  0  0  0  0  0  0  0  0
   43.2570   26.7520   33.3840 H   0  0  0  0  0  0  0  0  0  0  0  0
   41.6860   26.7250   35.1980 H   0  0  0  0  0  0  0  0  0  0  0  0
   38.6910   25.8400   35.6280 N   0  0  0  0  0  0  0  0  0  0  0  0
   39.1020   27.0020   35.1470 C   0  0  0  0  0  0  0  0  0  0  0  0
   38.5070   27.7790   36.1400 N   0  0  0  0  0  0  0  0  0  0  0  0
   38.1120   25.8160   36.4970 H   0  0  0  0  0  0  0  0  0  0  0  0
   37.4960   28.0970   36.1090 H   0  0  0  0  0  0  0  0  0  0  0  0
   39.1070   28.0560   36.9520 H   0  0  0  0  0  0  0  0  0  0  0  0
   34.9920   30.6550   34.9420 C   0  0  0  0  0  3  0  0  0  0  0  0
   35.7960   31.3380   36.0280 C   0  0  0  0  0  2  0  0  0  0  0  0
   34.8070   32.1250   36.8530 C   0  0  0  0  0  2  0  0  0  0  0  0
   33.5420   32.2330   36.0610 C   0  0  0  0  0  2  0  0  0  0  0  0
   33.7450   31.4770   34.7810 C   0  0  0  0  0  2  0  0  0  0  0  0
  1  6  2  0  0  0  0
  1  2  1  0  0  0  0
  2  3  2  0  0  0  0
  3  4  1  0  0  0  0
  3 25  1  0  0  0  0
  5  4  2  0  0  0  0
  5  7  1  0  0  0  0
  6  5  1  0  0  0  0
  7 12  1  0  0  0  0
  8 16  1  0  0  0  0
  8  7  1  0  0  0  0
  9  8  1  0  0  0  0
  9 10  1  0  0  0  0
 10 20  1  0  0  0  0
 10 11  1  0  0  0  0
 11 12  1  0  0  0  0
 11 21  1  0  0  0  0
 12 23  1  1  0  0  0
 12 40  1  0  0  0  0
 13  1  1  0  0  0  0
 14  2  1  0  0  0  0
 15  8  1  0  0  0  0
 17  9  1  0  0  0  0
 18  9  1  0  0  0  0
 19 10  1  0  0  0  0
 22 11  1  0  0  0  0
 24 29  1  0  0  0  0
 24 35  1  0  0  0  0
 25 24  2  0  0  0  0
 26 27  2  0  0  0  0
 26 25  1  0  0  0  0
 27 28  1  0  0  0  0
 28 32  1  0  0  0  0
 28 29  2  0  0  0  0
 29 33  1  0  0  0  0
 30 26  1  0  0  0  0
 31 27  1  0  0  0  0
 34 37  1  0  0  0  0
 35 34  2  0  0  0  0
 35 36  1  0  0  0  0
 36 39  1  0  0  0  0
 38 36  1  0  0  0  0
 40 41  1  0  0  0  0
 41 42  1  0  0  0  0
 43 42  1  0  0  0  0
 44 40  1  0  0  0  0
 44 43  1  0  0  0  0
M  END
>  <minimizedAffinity>
-6.21964884

$$$$

 OpenBabel03272505203D

 44 47  0  0  1  0  0  0  0  0999 V2000
   36.5740   24.3440   31.7200 C   0  0  0  0  0  0  0  0  0  0  0  0
   36.5290   23.0520   31.1450 C   0  0  0  0  0  0  0  0  0  0  0  0
   37.2950   22.0170   31.6640 C   0  0  0  0  0  0  0  0  0  0  0  0
   38.0410   22.3980   32.7320 N   0  0  0  0  0  0  0  0  0  0  0  0
   38.0940   23.6050   33.2830 C   0  0  0  0  0  0  0  0  0  0  0  0
   37.3490   24.5900   32.7680 N   0  0  0  0  0  0  0  0  0  0  0  0
   38.9440   23.8270   34.4130 N   0  0  0  0  0  0  0  0  0  0  0  0
   39.5210   25.1370   34.6550 C   0  0  0  0  0  0  0  0  0  0  0  0
   41.0380   24.9090   34.5850 C   0  0  0  0  0  0  0  0  0  0  0  0
   41.4030   23.9820   35.7000 C   0  0  0  0  0  0  0  0  0  0  0  0
   40.7190   22.6460   35.5340 C   0  0  0  0  0  0  0  0  0  0  0  0
   39.2400   22.7470   35.3280 C   0  0  1  0  0  0  0  0  0  0  0  0
   35.9660   25.1440   31.2990 H   0  0  0  0  0  0  0  0  0  0  0  0
   35.8610   22.9670   30.2920 H   0  0  0  0  0  0  0  0  0  0  0  0
   39.1900   25.8340   33.8500 H   0  0  0  0  0  0  0  0  0  0  0  0
   39.3050   25.5220   35.6550 H   0  0  0  0  0  0  0  0  0  0  0  0
   41.3310   24.4530   33.6300 H   0  0  0  0  0  0  0  0  0  0  0  0
   41.4890   25.8990   34.7880 H   0  0  0  0  0  0  0  0  0  0  0  0
   42.4960   23.7780   35.6870 H   0  0  0  0  0  0  0  0  0  0  0  0
   41.1100   24.4150   36.6640 H   0  0  0  0  0  0  0  0  0  0  0  0
   40.8750   22.0690   36.4740 H   0  0  0  0  0  0  0  0  0  0  0  0
   41.1980   22.0510   34.7280 H   0  0  0  0  0  0  0  0  0  0  0  0
   38.9590   21.7780   34.8180 H   0  0  0  0  0  0  0  0  0  0  0  0
   36.4940   19.7440   31.6240 C   0  0  0  0  0  0  0  0  0  0  0  0
   37.1890   20.7360   31.0170 C   0  0  0  0  0  0  0  0  0  0  0  0
   37.7630   20.4510   29.7960 C   0  0  0  0  0  0  0  0  0  0  0  0
   37.6630   19.2610   29.2020 C   0  0  0  0  0  0  0  0  0  0  0  0
   36.9570   18.2190   29.7950 C   0  0  0  0  0  0  0  0  0  0  0  0
   36.3830   18.4930   31.0080 C   0  0  0  0  0  0  0  0  0  0  0  0
   38.3240   21.2570   29.3100 H   0  0  0  0  0  0  0  0  0  0  0  0
   38.1380   19.1030   28.2430 H   0  0  0  0  0  0  0  0  0  0  0  0
   36.8800   17.2550   29.3080 H   0  0  0  0  0  0  0  0  0  0  0  0
   35.8410   17.6490   31.4360 H   0  0  0  0  0  0  0  0  0  0  0  0
   35.1490   18.7540   33.3330 N   0  0  0  0  0  0  0  0  0  0  0  0
   35.8150   19.8060   32.8850 C   0  0  0  0  0  0  0  0  0  0  0  0
   35.5280   20.6240   33.9770 N   0  0  0  0  0  0  0  0  0  0  0  0
   34.6560   18.8060   34.2520 H   0  0  0  0  0  0  0  0  0  0  0  0
   34.6380   21.1930   34.0670 H   0  0  0  0  0  0  0  0  0  0  0  0
   36.2430   20.6660   34.7400 H   0  0  0  0  0  0  0  0  0  0  0  0
   38.4470   22.7740   36.5920 C   0  0  0  0  0  3  0  0  0  0  0  0
   39.4020   22.6840   37.7620 C   0  0  0  0  0  2  0  0  0  0  0  0
   38.8780   23.6370   38.8090 C   0  0  0  0  0  2  0  0  0  0  0  0
   37.8960   24.5460   38.1410 C   0  0  0  0  0  2  0  0  0  0  0  0
   37.7890   24.1200   36.7070 C   0  0  0  0  0  2  0  0  0  0  0  0
  1  6  1  0  0  0  0
  2  3  1  0  0  0  0
  2  1  2  0  0  0  0
  3  4  2  0  0  0  0
  4  5  1  0  0  0  0
  5  7  1  0  0  0  0
  6  5  2  0  0  0  0
  7  8  1  0  0  0  0
  7 12  1  0  0  0  0
  8 16  1  0  0  0  0
  9  8  1  0  0  0  0
  9 18  1  0  0  0  0
  9 10  1  0  0  0  0
 10 20  1  0  0  0  0
 11 10  1  0  0  0  0
 11 21  1  0  0  0  0
 12 23  1  6  0  0  0
 12 11  1  0  0  0  0
 12 40  1  0  0  0  0
 13  1  1  0  0  0  0
 14  2  1  0  0  0  0
 15  8  1  0  0  0  0
 17  9  1  0  0  0  0
 19 10  1  0  0  0  0
 22 11  1  0  0  0  0
 24 35  1  0  0  0  0
 25 24  1  0  0  0  0
 25  3  1  0  0  0  0
 26 25  2  0  0  0  0
 27 28  2  0  0  0  0
 27 26  1  0  0  0  0
 28 29  1  0  0  0  0
 29 33  1  0  0  0  0
 29 24  2  0  0  0  0
 30 26  1  0  0  0  0
 31 27  1  0  0  0  0
 32 28  1  0  0  0  0
 34 37  1  0  0  0  0
 35 34  2  0  0  0  0
 35 36  1  0  0  0  0
 36 38  1  0  0  0  0
 36 39  1  0  0  0  0
 40 44  1  0  0  0  0
 40 41  1  0  0  0  0
 41 42  1  0  0  0  0
 43 42  1  0  0  0  0
 44 43  1  0  0  0  0
M  END
>  <minimizedAffinity>
-6.13320923

$$$$

 OpenBabel03272505203D

 44 47  0  0  1  0  0  0  0  0999 V2000
   40.1250   22.5430   34.3780 C   0  0  0  0  0  0  0  0  0  0  0  0
   39.0380   21.8070   33.8520 C   0  0  0  0  0  0  0  0  0  0  0  0
   37.8600   22.4420   33.4870 C   0  0  0  0  0  0  0  0  0  0  0  0
   37.8990   23.7840   33.6940 N   0  0  0  0  0  0  0  0  0  0  0  0
   38.9100   24.4900   34.1860 C   0  0  0  0  0  0  0  0  0  0  0  0
   40.0380   23.8570   34.5330 N   0  0  0  0  0  0  0  0  0  0  0  0
   38.7740   25.9060   34.3370 N   0  0  0  0  0  0  0  0  0  0  0  0
   39.5030   26.6100   35.3770 C   0  0  0  0  0  0  0  0  0  0  0  0
   38.4090   27.2300   36.2600 C   0  0  0  0  0  0  0  0  0  0  0  0
   37.6570   28.2100   35.4180 C   0  0  0  0  0  0  0  0  0  0  0  0
   36.9850   27.5160   34.2560 C   0  0  0  0  0  0  0  0  0  0  0  0
   37.9080   26.6550   33.4530 C   0  0  1  0  0  0  0  0  0  0  0  0
   41.0420   22.0260   34.6590 H   0  0  0  0  0  0  0  0  0  0  0  0
   39.2210   20.7380   33.7700 H   0  0  0  0  0  0  0  0  0  0  0  0
   40.1080   25.8750   35.9580 H   0  0  0  0  0  0  0  0  0  0  0  0
   40.1060   27.4360   34.9940 H   0  0  0  0  0  0  0  0  0  0  0  0
   37.7120   26.4660   36.6290 H   0  0  0  0  0  0  0  0  0  0  0  0
   38.9530   27.7870   37.0460 H   0  0  0  0  0  0  0  0  0  0  0  0
   36.8440   28.6830   36.0130 H   0  0  0  0  0  0  0  0  0  0  0  0
   38.3370   28.9770   35.0290 H   0  0  0  0  0  0  0  0  0  0  0  0
   36.6010   28.3050   33.5700 H   0  0  0  0  0  0  0  0  0  0  0  0
   36.0940   26.9460   34.5940 H   0  0  0  0  0  0  0  0  0  0  0  0
   37.2260   25.9180   32.9350 H   0  0  0  0  0  0  0  0  0  0  0  0
   36.0410   22.0870   31.9450 C   0  0  0  0  0  0  0  0  0  0  0  0
   36.8050   21.6170   32.9610 C   0  0  0  0  0  0  0  0  0  0  0  0
   36.5180   20.3540   33.4370 C   0  0  0  0  0  0  0  0  0  0  0  0
   35.5390   19.5940   32.9460 C   0  0  0  0  0  0  0  0  0  0  0  0
   34.7350   20.0430   31.9040 C   0  0  0  0  0  0  0  0  0  0  0  0
   35.0110   21.2960   31.4250 C   0  0  0  0  0  0  0  0  0  0  0  0
   37.1390   19.9800   34.2580 H   0  0  0  0  0  0  0  0  0  0  0  0
   35.3660   18.6120   33.3660 H   0  0  0  0  0  0  0  0  0  0  0  0
   33.9400   19.4220   31.5100 H   0  0  0  0  0  0  0  0  0  0  0  0
   34.3570   21.6080   30.6090 H   0  0  0  0  0  0  0  0  0  0  0  0
   35.2420   24.2950   31.5050 N   0  0  0  0  0  0  0  0  0  0  0  0
   36.1520   23.3580   31.2930 C   0  0  0  0  0  0  0  0  0  0  0  0
   36.9240   24.1150   30.4120 N   0  0  0  0  0  0  0  0  0  0  0  0
   35.3280   25.2190   31.0250 H   0  0  0  0  0  0  0  0  0  0  0  0
   36.7240   24.1920   29.3740 H   0  0  0  0  0  0  0  0  0  0  0  0
   37.7410   24.6280   30.8160 H   0  0  0  0  0  0  0  0  0  0  0  0
   38.6190   27.3760   32.3570 C   0  0  0  0  0  3  0  0  0  0  0  0
   39.3510   26.3590   31.5080 C   0  0  0  0  0  2  0  0  0  0  0  0
   39.1760   26.8020   30.0750 C   0  0  0  0  0  2  0  0  0  0  0  0
   38.0600   27.7980   30.0430 C   0  0  0  0  0  2  0  0  0  0  0  0
   37.5900   27.9950   31.4540 C   0  0  0  0  0  2  0  0  0  0  0  0
  1  6  1  0  0  0  0
  1 13  1  0  0  0  0
  2  1  2  0  0  0  0
  3  4  2  0  0  0  0
  3  2  1  0  0  0  0
  4  5  1  0  0  0  0
  5  7  1  0  0  0  0
  5  6  2  0  0  0  0
  7  8  1  0  0  0  0
  8 15  1  0  0  0  0
  8  9  1  0  0  0  0
  9 17  1  0  0  0  0
  9 18  1  0  0  0  0
 10 19  1  0  0  0  0
 10  9  1  0  0  0  0
 11 22  1  0  0  0  0
 11 10  1  0  0  0  0
 12 23  1  6  0  0  0
 12 11  1  0  0  0  0
 12  7  1  0  0  0  0
 14  2  1  0  0  0  0
 16  8  1  0  0  0  0
 20 10  1  0  0  0  0
 21 11  1  0  0  0  0
 24 25  1  0  0  0  0
 25 26  2  0  0  0  0
 25  3  1  0  0  0  0
 26 30  1  0  0  0  0
 27 31  1  0  0  0  0
 27 26  1  0  0  0  0
 28 27  2  0  0  0  0
 29 28  1  0  0  0  0
 29 24  2  0  0  0  0
 32 28  1  0  0  0  0
 33 29  1  0  0  0  0
 35 34  2  0  0  0  0
 35 24  1  0  0  0  0
 36 39  1  0  0  0  0
 36 35  1  0  0  0  0
 37 34  1  0  0  0  0
 38 36  1  0  0  0  0
 40 12  1  0  0  0  0
 41 40  1  0  0  0  0
 42 41  1  0  0  0  0
 43 42  1  0  0  0  0
 43 44  1  0  0  0  0
 44 40  1  0  0  0  0
M  END
>  <minimizedAffinity>
-6.13068914

$$$$

 OpenBabel03272505203D

 44 47  0  0  1  0  0  0  0  0999 V2000
   37.9840   26.1870   34.5950 C   0  0  0  0  0  0  0  0  0  0  0  0
   39.2210   25.7710   35.1400 C   0  0  0  0  0  0  0  0  0  0  0  0
   39.8740   24.6500   34.6460 C   0  0  0  0  0  0  0  0  0  0  0  0
   39.1980   24.0510   33.6320 N   0  0  0  0  0  0  0  0  0  0  0  0
   38.0370   24.4280   33.1100 C   0  0  0  0  0  0  0  0  0  0  0  0
   37.4240   25.5120   33.6010 N   0  0  0  0  0  0  0  0  0  0  0  0
   37.4680   23.6720   32.0370 N   0  0  0  0  0  0  0  0  0  0  0  0
   36.0280   23.6180   31.8560 C   0  0  0  0  0  0  0  0  0  0  0  0
   35.6760   22.1310   32.0120 C   0  0  0  0  0  0  0  0  0  0  0  0
   36.3530   21.3930   30.9010 C   0  0  0  0  0  0  0  0  0  0  0  0
   37.8540   21.5330   30.9990 C   0  0  0  0  0  0  0  0  0  0  0  0
   38.3200   22.9500   31.1190 C   0  0  1  0  0  0  0  0  0  0  0  0
   37.4860   27.0690   34.9960 H   0  0  0  0  0  0  0  0  0  0  0  0
   39.5850   26.3980   35.9500 H   0  0  0  0  0  0  0  0  0  0  0  0
   35.5380   24.2230   32.6550 H   0  0  0  0  0  0  0  0  0  0  0  0
   35.7100   23.9150   30.8540 H   0  0  0  0  0  0  0  0  0  0  0  0
   36.0290   21.7340   32.9720 H   0  0  0  0  0  0  0  0  0  0  0  0
   34.5820   22.0740   31.8550 H   0  0  0  0  0  0  0  0  0  0  0  0
   36.1340   20.3050   30.9740 H   0  0  0  0  0  0  0  0  0  0  0  0
   36.0220   21.7810   29.9310 H   0  0  0  0  0  0  0  0  0  0  0  0
   38.2910   21.1280   30.0580 H   0  0  0  0  0  0  0  0  0  0  0  0
   38.2590   20.9050   31.8200 H   0  0  0  0  0  0  0  0  0  0  0  0
   39.3440   22.8700   31.5910 H   0  0  0  0  0  0  0  0  0  0  0  0
   41.1530   23.3280   36.2040 C   0  0  0  0  0  0  0  0  0  0  0  0
   41.1270   24.2990   35.2590 C   0  0  0  0  0  0  0  0  0  0  0  0
   42.3260   24.9020   34.9380 C   0  0  0  0  0  0  0  0  0  0  0  0
   43.4850   24.5730   35.5100 C   0  0  0  0  0  0  0  0  0  0  0  0
   43.5500   23.5810   36.4830 C   0  0  0  0  0  0  0  0  0  0  0  0
   42.3640   22.9770   36.8100 C   0  0  0  0  0  0  0  0  0  0  0  0
   42.2990   25.6850   34.1730 H   0  0  0  0  0  0  0  0  0  0  0  0
   44.3900   25.0850   35.2120 H   0  0  0  0  0  0  0  0  0  0  0  0
   44.4930   23.3180   36.9450 H   0  0  0  0  0  0  0  0  0  0  0  0
   42.4610   22.2070   37.5760 H   0  0  0  0  0  0  0  0  0  0  0  0
   39.9690   22.2530   37.9800 N   0  0  0  0  0  0  0  0  0  0  0  0
   40.0420   22.5670   36.6960 C   0  0  0  0  0  0  0  0  0  0  0  0
   38.8520   21.9390   36.3340 N   0  0  0  0  0  0  0  0  0  0  0  0
   39.1580   21.6970   38.3310 H   0  0  0  0  0  0  0  0  0  0  0  0
   38.7790   20.9060   36.1040 H   0  0  0  0  0  0  0  0  0  0  0  0
   37.9930   22.5350   36.2930 H   0  0  0  0  0  0  0  0  0  0  0  0
   38.5390   23.6350   29.8110 C   0  0  0  0  0  3  0  0  0  0  0  0
   39.3500   24.8900   30.0550 C   0  0  0  0  0  2  0  0  0  0  0  0
   40.3380   24.9790   28.9170 C   0  0  0  0  0  2  0  0  0  0  0  0
   40.3880   23.6390   28.2550 C   0  0  0  0  0  2  0  0  0  0  0  0
   39.4020   22.7530   28.9550 C   0  0  0  0  0  2  0  0  0  0  0  0
  1 13  1  0  0  0  0
  1  2  1  0  0  0  0
  2 14  1  0  0  0  0
  3  2  2  0  0  0  0
  3 25  1  0  0  0  0
  4  3  1  0  0  0  0
  5  6  1  0  0  0  0
  5  4  2  0  0  0  0
  6  1  2  0  0  0  0
  7  5  1  0  0  0  0
  8  9  1  0  0  0  0
  8  7  1  0  0  0  0
  8 15  1  0  0  0  0
  9 17  1  0  0  0  0
 10 19  1  0  0  0  0
 10 11  1  0  0  0  0
 10  9  1  0  0  0  0
 11 12  1  0  0  0  0
 11 22  1  0  0  0  0
 12 23  1  1  0  0  0
 12  7  1  0  0  0  0
 16  8  1  0  0  0  0
 18  9  1  0  0  0  0
 20 10  1  0  0  0  0
 21 11  1  0  0  0  0
 24 35  1  0  0  0  0
 24 29  1  0  0  0  0
 25 24  2  0  0  0  0
 26 25  1  0  0  0  0
 26 27  2  0  0  0  0
 27 28  1  0  0  0  0
 28 29  2  0  0  0  0
 28 32  1  0  0  0  0
 29 33  1  0  0  0  0
 30 26  1  0  0  0  0
 31 27  1  0  0  0  0
 34 37  1  0  0  0  0
 35 34  2  0  0  0  0
 36 35  1  0  0  0  0
 38 36  1  0  0  0  0
 39 36  1  0  0  0  0
 40 41  1  0  0  0  0
 40 12  1  0  0  0  0
 42 41  1  0  0  0  0
 43 42  1  0  0  0  0
 43 44  1  0  0  0  0
 44 40  1  0  0  0  0
M  END
>  <minimizedAffinity>
-6.08754015

$$$$
