
 OpenBabel03272506123D

 40 43  0  0  1  0  0  0  0  0999 V2000
   35.3500   30.0810   47.3970 C   0  0  1  0  0  0  0  0  0  0  0  0
   34.5590   28.7380   47.6640 C   0  0  0  0  0  0  0  0  0  0  0  0
   34.0170   28.7050   49.0870 C   0  0  0  0  0  0  0  0  0  0  0  0
   35.0720   29.1270   50.0570 C   0  0  0  0  0  0  0  0  0  0  0  0
   36.3940   29.0630   49.4290 C   0  0  0  0  0  0  0  0  0  0  0  0
   36.5380   30.0440   48.3080 C   0  0  2  0  0  0  0  0  0  0  0  0
   34.6870   30.6960   47.9100 H   0  0  0  0  0  0  0  0  0  0  0  0
   33.7330   28.7640   46.9630 H   0  0  0  0  0  0  0  0  0  0  0  0
   35.2520   27.9170   47.4360 H   0  0  0  0  0  0  0  0  0  0  0  0
   33.6750   27.6690   49.2440 H   0  0  0  0  0  0  0  0  0  0  0  0
   33.1250   29.3600   49.0880 H   0  0  0  0  0  0  0  0  0  0  0  0
   35.0460   28.3570   50.8910 H   0  0  0  0  0  0  0  0  0  0  0  0
   34.7350   30.0470   50.5140 H   0  0  0  0  0  0  0  0  0  0  0  0
   37.2100   29.2580   50.1350 H   0  0  0  0  0  0  0  0  0  0  0  0
   36.5530   28.0370   49.0490 H   0  0  0  0  0  0  0  0  0  0  0  0
   37.4610   29.6810   47.8090 H   0  0  0  0  0  0  0  0  0  0  0  0
   34.6280   29.9990   45.0470 C   0  0  0  0  0  0  0  0  0  0  0  0
   34.9950   30.0770   43.7150 C   0  0  0  0  0  0  0  0  0  0  0  0
   36.2800   30.2150   43.2620 C   0  0  0  0  0  0  0  0  0  0  0  0
   37.3200   30.2810   44.1950 C   0  0  0  0  0  0  0  0  0  0  0  0
   36.9530   30.1990   45.5250 C   0  0  0  0  0  0  0  0  0  0  0  0
   35.6510   30.0630   45.9900 C   0  0  0  0  0  0  0  0  0  0  0  0
   34.2380   30.0380   42.9090 H   0  0  0  0  0  0  0  0  0  0  0  0
   36.4720   30.2720   42.1910 H   0  0  0  0  0  0  0  0  0  0  0  0
   38.3060   30.3890   43.7810 H   0  0  0  0  0  0  0  0  0  0  0  0
   37.8690   30.2470   46.0990 H   0  0  0  0  0  0  0  0  0  0  0  0
   32.7090   28.4970   45.1420 C   0  0  0  0  0  0  0  0  0  0  0  0
   33.2400   29.8260   45.3000 C   0  0  0  0  0  0  0  0  0  0  0  0
   32.3660   30.8180   45.7050 C   0  0  0  0  0  0  0  0  0  0  0  0
   31.0670   30.5220   45.9430 N   0  0  0  0  0  0  0  0  0  0  0  0
   30.5780   29.2500   45.7920 C   0  0  0  0  0  0  0  0  0  0  0  0
   31.4070   28.2520   45.3900 N   0  0  0  0  0  0  0  0  0  0  0  0
   33.2630   27.6280   44.8370 H   0  0  0  0  0  0  0  0  0  0  0  0
   32.4800   31.8490   45.8160 H   0  0  0  0  0  0  0  0  0  0  0  0
   29.5410   28.9780   45.9740 H   0  0  0  0  0  0  0  0  0  0  0  0
   36.9740   31.4120   48.7250 C   0  0  0  0  0  0  0  0  0  0  0  0
   38.4380   31.7100   48.4840 C   0  0  0  0  0  0  0  0  0  0  0  0
   38.4390   33.1800   48.9280 C   0  0  0  0  0  0  0  0  0  0  0  0
   37.3030   33.3000   49.9540 C   0  0  0  0  0  0  0  0  0  0  0  0
   36.8490   31.8290   50.1270 C   0  0  0  0  0  0  0  0  0  0  0  0
  1  2  1  0  0  0  0
  1  7  1  1  0  0  0
  1  6  1  0  0  0  0
  2  3  1  0  0  0  0
  3 11  1  0  0  0  0
  3 10  1  0  0  0  0
  3  4  1  0  0  0  0
  4 13  1  0  0  0  0
  4 12  1  0  0  0  0
  5  4  1  0  0  0  0
  5 14  1  0  0  0  0
  6 16  1  6  0  0  0
  6 36  1  0  0  0  0
  6  5  1  0  0  0  0
  8  2  1  0  0  0  0
  9  2  1  0  0  0  0
 15  5  1  0  0  0  0
 17 28  1  0  0  0  0
 17 22  1  0  0  0  0
 18 17  2  0  0  0  0
 19 18  1  0  0  0  0
 19 20  2  0  0  0  0
 20 21  1  0  0  0  0
 21 22  2  0  0  0  0
 21 26  1  0  0  0  0
 22  1  1  0  0  0  0
 23 18  1  0  0  0  0
 24 19  1  0  0  0  0
 25 20  1  0  0  0  0
 27 28  2  0  0  0  0
 27 32  1  0  0  0  0
 28 29  1  0  0  0  0
 29 34  1  0  0  0  0
 29 30  2  0  0  0  0
 31 30  1  0  0  0  0
 31 35  1  0  0  0  0
 32 31  2  0  0  0  0
 33 27  1  0  0  0  0
 36 40  1  0  0  0  0
 37 36  1  0  0  0  0
 37 38  1  0  0  0  0
 38 39  1  0  0  0  0
 39 40  1  0  0  0  0
M  END
>  <minimizedAffinity>
-6.01173019

>  <minimizedRMSD>
3.59451127

$$$$
