
 OpenBabel03272501503D

 18 19  0  0  0  0  0  0  0  0999 V2000
   38.0240   24.2090   38.3790 C   0  0  0  0  0  0  0  0  0  0  0  0
   37.7110   24.5570   37.0430 C   0  0  0  0  0  0  0  0  0  0  0  0
   38.4320   23.9240   36.0230 C   0  0  0  0  0  0  0  0  0  0  0  0
   39.3830   23.0190   36.3850 N   0  0  0  0  0  0  0  0  0  0  0  0
   39.6490   22.7190   37.6610 C   0  0  0  0  0  0  0  0  0  0  0  0
   38.9750   23.3090   38.6650 N   0  0  0  0  0  0  0  0  0  0  0  0
   40.6690   21.7570   37.8510 N   0  0  0  0  0  0  0  0  0  0  0  0
   37.4560   24.7100   39.1520 H   0  0  0  0  0  0  0  0  0  0  0  0
   36.9500   25.2790   36.7770 H   0  0  0  0  0  0  0  0  0  0  0  0
   41.5830   21.8570   38.3310 H   0  0  0  0  0  0  0  0  0  0  0  0
   40.7690   20.7550   37.5780 H   0  0  0  0  0  0  0  0  0  0  0  0
   38.1460   24.2480   34.6340 C   0  0  0  0  0  0  0  0  0  0  0  0
   38.2370   23.1920   33.6220 C   0  0  0  0  0  0  0  0  0  0  0  0
   38.5030   22.1500   33.7920 H   0  0  0  0  0  0  0  0  0  0  0  0
   37.8100   24.0260   32.0790 S   0  0  0  0  0  0  0  0  0  0  0  0
   37.5740   25.6660   33.0090 C   0  0  0  0  0  0  0  0  0  0  0  0
   37.2700   26.8470   32.8070 H   0  0  0  0  0  0  0  0  0  0  0  0
   37.7990   25.3910   34.0820 N   0  0  0  0  0  0  0  0  0  0  0  0
  1  6  1  0  0  0  0
  1  8  1  0  0  0  0
  2  1  2  0  0  0  0
  3  4  2  0  0  0  0
  3  2  1  0  0  0  0
  4  5  1  0  0  0  0
  5  7  1  0  0  0  0
  5  6  2  0  0  0  0
  7 10  1  0  0  0  0
  9  2  1  0  0  0  0
 11  7  1  0  0  0  0
 12  3  1  0  0  0  0
 13 14  1  0  0  0  0
 13 12  2  0  0  0  0
 15 16  1  0  0  0  0
 15 13  1  0  0  0  0
 16 18  2  0  0  0  0
 17 16  1  0  0  0  0
 18 12  1  0  0  0  0
M  END
>  <minimizedAffinity>
-4.07326698

$$$$

 OpenBabel03272501503D

 18 19  0  0  0  0  0  0  0  0999 V2000
   38.0220   24.2350   38.3550 C   0  0  0  0  0  0  0  0  0  0  0  0
   37.8330   24.7010   37.0320 C   0  0  0  0  0  0  0  0  0  0  0  0
   38.6270   24.1340   36.0270 C   0  0  0  0  0  0  0  0  0  0  0  0
   39.5240   23.1760   36.3910 N   0  0  0  0  0  0  0  0  0  0  0  0
   39.6710   22.7630   37.6530 C   0  0  0  0  0  0  0  0  0  0  0  0
   38.9250   23.2880   38.6440 N   0  0  0  0  0  0  0  0  0  0  0  0
   40.6500   21.7610   37.8470 N   0  0  0  0  0  0  0  0  0  0  0  0
   37.4000   24.6860   39.1170 H   0  0  0  0  0  0  0  0  0  0  0  0
   37.1140   25.4640   36.7650 H   0  0  0  0  0  0  0  0  0  0  0  0
   41.5210   21.7950   38.4090 H   0  0  0  0  0  0  0  0  0  0  0  0
   40.7530   20.7820   37.5000 H   0  0  0  0  0  0  0  0  0  0  0  0
   38.4700   24.5800   34.6520 C   0  0  0  0  0  0  0  0  0  0  0  0
   37.7060   25.8020   34.3800 C   0  0  0  0  0  0  0  0  0  0  0  0
   37.2220   26.4420   35.1150 H   0  0  0  0  0  0  0  0  0  0  0  0
   37.7700   25.9680   32.5840 S   0  0  0  0  0  0  0  0  0  0  0  0
   38.8070   24.3810   32.4540 C   0  0  0  0  0  0  0  0  0  0  0  0
   39.3540   23.6590   31.6130 H   0  0  0  0  0  0  0  0  0  0  0  0
   38.9160   24.0540   33.5310 N   0  0  0  0  0  0  0  0  0  0  0  0
  1  6  1  0  0  0  0
  1  8  1  0  0  0  0
  2  1  2  0  0  0  0
  3  4  2  0  0  0  0
  3  2  1  0  0  0  0
  4  5  1  0  0  0  0
  5  7  1  0  0  0  0
  5  6  2  0  0  0  0
  7 10  1  0  0  0  0
  9  2  1  0  0  0  0
 11  7  1  0  0  0  0
 12  3  1  0  0  0  0
 13 12  2  0  0  0  0
 13 14  1  0  0  0  0
 15 13  1  0  0  0  0
 16 15  1  0  0  0  0
 16 18  2  0  0  0  0
 17 16  1  0  0  0  0
 18 12  1  0  0  0  0
M  END
>  <minimizedAffinity>
-4.03830576

$$$$

 OpenBabel03272501503D

 18 19  0  0  0  0  0  0  0  0999 V2000
   37.9480   24.1890   38.1830 C   0  0  0  0  0  0  0  0  0  0  0  0
   38.0340   24.8610   36.9400 C   0  0  0  0  0  0  0  0  0  0  0  0
   39.0190   24.4350   36.0420 C   0  0  0  0  0  0  0  0  0  0  0  0
   39.8250   23.4060   36.4240 N   0  0  0  0  0  0  0  0  0  0  0  0
   39.7110   22.7970   37.6080 C   0  0  0  0  0  0  0  0  0  0  0  0
   38.7750   23.1820   38.4960 N   0  0  0  0  0  0  0  0  0  0  0  0
   40.6320   21.7480   37.8360 N   0  0  0  0  0  0  0  0  0  0  0  0
   37.1800   24.5340   38.8650 H   0  0  0  0  0  0  0  0  0  0  0  0
   37.3820   25.6770   36.6570 H   0  0  0  0  0  0  0  0  0  0  0  0
   41.3690   21.6690   38.5620 H   0  0  0  0  0  0  0  0  0  0  0  0
   40.8080   20.8330   37.3660 H   0  0  0  0  0  0  0  0  0  0  0  0
   39.1470   25.0940   34.7510 C   0  0  0  0  0  0  0  0  0  0  0  0
   38.4130   24.5590   33.6000 C   0  0  0  0  0  0  0  0  0  0  0  0
   37.7560   23.6900   33.5960 H   0  0  0  0  0  0  0  0  0  0  0  0
   38.8590   25.6640   32.2440 S   0  0  0  0  0  0  0  0  0  0  0  0
   39.9620   26.6810   33.4100 C   0  0  0  0  0  0  0  0  0  0  0  0
   40.7060   27.6680   33.4070 H   0  0  0  0  0  0  0  0  0  0  0  0
   39.8470   26.1530   34.4030 N   0  0  0  0  0  0  0  0  0  0  0  0
  1  6  1  0  0  0  0
  1  8  1  0  0  0  0
  2  1  2  0  0  0  0
  3  4  2  0  0  0  0
  3  2  1  0  0  0  0
  4  5  1  0  0  0  0
  5  7  1  0  0  0  0
  5  6  2  0  0  0  0
  7 10  1  0  0  0  0
  9  2  1  0  0  0  0
 11  7  1  0  0  0  0
 12  3  1  0  0  0  0
 13 12  2  0  0  0  0
 14 13  1  0  0  0  0
 15 16  1  0  0  0  0
 15 13  1  0  0  0  0
 16 18  2  0  0  0  0
 17 16  1  0  0  0  0
 18 12  1  0  0  0  0
M  END
>  <minimizedAffinity>
-3.94527173

$$$$

 OpenBabel03272501503D

 18 19  0  0  0  0  0  0  0  0999 V2000
   40.9580   23.0660   36.2440 C   0  0  0  0  0  0  0  0  0  0  0  0
   40.2490   23.9710   35.4180 C   0  0  0  0  0  0  0  0  0  0  0  0
   38.9920   24.4010   35.8610 C   0  0  0  0  0  0  0  0  0  0  0  0
   38.5390   23.9210   37.0520 N   0  0  0  0  0  0  0  0  0  0  0  0
   39.2410   23.0660   37.8030 C   0  0  0  0  0  0  0  0  0  0  0  0
   40.4530   22.6320   37.4070 N   0  0  0  0  0  0  0  0  0  0  0  0
   38.6160   22.6720   39.0090 N   0  0  0  0  0  0  0  0  0  0  0  0
   41.9280   22.7460   35.8840 H   0  0  0  0  0  0  0  0  0  0  0  0
   40.6280   24.3410   34.4750 H   0  0  0  0  0  0  0  0  0  0  0  0
   38.3150   21.7270   39.3130 H   0  0  0  0  0  0  0  0  0  0  0  0
   38.3090   23.1920   39.8610 H   0  0  0  0  0  0  0  0  0  0  0  0
   38.2240   25.3310   35.0480 C   0  0  0  0  0  0  0  0  0  0  0  0
   38.0910   25.0790   33.6090 C   0  0  0  0  0  0  0  0  0  0  0  0
   38.5150   24.2450   33.0540 H   0  0  0  0  0  0  0  0  0  0  0  0
   37.0820   26.4540   33.0160 S   0  0  0  0  0  0  0  0  0  0  0  0
   36.9850   27.1670   34.7740 C   0  0  0  0  0  0  0  0  0  0  0  0
   36.4990   28.1180   35.3980 H   0  0  0  0  0  0  0  0  0  0  0  0
   37.5850   26.4310   35.3870 N   0  0  0  0  0  0  0  0  0  0  0  0
  1  6  1  0  0  0  0
  2  3  1  0  0  0  0
  2  1  2  0  0  0  0
  3  4  2  0  0  0  0
  4  5  1  0  0  0  0
  5  7  1  0  0  0  0
  6  5  2  0  0  0  0
  7 10  1  0  0  0  0
  7 11  1  0  0  0  0
  8  1  1  0  0  0  0
  9  2  1  0  0  0  0
 12 18  1  0  0  0  0
 12  3  1  0  0  0  0
 13 12  2  0  0  0  0
 14 13  1  0  0  0  0
 15 13  1  0  0  0  0
 15 16  1  0  0  0  0
 16 18  2  0  0  0  0
 16 17  1  0  0  0  0
M  END
>  <minimizedAffinity>
-3.87016654

$$$$

 OpenBabel03272501503D

 18 19  0  0  0  0  0  0  0  0999 V2000
   38.1920   23.9160   37.9170 C   0  0  0  0  0  0  0  0  0  0  0  0
   37.7880   23.9520   36.5610 C   0  0  0  0  0  0  0  0  0  0  0  0
   38.4820   23.1400   35.6570 C   0  0  0  0  0  0  0  0  0  0  0  0
   39.4970   22.3720   36.1420 N   0  0  0  0  0  0  0  0  0  0  0  0
   39.8480   22.3660   37.4320 C   0  0  0  0  0  0  0  0  0  0  0  0
   39.2020   23.1360   38.3280 N   0  0  0  0  0  0  0  0  0  0  0  0
   40.9250   21.5080   37.7570 N   0  0  0  0  0  0  0  0  0  0  0  0
   37.6430   24.5510   38.6010 H   0  0  0  0  0  0  0  0  0  0  0  0
   36.9780   24.5700   36.1970 H   0  0  0  0  0  0  0  0  0  0  0  0
   41.8580   21.7450   38.1440 H   0  0  0  0  0  0  0  0  0  0  0  0
   41.0610   20.4750   37.7000 H   0  0  0  0  0  0  0  0  0  0  0  0
   38.1040   23.1430   34.2530 C   0  0  0  0  0  0  0  0  0  0  0  0
   37.4140   21.9740   33.6970 C   0  0  0  0  0  0  0  0  0  0  0  0
   37.1390   21.0670   34.2320 H   0  0  0  0  0  0  0  0  0  0  0  0
   37.1450   22.4070   31.9650 S   0  0  0  0  0  0  0  0  0  0  0  0
   37.9940   24.0850   32.2330 C   0  0  0  0  0  0  0  0  0  0  0  0
   38.3030   25.1120   31.6180 H   0  0  0  0  0  0  0  0  0  0  0  0
   38.2790   24.0620   33.3270 N   0  0  0  0  0  0  0  0  0  0  0  0
  1  6  1  0  0  0  0
  1  8  1  0  0  0  0
  2  1  2  0  0  0  0
  3  4  2  0  0  0  0
  3  2  1  0  0  0  0
  4  5  1  0  0  0  0
  5  7  1  0  0  0  0
  5  6  2  0  0  0  0
  7 10  1  0  0  0  0
  9  2  1  0  0  0  0
 11  7  1  0  0  0  0
 12  3  1  0  0  0  0
 13 14  1  0  0  0  0
 13 12  2  0  0  0  0
 15 16  1  0  0  0  0
 15 13  1  0  0  0  0
 16 18  2  0  0  0  0
 17 16  1  0  0  0  0
 18 12  1  0  0  0  0
M  END
>  <minimizedAffinity>
-3.77776909

$$$$

 OpenBabel03272501503D

 18 19  0  0  0  0  0  0  0  0999 V2000
   37.4780   27.5520   34.8480 C   0  0  0  0  0  0  0  0  0  0  0  0
   38.0350   26.6650   35.8010 C   0  0  0  0  0  0  0  0  0  0  0  0
   38.1550   25.3190   35.4380 C   0  0  0  0  0  0  0  0  0  0  0  0
   37.7300   24.9550   34.1970 N   0  0  0  0  0  0  0  0  0  0  0  0
   37.2100   25.8240   33.3250 C   0  0  0  0  0  0  0  0  0  0  0  0
   37.0790   27.1270   33.6420 N   0  0  0  0  0  0  0  0  0  0  0  0
   36.8220   25.2700   32.0830 N   0  0  0  0  0  0  0  0  0  0  0  0
   37.3930   28.5890   35.1480 H   0  0  0  0  0  0  0  0  0  0  0  0
   38.3670   26.9760   36.7830 H   0  0  0  0  0  0  0  0  0  0  0  0
   35.8790   25.2230   31.6520 H   0  0  0  0  0  0  0  0  0  0  0  0
   37.3440   24.7920   31.3160 H   0  0  0  0  0  0  0  0  0  0  0  0
   38.7210   24.3690   36.3830 C   0  0  0  0  0  0  0  0  0  0  0  0
   39.9170   23.6110   36.0030 C   0  0  0  0  0  0  0  0  0  0  0  0
   40.4560   23.6760   35.0590 H   0  0  0  0  0  0  0  0  0  0  0  0
   40.2580   22.5790   37.4450 S   0  0  0  0  0  0  0  0  0  0  0  0
   38.7530   23.3080   38.3470 C   0  0  0  0  0  0  0  0  0  0  0  0
   38.1480   23.2270   39.4210 H   0  0  0  0  0  0  0  0  0  0  0  0
   38.3310   24.0410   37.5970 N   0  0  0  0  0  0  0  0  0  0  0  0
  1  8  1  0  0  0  0
  1  2  1  0  0  0  0
  2  9  1  0  0  0  0
  3  2  2  0  0  0  0
  3 12  1  0  0  0  0
  4  3  1  0  0  0  0
  5  6  1  0  0  0  0
  5  4  2  0  0  0  0
  6  1  2  0  0  0  0
  7  5  1  0  0  0  0
 10  7  1  0  0  0  0
 11  7  1  0  0  0  0
 12 18  1  0  0  0  0
 13 12  2  0  0  0  0
 13 15  1  0  0  0  0
 14 13  1  0  0  0  0
 15 16  1  0  0  0  0
 16 17  1  0  0  0  0
 18 16  2  0  0  0  0
M  END
>  <minimizedAffinity>
-3.65230083

$$$$

 OpenBabel03272501503D

 18 19  0  0  0  0  0  0  0  0999 V2000
   36.1970   20.9220   33.5630 C   0  0  0  0  0  0  0  0  0  0  0  0
   37.3740   21.7030   33.6520 C   0  0  0  0  0  0  0  0  0  0  0  0
   37.7780   22.1220   34.9250 C   0  0  0  0  0  0  0  0  0  0  0  0
   37.0110   21.7520   35.9890 N   0  0  0  0  0  0  0  0  0  0  0  0
   35.9050   21.0120   35.8620 C   0  0  0  0  0  0  0  0  0  0  0  0
   35.4890   20.5920   34.6520 N   0  0  0  0  0  0  0  0  0  0  0  0
   35.2340   20.7230   37.0730 N   0  0  0  0  0  0  0  0  0  0  0  0
   35.9020   20.6070   32.5700 H   0  0  0  0  0  0  0  0  0  0  0  0
   37.9690   21.9850   32.7940 H   0  0  0  0  0  0  0  0  0  0  0  0
   34.2770   20.9880   37.3720 H   0  0  0  0  0  0  0  0  0  0  0  0
   35.5040   20.1990   37.9350 H   0  0  0  0  0  0  0  0  0  0  0  0
   38.9810   22.9270   35.0680 C   0  0  0  0  0  0  0  0  0  0  0  0
   40.2400   22.2690   35.4310 C   0  0  0  0  0  0  0  0  0  0  0  0
   40.3890   21.2070   35.6140 H   0  0  0  0  0  0  0  0  0  0  0  0
   41.4360   23.6200   35.4950 S   0  0  0  0  0  0  0  0  0  0  0  0
   40.0820   24.8680   35.0290 C   0  0  0  0  0  0  0  0  0  0  0  0
   39.9210   26.0760   34.8230 H   0  0  0  0  0  0  0  0  0  0  0  0
   39.1590   24.2230   34.9230 N   0  0  0  0  0  0  0  0  0  0  0  0
  1  2  2  0  0  0  0
  1  6  1  0  0  0  0
  2  3  1  0  0  0  0
  3 12  1  0  0  0  0
  3  4  2  0  0  0  0
  5  4  1  0  0  0  0
  5  7  1  0  0  0  0
  6  5  2  0  0  0  0
  7 10  1  0  0  0  0
  7 11  1  0  0  0  0
  8  1  1  0  0  0  0
  9  2  1  0  0  0  0
 12 13  2  0  0  0  0
 13 15  1  0  0  0  0
 13 14  1  0  0  0  0
 16 15  1  0  0  0  0
 17 16  1  0  0  0  0
 18 16  2  0  0  0  0
 18 12  1  0  0  0  0
M  END
>  <minimizedAffinity>
-3.60725832

$$$$

 OpenBabel03272501503D

 18 19  0  0  0  0  0  0  0  0999 V2000
   38.1470   25.2580   36.2980 C   0  0  0  0  0  0  0  0  0  0  0  0
   38.1310   24.4440   35.1400 C   0  0  0  0  0  0  0  0  0  0  0  0
   38.1500   23.0560   35.3260 C   0  0  0  0  0  0  0  0  0  0  0  0
   38.1820   22.5860   36.6030 N   0  0  0  0  0  0  0  0  0  0  0  0
   38.1960   23.3900   37.6710 C   0  0  0  0  0  0  0  0  0  0  0  0
   38.1800   24.7290   37.5290 N   0  0  0  0  0  0  0  0  0  0  0  0
   38.2300   22.7290   38.9210 N   0  0  0  0  0  0  0  0  0  0  0  0
   38.1330   26.3280   36.1340 H   0  0  0  0  0  0  0  0  0  0  0  0
   38.1050   24.8390   34.1330 H   0  0  0  0  0  0  0  0  0  0  0  0
   38.9580   22.7600   39.6600 H   0  0  0  0  0  0  0  0  0  0  0  0
   37.5770   22.0740   39.4040 H   0  0  0  0  0  0  0  0  0  0  0  0
   38.1340   22.1770   34.1670 C   0  0  0  0  0  0  0  0  0  0  0  0
   39.3960   21.8780   33.4820 C   0  0  0  0  0  0  0  0  0  0  0  0
   40.3840   22.2500   33.7480 H   0  0  0  0  0  0  0  0  0  0  0  0
   38.9120   20.7760   32.1360 S   0  0  0  0  0  0  0  0  0  0  0  0
   37.0950   20.8750   32.6820 C   0  0  0  0  0  0  0  0  0  0  0  0
   35.9760   20.4480   32.3740 H   0  0  0  0  0  0  0  0  0  0  0  0
   37.1300   21.5610   33.5800 N   0  0  0  0  0  0  0  0  0  0  0  0
  1  6  1  0  0  0  0
  2  3  1  0  0  0  0
  2  1  2  0  0  0  0
  3  4  2  0  0  0  0
  4  5  1  0  0  0  0
  5  7  1  0  0  0  0
  6  5  2  0  0  0  0
  7 11  1  0  0  0  0
  7 10  1  0  0  0  0
  8  1  1  0  0  0  0
  9  2  1  0  0  0  0
 12  3  1  0  0  0  0
 13 14  1  0  0  0  0
 13 12  2  0  0  0  0
 15 16  1  0  0  0  0
 15 13  1  0  0  0  0
 16 18  2  0  0  0  0
 17 16  1  0  0  0  0
 18 12  1  0  0  0  0
M  END
>  <minimizedAffinity>
-3.51976013

$$$$

 OpenBabel03272501503D

 18 19  0  0  0  0  0  0  0  0999 V2000
   40.3740   24.0010   34.7530 C   0  0  0  0  0  0  0  0  0  0  0  0
   39.2720   23.4750   34.0370 C   0  0  0  0  0  0  0  0  0  0  0  0
   38.4770   22.5210   34.6830 C   0  0  0  0  0  0  0  0  0  0  0  0
   38.8170   22.1640   35.9520 N   0  0  0  0  0  0  0  0  0  0  0  0
   39.8680   22.6850   36.5940 C   0  0  0  0  0  0  0  0  0  0  0  0
   40.6530   23.6050   36.0030 N   0  0  0  0  0  0  0  0  0  0  0  0
   40.0720   22.1980   37.9070 N   0  0  0  0  0  0  0  0  0  0  0  0
   40.9760   24.7370   34.2360 H   0  0  0  0  0  0  0  0  0  0  0  0
   39.0180   23.7730   33.0280 H   0  0  0  0  0  0  0  0  0  0  0  0
   40.8800   21.6750   38.2940 H   0  0  0  0  0  0  0  0  0  0  0  0
   39.5020   22.2310   38.7810 H   0  0  0  0  0  0  0  0  0  0  0  0
   37.3330   21.9510   33.9890 C   0  0  0  0  0  0  0  0  0  0  0  0
   37.0400   22.3850   32.6190 C   0  0  0  0  0  0  0  0  0  0  0  0
   37.6000   23.1140   32.0350 H   0  0  0  0  0  0  0  0  0  0  0  0
   35.5700   21.4410   32.1650 S   0  0  0  0  0  0  0  0  0  0  0  0
   35.5590   20.6020   33.8700 C   0  0  0  0  0  0  0  0  0  0  0  0
   34.9170   19.7740   34.5260 H   0  0  0  0  0  0  0  0  0  0  0  0
   36.4530   21.0580   34.3900 N   0  0  0  0  0  0  0  0  0  0  0  0
  1  6  1  0  0  0  0
  2  3  1  0  0  0  0
  2  1  2  0  0  0  0
  3  4  2  0  0  0  0
  4  5  1  0  0  0  0
  5  7  1  0  0  0  0
  6  5  2  0  0  0  0
  7 10  1  0  0  0  0
  7 11  1  0  0  0  0
  8  1  1  0  0  0  0
  9  2  1  0  0  0  0
 12 18  1  0  0  0  0
 12  3  1  0  0  0  0
 13 12  2  0  0  0  0
 14 13  1  0  0  0  0
 15 13  1  0  0  0  0
 15 16  1  0  0  0  0
 16 18  2  0  0  0  0
 16 17  1  0  0  0  0
M  END
>  <minimizedAffinity>
-3.50849247

$$$$
