
 OpenBabel03272509473D

 23 24  0  0  0  0  0  0  0  0999 V2000
   33.7970   28.6930   49.3620 C   0  0  0  0  0  0  0  0  0  0  0  0
   33.1560   28.5700   50.2760 H   0  0  0  0  0  0  0  0  0  0  0  0
   33.7690   29.7820   49.1060 H   0  0  0  0  0  0  0  0  0  0  0  0
   33.1170   27.9730   48.2210 C   0  0  0  0  0  0  0  0  0  0  0  0
   32.0390   27.9160   48.4190 H   0  0  0  0  0  0  0  0  0  0  0  0
   33.5030   26.9540   48.1040 H   0  0  0  0  0  0  0  0  0  0  0  0
   33.3860   28.8150   46.9990 C   0  0  0  0  0  0  0  0  0  0  0  0
   32.1540   29.2680   46.3660 C   0  0  0  0  0  0  0  0  0  0  0  0
   31.1100   29.1340   46.5800 H   0  0  0  0  0  0  0  0  0  0  0  0
   32.7580   30.2540   44.9290 S   0  0  0  0  0  0  0  0  0  0  0  0
   34.5560   29.8880   45.4250 C   0  0  0  0  0  0  0  0  0  0  0  0
   35.7610   30.0390   45.1810 H   0  0  0  0  0  0  0  0  0  0  0  0
   34.4490   29.2490   46.3500 N   0  0  0  0  0  0  0  0  0  0  0  0
   35.1010   28.1980   49.5440 O   0  0  0  0  0  0  0  0  0  0  0  0
   37.3960   30.3130   51.4030 C   0  0  0  0  0  0  0  0  0  0  0  0
   38.1130   30.8700   50.3300 C   0  0  0  0  0  0  0  0  0  0  0  0
   37.7760   30.4930   49.0350 C   0  0  0  0  0  0  0  0  0  0  0  0
   36.7550   29.5960   48.8900 N   0  0  0  0  0  0  0  0  0  0  0  0
   36.0890   29.0830   49.9480 C   0  0  0  0  0  0  0  0  0  0  0  0
   36.4210   29.4520   51.1900 N   0  0  0  0  0  0  0  0  0  0  0  0
   37.6320   30.5850   52.4280 H   0  0  0  0  0  0  0  0  0  0  0  0
   38.9180   31.5820   50.5130 H   0  0  0  0  0  0  0  0  0  0  0  0
   38.3010   30.8960   48.1770 H   0  0  0  0  0  0  0  0  0  0  0  0
  1 14  1  0  0  0  0
  1  2  1  0  0  0  0
  3  1  1  0  0  0  0
  4  5  1  0  0  0  0
  4  1  1  0  0  0  0
  6  4  1  0  0  0  0
  7  4  1  0  0  0  0
  8  9  1  0  0  0  0
  8  7  2  0  0  0  0
 10 11  1  0  0  0  0
 10  8  1  0  0  0  0
 11 13  2  0  0  0  0
 12 11  1  0  0  0  0
 13  7  1  0  0  0  0
 14 19  1  0  0  0  0
 15 21  1  0  0  0  0
 16 22  1  0  0  0  0
 16 15  2  0  0  0  0
 17 16  1  0  0  0  0
 18 17  2  0  0  0  0
 18 19  1  0  0  0  0
 19 20  2  0  0  0  0
 20 15  1  0  0  0  0
 23 17  1  0  0  0  0
M  END
>  <minimizedAffinity>
-3.84687686

>  <minimizedRMSD>
1.5850563

$$$$
