
 OpenBabel03262521543D

 37 39  0  0  1  0  0  0  0  0999 V2000
   31.8900   26.8490   48.2940 C   0  0  1  0  0  0  0  0  0  0  0  0
   32.5900   28.1840   48.2680 C   0  0  2  0  0  0  0  0  0  0  0  0
   32.5300   28.7080   46.8710 C   0  0  0  0  0  0  0  0  0  0  0  0
   31.8880   27.8500   45.9910 O   0  0  0  0  0  0  0  0  0  0  0  0
   30.5750   27.6090   46.3810 C   0  0  0  0  0  0  0  0  0  0  0  0
   30.4710   27.0830   47.7920 C   0  0  2  0  0  0  0  0  0  0  0  0
   31.8670   26.4690   49.3290 H   0  0  0  0  0  0  0  0  0  0  0  0
   32.0610   28.8600   48.9510 H   0  0  0  0  0  0  0  0  0  0  0  0
   33.5390   28.8860   46.4780 H   0  0  0  0  0  0  0  0  0  0  0  0
   31.9860   29.6740   46.8500 H   0  0  0  0  0  0  0  0  0  0  0  0
   29.9170   28.5020   46.2380 H   0  0  0  0  0  0  0  0  0  0  0  0
   30.1600   26.8300   45.7040 H   0  0  0  0  0  0  0  0  0  0  0  0
   29.8690   26.1740   47.8550 H   0  0  0  0  0  0  0  0  0  0  0  0
   32.4830   25.9470   47.4010 O   0  0  0  0  0  0  0  0  0  0  0  0
   33.0610   25.3750   47.9610 H   0  0  0  0  0  0  0  0  0  0  0  0
   34.2940   28.0560   48.8640 S   0  0  0  0  0  0  0  0  0  0  0  0
   34.6560   29.4270   49.9900 C   0  0  0  0  0  0  0  0  0  0  0  0
   34.0470   29.2390   50.9180 H   0  0  0  0  0  0  0  0  0  0  0  0
   34.2650   30.4020   49.6010 H   0  0  0  0  0  0  0  0  0  0  0  0
   36.3690   29.5250   50.4900 S   0  0  0  0  0  0  0  0  0  0  0  0
   37.2330   30.6330   49.3810 C   0  0  0  0  0  0  0  0  0  0  0  0
   37.3810   31.9130   49.8760 C   0  0  0  0  0  0  0  0  0  0  0  0
   38.0540   32.8480   49.0590 C   0  0  0  0  0  0  0  0  0  0  0  0
   38.5160   32.4310   47.8310 N   0  0  0  0  0  0  0  0  0  0  0  0
   38.3260   31.1650   47.4330 C   0  0  0  0  0  0  0  0  0  0  0  0
   37.7010   30.2850   48.1840 N   0  0  0  0  0  0  0  0  0  0  0  0
   37.0310   32.2580   50.8260 H   0  0  0  0  0  0  0  0  0  0  0  0
   38.1850   33.8580   49.4220 H   0  0  0  0  0  0  0  0  0  0  0  0
   38.6850   30.8210   46.4670 H   0  0  0  0  0  0  0  0  0  0  0  0
   29.9520   28.0710   48.6140 O   0  0  0  0  0  0  0  0  0  0  0  0
   28.9690   27.8120   49.5800 C   0  0  0  0  0  0  0  0  0  0  0  0
   29.0090   26.9980   50.6980 C   0  0  0  0  0  0  0  0  0  0  0  0
   29.9730   26.3800   50.9760 H   0  0  0  0  0  0  0  0  0  0  0  0
   27.3270   27.2180   51.4190 S   0  0  0  0  0  0  0  0  0  0  0  0
   26.8670   28.4170   50.0200 C   0  0  0  0  0  0  0  0  0  0  0  0
   25.7980   28.8550   50.0590 H   0  0  0  0  0  0  0  0  0  0  0  0
   27.8230   28.4370   49.4060 N   0  0  0  0  0  0  0  0  0  0  0  0
  1  7  1  1  0  0  0
  2  1  1  0  0  0  0
  2 16  1  0  0  0  0
  2  8  1  1  0  0  0
  3  2  1  0  0  0  0
  4  5  1  0  0  0  0
  4  3  1  0  0  0  0
  5  6  1  0  0  0  0
  6 13  1  1  0  0  0
  6  1  1  0  0  0  0
  6 30  1  0  0  0  0
  9  3  1  0  0  0  0
 10  3  1  0  0  0  0
 11  5  1  0  0  0  0
 12  5  1  0  0  0  0
 14 15  1  0  0  0  0
 14  1  1  0  0  0  0
 16 17  1  0  0  0  0
 17 20  1  0  0  0  0
 17 18  1  0  0  0  0
 19 17  1  0  0  0  0
 21 22  1  0  0  0  0
 21 20  1  0  0  0  0
 22 27  1  0  0  0  0
 23 28  1  0  0  0  0
 23 22  2  0  0  0  0
 24 23  1  0  0  0  0
 25 24  2  0  0  0  0
 25 26  1  0  0  0  0
 26 21  2  0  0  0  0
 29 25  1  0  0  0  0
 30 31  1  0  0  0  0
 31 32  2  0  0  0  0
 32 33  1  0  0  0  0
 32 34  1  0  0  0  0
 35 36  1  0  0  0  0
 35 34  1  0  0  0  0
 37 31  1  0  0  0  0
 37 35  2  0  0  0  0
M  END
>  <minimizedAffinity>
-5.18539429

>  <minimizedRMSD>
1.26098967

$$$$
