
 OpenBabel03272509473D

 23 24  0  0  0  0  0  0  0  0999 V2000
   34.1250   28.4680   48.5660 C   0  0  0  0  0  0  0  0  0  0  0  0
   33.1600   29.0380   48.6320 H   0  0  0  0  0  0  0  0  0  0  0  0
   34.7620   29.0180   47.8280 H   0  0  0  0  0  0  0  0  0  0  0  0
   33.8260   27.1220   47.9470 C   0  0  0  0  0  0  0  0  0  0  0  0
   33.2090   26.5350   48.6390 H   0  0  0  0  0  0  0  0  0  0  0  0
   34.7450   26.5640   47.7400 H   0  0  0  0  0  0  0  0  0  0  0  0
   33.0610   27.4250   46.6830 C   0  0  0  0  0  0  0  0  0  0  0  0
   32.5590   28.7930   46.6630 C   0  0  0  0  0  0  0  0  0  0  0  0
   32.6130   29.6210   47.3450 H   0  0  0  0  0  0  0  0  0  0  0  0
   31.6820   28.8940   45.0430 S   0  0  0  0  0  0  0  0  0  0  0  0
   32.1420   27.0880   44.6740 C   0  0  0  0  0  0  0  0  0  0  0  0
   32.0800   26.1320   43.8890 H   0  0  0  0  0  0  0  0  0  0  0  0
   32.7280   26.7740   45.5860 N   0  0  0  0  0  0  0  0  0  0  0  0
   34.7430   28.3030   49.8190 O   0  0  0  0  0  0  0  0  0  0  0  0
   37.3600   30.2400   51.4310 C   0  0  0  0  0  0  0  0  0  0  0  0
   38.0620   30.6690   50.2910 C   0  0  0  0  0  0  0  0  0  0  0  0
   37.6050   30.2730   49.0380 C   0  0  0  0  0  0  0  0  0  0  0  0
   36.4890   29.4860   48.9990 N   0  0  0  0  0  0  0  0  0  0  0  0
   35.8410   29.0940   50.1190 C   0  0  0  0  0  0  0  0  0  0  0  0
   36.2890   29.4800   51.3190 N   0  0  0  0  0  0  0  0  0  0  0  0
   37.6880   30.5300   52.4250 H   0  0  0  0  0  0  0  0  0  0  0  0
   38.9460   31.2980   50.3900 H   0  0  0  0  0  0  0  0  0  0  0  0
   38.1140   30.5790   48.1320 H   0  0  0  0  0  0  0  0  0  0  0  0
  1  2  1  0  0  0  0
  1 14  1  0  0  0  0
  3  1  1  0  0  0  0
  4  1  1  0  0  0  0
  4  5  1  0  0  0  0
  6  4  1  0  0  0  0
  7  4  1  0  0  0  0
  8  7  2  0  0  0  0
  8  9  1  0  0  0  0
 10  8  1  0  0  0  0
 11 10  1  0  0  0  0
 11 13  2  0  0  0  0
 12 11  1  0  0  0  0
 13  7  1  0  0  0  0
 14 19  1  0  0  0  0
 15 21  1  0  0  0  0
 16 22  1  0  0  0  0
 16 15  2  0  0  0  0
 17 16  1  0  0  0  0
 18 17  2  0  0  0  0
 18 19  1  0  0  0  0
 19 20  2  0  0  0  0
 20 15  1  0  0  0  0
 23 17  1  0  0  0  0
M  END
>  <minimizedAffinity>
-3.60399866

>  <minimizedRMSD>
0.266339481

$$$$
