
 OpenBabel03262521463D

 28 29  0  0  0  0  0  0  0  0999 V2000
   36.9530   29.2480   50.5700 C   0  0  0  0  0  0  0  0  0  0  0  0
   37.4890   28.3250   50.8780 H   0  0  0  0  0  0  0  0  0  0  0  0
   36.7340   29.1350   49.4750 H   0  0  0  0  0  0  0  0  0  0  0  0
   37.7290   30.5000   50.7980 C   0  0  0  0  0  0  0  0  0  0  0  0
   37.2370   31.1720   51.5410 H   0  0  0  0  0  0  0  0  0  0  0  0
   38.6890   30.1880   51.3060 H   0  0  0  0  0  0  0  0  0  0  0  0
   38.1180   31.2100   49.5910 C   0  0  0  0  0  0  0  0  0  0  0  0
   38.5420   32.5230   49.5980 C   0  0  0  0  0  0  0  0  0  0  0  0
   38.8970   33.1240   48.3800 C   0  0  0  0  0  0  0  0  0  0  0  0
   38.7970   32.3600   47.2420 N   0  0  0  0  0  0  0  0  0  0  0  0
   38.3750   31.0720   47.2740 C   0  0  0  0  0  0  0  0  0  0  0  0
   38.0380   30.5130   48.4700 N   0  0  0  0  0  0  0  0  0  0  0  0
   38.6050   33.0860   50.5180 H   0  0  0  0  0  0  0  0  0  0  0  0
   39.2370   34.1520   48.3260 H   0  0  0  0  0  0  0  0  0  0  0  0
   38.3190   30.5210   46.3360 H   0  0  0  0  0  0  0  0  0  0  0  0
   35.7210   29.3750   51.2220 O   0  0  0  0  0  0  0  0  0  0  0  0
   34.6890   30.5480   49.1430 O   0  0  0  0  0  0  0  0  0  0  0  0
   34.4450   29.3940   50.1270 P   0  0  2  0  0  0  0  0  0  0  0  0
   32.9890   29.7450   50.8770 O   0  0  0  0  0  0  0  0  0  0  0  0
   32.8360   29.2880   51.7240 H   0  0  0  0  0  0  0  0  0  0  0  0
   34.3030   27.9360   49.3180 O   0  0  0  0  0  0  0  0  0  0  0  0
   33.3290   27.8020   48.3070 C   0  0  0  0  0  0  0  0  0  0  0  0
   31.9290   27.5740   48.5170 C   0  0  0  0  0  0  0  0  0  0  0  0
   31.5710   27.4980   49.4580 H   0  0  0  0  0  0  0  0  0  0  0  0
   31.3410   27.5170   46.8150 S   0  0  0  0  0  0  0  0  0  0  0  0
   33.0950   27.8100   46.0890 C   0  0  0  0  0  0  0  0  0  0  0  0
   33.3420   27.8730   44.9940 H   0  0  0  0  0  0  0  0  0  0  0  0
   33.9500   27.9250   47.1470 N   0  0  0  0  0  0  0  0  0  0  0  0
  1  4  1  0  0  0  0
  1  2  1  0  0  0  0
  1 16  1  0  0  0  0
  3  1  1  0  0  0  0
  4  6  1  0  0  0  0
  4  5  1  0  0  0  0
  7  8  1  0  0  0  0
  7  4  1  0  0  0  0
  8 13  1  0  0  0  0
  9  8  2  0  0  0  0
 10 11  2  0  0  0  0
 10  9  1  0  0  0  0
 11 12  1  0  0  0  0
 12  7  2  0  0  0  0
 14  9  1  0  0  0  0
 15 11  1  0  0  0  0
 18 17  2  6  0  0  0
 18 19  1  0  0  0  0
 18 16  1  0  0  0  0
 19 20  1  0  0  0  0
 21 18  1  0  0  0  0
 22 23  2  0  0  0  0
 22 21  1  0  0  0  0
 23 24  1  0  0  0  0
 25 23  1  0  0  0  0
 26 25  1  0  0  0  0
 26 28  2  0  0  0  0
 27 26  1  0  0  0  0
 28 22  1  0  0  0  0
M  END
>  <minimizedAffinity>
-5.02000904

>  <minimizedRMSD>
0.0940681696

$$$$
