
 OpenBabel03272500223D

 35 37  0  0  0  0  0  0  0  0999 V2000
   35.5180   29.1380   50.3920 C   0  0  0  0  0  0  0  0  0  0  0  0
   36.3510   30.1030   49.7560 C   0  0  0  0  0  0  0  0  0  0  0  0
   36.2350   30.2590   48.3830 C   0  0  0  0  0  0  0  0  0  0  0  0
   35.3260   29.4770   47.7170 N   0  0  0  0  0  0  0  0  0  0  0  0
   34.5650   28.5920   48.3210 C   0  0  0  0  0  0  0  0  0  0  0  0
   34.6480   28.4110   49.6520 N   0  0  0  0  0  0  0  0  0  0  0  0
   35.6160   29.0240   51.4670 H   0  0  0  0  0  0  0  0  0  0  0  0
   32.7000   30.1680   46.5330 Cl  0  0  0  0  0  0  0  0  0  0  0  0
   32.7000   28.4100   46.6810 C   0  0  0  0  0  0  0  0  0  0  0  0
   33.6110   27.7880   47.5370 C   0  0  0  0  0  0  0  0  0  0  0  0
   33.6600   26.4020   47.6950 C   0  0  0  0  0  0  0  0  0  0  0  0
   32.7310   25.6810   46.9350 C   0  0  0  0  0  0  0  0  0  0  0  0
   31.8350   26.2680   46.0950 C   0  0  0  0  0  0  0  0  0  0  0  0
   30.7280   25.2330   45.2020 Cl  0  0  0  0  0  0  0  0  0  0  0  0
   31.8220   27.6410   45.9700 C   0  0  0  0  0  0  0  0  0  0  0  0
   34.3580   25.9130   48.3520 H   0  0  0  0  0  0  0  0  0  0  0  0
   32.7700   24.6030   47.0580 H   0  0  0  0  0  0  0  0  0  0  0  0
   30.8560   28.2950   45.0590 C   0  0  0  0  0  0  0  0  0  0  0  0
   29.9940   27.3490   44.4990 F   0  0  0  0  0  0  0  0  0  0  0  0
   31.4740   29.0020   44.0560 F   0  0  0  0  0  0  0  0  0  0  0  0
   30.0700   29.1760   45.7650 F   0  0  0  0  0  0  0  0  0  0  0  0
   37.2920   30.8800   50.5990 C   0  0  0  0  0  0  0  0  0  0  0  0
   38.5920   30.7890   50.0990 F   0  0  0  0  0  0  0  0  0  0  0  0
   36.9300   32.2100   50.5390 F   0  0  0  0  0  0  0  0  0  0  0  0
   37.2890   30.5040   51.9190 F   0  0  0  0  0  0  0  0  0  0  0  0
   37.0700   31.2500   47.7070 C   0  0  0  0  0  0  0  0  0  0  0  0
   37.9980   31.5240   48.2670 H   0  0  0  0  0  0  0  0  0  0  0  0
   36.4660   32.1630   47.5430 H   0  0  0  0  0  0  0  0  0  0  0  0
   37.5420   30.7880   46.3720 C   0  0  0  0  0  0  0  0  0  0  0  0
   36.5980   30.6740   45.2900 C   0  0  0  0  0  0  0  0  0  0  0  0
   35.5590   30.8790   45.3250 H   0  0  0  0  0  0  0  0  0  0  0  0
   37.6600   30.1050   43.9050 S   0  0  0  0  0  0  0  0  0  0  0  0
   39.2010   30.1170   45.0290 C   0  0  0  0  0  0  0  0  0  0  0  0
   40.2780   29.8550   44.8040 H   0  0  0  0  0  0  0  0  0  0  0  0
   38.7910   30.4690   46.0570 N   0  0  0  0  0  0  0  0  0  0  0  0
  1  7  1  0  0  0  0
  2  1  1  0  0  0  0
  2 22  1  0  0  0  0
  3  2  2  0  0  0  0
  4  5  2  0  0  0  0
  4  3  1  0  0  0  0
  5  6  1  0  0  0  0
  6  1  2  0  0  0  0
  8  9  1  0  0  0  0
  9 10  1  0  0  0  0
 10 11  2  0  0  0  0
 10  5  1  0  0  0  0
 11 16  1  0  0  0  0
 12 17  1  0  0  0  0
 12 11  1  0  0  0  0
 13 12  2  0  0  0  0
 14 13  1  0  0  0  0
 15 13  1  0  0  0  0
 15  9  2  0  0  0  0
 18 21  1  0  0  0  0
 18 15  1  0  0  0  0
 19 18  1  0  0  0  0
 20 18  1  0  0  0  0
 22 25  1  0  0  0  0
 23 22  1  0  0  0  0
 24 22  1  0  0  0  0
 26 27  1  0  0  0  0
 26  3  1  0  0  0  0
 28 26  1  0  0  0  0
 29 26  1  0  0  0  0
 30 31  1  0  0  0  0
 30 29  2  0  0  0  0
 32 33  1  0  0  0  0
 32 30  1  0  0  0  0
 33 35  2  0  0  0  0
 34 33  1  0  0  0  0
 35 29  1  0  0  0  0
M  END
>  <minimizedAffinity>
-6.02482462

>  <minimizedRMSD>
0.546597183

$$$$
