
 OpenBabel03272502243D

 27 29  0  0  0  0  0  0  0  0999 V2000
   37.3350   22.2810   31.6170 C   0  0  0  0  0  0  0  0  0  0  0  0
   38.0210   21.9860   32.7940 C   0  0  0  0  0  0  0  0  0  0  0  0
   38.2270   22.9800   33.7230 C   0  0  0  0  0  0  0  0  0  0  0  0
   37.7430   24.2070   33.4300 N   0  0  0  0  0  0  0  0  0  0  0  0
   37.0850   24.4830   32.2950 C   0  0  0  0  0  0  0  0  0  0  0  0
   36.8850   23.5100   31.3880 N   0  0  0  0  0  0  0  0  0  0  0  0
   37.1790   21.4920   30.8920 H   0  0  0  0  0  0  0  0  0  0  0  0
   38.4110   21.0040   33.0340 H   0  0  0  0  0  0  0  0  0  0  0  0
   38.9330   22.8100   35.0020 C   0  0  0  0  0  0  0  0  0  0  0  0
   40.1400   22.1780   35.1010 C   0  0  0  0  0  0  0  0  0  0  0  0
   40.7890   22.0260   36.3130 C   0  0  0  0  0  0  0  0  0  0  0  0
   40.2350   22.5080   37.4380 N   0  0  0  0  0  0  0  0  0  0  0  0
   39.0560   23.1230   37.3250 C   0  0  0  0  0  0  0  0  0  0  0  0
   38.4090   23.2820   36.1610 N   0  0  0  0  0  0  0  0  0  0  0  0
   40.5810   21.7920   34.1910 H   0  0  0  0  0  0  0  0  0  0  0  0
   41.7410   21.5130   36.3060 H   0  0  0  0  0  0  0  0  0  0  0  0
   38.4040   23.6740   38.5500 C   0  0  0  0  0  0  0  0  0  0  0  0
   37.9140   24.9270   38.2640 F   0  0  0  0  0  0  0  0  0  0  0  0
   37.3600   22.8320   38.9630 F   0  0  0  0  0  0  0  0  0  0  0  0
   39.2650   23.7780   39.5850 F   0  0  0  0  0  0  0  0  0  0  0  0
   36.6380   25.8920   32.1680 C   0  0  0  0  0  0  0  0  0  0  0  0
   35.9370   26.5790   31.1060 C   0  0  0  0  0  0  0  0  0  0  0  0
   35.7380   25.7450   30.2220 H   0  0  0  0  0  0  0  0  0  0  0  0
   35.8140   28.2910   31.8200 S   0  0  0  0  0  0  0  0  0  0  0  0
   36.7230   27.7570   33.4000 C   0  0  0  0  0  0  0  0  0  0  0  0
   36.8220   28.5930   34.0780 H   0  0  0  0  0  0  0  0  0  0  0  0
   36.9840   26.5610   33.2640 N   0  0  0  0  0  0  0  0  0  0  0  0
  1  2  1  0  0  0  0
  2  8  1  0  0  0  0
  2  3  2  0  0  0  0
  3  9  1  0  0  0  0
  4  3  1  0  0  0  0
  5  4  2  0  0  0  0
  6  1  2  0  0  0  0
  6  5  1  0  0  0  0
  7  1  1  0  0  0  0
  9 10  2  0  0  0  0
  9 14  1  0  0  0  0
 10 11  1  0  0  0  0
 11 12  2  0  0  0  0
 13 12  1  0  0  0  0
 13 17  1  0  0  0  0
 14 13  2  0  0  0  0
 15 10  1  0  0  0  0
 16 11  1  0  0  0  0
 17 19  1  0  0  0  0
 17 20  1  0  0  0  0
 18 17  1  0  0  0  0
 21  5  1  0  0  0  0
 21 27  1  0  0  0  0
 22 24  1  0  0  0  0
 22 21  2  0  0  0  0
 23 22  1  0  0  0  0
 24 25  1  0  0  0  0
 25 26  1  0  0  0  0
 27 25  2  0  0  0  0
M  END
>  <minimizedAffinity>
-5.46016788

$$$$

 OpenBabel03272502243D

 27 29  0  0  0  0  0  0  0  0999 V2000
   36.4310   23.0280   31.6130 C   0  0  0  0  0  0  0  0  0  0  0  0
   37.1920   22.6200   32.7060 C   0  0  0  0  0  0  0  0  0  0  0  0
   37.7500   23.5680   33.5330 C   0  0  0  0  0  0  0  0  0  0  0  0
   37.5210   24.8640   33.2270 N   0  0  0  0  0  0  0  0  0  0  0  0
   36.7870   25.2490   32.1730 C   0  0  0  0  0  0  0  0  0  0  0  0
   36.2440   24.3200   31.3660 N   0  0  0  0  0  0  0  0  0  0  0  0
   35.9960   22.2750   30.9680 H   0  0  0  0  0  0  0  0  0  0  0  0
   37.3790   21.5820   32.9560 H   0  0  0  0  0  0  0  0  0  0  0  0
   38.5740   23.2800   34.7160 C   0  0  0  0  0  0  0  0  0  0  0  0
   39.7960   22.6750   34.6360 C   0  0  0  0  0  0  0  0  0  0  0  0
   40.5570   22.4100   35.7600 C   0  0  0  0  0  0  0  0  0  0  0  0
   40.1020   22.7510   36.9770 N   0  0  0  0  0  0  0  0  0  0  0  0
   38.9070   23.3410   37.0390 C   0  0  0  0  0  0  0  0  0  0  0  0
   38.1520   23.6070   35.9630 N   0  0  0  0  0  0  0  0  0  0  0  0
   40.1580   22.4030   33.6520 H   0  0  0  0  0  0  0  0  0  0  0  0
   41.5140   21.9270   35.6100 H   0  0  0  0  0  0  0  0  0  0  0  0
   38.3610   23.7360   38.3720 C   0  0  0  0  0  0  0  0  0  0  0  0
   37.9270   25.0400   38.3020 F   0  0  0  0  0  0  0  0  0  0  0  0
   37.2970   22.8940   38.7290 F   0  0  0  0  0  0  0  0  0  0  0  0
   39.2870   23.6470   39.3500 F   0  0  0  0  0  0  0  0  0  0  0  0
   36.6590   26.7190   32.0140 C   0  0  0  0  0  0  0  0  0  0  0  0
   36.4600   27.7700   32.9860 C   0  0  0  0  0  0  0  0  0  0  0  0
   36.4060   27.2220   34.0880 H   0  0  0  0  0  0  0  0  0  0  0  0
   36.4210   29.2640   31.8810 S   0  0  0  0  0  0  0  0  0  0  0  0
   36.6780   28.1940   30.3330 C   0  0  0  0  0  0  0  0  0  0  0  0
   36.7030   28.8130   29.4470 H   0  0  0  0  0  0  0  0  0  0  0  0
   36.7540   27.0290   30.7240 N   0  0  0  0  0  0  0  0  0  0  0  0
  1  2  1  0  0  0  0
  2  8  1  0  0  0  0
  2  3  2  0  0  0  0
  3  9  1  0  0  0  0
  4  3  1  0  0  0  0
  5  4  2  0  0  0  0
  6  1  2  0  0  0  0
  6  5  1  0  0  0  0
  7  1  1  0  0  0  0
  9 14  1  0  0  0  0
 10  9  2  0  0  0  0
 10 11  1  0  0  0  0
 11 12  2  0  0  0  0
 12 13  1  0  0  0  0
 13 17  1  0  0  0  0
 14 13  2  0  0  0  0
 15 10  1  0  0  0  0
 16 11  1  0  0  0  0
 17 19  1  0  0  0  0
 17 20  1  0  0  0  0
 18 17  1  0  0  0  0
 21  5  1  0  0  0  0
 21 22  2  0  0  0  0
 22 23  1  0  0  0  0
 24 22  1  0  0  0  0
 25 27  2  0  0  0  0
 25 24  1  0  0  0  0
 26 25  1  0  0  0  0
 27 21  1  0  0  0  0
M  END
>  <minimizedAffinity>
-5.42350912

$$$$

 OpenBabel03272502243D

 27 29  0  0  0  0  0  0  0  0999 V2000
   36.3160   28.3270   33.9510 C   0  0  0  0  0  0  0  0  0  0  0  0
   36.7220   27.2320   34.7110 C   0  0  0  0  0  0  0  0  0  0  0  0
   37.5990   26.3210   34.1690 C   0  0  0  0  0  0  0  0  0  0  0  0
   38.0210   26.5490   32.9060 N   0  0  0  0  0  0  0  0  0  0  0  0
   37.6250   27.6040   32.1800 C   0  0  0  0  0  0  0  0  0  0  0  0
   36.7670   28.4930   32.7120 N   0  0  0  0  0  0  0  0  0  0  0  0
   35.6250   29.0380   34.3860 H   0  0  0  0  0  0  0  0  0  0  0  0
   36.3870   27.0450   35.7250 H   0  0  0  0  0  0  0  0  0  0  0  0
   38.1080   25.1240   34.8550 C   0  0  0  0  0  0  0  0  0  0  0  0
   38.7170   24.0960   34.1930 C   0  0  0  0  0  0  0  0  0  0  0  0
   39.1880   22.9760   34.8550 C   0  0  0  0  0  0  0  0  0  0  0  0
   39.0550   22.8760   36.1880 N   0  0  0  0  0  0  0  0  0  0  0  0
   38.4580   23.8890   36.8200 C   0  0  0  0  0  0  0  0  0  0  0  0
   37.9940   24.9830   36.2000 N   0  0  0  0  0  0  0  0  0  0  0  0
   38.8210   24.1820   33.1200 H   0  0  0  0  0  0  0  0  0  0  0  0
   39.6570   22.2070   34.2570 H   0  0  0  0  0  0  0  0  0  0  0  0
   38.2890   23.8200   38.3030 C   0  0  0  0  0  0  0  0  0  0  0  0
   39.4800   23.4200   38.8650 F   0  0  0  0  0  0  0  0  0  0  0  0
   37.9180   25.0760   38.8070 F   0  0  0  0  0  0  0  0  0  0  0  0
   37.3300   22.9430   38.6680 F   0  0  0  0  0  0  0  0  0  0  0  0
   38.2050   27.6680   30.8160 C   0  0  0  0  0  0  0  0  0  0  0  0
   39.3500   27.0040   30.2330 C   0  0  0  0  0  0  0  0  0  0  0  0
   39.8340   26.3000   31.1200 H   0  0  0  0  0  0  0  0  0  0  0  0
   39.3060   27.6860   28.5050 S   0  0  0  0  0  0  0  0  0  0  0  0
   37.7650   28.7260   28.8950 C   0  0  0  0  0  0  0  0  0  0  0  0
   37.4600   29.2890   28.0240 H   0  0  0  0  0  0  0  0  0  0  0  0
   37.4830   28.5030   30.0730 N   0  0  0  0  0  0  0  0  0  0  0  0
  1  7  1  0  0  0  0
  1  2  1  0  0  0  0
  2  8  1  0  0  0  0
  3  2  2  0  0  0  0
  3  9  1  0  0  0  0
  4  3  1  0  0  0  0
  5  6  1  0  0  0  0
  5  4  2  0  0  0  0
  6  1  2  0  0  0  0
  9 14  1  0  0  0  0
 10 11  1  0  0  0  0
 10  9  2  0  0  0  0
 11 12  2  0  0  0  0
 12 13  1  0  0  0  0
 13 17  1  0  0  0  0
 14 13  2  0  0  0  0
 15 10  1  0  0  0  0
 16 11  1  0  0  0  0
 17 20  1  0  0  0  0
 17 19  1  0  0  0  0
 17 18  1  0  0  0  0
 21  5  1  0  0  0  0
 22 21  2  0  0  0  0
 22 23  1  0  0  0  0
 24 25  1  0  0  0  0
 24 22  1  0  0  0  0
 25 27  2  0  0  0  0
 26 25  1  0  0  0  0
 27 21  1  0  0  0  0
M  END
>  <minimizedAffinity>
-5.38347483

$$$$

 OpenBabel03272502243D

 27 29  0  0  0  0  0  0  0  0999 V2000
   35.6430   27.9530   31.9060 C   0  0  0  0  0  0  0  0  0  0  0  0
   36.5560   27.0230   32.3990 C   0  0  0  0  0  0  0  0  0  0  0  0
   37.0160   27.1460   33.6900 C   0  0  0  0  0  0  0  0  0  0  0  0
   36.5460   28.1850   34.4150 N   0  0  0  0  0  0  0  0  0  0  0  0
   35.6680   29.0760   33.9340 C   0  0  0  0  0  0  0  0  0  0  0  0
   35.2200   28.9540   32.6720 N   0  0  0  0  0  0  0  0  0  0  0  0
   35.2870   27.8480   30.8890 H   0  0  0  0  0  0  0  0  0  0  0  0
   36.9360   26.1880   31.8220 H   0  0  0  0  0  0  0  0  0  0  0  0
   37.9780   26.2410   34.3360 C   0  0  0  0  0  0  0  0  0  0  0  0
   39.1960   25.9460   33.7910 C   0  0  0  0  0  0  0  0  0  0  0  0
   40.0880   25.0910   34.4120 C   0  0  0  0  0  0  0  0  0  0  0  0
   39.7690   24.5220   35.5870 N   0  0  0  0  0  0  0  0  0  0  0  0
   38.5760   24.8190   36.1060 C   0  0  0  0  0  0  0  0  0  0  0  0
   37.6960   25.6460   35.5220 N   0  0  0  0  0  0  0  0  0  0  0  0
   39.4470   26.4070   32.8450 H   0  0  0  0  0  0  0  0  0  0  0  0
   41.0310   24.9100   33.9150 H   0  0  0  0  0  0  0  0  0  0  0  0
   38.1800   24.2090   37.4100 C   0  0  0  0  0  0  0  0  0  0  0  0
   36.9960   23.5300   37.2380 F   0  0  0  0  0  0  0  0  0  0  0  0
   39.1780   23.3290   37.8560 F   0  0  0  0  0  0  0  0  0  0  0  0
   38.0030   25.1350   38.3760 F   0  0  0  0  0  0  0  0  0  0  0  0
   35.2800   30.1390   34.8930 C   0  0  0  0  0  0  0  0  0  0  0  0
   36.0760   31.0720   35.6590 C   0  0  0  0  0  0  0  0  0  0  0  0
   37.2530   30.8400   35.3780 H   0  0  0  0  0  0  0  0  0  0  0  0
   34.7480   32.0030   36.5650 S   0  0  0  0  0  0  0  0  0  0  0  0
   33.3840   30.9670   35.7450 C   0  0  0  0  0  0  0  0  0  0  0  0
   32.4100   31.2850   36.0890 H   0  0  0  0  0  0  0  0  0  0  0  0
   33.9540   30.1650   35.0030 N   0  0  0  0  0  0  0  0  0  0  0  0
  1  2  2  0  0  0  0
  1  6  1  0  0  0  0
  2  3  1  0  0  0  0
  3  9  1  0  0  0  0
  3  4  2  0  0  0  0
  5  4  1  0  0  0  0
  5 21  1  0  0  0  0
  6  5  2  0  0  0  0
  7  1  1  0  0  0  0
  8  2  1  0  0  0  0
  9 14  1  0  0  0  0
 10  9  2  0  0  0  0
 10 11  1  0  0  0  0
 11 12  2  0  0  0  0
 12 13  1  0  0  0  0
 13 17  1  0  0  0  0
 14 13  2  0  0  0  0
 15 10  1  0  0  0  0
 16 11  1  0  0  0  0
 17 19  1  0  0  0  0
 17 20  1  0  0  0  0
 18 17  1  0  0  0  0
 21 27  1  0  0  0  0
 21 22  2  0  0  0  0
 22 24  1  0  0  0  0
 23 22  1  0  0  0  0
 25 26  1  0  0  0  0
 25 24  1  0  0  0  0
 27 25  2  0  0  0  0
M  END
>  <minimizedAffinity>
-5.33466768

$$$$

 OpenBabel03272502243D

 27 29  0  0  0  0  0  0  0  0999 V2000
   36.5550   28.1190   33.7910 C   0  0  0  0  0  0  0  0  0  0  0  0
   36.8600   27.0210   34.5940 C   0  0  0  0  0  0  0  0  0  0  0  0
   37.6980   26.0430   34.1100 C   0  0  0  0  0  0  0  0  0  0  0  0
   38.1840   26.2100   32.8600 N   0  0  0  0  0  0  0  0  0  0  0  0
   37.8850   27.2690   32.0940 C   0  0  0  0  0  0  0  0  0  0  0  0
   37.0650   28.2240   32.5680 N   0  0  0  0  0  0  0  0  0  0  0  0
   35.8930   28.8840   34.1800 H   0  0  0  0  0  0  0  0  0  0  0  0
   36.4740   26.8830   35.5970 H   0  0  0  0  0  0  0  0  0  0  0  0
   38.1020   24.8360   34.8460 C   0  0  0  0  0  0  0  0  0  0  0  0
   38.5580   23.7090   34.2220 C   0  0  0  0  0  0  0  0  0  0  0  0
   38.9320   22.5810   34.9300 C   0  0  0  0  0  0  0  0  0  0  0  0
   38.8540   22.5710   36.2720 N   0  0  0  0  0  0  0  0  0  0  0  0
   38.4060   23.6790   36.8660 C   0  0  0  0  0  0  0  0  0  0  0  0
   38.0380   24.7840   36.2000 N   0  0  0  0  0  0  0  0  0  0  0  0
   38.6190   23.7230   33.1420 H   0  0  0  0  0  0  0  0  0  0  0  0
   39.2820   21.7310   34.3610 H   0  0  0  0  0  0  0  0  0  0  0  0
   38.3020   23.7120   38.3550 C   0  0  0  0  0  0  0  0  0  0  0  0
   39.5220   23.3660   38.8910 F   0  0  0  0  0  0  0  0  0  0  0  0
   37.9350   24.9960   38.7870 F   0  0  0  0  0  0  0  0  0  0  0  0
   37.3720   22.8530   38.8230 F   0  0  0  0  0  0  0  0  0  0  0  0
   38.5220   27.2590   30.7540 C   0  0  0  0  0  0  0  0  0  0  0  0
   38.5600   28.2570   29.7080 C   0  0  0  0  0  0  0  0  0  0  0  0
   37.9210   29.2240   30.1240 H   0  0  0  0  0  0  0  0  0  0  0  0
   39.5690   27.3750   28.4210 S   0  0  0  0  0  0  0  0  0  0  0  0
   39.7470   25.8430   29.5300 C   0  0  0  0  0  0  0  0  0  0  0  0
   40.3290   25.0820   29.0310 H   0  0  0  0  0  0  0  0  0  0  0  0
   39.1400   26.0950   30.5720 N   0  0  0  0  0  0  0  0  0  0  0  0
  1  7  1  0  0  0  0
  1  2  1  0  0  0  0
  2  8  1  0  0  0  0
  3  2  2  0  0  0  0
  3  9  1  0  0  0  0
  4  3  1  0  0  0  0
  5  6  1  0  0  0  0
  5  4  2  0  0  0  0
  6  1  2  0  0  0  0
  9 14  1  0  0  0  0
 10  9  2  0  0  0  0
 10 11  1  0  0  0  0
 11 12  2  0  0  0  0
 12 13  1  0  0  0  0
 13 17  1  0  0  0  0
 14 13  2  0  0  0  0
 15 10  1  0  0  0  0
 16 11  1  0  0  0  0
 17 19  1  0  0  0  0
 17 20  1  0  0  0  0
 17 18  1  0  0  0  0
 21  5  1  0  0  0  0
 22 23  1  0  0  0  0
 22 21  2  0  0  0  0
 24 25  1  0  0  0  0
 24 22  1  0  0  0  0
 25 27  2  0  0  0  0
 26 25  1  0  0  0  0
 27 21  1  0  0  0  0
M  END
>  <minimizedAffinity>
-5.31277275

$$$$

 OpenBabel03272502243D

 27 29  0  0  0  0  0  0  0  0999 V2000
   38.4810   24.2550   30.5770 C   0  0  0  0  0  0  0  0  0  0  0  0
   38.6450   24.9930   31.7480 C   0  0  0  0  0  0  0  0  0  0  0  0
   38.0990   24.5280   32.9220 C   0  0  0  0  0  0  0  0  0  0  0  0
   37.4230   23.3580   32.8670 N   0  0  0  0  0  0  0  0  0  0  0  0
   37.2700   22.6540   31.7360 C   0  0  0  0  0  0  0  0  0  0  0  0
   37.8040   23.1120   30.5890 N   0  0  0  0  0  0  0  0  0  0  0  0
   38.9130   24.6300   29.6580 H   0  0  0  0  0  0  0  0  0  0  0  0
   39.1860   25.9310   31.7980 H   0  0  0  0  0  0  0  0  0  0  0  0
   38.1930   25.2030   34.2250 C   0  0  0  0  0  0  0  0  0  0  0  0
   38.3530   26.5540   34.3470 C   0  0  0  0  0  0  0  0  0  0  0  0
   38.4410   27.1710   35.5820 C   0  0  0  0  0  0  0  0  0  0  0  0
   38.3670   26.4420   36.7070 N   0  0  0  0  0  0  0  0  0  0  0  0
   38.2100   25.1230   36.5710 C   0  0  0  0  0  0  0  0  0  0  0  0
   38.1230   24.5030   35.3850 N   0  0  0  0  0  0  0  0  0  0  0  0
   38.4120   27.1360   33.4370 H   0  0  0  0  0  0  0  0  0  0  0  0
   38.5680   28.2460   35.5910 H   0  0  0  0  0  0  0  0  0  0  0  0
   38.1240   24.2730   37.7960 C   0  0  0  0  0  0  0  0  0  0  0  0
   37.9110   25.0870   38.8850 F   0  0  0  0  0  0  0  0  0  0  0  0
   37.0720   23.3520   37.6730 F   0  0  0  0  0  0  0  0  0  0  0  0
   39.2520   23.5640   38.0070 F   0  0  0  0  0  0  0  0  0  0  0  0
   36.4940   21.3990   31.8920 C   0  0  0  0  0  0  0  0  0  0  0  0
   36.0450   20.4280   30.9190 C   0  0  0  0  0  0  0  0  0  0  0  0
   36.4370   20.8250   29.8210 H   0  0  0  0  0  0  0  0  0  0  0  0
   35.1640   19.2160   32.0190 S   0  0  0  0  0  0  0  0  0  0  0  0
   35.5660   20.2420   33.5660 C   0  0  0  0  0  0  0  0  0  0  0  0
   35.1580   19.7690   34.4480 H   0  0  0  0  0  0  0  0  0  0  0  0
   36.2070   21.2200   33.1780 N   0  0  0  0  0  0  0  0  0  0  0  0
  1  6  2  0  0  0  0
  1  2  1  0  0  0  0
  2  8  1  0  0  0  0
  2  3  2  0  0  0  0
  3  9  1  0  0  0  0
  4  3  1  0  0  0  0
  5 21  1  0  0  0  0
  5  4  2  0  0  0  0
  6  5  1  0  0  0  0
  7  1  1  0  0  0  0
  9 10  2  0  0  0  0
  9 14  1  0  0  0  0
 10 11  1  0  0  0  0
 11 16  1  0  0  0  0
 11 12  2  0  0  0  0
 13 12  1  0  0  0  0
 13 17  1  0  0  0  0
 14 13  2  0  0  0  0
 15 10  1  0  0  0  0
 17 20  1  0  0  0  0
 17 18  1  0  0  0  0
 19 17  1  0  0  0  0
 21 27  1  0  0  0  0
 22 21  2  0  0  0  0
 22 24  1  0  0  0  0
 23 22  1  0  0  0  0
 24 25  1  0  0  0  0
 25 26  1  0  0  0  0
 27 25  2  0  0  0  0
M  END
>  <minimizedAffinity>
-5.26354647

$$$$

 OpenBabel03272502243D

 27 29  0  0  0  0  0  0  0  0999 V2000
   38.7820   27.0150   31.6300 C   0  0  0  0  0  0  0  0  0  0  0  0
   38.9100   25.8450   32.3760 C   0  0  0  0  0  0  0  0  0  0  0  0
   38.0670   25.6280   33.4420 C   0  0  0  0  0  0  0  0  0  0  0  0
   37.1480   26.5840   33.7050 N   0  0  0  0  0  0  0  0  0  0  0  0
   37.0320   27.7070   32.9830 C   0  0  0  0  0  0  0  0  0  0  0  0
   37.8580   27.9170   31.9420 N   0  0  0  0  0  0  0  0  0  0  0  0
   39.4510   27.1770   30.7940 H   0  0  0  0  0  0  0  0  0  0  0  0
   39.6440   25.0760   32.1690 H   0  0  0  0  0  0  0  0  0  0  0  0
   38.0910   24.4440   34.3120 C   0  0  0  0  0  0  0  0  0  0  0  0
   38.0430   23.1680   33.8250 C   0  0  0  0  0  0  0  0  0  0  0  0
   38.0640   22.0650   34.6600 C   0  0  0  0  0  0  0  0  0  0  0  0
   38.1370   22.2290   35.9910 N   0  0  0  0  0  0  0  0  0  0  0  0
   38.1830   23.4810   36.4510 C   0  0  0  0  0  0  0  0  0  0  0  0
   38.1630   24.5650   35.6620 N   0  0  0  0  0  0  0  0  0  0  0  0
   37.9850   23.0430   32.7520 H   0  0  0  0  0  0  0  0  0  0  0  0
   38.0220   21.0890   34.1940 H   0  0  0  0  0  0  0  0  0  0  0  0
   38.2630   23.7090   37.9250 C   0  0  0  0  0  0  0  0  0  0  0  0
   38.0510   25.0450   38.1760 F   0  0  0  0  0  0  0  0  0  0  0  0
   37.2980   22.9360   38.5880 F   0  0  0  0  0  0  0  0  0  0  0  0
   39.4660   23.3660   38.4310 F   0  0  0  0  0  0  0  0  0  0  0  0
   35.9610   28.6260   33.4390 C   0  0  0  0  0  0  0  0  0  0  0  0
   35.8290   29.4170   34.6430 C   0  0  0  0  0  0  0  0  0  0  0  0
   36.8390   29.2030   35.3140 H   0  0  0  0  0  0  0  0  0  0  0  0
   34.1870   30.2350   34.3450 S   0  0  0  0  0  0  0  0  0  0  0  0
   33.9930   29.3620   32.6690 C   0  0  0  0  0  0  0  0  0  0  0  0
   33.0620   29.6480   32.2010 H   0  0  0  0  0  0  0  0  0  0  0  0
   34.9980   28.6650   32.5210 N   0  0  0  0  0  0  0  0  0  0  0  0
  1  6  2  0  0  0  0
  1  2  1  0  0  0  0
  2  3  2  0  0  0  0
  3  4  1  0  0  0  0
  3  9  1  0  0  0  0
  5 21  1  0  0  0  0
  5  4  2  0  0  0  0
  6  5  1  0  0  0  0
  7  1  1  0  0  0  0
  8  2  1  0  0  0  0
  9 14  1  0  0  0  0
 10  9  2  0  0  0  0
 10 11  1  0  0  0  0
 11 12  2  0  0  0  0
 12 13  1  0  0  0  0
 13 17  1  0  0  0  0
 14 13  2  0  0  0  0
 15 10  1  0  0  0  0
 16 11  1  0  0  0  0
 17 18  1  0  0  0  0
 17 20  1  0  0  0  0
 17 19  1  0  0  0  0
 21 22  2  0  0  0  0
 22 23  1  0  0  0  0
 24 22  1  0  0  0  0
 25 24  1  0  0  0  0
 26 25  1  0  0  0  0
 27 25  2  0  0  0  0
 27 21  1  0  0  0  0
M  END
>  <minimizedAffinity>
-5.25731611

$$$$

 OpenBabel03272502243D

 27 29  0  0  0  0  0  0  0  0999 V2000
   41.5890   26.9850   33.7230 C   0  0  0  0  0  0  0  0  0  0  0  0
   41.0280   25.9640   34.4890 C   0  0  0  0  0  0  0  0  0  0  0  0
   39.7570   25.5230   34.2000 C   0  0  0  0  0  0  0  0  0  0  0  0
   39.1180   26.1190   33.1690 N   0  0  0  0  0  0  0  0  0  0  0  0
   39.6640   27.1000   32.4370 C   0  0  0  0  0  0  0  0  0  0  0  0
   40.9060   27.5300   32.7220 N   0  0  0  0  0  0  0  0  0  0  0  0
   42.5890   27.3260   33.9590 H   0  0  0  0  0  0  0  0  0  0  0  0
   41.5370   25.4830   35.3160 H   0  0  0  0  0  0  0  0  0  0  0  0
   39.0460   24.4600   34.9240 C   0  0  0  0  0  0  0  0  0  0  0  0
   38.4870   23.3830   34.2950 C   0  0  0  0  0  0  0  0  0  0  0  0
   37.8190   22.3930   34.9930 C   0  0  0  0  0  0  0  0  0  0  0  0
   37.7060   22.4700   36.3290 N   0  0  0  0  0  0  0  0  0  0  0  0
   38.2580   23.5270   36.9290 C   0  0  0  0  0  0  0  0  0  0  0  0
   38.9090   24.4990   36.2740 N   0  0  0  0  0  0  0  0  0  0  0  0
   38.5810   23.3270   33.2190 H   0  0  0  0  0  0  0  0  0  0  0  0
   37.4050   21.5750   34.4190 H   0  0  0  0  0  0  0  0  0  0  0  0
   38.1560   23.6530   38.4140 C   0  0  0  0  0  0  0  0  0  0  0  0
   37.2550   22.7210   38.8750 F   0  0  0  0  0  0  0  0  0  0  0  0
   39.4110   23.4430   39.0050 F   0  0  0  0  0  0  0  0  0  0  0  0
   37.7350   24.8780   38.7950 F   0  0  0  0  0  0  0  0  0  0  0  0
   38.7940   27.6180   31.3530 C   0  0  0  0  0  0  0  0  0  0  0  0
   39.1120   28.2890   30.1120 C   0  0  0  0  0  0  0  0  0  0  0  0
   40.3390   28.3830   30.0700 H   0  0  0  0  0  0  0  0  0  0  0  0
   37.4100   28.5560   29.4140 S   0  0  0  0  0  0  0  0  0  0  0  0
   36.6020   27.7190   30.9150 C   0  0  0  0  0  0  0  0  0  0  0  0
   35.5270   27.7120   30.8090 H   0  0  0  0  0  0  0  0  0  0  0  0
   37.5220   27.3810   31.6620 N   0  0  0  0  0  0  0  0  0  0  0  0
  1  7  1  0  0  0  0
  1  2  1  0  0  0  0
  2  8  1  0  0  0  0
  3  2  2  0  0  0  0
  3  9  1  0  0  0  0
  4  3  1  0  0  0  0
  5  6  1  0  0  0  0
  5  4  2  0  0  0  0
  6  1  2  0  0  0  0
  9 14  1  0  0  0  0
 10  9  2  0  0  0  0
 10 11  1  0  0  0  0
 11 12  2  0  0  0  0
 12 13  1  0  0  0  0
 13 17  1  0  0  0  0
 14 13  2  0  0  0  0
 15 10  1  0  0  0  0
 16 11  1  0  0  0  0
 17 20  1  0  0  0  0
 17 18  1  0  0  0  0
 17 19  1  0  0  0  0
 21 27  1  0  0  0  0
 21  5  1  0  0  0  0
 22 21  2  0  0  0  0
 23 22  1  0  0  0  0
 24 22  1  0  0  0  0
 24 25  1  0  0  0  0
 25 27  2  0  0  0  0
 26 25  1  0  0  0  0
M  END
>  <minimizedAffinity>
-5.1487875

$$$$

 OpenBabel03272502243D

 27 29  0  0  0  0  0  0  0  0999 V2000
   40.0570   27.2270   33.5490 C   0  0  0  0  0  0  0  0  0  0  0  0
   40.3180   26.3490   34.5990 C   0  0  0  0  0  0  0  0  0  0  0  0
   39.4660   25.2920   34.8240 C   0  0  0  0  0  0  0  0  0  0  0  0
   38.4060   25.1680   33.9940 N   0  0  0  0  0  0  0  0  0  0  0  0
   38.1620   26.0160   32.9860 C   0  0  0  0  0  0  0  0  0  0  0  0
   38.9950   27.0500   32.7690 N   0  0  0  0  0  0  0  0  0  0  0  0
   40.7320   28.0570   33.3800 H   0  0  0  0  0  0  0  0  0  0  0  0
   41.1660   26.4450   35.2670 H   0  0  0  0  0  0  0  0  0  0  0  0
   39.6190   24.2950   35.8930 C   0  0  0  0  0  0  0  0  0  0  0  0
   38.6980   24.1310   36.8880 C   0  0  0  0  0  0  0  0  0  0  0  0
   38.8590   23.1880   37.8870 C   0  0  0  0  0  0  0  0  0  0  0  0
   39.9460   22.3970   37.8980 N   0  0  0  0  0  0  0  0  0  0  0  0
   40.8370   22.5700   36.9190 C   0  0  0  0  0  0  0  0  0  0  0  0
   40.7010   23.4770   35.9410 N   0  0  0  0  0  0  0  0  0  0  0  0
   37.8250   24.7700   36.8730 H   0  0  0  0  0  0  0  0  0  0  0  0
   38.0830   23.1220   38.6380 H   0  0  0  0  0  0  0  0  0  0  0  0
   42.0600   21.7130   36.8930 C   0  0  0  0  0  0  0  0  0  0  0  0
   42.0920   20.9540   38.0400 F   0  0  0  0  0  0  0  0  0  0  0  0
   42.0420   20.8780   35.7650 F   0  0  0  0  0  0  0  0  0  0  0  0
   43.1940   22.4430   36.8320 F   0  0  0  0  0  0  0  0  0  0  0  0
   36.9460   25.7020   32.1960 C   0  0  0  0  0  0  0  0  0  0  0  0
   35.9800   26.5600   31.5480 C   0  0  0  0  0  0  0  0  0  0  0  0
   36.3400   27.7180   31.7640 H   0  0  0  0  0  0  0  0  0  0  0  0
   34.8280   25.2990   30.8170 S   0  0  0  0  0  0  0  0  0  0  0  0
   35.8610   23.8670   31.5170 C   0  0  0  0  0  0  0  0  0  0  0  0
   35.4210   22.9180   31.2470 H   0  0  0  0  0  0  0  0  0  0  0  0
   36.8020   24.3810   32.1240 N   0  0  0  0  0  0  0  0  0  0  0  0
  1  2  1  0  0  0  0
  2  3  2  0  0  0  0
  2  8  1  0  0  0  0
  3  9  1  0  0  0  0
  4  3  1  0  0  0  0
  5  4  2  0  0  0  0
  6  5  1  0  0  0  0
  6  1  2  0  0  0  0
  7  1  1  0  0  0  0
  9 14  2  0  0  0  0
  9 10  1  0  0  0  0
 10 11  2  0  0  0  0
 11 12  1  0  0  0  0
 11 16  1  0  0  0  0
 13 12  2  0  0  0  0
 14 13  1  0  0  0  0
 15 10  1  0  0  0  0
 17 13  1  0  0  0  0
 17 18  1  0  0  0  0
 19 17  1  0  0  0  0
 20 17  1  0  0  0  0
 21  5  1  0  0  0  0
 22 23  1  0  0  0  0
 22 21  2  0  0  0  0
 24 25  1  0  0  0  0
 24 22  1  0  0  0  0
 25 27  2  0  0  0  0
 26 25  1  0  0  0  0
 27 21  1  0  0  0  0
M  END
>  <minimizedAffinity>
-5.09933662

$$$$
