
 OpenBabel03272501493D

 18 19  0  0  0  0  0  0  0  0999 V2000
   37.4080   30.2970   51.3070 C   0  0  0  0  0  0  0  0  0  0  0  0
   38.1070   30.8570   50.2110 C   0  0  0  0  0  0  0  0  0  0  0  0
   37.6730   30.5150   48.9240 C   0  0  0  0  0  0  0  0  0  0  0  0
   36.6110   29.6700   48.8160 N   0  0  0  0  0  0  0  0  0  0  0  0
   35.9770   29.1620   49.8770 C   0  0  0  0  0  0  0  0  0  0  0  0
   36.3680   29.4690   51.1290 N   0  0  0  0  0  0  0  0  0  0  0  0
   34.8960   28.3020   49.5760 N   0  0  0  0  0  0  0  0  0  0  0  0
   37.7580   30.5730   52.2930 H   0  0  0  0  0  0  0  0  0  0  0  0
   38.9490   31.5270   50.3200 H   0  0  0  0  0  0  0  0  0  0  0  0
   34.7760   27.2960   49.8010 H   0  0  0  0  0  0  0  0  0  0  0  0
   33.9870   28.4370   49.0810 H   0  0  0  0  0  0  0  0  0  0  0  0
   38.3600   31.0650   47.7660 C   0  0  0  0  0  0  0  0  0  0  0  0
   38.8850   32.4320   47.8300 C   0  0  0  0  0  0  0  0  0  0  0  0
   38.8200   33.1140   48.6760 H   0  0  0  0  0  0  0  0  0  0  0  0
   39.6380   32.6880   46.2100 S   0  0  0  0  0  0  0  0  0  0  0  0
   39.1430   30.9320   45.6800 C   0  0  0  0  0  0  0  0  0  0  0  0
   39.2210   30.1640   44.7150 H   0  0  0  0  0  0  0  0  0  0  0  0
   38.6130   30.5250   46.5920 N   0  0  0  0  0  0  0  0  0  0  0  0
  1  8  1  0  0  0  0
  2  9  1  0  0  0  0
  2  1  2  0  0  0  0
  3  2  1  0  0  0  0
  4  3  2  0  0  0  0
  4  5  1  0  0  0  0
  5  6  2  0  0  0  0
  6  1  1  0  0  0  0
  7 10  1  0  0  0  0
  7  5  1  0  0  0  0
 11  7  1  0  0  0  0
 12 13  2  0  0  0  0
 12  3  1  0  0  0  0
 13 14  1  0  0  0  0
 15 13  1  0  0  0  0
 16 15  1  0  0  0  0
 16 18  2  0  0  0  0
 17 16  1  0  0  0  0
 18 12  1  0  0  0  0
M  END
>  <minimizedAffinity>
-4.61097431

>  <minimizedRMSD>
0.702281117

$$$$
