
 OpenBabel03272505493D

 38 42  0  0  0  0  0  0  0  0999 V2000
   36.3140   30.3860   46.0110 C   0  0  0  0  0  0  0  0  0  0  0  0
   36.8410   30.7840   47.2030 C   0  0  0  0  0  0  0  0  0  0  0  0
   36.1940   30.4730   48.3960 C   0  0  0  0  0  0  0  0  0  0  0  0
   35.0090   29.7530   48.3350 C   0  0  0  0  0  0  0  0  0  0  0  0
   34.4740   29.3480   47.1120 C   0  0  0  0  0  0  0  0  0  0  0  0
   35.1570   29.6870   45.9990 N   0  0  0  0  0  0  0  0  0  0  0  0
   37.7580   31.3430   47.2670 H   0  0  0  0  0  0  0  0  0  0  0  0
   36.5920   30.7770   49.3550 H   0  0  0  0  0  0  0  0  0  0  0  0
   34.4570   29.4770   49.2170 H   0  0  0  0  0  0  0  0  0  0  0  0
   37.0000   30.7150   44.7080 C   0  0  0  0  0  0  0  0  0  0  0  0
   36.7220   29.8610   43.5390 C   0  0  0  0  0  0  0  0  0  0  0  0
   36.1560   31.2640   43.6040 C   0  0  0  0  0  0  0  0  0  0  0  0
   37.5540   29.6980   42.7980 H   0  0  0  0  0  0  0  0  0  0  0  0
   36.0560   28.9900   43.6570 H   0  0  0  0  0  0  0  0  0  0  0  0
   35.0540   31.2790   43.7750 H   0  0  0  0  0  0  0  0  0  0  0  0
   36.5660   31.9890   42.8970 H   0  0  0  0  0  0  0  0  0  0  0  0
   39.6690   33.2650   44.9910 C   0  0  0  0  0  0  0  0  0  0  0  0
   40.7870   32.4830   45.3660 C   0  0  0  0  0  0  0  0  0  0  0  0
   40.6140   31.0920   45.5160 C   0  0  0  0  0  0  0  0  0  0  0  0
   39.3830   30.5690   45.2950 N   0  0  0  0  0  0  0  0  0  0  0  0
   38.3240   31.3500   44.9360 C   0  0  0  0  0  0  0  0  0  0  0  0
   38.4650   32.6770   44.7870 N   0  0  0  0  0  0  0  0  0  0  0  0
   39.7870   34.3340   44.8720 H   0  0  0  0  0  0  0  0  0  0  0  0
   41.7590   32.9310   45.5340 H   0  0  0  0  0  0  0  0  0  0  0  0
   41.4570   30.4780   45.8000 H   0  0  0  0  0  0  0  0  0  0  0  0
   33.2380   28.5910   46.9820 C   0  0  0  0  0  0  0  0  0  0  0  0
   32.7220   27.8850   45.9480 N   0  0  0  0  0  0  0  0  0  0  0  0
   31.5290   27.3540   46.3200 C   0  0  0  0  0  0  0  0  0  0  0  0
   31.2960   27.7300   47.5940 N   0  0  0  0  0  0  0  0  0  0  0  0
   32.3240   28.4800   48.0040 N   0  0  0  0  0  0  0  0  0  0  0  0
   30.8120   26.7480   45.8210 H   0  0  0  0  0  0  0  0  0  0  0  0
   30.2450   27.5130   48.5500 C   0  0  0  0  0  0  0  0  0  0  0  0
   29.0630   27.2440   47.8400 C   0  0  0  0  0  0  0  0  0  0  0  0
   28.6040   27.1300   46.8360 H   0  0  0  0  0  0  0  0  0  0  0  0
   27.7570   26.9760   49.1920 S   0  0  0  0  0  0  0  0  0  0  0  0
   29.1400   27.2960   50.4850 C   0  0  0  0  0  0  0  0  0  0  0  0
   29.5420   27.4010   51.6840 H   0  0  0  0  0  0  0  0  0  0  0  0
   30.0410   27.4860   49.8480 N   0  0  0  0  0  0  0  0  0  0  0  0
  1  2  1  0  0  0  0
  2  7  1  0  0  0  0
  2  3  2  0  0  0  0
  3  8  1  0  0  0  0
  4  3  1  0  0  0  0
  4  9  1  0  0  0  0
  5  4  2  0  0  0  0
  6  1  2  0  0  0  0
  6  5  1  0  0  0  0
 10 21  1  0  0  0  0
 10  1  1  0  0  0  0
 11 12  1  0  0  0  0
 11 14  1  0  0  0  0
 11 10  1  0  0  0  0
 12 15  1  0  0  0  0
 12 10  1  0  0  0  0
 13 11  1  0  0  0  0
 16 12  1  0  0  0  0
 17 18  1  0  0  0  0
 18 19  2  0  0  0  0
 18 24  1  0  0  0  0
 19 25  1  0  0  0  0
 20 19  1  0  0  0  0
 21 20  2  0  0  0  0
 22 21  1  0  0  0  0
 22 17  2  0  0  0  0
 23 17  1  0  0  0  0
 26  5  1  0  0  0  0
 26 30  2  0  0  0  0
 27 28  2  0  0  0  0
 27 26  1  0  0  0  0
 28 29  1  0  0  0  0
 29 30  1  0  0  0  0
 29 32  1  0  0  0  0
 31 28  1  0  0  0  0
 32 38  1  0  0  0  0
 33 32  2  0  0  0  0
 33 35  1  0  0  0  0
 34 33  1  0  0  0  0
 35 36  1  0  0  0  0
 36 37  1  0  0  0  0
 38 36  2  0  0  0  0
M  END
>  <minimizedAffinity>
-5.7287631

>  <minimizedRMSD>
1.0083344

$$$$
