
 OpenBabel03272509263D

 23 24  0  0  0  0  0  0  0  0999 V2000
   36.6130   30.6170   47.5710 C   0  0  0  0  0  0  0  0  0  0  0  0
   36.1280   29.9970   46.7780 H   0  0  0  0  0  0  0  0  0  0  0  0
   36.2910   31.6640   47.4400 H   0  0  0  0  0  0  0  0  0  0  0  0
   36.6070   29.5530   51.1870 C   0  0  0  0  0  0  0  0  0  0  0  0
   37.0790   30.0080   49.9680 C   0  0  0  0  0  0  0  0  0  0  0  0
   36.2180   30.1480   48.9070 C   0  0  0  0  0  0  0  0  0  0  0  0
   34.9090   29.8210   49.1220 N   0  0  0  0  0  0  0  0  0  0  0  0
   34.4710   29.3810   50.3140 C   0  0  0  0  0  0  0  0  0  0  0  0
   35.3070   29.2410   51.3570 N   0  0  0  0  0  0  0  0  0  0  0  0
   37.2320   29.4210   52.0610 H   0  0  0  0  0  0  0  0  0  0  0  0
   38.1260   30.2510   49.8580 H   0  0  0  0  0  0  0  0  0  0  0  0
   33.3910   29.1610   50.3210 H   0  0  0  0  0  0  0  0  0  0  0  0
   38.1110   30.5700   47.3930 C   0  0  0  0  0  0  0  0  0  0  0  0
   38.2850   30.0930   46.3800 H   0  0  0  0  0  0  0  0  0  0  0  0
   38.6450   29.9310   48.0910 H   0  0  0  0  0  0  0  0  0  0  0  0
   38.7870   32.2580   47.2770 S   0  0  0  0  0  0  0  0  0  0  0  0
   39.0460   32.6580   45.5310 C   0  0  0  0  0  0  0  0  0  0  0  0
   38.2420   32.0940   44.5980 C   0  0  0  0  0  0  0  0  0  0  0  0
   37.4130   31.4010   44.6830 H   0  0  0  0  0  0  0  0  0  0  0  0
   38.8940   32.8010   43.0160 S   0  0  0  0  0  0  0  0  0  0  0  0
   40.2130   33.7840   44.0020 C   0  0  0  0  0  0  0  0  0  0  0  0
   40.9580   34.4480   43.5560 H   0  0  0  0  0  0  0  0  0  0  0  0
   39.9660   33.4690   45.0550 N   0  0  0  0  0  0  0  0  0  0  0  0
  1  6  1  0  0  0  0
  2  1  1  0  0  0  0
  3  1  1  0  0  0  0
  4  9  1  0  0  0  0
  4 10  1  0  0  0  0
  5  4  2  0  0  0  0
  6  7  2  0  0  0  0
  6  5  1  0  0  0  0
  7  8  1  0  0  0  0
  8 12  1  0  0  0  0
  8  9  2  0  0  0  0
 11  5  1  0  0  0  0
 13  1  1  0  0  0  0
 13 15  1  0  0  0  0
 14 13  1  0  0  0  0
 16 13  1  0  0  0  0
 17 16  1  0  0  0  0
 18 19  1  0  0  0  0
 18 17  2  0  0  0  0
 20 21  1  0  0  0  0
 20 18  1  0  0  0  0
 21 23  2  0  0  0  0
 22 21  1  0  0  0  0
 23 17  1  0  0  0  0
M  END
>  <minimizedAffinity>
-3.97163844

>  <minimizedRMSD>
3.72985244

$$$$
