
 OpenBabel03272509353D

 45 49  0  0  1  0  0  0  0  0999 V2000
   36.9580   29.8590   43.1580 C   0  0  1  0  0  0  0  0  0  0  0  0
   38.1070   30.5670   43.7830 C   0  0  0  0  0  0  0  0  0  0  0  0
   38.3050   29.1420   43.6230 C   0  0  2  0  0  0  0  0  0  0  0  0
   36.8130   29.7170   42.0980 H   0  0  0  0  0  0  0  0  0  0  0  0
   38.3890   31.4100   43.1550 H   0  0  0  0  0  0  0  0  0  0  0  0
   37.8730   30.9700   44.8380 H   0  0  0  0  0  0  0  0  0  0  0  0
   38.0210   28.3320   44.2850 H   0  0  0  0  0  0  0  0  0  0  0  0
   39.3050   28.8450   42.5420 C   0  0  0  0  0  0  0  0  0  0  0  0
   40.3510   29.7820   42.5920 C   0  0  0  0  0  0  0  0  0  0  0  0
   41.4340   29.6420   41.7620 C   0  0  0  0  0  0  0  0  0  0  0  0
   41.5290   28.5750   40.8570 C   0  0  0  0  0  0  0  0  0  0  0  0
   40.4770   27.6700   40.8380 C   0  0  0  0  0  0  0  0  0  0  0  0
   40.4350   26.5930   39.9960 C   0  0  0  0  0  0  0  0  0  0  0  0
   39.3970   25.6960   39.9580 C   0  0  0  0  0  0  0  0  0  0  0  0
   38.3320   25.8820   40.8120 C   0  0  0  0  0  0  0  0  0  0  0  0
   38.3630   26.9660   41.6650 C   0  0  0  0  0  0  0  0  0  0  0  0
   39.4290   27.8450   41.6690 C   0  0  0  0  0  0  0  0  0  0  0  0
   40.5840   30.6620   43.1550 H   0  0  0  0  0  0  0  0  0  0  0  0
   42.3180   30.2500   41.6580 H   0  0  0  0  0  0  0  0  0  0  0  0
   42.3220   28.3510   40.1530 H   0  0  0  0  0  0  0  0  0  0  0  0
   41.2540   26.4060   39.3050 H   0  0  0  0  0  0  0  0  0  0  0  0
   39.4070   24.8530   39.2720 H   0  0  0  0  0  0  0  0  0  0  0  0
   37.4830   25.2190   40.8370 H   0  0  0  0  0  0  0  0  0  0  0  0
   37.5000   27.0990   42.3420 H   0  0  0  0  0  0  0  0  0  0  0  0
   33.6760   28.4910   44.4150 C   0  0  0  0  0  0  0  0  0  0  0  0
   34.7670   28.7980   43.5420 C   0  0  0  0  0  0  0  0  0  0  0  0
   35.8170   29.5120   44.0410 C   0  0  0  0  0  0  0  0  0  0  0  0
   35.7350   29.8820   45.3680 N   0  0  0  0  0  0  0  0  0  0  0  0
   34.7100   29.5850   46.1710 C   0  0  0  0  0  0  0  0  0  0  0  0
   33.6640   28.8850   45.7080 N   0  0  0  0  0  0  0  0  0  0  0  0
   32.8860   27.9240   43.9440 H   0  0  0  0  0  0  0  0  0  0  0  0
   34.7730   28.4860   42.5250 H   0  0  0  0  0  0  0  0  0  0  0  0
   34.7760   30.0570   47.5980 C   0  0  0  0  0  0  0  0  0  0  0  0
   33.9530   30.7200   47.8490 H   0  0  0  0  0  0  0  0  0  0  0  0
   34.7970   29.1360   48.2380 H   0  0  0  0  0  0  0  0  0  0  0  0
   36.1370   30.7480   47.7790 C   0  0  0  0  0  0  0  0  0  0  0  0
   35.9440   31.8550   47.6540 H   0  0  0  0  0  0  0  0  0  0  0  0
   36.8110   30.4880   46.9650 H   0  0  0  0  0  0  0  0  0  0  0  0
   36.6770   30.4840   49.1460 C   0  0  0  0  0  0  0  0  0  0  0  0
   35.9760   29.6440   50.1010 C   0  0  0  0  0  0  0  0  0  0  0  0
   35.0490   29.1830   49.8570 H   0  0  0  0  0  0  0  0  0  0  0  0
   37.1040   29.7220   51.5130 S   0  0  0  0  0  0  0  0  0  0  0  0
   38.3350   30.8680   50.5980 C   0  0  0  0  0  0  0  0  0  0  0  0
   39.2740   31.2610   51.0140 H   0  0  0  0  0  0  0  0  0  0  0  0
   37.8240   31.0560   49.4430 N   0  0  0  0  0  0  0  0  0  0  0  0
  1  4  1  6  0  0  0
  1  3  1  0  0  0  0
  1  2  1  0  0  0  0
  1 27  1  0  0  0  0
  2  6  1  0  0  0  0
  3  2  1  0  0  0  0
  3  7  1  1  0  0  0
  5  2  1  0  0  0  0
  8  9  1  0  0  0  0
  8  3  1  0  0  0  0
  9 18  1  0  0  0  0
 10  9  2  0  0  0  0
 11 10  1  0  0  0  0
 12 11  2  0  0  0  0
 12 17  1  0  0  0  0
 13 12  1  0  0  0  0
 14 13  2  0  0  0  0
 14 15  1  0  0  0  0
 15 23  1  0  0  0  0
 15 16  2  0  0  0  0
 16 17  1  0  0  0  0
 16 24  1  0  0  0  0
 17  8  2  0  0  0  0
 19 10  1  0  0  0  0
 20 11  1  0  0  0  0
 21 13  1  0  0  0  0
 22 14  1  0  0  0  0
 25 30  1  0  0  0  0
 26 27  1  0  0  0  0
 26 25  2  0  0  0  0
 27 28  2  0  0  0  0
 28 29  1  0  0  0  0
 29 33  1  0  0  0  0
 30 29  2  0  0  0  0
 31 25  1  0  0  0  0
 32 26  1  0  0  0  0
 33 36  1  0  0  0  0
 33 34  1  0  0  0  0
 33 35  1  0  0  0  0
 36 39  1  0  0  0  0
 37 36  1  0  0  0  0
 38 36  1  0  0  0  0
 39 45  1  0  0  0  0
 39 40  2  0  0  0  0
 40 42  1  0  0  0  0
 41 40  1  0  0  0  0
 43 44  1  0  0  0  0
 43 42  1  0  0  0  0
 45 43  2  0  0  0  0
M  END
>  <minimizedAffinity>
-4.66021347

>  <minimizedRMSD>
4.4547472

$$$$
