
 OpenBabel03272510243D

 30 33  0  0  0  0  0  0  0  0999 V2000
   36.1050   30.1640   46.9310 C   0  0  0  0  0  0  0  0  0  0  0  0
   36.9740   30.6960   47.8630 C   0  0  0  0  0  0  0  0  0  0  0  0
   37.9650   31.5620   47.4620 C   0  0  0  0  0  0  0  0  0  0  0  0
   38.0340   31.8610   46.1000 C   0  0  0  0  0  0  0  0  0  0  0  0
   38.9340   32.6930   45.4820 N   0  0  0  0  0  0  0  0  0  0  0  0
   38.6220   32.6730   44.1910 C   0  0  0  0  0  0  0  0  0  0  0  0
   37.5760   31.8760   43.9570 N   0  0  0  0  0  0  0  0  0  0  0  0
   37.1770   31.3450   45.1390 C   0  0  0  0  0  0  0  0  0  0  0  0
   36.1910   30.4750   45.5830 C   0  0  0  0  0  0  0  0  0  0  0  0
   35.3080   29.4780   47.1970 H   0  0  0  0  0  0  0  0  0  0  0  0
   38.6510   31.9890   48.1570 H   0  0  0  0  0  0  0  0  0  0  0  0
   39.7170   33.2400   45.9380 H   0  0  0  0  0  0  0  0  0  0  0  0
   35.5340   30.0800   44.8330 H   0  0  0  0  0  0  0  0  0  0  0  0
   37.4360   30.1430   51.5500 C   0  0  0  0  0  0  0  0  0  0  0  0
   37.7270   30.5690   50.2580 C   0  0  0  0  0  0  0  0  0  0  0  0
   36.8030   30.3110   49.2520 C   0  0  0  0  0  0  0  0  0  0  0  0
   35.6450   29.6470   49.5830 N   0  0  0  0  0  0  0  0  0  0  0  0
   35.3940   29.2470   50.8540 C   0  0  0  0  0  0  0  0  0  0  0  0
   36.2760   29.4910   51.8210 N   0  0  0  0  0  0  0  0  0  0  0  0
   38.2270   30.4000   52.2400 H   0  0  0  0  0  0  0  0  0  0  0  0
   38.6190   31.0890   49.9630 H   0  0  0  0  0  0  0  0  0  0  0  0
   34.4760   28.7320   51.0650 H   0  0  0  0  0  0  0  0  0  0  0  0
   39.3230   33.4050   43.2360 O   0  0  0  0  0  0  0  0  0  0  0  0
   39.0650   33.2290   41.8820 C   0  0  0  0  0  0  0  0  0  0  0  0
   39.5850   32.0230   41.2900 C   0  0  0  0  0  0  0  0  0  0  0  0
   40.1450   31.2300   41.7290 H   0  0  0  0  0  0  0  0  0  0  0  0
   39.0090   32.2110   39.4970 S   0  0  0  0  0  0  0  0  0  0  0  0
   38.1940   33.8690   39.9310 C   0  0  0  0  0  0  0  0  0  0  0  0
   37.5780   34.6950   39.3500 H   0  0  0  0  0  0  0  0  0  0  0  0
   38.4000   34.0190   41.0350 N   0  0  0  0  0  0  0  0  0  0  0  0
  1 10  1  0  0  0  0
  1  2  1  0  0  0  0
  2 16  1  0  0  0  0
  3  2  2  0  0  0  0
  3 11  1  0  0  0  0
  4  3  1  0  0  0  0
  5 12  1  0  0  0  0
  5  4  1  0  0  0  0
  6  5  1  0  0  0  0
  7  6  2  0  0  0  0
  7  8  1  0  0  0  0
  8  9  1  0  0  0  0
  8  4  2  0  0  0  0
  9  1  2  0  0  0  0
 13  9  1  0  0  0  0
 14 19  1  0  0  0  0
 14 20  1  0  0  0  0
 15 14  2  0  0  0  0
 16 17  2  0  0  0  0
 16 15  1  0  0  0  0
 17 18  1  0  0  0  0
 18 22  1  0  0  0  0
 18 19  2  0  0  0  0
 21 15  1  0  0  0  0
 23  6  1  0  0  0  0
 24 23  1  0  0  0  0
 25 26  1  0  0  0  0
 25 24  2  0  0  0  0
 27 28  1  0  0  0  0
 27 25  1  0  0  0  0
 28 30  2  0  0  0  0
 29 28  1  0  0  0  0
 30 24  1  0  0  0  0
M  END
>  <minimizedAffinity>
-5.5243659

>  <minimizedRMSD>
1.38874936

$$$$
