
 OpenBabel03272509263D

 23 24  0  0  0  0  0  0  0  0999 V2000
   35.4570   30.1380   46.9900 C   0  0  0  0  0  0  0  0  0  0  0  0
   35.2480   29.2580   46.3340 H   0  0  0  0  0  0  0  0  0  0  0  0
   34.7590   30.9480   46.7180 H   0  0  0  0  0  0  0  0  0  0  0  0
   35.7310   28.5620   50.4030 C   0  0  0  0  0  0  0  0  0  0  0  0
   35.9890   28.8220   49.0680 C   0  0  0  0  0  0  0  0  0  0  0  0
   35.2680   29.7850   48.4050 C   0  0  0  0  0  0  0  0  0  0  0  0
   34.3120   30.4480   49.1190 N   0  0  0  0  0  0  0  0  0  0  0  0
   34.0770   30.1790   50.4160 C   0  0  0  0  0  0  0  0  0  0  0  0
   34.7780   29.2390   51.0710 N   0  0  0  0  0  0  0  0  0  0  0  0
   36.2620   27.8170   50.9820 H   0  0  0  0  0  0  0  0  0  0  0  0
   36.7590   28.2640   48.5540 H   0  0  0  0  0  0  0  0  0  0  0  0
   33.2750   30.8010   50.8450 H   0  0  0  0  0  0  0  0  0  0  0  0
   36.8590   30.6310   46.7280 C   0  0  0  0  0  0  0  0  0  0  0  0
   36.7420   31.5800   46.1190 H   0  0  0  0  0  0  0  0  0  0  0  0
   37.4750   29.9840   46.1080 H   0  0  0  0  0  0  0  0  0  0  0  0
   37.6570   31.1300   48.2890 S   0  0  0  0  0  0  0  0  0  0  0  0
   38.7700   32.5160   47.9500 C   0  0  0  0  0  0  0  0  0  0  0  0
   38.9700   33.4520   48.9070 C   0  0  0  0  0  0  0  0  0  0  0  0
   38.5730   33.5540   49.9110 H   0  0  0  0  0  0  0  0  0  0  0  0
   40.1530   34.6210   48.0960 S   0  0  0  0  0  0  0  0  0  0  0  0
   40.1390   33.5330   46.5150 C   0  0  0  0  0  0  0  0  0  0  0  0
   40.7090   33.7460   45.6070 H   0  0  0  0  0  0  0  0  0  0  0  0
   39.4300   32.7170   46.8280 N   0  0  0  0  0  0  0  0  0  0  0  0
  1  6  1  0  0  0  0
  2  1  1  0  0  0  0
  3  1  1  0  0  0  0
  4 10  1  0  0  0  0
  4  9  1  0  0  0  0
  5  4  2  0  0  0  0
  6  5  1  0  0  0  0
  6  7  2  0  0  0  0
  7  8  1  0  0  0  0
  8 12  1  0  0  0  0
  8  9  2  0  0  0  0
 11  5  1  0  0  0  0
 13  1  1  0  0  0  0
 13 16  1  0  0  0  0
 14 13  1  0  0  0  0
 15 13  1  0  0  0  0
 17 16  1  0  0  0  0
 17 18  2  0  0  0  0
 18 19  1  0  0  0  0
 20 18  1  0  0  0  0
 21 23  2  0  0  0  0
 21 20  1  0  0  0  0
 22 21  1  0  0  0  0
 23 17  1  0  0  0  0
M  END
>  <minimizedAffinity>
-2.64042664

>  <minimizedRMSD>
2.40670395

$$$$
