
 OpenBabel03272506413D

 17 18  0  0  0  0  0  0  0  0999 V2000
   37.2150   30.3070   51.3300 C   0  0  0  0  0  0  0  0  0  0  0  0
   38.1140   30.8240   50.3790 C   0  0  0  0  0  0  0  0  0  0  0  0
   37.9020   30.4920   49.0380 C   0  0  0  0  0  0  0  0  0  0  0  0
   36.8440   29.6920   48.7310 N   0  0  0  0  0  0  0  0  0  0  0  0
   36.0030   29.2160   49.6750 C   0  0  0  0  0  0  0  0  0  0  0  0
   36.1740   29.5120   50.9660 N   0  0  0  0  0  0  0  0  0  0  0  0
   37.3310   30.5330   52.3940 H   0  0  0  0  0  0  0  0  0  0  0  0
   38.9140   31.4420   50.7090 H   0  0  0  0  0  0  0  0  0  0  0  0
   38.5810   30.8770   48.2840 H   0  0  0  0  0  0  0  0  0  0  0  0
   34.6190   28.1690   49.2560 S   0  0  0  0  0  0  0  0  0  0  0  0
   33.6790   28.8920   47.8910 C   0  0  0  0  0  0  0  0  0  0  0  0
   34.1090   30.2140   47.4790 C   0  0  0  0  0  0  0  0  0  0  0  0
   34.8720   30.8390   47.8290 H   0  0  0  0  0  0  0  0  0  0  0  0
   32.8650   30.5160   46.0820 S   0  0  0  0  0  0  0  0  0  0  0  0
   32.0530   28.8230   46.3550 C   0  0  0  0  0  0  0  0  0  0  0  0
   31.2190   28.4670   45.7670 H   0  0  0  0  0  0  0  0  0  0  0  0
   32.6670   28.3400   47.2540 N   0  0  0  0  0  0  0  0  0  0  0  0
  1  7  1  0  0  0  0
  2  8  1  0  0  0  0
  2  1  2  0  0  0  0
  3  2  1  0  0  0  0
  4  3  2  0  0  0  0
  4  5  1  0  0  0  0
  5  6  2  0  0  0  0
  6  1  1  0  0  0  0
  9  3  1  0  0  0  0
 10  5  1  0  0  0  0
 11 10  1  0  0  0  0
 12 13  1  0  0  0  0
 12 11  2  0  0  0  0
 14 15  1  0  0  0  0
 14 12  1  0  0  0  0
 15 17  2  0  0  0  0
 16 15  1  0  0  0  0
 17 11  1  0  0  0  0
M  END
>  <minimizedAffinity>
-3.82519221

>  <minimizedRMSD>
1.32973158

$$$$
