
 OpenBabel03272500093D

 37 40  0  0  0  0  0  0  0  0999 V2000
   37.9530   23.9920   33.2640 C   0  0  0  0  0  0  0  0  0  0  0  0
   38.4030   24.5520   34.4830 C   0  0  0  0  0  0  0  0  0  0  0  0
   37.9670   25.8470   34.8030 C   0  0  0  0  0  0  0  0  0  0  0  0
   37.1440   26.4920   33.9370 N   0  0  0  0  0  0  0  0  0  0  0  0
   36.7390   25.9170   32.7800 C   0  0  0  0  0  0  0  0  0  0  0  0
   37.1400   24.6600   32.4340 N   0  0  0  0  0  0  0  0  0  0  0  0
   38.2840   22.9900   33.0070 H   0  0  0  0  0  0  0  0  0  0  0  0
   38.3050   26.2780   35.7270 H   0  0  0  0  0  0  0  0  0  0  0  0
   39.2610   23.7820   35.3000 N   0  0  0  0  0  0  0  0  0  0  0  0
   40.5830   23.8240   35.1760 C   0  0  0  0  0  0  0  0  0  0  0  0
   41.3700   23.0340   36.0200 C   0  0  0  0  0  0  0  0  0  0  0  0
   40.6920   22.2740   36.9140 C   0  0  0  0  0  0  0  0  0  0  0  0
   41.4040   21.5520   37.6860 O   0  0  0  0  0  0  0  0  0  0  0  0
   39.3750   22.2050   37.0670 N   0  0  0  0  0  0  0  0  0  0  0  0
   38.6470   22.9840   36.2310 C   0  0  0  0  0  0  0  0  0  0  0  0
   37.3820   22.9340   36.3600 O   0  0  0  0  0  0  0  0  0  0  0  0
   41.0020   24.4740   34.4220 H   0  0  0  0  0  0  0  0  0  0  0  0
   42.4460   23.0660   35.9230 H   0  0  0  0  0  0  0  0  0  0  0  0
   38.8850   21.6050   37.7690 H   0  0  0  0  0  0  0  0  0  0  0  0
   35.8870   26.5920   31.8840 O   0  0  0  0  0  0  0  0  0  0  0  0
   36.3680   27.7990   31.3910 C   0  0  0  0  0  0  0  0  0  0  0  0
   37.3680   27.6570   30.4420 C   0  0  0  0  0  0  0  0  0  0  0  0
   37.9680   28.7290   29.8350 C   0  0  0  0  0  0  0  0  0  0  0  0
   37.5450   29.9960   30.1970 C   0  0  0  0  0  0  0  0  0  0  0  0
   36.5570   30.1300   31.1360 C   0  0  0  0  0  0  0  0  0  0  0  0
   35.9420   29.0530   31.7580 C   0  0  0  0  0  0  0  0  0  0  0  0
   37.7420   26.6940   30.1170 H   0  0  0  0  0  0  0  0  0  0  0  0
   38.7470   28.6190   29.0960 H   0  0  0  0  0  0  0  0  0  0  0  0
   37.9770   30.8630   29.7560 H   0  0  0  0  0  0  0  0  0  0  0  0
   36.2420   31.1360   31.4030 H   0  0  0  0  0  0  0  0  0  0  0  0
   34.8860   29.2330   32.7540 C   0  0  0  0  0  0  0  0  0  0  0  0
   35.1440   29.5240   34.0860 C   0  0  0  0  0  0  0  0  0  0  0  0
   36.0040   29.6760   34.7090 H   0  0  0  0  0  0  0  0  0  0  0  0
   33.4560   29.6710   34.8140 S   0  0  0  0  0  0  0  0  0  0  0  0
   32.6690   29.2970   33.1180 C   0  0  0  0  0  0  0  0  0  0  0  0
   31.6090   29.2550   32.9570 H   0  0  0  0  0  0  0  0  0  0  0  0
   33.6140   29.1550   32.4310 N   0  0  0  0  0  0  0  0  0  0  0  0
  1  2  1  0  0  0  0
  2  3  2  0  0  0  0
  2  9  1  0  0  0  0
  3  8  1  0  0  0  0
  4  3  1  0  0  0  0
  5  4  2  0  0  0  0
  6  5  1  0  0  0  0
  6  1  2  0  0  0  0
  7  1  1  0  0  0  0
  9 15  1  0  0  0  0
 10  9  1  0  0  0  0
 10 11  2  0  0  0  0
 11 12  1  0  0  0  0
 12 14  1  0  0  0  0
 12 13  2  0  0  0  0
 14 19  1  0  0  0  0
 15 16  2  0  0  0  0
 15 14  1  0  0  0  0
 17 10  1  0  0  0  0
 18 11  1  0  0  0  0
 20  5  1  0  0  0  0
 21 26  1  0  0  0  0
 21 20  1  0  0  0  0
 22 21  2  0  0  0  0
 23 24  2  0  0  0  0
 23 22  1  0  0  0  0
 24 25  1  0  0  0  0
 25 30  1  0  0  0  0
 25 26  2  0  0  0  0
 26 31  1  0  0  0  0
 27 22  1  0  0  0  0
 28 23  1  0  0  0  0
 29 24  1  0  0  0  0
 31 32  2  0  0  0  0
 32 33  1  0  0  0  0
 32 34  1  0  0  0  0
 35 34  1  0  0  0  0
 36 35  1  0  0  0  0
 37 31  1  0  0  0  0
 37 35  2  0  0  0  0
M  END
>  <minimizedAffinity>
-5.72452545

$$$$

 OpenBabel03272500093D

 37 40  0  0  0  0  0  0  0  0999 V2000
   35.6530   26.1670   30.9830 C   0  0  0  0  0  0  0  0  0  0  0  0
   36.2250   27.1980   31.7670 C   0  0  0  0  0  0  0  0  0  0  0  0
   37.3530   26.8780   32.5380 C   0  0  0  0  0  0  0  0  0  0  0  0
   37.8350   25.6090   32.4950 N   0  0  0  0  0  0  0  0  0  0  0  0
   37.2560   24.6540   31.7310 C   0  0  0  0  0  0  0  0  0  0  0  0
   36.1580   24.9250   30.9670 N   0  0  0  0  0  0  0  0  0  0  0  0
   34.7800   26.4030   30.3830 H   0  0  0  0  0  0  0  0  0  0  0  0
   37.7920   27.6550   33.1340 H   0  0  0  0  0  0  0  0  0  0  0  0
   35.6290   28.4780   31.7290 N   0  0  0  0  0  0  0  0  0  0  0  0
   34.7270   28.8660   32.6240 C   0  0  0  0  0  0  0  0  0  0  0  0
   34.1800   30.1490   32.5250 C   0  0  0  0  0  0  0  0  0  0  0  0
   34.6330   30.9030   31.4940 C   0  0  0  0  0  0  0  0  0  0  0  0
   34.1390   32.0730   31.3990 O   0  0  0  0  0  0  0  0  0  0  0  0
   35.5320   30.5510   30.5820 N   0  0  0  0  0  0  0  0  0  0  0  0
   36.0380   29.3010   30.7110 C   0  0  0  0  0  0  0  0  0  0  0  0
   36.9010   28.9420   29.8480 O   0  0  0  0  0  0  0  0  0  0  0  0
   34.4500   28.1680   33.4000 H   0  0  0  0  0  0  0  0  0  0  0  0
   33.4460   30.4690   33.2510 H   0  0  0  0  0  0  0  0  0  0  0  0
   35.8590   31.1600   29.7980 H   0  0  0  0  0  0  0  0  0  0  0  0
   37.7590   23.3380   31.6930 O   0  0  0  0  0  0  0  0  0  0  0  0
   37.0280   22.3950   32.4030 C   0  0  0  0  0  0  0  0  0  0  0  0
   35.9940   21.8250   31.6770 C   0  0  0  0  0  0  0  0  0  0  0  0
   35.1610   20.8710   32.2010 C   0  0  0  0  0  0  0  0  0  0  0  0
   35.3770   20.4740   33.5100 C   0  0  0  0  0  0  0  0  0  0  0  0
   36.4000   21.0410   34.2220 C   0  0  0  0  0  0  0  0  0  0  0  0
   37.2500   22.0080   33.7030 C   0  0  0  0  0  0  0  0  0  0  0  0
   35.7750   22.0920   30.6510 H   0  0  0  0  0  0  0  0  0  0  0  0
   34.3560   20.4260   31.6370 H   0  0  0  0  0  0  0  0  0  0  0  0
   34.7600   19.7360   33.9650 H   0  0  0  0  0  0  0  0  0  0  0  0
   36.5490   20.7120   35.2480 H   0  0  0  0  0  0  0  0  0  0  0  0
   38.3350   22.5890   34.4930 C   0  0  0  0  0  0  0  0  0  0  0  0
   39.6520   22.1660   34.3960 C   0  0  0  0  0  0  0  0  0  0  0  0
   40.2070   21.4320   33.8450 H   0  0  0  0  0  0  0  0  0  0  0  0
   40.5340   23.2770   35.5760 S   0  0  0  0  0  0  0  0  0  0  0  0
   38.8970   24.1530   36.0080 C   0  0  0  0  0  0  0  0  0  0  0  0
   38.8270   24.9590   36.7120 H   0  0  0  0  0  0  0  0  0  0  0  0
   38.1220   23.5810   35.3310 N   0  0  0  0  0  0  0  0  0  0  0  0
  1  2  1  0  0  0  0
  2  3  2  0  0  0  0
  3  8  1  0  0  0  0
  4  3  1  0  0  0  0
  5  4  2  0  0  0  0
  6  1  2  0  0  0  0
  6  5  1  0  0  0  0
  7  1  1  0  0  0  0
  9  2  1  0  0  0  0
  9 10  1  0  0  0  0
 10 17  1  0  0  0  0
 11 10  2  0  0  0  0
 11 18  1  0  0  0  0
 12 11  1  0  0  0  0
 13 12  2  0  0  0  0
 14 15  1  0  0  0  0
 14 12  1  0  0  0  0
 15  9  1  0  0  0  0
 16 15  2  0  0  0  0
 19 14  1  0  0  0  0
 20  5  1  0  0  0  0
 20 21  1  0  0  0  0
 21 26  1  0  0  0  0
 22 23  1  0  0  0  0
 22 21  2  0  0  0  0
 23 24  2  0  0  0  0
 24 29  1  0  0  0  0
 24 25  1  0  0  0  0
 25 30  1  0  0  0  0
 26 25  2  0  0  0  0
 26 31  1  0  0  0  0
 27 22  1  0  0  0  0
 28 23  1  0  0  0  0
 31 37  1  0  0  0  0
 32 31  2  0  0  0  0
 32 34  1  0  0  0  0
 33 32  1  0  0  0  0
 34 35  1  0  0  0  0
 35 36  1  0  0  0  0
 37 35  2  0  0  0  0
M  END
>  <minimizedAffinity>
-5.62259579

$$$$

 OpenBabel03272500093D

 37 40  0  0  0  0  0  0  0  0999 V2000
   38.0370   24.1140   33.1630 C   0  0  0  0  0  0  0  0  0  0  0  0
   38.4350   24.6640   34.4050 C   0  0  0  0  0  0  0  0  0  0  0  0
   37.9980   25.9620   34.7110 C   0  0  0  0  0  0  0  0  0  0  0  0
   37.2220   26.6190   33.8100 N   0  0  0  0  0  0  0  0  0  0  0  0
   36.8660   26.0540   32.6330 C   0  0  0  0  0  0  0  0  0  0  0  0
   37.2700   24.7940   32.2990 N   0  0  0  0  0  0  0  0  0  0  0  0
   38.3700   23.1100   32.9160 H   0  0  0  0  0  0  0  0  0  0  0  0
   38.2960   26.3850   35.6510 H   0  0  0  0  0  0  0  0  0  0  0  0
   39.2470   23.8810   35.2560 N   0  0  0  0  0  0  0  0  0  0  0  0
   40.5740   23.9280   35.2110 C   0  0  0  0  0  0  0  0  0  0  0  0
   41.3120   23.1260   36.0850 C   0  0  0  0  0  0  0  0  0  0  0  0
   40.5860   22.3480   36.9250 C   0  0  0  0  0  0  0  0  0  0  0  0
   41.2530   21.6140   37.7240 O   0  0  0  0  0  0  0  0  0  0  0  0
   39.2620   22.2730   36.9990 N   0  0  0  0  0  0  0  0  0  0  0  0
   38.5820   23.0650   36.1360 C   0  0  0  0  0  0  0  0  0  0  0  0
   37.3120   23.0100   36.1890 O   0  0  0  0  0  0  0  0  0  0  0  0
   41.0330   24.5930   34.4950 H   0  0  0  0  0  0  0  0  0  0  0  0
   42.3910   23.1610   36.0530 H   0  0  0  0  0  0  0  0  0  0  0  0
   38.7340   21.6590   37.6600 H   0  0  0  0  0  0  0  0  0  0  0  0
   36.0630   26.7420   31.7010 O   0  0  0  0  0  0  0  0  0  0  0  0
   36.0180   28.1220   31.8510 C   0  0  0  0  0  0  0  0  0  0  0  0
   35.0910   28.5540   32.7870 C   0  0  0  0  0  0  0  0  0  0  0  0
   34.9000   29.8790   33.0800 C   0  0  0  0  0  0  0  0  0  0  0  0
   35.6720   30.8080   32.4030 C   0  0  0  0  0  0  0  0  0  0  0  0
   36.5850   30.3750   31.4800 C   0  0  0  0  0  0  0  0  0  0  0  0
   36.7890   29.0370   31.1740 C   0  0  0  0  0  0  0  0  0  0  0  0
   34.4600   27.8780   33.3480 H   0  0  0  0  0  0  0  0  0  0  0  0
   34.1780   30.2160   33.8080 H   0  0  0  0  0  0  0  0  0  0  0  0
   35.5630   31.8490   32.5930 H   0  0  0  0  0  0  0  0  0  0  0  0
   37.1790   31.1250   30.9620 H   0  0  0  0  0  0  0  0  0  0  0  0
   37.7770   28.6100   30.1830 C   0  0  0  0  0  0  0  0  0  0  0  0
   37.6030   28.7830   28.8180 C   0  0  0  0  0  0  0  0  0  0  0  0
   36.8560   29.1870   28.1620 H   0  0  0  0  0  0  0  0  0  0  0  0
   39.1630   28.1010   28.1090 S   0  0  0  0  0  0  0  0  0  0  0  0
   39.8000   27.6870   29.8580 C   0  0  0  0  0  0  0  0  0  0  0  0
   40.7530   27.2290   30.0460 H   0  0  0  0  0  0  0  0  0  0  0  0
   38.9140   28.0560   30.5400 N   0  0  0  0  0  0  0  0  0  0  0  0
  1  2  1  0  0  0  0
  2  3  2  0  0  0  0
  2  9  1  0  0  0  0
  3  8  1  0  0  0  0
  4  3  1  0  0  0  0
  5  4  2  0  0  0  0
  6  5  1  0  0  0  0
  6  1  2  0  0  0  0
  7  1  1  0  0  0  0
  9 15  1  0  0  0  0
 10  9  1  0  0  0  0
 10 11  2  0  0  0  0
 11 12  1  0  0  0  0
 12 14  1  0  0  0  0
 12 13  2  0  0  0  0
 14 19  1  0  0  0  0
 15 16  2  0  0  0  0
 15 14  1  0  0  0  0
 17 10  1  0  0  0  0
 18 11  1  0  0  0  0
 20 21  1  0  0  0  0
 20  5  1  0  0  0  0
 21 22  1  0  0  0  0
 22 23  2  0  0  0  0
 22 27  1  0  0  0  0
 23 28  1  0  0  0  0
 24 29  1  0  0  0  0
 24 23  1  0  0  0  0
 25 24  2  0  0  0  0
 26 25  1  0  0  0  0
 26 21  2  0  0  0  0
 30 25  1  0  0  0  0
 31 37  1  0  0  0  0
 31 26  1  0  0  0  0
 32 31  2  0  0  0  0
 33 32  1  0  0  0  0
 34 32  1  0  0  0  0
 34 35  1  0  0  0  0
 35 36  1  0  0  0  0
 35 37  2  0  0  0  0
M  END
>  <minimizedAffinity>
-5.5288043

$$$$

 OpenBabel03272500093D

 37 40  0  0  0  0  0  0  0  0999 V2000
   36.3740   28.3600   34.5400 C   0  0  0  0  0  0  0  0  0  0  0  0
   35.7560   29.5350   34.0520 C   0  0  0  0  0  0  0  0  0  0  0  0
   35.7730   29.7500   32.6640 C   0  0  0  0  0  0  0  0  0  0  0  0
   36.3750   28.8300   31.8680 N   0  0  0  0  0  0  0  0  0  0  0  0
   36.9550   27.7190   32.3790 C   0  0  0  0  0  0  0  0  0  0  0  0
   36.9590   27.4730   33.7210 N   0  0  0  0  0  0  0  0  0  0  0  0
   36.3660   28.1830   35.6110 H   0  0  0  0  0  0  0  0  0  0  0  0
   35.3060   30.6400   32.2880 H   0  0  0  0  0  0  0  0  0  0  0  0
   35.1650   30.4190   34.9820 N   0  0  0  0  0  0  0  0  0  0  0  0
   35.8800   31.2920   35.6840 C   0  0  0  0  0  0  0  0  0  0  0  0
   35.2260   32.1360   36.5860 C   0  0  0  0  0  0  0  0  0  0  0  0
   33.8820   31.9830   36.6670 C   0  0  0  0  0  0  0  0  0  0  0  0
   33.2810   32.7500   37.4870 O   0  0  0  0  0  0  0  0  0  0  0  0
   33.1340   31.1240   35.9840 N   0  0  0  0  0  0  0  0  0  0  0  0
   33.8040   30.3230   35.1200 C   0  0  0  0  0  0  0  0  0  0  0  0
   33.1070   29.4920   34.4550 O   0  0  0  0  0  0  0  0  0  0  0  0
   36.9480   31.3150   35.5250 H   0  0  0  0  0  0  0  0  0  0  0  0
   35.8040   32.8470   37.1580 H   0  0  0  0  0  0  0  0  0  0  0  0
   32.0970   31.0330   36.0720 H   0  0  0  0  0  0  0  0  0  0  0  0
   37.5810   26.7690   31.5480 O   0  0  0  0  0  0  0  0  0  0  0  0
   37.0860   25.4740   31.6370 C   0  0  0  0  0  0  0  0  0  0  0  0
   35.8260   25.3170   31.0810 C   0  0  0  0  0  0  0  0  0  0  0  0
   35.1700   24.1140   31.0670 C   0  0  0  0  0  0  0  0  0  0  0  0
   35.8060   23.0240   31.6350 C   0  0  0  0  0  0  0  0  0  0  0  0
   37.0510   23.1850   32.1830 C   0  0  0  0  0  0  0  0  0  0  0  0
   37.7260   24.3980   32.2050 C   0  0  0  0  0  0  0  0  0  0  0  0
   35.2770   26.1290   30.6220 H   0  0  0  0  0  0  0  0  0  0  0  0
   34.1880   23.9900   30.6340 H   0  0  0  0  0  0  0  0  0  0  0  0
   35.3420   22.0670   31.6510 H   0  0  0  0  0  0  0  0  0  0  0  0
   37.5300   22.3140   32.6240 H   0  0  0  0  0  0  0  0  0  0  0  0
   39.0560   24.5330   32.7960 C   0  0  0  0  0  0  0  0  0  0  0  0
   40.2260   24.4530   32.0550 C   0  0  0  0  0  0  0  0  0  0  0  0
   40.5020   24.2930   31.0300 H   0  0  0  0  0  0  0  0  0  0  0  0
   41.5400   24.7360   33.3180 S   0  0  0  0  0  0  0  0  0  0  0  0
   40.2190   24.9210   34.6810 C   0  0  0  0  0  0  0  0  0  0  0  0
   40.4570   25.1150   35.7090 H   0  0  0  0  0  0  0  0  0  0  0  0
   39.2190   24.7700   34.0800 N   0  0  0  0  0  0  0  0  0  0  0  0
  1  7  1  0  0  0  0
  2  1  1  0  0  0  0
  2  9  1  0  0  0  0
  3  2  2  0  0  0  0
  4  5  2  0  0  0  0
  4  3  1  0  0  0  0
  5  6  1  0  0  0  0
  6  1  2  0  0  0  0
  8  3  1  0  0  0  0
  9 15  1  0  0  0  0
  9 10  1  0  0  0  0
 10 11  2  0  0  0  0
 11 12  1  0  0  0  0
 11 18  1  0  0  0  0
 12 13  2  0  0  0  0
 14 19  1  0  0  0  0
 14 12  1  0  0  0  0
 15 14  1  0  0  0  0
 16 15  2  0  0  0  0
 17 10  1  0  0  0  0
 20 21  1  0  0  0  0
 20  5  1  0  0  0  0
 21 26  1  0  0  0  0
 22 21  2  0  0  0  0
 23 22  1  0  0  0  0
 23 24  2  0  0  0  0
 24 29  1  0  0  0  0
 24 25  1  0  0  0  0
 25 26  2  0  0  0  0
 25 30  1  0  0  0  0
 26 31  1  0  0  0  0
 27 22  1  0  0  0  0
 28 23  1  0  0  0  0
 31 37  1  0  0  0  0
 32 31  2  0  0  0  0
 32 34  1  0  0  0  0
 33 32  1  0  0  0  0
 34 35  1  0  0  0  0
 35 36  1  0  0  0  0
 37 35  2  0  0  0  0
M  END
>  <minimizedAffinity>
-5.48852396

$$$$

 OpenBabel03272500093D

 37 40  0  0  0  0  0  0  0  0999 V2000
   37.8580   26.3330   31.4210 C   0  0  0  0  0  0  0  0  0  0  0  0
   36.5450   26.8460   31.2960 C   0  0  0  0  0  0  0  0  0  0  0  0
   35.5130   25.9320   31.0320 C   0  0  0  0  0  0  0  0  0  0  0  0
   35.8210   24.6150   30.9100 N   0  0  0  0  0  0  0  0  0  0  0  0
   37.0930   24.1690   31.0370 C   0  0  0  0  0  0  0  0  0  0  0  0
   38.1230   25.0240   31.2940 N   0  0  0  0  0  0  0  0  0  0  0  0
   38.6650   27.0310   31.6260 H   0  0  0  0  0  0  0  0  0  0  0  0
   34.5150   26.3150   30.9360 H   0  0  0  0  0  0  0  0  0  0  0  0
   36.3520   28.2380   31.4400 N   0  0  0  0  0  0  0  0  0  0  0  0
   35.9320   28.7810   32.5770 C   0  0  0  0  0  0  0  0  0  0  0  0
   35.7640   30.1670   32.6470 C   0  0  0  0  0  0  0  0  0  0  0  0
   36.0550   30.8520   31.5150 C   0  0  0  0  0  0  0  0  0  0  0  0
   35.9050   32.1160   31.5730 O   0  0  0  0  0  0  0  0  0  0  0  0
   36.4770   30.3460   30.3620 N   0  0  0  0  0  0  0  0  0  0  0  0
   36.6260   29.0000   30.3330 C   0  0  0  0  0  0  0  0  0  0  0  0
   37.0310   28.4930   29.2380 O   0  0  0  0  0  0  0  0  0  0  0  0
   35.7350   28.1230   33.4110 H   0  0  0  0  0  0  0  0  0  0  0  0
   35.4230   30.6130   33.5700 H   0  0  0  0  0  0  0  0  0  0  0  0
   36.6920   30.9060   29.5060 H   0  0  0  0  0  0  0  0  0  0  0  0
   37.4070   22.8010   30.9070 O   0  0  0  0  0  0  0  0  0  0  0  0
   36.7360   21.9460   31.7720 C   0  0  0  0  0  0  0  0  0  0  0  0
   35.6320   21.3300   31.2060 C   0  0  0  0  0  0  0  0  0  0  0  0
   34.8420   20.4480   31.8970 C   0  0  0  0  0  0  0  0  0  0  0  0
   35.1770   20.1750   33.2120 C   0  0  0  0  0  0  0  0  0  0  0  0
   36.2690   20.7880   33.7660 C   0  0  0  0  0  0  0  0  0  0  0  0
   37.0760   21.6820   33.0780 C   0  0  0  0  0  0  0  0  0  0  0  0
   35.3190   21.5010   30.1840 H   0  0  0  0  0  0  0  0  0  0  0  0
   33.9820   19.9680   31.4570 H   0  0  0  0  0  0  0  0  0  0  0  0
   34.5980   19.4980   33.7940 H   0  0  0  0  0  0  0  0  0  0  0  0
   36.5120   20.5570   34.8010 H   0  0  0  0  0  0  0  0  0  0  0  0
   38.2380   22.3160   33.7010 C   0  0  0  0  0  0  0  0  0  0  0  0
   38.1420   23.4170   34.5380 C   0  0  0  0  0  0  0  0  0  0  0  0
   37.3650   24.0490   34.9260 H   0  0  0  0  0  0  0  0  0  0  0  0
   39.8930   23.7220   35.0290 S   0  0  0  0  0  0  0  0  0  0  0  0
   40.4690   22.2440   33.9710 C   0  0  0  0  0  0  0  0  0  0  0  0
   41.4960   21.9430   33.8880 H   0  0  0  0  0  0  0  0  0  0  0  0
   39.4550   21.8510   33.5200 N   0  0  0  0  0  0  0  0  0  0  0  0
  1  7  1  0  0  0  0
  2  1  1  0  0  0  0
  2  9  1  0  0  0  0
  3  2  2  0  0  0  0
  4  3  1  0  0  0  0
  4  5  2  0  0  0  0
  5  6  1  0  0  0  0
  6  1  2  0  0  0  0
  8  3  1  0  0  0  0
  9 10  1  0  0  0  0
 10 11  2  0  0  0  0
 10 17  1  0  0  0  0
 11 18  1  0  0  0  0
 12 13  2  0  0  0  0
 12 11  1  0  0  0  0
 14 12  1  0  0  0  0
 15 14  1  0  0  0  0
 15  9  1  0  0  0  0
 16 15  2  0  0  0  0
 19 14  1  0  0  0  0
 20  5  1  0  0  0  0
 20 21  1  0  0  0  0
 21 26  1  0  0  0  0
 22 21  2  0  0  0  0
 22 23  1  0  0  0  0
 23 24  2  0  0  0  0
 24 25  1  0  0  0  0
 24 29  1  0  0  0  0
 25 30  1  0  0  0  0
 26 31  1  0  0  0  0
 26 25  2  0  0  0  0
 27 22  1  0  0  0  0
 28 23  1  0  0  0  0
 31 32  2  0  0  0  0
 32 33  1  0  0  0  0
 32 34  1  0  0  0  0
 35 34  1  0  0  0  0
 36 35  1  0  0  0  0
 37 31  1  0  0  0  0
 37 35  2  0  0  0  0
M  END
>  <minimizedAffinity>
-5.46932268

$$$$

 OpenBabel03272500093D

 37 40  0  0  0  0  0  0  0  0999 V2000
   35.5010   27.5850   31.5560 C   0  0  0  0  0  0  0  0  0  0  0  0
   35.2730   28.6210   32.4940 C   0  0  0  0  0  0  0  0  0  0  0  0
   36.0180   28.5960   33.6830 C   0  0  0  0  0  0  0  0  0  0  0  0
   36.9120   27.5920   33.8730 N   0  0  0  0  0  0  0  0  0  0  0  0
   37.0970   26.6210   32.9490 C   0  0  0  0  0  0  0  0  0  0  0  0
   36.3930   26.6090   31.7810 N   0  0  0  0  0  0  0  0  0  0  0  0
   34.9300   27.5950   30.6330 H   0  0  0  0  0  0  0  0  0  0  0  0
   35.8500   29.3780   34.3980 H   0  0  0  0  0  0  0  0  0  0  0  0
   34.3130   29.6090   32.1820 N   0  0  0  0  0  0  0  0  0  0  0  0
   33.0960   29.6090   32.7150 C   0  0  0  0  0  0  0  0  0  0  0  0
   32.1990   30.6200   32.3600 C   0  0  0  0  0  0  0  0  0  0  0  0
   32.6650   31.5370   31.4770 C   0  0  0  0  0  0  0  0  0  0  0  0
   31.8520   32.4610   31.1500 O   0  0  0  0  0  0  0  0  0  0  0  0
   33.8720   31.5700   30.9240 N   0  0  0  0  0  0  0  0  0  0  0  0
   34.7120   30.5730   31.2920 C   0  0  0  0  0  0  0  0  0  0  0  0
   35.8750   30.5860   30.7740 O   0  0  0  0  0  0  0  0  0  0  0  0
   32.8470   28.8200   33.4090 H   0  0  0  0  0  0  0  0  0  0  0  0
   31.2080   30.6240   32.7920 H   0  0  0  0  0  0  0  0  0  0  0  0
   34.1980   32.2940   30.2440 H   0  0  0  0  0  0  0  0  0  0  0  0
   38.0230   25.5790   33.1530 O   0  0  0  0  0  0  0  0  0  0  0  0
   39.3030   25.9760   33.5180 C   0  0  0  0  0  0  0  0  0  0  0  0
   39.9270   26.7850   32.5810 C   0  0  0  0  0  0  0  0  0  0  0  0
   41.1920   27.2820   32.7590 C   0  0  0  0  0  0  0  0  0  0  0  0
   41.8570   26.9520   33.9270 C   0  0  0  0  0  0  0  0  0  0  0  0
   41.2360   26.1530   34.8490 C   0  0  0  0  0  0  0  0  0  0  0  0
   39.9560   25.6430   34.6810 C   0  0  0  0  0  0  0  0  0  0  0  0
   39.4600   27.0780   31.6490 H   0  0  0  0  0  0  0  0  0  0  0  0
   41.6780   27.9120   32.0300 H   0  0  0  0  0  0  0  0  0  0  0  0
   42.8400   27.3120   34.1160 H   0  0  0  0  0  0  0  0  0  0  0  0
   41.7790   25.9090   35.7590 H   0  0  0  0  0  0  0  0  0  0  0  0
   39.3220   24.7940   35.6890 C   0  0  0  0  0  0  0  0  0  0  0  0
   38.2180   25.1920   36.4290 C   0  0  0  0  0  0  0  0  0  0  0  0
   37.5930   26.0610   36.5090 H   0  0  0  0  0  0  0  0  0  0  0  0
   37.8630   23.7160   37.4750 S   0  0  0  0  0  0  0  0  0  0  0  0
   39.3310   22.7830   36.6940 C   0  0  0  0  0  0  0  0  0  0  0  0
   39.6050   21.7810   36.9650 H   0  0  0  0  0  0  0  0  0  0  0  0
   39.7540   23.5760   35.9340 N   0  0  0  0  0  0  0  0  0  0  0  0
  1  6  2  0  0  0  0
  1  2  1  0  0  0  0
  2  3  2  0  0  0  0
  3  4  1  0  0  0  0
  3  8  1  0  0  0  0
  5 20  1  0  0  0  0
  5  4  2  0  0  0  0
  6  5  1  0  0  0  0
  7  1  1  0  0  0  0
  9  2  1  0  0  0  0
  9 10  1  0  0  0  0
 10 17  1  0  0  0  0
 11 10  2  0  0  0  0
 11 18  1  0  0  0  0
 12 11  1  0  0  0  0
 13 12  2  0  0  0  0
 14 15  1  0  0  0  0
 14 12  1  0  0  0  0
 15  9  1  0  0  0  0
 16 15  2  0  0  0  0
 19 14  1  0  0  0  0
 20 21  1  0  0  0  0
 21 26  1  0  0  0  0
 22 23  1  0  0  0  0
 22 21  2  0  0  0  0
 23 24  2  0  0  0  0
 24 29  1  0  0  0  0
 24 25  1  0  0  0  0
 25 30  1  0  0  0  0
 26 25  2  0  0  0  0
 26 31  1  0  0  0  0
 27 22  1  0  0  0  0
 28 23  1  0  0  0  0
 31 37  1  0  0  0  0
 31 32  2  0  0  0  0
 32 33  1  0  0  0  0
 32 34  1  0  0  0  0
 35 36  1  0  0  0  0
 35 34  1  0  0  0  0
 37 35  2  0  0  0  0
M  END
>  <minimizedAffinity>
-5.43933439

$$$$

 OpenBabel03272500093D

 37 40  0  0  0  0  0  0  0  0999 V2000
   39.2740   25.6080   33.0150 C   0  0  0  0  0  0  0  0  0  0  0  0
   38.2290   25.4830   32.0690 C   0  0  0  0  0  0  0  0  0  0  0  0
   37.5120   24.2760   32.0480 C   0  0  0  0  0  0  0  0  0  0  0  0
   37.8530   23.2990   32.9270 N   0  0  0  0  0  0  0  0  0  0  0  0
   38.8610   23.4620   33.8150 C   0  0  0  0  0  0  0  0  0  0  0  0
   39.5810   24.6190   33.8680 N   0  0  0  0  0  0  0  0  0  0  0  0
   39.8350   26.5380   33.0400 H   0  0  0  0  0  0  0  0  0  0  0  0
   36.7190   24.1750   31.3330 H   0  0  0  0  0  0  0  0  0  0  0  0
   37.9730   26.5710   31.2050 N   0  0  0  0  0  0  0  0  0  0  0  0
   37.0990   27.5250   31.5070 C   0  0  0  0  0  0  0  0  0  0  0  0
   36.8970   28.5720   30.6040 C   0  0  0  0  0  0  0  0  0  0  0  0
   37.6340   28.5190   29.4670 C   0  0  0  0  0  0  0  0  0  0  0  0
   37.4540   29.4710   28.6400 O   0  0  0  0  0  0  0  0  0  0  0  0
   38.5150   27.5840   29.1310 N   0  0  0  0  0  0  0  0  0  0  0  0
   38.6820   26.5860   30.0310 C   0  0  0  0  0  0  0  0  0  0  0  0
   39.5230   25.6790   29.7300 O   0  0  0  0  0  0  0  0  0  0  0  0
   36.5740   27.4520   32.4480 H   0  0  0  0  0  0  0  0  0  0  0  0
   36.1870   29.3500   30.8450 H   0  0  0  0  0  0  0  0  0  0  0  0
   39.0670   27.5740   28.2430 H   0  0  0  0  0  0  0  0  0  0  0  0
   39.2120   22.4430   34.7230 O   0  0  0  0  0  0  0  0  0  0  0  0
   39.0860   22.7670   36.0680 C   0  0  0  0  0  0  0  0  0  0  0  0
   37.8090   23.1650   36.4310 C   0  0  0  0  0  0  0  0  0  0  0  0
   37.4830   23.5220   37.7130 C   0  0  0  0  0  0  0  0  0  0  0  0
   38.4830   23.4760   38.6700 C   0  0  0  0  0  0  0  0  0  0  0  0
   39.7420   23.0820   38.3060 C   0  0  0  0  0  0  0  0  0  0  0  0
   40.0850   22.7190   37.0110 C   0  0  0  0  0  0  0  0  0  0  0  0
   36.9860   23.2210   35.7300 H   0  0  0  0  0  0  0  0  0  0  0  0
   36.4890   23.8330   37.9970 H   0  0  0  0  0  0  0  0  0  0  0  0
   38.2830   23.7430   39.6810 H   0  0  0  0  0  0  0  0  0  0  0  0
   40.5090   23.0540   39.0750 H   0  0  0  0  0  0  0  0  0  0  0  0
   41.4410   22.2990   36.6570 C   0  0  0  0  0  0  0  0  0  0  0  0
   42.3740   23.1540   36.0900 C   0  0  0  0  0  0  0  0  0  0  0  0
   42.4180   24.1800   35.7770 H   0  0  0  0  0  0  0  0  0  0  0  0
   43.8680   22.0860   35.9180 S   0  0  0  0  0  0  0  0  0  0  0  0
   42.9260   20.6120   36.6760 C   0  0  0  0  0  0  0  0  0  0  0  0
   43.3660   19.6440   36.8230 H   0  0  0  0  0  0  0  0  0  0  0  0
   41.8660   21.0760   36.8870 N   0  0  0  0  0  0  0  0  0  0  0  0
  1  7  1  0  0  0  0
  1  6  1  0  0  0  0
  2  1  2  0  0  0  0
  3  2  1  0  0  0  0
  3  4  2  0  0  0  0
  4  5  1  0  0  0  0
  5  6  2  0  0  0  0
  5 20  1  0  0  0  0
  8  3  1  0  0  0  0
  9 10  1  0  0  0  0
  9  2  1  0  0  0  0
 10 17  1  0  0  0  0
 11 18  1  0  0  0  0
 11 10  2  0  0  0  0
 12 11  1  0  0  0  0
 13 12  2  0  0  0  0
 14 12  1  0  0  0  0
 14 15  1  0  0  0  0
 15  9  1  0  0  0  0
 16 15  2  0  0  0  0
 19 14  1  0  0  0  0
 20 21  1  0  0  0  0
 21 22  2  0  0  0  0
 21 26  1  0  0  0  0
 22 23  1  0  0  0  0
 23 28  1  0  0  0  0
 23 24  2  0  0  0  0
 24 29  1  0  0  0  0
 25 24  1  0  0  0  0
 25 30  1  0  0  0  0
 26 25  2  0  0  0  0
 27 22  1  0  0  0  0
 31 37  1  0  0  0  0
 31 26  1  0  0  0  0
 32 31  2  0  0  0  0
 33 32  1  0  0  0  0
 34 32  1  0  0  0  0
 34 35  1  0  0  0  0
 35 36  1  0  0  0  0
 35 37  2  0  0  0  0
M  END
>  <minimizedAffinity>
-5.43413401

$$$$

 OpenBabel03272500093D

 37 40  0  0  0  0  0  0  0  0999 V2000
   36.7510   27.3370   34.6930 C   0  0  0  0  0  0  0  0  0  0  0  0
   37.5450   26.9250   33.5960 C   0  0  0  0  0  0  0  0  0  0  0  0
   37.4430   27.6640   32.4070 C   0  0  0  0  0  0  0  0  0  0  0  0
   36.5990   28.7270   32.3680 N   0  0  0  0  0  0  0  0  0  0  0  0
   35.8580   29.0850   33.4430 C   0  0  0  0  0  0  0  0  0  0  0  0
   35.9280   28.3930   34.6160 N   0  0  0  0  0  0  0  0  0  0  0  0
   36.8220   26.7730   35.6180 H   0  0  0  0  0  0  0  0  0  0  0  0
   38.0420   27.3570   31.5710 H   0  0  0  0  0  0  0  0  0  0  0  0
   38.3840   25.8000   33.7590 N   0  0  0  0  0  0  0  0  0  0  0  0
   38.0290   24.5860   33.3520 C   0  0  0  0  0  0  0  0  0  0  0  0
   38.9110   23.5200   33.5460 C   0  0  0  0  0  0  0  0  0  0  0  0
   40.0840   23.8290   34.1510 C   0  0  0  0  0  0  0  0  0  0  0  0
   40.8920   22.8610   34.3300 O   0  0  0  0  0  0  0  0  0  0  0  0
   40.4730   25.0280   34.5710 N   0  0  0  0  0  0  0  0  0  0  0  0
   39.5910   26.0350   34.3660 C   0  0  0  0  0  0  0  0  0  0  0  0
   39.9430   27.1920   34.7600 O   0  0  0  0  0  0  0  0  0  0  0  0
   37.0640   24.4720   32.8810 H   0  0  0  0  0  0  0  0  0  0  0  0
   38.6270   22.5310   33.2160 H   0  0  0  0  0  0  0  0  0  0  0  0
   41.3880   25.2310   35.0360 H   0  0  0  0  0  0  0  0  0  0  0  0
   34.9810   30.1870   33.3950 O   0  0  0  0  0  0  0  0  0  0  0  0
   34.8060   30.8680   34.5930 C   0  0  0  0  0  0  0  0  0  0  0  0
   35.8750   31.6810   34.9360 C   0  0  0  0  0  0  0  0  0  0  0  0
   35.8910   32.4370   36.0790 C   0  0  0  0  0  0  0  0  0  0  0  0
   34.7880   32.3710   36.9120 C   0  0  0  0  0  0  0  0  0  0  0  0
   33.7350   31.5660   36.5690 C   0  0  0  0  0  0  0  0  0  0  0  0
   33.7060   30.7950   35.4150 C   0  0  0  0  0  0  0  0  0  0  0  0
   36.7650   31.7750   34.3270 H   0  0  0  0  0  0  0  0  0  0  0  0
   36.7230   33.0700   36.3470 H   0  0  0  0  0  0  0  0  0  0  0  0
   34.7490   32.9380   37.8120 H   0  0  0  0  0  0  0  0  0  0  0  0
   32.8810   31.5320   37.2400 H   0  0  0  0  0  0  0  0  0  0  0  0
   32.5630   29.9480   35.0770 C   0  0  0  0  0  0  0  0  0  0  0  0
   32.2500   28.7880   35.7700 C   0  0  0  0  0  0  0  0  0  0  0  0
   32.6460   28.2310   36.5970 H   0  0  0  0  0  0  0  0  0  0  0  0
   30.7200   28.1980   34.9250 S   0  0  0  0  0  0  0  0  0  0  0  0
   30.7780   29.6870   33.7360 C   0  0  0  0  0  0  0  0  0  0  0  0
   30.0520   29.8530   32.9630 H   0  0  0  0  0  0  0  0  0  0  0  0
   31.7400   30.2590   34.1000 N   0  0  0  0  0  0  0  0  0  0  0  0
  1  7  1  0  0  0  0
  2  9  1  0  0  0  0
  2  1  2  0  0  0  0
  3  2  1  0  0  0  0
  4  3  2  0  0  0  0
  4  5  1  0  0  0  0
  5  6  2  0  0  0  0
  6  1  1  0  0  0  0
  8  3  1  0  0  0  0
  9 15  1  0  0  0  0
 10 11  2  0  0  0  0
 10  9  1  0  0  0  0
 11 12  1  0  0  0  0
 12 13  2  0  0  0  0
 12 14  1  0  0  0  0
 14 19  1  0  0  0  0
 15 14  1  0  0  0  0
 15 16  2  0  0  0  0
 17 10  1  0  0  0  0
 18 11  1  0  0  0  0
 20  5  1  0  0  0  0
 20 21  1  0  0  0  0
 21 22  2  0  0  0  0
 21 26  1  0  0  0  0
 22 23  1  0  0  0  0
 23 28  1  0  0  0  0
 23 24  2  0  0  0  0
 24 29  1  0  0  0  0
 25 24  1  0  0  0  0
 25 30  1  0  0  0  0
 26 25  2  0  0  0  0
 27 22  1  0  0  0  0
 31 26  1  0  0  0  0
 31 32  2  0  0  0  0
 32 33  1  0  0  0  0
 34 32  1  0  0  0  0
 35 37  2  0  0  0  0
 35 34  1  0  0  0  0
 36 35  1  0  0  0  0
 37 31  1  0  0  0  0
M  END
>  <minimizedAffinity>
-5.32249117

$$$$

 OpenBabel03272500093D

 37 40  0  0  0  0  0  0  0  0999 V2000
   42.8000   23.9470   35.6080 C   0  0  0  0  0  0  0  0  0  0  0  0
   42.0950   22.7670   35.2720 C   0  0  0  0  0  0  0  0  0  0  0  0
   40.9810   22.8930   34.4280 C   0  0  0  0  0  0  0  0  0  0  0  0
   40.6380   24.1280   33.9790 N   0  0  0  0  0  0  0  0  0  0  0  0
   41.3420   25.2310   34.3270 C   0  0  0  0  0  0  0  0  0  0  0  0
   42.4300   25.1500   35.1450 N   0  0  0  0  0  0  0  0  0  0  0  0
   43.6640   23.8610   36.2600 H   0  0  0  0  0  0  0  0  0  0  0  0
   40.4420   22.0020   34.1690 H   0  0  0  0  0  0  0  0  0  0  0  0
   42.5490   21.5400   35.8050 N   0  0  0  0  0  0  0  0  0  0  0  0
   43.4440   20.7830   35.1800 C   0  0  0  0  0  0  0  0  0  0  0  0
   43.8470   19.5810   35.7680 C   0  0  0  0  0  0  0  0  0  0  0  0
   43.2710   19.2870   36.9590 C   0  0  0  0  0  0  0  0  0  0  0  0
   43.6350   18.1920   37.5000 O   0  0  0  0  0  0  0  0  0  0  0  0
   42.3750   20.0160   37.6140 N   0  0  0  0  0  0  0  0  0  0  0  0
   42.0090   21.1730   37.0120 C   0  0  0  0  0  0  0  0  0  0  0  0
   41.1520   21.8880   37.6220 O   0  0  0  0  0  0  0  0  0  0  0  0
   43.8290   21.1310   34.2330 H   0  0  0  0  0  0  0  0  0  0  0  0
   44.5750   18.9630   35.2630 H   0  0  0  0  0  0  0  0  0  0  0  0
   41.9500   19.7570   38.5340 H   0  0  0  0  0  0  0  0  0  0  0  0
   40.9790   26.5100   33.8610 O   0  0  0  0  0  0  0  0  0  0  0  0
   39.6470   26.8610   34.0420 C   0  0  0  0  0  0  0  0  0  0  0  0
   39.3080   27.1090   35.3630 C   0  0  0  0  0  0  0  0  0  0  0  0
   38.0430   27.4710   35.7450 C   0  0  0  0  0  0  0  0  0  0  0  0
   37.0790   27.5880   34.7590 C   0  0  0  0  0  0  0  0  0  0  0  0
   37.4200   27.3420   33.4560 C   0  0  0  0  0  0  0  0  0  0  0  0
   38.6960   26.9740   33.0560 C   0  0  0  0  0  0  0  0  0  0  0  0
   40.0160   27.0340   36.1790 H   0  0  0  0  0  0  0  0  0  0  0  0
   37.7780   27.6640   36.7740 H   0  0  0  0  0  0  0  0  0  0  0  0
   36.0810   27.8670   35.0010 H   0  0  0  0  0  0  0  0  0  0  0  0
   36.6450   27.4410   32.7000 H   0  0  0  0  0  0  0  0  0  0  0  0
   39.0260   26.7210   31.6530 C   0  0  0  0  0  0  0  0  0  0  0  0
   39.3800   27.7260   30.7660 C   0  0  0  0  0  0  0  0  0  0  0  0
   39.5010   28.7920   30.7880 H   0  0  0  0  0  0  0  0  0  0  0  0
   39.7100   26.8040   29.2030 S   0  0  0  0  0  0  0  0  0  0  0  0
   39.2940   25.1550   30.0630 C   0  0  0  0  0  0  0  0  0  0  0  0
   39.3280   24.2050   29.5640 H   0  0  0  0  0  0  0  0  0  0  0  0
   39.0310   25.5030   31.1560 N   0  0  0  0  0  0  0  0  0  0  0  0
  1  7  1  0  0  0  0
  2  1  1  0  0  0  0
  2  9  1  0  0  0  0
  3  2  2  0  0  0  0
  4  5  2  0  0  0  0
  4  3  1  0  0  0  0
  5  6  1  0  0  0  0
  6  1  2  0  0  0  0
  8  3  1  0  0  0  0
  9 15  1  0  0  0  0
 10 11  2  0  0  0  0
 10  9  1  0  0  0  0
 11 12  1  0  0  0  0
 12 13  2  0  0  0  0
 12 14  1  0  0  0  0
 14 19  1  0  0  0  0
 15 14  1  0  0  0  0
 15 16  2  0  0  0  0
 17 10  1  0  0  0  0
 18 11  1  0  0  0  0
 20 21  1  0  0  0  0
 20  5  1  0  0  0  0
 21 22  1  0  0  0  0
 22 23  2  0  0  0  0
 22 27  1  0  0  0  0
 23 28  1  0  0  0  0
 24 29  1  0  0  0  0
 24 23  1  0  0  0  0
 25 24  2  0  0  0  0
 26 25  1  0  0  0  0
 26 21  2  0  0  0  0
 30 25  1  0  0  0  0
 31 26  1  0  0  0  0
 32 33  1  0  0  0  0
 32 31  2  0  0  0  0
 34 35  1  0  0  0  0
 34 32  1  0  0  0  0
 35 37  2  0  0  0  0
 36 35  1  0  0  0  0
 37 31  1  0  0  0  0
M  END
>  <minimizedAffinity>
-5.30544901

$$$$
