
 OpenBabel03272506413D

 17 18  0  0  0  0  0  0  0  0999 V2000
   37.2680   30.1820   51.3960 C   0  0  0  0  0  0  0  0  0  0  0  0
   38.1290   30.6800   50.4010 C   0  0  0  0  0  0  0  0  0  0  0  0
   37.7870   30.4380   49.0680 C   0  0  0  0  0  0  0  0  0  0  0  0
   36.6490   29.7380   48.8100 N   0  0  0  0  0  0  0  0  0  0  0  0
   35.8480   29.2760   49.7950 C   0  0  0  0  0  0  0  0  0  0  0  0
   36.1420   29.4890   51.0800 N   0  0  0  0  0  0  0  0  0  0  0  0
   37.4830   30.3410   52.4560 H   0  0  0  0  0  0  0  0  0  0  0  0
   38.9980   31.2180   50.6940 H   0  0  0  0  0  0  0  0  0  0  0  0
   38.4350   30.8110   48.2810 H   0  0  0  0  0  0  0  0  0  0  0  0
   34.3580   28.3600   49.4400 S   0  0  0  0  0  0  0  0  0  0  0  0
   34.1490   28.1740   47.6530 C   0  0  0  0  0  0  0  0  0  0  0  0
   33.8350   26.8310   47.2060 C   0  0  0  0  0  0  0  0  0  0  0  0
   33.7030   25.9350   47.7310 H   0  0  0  0  0  0  0  0  0  0  0  0
   33.7200   27.1510   45.3420 S   0  0  0  0  0  0  0  0  0  0  0  0
   34.1150   28.9930   45.5720 C   0  0  0  0  0  0  0  0  0  0  0  0
   34.1770   29.6900   44.7480 H   0  0  0  0  0  0  0  0  0  0  0  0
   34.2550   29.1230   46.7470 N   0  0  0  0  0  0  0  0  0  0  0  0
  1  7  1  0  0  0  0
  2  8  1  0  0  0  0
  2  1  2  0  0  0  0
  3  2  1  0  0  0  0
  4  3  2  0  0  0  0
  4  5  1  0  0  0  0
  5  6  2  0  0  0  0
  6  1  1  0  0  0  0
  9  3  1  0  0  0  0
 10  5  1  0  0  0  0
 11 10  1  0  0  0  0
 12 11  2  0  0  0  0
 12 13  1  0  0  0  0
 14 15  1  0  0  0  0
 14 12  1  0  0  0  0
 15 17  2  0  0  0  0
 16 15  1  0  0  0  0
 17 11  1  0  0  0  0
M  END
>  <minimizedAffinity>
-3.6369853

>  <minimizedRMSD>
0.250368655

$$$$
