
 OpenBabel03272510123D

 33 36  0  0  0  0  0  0  0  0999 V2000
   33.6310   28.4610   48.4370 C   0  0  0  0  0  0  0  0  0  0  0  0
   34.5300   28.0730   49.3670 C   0  0  0  0  0  0  0  0  0  0  0  0
   35.6190   28.8240   49.7760 C   0  0  0  0  0  0  0  0  0  0  0  0
   35.8340   30.0530   49.2220 C   0  0  0  0  0  0  0  0  0  0  0  0
   34.9050   30.4660   48.2550 C   0  0  0  0  0  0  0  0  0  0  0  0
   33.8710   29.6820   47.9060 N   0  0  0  0  0  0  0  0  0  0  0  0
   34.4420   27.1150   49.8610 H   0  0  0  0  0  0  0  0  0  0  0  0
   36.3350   28.5140   50.5180 H   0  0  0  0  0  0  0  0  0  0  0  0
   34.9310   31.4060   47.7230 H   0  0  0  0  0  0  0  0  0  0  0  0
   31.3000   27.5820   48.7310 C   0  0  0  0  0  0  0  0  0  0  0  0
   32.5080   27.6780   48.0200 C   0  0  0  0  0  0  0  0  0  0  0  0
   32.5840   26.9520   46.8400 C   0  0  0  0  0  0  0  0  0  0  0  0
   31.4990   26.2010   46.4470 N   0  0  0  0  0  0  0  0  0  0  0  0
   30.3720   26.1570   47.1800 C   0  0  0  0  0  0  0  0  0  0  0  0
   30.2600   26.8500   48.3360 N   0  0  0  0  0  0  0  0  0  0  0  0
   31.2100   28.1370   49.6560 H   0  0  0  0  0  0  0  0  0  0  0  0
   33.4530   26.9340   46.1950 H   0  0  0  0  0  0  0  0  0  0  0  0
   29.5250   25.5660   46.8650 H   0  0  0  0  0  0  0  0  0  0  0  0
   36.8700   30.9420   49.5100 O   0  0  0  0  0  0  0  0  0  0  0  0
   37.6070   31.5530   48.5090 C   0  0  0  0  0  0  0  0  0  0  0  0
   38.5230   32.4850   48.9540 C   0  0  0  0  0  0  0  0  0  0  0  0
   39.1810   33.0080   47.8450 C   0  0  0  0  0  0  0  0  0  0  0  0
   38.6550   32.3890   46.7800 N   0  0  0  0  0  0  0  0  0  0  0  0
   37.7400   31.5440   47.1800 N   0  0  0  0  0  0  0  0  0  0  0  0
   38.8280   32.8820   49.9330 H   0  0  0  0  0  0  0  0  0  0  0  0
   39.9590   33.7450   47.6750 H   0  0  0  0  0  0  0  0  0  0  0  0
   38.8810   32.4560   45.3540 C   0  0  0  0  0  0  0  0  0  0  0  0
   40.2230   32.5620   44.6210 C   0  0  0  0  0  0  0  0  0  0  0  0
   41.0180   32.5810   45.3500 H   0  0  0  0  0  0  0  0  0  0  0  0
   39.6000   32.5920   42.9240 S   0  0  0  0  0  0  0  0  0  0  0  0
   37.7700   32.4660   43.4130 C   0  0  0  0  0  0  0  0  0  0  0  0
   37.1040   32.4590   42.5950 H   0  0  0  0  0  0  0  0  0  0  0  0
   37.7100   32.4140   44.7070 N   0  0  0  0  0  0  0  0  0  0  0  0
  1  2  1  0  0  0  0
  2  3  2  0  0  0  0
  2  7  1  0  0  0  0
  3  8  1  0  0  0  0
  4 19  1  0  0  0  0
  4  3  1  0  0  0  0
  5  4  2  0  0  0  0
  6  5  1  0  0  0  0
  6  1  2  0  0  0  0
  9  5  1  0  0  0  0
 10 16  1  0  0  0  0
 11  1  1  0  0  0  0
 11 10  2  0  0  0  0
 12 11  1  0  0  0  0
 13 12  2  0  0  0  0
 13 14  1  0  0  0  0
 14 15  2  0  0  0  0
 15 10  1  0  0  0  0
 17 12  1  0  0  0  0
 18 14  1  0  0  0  0
 20 21  1  0  0  0  0
 20 19  1  0  0  0  0
 21 25  1  0  0  0  0
 22 21  2  0  0  0  0
 23 24  1  0  0  0  0
 23 22  1  0  0  0  0
 24 20  2  0  0  0  0
 26 22  1  0  0  0  0
 27 23  1  0  0  0  0
 28 29  1  0  0  0  0
 28 27  2  0  0  0  0
 30 31  1  0  0  0  0
 30 28  1  0  0  0  0
 31 33  2  0  0  0  0
 32 31  1  0  0  0  0
 33 27  1  0  0  0  0
M  END
>  <minimizedAffinity>
-5.86643362

>  <minimizedRMSD>
1.71887183

$$$$
