
 OpenBabel03272509253D

 22 23  0  0  0  0  0  0  0  0999 V2000
   37.7470   25.7180   35.6820 C   0  0  0  0  0  0  0  0  0  0  0  0
   36.6980   25.8530   35.9280 H   0  0  0  0  0  0  0  0  0  0  0  0
   37.8180   25.3480   34.6250 H   0  0  0  0  0  0  0  0  0  0  0  0
   38.6950   23.4100   38.5260 C   0  0  0  0  0  0  0  0  0  0  0  0
   38.0080   24.4190   37.8090 C   0  0  0  0  0  0  0  0  0  0  0  0
   38.3950   24.6820   36.5070 C   0  0  0  0  0  0  0  0  0  0  0  0
   39.4270   23.9610   35.9530 N   0  0  0  0  0  0  0  0  0  0  0  0
   40.0610   23.0090   36.6590 C   0  0  0  0  0  0  0  0  0  0  0  0
   39.7040   22.7240   37.9450 N   0  0  0  0  0  0  0  0  0  0  0  0
   38.3970   23.2060   39.5290 H   0  0  0  0  0  0  0  0  0  0  0  0
   37.2220   24.9470   38.2870 H   0  0  0  0  0  0  0  0  0  0  0  0
   40.8740   22.4470   36.2120 H   0  0  0  0  0  0  0  0  0  0  0  0
   38.5410   27.0120   35.7060 C   0  0  0  0  0  0  0  0  0  0  0  0
   39.1940   27.0770   36.5960 H   0  0  0  0  0  0  0  0  0  0  0  0
   37.9270   27.9020   35.6860 H   0  0  0  0  0  0  0  0  0  0  0  0
   39.4140   27.0390   34.4760 C   0  0  0  0  0  0  0  0  0  0  0  0
   38.7010   27.0430   33.1010 C   0  0  0  0  0  0  0  0  0  0  0  0
   37.7070   27.0280   33.0160 H   0  0  0  0  0  0  0  0  0  0  0  0
   40.1310   27.0790   32.0100 S   0  0  0  0  0  0  0  0  0  0  0  0
   41.3920   27.0830   33.4290 C   0  0  0  0  0  0  0  0  0  0  0  0
   42.4470   27.1020   33.2230 H   0  0  0  0  0  0  0  0  0  0  0  0
   40.7470   27.0600   34.5120 N   0  0  0  0  0  0  0  0  0  0  0  0
  1 13  1  0  0  0  0
  1  2  1  0  0  0  0
  1  6  1  0  0  0  0
  3  1  1  0  0  0  0
  4 10  1  0  0  0  0
  5 11  1  0  0  0  0
  5  4  2  0  0  0  0
  6  5  1  0  0  0  0
  7  6  2  0  0  0  0
  7  8  1  0  0  0  0
  8  9  2  0  0  0  0
  9  4  1  0  0  0  0
 12  8  1  0  0  0  0
 13 14  1  0  0  0  0
 15 13  1  0  0  0  0
 16 22  1  0  0  0  0
 16 13  1  0  0  0  0
 17 16  2  0  0  0  0
 18 17  1  0  0  0  0
 19 17  1  0  0  0  0
 19 20  1  0  0  0  0
 20 22  2  0  0  0  0
 21 20  1  0  0  0  0
M  END
>  <minimizedAffinity>
-3.83714032

$$$$

 OpenBabel03272509253D

 22 23  0  0  0  0  0  0  0  0999 V2000
   38.7460   26.8770   35.7400 C   0  0  0  0  0  0  0  0  0  0  0  0
   38.2770   27.8020   36.0630 H   0  0  0  0  0  0  0  0  0  0  0  0
   39.5520   26.6140   36.4740 H   0  0  0  0  0  0  0  0  0  0  0  0
   41.3630   27.1990   33.0270 C   0  0  0  0  0  0  0  0  0  0  0  0
   40.8020   27.0630   34.3200 C   0  0  0  0  0  0  0  0  0  0  0  0
   39.4240   27.0090   34.4380 C   0  0  0  0  0  0  0  0  0  0  0  0
   38.6480   27.0890   33.3060 N   0  0  0  0  0  0  0  0  0  0  0  0
   39.2100   27.2190   32.0910 C   0  0  0  0  0  0  0  0  0  0  0  0
   40.5660   27.2740   31.9390 N   0  0  0  0  0  0  0  0  0  0  0  0
   42.4250   27.2390   32.9360 H   0  0  0  0  0  0  0  0  0  0  0  0
   41.4480   27.0100   35.1600 H   0  0  0  0  0  0  0  0  0  0  0  0
   38.5890   27.2820   31.2050 H   0  0  0  0  0  0  0  0  0  0  0  0
   37.7990   25.6900   35.7460 C   0  0  0  0  0  0  0  0  0  0  0  0
   37.6620   25.2690   34.7320 H   0  0  0  0  0  0  0  0  0  0  0  0
   36.8180   25.9140   36.1410 H   0  0  0  0  0  0  0  0  0  0  0  0
   38.4050   24.6220   36.6230 C   0  0  0  0  0  0  0  0  0  0  0  0
   39.5670   23.7900   36.0260 C   0  0  0  0  0  0  0  0  0  0  0  0
   39.9110   23.9420   35.1010 H   0  0  0  0  0  0  0  0  0  0  0  0
   39.9170   22.7040   37.4160 S   0  0  0  0  0  0  0  0  0  0  0  0
   38.5680   23.4500   38.5230 C   0  0  0  0  0  0  0  0  0  0  0  0
   38.4090   23.0770   39.5180 H   0  0  0  0  0  0  0  0  0  0  0  0
   37.9980   24.3630   37.8660 N   0  0  0  0  0  0  0  0  0  0  0  0
  1 13  1  0  0  0  0
  1  2  1  0  0  0  0
  1  3  1  0  0  0  0
  4  5  1  0  0  0  0
  5  6  2  0  0  0  0
  5 11  1  0  0  0  0
  6  1  1  0  0  0  0
  7  6  1  0  0  0  0
  8  7  2  0  0  0  0
  9  8  1  0  0  0  0
  9  4  2  0  0  0  0
 10  4  1  0  0  0  0
 12  8  1  0  0  0  0
 13 15  1  0  0  0  0
 13 16  1  0  0  0  0
 14 13  1  0  0  0  0
 16 22  1  0  0  0  0
 17 16  2  0  0  0  0
 17 19  1  0  0  0  0
 18 17  1  0  0  0  0
 19 20  1  0  0  0  0
 20 21  1  0  0  0  0
 22 20  2  0  0  0  0
M  END
>  <minimizedAffinity>
-3.7202127

$$$$

 OpenBabel03272509253D

 22 23  0  0  0  0  0  0  0  0999 V2000
   38.1310   25.3600   34.9180 C   0  0  0  0  0  0  0  0  0  0  0  0
   37.3080   24.9170   34.3650 H   0  0  0  0  0  0  0  0  0  0  0  0
   39.0120   25.4480   34.2300 H   0  0  0  0  0  0  0  0  0  0  0  0
   38.4530   23.6470   38.2760 C   0  0  0  0  0  0  0  0  0  0  0  0
   37.9370   24.4860   37.2580 C   0  0  0  0  0  0  0  0  0  0  0  0
   38.5850   24.5130   36.0360 C   0  0  0  0  0  0  0  0  0  0  0  0
   39.7000   23.7320   35.8470 N   0  0  0  0  0  0  0  0  0  0  0  0
   40.1670   22.9440   36.8330 C   0  0  0  0  0  0  0  0  0  0  0  0
   39.5520   22.8930   38.0500 N   0  0  0  0  0  0  0  0  0  0  0  0
   37.9530   23.6240   39.2180 H   0  0  0  0  0  0  0  0  0  0  0  0
   37.0760   25.0710   37.4600 H   0  0  0  0  0  0  0  0  0  0  0  0
   41.0480   22.3320   36.6730 H   0  0  0  0  0  0  0  0  0  0  0  0
   37.8470   26.7770   35.3840 C   0  0  0  0  0  0  0  0  0  0  0  0
   38.7790   27.3550   35.5320 H   0  0  0  0  0  0  0  0  0  0  0  0
   37.2820   26.8300   36.3050 H   0  0  0  0  0  0  0  0  0  0  0  0
   37.0310   27.4590   34.3150 C   0  0  0  0  0  0  0  0  0  0  0  0
   37.1070   26.8720   32.8840 C   0  0  0  0  0  0  0  0  0  0  0  0
   37.6680   26.0760   32.6630 H   0  0  0  0  0  0  0  0  0  0  0  0
   35.9990   28.0000   32.0260 S   0  0  0  0  0  0  0  0  0  0  0  0
   35.6130   29.0250   33.5750 C   0  0  0  0  0  0  0  0  0  0  0  0
   34.9450   29.8660   33.5230 H   0  0  0  0  0  0  0  0  0  0  0  0
   36.2600   28.5240   34.5350 N   0  0  0  0  0  0  0  0  0  0  0  0
  1 13  1  0  0  0  0
  1  6  1  0  0  0  0
  2  1  1  0  0  0  0
  3  1  1  0  0  0  0
  4 10  1  0  0  0  0
  5 11  1  0  0  0  0
  5  4  2  0  0  0  0
  6  5  1  0  0  0  0
  7  6  2  0  0  0  0
  7  8  1  0  0  0  0
  8  9  2  0  0  0  0
  9  4  1  0  0  0  0
 12  8  1  0  0  0  0
 13 14  1  0  0  0  0
 13 15  1  0  0  0  0
 16 22  1  0  0  0  0
 16 13  1  0  0  0  0
 17 16  2  0  0  0  0
 18 17  1  0  0  0  0
 19 17  1  0  0  0  0
 19 20  1  0  0  0  0
 20 22  2  0  0  0  0
 21 20  1  0  0  0  0
M  END
>  <minimizedAffinity>
-3.68569279

$$$$

 OpenBabel03272509253D

 22 23  0  0  0  0  0  0  0  0999 V2000
   37.7050   25.6740   35.5810 C   0  0  0  0  0  0  0  0  0  0  0  0
   37.5020   26.5930   36.1230 H   0  0  0  0  0  0  0  0  0  0  0  0
   36.7250   25.2090   35.2940 H   0  0  0  0  0  0  0  0  0  0  0  0
   38.7200   23.3880   38.4190 C   0  0  0  0  0  0  0  0  0  0  0  0
   37.9920   24.3650   37.6980 C   0  0  0  0  0  0  0  0  0  0  0  0
   38.3930   24.6660   36.4090 C   0  0  0  0  0  0  0  0  0  0  0  0
   39.4780   24.0150   35.8710 N   0  0  0  0  0  0  0  0  0  0  0  0
   40.1500   23.0910   36.5810 C   0  0  0  0  0  0  0  0  0  0  0  0
   39.7810   22.7690   37.8550 N   0  0  0  0  0  0  0  0  0  0  0  0
   38.4110   23.1530   39.4130 H   0  0  0  0  0  0  0  0  0  0  0  0
   37.1660   24.8390   38.1640 H   0  0  0  0  0  0  0  0  0  0  0  0
   41.0050   22.5840   36.1470 H   0  0  0  0  0  0  0  0  0  0  0  0
   38.4380   25.8990   34.2710 C   0  0  0  0  0  0  0  0  0  0  0  0
   39.3560   25.2850   34.2030 H   0  0  0  0  0  0  0  0  0  0  0  0
   38.7220   26.9280   34.1000 H   0  0  0  0  0  0  0  0  0  0  0  0
   37.5140   25.4950   33.1500 C   0  0  0  0  0  0  0  0  0  0  0  0
   37.4910   23.9970   32.7560 C   0  0  0  0  0  0  0  0  0  0  0  0
   38.0590   23.3160   33.2150 H   0  0  0  0  0  0  0  0  0  0  0  0
   36.2770   24.0420   31.4290 S   0  0  0  0  0  0  0  0  0  0  0  0
   35.9860   25.9130   31.5690 C   0  0  0  0  0  0  0  0  0  0  0  0
   35.2860   26.4070   30.9190 H   0  0  0  0  0  0  0  0  0  0  0  0
   36.7270   26.3470   32.4920 N   0  0  0  0  0  0  0  0  0  0  0  0
  1  2  1  0  0  0  0
  1  6  1  0  0  0  0
  3  1  1  0  0  0  0
  4 10  1  0  0  0  0
  5 11  1  0  0  0  0
  5  4  2  0  0  0  0
  6  5  1  0  0  0  0
  7  6  2  0  0  0  0
  7  8  1  0  0  0  0
  8  9  2  0  0  0  0
  9  4  1  0  0  0  0
 12  8  1  0  0  0  0
 13  1  1  0  0  0  0
 14 13  1  0  0  0  0
 15 13  1  0  0  0  0
 16 13  1  0  0  0  0
 17 16  2  0  0  0  0
 17 18  1  0  0  0  0
 19 20  1  0  0  0  0
 19 17  1  0  0  0  0
 20 22  2  0  0  0  0
 21 20  1  0  0  0  0
 22 16  1  0  0  0  0
M  END
>  <minimizedAffinity>
-3.64074254

$$$$

 OpenBabel03272509253D

 22 23  0  0  0  0  0  0  0  0999 V2000
   37.7110   25.9460   35.7340 C   0  0  0  0  0  0  0  0  0  0  0  0
   37.4910   26.7840   36.3890 H   0  0  0  0  0  0  0  0  0  0  0  0
   36.7390   25.5230   35.3650 H   0  0  0  0  0  0  0  0  0  0  0  0
   38.7180   23.3520   38.2970 C   0  0  0  0  0  0  0  0  0  0  0  0
   38.0060   24.4210   37.7000 C   0  0  0  0  0  0  0  0  0  0  0  0
   38.3840   24.8380   36.4350 C   0  0  0  0  0  0  0  0  0  0  0  0
   39.4290   24.2080   35.8020 N   0  0  0  0  0  0  0  0  0  0  0  0
   40.0870   23.1950   36.3950 C   0  0  0  0  0  0  0  0  0  0  0  0
   39.7400   22.7590   37.6410 N   0  0  0  0  0  0  0  0  0  0  0  0
   38.4280   23.0290   39.2710 H   0  0  0  0  0  0  0  0  0  0  0  0
   37.2110   24.8730   38.2350 H   0  0  0  0  0  0  0  0  0  0  0  0
   40.9100   22.7060   35.8870 H   0  0  0  0  0  0  0  0  0  0  0  0
   38.4720   26.3450   34.4830 C   0  0  0  0  0  0  0  0  0  0  0  0
   39.3420   25.6860   34.3040 H   0  0  0  0  0  0  0  0  0  0  0  0
   38.8330   27.3640   34.4960 H   0  0  0  0  0  0  0  0  0  0  0  0
   37.5320   26.2150   33.3110 C   0  0  0  0  0  0  0  0  0  0  0  0
   37.0180   27.5260   32.6660 C   0  0  0  0  0  0  0  0  0  0  0  0
   37.2890   28.4270   33.0000 H   0  0  0  0  0  0  0  0  0  0  0  0
   35.9760   26.8460   31.3660 S   0  0  0  0  0  0  0  0  0  0  0  0
   36.3390   25.0400   31.8240 C   0  0  0  0  0  0  0  0  0  0  0  0
   35.8930   24.2350   31.2700 H   0  0  0  0  0  0  0  0  0  0  0  0
   37.1280   25.0470   32.8090 N   0  0  0  0  0  0  0  0  0  0  0  0
  1  2  1  0  0  0  0
  1  6  1  0  0  0  0
  3  1  1  0  0  0  0
  4 10  1  0  0  0  0
  5 11  1  0  0  0  0
  5  4  1  0  0  0  0
  6  5  2  0  0  0  0
  7  8  2  0  0  0  0
  7  6  1  0  0  0  0
  8  9  1  0  0  0  0
  9  4  2  0  0  0  0
 12  8  1  0  0  0  0
 13 15  1  0  0  0  0
 13  1  1  0  0  0  0
 14 13  1  0  0  0  0
 16 13  1  0  0  0  0
 17 18  1  0  0  0  0
 17 16  2  0  0  0  0
 19 20  1  0  0  0  0
 19 17  1  0  0  0  0
 20 22  2  0  0  0  0
 21 20  1  0  0  0  0
 22 16  1  0  0  0  0
M  END
>  <minimizedAffinity>
-3.62939954

$$$$

 OpenBabel03272509253D

 22 23  0  0  0  0  0  0  0  0999 V2000
   37.9100   27.4640   35.5520 C   0  0  0  0  0  0  0  0  0  0  0  0
   37.3090   27.1880   36.4130 H   0  0  0  0  0  0  0  0  0  0  0  0
   38.4540   28.4160   35.7910 H   0  0  0  0  0  0  0  0  0  0  0  0
   36.4650   27.4910   32.0560 C   0  0  0  0  0  0  0  0  0  0  0  0
   37.2940   27.1310   33.1460 C   0  0  0  0  0  0  0  0  0  0  0  0
   37.0940   27.7630   34.3610 C   0  0  0  0  0  0  0  0  0  0  0  0
   36.1070   28.7130   34.4730 N   0  0  0  0  0  0  0  0  0  0  0  0
   35.3350   29.0340   33.4180 C   0  0  0  0  0  0  0  0  0  0  0  0
   35.5050   28.4300   32.2060 N   0  0  0  0  0  0  0  0  0  0  0  0
   36.6170   27.0040   31.1190 H   0  0  0  0  0  0  0  0  0  0  0  0
   38.0430   26.3950   33.0030 H   0  0  0  0  0  0  0  0  0  0  0  0
   34.5600   29.7850   33.5170 H   0  0  0  0  0  0  0  0  0  0  0  0
   38.9980   26.4550   35.2310 C   0  0  0  0  0  0  0  0  0  0  0  0
   39.9590   26.7200   35.7120 H   0  0  0  0  0  0  0  0  0  0  0  0
   39.1860   26.3350   34.1730 H   0  0  0  0  0  0  0  0  0  0  0  0
   38.5560   25.1150   35.7650 C   0  0  0  0  0  0  0  0  0  0  0  0
   38.6700   23.9000   34.8120 C   0  0  0  0  0  0  0  0  0  0  0  0
   39.0200   23.9830   33.8810 H   0  0  0  0  0  0  0  0  0  0  0  0
   38.0430   22.6010   35.8880 S   0  0  0  0  0  0  0  0  0  0  0  0
   37.7360   23.7680   37.3530 C   0  0  0  0  0  0  0  0  0  0  0  0
   37.3350   23.3910   38.2770 H   0  0  0  0  0  0  0  0  0  0  0  0
   38.0800   24.9270   36.9970 N   0  0  0  0  0  0  0  0  0  0  0  0
  1  3  1  0  0  0  0
  1  2  1  0  0  0  0
  4  9  2  0  0  0  0
  4  5  1  0  0  0  0
  5  6  2  0  0  0  0
  6  7  1  0  0  0  0
  6  1  1  0  0  0  0
  8 12  1  0  0  0  0
  8  7  2  0  0  0  0
  9  8  1  0  0  0  0
 10  4  1  0  0  0  0
 11  5  1  0  0  0  0
 13  1  1  0  0  0  0
 13 14  1  0  0  0  0
 13 16  1  0  0  0  0
 15 13  1  0  0  0  0
 16 22  1  0  0  0  0
 17 16  2  0  0  0  0
 17 19  1  0  0  0  0
 18 17  1  0  0  0  0
 19 20  1  0  0  0  0
 20 21  1  0  0  0  0
 22 20  2  0  0  0  0
M  END
>  <minimizedAffinity>
-3.59484744

$$$$

 OpenBabel03272509253D

 22 23  0  0  0  0  0  0  0  0999 V2000
   37.8010   27.4040   35.4740 C   0  0  0  0  0  0  0  0  0  0  0  0
   37.2320   26.9850   36.2990 H   0  0  0  0  0  0  0  0  0  0  0  0
   38.2240   28.3900   35.8020 H   0  0  0  0  0  0  0  0  0  0  0  0
   35.2960   28.9640   33.1070 C   0  0  0  0  0  0  0  0  0  0  0  0
   36.0660   28.7590   34.2780 C   0  0  0  0  0  0  0  0  0  0  0  0
   36.9620   27.7050   34.3000 C   0  0  0  0  0  0  0  0  0  0  0  0
   37.0780   26.8960   33.1940 N   0  0  0  0  0  0  0  0  0  0  0  0
   36.3330   27.1160   32.0960 C   0  0  0  0  0  0  0  0  0  0  0  0
   35.4400   28.1470   32.0410 N   0  0  0  0  0  0  0  0  0  0  0  0
   34.6060   29.7770   33.0890 H   0  0  0  0  0  0  0  0  0  0  0  0
   35.9320   29.4110   35.1040 H   0  0  0  0  0  0  0  0  0  0  0  0
   36.4320   26.4710   31.2300 H   0  0  0  0  0  0  0  0  0  0  0  0
   39.0050   26.5640   35.0860 C   0  0  0  0  0  0  0  0  0  0  0  0
   39.9510   27.0120   35.4450 H   0  0  0  0  0  0  0  0  0  0  0  0
   39.1040   26.4060   34.0220 H   0  0  0  0  0  0  0  0  0  0  0  0
   38.8480   25.2090   35.7310 C   0  0  0  0  0  0  0  0  0  0  0  0
   39.9540   24.1610   35.4530 C   0  0  0  0  0  0  0  0  0  0  0  0
   40.7430   24.3580   34.8740 H   0  0  0  0  0  0  0  0  0  0  0  0
   39.3190   22.7780   36.4140 S   0  0  0  0  0  0  0  0  0  0  0  0
   37.7810   23.7150   37.0110 C   0  0  0  0  0  0  0  0  0  0  0  0
   37.0660   23.2380   37.6570 H   0  0  0  0  0  0  0  0  0  0  0  0
   37.8230   24.8750   36.5160 N   0  0  0  0  0  0  0  0  0  0  0  0
  1  3  1  0  0  0  0
  1  2  1  0  0  0  0
  4  5  1  0  0  0  0
  5  6  2  0  0  0  0
  5 11  1  0  0  0  0
  6  1  1  0  0  0  0
  7  6  1  0  0  0  0
  8  7  2  0  0  0  0
  9  8  1  0  0  0  0
  9  4  2  0  0  0  0
 10  4  1  0  0  0  0
 12  8  1  0  0  0  0
 13 14  1  0  0  0  0
 13  1  1  0  0  0  0
 13 16  1  0  0  0  0
 15 13  1  0  0  0  0
 16 22  1  0  0  0  0
 17 16  2  0  0  0  0
 17 19  1  0  0  0  0
 18 17  1  0  0  0  0
 19 20  1  0  0  0  0
 20 21  1  0  0  0  0
 22 20  2  0  0  0  0
M  END
>  <minimizedAffinity>
-3.58781481

$$$$

 OpenBabel03272509253D

 22 23  0  0  0  0  0  0  0  0999 V2000
   38.3320   25.9030   34.1320 C   0  0  0  0  0  0  0  0  0  0  0  0
   39.1140   26.6490   34.0270 H   0  0  0  0  0  0  0  0  0  0  0  0
   38.7980   24.8870   34.0320 H   0  0  0  0  0  0  0  0  0  0  0  0
   35.8230   27.1600   31.5950 C   0  0  0  0  0  0  0  0  0  0  0  0
   36.7930   27.1840   32.6260 C   0  0  0  0  0  0  0  0  0  0  0  0
   37.3240   25.9820   33.0590 C   0  0  0  0  0  0  0  0  0  0  0  0
   36.8980   24.8100   32.4810 N   0  0  0  0  0  0  0  0  0  0  0  0
   35.9740   24.8180   31.5030 C   0  0  0  0  0  0  0  0  0  0  0  0
   35.4300   25.9860   31.0520 N   0  0  0  0  0  0  0  0  0  0  0  0
   35.4140   28.0860   31.2590 H   0  0  0  0  0  0  0  0  0  0  0  0
   37.0830   28.1170   33.0390 H   0  0  0  0  0  0  0  0  0  0  0  0
   35.6440   23.8880   31.0550 H   0  0  0  0  0  0  0  0  0  0  0  0
   37.6770   25.9080   35.5010 C   0  0  0  0  0  0  0  0  0  0  0  0
   36.5840   25.7490   35.4340 H   0  0  0  0  0  0  0  0  0  0  0  0
   37.8390   26.8180   36.0610 H   0  0  0  0  0  0  0  0  0  0  0  0
   38.2710   24.7750   36.3000 C   0  0  0  0  0  0  0  0  0  0  0  0
   39.4580   24.0080   35.6670 C   0  0  0  0  0  0  0  0  0  0  0  0
   39.8250   24.2410   34.7680 H   0  0  0  0  0  0  0  0  0  0  0  0
   39.7840   22.8100   36.9690 S   0  0  0  0  0  0  0  0  0  0  0  0
   38.3970   23.4460   38.0970 C   0  0  0  0  0  0  0  0  0  0  0  0
   38.2160   22.9880   39.0530 H   0  0  0  0  0  0  0  0  0  0  0  0
   37.8340   24.4070   37.5050 N   0  0  0  0  0  0  0  0  0  0  0  0
  1 13  1  0  0  0  0
  2  1  1  0  0  0  0
  3  1  1  0  0  0  0
  4  5  1  0  0  0  0
  5 11  1  0  0  0  0
  5  6  2  0  0  0  0
  6  1  1  0  0  0  0
  7  6  1  0  0  0  0
  8  7  2  0  0  0  0
  9  8  1  0  0  0  0
  9  4  2  0  0  0  0
 10  4  1  0  0  0  0
 12  8  1  0  0  0  0
 13 15  1  0  0  0  0
 13 16  1  0  0  0  0
 14 13  1  0  0  0  0
 16 22  1  0  0  0  0
 17 16  2  0  0  0  0
 17 19  1  0  0  0  0
 18 17  1  0  0  0  0
 19 20  1  0  0  0  0
 20 21  1  0  0  0  0
 22 20  2  0  0  0  0
M  END
>  <minimizedAffinity>
-3.57988334

$$$$

 OpenBabel03272509253D

 22 23  0  0  0  0  0  0  0  0999 V2000
   38.2490   23.9020   34.5330 C   0  0  0  0  0  0  0  0  0  0  0  0
   38.7160   24.8000   34.1380 H   0  0  0  0  0  0  0  0  0  0  0  0
   37.1380   24.0020   34.4140 H   0  0  0  0  0  0  0  0  0  0  0  0
   37.9630   24.0940   38.3010 C   0  0  0  0  0  0  0  0  0  0  0  0
   37.6580   24.3070   36.9340 C   0  0  0  0  0  0  0  0  0  0  0  0
   38.4780   23.7320   35.9790 C   0  0  0  0  0  0  0  0  0  0  0  0
   39.5550   22.9770   36.3820 N   0  0  0  0  0  0  0  0  0  0  0  0
   39.8190   22.7920   37.6880 C   0  0  0  0  0  0  0  0  0  0  0  0
   39.0300   23.3450   38.6550 N   0  0  0  0  0  0  0  0  0  0  0  0
   37.3310   24.5360   39.0370 H   0  0  0  0  0  0  0  0  0  0  0  0
   36.8180   24.9020   36.6800 H   0  0  0  0  0  0  0  0  0  0  0  0
   40.6710   22.1960   37.9940 H   0  0  0  0  0  0  0  0  0  0  0  0
   38.6210   22.6450   33.7680 C   0  0  0  0  0  0  0  0  0  0  0  0
   39.1850   21.9330   34.3980 H   0  0  0  0  0  0  0  0  0  0  0  0
   39.2100   22.8310   32.8800 H   0  0  0  0  0  0  0  0  0  0  0  0
   37.3410   21.9780   33.3280 C   0  0  0  0  0  0  0  0  0  0  0  0
   36.8770   22.2270   31.8720 C   0  0  0  0  0  0  0  0  0  0  0  0
   37.3920   22.8020   31.2380 H   0  0  0  0  0  0  0  0  0  0  0  0
   35.3680   21.2480   31.8550 S   0  0  0  0  0  0  0  0  0  0  0  0
   35.5460   20.6830   33.6580 C   0  0  0  0  0  0  0  0  0  0  0  0
   34.8120   20.0360   34.1040 H   0  0  0  0  0  0  0  0  0  0  0  0
   36.6020   21.1980   34.1170 N   0  0  0  0  0  0  0  0  0  0  0  0
  1  6  1  0  0  0  0
  2  1  1  0  0  0  0
  3  1  1  0  0  0  0
  4  9  1  0  0  0  0
  4 10  1  0  0  0  0
  5  4  2  0  0  0  0
  6  7  2  0  0  0  0
  6  5  1  0  0  0  0
  7  8  1  0  0  0  0
  8 12  1  0  0  0  0
  8  9  2  0  0  0  0
 11  5  1  0  0  0  0
 13 14  1  0  0  0  0
 13  1  1  0  0  0  0
 15 13  1  0  0  0  0
 16 13  1  0  0  0  0
 16 22  1  0  0  0  0
 17 16  2  0  0  0  0
 18 17  1  0  0  0  0
 19 17  1  0  0  0  0
 19 20  1  0  0  0  0
 20 21  1  0  0  0  0
 20 22  2  0  0  0  0
M  END
>  <minimizedAffinity>
-3.54735065

$$$$
