
 OpenBabel03272500383D

 34 36  0  0  1  0  0  0  0  0999 V2000
   36.7640   31.1630   48.9170 C   0  0  0  0  0  0  0  0  0  0  0  0
   37.0520   32.2800   49.7300 C   0  0  0  0  0  0  0  0  0  0  0  0
   37.9960   33.1930   49.2540 C   0  0  0  0  0  0  0  0  0  0  0  0
   38.5770   32.9490   48.0400 N   0  0  0  0  0  0  0  0  0  0  0  0
   38.2680   31.8680   47.3020 C   0  0  0  0  0  0  0  0  0  0  0  0
   37.3630   30.9710   47.7330 N   0  0  0  0  0  0  0  0  0  0  0  0
   38.9370   31.7090   46.0430 N   0  0  0  0  0  0  0  0  0  0  0  0
   40.1730   30.9560   46.0000 C   0  0  0  0  0  0  0  0  0  0  0  0
   41.1070   31.8070   45.1330 C   0  0  0  0  0  0  0  0  0  0  0  0
   40.5340   31.6870   43.7470 C   0  0  0  0  0  0  0  0  0  0  0  0
   39.2300   32.4040   43.6940 C   0  0  0  0  0  0  0  0  0  0  0  0
   38.3530   32.2960   44.8990 C   0  0  1  0  0  0  0  0  0  0  0  0
   36.5650   32.4260   50.6820 H   0  0  0  0  0  0  0  0  0  0  0  0
   38.2330   34.0430   49.8460 H   0  0  0  0  0  0  0  0  0  0  0  0
   40.6150   30.8510   47.0070 H   0  0  0  0  0  0  0  0  0  0  0  0
   40.0580   29.9830   45.4680 H   0  0  0  0  0  0  0  0  0  0  0  0
   42.0740   31.2400   45.1190 H   0  0  0  0  0  0  0  0  0  0  0  0
   41.1850   32.8340   45.4920 H   0  0  0  0  0  0  0  0  0  0  0  0
   40.4330   30.6000   43.5370 H   0  0  0  0  0  0  0  0  0  0  0  0
   41.2280   32.1350   43.0100 H   0  0  0  0  0  0  0  0  0  0  0  0
   38.6690   31.9510   42.8350 H   0  0  0  0  0  0  0  0  0  0  0  0
   39.4300   33.4440   43.3630 H   0  0  0  0  0  0  0  0  0  0  0  0
   38.1360   33.3610   45.1970 H   0  0  0  0  0  0  0  0  0  0  0  0
   37.0720   31.6020   44.5930 C   0  0  0  0  0  0  0  0  0  0  0  0
   36.6510   30.3240   45.2040 C   0  0  0  0  0  0  0  0  0  0  0  0
   37.4240   29.8470   45.9890 H   0  0  0  0  0  0  0  0  0  0  0  0
   35.0240   30.0650   44.4080 S   0  0  0  0  0  0  0  0  0  0  0  0
   35.1550   31.6370   43.4260 C   0  0  0  0  0  0  0  0  0  0  0  0
   34.3400   31.9130   42.7530 H   0  0  0  0  0  0  0  0  0  0  0  0
   36.2170   32.1090   43.7420 N   0  0  0  0  0  0  0  0  0  0  0  0
   35.7520   30.1700   49.4100 C   0  0  0  0  0  0  0  0  0  0  0  0
   34.4820   30.7680   49.3900 F   0  0  0  0  0  0  0  0  0  0  0  0
   35.8350   29.0540   48.6580 F   0  0  0  0  0  0  0  0  0  0  0  0
   36.0310   29.9280   50.7490 F   0  0  0  0  0  0  0  0  0  0  0  0
  1 31  1  0  0  0  0
  1  2  1  0  0  0  0
  2 13  1  0  0  0  0
  3  2  2  0  0  0  0
  3 14  1  0  0  0  0
  4  3  1  0  0  0  0
  5  6  1  0  0  0  0
  5  4  2  0  0  0  0
  6  1  2  0  0  0  0
  7  5  1  0  0  0  0
  8  7  1  0  0  0  0
  8 15  1  0  0  0  0
  9 18  1  0  0  0  0
  9  8  1  0  0  0  0
 10  9  1  0  0  0  0
 11 10  1  0  0  0  0
 11 12  1  0  0  0  0
 12 23  1  1  0  0  0
 12  7  1  0  0  0  0
 16  8  1  0  0  0  0
 17  9  1  0  0  0  0
 19 10  1  0  0  0  0
 20 10  1  0  0  0  0
 21 11  1  0  0  0  0
 22 11  1  0  0  0  0
 24 12  1  0  0  0  0
 24 25  2  0  0  0  0
 25 26  1  0  0  0  0
 27 25  1  0  0  0  0
 28 30  2  0  0  0  0
 28 27  1  0  0  0  0
 29 28  1  0  0  0  0
 30 24  1  0  0  0  0
 31 34  1  0  0  0  0
 32 31  1  0  0  0  0
 33 31  1  0  0  0  0
M  END
>  <minimizedAffinity>
-5.88314199

>  <minimizedRMSD>
0.349792242

$$$$
