
 OpenBabel03272510123D

 33 36  0  0  0  0  0  0  0  0999 V2000
   33.3130   28.3590   48.8930 C   0  0  0  0  0  0  0  0  0  0  0  0
   33.4760   28.9330   50.1040 C   0  0  0  0  0  0  0  0  0  0  0  0
   34.6540   29.5050   50.5560 C   0  0  0  0  0  0  0  0  0  0  0  0
   35.7530   29.5060   49.7470 C   0  0  0  0  0  0  0  0  0  0  0  0
   35.5940   28.9120   48.4870 C   0  0  0  0  0  0  0  0  0  0  0  0
   34.4190   28.3760   48.1150 N   0  0  0  0  0  0  0  0  0  0  0  0
   32.6610   28.9790   50.8140 H   0  0  0  0  0  0  0  0  0  0  0  0
   34.7830   29.9620   51.5220 H   0  0  0  0  0  0  0  0  0  0  0  0
   36.3620   28.8310   47.7310 H   0  0  0  0  0  0  0  0  0  0  0  0
   30.9210   27.6700   49.2040 C   0  0  0  0  0  0  0  0  0  0  0  0
   32.0910   27.7710   48.4340 C   0  0  0  0  0  0  0  0  0  0  0  0
   32.0240   27.2550   47.1470 C   0  0  0  0  0  0  0  0  0  0  0  0
   30.8460   26.6910   46.7140 N   0  0  0  0  0  0  0  0  0  0  0  0
   29.7630   26.6300   47.5100 C   0  0  0  0  0  0  0  0  0  0  0  0
   29.7880   27.1210   48.7690 N   0  0  0  0  0  0  0  0  0  0  0  0
   30.9410   28.0640   50.2120 H   0  0  0  0  0  0  0  0  0  0  0  0
   32.8500   27.2660   46.4480 H   0  0  0  0  0  0  0  0  0  0  0  0
   28.8410   26.1860   47.1630 H   0  0  0  0  0  0  0  0  0  0  0  0
   37.0140   30.0330   50.0320 O   0  0  0  0  0  0  0  0  0  0  0  0
   37.7220   30.7760   49.1030 C   0  0  0  0  0  0  0  0  0  0  0  0
   38.0640   32.0460   49.5200 C   0  0  0  0  0  0  0  0  0  0  0  0
   38.7660   32.6650   48.4900 C   0  0  0  0  0  0  0  0  0  0  0  0
   38.8280   31.7670   47.4970 N   0  0  0  0  0  0  0  0  0  0  0  0
   38.2170   30.6720   47.8670 N   0  0  0  0  0  0  0  0  0  0  0  0
   37.9130   32.6420   50.4310 H   0  0  0  0  0  0  0  0  0  0  0  0
   39.2310   33.6330   48.3330 H   0  0  0  0  0  0  0  0  0  0  0  0
   39.4040   31.7600   46.1710 C   0  0  0  0  0  0  0  0  0  0  0  0
   39.5240   30.5740   45.2060 C   0  0  0  0  0  0  0  0  0  0  0  0
   39.0970   29.7010   45.6740 H   0  0  0  0  0  0  0  0  0  0  0  0
   40.3380   31.4270   43.8350 S   0  0  0  0  0  0  0  0  0  0  0  0
   40.3930   33.1190   44.6950 C   0  0  0  0  0  0  0  0  0  0  0  0
   40.8390   33.8800   44.1180 H   0  0  0  0  0  0  0  0  0  0  0  0
   39.8490   32.9850   45.8640 N   0  0  0  0  0  0  0  0  0  0  0  0
  1  2  1  0  0  0  0
  2  3  2  0  0  0  0
  2  7  1  0  0  0  0
  3  8  1  0  0  0  0
  4 19  1  0  0  0  0
  4  3  1  0  0  0  0
  5  4  2  0  0  0  0
  6  5  1  0  0  0  0
  6  1  2  0  0  0  0
  9  5  1  0  0  0  0
 10 16  1  0  0  0  0
 11  1  1  0  0  0  0
 11 10  2  0  0  0  0
 12 11  1  0  0  0  0
 13 12  2  0  0  0  0
 13 14  1  0  0  0  0
 14 15  2  0  0  0  0
 15 10  1  0  0  0  0
 17 12  1  0  0  0  0
 18 14  1  0  0  0  0
 20 21  1  0  0  0  0
 20 19  1  0  0  0  0
 21 25  1  0  0  0  0
 22 21  2  0  0  0  0
 23 24  1  0  0  0  0
 23 22  1  0  0  0  0
 24 20  2  0  0  0  0
 26 22  1  0  0  0  0
 27 23  1  0  0  0  0
 28 29  1  0  0  0  0
 28 27  2  0  0  0  0
 30 31  1  0  0  0  0
 30 28  1  0  0  0  0
 31 33  2  0  0  0  0
 32 31  1  0  0  0  0
 33 27  1  0  0  0  0
M  END
>  <minimizedAffinity>
-5.71735096

>  <minimizedRMSD>
1.74423945

$$$$
