
 OpenBabel03262521463D

 28 29  0  0  0  0  0  0  0  0999 V2000
   36.9650   29.2550   50.6300 C   0  0  0  0  0  0  0  0  0  0  0  0
   37.4920   28.3440   50.9840 H   0  0  0  0  0  0  0  0  0  0  0  0
   36.7720   29.1030   49.5360 H   0  0  0  0  0  0  0  0  0  0  0  0
   37.7390   30.5150   50.8310 C   0  0  0  0  0  0  0  0  0  0  0  0
   37.2490   31.1970   51.5650 H   0  0  0  0  0  0  0  0  0  0  0  0
   38.7030   30.2150   51.3370 H   0  0  0  0  0  0  0  0  0  0  0  0
   38.1160   31.2050   49.6090 C   0  0  0  0  0  0  0  0  0  0  0  0
   38.5380   32.5180   49.5890 C   0  0  0  0  0  0  0  0  0  0  0  0
   38.8810   33.0990   48.3590 C   0  0  0  0  0  0  0  0  0  0  0  0
   38.7740   32.3150   47.2350 N   0  0  0  0  0  0  0  0  0  0  0  0
   38.3550   31.0270   47.2920 C   0  0  0  0  0  0  0  0  0  0  0  0
   38.0280   30.4880   48.5000 N   0  0  0  0  0  0  0  0  0  0  0  0
   38.6060   33.0970   50.4990 H   0  0  0  0  0  0  0  0  0  0  0  0
   39.2180   34.1260   48.2840 H   0  0  0  0  0  0  0  0  0  0  0  0
   38.2930   30.4600   46.3650 H   0  0  0  0  0  0  0  0  0  0  0  0
   35.7190   29.4070   51.2490 O   0  0  0  0  0  0  0  0  0  0  0  0
   34.7000   30.5440   49.1430 O   0  0  0  0  0  0  0  0  0  0  0  0
   34.4680   29.3850   50.1250 P   0  0  2  0  0  0  0  0  0  0  0  0
   32.9850   29.6940   50.8410 O   0  0  0  0  0  0  0  0  0  0  0  0
   32.8270   29.2340   51.6850 H   0  0  0  0  0  0  0  0  0  0  0  0
   34.3890   27.9210   49.3170 O   0  0  0  0  0  0  0  0  0  0  0  0
   33.4560   27.7620   48.2720 C   0  0  0  0  0  0  0  0  0  0  0  0
   33.7750   27.5690   46.8870 C   0  0  0  0  0  0  0  0  0  0  0  0
   34.7420   27.5380   46.5960 H   0  0  0  0  0  0  0  0  0  0  0  0
   32.1230   27.4500   46.1780 S   0  0  0  0  0  0  0  0  0  0  0  0
   31.2620   27.6820   47.8780 C   0  0  0  0  0  0  0  0  0  0  0  0
   30.1510   27.6950   48.0470 H   0  0  0  0  0  0  0  0  0  0  0  0
   32.2500   27.8260   48.8080 N   0  0  0  0  0  0  0  0  0  0  0  0
  1  4  1  0  0  0  0
  1  2  1  0  0  0  0
  1 16  1  0  0  0  0
  3  1  1  0  0  0  0
  4  6  1  0  0  0  0
  4  5  1  0  0  0  0
  7  4  1  0  0  0  0
  8  7  1  0  0  0  0
  8 13  1  0  0  0  0
  9  8  2  0  0  0  0
 10 11  2  0  0  0  0
 10  9  1  0  0  0  0
 11 12  1  0  0  0  0
 12  7  2  0  0  0  0
 14  9  1  0  0  0  0
 15 11  1  0  0  0  0
 18 17  2  6  0  0  0
 18 19  1  0  0  0  0
 18 16  1  0  0  0  0
 19 20  1  0  0  0  0
 21 18  1  0  0  0  0
 22 28  1  0  0  0  0
 22 21  1  0  0  0  0
 23 22  2  0  0  0  0
 24 23  1  0  0  0  0
 25 23  1  0  0  0  0
 25 26  1  0  0  0  0
 26 27  1  0  0  0  0
 26 28  2  0  0  0  0
M  END
>  <minimizedAffinity>
-5.06289387

>  <minimizedRMSD>
0.305989534

$$$$
