
 OpenBabel03272509543D

 41 44  0  0  0  0  0  0  0  0999 V2000
   34.3730   28.6920   48.0730 C   0  0  0  0  0  0  0  0  0  0  0  0
   35.3090   28.7510   47.4750 H   0  0  0  0  0  0  0  0  0  0  0  0
   33.8960   29.6900   48.0380 H   0  0  0  0  0  0  0  0  0  0  0  0
   33.5100   27.5950   47.5420 C   0  0  0  0  0  0  0  0  0  0  0  0
   33.7920   26.6070   47.9280 H   0  0  0  0  0  0  0  0  0  0  0  0
   33.6360   27.5310   46.4230 H   0  0  0  0  0  0  0  0  0  0  0  0
   32.0650   27.8290   47.7490 C   0  0  0  0  0  0  0  0  0  0  0  0
   31.4590   27.2210   48.8370 C   0  0  0  0  0  0  0  0  0  0  0  0
   30.1350   27.3610   49.1330 C   0  0  0  0  0  0  0  0  0  0  0  0
   29.3870   28.1210   48.3340 N   0  0  0  0  0  0  0  0  0  0  0  0
   29.9690   28.7210   47.2650 C   0  0  0  0  0  0  0  0  0  0  0  0
   31.2840   28.5950   46.9530 N   0  0  0  0  0  0  0  0  0  0  0  0
   32.0650   26.5960   49.4990 H   0  0  0  0  0  0  0  0  0  0  0  0
   29.6880   26.8730   49.9910 H   0  0  0  0  0  0  0  0  0  0  0  0
   29.1230   29.5610   46.3880 C   0  0  0  0  0  0  0  0  0  0  0  0
   29.5580   30.1230   45.1100 C   0  0  0  0  0  0  0  0  0  0  0  0
   30.5290   29.9220   44.7880 H   0  0  0  0  0  0  0  0  0  0  0  0
   27.9380   31.0170   44.6750 S   0  0  0  0  0  0  0  0  0  0  0  0
   27.0850   30.4470   46.2570 C   0  0  0  0  0  0  0  0  0  0  0  0
   26.0570   30.7810   46.3910 H   0  0  0  0  0  0  0  0  0  0  0  0
   27.9070   29.7700   46.8670 N   0  0  0  0  0  0  0  0  0  0  0  0
   34.8120   28.3840   49.3970 O   0  0  0  0  0  0  0  0  0  0  0  0
   37.1500   30.0170   51.6110 C   0  0  0  0  0  0  0  0  0  0  0  0
   37.9200   30.7340   50.6690 C   0  0  0  0  0  0  0  0  0  0  0  0
   37.5850   30.6090   49.3240 C   0  0  0  0  0  0  0  0  0  0  0  0
   36.5220   29.7890   49.0460 N   0  0  0  0  0  0  0  0  0  0  0  0
   35.8060   29.1210   49.9470 C   0  0  0  0  0  0  0  0  0  0  0  0
   36.1340   29.2450   51.2390 N   0  0  0  0  0  0  0  0  0  0  0  0
   37.4520   30.1500   52.6320 H   0  0  0  0  0  0  0  0  0  0  0  0
   38.7510   31.3730   50.9100 H   0  0  0  0  0  0  0  0  0  0  0  0
   38.7950   33.2310   49.2700 F   0  0  0  0  0  0  0  0  0  0  0  0
   38.8230   32.4850   48.1800 C   0  0  0  0  0  0  0  0  0  0  0  0
   38.2480   31.2560   48.2300 C   0  0  0  0  0  0  0  0  0  0  0  0
   38.3350   30.5530   47.0230 C   0  0  0  0  0  0  0  0  0  0  0  0
   38.9490   31.0700   45.9030 C   0  0  0  0  0  0  0  0  0  0  0  0
   39.5160   32.3220   45.9100 C   0  0  0  0  0  0  0  0  0  0  0  0
   39.4410   33.0250   47.0760 C   0  0  0  0  0  0  0  0  0  0  0  0
   37.9090   29.5530   46.9390 H   0  0  0  0  0  0  0  0  0  0  0  0
   38.9840   30.4710   44.9920 H   0  0  0  0  0  0  0  0  0  0  0  0
   39.9740   32.6620   45.0070 H   0  0  0  0  0  0  0  0  0  0  0  0
   39.8820   34.0120   47.0990 H   0  0  0  0  0  0  0  0  0  0  0  0
  1 22  1  0  0  0  0
  2  1  1  0  0  0  0
  3  1  1  0  0  0  0
  4  7  1  0  0  0  0
  4  5  1  0  0  0  0
  4  1  1  0  0  0  0
  6  4  1  0  0  0  0
  7  8  1  0  0  0  0
  8  9  2  0  0  0  0
  8 13  1  0  0  0  0
  9 14  1  0  0  0  0
 10  9  1  0  0  0  0
 11 10  2  0  0  0  0
 12 11  1  0  0  0  0
 12  7  2  0  0  0  0
 15 21  1  0  0  0  0
 15 11  1  0  0  0  0
 16 15  2  0  0  0  0
 17 16  1  0  0  0  0
 18 16  1  0  0  0  0
 18 19  1  0  0  0  0
 19 20  1  0  0  0  0
 19 21  2  0  0  0  0
 22 27  1  0  0  0  0
 23 29  1  0  0  0  0
 24 30  1  0  0  0  0
 24 23  2  0  0  0  0
 25 24  1  0  0  0  0
 26 25  2  0  0  0  0
 26 27  1  0  0  0  0
 27 28  2  0  0  0  0
 28 23  1  0  0  0  0
 32 33  1  0  0  0  0
 32 31  1  0  0  0  0
 33 25  1  0  0  0  0
 34 33  2  0  0  0  0
 35 36  2  0  0  0  0
 35 34  1  0  0  0  0
 36 37  1  0  0  0  0
 37 41  1  0  0  0  0
 37 32  2  0  0  0  0
 38 34  1  0  0  0  0
 39 35  1  0  0  0  0
 40 36  1  0  0  0  0
M  END
>  <minimizedAffinity>
-6.5979476

>  <minimizedRMSD>
0.664324522

$$$$
