
 OpenBabel03262521573D

 37 39  0  0  1  0  0  0  0  0999 V2000
   37.7850   25.0140   31.1820 C   0  0  1  0  0  0  0  0  0  0  0  0
   37.5490   25.7850   32.4560 C   0  0  2  0  0  0  0  0  0  0  0  0
   36.2630   26.5300   32.3110 C   0  0  0  0  0  0  0  0  0  0  0  0
   35.6560   26.3430   31.0790 O   0  0  0  0  0  0  0  0  0  0  0  0
   35.3640   25.0010   30.8540 C   0  0  0  0  0  0  0  0  0  0  0  0
   36.5750   24.1100   30.9810 C   0  0  2  0  0  0  0  0  0  0  0  0
   38.6980   24.4060   31.2870 H   0  0  0  0  0  0  0  0  0  0  0  0
   37.4810   25.0660   33.2820 H   0  0  0  0  0  0  0  0  0  0  0  0
   36.4220   27.6090   32.4380 H   0  0  0  0  0  0  0  0  0  0  0  0
   35.5440   26.2040   33.0890 H   0  0  0  0  0  0  0  0  0  0  0  0
   34.5280   24.6330   31.4990 H   0  0  0  0  0  0  0  0  0  0  0  0
   34.9900   24.9090   29.8100 H   0  0  0  0  0  0  0  0  0  0  0  0
   36.7040   23.4560   30.1160 H   0  0  0  0  0  0  0  0  0  0  0  0
   37.8300   25.8690   30.0720 O   0  0  0  0  0  0  0  0  0  0  0  0
   38.7920   25.9920   29.8830 H   0  0  0  0  0  0  0  0  0  0  0  0
   38.9290   26.8930   32.8320 S   0  0  0  0  0  0  0  0  0  0  0  0
   39.1600   27.0020   34.6230 C   0  0  0  0  0  0  0  0  0  0  0  0
   39.0990   28.0950   34.8820 H   0  0  0  0  0  0  0  0  0  0  0  0
   40.1970   26.7070   34.9300 H   0  0  0  0  0  0  0  0  0  0  0  0
   37.9000   26.1600   35.5730 S   0  0  0  0  0  0  0  0  0  0  0  0
   38.6420   24.7580   36.4030 C   0  0  0  0  0  0  0  0  0  0  0  0
   38.0800   24.4770   37.6310 C   0  0  0  0  0  0  0  0  0  0  0  0
   38.6090   23.3820   38.3490 C   0  0  0  0  0  0  0  0  0  0  0  0
   39.6440   22.6700   37.7880 N   0  0  0  0  0  0  0  0  0  0  0  0
   40.1280   23.0170   36.5860 C   0  0  0  0  0  0  0  0  0  0  0  0
   39.6430   24.0340   35.9070 N   0  0  0  0  0  0  0  0  0  0  0  0
   37.2750   25.0160   38.0870 H   0  0  0  0  0  0  0  0  0  0  0  0
   38.1870   23.1390   39.3150 H   0  0  0  0  0  0  0  0  0  0  0  0
   40.9440   22.4640   36.1290 H   0  0  0  0  0  0  0  0  0  0  0  0
   36.4790   23.3660   32.1460 O   0  0  0  0  0  0  0  0  0  0  0  0
   35.9800   22.0550   32.1680 C   0  0  0  0  0  0  0  0  0  0  0  0
   35.4940   21.2690   31.1390 C   0  0  0  0  0  0  0  0  0  0  0  0
   35.4490   21.6640   30.0300 H   0  0  0  0  0  0  0  0  0  0  0  0
   35.0480   19.7030   32.0030 S   0  0  0  0  0  0  0  0  0  0  0  0
   35.6250   20.4340   33.6580 C   0  0  0  0  0  0  0  0  0  0  0  0
   35.5240   19.7430   34.5790 H   0  0  0  0  0  0  0  0  0  0  0  0
   35.9670   21.4720   33.3480 N   0  0  0  0  0  0  0  0  0  0  0  0
  1  7  1  1  0  0  0
  1  2  1  0  0  0  0
  2 16  1  0  0  0  0
  2  8  1  1  0  0  0
  3  9  1  0  0  0  0
  3  2  1  0  0  0  0
  3 10  1  0  0  0  0
  4  3  1  0  0  0  0
  5  6  1  0  0  0  0
  5  4  1  0  0  0  0
  5 11  1  0  0  0  0
  6 13  1  6  0  0  0
  6  1  1  0  0  0  0
  6 30  1  0  0  0  0
 12  5  1  0  0  0  0
 14  1  1  0  0  0  0
 15 14  1  0  0  0  0
 16 17  1  0  0  0  0
 17 18  1  0  0  0  0
 17 19  1  0  0  0  0
 17 20  1  0  0  0  0
 20 21  1  0  0  0  0
 21 22  1  0  0  0  0
 22 27  1  0  0  0  0
 22 23  2  0  0  0  0
 23 28  1  0  0  0  0
 24 23  1  0  0  0  0
 25 24  2  0  0  0  0
 26 21  2  0  0  0  0
 26 25  1  0  0  0  0
 29 25  1  0  0  0  0
 30 31  1  0  0  0  0
 31 37  1  0  0  0  0
 32 34  1  0  0  0  0
 32 31  2  0  0  0  0
 33 32  1  0  0  0  0
 34 35  1  0  0  0  0
 35 36  1  0  0  0  0
 37 35  2  0  0  0  0
M  END
>  <minimizedAffinity>
-5.01978445

$$$$

 OpenBabel03262521573D

 37 39  0  0  1  0  0  0  0  0999 V2000
   37.4800   23.7470   31.1150 C   0  0  1  0  0  0  0  0  0  0  0  0
   37.7190   24.4910   32.4050 C   0  0  2  0  0  0  0  0  0  0  0  0
   36.7970   25.6650   32.4360 C   0  0  0  0  0  0  0  0  0  0  0  0
   36.0080   25.7730   31.3010 O   0  0  0  0  0  0  0  0  0  0  0  0
   35.2100   24.6470   31.1280 C   0  0  0  0  0  0  0  0  0  0  0  0
   36.0060   23.3650   31.0900 C   0  0  2  0  0  0  0  0  0  0  0  0
   38.1060   22.8390   31.0960 H   0  0  0  0  0  0  0  0  0  0  0  0
   37.4980   23.8110   33.2360 H   0  0  0  0  0  0  0  0  0  0  0  0
   37.3630   26.6020   32.5310 H   0  0  0  0  0  0  0  0  0  0  0  0
   36.1180   25.5930   33.3080 H   0  0  0  0  0  0  0  0  0  0  0  0
   34.3900   24.5850   31.8850 H   0  0  0  0  0  0  0  0  0  0  0  0
   34.6940   24.7470   30.1470 H   0  0  0  0  0  0  0  0  0  0  0  0
   35.7660   22.7500   30.2200 H   0  0  0  0  0  0  0  0  0  0  0  0
   37.6940   24.5740   30.0040 O   0  0  0  0  0  0  0  0  0  0  0  0
   38.5990   24.3410   29.6820 H   0  0  0  0  0  0  0  0  0  0  0  0
   39.4500   24.9910   32.5770 S   0  0  0  0  0  0  0  0  0  0  0  0
   40.4530   23.5710   33.0800 C   0  0  0  0  0  0  0  0  0  0  0  0
   41.1850   23.9590   33.8410 H   0  0  0  0  0  0  0  0  0  0  0  0
   41.0990   23.1980   32.2440 H   0  0  0  0  0  0  0  0  0  0  0  0
   39.5200   22.2610   33.8610 S   0  0  0  0  0  0  0  0  0  0  0  0
   39.4190   22.5920   35.6180 C   0  0  0  0  0  0  0  0  0  0  0  0
   38.2310   23.1750   36.0070 C   0  0  0  0  0  0  0  0  0  0  0  0
   38.0730   23.4670   37.3800 C   0  0  0  0  0  0  0  0  0  0  0  0
   39.1030   23.1560   38.2380 N   0  0  0  0  0  0  0  0  0  0  0  0
   40.2240   22.5880   37.7690 C   0  0  0  0  0  0  0  0  0  0  0  0
   40.3830   22.3110   36.4920 N   0  0  0  0  0  0  0  0  0  0  0  0
   37.4170   23.4260   35.3590 H   0  0  0  0  0  0  0  0  0  0  0  0
   37.1510   23.9260   37.7130 H   0  0  0  0  0  0  0  0  0  0  0  0
   41.0450   22.3360   38.4330 H   0  0  0  0  0  0  0  0  0  0  0  0
   35.7930   22.6570   32.2630 O   0  0  0  0  0  0  0  0  0  0  0  0
   35.7210   21.2570   32.2990 C   0  0  0  0  0  0  0  0  0  0  0  0
   35.4230   20.4050   33.3470 C   0  0  0  0  0  0  0  0  0  0  0  0
   35.1750   20.8160   34.4230 H   0  0  0  0  0  0  0  0  0  0  0  0
   35.5420   18.7410   32.5630 S   0  0  0  0  0  0  0  0  0  0  0  0
   35.9890   19.5400   30.9000 C   0  0  0  0  0  0  0  0  0  0  0  0
   36.1740   18.8120   30.0210 H   0  0  0  0  0  0  0  0  0  0  0  0
   35.9750   20.6460   31.1600 N   0  0  0  0  0  0  0  0  0  0  0  0
  1  7  1  6  0  0  0
  1  2  1  0  0  0  0
  2  3  1  0  0  0  0
  2 16  1  0  0  0  0
  2  8  1  1  0  0  0
  3  9  1  0  0  0  0
  3 10  1  0  0  0  0
  4  3  1  0  0  0  0
  5  4  1  0  0  0  0
  5 11  1  0  0  0  0
  6 13  1  6  0  0  0
  6  1  1  0  0  0  0
  6  5  1  0  0  0  0
  6 30  1  0  0  0  0
 12  5  1  0  0  0  0
 14  1  1  0  0  0  0
 15 14  1  0  0  0  0
 16 17  1  0  0  0  0
 17 18  1  0  0  0  0
 17 20  1  0  0  0  0
 19 17  1  0  0  0  0
 20 21  1  0  0  0  0
 21 22  2  0  0  0  0
 21 26  1  0  0  0  0
 22 23  1  0  0  0  0
 23 28  1  0  0  0  0
 23 24  2  0  0  0  0
 25 24  1  0  0  0  0
 25 29  1  0  0  0  0
 26 25  2  0  0  0  0
 27 22  1  0  0  0  0
 30 31  1  0  0  0  0
 31 32  2  0  0  0  0
 32 33  1  0  0  0  0
 34 32  1  0  0  0  0
 35 37  2  0  0  0  0
 35 34  1  0  0  0  0
 36 35  1  0  0  0  0
 37 31  1  0  0  0  0
M  END
>  <minimizedAffinity>
-4.89507055

$$$$

 OpenBabel03262521573D

 37 39  0  0  1  0  0  0  0  0999 V2000
   35.8280   26.8960   31.7470 C   0  0  1  0  0  0  0  0  0  0  0  0
   37.1040   26.4020   32.3800 C   0  0  2  0  0  0  0  0  0  0  0  0
   38.2320   27.2140   31.8340 C   0  0  0  0  0  0  0  0  0  0  0  0
   37.8280   28.1590   30.9040 O   0  0  0  0  0  0  0  0  0  0  0  0
   36.9230   29.0600   31.4560 C   0  0  0  0  0  0  0  0  0  0  0  0
   35.7210   28.3820   32.0660 C   0  0  2  0  0  0  0  0  0  0  0  0
   34.9710   26.3540   32.1800 H   0  0  0  0  0  0  0  0  0  0  0  0
   37.0230   26.5440   33.4640 H   0  0  0  0  0  0  0  0  0  0  0  0
   38.9740   26.5690   31.3440 H   0  0  0  0  0  0  0  0  0  0  0  0
   38.7460   27.7520   32.6550 H   0  0  0  0  0  0  0  0  0  0  0  0
   37.4040   29.7550   32.1870 H   0  0  0  0  0  0  0  0  0  0  0  0
   36.5550   29.7130   30.6330 H   0  0  0  0  0  0  0  0  0  0  0  0
   34.7780   28.8020   31.7090 H   0  0  0  0  0  0  0  0  0  0  0  0
   35.8810   26.7940   30.3500 O   0  0  0  0  0  0  0  0  0  0  0  0
   35.3770   25.9720   30.1340 H   0  0  0  0  0  0  0  0  0  0  0  0
   37.3500   24.6320   32.0940 S   0  0  0  0  0  0  0  0  0  0  0  0
   38.5920   23.9910   33.2430 C   0  0  0  0  0  0  0  0  0  0  0  0
   38.7990   24.8200   33.9760 H   0  0  0  0  0  0  0  0  0  0  0  0
   39.5790   23.8200   32.7400 H   0  0  0  0  0  0  0  0  0  0  0  0
   38.0490   22.5730   34.1860 S   0  0  0  0  0  0  0  0  0  0  0  0
   38.3930   22.8640   35.9180 C   0  0  0  0  0  0  0  0  0  0  0  0
   39.6680   22.5020   36.3020 C   0  0  0  0  0  0  0  0  0  0  0  0
   40.0170   22.7010   37.6560 C   0  0  0  0  0  0  0  0  0  0  0  0
   39.0750   23.2390   38.5030 N   0  0  0  0  0  0  0  0  0  0  0  0
   37.8580   23.5610   38.0400 C   0  0  0  0  0  0  0  0  0  0  0  0
   37.5210   23.3800   36.7810 N   0  0  0  0  0  0  0  0  0  0  0  0
   40.4170   22.0830   35.6620 H   0  0  0  0  0  0  0  0  0  0  0  0
   41.0110   22.4260   37.9840 H   0  0  0  0  0  0  0  0  0  0  0  0
   37.1030   23.9860   38.6960 H   0  0  0  0  0  0  0  0  0  0  0  0
   35.7990   28.4640   33.4480 O   0  0  0  0  0  0  0  0  0  0  0  0
   35.1330   29.4520   34.1860 C   0  0  0  0  0  0  0  0  0  0  0  0
   33.7800   29.7160   34.3060 C   0  0  0  0  0  0  0  0  0  0  0  0
   32.9740   29.0680   33.7430 H   0  0  0  0  0  0  0  0  0  0  0  0
   33.7500   31.1630   35.4480 S   0  0  0  0  0  0  0  0  0  0  0  0
   35.6460   31.1390   35.5520 C   0  0  0  0  0  0  0  0  0  0  0  0
   36.1260   31.9490   36.2230 H   0  0  0  0  0  0  0  0  0  0  0  0
   35.9060   30.2630   34.8770 N   0  0  0  0  0  0  0  0  0  0  0  0
  1  6  1  0  0  0  0
  1  7  1  1  0  0  0
  1  2  1  0  0  0  0
  2  8  1  1  0  0  0
  3  2  1  0  0  0  0
  3 10  1  0  0  0  0
  4  5  1  0  0  0  0
  4  3  1  0  0  0  0
  5  6  1  0  0  0  0
  5 11  1  0  0  0  0
  6 13  1  6  0  0  0
  6 30  1  0  0  0  0
  9  3  1  0  0  0  0
 12  5  1  0  0  0  0
 14  1  1  0  0  0  0
 15 14  1  0  0  0  0
 16  2  1  0  0  0  0
 16 17  1  0  0  0  0
 17 18  1  0  0  0  0
 17 20  1  0  0  0  0
 19 17  1  0  0  0  0
 20 21  1  0  0  0  0
 21 22  2  0  0  0  0
 21 26  1  0  0  0  0
 22 23  1  0  0  0  0
 23 28  1  0  0  0  0
 23 24  2  0  0  0  0
 25 24  1  0  0  0  0
 25 29  1  0  0  0  0
 26 25  2  0  0  0  0
 27 22  1  0  0  0  0
 30 31  1  0  0  0  0
 31 32  2  0  0  0  0
 31 37  1  0  0  0  0
 32 34  1  0  0  0  0
 33 32  1  0  0  0  0
 34 35  1  0  0  0  0
 35 36  1  0  0  0  0
 37 35  2  0  0  0  0
M  END
>  <minimizedAffinity>
-4.88707876

$$$$

 OpenBabel03262521573D

 37 39  0  0  1  0  0  0  0  0999 V2000
   37.0200   26.6870   34.6800 C   0  0  1  0  0  0  0  0  0  0  0  0
   37.5090   26.2140   33.3350 C   0  0  2  0  0  0  0  0  0  0  0  0
   38.9060   26.7090   33.1530 C   0  0  0  0  0  0  0  0  0  0  0  0
   39.3630   27.4670   34.2200 O   0  0  0  0  0  0  0  0  0  0  0  0
   39.3520   26.7370   35.4040 C   0  0  0  0  0  0  0  0  0  0  0  0
   37.9970   26.1530   35.7200 C   0  0  2  0  0  0  0  0  0  0  0  0
   36.0120   26.2820   34.8650 H   0  0  0  0  0  0  0  0  0  0  0  0
   37.4920   25.1170   33.3320 H   0  0  0  0  0  0  0  0  0  0  0  0
   38.9840   27.3320   32.2520 H   0  0  0  0  0  0  0  0  0  0  0  0
   39.6010   25.8550   33.0310 H   0  0  0  0  0  0  0  0  0  0  0  0
   40.1420   25.9460   35.4240 H   0  0  0  0  0  0  0  0  0  0  0  0
   39.6160   27.4330   36.2320 H   0  0  0  0  0  0  0  0  0  0  0  0
   37.6680   26.3870   36.7350 H   0  0  0  0  0  0  0  0  0  0  0  0
   37.0660   28.0850   34.7740 O   0  0  0  0  0  0  0  0  0  0  0  0
   36.1390   28.3830   34.6090 H   0  0  0  0  0  0  0  0  0  0  0  0
   36.4220   26.7630   31.9970 S   0  0  0  0  0  0  0  0  0  0  0  0
   35.7560   25.3290   31.1180 C   0  0  0  0  0  0  0  0  0  0  0  0
   35.4620   25.6970   30.0960 H   0  0  0  0  0  0  0  0  0  0  0  0
   34.7930   24.9730   31.5670 H   0  0  0  0  0  0  0  0  0  0  0  0
   36.9340   24.0050   30.8860 S   0  0  0  0  0  0  0  0  0  0  0  0
   36.5660   22.6930   32.0480 C   0  0  0  0  0  0  0  0  0  0  0  0
   35.4720   21.9280   31.6960 C   0  0  0  0  0  0  0  0  0  0  0  0
   35.1170   20.8710   32.5620 C   0  0  0  0  0  0  0  0  0  0  0  0
   35.8740   20.6690   33.6940 N   0  0  0  0  0  0  0  0  0  0  0  0
   36.9220   21.4640   33.9550 C   0  0  0  0  0  0  0  0  0  0  0  0
   37.2630   22.4520   33.1560 N   0  0  0  0  0  0  0  0  0  0  0  0
   34.8690   22.0670   30.8220 H   0  0  0  0  0  0  0  0  0  0  0  0
   34.2630   20.2560   32.3110 H   0  0  0  0  0  0  0  0  0  0  0  0
   37.5300   21.3170   34.8430 H   0  0  0  0  0  0  0  0  0  0  0  0
   38.0280   24.7820   35.5200 O   0  0  0  0  0  0  0  0  0  0  0  0
   38.8540   23.9280   36.2650 C   0  0  0  0  0  0  0  0  0  0  0  0
   39.9340   23.1600   35.8660 C   0  0  0  0  0  0  0  0  0  0  0  0
   40.3040   23.1500   34.7480 H   0  0  0  0  0  0  0  0  0  0  0  0
   40.4510   22.3440   37.4360 S   0  0  0  0  0  0  0  0  0  0  0  0
   39.0560   23.2280   38.3730 C   0  0  0  0  0  0  0  0  0  0  0  0
   38.9800   22.9990   39.5030 H   0  0  0  0  0  0  0  0  0  0  0  0
   38.5650   23.8330   37.5460 N   0  0  0  0  0  0  0  0  0  0  0  0
  1 14  1  0  0  0  0
  1  7  1  1  0  0  0
  1  6  1  0  0  0  0
  2  8  1  1  0  0  0
  2  1  1  0  0  0  0
  3  2  1  0  0  0  0
  3  4  1  0  0  0  0
  4  5  1  0  0  0  0
  5 11  1  0  0  0  0
  5  6  1  0  0  0  0
  5 12  1  0  0  0  0
  6 13  1  1  0  0  0
  9  3  1  0  0  0  0
 10  3  1  0  0  0  0
 15 14  1  0  0  0  0
 16  2  1  0  0  0  0
 17 19  1  0  0  0  0
 17 16  1  0  0  0  0
 18 17  1  0  0  0  0
 20 17  1  0  0  0  0
 20 21  1  0  0  0  0
 21 26  1  0  0  0  0
 22 21  2  0  0  0  0
 22 23  1  0  0  0  0
 23 24  2  0  0  0  0
 24 25  1  0  0  0  0
 25 29  1  0  0  0  0
 26 25  2  0  0  0  0
 27 22  1  0  0  0  0
 28 23  1  0  0  0  0
 30  6  1  0  0  0  0
 30 31  1  0  0  0  0
 31 37  1  0  0  0  0
 32 31  2  0  0  0  0
 32 34  1  0  0  0  0
 33 32  1  0  0  0  0
 34 35  1  0  0  0  0
 35 36  1  0  0  0  0
 37 35  2  0  0  0  0
M  END
>  <minimizedAffinity>
-4.85376072

$$$$

 OpenBabel03262521573D

 37 39  0  0  1  0  0  0  0  0999 V2000
   36.0500   27.0050   31.5530 C   0  0  1  0  0  0  0  0  0  0  0  0
   37.4970   26.8910   31.9600 C   0  0  2  0  0  0  0  0  0  0  0  0
   38.2600   27.9560   31.2450 C   0  0  0  0  0  0  0  0  0  0  0  0
   37.4710   28.7290   30.4070 O   0  0  0  0  0  0  0  0  0  0  0  0
   36.4590   29.3720   31.1120 C   0  0  0  0  0  0  0  0  0  0  0  0
   35.6000   28.4180   31.9050 C   0  0  2  0  0  0  0  0  0  0  0  0
   35.4530   26.2680   32.1150 H   0  0  0  0  0  0  0  0  0  0  0  0
   37.5590   27.0410   33.0440 H   0  0  0  0  0  0  0  0  0  0  0  0
   39.0590   27.5180   30.6310 H   0  0  0  0  0  0  0  0  0  0  0  0
   38.7370   28.6390   31.9760 H   0  0  0  0  0  0  0  0  0  0  0  0
   36.8490   30.1940   31.7620 H   0  0  0  0  0  0  0  0  0  0  0  0
   35.8000   29.8760   30.3700 H   0  0  0  0  0  0  0  0  0  0  0  0
   34.5340   28.5580   31.7140 H   0  0  0  0  0  0  0  0  0  0  0  0
   35.8990   26.8750   30.1660 O   0  0  0  0  0  0  0  0  0  0  0  0
   35.6070   25.9420   30.0260 H   0  0  0  0  0  0  0  0  0  0  0  0
   38.1590   25.2430   31.6150 S   0  0  0  0  0  0  0  0  0  0  0  0
   37.1560   23.9900   32.4500 C   0  0  0  0  0  0  0  0  0  0  0  0
   36.5920   24.5290   33.2610 H   0  0  0  0  0  0  0  0  0  0  0  0
   37.7880   23.2490   33.0040 H   0  0  0  0  0  0  0  0  0  0  0  0
   35.9450   23.2050   31.3950 S   0  0  0  0  0  0  0  0  0  0  0  0
   35.8260   21.4740   31.8390 C   0  0  0  0  0  0  0  0  0  0  0  0
   36.1600   20.6120   30.8150 C   0  0  0  0  0  0  0  0  0  0  0  0
   36.0920   19.2280   31.0870 C   0  0  0  0  0  0  0  0  0  0  0  0
   35.7010   18.8260   32.3440 N   0  0  0  0  0  0  0  0  0  0  0  0
   35.3950   19.7380   33.2780 C   0  0  0  0  0  0  0  0  0  0  0  0
   35.4540   21.0300   33.0370 N   0  0  0  0  0  0  0  0  0  0  0  0
   36.4670   20.9010   29.8310 H   0  0  0  0  0  0  0  0  0  0  0  0
   36.3480   18.5290   30.3020 H   0  0  0  0  0  0  0  0  0  0  0  0
   35.0840   19.4370   34.2750 H   0  0  0  0  0  0  0  0  0  0  0  0
   35.8780   28.5630   33.2550 O   0  0  0  0  0  0  0  0  0  0  0  0
   35.1730   29.4500   34.0810 C   0  0  0  0  0  0  0  0  0  0  0  0
   33.8120   29.5930   34.2810 C   0  0  0  0  0  0  0  0  0  0  0  0
   33.0320   28.9110   33.7200 H   0  0  0  0  0  0  0  0  0  0  0  0
   33.7250   30.9680   35.5060 S   0  0  0  0  0  0  0  0  0  0  0  0
   35.6190   31.0970   35.5180 C   0  0  0  0  0  0  0  0  0  0  0  0
   36.0670   31.9070   36.2110 H   0  0  0  0  0  0  0  0  0  0  0  0
   35.9140   30.2840   34.7810 N   0  0  0  0  0  0  0  0  0  0  0  0
  1  6  1  0  0  0  0
  1  2  1  0  0  0  0
  1  7  1  1  0  0  0
  2  8  1  1  0  0  0
  3  2  1  0  0  0  0
  3 10  1  0  0  0  0
  4  5  1  0  0  0  0
  4  3  1  0  0  0  0
  5 11  1  0  0  0  0
  5  6  1  0  0  0  0
  6 13  1  6  0  0  0
  6 30  1  0  0  0  0
  9  3  1  0  0  0  0
 12  5  1  0  0  0  0
 14  1  1  0  0  0  0
 15 14  1  0  0  0  0
 16  2  1  0  0  0  0
 16 17  1  0  0  0  0
 17 19  1  0  0  0  0
 17 18  1  0  0  0  0
 20 21  1  0  0  0  0
 20 17  1  0  0  0  0
 21 26  1  0  0  0  0
 22 23  1  0  0  0  0
 22 21  2  0  0  0  0
 23 24  2  0  0  0  0
 24 25  1  0  0  0  0
 25 29  1  0  0  0  0
 26 25  2  0  0  0  0
 27 22  1  0  0  0  0
 28 23  1  0  0  0  0
 30 31  1  0  0  0  0
 31 32  2  0  0  0  0
 31 37  1  0  0  0  0
 32 34  1  0  0  0  0
 33 32  1  0  0  0  0
 34 35  1  0  0  0  0
 35 36  1  0  0  0  0
 37 35  2  0  0  0  0
M  END
>  <minimizedAffinity>
-4.56134319

$$$$

 OpenBabel03262521573D

 37 39  0  0  1  0  0  0  0  0999 V2000
   37.6320   24.2910   31.5550 C   0  0  1  0  0  0  0  0  0  0  0  0
   36.1590   24.3250   31.8750 C   0  0  2  0  0  0  0  0  0  0  0  0
   35.6060   22.9570   31.6420 C   0  0  0  0  0  0  0  0  0  0  0  0
   36.5540   22.0530   31.1870 O   0  0  0  0  0  0  0  0  0  0  0  0
   37.5970   21.9090   32.0960 C   0  0  0  0  0  0  0  0  0  0  0  0
   38.2540   23.2220   32.4450 C   0  0  2  0  0  0  0  0  0  0  0  0
   38.0770   25.2750   31.7780 H   0  0  0  0  0  0  0  0  0  0  0  0
   36.0450   24.6070   32.9280 H   0  0  0  0  0  0  0  0  0  0  0  0
   34.7970   22.9860   30.8990 H   0  0  0  0  0  0  0  0  0  0  0  0
   35.1840   22.5520   32.5820 H   0  0  0  0  0  0  0  0  0  0  0  0
   37.2860   21.3610   33.0190 H   0  0  0  0  0  0  0  0  0  0  0  0
   38.3700   21.2650   31.6210 H   0  0  0  0  0  0  0  0  0  0  0  0
   39.3400   23.1890   32.3320 H   0  0  0  0  0  0  0  0  0  0  0  0
   37.8560   23.8850   30.2330 O   0  0  0  0  0  0  0  0  0  0  0  0
   38.0200   24.7210   29.7320 H   0  0  0  0  0  0  0  0  0  0  0  0
   35.2920   25.5750   30.8960 S   0  0  0  0  0  0  0  0  0  0  0  0
   36.2160   27.1310   30.9290 C   0  0  0  0  0  0  0  0  0  0  0  0
   35.7480   27.7900   30.1460 H   0  0  0  0  0  0  0  0  0  0  0  0
   37.2710   26.9990   30.5780 H   0  0  0  0  0  0  0  0  0  0  0  0
   36.1160   28.0040   32.4860 S   0  0  0  0  0  0  0  0  0  0  0  0
   37.5130   27.5350   33.5030 C   0  0  0  0  0  0  0  0  0  0  0  0
   37.2480   27.5540   34.8570 C   0  0  0  0  0  0  0  0  0  0  0  0
   38.3000   27.1940   35.7270 C   0  0  0  0  0  0  0  0  0  0  0  0
   39.5150   26.8510   35.1780 N   0  0  0  0  0  0  0  0  0  0  0  0
   39.6810   26.8610   33.8480 C   0  0  0  0  0  0  0  0  0  0  0  0
   38.7080   27.1940   33.0260 N   0  0  0  0  0  0  0  0  0  0  0  0
   36.3120   27.8170   35.3050 H   0  0  0  0  0  0  0  0  0  0  0  0
   38.1200   27.2000   36.7930 H   0  0  0  0  0  0  0  0  0  0  0  0
   40.6330   26.5930   33.3990 H   0  0  0  0  0  0  0  0  0  0  0  0
   37.9090   23.5800   33.7390 O   0  0  0  0  0  0  0  0  0  0  0  0
   38.7160   23.2840   34.8470 C   0  0  0  0  0  0  0  0  0  0  0  0
   39.9890   22.7440   34.9040 C   0  0  0  0  0  0  0  0  0  0  0  0
   40.5790   22.4520   33.9270 H   0  0  0  0  0  0  0  0  0  0  0  0
   40.3200   22.6810   36.7160 S   0  0  0  0  0  0  0  0  0  0  0  0
   38.6090   23.4250   37.0700 C   0  0  0  0  0  0  0  0  0  0  0  0
   38.3470   23.5830   38.1850 H   0  0  0  0  0  0  0  0  0  0  0  0
   38.1910   23.5580   36.0220 N   0  0  0  0  0  0  0  0  0  0  0  0
  1  7  1  1  0  0  0
  1  2  1  0  0  0  0
  1  6  1  0  0  0  0
  2  8  1  1  0  0  0
  3  2  1  0  0  0  0
  3 10  1  0  0  0  0
  4  3  1  0  0  0  0
  4  5  1  0  0  0  0
  5  6  1  0  0  0  0
  5 11  1  0  0  0  0
  6 13  1  6  0  0  0
  6 30  1  0  0  0  0
  9  3  1  0  0  0  0
 12  5  1  0  0  0  0
 14  1  1  0  0  0  0
 15 14  1  0  0  0  0
 16 17  1  0  0  0  0
 16  2  1  0  0  0  0
 17 20  1  0  0  0  0
 18 17  1  0  0  0  0
 19 17  1  0  0  0  0
 20 21  1  0  0  0  0
 21 22  1  0  0  0  0
 22 27  1  0  0  0  0
 22 23  2  0  0  0  0
 23 28  1  0  0  0  0
 24 23  1  0  0  0  0
 25 24  2  0  0  0  0
 26 21  2  0  0  0  0
 26 25  1  0  0  0  0
 29 25  1  0  0  0  0
 30 31  1  0  0  0  0
 31 32  2  0  0  0  0
 31 37  1  0  0  0  0
 32 34  1  0  0  0  0
 33 32  1  0  0  0  0
 34 35  1  0  0  0  0
 35 36  1  0  0  0  0
 37 35  2  0  0  0  0
M  END
>  <minimizedAffinity>
-4.51552773

$$$$

 OpenBabel03262521573D

 37 39  0  0  1  0  0  0  0  0999 V2000
   37.7710   24.9730   31.3780 C   0  0  1  0  0  0  0  0  0  0  0  0
   36.5050   25.7170   31.7220 C   0  0  2  0  0  0  0  0  0  0  0  0
   35.3490   24.8270   31.4060 C   0  0  0  0  0  0  0  0  0  0  0  0
   35.7270   23.6030   30.8770 O   0  0  0  0  0  0  0  0  0  0  0  0
   36.5400   22.8970   31.7580 C   0  0  0  0  0  0  0  0  0  0  0  0
   37.7580   23.6800   32.1850 C   0  0  2  0  0  0  0  0  0  0  0  0
   38.6430   25.5860   31.6600 H   0  0  0  0  0  0  0  0  0  0  0  0
   36.5260   25.9480   32.7930 H   0  0  0  0  0  0  0  0  0  0  0  0
   34.6770   25.3040   30.6800 H   0  0  0  0  0  0  0  0  0  0  0  0
   34.7610   24.6260   32.3240 H   0  0  0  0  0  0  0  0  0  0  0  0
   35.9780   22.5180   32.6460 H   0  0  0  0  0  0  0  0  0  0  0  0
   36.8990   21.9860   31.2290 H   0  0  0  0  0  0  0  0  0  0  0  0
   38.6840   23.1170   32.0520 H   0  0  0  0  0  0  0  0  0  0  0  0
   37.7890   24.5980   30.0280 O   0  0  0  0  0  0  0  0  0  0  0  0
   38.3590   25.2710   29.5830 H   0  0  0  0  0  0  0  0  0  0  0  0
   36.3980   27.2950   30.8430 S   0  0  0  0  0  0  0  0  0  0  0  0
   36.6890   28.6610   31.9940 C   0  0  0  0  0  0  0  0  0  0  0  0
   35.9510   29.4640   31.7190 H   0  0  0  0  0  0  0  0  0  0  0  0
   37.6880   29.1410   31.8290 H   0  0  0  0  0  0  0  0  0  0  0  0
   36.4050   28.2420   33.7080 S   0  0  0  0  0  0  0  0  0  0  0  0
   35.2970   29.4520   34.4230 C   0  0  0  0  0  0  0  0  0  0  0  0
   35.9390   30.4360   35.1470 C   0  0  0  0  0  0  0  0  0  0  0  0
   35.1320   31.4310   35.7430 C   0  0  0  0  0  0  0  0  0  0  0  0
   33.7690   31.3590   35.5690 N   0  0  0  0  0  0  0  0  0  0  0  0
   33.2320   30.3640   34.8470 C   0  0  0  0  0  0  0  0  0  0  0  0
   33.9730   29.4320   34.2870 N   0  0  0  0  0  0  0  0  0  0  0  0
   36.9960   30.5120   35.2950 H   0  0  0  0  0  0  0  0  0  0  0  0
   35.6090   32.2140   36.3160 H   0  0  0  0  0  0  0  0  0  0  0  0
   32.1580   30.2940   34.7010 H   0  0  0  0  0  0  0  0  0  0  0  0
   37.6110   24.0770   33.5050 O   0  0  0  0  0  0  0  0  0  0  0  0
   38.3410   23.4990   34.5540 C   0  0  0  0  0  0  0  0  0  0  0  0
   39.1560   22.3810   34.5630 C   0  0  0  0  0  0  0  0  0  0  0  0
   39.3340   21.7400   33.5910 H   0  0  0  0  0  0  0  0  0  0  0  0
   39.7260   22.3120   36.3150 S   0  0  0  0  0  0  0  0  0  0  0  0
   38.7160   23.8680   36.7210 C   0  0  0  0  0  0  0  0  0  0  0  0
   38.7720   24.2360   37.8150 H   0  0  0  0  0  0  0  0  0  0  0  0
   38.2440   24.1090   35.7170 N   0  0  0  0  0  0  0  0  0  0  0  0
  1  7  1  1  0  0  0
  1  2  1  0  0  0  0
  1  6  1  0  0  0  0
  2  8  1  1  0  0  0
  3  2  1  0  0  0  0
  3 10  1  0  0  0  0
  4  3  1  0  0  0  0
  4  5  1  0  0  0  0
  5  6  1  0  0  0  0
  5 11  1  0  0  0  0
  6 13  1  6  0  0  0
  6 30  1  0  0  0  0
  9  3  1  0  0  0  0
 12  5  1  0  0  0  0
 14  1  1  0  0  0  0
 15 14  1  0  0  0  0
 16  2  1  0  0  0  0
 16 17  1  0  0  0  0
 17 20  1  0  0  0  0
 18 17  1  0  0  0  0
 19 17  1  0  0  0  0
 20 21  1  0  0  0  0
 21 22  1  0  0  0  0
 22 27  1  0  0  0  0
 22 23  2  0  0  0  0
 23 28  1  0  0  0  0
 24 23  1  0  0  0  0
 25 24  2  0  0  0  0
 26 21  2  0  0  0  0
 26 25  1  0  0  0  0
 29 25  1  0  0  0  0
 30 31  1  0  0  0  0
 31 32  2  0  0  0  0
 31 37  1  0  0  0  0
 32 34  1  0  0  0  0
 33 32  1  0  0  0  0
 34 35  1  0  0  0  0
 35 36  1  0  0  0  0
 37 35  2  0  0  0  0
M  END
>  <minimizedAffinity>
-4.47218466

$$$$

 OpenBabel03262521573D

 37 39  0  0  1  0  0  0  0  0999 V2000
   38.1020   24.2210   35.7380 C   0  0  1  0  0  0  0  0  0  0  0  0
   39.1800   24.9550   34.9810 C   0  0  2  0  0  0  0  0  0  0  0  0
   40.4940   24.3480   35.3500 C   0  0  0  0  0  0  0  0  0  0  0  0
   40.3850   23.3230   36.2760 O   0  0  0  0  0  0  0  0  0  0  0  0
   39.5910   22.2860   35.7960 C   0  0  0  0  0  0  0  0  0  0  0  0
   38.2210   22.7490   35.3650 C   0  0  2  0  0  0  0  0  0  0  0  0
   37.1150   24.6100   35.4370 H   0  0  0  0  0  0  0  0  0  0  0  0
   38.9900   24.8270   33.9090 H   0  0  0  0  0  0  0  0  0  0  0  0
   41.1660   25.1050   35.7760 H   0  0  0  0  0  0  0  0  0  0  0  0
   40.9880   23.9320   34.4490 H   0  0  0  0  0  0  0  0  0  0  0  0
   40.0920   21.7090   34.9800 H   0  0  0  0  0  0  0  0  0  0  0  0
   39.4510   21.5570   36.6250 H   0  0  0  0  0  0  0  0  0  0  0  0
   37.4200   22.1570   35.8130 H   0  0  0  0  0  0  0  0  0  0  0  0
   38.3120   24.2970   37.1220 O   0  0  0  0  0  0  0  0  0  0  0  0
   37.7020   25.0090   37.4350 H   0  0  0  0  0  0  0  0  0  0  0  0
   39.1420   26.7320   35.3170 S   0  0  0  0  0  0  0  0  0  0  0  0
   37.5490   27.4200   34.8060 C   0  0  0  0  0  0  0  0  0  0  0  0
   37.6850   28.5370   34.7760 H   0  0  0  0  0  0  0  0  0  0  0  0
   36.7560   27.2620   35.5820 H   0  0  0  0  0  0  0  0  0  0  0  0
   37.0230   26.9070   33.1750 S   0  0  0  0  0  0  0  0  0  0  0  0
   36.3560   28.3250   32.3100 C   0  0  0  0  0  0  0  0  0  0  0  0
   35.3700   28.9910   33.0090 C   0  0  0  0  0  0  0  0  0  0  0  0
   34.7930   30.1230   32.3930 C   0  0  0  0  0  0  0  0  0  0  0  0
   35.2430   30.4910   31.1450 N   0  0  0  0  0  0  0  0  0  0  0  0
   36.2080   29.7820   30.5410 C   0  0  0  0  0  0  0  0  0  0  0  0
   36.7530   28.7250   31.1040 N   0  0  0  0  0  0  0  0  0  0  0  0
   35.0050   28.7240   33.9790 H   0  0  0  0  0  0  0  0  0  0  0  0
   34.0170   30.6640   32.9190 H   0  0  0  0  0  0  0  0  0  0  0  0
   36.5740   30.0590   29.5560 H   0  0  0  0  0  0  0  0  0  0  0  0
   38.1380   22.7170   33.9820 O   0  0  0  0  0  0  0  0  0  0  0  0
   37.0980   22.0670   33.3020 C   0  0  0  0  0  0  0  0  0  0  0  0
   36.6390   22.2310   32.0070 C   0  0  0  0  0  0  0  0  0  0  0  0
   37.1290   23.0120   31.2740 H   0  0  0  0  0  0  0  0  0  0  0  0
   35.2620   21.0090   31.9080 S   0  0  0  0  0  0  0  0  0  0  0  0
   35.5780   20.4850   33.7060 C   0  0  0  0  0  0  0  0  0  0  0  0
   34.8840   19.6590   34.1220 H   0  0  0  0  0  0  0  0  0  0  0  0
   36.4480   21.1550   33.9960 N   0  0  0  0  0  0  0  0  0  0  0  0
  1  7  1  6  0  0  0
  1 14  1  0  0  0  0
  2  8  1  6  0  0  0
  2 16  1  0  0  0  0
  2  3  1  0  0  0  0
  2  1  1  0  0  0  0
  3  9  1  0  0  0  0
  3  4  1  0  0  0  0
  5  4  1  0  0  0  0
  5 12  1  0  0  0  0
  6  1  1  0  0  0  0
  6  5  1  0  0  0  0
  6 13  1  1  0  0  0
 10  3  1  0  0  0  0
 11  5  1  0  0  0  0
 14 15  1  0  0  0  0
 17 16  1  0  0  0  0
 17 19  1  0  0  0  0
 18 17  1  0  0  0  0
 20 17  1  0  0  0  0
 21 22  1  0  0  0  0
 21 20  1  0  0  0  0
 22 27  1  0  0  0  0
 23 28  1  0  0  0  0
 23 22  2  0  0  0  0
 24 23  1  0  0  0  0
 25 26  1  0  0  0  0
 25 24  2  0  0  0  0
 26 21  2  0  0  0  0
 29 25  1  0  0  0  0
 30  6  1  0  0  0  0
 31 30  1  0  0  0  0
 31 37  1  0  0  0  0
 32 31  2  0  0  0  0
 33 32  1  0  0  0  0
 34 32  1  0  0  0  0
 34 35  1  0  0  0  0
 35 37  2  0  0  0  0
 35 36  1  0  0  0  0
M  END
>  <minimizedAffinity>
-4.37139177

$$$$

 OpenBabel03262521573D

 37 39  0  0  1  0  0  0  0  0999 V2000
   35.9100   27.1690   31.4760 C   0  0  1  0  0  0  0  0  0  0  0  0
   37.1010   26.6240   32.2220 C   0  0  2  0  0  0  0  0  0  0  0  0
   38.3350   27.1550   31.5690 C   0  0  0  0  0  0  0  0  0  0  0  0
   38.0710   27.9620   30.4730 O   0  0  0  0  0  0  0  0  0  0  0  0
   37.3030   29.0670   30.8280 C   0  0  0  0  0  0  0  0  0  0  0  0
   36.0160   28.6880   31.5190 C   0  0  2  0  0  0  0  0  0  0  0  0
   34.9840   26.8400   31.9770 H   0  0  0  0  0  0  0  0  0  0  0  0
   37.0420   26.9710   33.2600 H   0  0  0  0  0  0  0  0  0  0  0  0
   38.9770   26.3340   31.2240 H   0  0  0  0  0  0  0  0  0  0  0  0
   38.9200   27.7570   32.2920 H   0  0  0  0  0  0  0  0  0  0  0  0
   37.8790   29.8090   31.4340 H   0  0  0  0  0  0  0  0  0  0  0  0
   37.0330   29.6040   29.8910 H   0  0  0  0  0  0  0  0  0  0  0  0
   35.1440   29.1630   31.0660 H   0  0  0  0  0  0  0  0  0  0  0  0
   35.9480   26.8070   30.1230 O   0  0  0  0  0  0  0  0  0  0  0  0
   35.3320   26.0380   30.0460 H   0  0  0  0  0  0  0  0  0  0  0  0
   37.0910   24.8150   32.2680 S   0  0  0  0  0  0  0  0  0  0  0  0
   38.4860   24.2180   33.2550 C   0  0  0  0  0  0  0  0  0  0  0  0
   39.3870   24.7950   32.9050 H   0  0  0  0  0  0  0  0  0  0  0  0
   38.7370   23.1510   33.0210 H   0  0  0  0  0  0  0  0  0  0  0  0
   38.3160   24.5130   35.0100 S   0  0  0  0  0  0  0  0  0  0  0  0
   39.6540   23.6880   35.8670 C   0  0  0  0  0  0  0  0  0  0  0  0
   40.8980   23.9300   35.3220 C   0  0  0  0  0  0  0  0  0  0  0  0
   42.0070   23.3150   35.9430 C   0  0  0  0  0  0  0  0  0  0  0  0
   41.7830   22.5190   37.0430 N   0  0  0  0  0  0  0  0  0  0  0  0
   40.5360   22.3410   37.5040 C   0  0  0  0  0  0  0  0  0  0  0  0
   39.4950   22.9090   36.9340 N   0  0  0  0  0  0  0  0  0  0  0  0
   41.0960   24.5450   34.4680 H   0  0  0  0  0  0  0  0  0  0  0  0
   42.9940   23.4870   35.5360 H   0  0  0  0  0  0  0  0  0  0  0  0
   40.3430   21.7160   38.3710 H   0  0  0  0  0  0  0  0  0  0  0  0
   36.1050   29.0090   32.8650 O   0  0  0  0  0  0  0  0  0  0  0  0
   35.2570   29.9440   33.4770 C   0  0  0  0  0  0  0  0  0  0  0  0
   35.2370   31.3240   33.3850 C   0  0  0  0  0  0  0  0  0  0  0  0
   36.0100   31.9080   32.7150 H   0  0  0  0  0  0  0  0  0  0  0  0
   33.8310   31.7810   34.4860 S   0  0  0  0  0  0  0  0  0  0  0  0
   33.5220   29.9490   34.8780 C   0  0  0  0  0  0  0  0  0  0  0  0
   32.6480   29.7270   35.6010 H   0  0  0  0  0  0  0  0  0  0  0  0
   34.3310   29.4390   34.2640 N   0  0  0  0  0  0  0  0  0  0  0  0
  1  6  1  0  0  0  0
  1  7  1  1  0  0  0
  1  2  1  0  0  0  0
  2 16  1  0  0  0  0
  2  8  1  1  0  0  0
  3  2  1  0  0  0  0
  3 10  1  0  0  0  0
  4  5  1  0  0  0  0
  4  3  1  0  0  0  0
  5 11  1  0  0  0  0
  5  6  1  0  0  0  0
  6 13  1  6  0  0  0
  6 30  1  0  0  0  0
  9  3  1  0  0  0  0
 12  5  1  0  0  0  0
 14  1  1  0  0  0  0
 15 14  1  0  0  0  0
 16 17  1  0  0  0  0
 17 20  1  0  0  0  0
 18 17  1  0  0  0  0
 19 17  1  0  0  0  0
 20 21  1  0  0  0  0
 21 26  1  0  0  0  0
 22 21  2  0  0  0  0
 22 23  1  0  0  0  0
 23 24  2  0  0  0  0
 24 25  1  0  0  0  0
 25 29  1  0  0  0  0
 26 25  2  0  0  0  0
 27 22  1  0  0  0  0
 28 23  1  0  0  0  0
 30 31  1  0  0  0  0
 31 37  1  0  0  0  0
 32 31  2  0  0  0  0
 32 34  1  0  0  0  0
 33 32  1  0  0  0  0
 34 35  1  0  0  0  0
 35 36  1  0  0  0  0
 37 35  2  0  0  0  0
M  END
>  <minimizedAffinity>
-4.28247213

$$$$
