
 OpenBabel03272509353D

 45 49  0  0  1  0  0  0  0  0999 V2000
   35.9620   30.1680   44.2770 C   0  0  1  0  0  0  0  0  0  0  0  0
   36.7780   31.2100   44.9560 C   0  0  0  0  0  0  0  0  0  0  0  0
   37.4980   29.9880   44.6680 C   0  0  2  0  0  0  0  0  0  0  0  0
   35.8400   30.0670   43.2090 H   0  0  0  0  0  0  0  0  0  0  0  0
   36.6910   32.1440   44.4040 H   0  0  0  0  0  0  0  0  0  0  0  0
   36.4480   31.4060   46.0450 H   0  0  0  0  0  0  0  0  0  0  0  0
   37.5710   29.0810   45.2570 H   0  0  0  0  0  0  0  0  0  0  0  0
   38.4920   30.1850   43.5600 C   0  0  0  0  0  0  0  0  0  0  0  0
   38.8220   31.5470   43.4550 C   0  0  0  0  0  0  0  0  0  0  0  0
   39.7960   31.9480   42.5760 C   0  0  0  0  0  0  0  0  0  0  0  0
   40.4800   31.0250   41.7700 C   0  0  0  0  0  0  0  0  0  0  0  0
   40.1250   29.6900   41.9030 C   0  0  0  0  0  0  0  0  0  0  0  0
   40.7030   28.6890   41.1710 C   0  0  0  0  0  0  0  0  0  0  0  0
   40.3550   27.3670   41.2830 C   0  0  0  0  0  0  0  0  0  0  0  0
   39.3700   27.0160   42.1810 C   0  0  0  0  0  0  0  0  0  0  0  0
   38.7810   28.0180   42.9240 C   0  0  0  0  0  0  0  0  0  0  0  0
   39.1620   29.3380   42.7780 C   0  0  0  0  0  0  0  0  0  0  0  0
   38.5160   32.4620   43.9170 H   0  0  0  0  0  0  0  0  0  0  0  0
   40.1800   32.9320   42.3590 H   0  0  0  0  0  0  0  0  0  0  0  0
   41.2620   31.2090   41.0430 H   0  0  0  0  0  0  0  0  0  0  0  0
   41.4850   28.9190   40.4500 H   0  0  0  0  0  0  0  0  0  0  0  0
   40.8420   26.6040   40.6800 H   0  0  0  0  0  0  0  0  0  0  0  0
   39.0470   25.9980   42.3220 H   0  0  0  0  0  0  0  0  0  0  0  0
   37.9940   27.7170   43.6390 H   0  0  0  0  0  0  0  0  0  0  0  0
   33.5590   27.5040   45.4400 C   0  0  0  0  0  0  0  0  0  0  0  0
   34.4160   28.2750   44.5920 C   0  0  0  0  0  0  0  0  0  0  0  0
   35.0750   29.3400   45.1320 C   0  0  0  0  0  0  0  0  0  0  0  0
   34.8560   29.5860   46.4720 N   0  0  0  0  0  0  0  0  0  0  0  0
   34.0530   28.8560   47.2510 C   0  0  0  0  0  0  0  0  0  0  0  0
   33.3920   27.8030   46.7470 N   0  0  0  0  0  0  0  0  0  0  0  0
   33.0740   26.6790   44.9370 H   0  0  0  0  0  0  0  0  0  0  0  0
   34.5450   28.0360   43.5630 H   0  0  0  0  0  0  0  0  0  0  0  0
   33.9260   29.2510   48.6960 C   0  0  0  0  0  0  0  0  0  0  0  0
   33.9240   30.3300   48.8270 H   0  0  0  0  0  0  0  0  0  0  0  0
   32.9880   28.7700   49.0780 H   0  0  0  0  0  0  0  0  0  0  0  0
   35.0950   28.5920   49.4460 C   0  0  0  0  0  0  0  0  0  0  0  0
   35.5230   27.8200   48.7400 H   0  0  0  0  0  0  0  0  0  0  0  0
   34.7300   28.0190   50.2970 H   0  0  0  0  0  0  0  0  0  0  0  0
   36.1410   29.6060   49.7760 C   0  0  0  0  0  0  0  0  0  0  0  0
   37.4560   29.2260   50.2590 C   0  0  0  0  0  0  0  0  0  0  0  0
   37.7220   28.2040   50.3950 H   0  0  0  0  0  0  0  0  0  0  0  0
   38.2230   30.8510   50.4670 S   0  0  0  0  0  0  0  0  0  0  0  0
   36.6580   31.7800   49.8730 C   0  0  0  0  0  0  0  0  0  0  0  0
   36.5530   32.8710   49.7920 H   0  0  0  0  0  0  0  0  0  0  0  0
   35.8050   30.8660   49.6060 N   0  0  0  0  0  0  0  0  0  0  0  0
  1  4  1  6  0  0  0
  1  3  1  0  0  0  0
  1  2  1  0  0  0  0
  1 27  1  0  0  0  0
  2  6  1  0  0  0  0
  3  2  1  0  0  0  0
  3  7  1  1  0  0  0
  5  2  1  0  0  0  0
  8  3  1  0  0  0  0
  9  8  1  0  0  0  0
  9 18  1  0  0  0  0
 10  9  2  0  0  0  0
 11 12  2  0  0  0  0
 11 10  1  0  0  0  0
 12 17  1  0  0  0  0
 13 14  2  0  0  0  0
 13 12  1  0  0  0  0
 14 15  1  0  0  0  0
 15 23  1  0  0  0  0
 15 16  2  0  0  0  0
 16 24  1  0  0  0  0
 17 16  1  0  0  0  0
 17  8  2  0  0  0  0
 19 10  1  0  0  0  0
 20 11  1  0  0  0  0
 21 13  1  0  0  0  0
 22 14  1  0  0  0  0
 25 30  1  0  0  0  0
 26 27  1  0  0  0  0
 26 25  2  0  0  0  0
 27 28  2  0  0  0  0
 28 29  1  0  0  0  0
 29 33  1  0  0  0  0
 30 29  2  0  0  0  0
 31 25  1  0  0  0  0
 32 26  1  0  0  0  0
 33 34  1  0  0  0  0
 33 35  1  0  0  0  0
 33 36  1  0  0  0  0
 36 39  1  0  0  0  0
 36 38  1  0  0  0  0
 37 36  1  0  0  0  0
 39 40  2  0  0  0  0
 40 41  1  0  0  0  0
 40 42  1  0  0  0  0
 43 42  1  0  0  0  0
 44 43  1  0  0  0  0
 45 39  1  0  0  0  0
 45 43  2  0  0  0  0
M  END
>  <minimizedAffinity>
-4.84796906

>  <minimizedRMSD>
3.47394347

$$$$
