
 OpenBabel03272501573D

 29 31  0  0  0  0  0  0  0  0999 V2000
   34.4240   28.2650   48.0330 C   0  0  0  0  0  0  0  0  0  0  0  0
   34.7590   29.1680   47.5010 H   0  0  0  0  0  0  0  0  0  0  0  0
   34.8860   27.3380   47.5890 H   0  0  0  0  0  0  0  0  0  0  0  0
   32.9470   28.0890   47.8520 C   0  0  0  0  0  0  0  0  0  0  0  0
   32.1670   27.0580   48.3280 C   0  0  0  0  0  0  0  0  0  0  0  0
   30.8510   27.2110   47.9780 C   0  0  0  0  0  0  0  0  0  0  0  0
   30.8550   28.3630   47.2780 N   0  0  0  0  0  0  0  0  0  0  0  0
   32.0860   28.8870   47.1990 N   0  0  0  0  0  0  0  0  0  0  0  0
   32.5440   26.2120   48.9150 H   0  0  0  0  0  0  0  0  0  0  0  0
   29.9760   26.6360   48.1580 H   0  0  0  0  0  0  0  0  0  0  0  0
   29.7830   29.0810   46.6280 C   0  0  0  0  0  0  0  0  0  0  0  0
   29.7030   29.7180   45.2570 C   0  0  0  0  0  0  0  0  0  0  0  0
   30.8300   29.4780   44.7700 H   0  0  0  0  0  0  0  0  0  0  0  0
   28.0080   30.3800   45.3050 S   0  0  0  0  0  0  0  0  0  0  0  0
   27.6900   29.7360   47.0600 C   0  0  0  0  0  0  0  0  0  0  0  0
   26.7010   29.9840   47.4010 H   0  0  0  0  0  0  0  0  0  0  0  0
   28.7060   29.1800   47.3890 N   0  0  0  0  0  0  0  0  0  0  0  0
   34.6660   28.2740   49.5040 C   0  0  0  0  0  0  0  0  0  0  0  0
   34.8830   27.2770   49.9210 H   0  0  0  0  0  0  0  0  0  0  0  0
   33.7970   28.7250   50.0610 H   0  0  0  0  0  0  0  0  0  0  0  0
   37.2570   30.1670   51.3670 C   0  0  0  0  0  0  0  0  0  0  0  0
   38.0380   30.6780   50.3200 C   0  0  0  0  0  0  0  0  0  0  0  0
   37.6850   30.3790   49.0000 C   0  0  0  0  0  0  0  0  0  0  0  0
   36.5970   29.6050   48.7840 N   0  0  0  0  0  0  0  0  0  0  0  0
   35.8640   29.1280   49.8220 C   0  0  0  0  0  0  0  0  0  0  0  0
   36.1960   29.4090   51.0710 N   0  0  0  0  0  0  0  0  0  0  0  0
   37.4410   30.3350   52.4200 H   0  0  0  0  0  0  0  0  0  0  0  0
   38.8740   31.2750   50.5930 H   0  0  0  0  0  0  0  0  0  0  0  0
   38.2890   30.7740   48.1930 H   0  0  0  0  0  0  0  0  0  0  0  0
  1 18  1  0  0  0  0
  2  1  1  0  0  0  0
  3  1  1  0  0  0  0
  4  1  1  0  0  0  0
  4  5  1  0  0  0  0
  5  9  1  0  0  0  0
  6 10  1  0  0  0  0
  6  5  2  0  0  0  0
  7  6  1  0  0  0  0
  8  7  1  0  0  0  0
  8  4  2  0  0  0  0
 11  7  1  0  0  0  0
 11 17  1  0  0  0  0
 12 14  1  0  0  0  0
 12 11  2  0  0  0  0
 13 12  1  0  0  0  0
 14 15  1  0  0  0  0
 15 17  2  0  0  0  0
 15 16  1  0  0  0  0
 18 25  1  0  0  0  0
 18 19  1  0  0  0  0
 18 20  1  0  0  0  0
 21 27  1  0  0  0  0
 22 28  1  0  0  0  0
 22 21  2  0  0  0  0
 23 22  1  0  0  0  0
 24 23  2  0  0  0  0
 24 25  1  0  0  0  0
 25 26  2  0  0  0  0
 26 21  1  0  0  0  0
 29 23  1  0  0  0  0
M  END
>  <minimizedAffinity>
-4.73142767

>  <minimizedRMSD>
0.74602294

$$$$
