
 OpenBabel03272507553D

 21 22  0  0  0  0  0  0  0  0999 V2000
   34.9200   28.9330   50.1030 C   0  0  0  0  0  0  0  0  0  0  0  0
   36.0500   29.7140   49.7580 C   0  0  0  0  0  0  0  0  0  0  0  0
   36.0410   30.3600   48.5250 C   0  0  0  0  0  0  0  0  0  0  0  0
   34.9570   30.2140   47.7100 N   0  0  0  0  0  0  0  0  0  0  0  0
   33.8900   29.4500   48.0830 C   0  0  0  0  0  0  0  0  0  0  0  0
   33.8660   28.8100   49.2750 N   0  0  0  0  0  0  0  0  0  0  0  0
   32.8760   29.4340   47.0920 N   0  0  0  0  0  0  0  0  0  0  0  0
   34.8670   28.4060   51.0500 H   0  0  0  0  0  0  0  0  0  0  0  0
   32.1040   30.1330   46.9320 H   0  0  0  0  0  0  0  0  0  0  0  0
   33.1460   28.5350   46.5990 H   0  0  0  0  0  0  0  0  0  0  0  0
   37.1920   31.1780   48.1340 C   0  0  0  0  0  0  0  0  0  0  0  0
   37.9360   30.7360   47.0450 C   0  0  0  0  0  0  0  0  0  0  0  0
   37.8370   29.8770   46.3990 H   0  0  0  0  0  0  0  0  0  0  0  0
   39.2500   32.0110   46.8900 S   0  0  0  0  0  0  0  0  0  0  0  0
   38.5240   32.9500   48.3910 C   0  0  0  0  0  0  0  0  0  0  0  0
   38.8100   33.9120   48.9460 H   0  0  0  0  0  0  0  0  0  0  0  0
   37.6450   32.2980   48.6650 N   0  0  0  0  0  0  0  0  0  0  0  0
   37.1840   29.8120   50.7140 C   0  0  0  0  0  0  0  0  0  0  0  0
   38.4040   29.6570   50.0660 F   0  0  0  0  0  0  0  0  0  0  0  0
   37.1520   31.0520   51.2940 F   0  0  0  0  0  0  0  0  0  0  0  0
   37.1200   28.8620   51.7130 F   0  0  0  0  0  0  0  0  0  0  0  0
  1  8  1  0  0  0  0
  2  1  1  0  0  0  0
  2 18  1  0  0  0  0
  3  2  2  0  0  0  0
  4  5  2  0  0  0  0
  4  3  1  0  0  0  0
  5  6  1  0  0  0  0
  6  1  2  0  0  0  0
  7  5  1  0  0  0  0
  9  7  1  0  0  0  0
 10  7  1  0  0  0  0
 11  3  1  0  0  0  0
 11 17  1  0  0  0  0
 12 11  2  0  0  0  0
 13 12  1  0  0  0  0
 14 12  1  0  0  0  0
 14 15  1  0  0  0  0
 15 17  2  0  0  0  0
 15 16  1  0  0  0  0
 18 20  1  0  0  0  0
 18 21  1  0  0  0  0
 19 18  1  0  0  0  0
M  END
>  <minimizedAffinity>
-5.36967421

>  <minimizedRMSD>
1.19793832

$$$$
