
 OpenBabel03272507523D

 30 32  0  0  0  0  0  0  0  0999 V2000
   36.4940   31.2150   48.6970 N   0  0  0  0  0  0  0  0  0  0  0  0
   36.7360   32.0620   49.6910 C   0  0  0  0  0  0  0  0  0  0  0  0
   37.7940   32.9670   49.5870 C   0  0  0  0  0  0  0  0  0  0  0  0
   38.5040   32.8910   48.4300 C   0  0  0  0  0  0  0  0  0  0  0  0
   39.4620   33.7190   48.3480 O   0  0  0  0  0  0  0  0  0  0  0  0
   38.2950   32.0610   47.4150 N   0  0  0  0  0  0  0  0  0  0  0  0
   37.2580   31.2010   47.5600 C   0  0  0  0  0  0  0  0  0  0  0  0
   37.0440   30.3970   46.5950 O   0  0  0  0  0  0  0  0  0  0  0  0
   36.1100   32.0450   50.5770 H   0  0  0  0  0  0  0  0  0  0  0  0
   38.0080   33.6610   50.3790 H   0  0  0  0  0  0  0  0  0  0  0  0
   35.2620   29.5130   49.9160 C   0  0  0  0  0  0  0  0  0  0  0  0
   35.4290   30.2520   48.7290 C   0  0  0  0  0  0  0  0  0  0  0  0
   34.5660   30.0130   47.6540 C   0  0  0  0  0  0  0  0  0  0  0  0
   33.6020   29.0710   47.8110 N   0  0  0  0  0  0  0  0  0  0  0  0
   33.4470   28.3770   48.9270 C   0  0  0  0  0  0  0  0  0  0  0  0
   34.2690   28.5970   49.9680 N   0  0  0  0  0  0  0  0  0  0  0  0
   34.7230   30.6020   46.7510 H   0  0  0  0  0  0  0  0  0  0  0  0
   32.6750   27.6300   49.0380 H   0  0  0  0  0  0  0  0  0  0  0  0
   37.3810   29.2020   51.4020 C   0  0  0  0  0  0  0  0  0  0  0  0
   38.0700   28.5380   50.5990 O   0  0  0  0  0  0  0  0  0  0  0  0
   36.0670   29.6820   51.0630 N   0  0  0  0  0  0  0  0  0  0  0  0
   37.8380   29.3880   52.3600 H   0  0  0  0  0  0  0  0  0  0  0  0
   35.6790   30.2690   51.8580 H   0  0  0  0  0  0  0  0  0  0  0  0
   39.1000   32.0490   46.2200 C   0  0  0  0  0  0  0  0  0  0  0  0
   38.7800   32.7720   45.0240 C   0  0  0  0  0  0  0  0  0  0  0  0
   37.9060   33.3670   44.9670 H   0  0  0  0  0  0  0  0  0  0  0  0
   40.1260   32.3500   43.9600 S   0  0  0  0  0  0  0  0  0  0  0  0
   40.9580   31.2420   45.2760 C   0  0  0  0  0  0  0  0  0  0  0  0
   41.8880   30.7020   45.1190 H   0  0  0  0  0  0  0  0  0  0  0  0
   40.2090   31.3310   46.2040 N   0  0  0  0  0  0  0  0  0  0  0  0
  1 12  1  0  0  0  0
  1  2  1  0  0  0  0
  2  9  1  0  0  0  0
  3  2  2  0  0  0  0
  3 10  1  0  0  0  0
  4  3  1  0  0  0  0
  5  4  2  0  0  0  0
  6  7  1  0  0  0  0
  6  4  1  0  0  0  0
  7  1  1  0  0  0  0
  8  7  2  0  0  0  0
 11 16  1  0  0  0  0
 11 21  1  0  0  0  0
 12 11  2  0  0  0  0
 13 14  2  0  0  0  0
 13 12  1  0  0  0  0
 14 15  1  0  0  0  0
 15 18  1  0  0  0  0
 15 16  2  0  0  0  0
 17 13  1  0  0  0  0
 19 22  1  0  0  0  0
 20 19  2  0  0  0  0
 21 19  1  0  0  0  0
 21 23  1  0  0  0  0
 24  6  1  0  0  0  0
 25 24  2  0  0  0  0
 26 25  1  0  0  0  0
 27 25  1  0  0  0  0
 27 28  1  0  0  0  0
 28 30  2  0  0  0  0
 29 28  1  0  0  0  0
 30 24  1  0  0  0  0
M  END
>  <minimizedAffinity>
-5.90560484

>  <minimizedRMSD>
1.24422729

$$$$
