
 OpenBabel03272509353D

 45 49  0  0  1  0  0  0  0  0999 V2000
   37.4010   31.7880   48.7180 C   0  0  1  0  0  0  0  0  0  0  0  0
   38.8120   32.2380   48.8580 C   0  0  0  0  0  0  0  0  0  0  0  0
   38.5950   31.2940   47.7830 C   0  0  2  0  0  0  0  0  0  0  0  0
   36.6460   32.2760   48.1220 H   0  0  0  0  0  0  0  0  0  0  0  0
   38.8380   33.3260   48.8690 H   0  0  0  0  0  0  0  0  0  0  0  0
   39.3160   31.8590   49.8250 H   0  0  0  0  0  0  0  0  0  0  0  0
   38.5940   30.2100   47.8130 H   0  0  0  0  0  0  0  0  0  0  0  0
   38.7030   31.9570   46.4400 C   0  0  0  0  0  0  0  0  0  0  0  0
   39.8080   32.8250   46.4260 C   0  0  0  0  0  0  0  0  0  0  0  0
   40.1640   33.4600   45.2640 C   0  0  0  0  0  0  0  0  0  0  0  0
   39.4480   33.2640   44.0740 C   0  0  0  0  0  0  0  0  0  0  0  0
   38.3640   32.3990   44.1280 C   0  0  0  0  0  0  0  0  0  0  0  0
   37.5730   32.1270   43.0450 C   0  0  0  0  0  0  0  0  0  0  0  0
   36.4910   31.2840   43.0850 C   0  0  0  0  0  0  0  0  0  0  0  0
   36.1760   30.6700   44.2780 C   0  0  0  0  0  0  0  0  0  0  0  0
   36.9670   30.9380   45.3760 C   0  0  0  0  0  0  0  0  0  0  0  0
   38.0460   31.7950   45.2910 C   0  0  0  0  0  0  0  0  0  0  0  0
   40.5430   33.1640   47.1270 H   0  0  0  0  0  0  0  0  0  0  0  0
   40.9670   34.1510   45.0620 H   0  0  0  0  0  0  0  0  0  0  0  0
   39.6220   33.7000   43.0970 H   0  0  0  0  0  0  0  0  0  0  0  0
   37.7840   32.5890   42.0830 H   0  0  0  0  0  0  0  0  0  0  0  0
   35.8900   31.0970   42.1990 H   0  0  0  0  0  0  0  0  0  0  0  0
   35.3420   29.9960   44.3830 H   0  0  0  0  0  0  0  0  0  0  0  0
   36.6990   30.4360   46.3240 H   0  0  0  0  0  0  0  0  0  0  0  0
   35.1920   29.4540   50.6920 C   0  0  0  0  0  0  0  0  0  0  0  0
   35.6040   30.4860   49.7920 C   0  0  0  0  0  0  0  0  0  0  0  0
   36.9400   30.7160   49.6350 C   0  0  0  0  0  0  0  0  0  0  0  0
   37.7930   29.9180   50.3710 N   0  0  0  0  0  0  0  0  0  0  0  0
   37.3910   28.9580   51.2080 C   0  0  0  0  0  0  0  0  0  0  0  0
   36.0850   28.7100   51.3810 N   0  0  0  0  0  0  0  0  0  0  0  0
   34.1190   29.3360   50.7590 H   0  0  0  0  0  0  0  0  0  0  0  0
   34.8980   31.0700   49.2500 H   0  0  0  0  0  0  0  0  0  0  0  0
   38.4480   28.1710   51.9330 C   0  0  0  0  0  0  0  0  0  0  0  0
   39.3160   28.7780   52.1760 H   0  0  0  0  0  0  0  0  0  0  0  0
   37.9560   27.7390   52.8440 H   0  0  0  0  0  0  0  0  0  0  0  0
   38.8220   26.9840   51.0310 C   0  0  0  0  0  0  0  0  0  0  0  0
   39.3330   27.4280   50.1260 H   0  0  0  0  0  0  0  0  0  0  0  0
   37.9270   26.5040   50.6380 H   0  0  0  0  0  0  0  0  0  0  0  0
   39.7640   26.0670   51.7400 C   0  0  0  0  0  0  0  0  0  0  0  0
   40.8760   25.4280   51.0570 C   0  0  0  0  0  0  0  0  0  0  0  0
   41.0590   25.5940   50.0220 H   0  0  0  0  0  0  0  0  0  0  0  0
   41.6070   24.4800   52.4140 S   0  0  0  0  0  0  0  0  0  0  0  0
   40.3060   25.0910   53.6780 C   0  0  0  0  0  0  0  0  0  0  0  0
   40.2640   24.8110   54.7410 H   0  0  0  0  0  0  0  0  0  0  0  0
   39.5340   25.8660   53.0190 N   0  0  0  0  0  0  0  0  0  0  0  0
  1  4  1  6  0  0  0
  1  2  1  0  0  0  0
  1 27  1  0  0  0  0
  2  5  1  0  0  0  0
  2  6  1  0  0  0  0
  3  7  1  1  0  0  0
  3  1  1  0  0  0  0
  3  2  1  0  0  0  0
  8  3  1  0  0  0  0
  9  8  1  0  0  0  0
  9 18  1  0  0  0  0
 10  9  2  0  0  0  0
 11 12  2  0  0  0  0
 11 10  1  0  0  0  0
 12 17  1  0  0  0  0
 13 14  2  0  0  0  0
 13 12  1  0  0  0  0
 14 15  1  0  0  0  0
 15 23  1  0  0  0  0
 15 16  2  0  0  0  0
 16 24  1  0  0  0  0
 17 16  1  0  0  0  0
 17  8  2  0  0  0  0
 19 10  1  0  0  0  0
 20 11  1  0  0  0  0
 21 13  1  0  0  0  0
 22 14  1  0  0  0  0
 25 31  1  0  0  0  0
 25 30  1  0  0  0  0
 26 25  2  0  0  0  0
 27 26  1  0  0  0  0
 27 28  2  0  0  0  0
 28 29  1  0  0  0  0
 29 30  2  0  0  0  0
 29 33  1  0  0  0  0
 32 26  1  0  0  0  0
 33 34  1  0  0  0  0
 33 35  1  0  0  0  0
 36 39  1  0  0  0  0
 36 33  1  0  0  0  0
 37 36  1  0  0  0  0
 38 36  1  0  0  0  0
 39 45  1  0  0  0  0
 40 39  2  0  0  0  0
 40 42  1  0  0  0  0
 41 40  1  0  0  0  0
 42 43  1  0  0  0  0
 43 44  1  0  0  0  0
 45 43  2  0  0  0  0
M  END
>  <minimizedAffinity>
-4.13597727

>  <minimizedRMSD>
3.16680527

$$$$
