
 OpenBabel03272504243D

 37 40  0  0  0  0  0  0  0  0999 V2000
   31.7100   28.6050   46.7450 C   0  0  0  0  0  0  0  0  0  0  0  0
   32.6780   29.6270   46.7310 C   0  0  0  0  0  0  0  0  0  0  0  0
   32.6080   30.7500   45.9470 C   0  0  0  0  0  0  0  0  0  0  0  0
   31.5270   30.9460   45.0930 C   0  0  0  0  0  0  0  0  0  0  0  0
   30.5250   29.9880   45.0480 C   0  0  0  0  0  0  0  0  0  0  0  0
   30.6860   28.9020   45.8660 C   0  0  0  0  0  0  0  0  0  0  0  0
   33.4090   31.4910   46.0000 H   0  0  0  0  0  0  0  0  0  0  0  0
   31.5150   31.8300   44.5030 H   0  0  0  0  0  0  0  0  0  0  0  0
   29.6810   30.1020   44.4070 H   0  0  0  0  0  0  0  0  0  0  0  0
   29.8700   28.1620   45.8040 H   0  0  0  0  0  0  0  0  0  0  0  0
   35.8690   30.1480   48.4840 C   0  0  0  0  0  0  0  0  0  0  0  0
   35.7280   29.2410   49.4510 C   0  0  0  0  0  0  0  0  0  0  0  0
   34.6560   28.4770   49.5660 C   0  0  0  0  0  0  0  0  0  0  0  0
   33.6660   28.6240   48.6540 N   0  0  0  0  0  0  0  0  0  0  0  0
   33.7850   29.5200   47.6680 C   0  0  0  0  0  0  0  0  0  0  0  0
   34.8840   30.2810   47.5810 N   0  0  0  0  0  0  0  0  0  0  0  0
   36.4830   29.0740   50.2020 H   0  0  0  0  0  0  0  0  0  0  0  0
   34.4710   27.7180   50.3330 H   0  0  0  0  0  0  0  0  0  0  0  0
   38.1210   32.9380   49.3290 C   0  0  0  0  0  0  0  0  0  0  0  0
   39.0520   32.8860   48.2550 C   0  0  0  0  0  0  0  0  0  0  0  0
   38.8780   31.8830   47.2680 C   0  0  0  0  0  0  0  0  0  0  0  0
   37.8320   31.0180   47.3970 N   0  0  0  0  0  0  0  0  0  0  0  0
   36.9820   31.0910   48.4060 C   0  0  0  0  0  0  0  0  0  0  0  0
   37.1250   32.0540   49.3760 N   0  0  0  0  0  0  0  0  0  0  0  0
   38.1960   33.6760   50.1120 H   0  0  0  0  0  0  0  0  0  0  0  0
   39.8460   33.5990   48.2240 H   0  0  0  0  0  0  0  0  0  0  0  0
   39.5590   31.8230   46.4570 H   0  0  0  0  0  0  0  0  0  0  0  0
   31.7980   27.2400   47.7320 S   0  0  0  0  0  0  0  0  0  0  0  0
   30.7020   26.4290   47.1270 O   0  0  0  0  0  0  0  0  0  0  0  0
   31.2190   27.3630   49.0500 O   0  0  0  0  0  0  0  0  0  0  0  0
   32.7300   25.8140   47.3200 C   0  0  0  0  0  0  0  0  0  0  0  0
   33.9790   25.7380   46.6080 C   0  0  0  0  0  0  0  0  0  0  0  0
   34.4160   26.6840   46.2370 H   0  0  0  0  0  0  0  0  0  0  0  0
   34.4250   23.9500   46.5720 S   0  0  0  0  0  0  0  0  0  0  0  0
   32.8320   23.5810   47.5350 C   0  0  0  0  0  0  0  0  0  0  0  0
   32.4270   22.5790   47.8920 H   0  0  0  0  0  0  0  0  0  0  0  0
   32.3100   24.5980   47.7100 N   0  0  0  0  0  0  0  0  0  0  0  0
  1 28  1  0  0  0  0
  2  1  1  0  0  0  0
  2 15  1  0  0  0  0
  3  7  1  0  0  0  0
  3  2  2  0  0  0  0
  4  3  1  0  0  0  0
  5  4  2  0  0  0  0
  5  6  1  0  0  0  0
  6  1  2  0  0  0  0
  8  4  1  0  0  0  0
  9  5  1  0  0  0  0
 10  6  1  0  0  0  0
 11 12  1  0  0  0  0
 12 13  2  0  0  0  0
 12 17  1  0  0  0  0
 13 18  1  0  0  0  0
 14 13  1  0  0  0  0
 15 14  2  0  0  0  0
 16 15  1  0  0  0  0
 16 11  2  0  0  0  0
 19 24  1  0  0  0  0
 19 25  1  0  0  0  0
 20 19  2  0  0  0  0
 21 22  2  0  0  0  0
 21 20  1  0  0  0  0
 22 23  1  0  0  0  0
 23 11  1  0  0  0  0
 23 24  2  0  0  0  0
 26 20  1  0  0  0  0
 27 21  1  0  0  0  0
 28 30  2  0  0  0  0
 29 28  2  0  0  0  0
 31 37  1  0  0  0  0
 31 28  1  0  0  0  0
 32 31  2  0  0  0  0
 33 32  1  0  0  0  0
 34 32  1  0  0  0  0
 34 35  1  0  0  0  0
 35 37  2  0  0  0  0
 35 36  1  0  0  0  0
M  END
>  <minimizedAffinity>
-5.56949472

>  <minimizedRMSD>
1.02623904

$$$$
