
 OpenBabel03272509473D

 23 24  0  0  0  0  0  0  0  0999 V2000
   34.0740   28.4310   48.6260 C   0  0  0  0  0  0  0  0  0  0  0  0
   33.0920   28.9590   48.7640 H   0  0  0  0  0  0  0  0  0  0  0  0
   34.6510   29.0370   47.8810 H   0  0  0  0  0  0  0  0  0  0  0  0
   33.7950   27.1010   47.9660 C   0  0  0  0  0  0  0  0  0  0  0  0
   34.0610   26.2910   48.6570 H   0  0  0  0  0  0  0  0  0  0  0  0
   34.3790   26.9810   47.0470 H   0  0  0  0  0  0  0  0  0  0  0  0
   32.3130   27.0960   47.6890 C   0  0  0  0  0  0  0  0  0  0  0  0
   31.5500   27.6810   48.7840 C   0  0  0  0  0  0  0  0  0  0  0  0
   31.8120   28.1100   49.7340 H   0  0  0  0  0  0  0  0  0  0  0  0
   29.8060   27.5490   48.1970 S   0  0  0  0  0  0  0  0  0  0  0  0
   30.4010   26.7350   46.5880 C   0  0  0  0  0  0  0  0  0  0  0  0
   30.1030   26.2390   45.4930 H   0  0  0  0  0  0  0  0  0  0  0  0
   31.5230   26.6980   46.7110 N   0  0  0  0  0  0  0  0  0  0  0  0
   34.7610   28.2400   49.8390 O   0  0  0  0  0  0  0  0  0  0  0  0
   37.3540   30.2550   51.3940 C   0  0  0  0  0  0  0  0  0  0  0  0
   38.0310   30.6870   50.2400 C   0  0  0  0  0  0  0  0  0  0  0  0
   37.5670   30.2660   48.9980 C   0  0  0  0  0  0  0  0  0  0  0  0
   36.4690   29.4530   48.9820 N   0  0  0  0  0  0  0  0  0  0  0  0
   35.8450   29.0600   50.1160 C   0  0  0  0  0  0  0  0  0  0  0  0
   36.2990   29.4700   51.3050 N   0  0  0  0  0  0  0  0  0  0  0  0
   37.6880   30.5630   52.3800 H   0  0  0  0  0  0  0  0  0  0  0  0
   38.9020   31.3370   50.3210 H   0  0  0  0  0  0  0  0  0  0  0  0
   38.0570   30.5740   48.0820 H   0  0  0  0  0  0  0  0  0  0  0  0
  1  2  1  0  0  0  0
  1 14  1  0  0  0  0
  3  1  1  0  0  0  0
  4  1  1  0  0  0  0
  4  5  1  0  0  0  0
  6  4  1  0  0  0  0
  7  4  1  0  0  0  0
  7  8  2  0  0  0  0
  8  9  1  0  0  0  0
 10  8  1  0  0  0  0
 11 13  2  0  0  0  0
 11 10  1  0  0  0  0
 12 11  1  0  0  0  0
 13  7  1  0  0  0  0
 14 19  1  0  0  0  0
 15 21  1  0  0  0  0
 16 22  1  0  0  0  0
 16 15  2  0  0  0  0
 17 16  1  0  0  0  0
 18 17  2  0  0  0  0
 18 19  1  0  0  0  0
 19 20  2  0  0  0  0
 20 15  1  0  0  0  0
 23 17  1  0  0  0  0
M  END
>  <minimizedAffinity>
-3.94510317

>  <minimizedRMSD>
1.69916809

$$$$
