
 OpenBabel03272504013D

 29 31  0  0  0  0  0  0  0  0999 V2000
   36.3910   21.0890   31.7640 C   0  0  0  0  0  0  0  0  0  0  0  0
   36.1280   20.0470   31.5560 H   0  0  0  0  0  0  0  0  0  0  0  0
   37.4180   21.1800   31.3090 H   0  0  0  0  0  0  0  0  0  0  0  0
   36.4620   21.1980   33.2410 C   0  0  0  0  0  0  0  0  0  0  0  0
   35.5360   20.5500   34.0380 C   0  0  0  0  0  0  0  0  0  0  0  0
   35.8370   20.8190   35.3460 C   0  0  0  0  0  0  0  0  0  0  0  0
   36.9340   21.6180   35.3280 N   0  0  0  0  0  0  0  0  0  0  0  0
   37.2800   21.8260   34.0810 N   0  0  0  0  0  0  0  0  0  0  0  0
   34.6770   19.9150   33.8430 H   0  0  0  0  0  0  0  0  0  0  0  0
   35.4680   20.5860   36.3360 H   0  0  0  0  0  0  0  0  0  0  0  0
   37.7880   22.2750   36.2930 C   0  0  0  0  0  0  0  0  0  0  0  0
   37.3680   23.0760   37.4740 C   0  0  0  0  0  0  0  0  0  0  0  0
   36.3020   23.1410   37.5740 H   0  0  0  0  0  0  0  0  0  0  0  0
   38.8400   23.5440   38.1560 S   0  0  0  0  0  0  0  0  0  0  0  0
   39.9130   22.6630   36.8570 C   0  0  0  0  0  0  0  0  0  0  0  0
   41.0190   22.6440   36.8250 H   0  0  0  0  0  0  0  0  0  0  0  0
   39.0540   22.0750   35.9930 N   0  0  0  0  0  0  0  0  0  0  0  0
   35.5610   22.1510   31.1460 C   0  0  0  0  0  0  0  0  0  0  0  0
   35.3950   21.8320   30.0690 H   0  0  0  0  0  0  0  0  0  0  0  0
   34.4990   22.1380   31.5470 H   0  0  0  0  0  0  0  0  0  0  0  0
   36.0880   23.4910   31.0880 C   0  0  0  0  0  0  0  0  0  0  0  0
   37.4140   23.7090   30.8300 C   0  0  0  0  0  0  0  0  0  0  0  0
   37.9080   25.0420   30.7900 C   0  0  0  0  0  0  0  0  0  0  0  0
   36.9860   26.0380   31.0200 N   0  0  0  0  0  0  0  0  0  0  0  0
   35.6880   25.7670   31.2700 C   0  0  0  0  0  0  0  0  0  0  0  0
   35.2440   24.4840   31.3020 N   0  0  0  0  0  0  0  0  0  0  0  0
   38.2250   23.0330   30.6320 H   0  0  0  0  0  0  0  0  0  0  0  0
   38.9180   25.3530   30.6010 H   0  0  0  0  0  0  0  0  0  0  0  0
   35.0140   26.5960   31.4430 H   0  0  0  0  0  0  0  0  0  0  0  0
  1  4  1  0  0  0  0
  2  1  1  0  0  0  0
  3  1  1  0  0  0  0
  4  5  1  0  0  0  0
  4  8  2  0  0  0  0
  5  6  2  0  0  0  0
  6 10  1  0  0  0  0
  7  6  1  0  0  0  0
  7 11  1  0  0  0  0
  8  7  1  0  0  0  0
  9  5  1  0  0  0  0
 11 12  2  0  0  0  0
 12 13  1  0  0  0  0
 12 14  1  0  0  0  0
 15 14  1  0  0  0  0
 16 15  1  0  0  0  0
 17 11  1  0  0  0  0
 17 15  2  0  0  0  0
 18 20  1  0  0  0  0
 18  1  1  0  0  0  0
 19 18  1  0  0  0  0
 21 18  1  0  0  0  0
 21 26  1  0  0  0  0
 22 21  2  0  0  0  0
 23 22  1  0  0  0  0
 23 24  2  0  0  0  0
 24 25  1  0  0  0  0
 25 26  2  0  0  0  0
 25 29  1  0  0  0  0
 27 22  1  0  0  0  0
 28 23  1  0  0  0  0
M  END
>  <minimizedAffinity>
-4.64119339

$$$$

 OpenBabel03272504013D

 29 31  0  0  0  0  0  0  0  0999 V2000
   38.2910   25.6720   34.0780 C   0  0  0  0  0  0  0  0  0  0  0  0
   38.3560   26.6770   33.6470 H   0  0  0  0  0  0  0  0  0  0  0  0
   39.3630   25.3240   34.0560 H   0  0  0  0  0  0  0  0  0  0  0  0
   37.4660   24.8830   33.1320 C   0  0  0  0  0  0  0  0  0  0  0  0
   36.6680   25.5170   32.1990 C   0  0  0  0  0  0  0  0  0  0  0  0
   36.0250   24.5570   31.4640 C   0  0  0  0  0  0  0  0  0  0  0  0
   36.4390   23.3620   31.9550 N   0  0  0  0  0  0  0  0  0  0  0  0
   37.2830   23.5800   32.9340 N   0  0  0  0  0  0  0  0  0  0  0  0
   36.4640   26.5550   31.9510 H   0  0  0  0  0  0  0  0  0  0  0  0
   35.3190   24.4870   30.6470 H   0  0  0  0  0  0  0  0  0  0  0  0
   36.1990   21.9610   31.6880 C   0  0  0  0  0  0  0  0  0  0  0  0
   37.0370   21.0380   30.8760 C   0  0  0  0  0  0  0  0  0  0  0  0
   37.9050   21.5180   30.4660 H   0  0  0  0  0  0  0  0  0  0  0  0
   36.1950   19.5780   30.9730 S   0  0  0  0  0  0  0  0  0  0  0  0
   34.8000   20.2620   32.0690 C   0  0  0  0  0  0  0  0  0  0  0  0
   33.9320   19.6950   32.4530 H   0  0  0  0  0  0  0  0  0  0  0  0
   35.0890   21.5670   32.2770 N   0  0  0  0  0  0  0  0  0  0  0  0
   37.8360   25.5480   35.4840 C   0  0  0  0  0  0  0  0  0  0  0  0
   38.0150   26.5620   35.9620 H   0  0  0  0  0  0  0  0  0  0  0  0
   36.7060   25.4670   35.5520 H   0  0  0  0  0  0  0  0  0  0  0  0
   38.4880   24.5850   36.3360 C   0  0  0  0  0  0  0  0  0  0  0  0
   38.0190   24.3390   37.5980 C   0  0  0  0  0  0  0  0  0  0  0  0
   38.6890   23.3920   38.4200 C   0  0  0  0  0  0  0  0  0  0  0  0
   39.7910   22.7800   37.8670 N   0  0  0  0  0  0  0  0  0  0  0  0
   40.2110   23.0600   36.6150 C   0  0  0  0  0  0  0  0  0  0  0  0
   39.5510   23.9690   35.8520 N   0  0  0  0  0  0  0  0  0  0  0  0
   37.1820   24.7380   38.1410 H   0  0  0  0  0  0  0  0  0  0  0  0
   38.4300   23.1070   39.4220 H   0  0  0  0  0  0  0  0  0  0  0  0
   41.0840   22.5430   36.2390 H   0  0  0  0  0  0  0  0  0  0  0  0
  1 18  1  0  0  0  0
  2  1  1  0  0  0  0
  3  1  1  0  0  0  0
  4  1  1  0  0  0  0
  5  4  1  0  0  0  0
  6  7  1  0  0  0  0
  6  5  2  0  0  0  0
  7  8  1  0  0  0  0
  8  4  2  0  0  0  0
  9  5  1  0  0  0  0
 10  6  1  0  0  0  0
 11  7  1  0  0  0  0
 11 17  1  0  0  0  0
 12 14  1  0  0  0  0
 12 11  2  0  0  0  0
 13 12  1  0  0  0  0
 14 15  1  0  0  0  0
 15 17  2  0  0  0  0
 15 16  1  0  0  0  0
 18 20  1  0  0  0  0
 18 19  1  0  0  0  0
 18 21  1  0  0  0  0
 21 22  1  0  0  0  0
 22 27  1  0  0  0  0
 22 23  2  0  0  0  0
 23 28  1  0  0  0  0
 24 23  1  0  0  0  0
 25 24  2  0  0  0  0
 26 21  2  0  0  0  0
 26 25  1  0  0  0  0
 29 25  1  0  0  0  0
M  END
>  <minimizedAffinity>
-4.60674191

$$$$

 OpenBabel03272504013D

 29 31  0  0  0  0  0  0  0  0999 V2000
   38.0090   23.6710   33.4430 C   0  0  0  0  0  0  0  0  0  0  0  0
   38.4870   22.9870   32.7340 H   0  0  0  0  0  0  0  0  0  0  0  0
   37.3700   22.9790   34.0620 H   0  0  0  0  0  0  0  0  0  0  0  0
   37.1630   24.5720   32.6240 C   0  0  0  0  0  0  0  0  0  0  0  0
   36.2270   24.0520   31.7500 C   0  0  0  0  0  0  0  0  0  0  0  0
   35.5950   25.0980   31.1320 C   0  0  0  0  0  0  0  0  0  0  0  0
   36.1500   26.2290   31.6360 N   0  0  0  0  0  0  0  0  0  0  0  0
   37.0680   25.8930   32.5080 N   0  0  0  0  0  0  0  0  0  0  0  0
   35.9160   23.0480   31.4760 H   0  0  0  0  0  0  0  0  0  0  0  0
   34.8190   25.2670   30.3960 H   0  0  0  0  0  0  0  0  0  0  0  0
   35.9950   27.6570   31.4650 C   0  0  0  0  0  0  0  0  0  0  0  0
   35.1730   28.5830   32.2900 C   0  0  0  0  0  0  0  0  0  0  0  0
   34.6590   28.0830   33.0880 H   0  0  0  0  0  0  0  0  0  0  0  0
   35.4380   30.0800   31.5560 S   0  0  0  0  0  0  0  0  0  0  0  0
   36.6070   29.4050   30.2170 C   0  0  0  0  0  0  0  0  0  0  0  0
   37.1020   29.9940   29.4230 H   0  0  0  0  0  0  0  0  0  0  0  0
   36.7040   28.0740   30.4370 N   0  0  0  0  0  0  0  0  0  0  0  0
   38.8790   24.4030   34.3950 C   0  0  0  0  0  0  0  0  0  0  0  0
   39.9450   24.2250   34.0470 H   0  0  0  0  0  0  0  0  0  0  0  0
   38.7890   25.5270   34.2660 H   0  0  0  0  0  0  0  0  0  0  0  0
   38.8480   24.0270   35.7860 C   0  0  0  0  0  0  0  0  0  0  0  0
   37.8960   24.5370   36.6260 C   0  0  0  0  0  0  0  0  0  0  0  0
   37.8970   24.1570   37.9970 C   0  0  0  0  0  0  0  0  0  0  0  0
   38.8840   23.2790   38.3830 N   0  0  0  0  0  0  0  0  0  0  0  0
   39.8000   22.8060   37.5110 C   0  0  0  0  0  0  0  0  0  0  0  0
   39.7750   23.1860   36.2080 N   0  0  0  0  0  0  0  0  0  0  0  0
   37.0810   25.2160   36.4560 H   0  0  0  0  0  0  0  0  0  0  0  0
   37.2130   24.4810   38.7580 H   0  0  0  0  0  0  0  0  0  0  0  0
   40.5510   22.1180   37.8780 H   0  0  0  0  0  0  0  0  0  0  0  0
  1  3  1  0  0  0  0
  1 18  1  0  0  0  0
  2  1  1  0  0  0  0
  4  1  1  0  0  0  0
  5  4  1  0  0  0  0
  6  7  1  0  0  0  0
  6  5  2  0  0  0  0
  7  8  1  0  0  0  0
  8  4  2  0  0  0  0
  9  5  1  0  0  0  0
 10  6  1  0  0  0  0
 11  7  1  0  0  0  0
 11 12  2  0  0  0  0
 12 13  1  0  0  0  0
 14 12  1  0  0  0  0
 15 17  2  0  0  0  0
 15 14  1  0  0  0  0
 16 15  1  0  0  0  0
 17 11  1  0  0  0  0
 18 21  1  0  0  0  0
 19 18  1  0  0  0  0
 20 18  1  0  0  0  0
 21 26  2  0  0  0  0
 21 22  1  0  0  0  0
 22 23  2  0  0  0  0
 23 24  1  0  0  0  0
 23 28  1  0  0  0  0
 25 29  1  0  0  0  0
 25 24  2  0  0  0  0
 26 25  1  0  0  0  0
 27 22  1  0  0  0  0
M  END
>  <minimizedAffinity>
-4.52799559

$$$$

 OpenBabel03272504013D

 29 31  0  0  0  0  0  0  0  0999 V2000
   37.8020   26.3010   35.6610 C   0  0  0  0  0  0  0  0  0  0  0  0
   37.9370   27.0620   36.4370 H   0  0  0  0  0  0  0  0  0  0  0  0
   36.6810   26.2120   35.5950 H   0  0  0  0  0  0  0  0  0  0  0  0
   38.3950   25.0580   36.2090 C   0  0  0  0  0  0  0  0  0  0  0  0
   37.8340   24.4390   37.3100 C   0  0  0  0  0  0  0  0  0  0  0  0
   38.5750   23.3240   37.5960 C   0  0  0  0  0  0  0  0  0  0  0  0
   39.5680   23.2800   36.6720 N   0  0  0  0  0  0  0  0  0  0  0  0
   39.4410   24.3090   35.8710 N   0  0  0  0  0  0  0  0  0  0  0  0
   36.9800   24.6480   37.9480 H   0  0  0  0  0  0  0  0  0  0  0  0
   38.5910   22.5120   38.3120 H   0  0  0  0  0  0  0  0  0  0  0  0
   40.6890   22.4230   36.3550 C   0  0  0  0  0  0  0  0  0  0  0  0
   41.3160   22.2090   35.0230 C   0  0  0  0  0  0  0  0  0  0  0  0
   40.8450   22.7800   34.2460 H   0  0  0  0  0  0  0  0  0  0  0  0
   42.5500   21.1070   35.3580 S   0  0  0  0  0  0  0  0  0  0  0  0
   42.1710   20.9920   37.2170 C   0  0  0  0  0  0  0  0  0  0  0  0
   42.7110   20.3730   37.9580 H   0  0  0  0  0  0  0  0  0  0  0  0
   41.1200   21.8140   37.4400 N   0  0  0  0  0  0  0  0  0  0  0  0
   38.2810   26.6150   34.2930 C   0  0  0  0  0  0  0  0  0  0  0  0
   38.6350   27.6930   34.3240 H   0  0  0  0  0  0  0  0  0  0  0  0
   39.2480   26.0710   34.0530 H   0  0  0  0  0  0  0  0  0  0  0  0
   37.3440   26.5350   33.2000 C   0  0  0  0  0  0  0  0  0  0  0  0
   36.7880   27.6690   32.6730 C   0  0  0  0  0  0  0  0  0  0  0  0
   35.8580   27.5580   31.6030 C   0  0  0  0  0  0  0  0  0  0  0  0
   35.5820   26.2820   31.1680 N   0  0  0  0  0  0  0  0  0  0  0  0
   36.1600   25.1970   31.7240 C   0  0  0  0  0  0  0  0  0  0  0  0
   37.0450   25.3320   32.7450 N   0  0  0  0  0  0  0  0  0  0  0  0
   36.9170   28.7080   32.9130 H   0  0  0  0  0  0  0  0  0  0  0  0
   35.3500   28.3600   31.1020 H   0  0  0  0  0  0  0  0  0  0  0  0
   35.9010   24.2200   31.3360 H   0  0  0  0  0  0  0  0  0  0  0  0
  1  4  1  0  0  0  0
  1  2  1  0  0  0  0
  3  1  1  0  0  0  0
  4  5  1  0  0  0  0
  5  6  2  0  0  0  0
  5  9  1  0  0  0  0
  6 10  1  0  0  0  0
  7  6  1  0  0  0  0
  8  4  2  0  0  0  0
  8  7  1  0  0  0  0
 11  7  1  0  0  0  0
 11 17  1  0  0  0  0
 12 14  1  0  0  0  0
 12 11  2  0  0  0  0
 13 12  1  0  0  0  0
 14 15  1  0  0  0  0
 15 17  2  0  0  0  0
 15 16  1  0  0  0  0
 18 19  1  0  0  0  0
 18  1  1  0  0  0  0
 20 18  1  0  0  0  0
 21 18  1  0  0  0  0
 22 27  1  0  0  0  0
 22 21  2  0  0  0  0
 23 22  1  0  0  0  0
 24 23  2  0  0  0  0
 24 25  1  0  0  0  0
 25 26  2  0  0  0  0
 26 21  1  0  0  0  0
 28 23  1  0  0  0  0
 29 25  1  0  0  0  0
M  END
>  <minimizedAffinity>
-4.44357109

$$$$

 OpenBabel03272504013D

 29 31  0  0  0  0  0  0  0  0999 V2000
   36.9150   23.9530   31.2700 C   0  0  0  0  0  0  0  0  0  0  0  0
   37.7900   23.5100   30.7840 H   0  0  0  0  0  0  0  0  0  0  0  0
   36.7080   24.8580   30.6310 H   0  0  0  0  0  0  0  0  0  0  0  0
   37.3690   24.3600   32.6220 C   0  0  0  0  0  0  0  0  0  0  0  0
   37.2260   25.6670   33.0460 C   0  0  0  0  0  0  0  0  0  0  0  0
   37.7220   25.7590   34.3190 C   0  0  0  0  0  0  0  0  0  0  0  0
   38.1540   24.5160   34.6490 N   0  0  0  0  0  0  0  0  0  0  0  0
   37.9360   23.7130   33.6360 N   0  0  0  0  0  0  0  0  0  0  0  0
   36.8260   26.5730   32.5990 H   0  0  0  0  0  0  0  0  0  0  0  0
   37.8580   26.5020   35.0940 H   0  0  0  0  0  0  0  0  0  0  0  0
   38.7700   23.8710   35.7880 C   0  0  0  0  0  0  0  0  0  0  0  0
   40.0680   23.1440   35.8240 C   0  0  0  0  0  0  0  0  0  0  0  0
   40.5600   23.1270   34.8710 H   0  0  0  0  0  0  0  0  0  0  0  0
   40.1800   22.6500   37.4340 S   0  0  0  0  0  0  0  0  0  0  0  0
   38.5260   23.4240   37.9630 C   0  0  0  0  0  0  0  0  0  0  0  0
   38.0850   23.3960   38.9760 H   0  0  0  0  0  0  0  0  0  0  0  0
   38.0100   24.0050   36.8550 N   0  0  0  0  0  0  0  0  0  0  0  0
   35.6600   23.1610   31.2960 C   0  0  0  0  0  0  0  0  0  0  0  0
   35.0970   23.4960   32.2220 H   0  0  0  0  0  0  0  0  0  0  0  0
   34.9470   23.4810   30.4740 H   0  0  0  0  0  0  0  0  0  0  0  0
   35.7540   21.7260   31.3860 C   0  0  0  0  0  0  0  0  0  0  0  0
   34.8780   21.0160   32.1600 C   0  0  0  0  0  0  0  0  0  0  0  0
   35.0020   19.6010   32.2380 C   0  0  0  0  0  0  0  0  0  0  0  0
   36.0250   19.0400   31.5080 N   0  0  0  0  0  0  0  0  0  0  0  0
   36.8620   19.7890   30.7590 C   0  0  0  0  0  0  0  0  0  0  0  0
   36.7200   21.1370   30.7030 N   0  0  0  0  0  0  0  0  0  0  0  0
   34.0470   21.3240   32.7670 H   0  0  0  0  0  0  0  0  0  0  0  0
   34.3870   18.9270   32.8040 H   0  0  0  0  0  0  0  0  0  0  0  0
   37.6470   19.2860   30.2080 H   0  0  0  0  0  0  0  0  0  0  0  0
  1 18  1  0  0  0  0
  1  4  1  0  0  0  0
  2  1  1  0  0  0  0
  3  1  1  0  0  0  0
  4  5  1  0  0  0  0
  4  8  2  0  0  0  0
  5  6  2  0  0  0  0
  6  7  1  0  0  0  0
  6 10  1  0  0  0  0
  7 11  1  0  0  0  0
  8  7  1  0  0  0  0
  9  5  1  0  0  0  0
 11 12  2  0  0  0  0
 11 17  1  0  0  0  0
 12 14  1  0  0  0  0
 13 12  1  0  0  0  0
 14 15  1  0  0  0  0
 15 16  1  0  0  0  0
 17 15  2  0  0  0  0
 18 21  1  0  0  0  0
 18 19  1  0  0  0  0
 20 18  1  0  0  0  0
 21 22  1  0  0  0  0
 22 23  2  0  0  0  0
 22 27  1  0  0  0  0
 23 28  1  0  0  0  0
 24 23  1  0  0  0  0
 25 24  2  0  0  0  0
 26 25  1  0  0  0  0
 26 21  2  0  0  0  0
 29 25  1  0  0  0  0
M  END
>  <minimizedAffinity>
-4.43693161

$$$$

 OpenBabel03272504013D

 29 31  0  0  0  0  0  0  0  0999 V2000
   38.1150   27.3600   35.7050 C   0  0  0  0  0  0  0  0  0  0  0  0
   37.4530   27.2730   36.5730 H   0  0  0  0  0  0  0  0  0  0  0  0
   38.8170   28.1860   36.0120 H   0  0  0  0  0  0  0  0  0  0  0  0
   37.2510   27.7960   34.5830 C   0  0  0  0  0  0  0  0  0  0  0  0
   37.4990   27.3590   33.2950 C   0  0  0  0  0  0  0  0  0  0  0  0
   36.5550   27.9090   32.4690 C   0  0  0  0  0  0  0  0  0  0  0  0
   35.7530   28.6660   33.2590 N   0  0  0  0  0  0  0  0  0  0  0  0
   36.1820   28.5830   34.4940 N   0  0  0  0  0  0  0  0  0  0  0  0
   38.2430   26.7100   32.8420 H   0  0  0  0  0  0  0  0  0  0  0  0
   36.2850   27.9100   31.4210 H   0  0  0  0  0  0  0  0  0  0  0  0
   34.5890   29.5080   33.0960 C   0  0  0  0  0  0  0  0  0  0  0  0
   34.2360   30.3460   31.9180 C   0  0  0  0  0  0  0  0  0  0  0  0
   34.9610   30.2800   31.1300 H   0  0  0  0  0  0  0  0  0  0  0  0
   32.7770   31.0580   32.3830 S   0  0  0  0  0  0  0  0  0  0  0  0
   32.7170   30.2180   34.0870 C   0  0  0  0  0  0  0  0  0  0  0  0
   31.9260   30.3410   34.8500 H   0  0  0  0  0  0  0  0  0  0  0  0
   33.8290   29.4510   34.1700 N   0  0  0  0  0  0  0  0  0  0  0  0
   38.9640   26.1930   35.3610 C   0  0  0  0  0  0  0  0  0  0  0  0
   39.1080   26.2300   34.2360 H   0  0  0  0  0  0  0  0  0  0  0  0
   40.0300   26.3290   35.7260 H   0  0  0  0  0  0  0  0  0  0  0  0
   38.4690   24.8710   35.6550 C   0  0  0  0  0  0  0  0  0  0  0  0
   38.0090   24.5600   36.9050 C   0  0  0  0  0  0  0  0  0  0  0  0
   37.5370   23.2440   37.1690 C   0  0  0  0  0  0  0  0  0  0  0  0
   37.5820   22.3610   36.1140 N   0  0  0  0  0  0  0  0  0  0  0  0
   38.0460   22.7220   34.8990 C   0  0  0  0  0  0  0  0  0  0  0  0
   38.4900   23.9850   34.6760 N   0  0  0  0  0  0  0  0  0  0  0  0
   37.9180   25.1460   37.8010 H   0  0  0  0  0  0  0  0  0  0  0  0
   37.1530   22.8680   38.0980 H   0  0  0  0  0  0  0  0  0  0  0  0
   38.0550   21.9790   34.1110 H   0  0  0  0  0  0  0  0  0  0  0  0
  1  3  1  0  0  0  0
  1  2  1  0  0  0  0
  4  1  1  0  0  0  0
  5  4  1  0  0  0  0
  6  7  1  0  0  0  0
  6  5  2  0  0  0  0
  7  8  1  0  0  0  0
  8  4  2  0  0  0  0
  9  5  1  0  0  0  0
 10  6  1  0  0  0  0
 11  7  1  0  0  0  0
 11 17  1  0  0  0  0
 12 14  1  0  0  0  0
 12 11  2  0  0  0  0
 13 12  1  0  0  0  0
 14 15  1  0  0  0  0
 15 17  2  0  0  0  0
 15 16  1  0  0  0  0
 18 21  1  0  0  0  0
 18  1  1  0  0  0  0
 18 20  1  0  0  0  0
 19 18  1  0  0  0  0
 21 22  1  0  0  0  0
 22 23  2  0  0  0  0
 22 27  1  0  0  0  0
 23 28  1  0  0  0  0
 24 23  1  0  0  0  0
 25 24  2  0  0  0  0
 26 25  1  0  0  0  0
 26 21  2  0  0  0  0
 29 25  1  0  0  0  0
M  END
>  <minimizedAffinity>
-4.38662624

$$$$

 OpenBabel03272504013D

 29 31  0  0  0  0  0  0  0  0999 V2000
   38.1870   24.1630   36.7470 C   0  0  0  0  0  0  0  0  0  0  0  0
   37.2650   24.0930   37.3340 H   0  0  0  0  0  0  0  0  0  0  0  0
   38.9750   24.3000   37.5410 H   0  0  0  0  0  0  0  0  0  0  0  0
   38.0500   25.3900   35.9270 C   0  0  0  0  0  0  0  0  0  0  0  0
   38.3220   26.6310   36.4710 C   0  0  0  0  0  0  0  0  0  0  0  0
   38.1180   27.5760   35.5010 C   0  0  0  0  0  0  0  0  0  0  0  0
   37.7280   26.9010   34.3900 N   0  0  0  0  0  0  0  0  0  0  0  0
   37.6950   25.6210   34.6670 N   0  0  0  0  0  0  0  0  0  0  0  0
   38.6450   26.9800   37.4480 H   0  0  0  0  0  0  0  0  0  0  0  0
   38.1760   28.6490   35.3780 H   0  0  0  0  0  0  0  0  0  0  0  0
   37.3530   27.2190   33.0300 C   0  0  0  0  0  0  0  0  0  0  0  0
   36.5440   28.3760   32.5610 C   0  0  0  0  0  0  0  0  0  0  0  0
   36.2290   29.0150   33.3640 H   0  0  0  0  0  0  0  0  0  0  0  0
   36.4850   28.1450   30.8900 S   0  0  0  0  0  0  0  0  0  0  0  0
   37.5220   26.5520   30.9050 C   0  0  0  0  0  0  0  0  0  0  0  0
   37.8050   25.9470   30.0240 H   0  0  0  0  0  0  0  0  0  0  0  0
   37.8350   26.3170   32.2000 N   0  0  0  0  0  0  0  0  0  0  0  0
   38.5930   22.9790   35.9510 C   0  0  0  0  0  0  0  0  0  0  0  0
   39.1870   23.3800   35.0710 H   0  0  0  0  0  0  0  0  0  0  0  0
   39.3810   22.3640   36.4880 H   0  0  0  0  0  0  0  0  0  0  0  0
   37.5640   22.1420   35.3870 C   0  0  0  0  0  0  0  0  0  0  0  0
   37.5210   21.8980   34.0420 C   0  0  0  0  0  0  0  0  0  0  0  0
   36.4870   21.0780   33.5120 C   0  0  0  0  0  0  0  0  0  0  0  0
   35.5820   20.5790   34.4220 N   0  0  0  0  0  0  0  0  0  0  0  0
   35.6710   20.8520   35.7410 C   0  0  0  0  0  0  0  0  0  0  0  0
   36.6700   21.6370   36.2190 N   0  0  0  0  0  0  0  0  0  0  0  0
   38.1560   22.2170   33.2360 H   0  0  0  0  0  0  0  0  0  0  0  0
   36.3370   20.8090   32.4840 H   0  0  0  0  0  0  0  0  0  0  0  0
   34.9280   20.4280   36.4040 H   0  0  0  0  0  0  0  0  0  0  0  0
  1  2  1  0  0  0  0
  1  3  1  0  0  0  0
  4  5  1  0  0  0  0
  4  1  1  0  0  0  0
  5  9  1  0  0  0  0
  6  5  2  0  0  0  0
  7  8  1  0  0  0  0
  7  6  1  0  0  0  0
  8  4  2  0  0  0  0
 10  6  1  0  0  0  0
 11  7  1  0  0  0  0
 12 11  2  0  0  0  0
 12 13  1  0  0  0  0
 14 15  1  0  0  0  0
 14 12  1  0  0  0  0
 15 17  2  0  0  0  0
 16 15  1  0  0  0  0
 17 11  1  0  0  0  0
 18 20  1  0  0  0  0
 18  1  1  0  0  0  0
 19 18  1  0  0  0  0
 21 18  1  0  0  0  0
 21 26  1  0  0  0  0
 22 21  2  0  0  0  0
 23 22  1  0  0  0  0
 23 24  2  0  0  0  0
 24 25  1  0  0  0  0
 25 26  2  0  0  0  0
 25 29  1  0  0  0  0
 27 22  1  0  0  0  0
 28 23  1  0  0  0  0
M  END
>  <minimizedAffinity>
-4.38062572

$$$$

 OpenBabel03272504013D

 29 31  0  0  0  0  0  0  0  0999 V2000
   38.1690   24.5410   37.4190 C   0  0  0  0  0  0  0  0  0  0  0  0
   37.4090   24.7910   38.1660 H   0  0  0  0  0  0  0  0  0  0  0  0
   39.1320   24.7310   37.9720 H   0  0  0  0  0  0  0  0  0  0  0  0
   37.9930   25.5230   36.3220 C   0  0  0  0  0  0  0  0  0  0  0  0
   38.5310   26.7920   36.4240 C   0  0  0  0  0  0  0  0  0  0  0  0
   38.2210   27.4790   35.2800 C   0  0  0  0  0  0  0  0  0  0  0  0
   37.5070   26.6240   34.5050 N   0  0  0  0  0  0  0  0  0  0  0  0
   37.3860   25.4840   35.1390 N   0  0  0  0  0  0  0  0  0  0  0  0
   39.1100   27.3150   37.1790 H   0  0  0  0  0  0  0  0  0  0  0  0
   38.3780   28.4570   34.8440 H   0  0  0  0  0  0  0  0  0  0  0  0
   36.8670   26.6460   33.2080 C   0  0  0  0  0  0  0  0  0  0  0  0
   36.6470   25.4970   32.2880 C   0  0  0  0  0  0  0  0  0  0  0  0
   37.0240   24.5730   32.6820 H   0  0  0  0  0  0  0  0  0  0  0  0
   35.8630   26.2100   30.9740 S   0  0  0  0  0  0  0  0  0  0  0  0
   35.8700   27.9640   31.7060 C   0  0  0  0  0  0  0  0  0  0  0  0
   35.4560   28.8730   31.2310 H   0  0  0  0  0  0  0  0  0  0  0  0
   36.4780   27.8680   32.9100 N   0  0  0  0  0  0  0  0  0  0  0  0
   38.2310   23.1400   36.9350 C   0  0  0  0  0  0  0  0  0  0  0  0
   37.8790   22.4940   37.8000 H   0  0  0  0  0  0  0  0  0  0  0  0
   37.4290   22.9290   36.1600 H   0  0  0  0  0  0  0  0  0  0  0  0
   39.5080   22.6060   36.5340 C   0  0  0  0  0  0  0  0  0  0  0  0
   40.4480   22.2670   37.4690 C   0  0  0  0  0  0  0  0  0  0  0  0
   41.7040   21.7530   37.0420 C   0  0  0  0  0  0  0  0  0  0  0  0
   41.8810   21.6330   35.6830 N   0  0  0  0  0  0  0  0  0  0  0  0
   40.9180   21.9830   34.8030 C   0  0  0  0  0  0  0  0  0  0  0  0
   39.7280   22.4700   35.2390 N   0  0  0  0  0  0  0  0  0  0  0  0
   40.4370   22.3060   38.5420 H   0  0  0  0  0  0  0  0  0  0  0  0
   42.5240   21.4510   37.6650 H   0  0  0  0  0  0  0  0  0  0  0  0
   41.1200   21.8640   33.7470 H   0  0  0  0  0  0  0  0  0  0  0  0
  1  3  1  0  0  0  0
  1  2  1  0  0  0  0
  4  5  1  0  0  0  0
  4  1  1  0  0  0  0
  5  9  1  0  0  0  0
  6  5  2  0  0  0  0
  7  8  1  0  0  0  0
  7  6  1  0  0  0  0
  8  4  2  0  0  0  0
 10  6  1  0  0  0  0
 11  7  1  0  0  0  0
 12 13  1  0  0  0  0
 12 11  2  0  0  0  0
 14 15  1  0  0  0  0
 14 12  1  0  0  0  0
 15 17  2  0  0  0  0
 16 15  1  0  0  0  0
 17 11  1  0  0  0  0
 18  1  1  0  0  0  0
 18 19  1  0  0  0  0
 20 18  1  0  0  0  0
 21 18  1  0  0  0  0
 21 22  1  0  0  0  0
 22 27  1  0  0  0  0
 23 22  2  0  0  0  0
 23 28  1  0  0  0  0
 24 23  1  0  0  0  0
 25 26  1  0  0  0  0
 25 24  2  0  0  0  0
 26 21  2  0  0  0  0
 29 25  1  0  0  0  0
M  END
>  <minimizedAffinity>
-4.34914923

$$$$

 OpenBabel03272504013D

 29 31  0  0  0  0  0  0  0  0999 V2000
   38.4360   25.7850   30.9990 C   0  0  0  0  0  0  0  0  0  0  0  0
   38.6570   25.8310   29.9280 H   0  0  0  0  0  0  0  0  0  0  0  0
   39.3820   25.3470   31.4280 H   0  0  0  0  0  0  0  0  0  0  0  0
   37.3090   24.8310   31.1370 C   0  0  0  0  0  0  0  0  0  0  0  0
   36.0030   25.2840   31.1370 C   0  0  0  0  0  0  0  0  0  0  0  0
   35.1770   24.2010   31.2750 C   0  0  0  0  0  0  0  0  0  0  0  0
   35.9840   23.1140   31.3540 N   0  0  0  0  0  0  0  0  0  0  0  0
   37.2300   23.5110   31.2720 N   0  0  0  0  0  0  0  0  0  0  0  0
   35.5360   26.2620   31.0550 H   0  0  0  0  0  0  0  0  0  0  0  0
   34.1190   23.9810   31.3340 H   0  0  0  0  0  0  0  0  0  0  0  0
   35.8310   21.6830   31.5010 C   0  0  0  0  0  0  0  0  0  0  0  0
   34.8940   20.9620   32.4040 C   0  0  0  0  0  0  0  0  0  0  0  0
   34.2880   21.6260   32.9900 H   0  0  0  0  0  0  0  0  0  0  0  0
   35.2300   19.3390   32.0800 S   0  0  0  0  0  0  0  0  0  0  0  0
   36.5730   19.7030   30.7840 C   0  0  0  0  0  0  0  0  0  0  0  0
   37.1570   18.9530   30.2190 H   0  0  0  0  0  0  0  0  0  0  0  0
   36.6610   21.0500   30.6990 N   0  0  0  0  0  0  0  0  0  0  0  0
   38.2020   27.0630   31.7150 C   0  0  0  0  0  0  0  0  0  0  0  0
   38.8980   27.8220   31.2370 H   0  0  0  0  0  0  0  0  0  0  0  0
   37.1870   27.5030   31.4630 H   0  0  0  0  0  0  0  0  0  0  0  0
   38.4670   27.1180   33.1300 C   0  0  0  0  0  0  0  0  0  0  0  0
   39.7030   26.8010   33.6230 C   0  0  0  0  0  0  0  0  0  0  0  0
   39.9310   26.8530   35.0260 C   0  0  0  0  0  0  0  0  0  0  0  0
   38.8590   27.2300   35.8020 N   0  0  0  0  0  0  0  0  0  0  0  0
   37.6590   27.5330   35.2630 C   0  0  0  0  0  0  0  0  0  0  0  0
   37.4690   27.4750   33.9200 N   0  0  0  0  0  0  0  0  0  0  0  0
   40.6120   26.5000   33.1360 H   0  0  0  0  0  0  0  0  0  0  0  0
   40.8460   26.6310   35.5410 H   0  0  0  0  0  0  0  0  0  0  0  0
   36.8550   27.8220   35.9280 H   0  0  0  0  0  0  0  0  0  0  0  0
  1  4  1  0  0  0  0
  1  3  1  0  0  0  0
  1 18  1  0  0  0  0
  2  1  1  0  0  0  0
  4  8  2  0  0  0  0
  5  4  1  0  0  0  0
  5  6  2  0  0  0  0
  6 10  1  0  0  0  0
  6  7  1  0  0  0  0
  7 11  1  0  0  0  0
  8  7  1  0  0  0  0
  9  5  1  0  0  0  0
 11 12  2  0  0  0  0
 12 13  1  0  0  0  0
 14 12  1  0  0  0  0
 15 14  1  0  0  0  0
 16 15  1  0  0  0  0
 17 15  2  0  0  0  0
 17 11  1  0  0  0  0
 18 21  1  0  0  0  0
 19 18  1  0  0  0  0
 20 18  1  0  0  0  0
 21 22  2  0  0  0  0
 21 26  1  0  0  0  0
 22 23  1  0  0  0  0
 23 28  1  0  0  0  0
 23 24  2  0  0  0  0
 25 24  1  0  0  0  0
 25 29  1  0  0  0  0
 26 25  2  0  0  0  0
 27 22  1  0  0  0  0
M  END
>  <minimizedAffinity>
-4.31225109

$$$$
