
 OpenBabel03272509263D

 23 24  0  0  0  0  0  0  0  0999 V2000
   36.6200   30.9810   47.7510 C   0  0  0  0  0  0  0  0  0  0  0  0
   35.9480   30.6510   46.9220 H   0  0  0  0  0  0  0  0  0  0  0  0
   36.5540   32.0790   47.8360 H   0  0  0  0  0  0  0  0  0  0  0  0
   36.5810   29.5130   51.2220 C   0  0  0  0  0  0  0  0  0  0  0  0
   37.0650   30.0980   50.0650 C   0  0  0  0  0  0  0  0  0  0  0  0
   36.2120   30.3680   49.0230 C   0  0  0  0  0  0  0  0  0  0  0  0
   34.8990   30.0340   49.1930 N   0  0  0  0  0  0  0  0  0  0  0  0
   34.4490   29.4650   50.3260 C   0  0  0  0  0  0  0  0  0  0  0  0
   35.2780   29.1990   51.3490 N   0  0  0  0  0  0  0  0  0  0  0  0
   37.2000   29.2750   52.0780 H   0  0  0  0  0  0  0  0  0  0  0  0
   38.1160   30.3410   49.9880 H   0  0  0  0  0  0  0  0  0  0  0  0
   33.3670   29.2590   50.3020 H   0  0  0  0  0  0  0  0  0  0  0  0
   38.0470   30.6320   47.4040 C   0  0  0  0  0  0  0  0  0  0  0  0
   37.9970   30.0920   46.4090 H   0  0  0  0  0  0  0  0  0  0  0  0
   38.5310   29.9260   48.0740 H   0  0  0  0  0  0  0  0  0  0  0  0
   39.0160   32.1470   47.1080 S   0  0  0  0  0  0  0  0  0  0  0  0
   39.0930   32.4420   45.3240 C   0  0  0  0  0  0  0  0  0  0  0  0
   40.2940   32.6740   44.7440 C   0  0  0  0  0  0  0  0  0  0  0  0
   41.2960   32.7230   45.1540 H   0  0  0  0  0  0  0  0  0  0  0  0
   39.8480   32.9090   42.9630 S   0  0  0  0  0  0  0  0  0  0  0  0
   38.0000   32.6280   43.3900 C   0  0  0  0  0  0  0  0  0  0  0  0
   37.1820   32.6500   42.6650 H   0  0  0  0  0  0  0  0  0  0  0  0
   38.0650   32.4560   44.5010 N   0  0  0  0  0  0  0  0  0  0  0  0
  1  3  1  0  0  0  0
  1  6  1  0  0  0  0
  2  1  1  0  0  0  0
  4  9  1  0  0  0  0
  4 10  1  0  0  0  0
  5  4  2  0  0  0  0
  6  7  2  0  0  0  0
  6  5  1  0  0  0  0
  7  8  1  0  0  0  0
  8  9  2  0  0  0  0
 11  5  1  0  0  0  0
 12  8  1  0  0  0  0
 13  1  1  0  0  0  0
 13 15  1  0  0  0  0
 14 13  1  0  0  0  0
 16 13  1  0  0  0  0
 17 16  1  0  0  0  0
 18 19  1  0  0  0  0
 18 17  2  0  0  0  0
 20 21  1  0  0  0  0
 20 18  1  0  0  0  0
 21 23  2  0  0  0  0
 22 21  1  0  0  0  0
 23 17  1  0  0  0  0
M  END
>  <minimizedAffinity>
-3.85617971

>  <minimizedRMSD>
3.91191196

$$$$
