
 OpenBabel03272510123D

 33 36  0  0  0  0  0  0  0  0999 V2000
   33.3070   28.3450   48.8450 C   0  0  0  0  0  0  0  0  0  0  0  0
   33.5470   28.8720   50.0650 C   0  0  0  0  0  0  0  0  0  0  0  0
   34.7570   29.4120   50.4690 C   0  0  0  0  0  0  0  0  0  0  0  0
   35.8080   29.4300   49.5980 C   0  0  0  0  0  0  0  0  0  0  0  0
   35.5690   28.8850   48.3290 C   0  0  0  0  0  0  0  0  0  0  0  0
   34.3680   28.3770   48.0060 N   0  0  0  0  0  0  0  0  0  0  0  0
   32.7750   28.9010   50.8210 H   0  0  0  0  0  0  0  0  0  0  0  0
   34.9470   29.8320   51.4420 H   0  0  0  0  0  0  0  0  0  0  0  0
   36.2920   28.8230   47.5280 H   0  0  0  0  0  0  0  0  0  0  0  0
   30.9190   27.6980   49.2600 C   0  0  0  0  0  0  0  0  0  0  0  0
   32.0530   27.7890   48.4360 C   0  0  0  0  0  0  0  0  0  0  0  0
   31.9140   27.2970   47.1460 C   0  0  0  0  0  0  0  0  0  0  0  0
   30.7050   26.7630   46.7610 N   0  0  0  0  0  0  0  0  0  0  0  0
   29.6600   26.7100   47.6070 C   0  0  0  0  0  0  0  0  0  0  0  0
   29.7560   27.1780   48.8710 N   0  0  0  0  0  0  0  0  0  0  0  0
   30.9960   28.0730   50.2730 H   0  0  0  0  0  0  0  0  0  0  0  0
   32.7050   27.3030   46.4080 H   0  0  0  0  0  0  0  0  0  0  0  0
   28.7140   26.2900   47.2980 H   0  0  0  0  0  0  0  0  0  0  0  0
   37.0900   29.9310   49.8300 O   0  0  0  0  0  0  0  0  0  0  0  0
   37.6930   30.8250   48.9610 C   0  0  0  0  0  0  0  0  0  0  0  0
   38.1840   31.9680   49.5590 C   0  0  0  0  0  0  0  0  0  0  0  0
   38.7560   32.7620   48.5690 C   0  0  0  0  0  0  0  0  0  0  0  0
   38.5970   32.0890   47.4220 N   0  0  0  0  0  0  0  0  0  0  0  0
   37.9770   30.9630   47.6630 N   0  0  0  0  0  0  0  0  0  0  0  0
   38.2210   32.3650   50.5830 H   0  0  0  0  0  0  0  0  0  0  0  0
   39.2570   33.7230   48.5330 H   0  0  0  0  0  0  0  0  0  0  0  0
   38.9540   32.3370   46.0430 C   0  0  0  0  0  0  0  0  0  0  0  0
   38.0150   32.4380   44.8350 C   0  0  0  0  0  0  0  0  0  0  0  0
   37.0000   32.2910   45.1700 H   0  0  0  0  0  0  0  0  0  0  0  0
   39.2560   32.7550   43.5580 S   0  0  0  0  0  0  0  0  0  0  0  0
   40.7370   32.7070   44.7450 C   0  0  0  0  0  0  0  0  0  0  0  0
   41.6690   32.8690   44.2780 H   0  0  0  0  0  0  0  0  0  0  0  0
   40.2790   32.4780   45.9360 N   0  0  0  0  0  0  0  0  0  0  0  0
  1  2  1  0  0  0  0
  2  3  2  0  0  0  0
  2  7  1  0  0  0  0
  3  8  1  0  0  0  0
  4 19  1  0  0  0  0
  4  3  1  0  0  0  0
  5  4  2  0  0  0  0
  6  5  1  0  0  0  0
  6  1  2  0  0  0  0
  9  5  1  0  0  0  0
 10 16  1  0  0  0  0
 11  1  1  0  0  0  0
 11 10  2  0  0  0  0
 12 11  1  0  0  0  0
 13 12  2  0  0  0  0
 13 14  1  0  0  0  0
 14 15  2  0  0  0  0
 15 10  1  0  0  0  0
 17 12  1  0  0  0  0
 18 14  1  0  0  0  0
 20 21  1  0  0  0  0
 20 19  1  0  0  0  0
 21 25  1  0  0  0  0
 22 21  2  0  0  0  0
 23 24  1  0  0  0  0
 23 22  1  0  0  0  0
 24 20  2  0  0  0  0
 26 22  1  0  0  0  0
 27 23  1  0  0  0  0
 28 29  1  0  0  0  0
 28 27  2  0  0  0  0
 30 31  1  0  0  0  0
 30 28  1  0  0  0  0
 31 33  2  0  0  0  0
 32 31  1  0  0  0  0
 33 27  1  0  0  0  0
M  END
>  <minimizedAffinity>
-5.65618706

>  <minimizedRMSD>
1.54710209

$$$$
