
 OpenBabel03272503333D

 39 42  0  0  1  0  0  0  0  0999 V2000
   35.1180   29.4480   47.9210 C   0  0  0  0  0  0  0  0  0  0  0  0
   34.8970   30.1800   46.7450 C   0  0  0  0  0  0  0  0  0  0  0  0
   33.7370   29.8850   46.0240 C   0  0  0  0  0  0  0  0  0  0  0  0
   32.9060   28.9100   46.5150 N   0  0  0  0  0  0  0  0  0  0  0  0
   33.1590   28.2400   47.6410 C   0  0  0  0  0  0  0  0  0  0  0  0
   34.2730   28.5050   48.3560 N   0  0  0  0  0  0  0  0  0  0  0  0
   35.5350   30.9390   46.3530 H   0  0  0  0  0  0  0  0  0  0  0  0
   33.5040   30.4120   45.1070 H   0  0  0  0  0  0  0  0  0  0  0  0
   36.3090   29.7510   48.6600 N   0  0  0  0  0  0  0  0  0  0  0  0
   37.4430   30.4990   48.2140 C   0  0  0  0  0  0  0  0  0  0  0  0
   37.9830   31.0940   49.5130 C   0  0  2  0  0  0  0  0  0  0  0  0
   36.9920   30.6990   50.6010 C   0  0  0  0  0  0  0  0  0  0  0  0
   36.5880   29.3450   50.0350 C   0  0  0  0  0  0  0  0  0  0  0  0
   37.1150   31.3020   47.5440 H   0  0  0  0  0  0  0  0  0  0  0  0
   38.2460   29.8670   47.7920 H   0  0  0  0  0  0  0  0  0  0  0  0
   38.9670   30.6620   49.7890 H   0  0  0  0  0  0  0  0  0  0  0  0
   37.5210   30.6020   51.5840 H   0  0  0  0  0  0  0  0  0  0  0  0
   36.1310   31.3660   50.6410 H   0  0  0  0  0  0  0  0  0  0  0  0
   35.7360   28.8910   50.5400 H   0  0  0  0  0  0  0  0  0  0  0  0
   37.4950   28.7240   50.0030 H   0  0  0  0  0  0  0  0  0  0  0  0
   38.1660   32.5900   49.4240 C   0  0  0  0  0  0  0  0  0  0  0  0
   37.0230   33.1640   49.9380 F   0  0  0  0  0  0  0  0  0  0  0  0
   38.2000   32.9150   48.0830 F   0  0  0  0  0  0  0  0  0  0  0  0
   39.2930   33.0320   50.0620 F   0  0  0  0  0  0  0  0  0  0  0  0
   32.0350   26.9930   48.2110 S   0  0  0  0  0  0  0  0  0  0  0  0
   30.5870   27.4740   48.9110 C   0  0  0  0  0  0  0  0  0  0  0  0
   29.8630   27.3740   50.0620 C   0  0  0  0  0  0  0  0  0  0  0  0
   28.6450   27.9250   50.2850 C   0  0  0  0  0  0  0  0  0  0  0  0
   28.1430   28.6850   49.1140 C   0  0  0  0  0  0  0  0  0  0  0  0
   29.4470   28.5240   47.8560 S   0  0  0  0  0  0  0  0  0  0  0  0
   30.4050   26.7830   50.7840 H   0  0  0  0  0  0  0  0  0  0  0  0
   28.0970   27.8380   51.1830 H   0  0  0  0  0  0  0  0  0  0  0  0
   26.8710   29.3800   49.0640 C   0  0  0  0  0  0  0  0  0  0  0  0
   26.7420   30.7280   48.6500 C   0  0  0  0  0  0  0  0  0  0  0  0
   27.5480   31.3480   48.3430 H   0  0  0  0  0  0  0  0  0  0  0  0
   24.8710   30.9540   48.8320 S   0  0  0  0  0  0  0  0  0  0  0  0
   24.6780   29.1670   49.4300 C   0  0  0  0  0  0  0  0  0  0  0  0
   23.6790   28.8370   49.6710 H   0  0  0  0  0  0  0  0  0  0  0  0
   25.7780   28.6990   49.4300 N   0  0  0  0  0  0  0  0  0  0  0  0
  1  6  1  0  0  0  0
  1  9  1  0  0  0  0
  2  1  2  0  0  0  0
  3  4  2  0  0  0  0
  3  2  1  0  0  0  0
  4  5  1  0  0  0  0
  5 25  1  0  0  0  0
  5  6  2  0  0  0  0
  7  2  1  0  0  0  0
  8  3  1  0  0  0  0
  9 13  1  0  0  0  0
 10  9  1  0  0  0  0
 10 11  1  0  0  0  0
 11 16  1  1  0  0  0
 11 12  1  0  0  0  0
 12 18  1  0  0  0  0
 12 17  1  0  0  0  0
 13 19  1  0  0  0  0
 13 12  1  0  0  0  0
 14 10  1  0  0  0  0
 15 10  1  0  0  0  0
 20 13  1  0  0  0  0
 21 11  1  0  0  0  0
 21 22  1  0  0  0  0
 21 24  1  0  0  0  0
 23 21  1  0  0  0  0
 25 26  1  0  0  0  0
 26 27  2  0  0  0  0
 27 28  1  0  0  0  0
 27 31  1  0  0  0  0
 28 32  1  0  0  0  0
 29 28  2  0  0  0  0
 30 26  1  0  0  0  0
 30 29  1  0  0  0  0
 33 29  1  0  0  0  0
 33 39  1  0  0  0  0
 34 36  1  0  0  0  0
 34 33  2  0  0  0  0
 35 34  1  0  0  0  0
 36 37  1  0  0  0  0
 37 39  2  0  0  0  0
 37 38  1  0  0  0  0
M  END
>  <minimizedAffinity>
-7.26542139

>  <minimizedRMSD>
0.476073533

$$$$
