
 OpenBabel03272509353D

 45 49  0  0  1  0  0  0  0  0999 V2000
   37.3950   31.8330   48.6840 C   0  0  1  0  0  0  0  0  0  0  0  0
   38.8320   32.1950   48.8210 C   0  0  0  0  0  0  0  0  0  0  0  0
   38.5510   31.2830   47.7320 C   0  0  2  0  0  0  0  0  0  0  0  0
   36.6670   32.3760   48.1010 H   0  0  0  0  0  0  0  0  0  0  0  0
   38.9230   33.2790   48.8490 H   0  0  0  0  0  0  0  0  0  0  0  0
   39.3180   31.7700   49.7770 H   0  0  0  0  0  0  0  0  0  0  0  0
   38.4850   30.2020   47.7440 H   0  0  0  0  0  0  0  0  0  0  0  0
   38.6910   31.9610   46.3990 C   0  0  0  0  0  0  0  0  0  0  0  0
   39.8070   32.8140   46.4140 C   0  0  0  0  0  0  0  0  0  0  0  0
   40.1900   33.4590   45.2660 C   0  0  0  0  0  0  0  0  0  0  0  0
   39.4910   33.2870   44.0620 C   0  0  0  0  0  0  0  0  0  0  0  0
   38.3950   32.4360   44.0870 C   0  0  0  0  0  0  0  0  0  0  0  0
   37.6190   32.1880   42.9880 C   0  0  0  0  0  0  0  0  0  0  0  0
   36.5260   31.3580   43.0000 C   0  0  0  0  0  0  0  0  0  0  0  0
   36.1830   30.7340   44.1800 C   0  0  0  0  0  0  0  0  0  0  0  0
   36.9590   30.9780   45.2940 C   0  0  0  0  0  0  0  0  0  0  0  0
   38.0510   31.8220   45.2370 C   0  0  0  0  0  0  0  0  0  0  0  0
   40.5340   33.1360   47.1310 H   0  0  0  0  0  0  0  0  0  0  0  0
   41.0060   34.1410   45.0860 H   0  0  0  0  0  0  0  0  0  0  0  0
   39.6880   33.7320   43.0940 H   0  0  0  0  0  0  0  0  0  0  0  0
   37.8520   32.6580   42.0350 H   0  0  0  0  0  0  0  0  0  0  0  0
   35.9380   31.1900   42.1020 H   0  0  0  0  0  0  0  0  0  0  0  0
   35.3380   30.0700   44.2630 H   0  0  0  0  0  0  0  0  0  0  0  0
   36.6680   30.4690   46.2310 H   0  0  0  0  0  0  0  0  0  0  0  0
   35.0620   29.5630   50.5880 C   0  0  0  0  0  0  0  0  0  0  0  0
   35.5300   30.5820   49.7000 C   0  0  0  0  0  0  0  0  0  0  0  0
   36.8770   30.7750   49.5870 C   0  0  0  0  0  0  0  0  0  0  0  0
   37.6830   29.9570   50.3510 N   0  0  0  0  0  0  0  0  0  0  0  0
   37.2290   29.0090   51.1750 C   0  0  0  0  0  0  0  0  0  0  0  0
   35.9110   28.7960   51.3060 N   0  0  0  0  0  0  0  0  0  0  0  0
   33.9850   29.4730   50.6200 H   0  0  0  0  0  0  0  0  0  0  0  0
   34.8580   31.1830   49.1350 H   0  0  0  0  0  0  0  0  0  0  0  0
   38.2400   28.1960   51.9350 C   0  0  0  0  0  0  0  0  0  0  0  0
   38.9400   28.8210   52.4830 H   0  0  0  0  0  0  0  0  0  0  0  0
   37.6600   27.5090   52.6060 H   0  0  0  0  0  0  0  0  0  0  0  0
   38.9590   27.3030   50.9110 C   0  0  0  0  0  0  0  0  0  0  0  0
   39.7560   27.9500   50.4380 H   0  0  0  0  0  0  0  0  0  0  0  0
   38.2900   27.0420   50.0930 H   0  0  0  0  0  0  0  0  0  0  0  0
   39.5990   26.1390   51.5930 C   0  0  0  0  0  0  0  0  0  0  0  0
   40.2460   25.0710   50.8490 C   0  0  0  0  0  0  0  0  0  0  0  0
   40.2870   25.0830   49.7860 H   0  0  0  0  0  0  0  0  0  0  0  0
   40.7980   24.0030   52.2010 S   0  0  0  0  0  0  0  0  0  0  0  0
   40.0750   25.1580   53.5460 C   0  0  0  0  0  0  0  0  0  0  0  0
   40.1240   24.9870   54.6310 H   0  0  0  0  0  0  0  0  0  0  0  0
   39.5460   26.1290   52.9070 N   0  0  0  0  0  0  0  0  0  0  0  0
  1  4  1  6  0  0  0
  1  2  1  0  0  0  0
  1 27  1  0  0  0  0
  2  5  1  0  0  0  0
  2  6  1  0  0  0  0
  3  7  1  1  0  0  0
  3  1  1  0  0  0  0
  3  2  1  0  0  0  0
  8  9  1  0  0  0  0
  8  3  1  0  0  0  0
  9 18  1  0  0  0  0
 10  9  2  0  0  0  0
 11 12  2  0  0  0  0
 11 10  1  0  0  0  0
 12 17  1  0  0  0  0
 13 14  2  0  0  0  0
 13 12  1  0  0  0  0
 14 15  1  0  0  0  0
 15 23  1  0  0  0  0
 15 16  2  0  0  0  0
 16 24  1  0  0  0  0
 17 16  1  0  0  0  0
 17  8  2  0  0  0  0
 19 10  1  0  0  0  0
 20 11  1  0  0  0  0
 21 13  1  0  0  0  0
 22 14  1  0  0  0  0
 25 31  1  0  0  0  0
 25 30  1  0  0  0  0
 26 25  2  0  0  0  0
 27 26  1  0  0  0  0
 27 28  2  0  0  0  0
 28 29  1  0  0  0  0
 29 30  2  0  0  0  0
 29 33  1  0  0  0  0
 32 26  1  0  0  0  0
 33 34  1  0  0  0  0
 33 35  1  0  0  0  0
 36 39  1  0  0  0  0
 36 33  1  0  0  0  0
 37 36  1  0  0  0  0
 38 36  1  0  0  0  0
 39 45  1  0  0  0  0
 40 39  2  0  0  0  0
 40 42  1  0  0  0  0
 41 40  1  0  0  0  0
 42 43  1  0  0  0  0
 43 44  1  0  0  0  0
 45 43  2  0  0  0  0
M  END
>  <minimizedAffinity>
-3.98652554

>  <minimizedRMSD>
3.15255499

$$$$
