
 OpenBabel03262521053D

 34 36  0  0  0  0  0  0  0  0999 V2000
   38.5480   31.2170   47.8090 Br  0  0  0  0  0  0  0  0  0  0  0  0
   37.1890   30.7660   46.5840 C   0  0  0  0  0  0  0  0  0  0  0  0
   36.0750   30.2070   47.1250 C   0  0  0  0  0  0  0  0  0  0  0  0
   35.0130   29.8410   46.2810 C   0  0  0  0  0  0  0  0  0  0  0  0
   35.1240   30.0580   44.9140 C   0  0  0  0  0  0  0  0  0  0  0  0
   36.2670   30.6210   44.4520 C   0  0  0  0  0  0  0  0  0  0  0  0
   37.3220   30.9890   45.2550 C   0  0  0  0  0  0  0  0  0  0  0  0
   34.0960   29.3910   46.6380 H   0  0  0  0  0  0  0  0  0  0  0  0
   34.2950   29.7720   44.2610 H   0  0  0  0  0  0  0  0  0  0  0  0
   36.3490   30.7890   43.3830 H   0  0  0  0  0  0  0  0  0  0  0  0
   36.7340   29.3770   49.4200 C   0  0  0  0  0  0  0  0  0  0  0  0
   35.8030   29.9130   48.5400 C   0  0  0  0  0  0  0  0  0  0  0  0
   34.4990   30.1970   49.0380 C   0  0  0  0  0  0  0  0  0  0  0  0
   34.2690   29.9120   50.3660 N   0  0  0  0  0  0  0  0  0  0  0  0
   35.2000   29.3990   51.1630 C   0  0  0  0  0  0  0  0  0  0  0  0
   36.4230   29.1320   50.6990 N   0  0  0  0  0  0  0  0  0  0  0  0
   37.7030   29.1900   48.9610 H   0  0  0  0  0  0  0  0  0  0  0  0
   33.7490   30.6120   48.3890 H   0  0  0  0  0  0  0  0  0  0  0  0
   34.9860   29.1870   52.2020 H   0  0  0  0  0  0  0  0  0  0  0  0
   38.5260   31.5800   44.7850 N   0  0  0  0  0  0  0  0  0  0  0  0
   38.4980   32.6380   44.8920 H   0  0  0  0  0  0  0  0  0  0  0  0
   39.9430   30.9500   44.1150 S   0  0  0  0  0  0  0  0  0  0  0  0
   39.8070   29.4820   43.8320 O   0  0  0  0  0  0  0  0  0  0  0  0
   39.0690   29.0120   43.3980 H   0  0  0  0  0  0  0  0  0  0  0  0
   41.0850   31.1080   45.1080 O   0  0  0  0  0  0  0  0  0  0  0  0
   41.3000   30.4060   45.7500 H   0  0  0  0  0  0  0  0  0  0  0  0
   40.2920   31.7800   42.6940 O   0  0  0  0  0  0  0  0  0  0  0  0
   39.2510   32.0610   41.8160 C   0  0  0  0  0  0  0  0  0  0  0  0
   39.0760   31.5120   40.5450 C   0  0  0  0  0  0  0  0  0  0  0  0
   39.6810   30.8020   40.0300 H   0  0  0  0  0  0  0  0  0  0  0  0
   37.5000   32.3430   39.9740 S   0  0  0  0  0  0  0  0  0  0  0  0
   37.3960   33.2910   41.6200 C   0  0  0  0  0  0  0  0  0  0  0  0
   36.5550   33.9740   41.7650 H   0  0  0  0  0  0  0  0  0  0  0  0
   38.3220   32.9250   42.1840 N   0  0  0  0  0  0  0  0  0  0  0  0
  2  3  1  0  0  0  0
  2  1  1  0  0  0  0
  3 12  1  0  0  0  0
  4  8  1  0  0  0  0
  4  3  2  0  0  0  0
  5  4  1  0  0  0  0
  6  5  2  0  0  0  0
  6  7  1  0  0  0  0
  7  2  2  0  0  0  0
  9  5  1  0  0  0  0
 10  6  1  0  0  0  0
 11 16  1  0  0  0  0
 12 13  1  0  0  0  0
 12 11  2  0  0  0  0
 13 14  2  0  0  0  0
 14 15  1  0  0  0  0
 15 19  1  0  0  0  0
 16 15  2  0  0  0  0
 17 11  1  0  0  0  0
 18 13  1  0  0  0  0
 20 21  1  0  0  0  0
 20  7  1  0  0  0  0
 22 20  1  0  0  0  0
 22 25  1  0  0  0  0
 23 22  1  0  0  0  0
 24 23  1  0  0  0  0
 25 26  1  0  0  0  0
 27 22  1  0  0  0  0
 28 34  1  0  0  0  0
 28 27  1  0  0  0  0
 29 28  2  0  0  0  0
 30 29  1  0  0  0  0
 31 29  1  0  0  0  0
 31 32  1  0  0  0  0
 32 33  1  0  0  0  0
 32 34  2  0  0  0  0
M  END
>  <minimizedAffinity>
-5.12566471

>  <minimizedRMSD>
3.11116195

$$$$
