
 OpenBabel03272509473D

 23 24  0  0  0  0  0  0  0  0999 V2000
   33.7920   28.6980   49.4690 C   0  0  0  0  0  0  0  0  0  0  0  0
   33.2380   28.5670   50.4370 H   0  0  0  0  0  0  0  0  0  0  0  0
   33.7250   29.7880   49.2180 H   0  0  0  0  0  0  0  0  0  0  0  0
   33.0220   27.9680   48.3930 C   0  0  0  0  0  0  0  0  0  0  0  0
   31.9560   28.2110   48.4830 H   0  0  0  0  0  0  0  0  0  0  0  0
   33.1410   26.8830   48.4840 H   0  0  0  0  0  0  0  0  0  0  0  0
   33.5740   28.4830   47.0880 C   0  0  0  0  0  0  0  0  0  0  0  0
   33.6040   27.4470   46.0630 C   0  0  0  0  0  0  0  0  0  0  0  0
   33.3220   26.4110   46.0360 H   0  0  0  0  0  0  0  0  0  0  0  0
   34.3080   28.3250   44.6000 S   0  0  0  0  0  0  0  0  0  0  0  0
   34.4400   29.9260   45.6170 C   0  0  0  0  0  0  0  0  0  0  0  0
   34.7650   31.1200   45.6510 H   0  0  0  0  0  0  0  0  0  0  0  0
   34.0400   29.6290   46.6290 N   0  0  0  0  0  0  0  0  0  0  0  0
   35.1140   28.2230   49.5330 O   0  0  0  0  0  0  0  0  0  0  0  0
   37.4420   30.3110   51.3820 C   0  0  0  0  0  0  0  0  0  0  0  0
   38.1440   30.8800   50.3050 C   0  0  0  0  0  0  0  0  0  0  0  0
   37.7860   30.5190   49.0110 C   0  0  0  0  0  0  0  0  0  0  0  0
   36.7620   29.6260   48.8700 N   0  0  0  0  0  0  0  0  0  0  0  0
   36.1100   29.1010   49.9330 C   0  0  0  0  0  0  0  0  0  0  0  0
   36.4620   29.4550   51.1740 N   0  0  0  0  0  0  0  0  0  0  0  0
   37.6930   30.5700   52.4060 H   0  0  0  0  0  0  0  0  0  0  0  0
   38.9520   31.5880   50.4850 H   0  0  0  0  0  0  0  0  0  0  0  0
   38.2990   30.9310   48.1510 H   0  0  0  0  0  0  0  0  0  0  0  0
  1 14  1  0  0  0  0
  1  2  1  0  0  0  0
  3  1  1  0  0  0  0
  4  5  1  0  0  0  0
  4  6  1  0  0  0  0
  4  1  1  0  0  0  0
  7  4  1  0  0  0  0
  8  7  2  0  0  0  0
  9  8  1  0  0  0  0
 10 11  1  0  0  0  0
 10  8  1  0  0  0  0
 11 12  1  0  0  0  0
 11 13  2  0  0  0  0
 13  7  1  0  0  0  0
 14 19  1  0  0  0  0
 15 21  1  0  0  0  0
 16 22  1  0  0  0  0
 16 15  2  0  0  0  0
 17 16  1  0  0  0  0
 18 17  2  0  0  0  0
 18 19  1  0  0  0  0
 19 20  2  0  0  0  0
 20 15  1  0  0  0  0
 23 17  1  0  0  0  0
M  END
>  <minimizedAffinity>
-3.80699301

>  <minimizedRMSD>
1.41546714

$$$$
