
 OpenBabel03272507523D

 30 32  0  0  0  0  0  0  0  0999 V2000
   36.4950   31.2160   48.6970 N   0  0  0  0  0  0  0  0  0  0  0  0
   36.7360   32.0620   49.6910 C   0  0  0  0  0  0  0  0  0  0  0  0
   37.7940   32.9670   49.5870 C   0  0  0  0  0  0  0  0  0  0  0  0
   38.5050   32.8910   48.4310 C   0  0  0  0  0  0  0  0  0  0  0  0
   39.4640   33.7190   48.3480 O   0  0  0  0  0  0  0  0  0  0  0  0
   38.2960   32.0620   47.4150 N   0  0  0  0  0  0  0  0  0  0  0  0
   37.2590   31.2020   47.5600 C   0  0  0  0  0  0  0  0  0  0  0  0
   37.0450   30.3980   46.5950 O   0  0  0  0  0  0  0  0  0  0  0  0
   36.1110   32.0450   50.5770 H   0  0  0  0  0  0  0  0  0  0  0  0
   38.0090   33.6610   50.3790 H   0  0  0  0  0  0  0  0  0  0  0  0
   35.2620   29.5140   49.9150 C   0  0  0  0  0  0  0  0  0  0  0  0
   35.4300   30.2520   48.7290 C   0  0  0  0  0  0  0  0  0  0  0  0
   34.5670   30.0140   47.6530 C   0  0  0  0  0  0  0  0  0  0  0  0
   33.6030   29.0730   47.8100 N   0  0  0  0  0  0  0  0  0  0  0  0
   33.4480   28.3780   48.9250 C   0  0  0  0  0  0  0  0  0  0  0  0
   34.2690   28.5980   49.9660 N   0  0  0  0  0  0  0  0  0  0  0  0
   34.7240   30.6030   46.7500 H   0  0  0  0  0  0  0  0  0  0  0  0
   32.6750   27.6310   49.0360 H   0  0  0  0  0  0  0  0  0  0  0  0
   37.3810   29.2020   51.4020 C   0  0  0  0  0  0  0  0  0  0  0  0
   38.0700   28.5380   50.5990 O   0  0  0  0  0  0  0  0  0  0  0  0
   36.0670   29.6820   51.0620 N   0  0  0  0  0  0  0  0  0  0  0  0
   37.8380   29.3880   52.3600 H   0  0  0  0  0  0  0  0  0  0  0  0
   35.6790   30.2690   51.8580 H   0  0  0  0  0  0  0  0  0  0  0  0
   39.1020   32.0500   46.2200 C   0  0  0  0  0  0  0  0  0  0  0  0
   38.7810   32.7740   45.0240 C   0  0  0  0  0  0  0  0  0  0  0  0
   37.9080   33.3690   44.9680 H   0  0  0  0  0  0  0  0  0  0  0  0
   40.1270   32.3510   43.9610 S   0  0  0  0  0  0  0  0  0  0  0  0
   40.9580   31.2420   45.2750 C   0  0  0  0  0  0  0  0  0  0  0  0
   41.8890   30.7020   45.1170 H   0  0  0  0  0  0  0  0  0  0  0  0
   40.2100   31.3310   46.2050 N   0  0  0  0  0  0  0  0  0  0  0  0
  1 12  1  0  0  0  0
  1  2  1  0  0  0  0
  2  9  1  0  0  0  0
  3  2  2  0  0  0  0
  3 10  1  0  0  0  0
  4  3  1  0  0  0  0
  5  4  2  0  0  0  0
  6  7  1  0  0  0  0
  6  4  1  0  0  0  0
  7  1  1  0  0  0  0
  8  7  2  0  0  0  0
 11 16  1  0  0  0  0
 11 21  1  0  0  0  0
 12 11  2  0  0  0  0
 13 14  2  0  0  0  0
 13 12  1  0  0  0  0
 14 15  1  0  0  0  0
 15 18  1  0  0  0  0
 15 16  2  0  0  0  0
 17 13  1  0  0  0  0
 19 22  1  0  0  0  0
 20 19  2  0  0  0  0
 21 19  1  0  0  0  0
 21 23  1  0  0  0  0
 24  6  1  0  0  0  0
 25 24  2  0  0  0  0
 26 25  1  0  0  0  0
 27 25  1  0  0  0  0
 27 28  1  0  0  0  0
 28 30  2  0  0  0  0
 29 28  1  0  0  0  0
 30 24  1  0  0  0  0
M  END
>  <minimizedAffinity>
-5.90568399

>  <minimizedRMSD>
1.19512689

$$$$
