
 OpenBabel03272505033D

 27 29  0  0  0  0  0  0  0  0999 V2000
   36.2590   30.3260   45.8360 Cl  0  0  0  0  0  0  0  0  0  0  0  0
   37.5720   31.3570   46.3750 C   0  0  0  0  0  0  0  0  0  0  0  0
   37.8300   31.4410   47.7180 C   0  0  0  0  0  0  0  0  0  0  0  0
   38.8770   32.2740   48.0770 C   0  0  0  0  0  0  0  0  0  0  0  0
   39.5910   32.9610   47.0970 C   0  0  0  0  0  0  0  0  0  0  0  0
   39.2880   32.8390   45.7620 C   0  0  0  0  0  0  0  0  0  0  0  0
   38.2440   32.0100   45.3930 C   0  0  0  0  0  0  0  0  0  0  0  0
   39.1700   32.4180   49.1060 H   0  0  0  0  0  0  0  0  0  0  0  0
   40.4050   33.6070   47.4070 H   0  0  0  0  0  0  0  0  0  0  0  0
   39.8710   33.3930   45.0290 H   0  0  0  0  0  0  0  0  0  0  0  0
   37.7250   29.8660   49.6540 C   0  0  0  0  0  0  0  0  0  0  0  0
   37.0870   30.7250   48.7420 C   0  0  0  0  0  0  0  0  0  0  0  0
   35.7170   30.8580   48.8600 C   0  0  0  0  0  0  0  0  0  0  0  0
   35.0760   30.1680   49.8320 N   0  0  0  0  0  0  0  0  0  0  0  0
   35.7170   29.3540   50.6910 C   0  0  0  0  0  0  0  0  0  0  0  0
   37.0430   29.2060   50.5990 N   0  0  0  0  0  0  0  0  0  0  0  0
   38.8020   29.7370   49.5910 H   0  0  0  0  0  0  0  0  0  0  0  0
   35.2100   31.5160   48.1640 H   0  0  0  0  0  0  0  0  0  0  0  0
   35.1360   28.8440   51.4310 H   0  0  0  0  0  0  0  0  0  0  0  0
   37.9600   31.9040   44.0480 O   0  0  0  0  0  0  0  0  0  0  0  0
   38.8330   31.1020   43.2830 C   0  0  0  0  0  0  0  0  0  0  0  0
   39.3120   31.8170   42.2120 C   0  0  0  0  0  0  0  0  0  0  0  0
   39.2530   32.7790   41.7540 H   0  0  0  0  0  0  0  0  0  0  0  0
   40.4170   30.5690   41.3750 S   0  0  0  0  0  0  0  0  0  0  0  0
   39.9770   29.2670   42.7190 C   0  0  0  0  0  0  0  0  0  0  0  0
   40.1550   28.1580   43.0940 H   0  0  0  0  0  0  0  0  0  0  0  0
   39.2750   29.8630   43.3610 N   0  0  0  0  0  0  0  0  0  0  0  0
  1  2  1  0  0  0  0
  2  3  1  0  0  0  0
  3  4  2  0  0  0  0
  3 12  1  0  0  0  0
  4  8  1  0  0  0  0
  5  9  1  0  0  0  0
  5  4  1  0  0  0  0
  6  5  2  0  0  0  0
  7  6  1  0  0  0  0
  7  2  2  0  0  0  0
 10  6  1  0  0  0  0
 11 16  1  0  0  0  0
 12 13  1  0  0  0  0
 12 11  2  0  0  0  0
 13 14  2  0  0  0  0
 14 15  1  0  0  0  0
 15 19  1  0  0  0  0
 16 15  2  0  0  0  0
 17 11  1  0  0  0  0
 18 13  1  0  0  0  0
 20  7  1  0  0  0  0
 21 27  1  0  0  0  0
 21 20  1  0  0  0  0
 22 21  2  0  0  0  0
 23 22  1  0  0  0  0
 24 22  1  0  0  0  0
 24 25  1  0  0  0  0
 25 26  1  0  0  0  0
 25 27  2  0  0  0  0
M  END
>  <minimizedAffinity>
-5.09713554

>  <minimizedRMSD>
2.48507023

$$$$
