
 OpenBabel03272500383D

 34 36  0  0  1  0  0  0  0  0999 V2000
   36.7630   31.1620   48.9160 C   0  0  0  0  0  0  0  0  0  0  0  0
   37.0510   32.2780   49.7300 C   0  0  0  0  0  0  0  0  0  0  0  0
   37.9950   33.1910   49.2540 C   0  0  0  0  0  0  0  0  0  0  0  0
   38.5760   32.9480   48.0400 N   0  0  0  0  0  0  0  0  0  0  0  0
   38.2670   31.8670   47.3020 C   0  0  0  0  0  0  0  0  0  0  0  0
   37.3620   30.9710   47.7330 N   0  0  0  0  0  0  0  0  0  0  0  0
   38.9360   31.7090   46.0430 N   0  0  0  0  0  0  0  0  0  0  0  0
   40.1720   30.9560   46.0000 C   0  0  0  0  0  0  0  0  0  0  0  0
   41.1060   31.8060   45.1330 C   0  0  0  0  0  0  0  0  0  0  0  0
   40.5340   31.6880   43.7470 C   0  0  0  0  0  0  0  0  0  0  0  0
   39.2310   32.4050   43.6940 C   0  0  0  0  0  0  0  0  0  0  0  0
   38.3530   32.2960   44.8990 C   0  0  1  0  0  0  0  0  0  0  0  0
   36.5640   32.4250   50.6810 H   0  0  0  0  0  0  0  0  0  0  0  0
   38.2320   34.0410   49.8460 H   0  0  0  0  0  0  0  0  0  0  0  0
   40.6140   30.8500   47.0070 H   0  0  0  0  0  0  0  0  0  0  0  0
   40.0570   29.9830   45.4670 H   0  0  0  0  0  0  0  0  0  0  0  0
   42.0740   31.2400   45.1190 H   0  0  0  0  0  0  0  0  0  0  0  0
   41.1850   32.8340   45.4930 H   0  0  0  0  0  0  0  0  0  0  0  0
   40.4330   30.6000   43.5370 H   0  0  0  0  0  0  0  0  0  0  0  0
   41.2280   32.1360   43.0110 H   0  0  0  0  0  0  0  0  0  0  0  0
   38.6690   31.9520   42.8340 H   0  0  0  0  0  0  0  0  0  0  0  0
   39.4300   33.4450   43.3630 H   0  0  0  0  0  0  0  0  0  0  0  0
   38.1360   33.3610   45.1970 H   0  0  0  0  0  0  0  0  0  0  0  0
   37.0720   31.6020   44.5930 C   0  0  0  0  0  0  0  0  0  0  0  0
   36.6500   30.3240   45.2030 C   0  0  0  0  0  0  0  0  0  0  0  0
   37.4240   29.8460   45.9880 H   0  0  0  0  0  0  0  0  0  0  0  0
   35.0240   30.0670   44.4060 S   0  0  0  0  0  0  0  0  0  0  0  0
   35.1540   31.6380   43.4250 C   0  0  0  0  0  0  0  0  0  0  0  0
   34.3400   31.9150   42.7530 H   0  0  0  0  0  0  0  0  0  0  0  0
   36.2170   32.1090   43.7410 N   0  0  0  0  0  0  0  0  0  0  0  0
   35.7510   30.1690   49.4090 C   0  0  0  0  0  0  0  0  0  0  0  0
   34.4810   30.7670   49.3880 F   0  0  0  0  0  0  0  0  0  0  0  0
   35.8340   29.0530   48.6570 F   0  0  0  0  0  0  0  0  0  0  0  0
   36.0290   29.9270   50.7480 F   0  0  0  0  0  0  0  0  0  0  0  0
  1 31  1  0  0  0  0
  1  2  1  0  0  0  0
  2 13  1  0  0  0  0
  3  2  2  0  0  0  0
  3 14  1  0  0  0  0
  4  3  1  0  0  0  0
  5  6  1  0  0  0  0
  5  4  2  0  0  0  0
  6  1  2  0  0  0  0
  7  5  1  0  0  0  0
  8  7  1  0  0  0  0
  8 15  1  0  0  0  0
  9 18  1  0  0  0  0
  9  8  1  0  0  0  0
 10  9  1  0  0  0  0
 11 10  1  0  0  0  0
 11 12  1  0  0  0  0
 12 23  1  1  0  0  0
 12  7  1  0  0  0  0
 16  8  1  0  0  0  0
 17  9  1  0  0  0  0
 19 10  1  0  0  0  0
 20 10  1  0  0  0  0
 21 11  1  0  0  0  0
 22 11  1  0  0  0  0
 24 12  1  0  0  0  0
 24 25  2  0  0  0  0
 25 26  1  0  0  0  0
 27 25  1  0  0  0  0
 28 30  2  0  0  0  0
 28 27  1  0  0  0  0
 29 28  1  0  0  0  0
 30 24  1  0  0  0  0
 31 34  1  0  0  0  0
 32 31  1  0  0  0  0
 33 31  1  0  0  0  0
M  END
>  <minimizedAffinity>
-5.88329506

>  <minimizedRMSD>
0.314978719

$$$$
