
 OpenBabel03272507283D

 39 41  0  0  1  0  0  0  0  0999 V2000
   37.1840   30.5640   48.2150 C   0  0  0  0  0  0  0  0  0  0  0  0
   36.0270   30.4430   47.4160 C   0  0  0  0  0  0  0  0  0  0  0  0
   35.0290   29.5860   47.8720 C   0  0  0  0  0  0  0  0  0  0  0  0
   35.2120   28.9290   49.0290 N   0  0  0  0  0  0  0  0  0  0  0  0
   36.3290   29.0670   49.7680 C   0  0  0  0  0  0  0  0  0  0  0  0
   37.3040   29.8760   49.3640 N   0  0  0  0  0  0  0  0  0  0  0  0
   33.8560   29.4090   47.1480 N   0  0  0  0  0  0  0  0  0  0  0  0
   33.1920   30.4440   46.3130 C   0  0  0  0  0  0  0  0  0  0  0  0
   31.8830   29.9310   45.8900 C   0  0  0  0  0  0  0  0  0  0  0  0
   31.6200   28.8620   46.8600 C   0  0  0  0  0  0  0  0  0  0  0  0
   32.9800   28.2890   47.0170 C   0  0  2  0  0  0  0  0  0  0  0  0
   37.9880   31.2240   47.8930 H   0  0  0  0  0  0  0  0  0  0  0  0
   35.9470   31.0010   46.4970 H   0  0  0  0  0  0  0  0  0  0  0  0
   36.5410   28.5730   50.7020 H   0  0  0  0  0  0  0  0  0  0  0  0
   32.9730   31.2150   47.1840 H   0  0  0  0  0  0  0  0  0  0  0  0
   33.8210   31.0350   45.7000 H   0  0  0  0  0  0  0  0  0  0  0  0
   31.1220   30.7630   46.2500 H   0  0  0  0  0  0  0  0  0  0  0  0
   31.5920   29.8800   44.8720 H   0  0  0  0  0  0  0  0  0  0  0  0
   30.8970   28.1350   46.3830 H   0  0  0  0  0  0  0  0  0  0  0  0
   31.1760   29.1910   47.8170 H   0  0  0  0  0  0  0  0  0  0  0  0
   33.0180   27.3130   48.1890 C   0  0  0  0  0  0  0  0  0  0  0  0
   32.8930   28.0380   49.3540 F   0  0  0  0  0  0  0  0  0  0  0  0
   34.1680   26.5840   48.3070 F   0  0  0  0  0  0  0  0  0  0  0  0
   31.8910   26.5310   48.0880 F   0  0  0  0  0  0  0  0  0  0  0  0
   33.3940   27.5430   45.8530 C   0  0  2  0  0  0  0  0  0  0  0  0
   34.2050   26.8760   46.0640 H   0  0  0  0  0  0  0  0  0  0  0  0
   34.1610   28.4140   44.7660 C   0  0  0  0  0  0  0  0  0  0  0  0
   33.3120   28.3240   43.4620 C   0  0  0  0  0  0  0  0  0  0  0  0
   32.3690   27.9340   42.9330 H   0  0  0  0  0  0  0  0  0  0  0  0
   34.3170   29.3400   42.2380 S   0  0  0  0  0  0  0  0  0  0  0  0
   35.5990   29.6840   43.5710 C   0  0  0  0  0  0  0  0  0  0  0  0
   36.5270   30.2330   43.6220 H   0  0  0  0  0  0  0  0  0  0  0  0
   35.1900   29.1470   44.4470 N   0  0  0  0  0  0  0  0  0  0  0  0
   32.3650   27.2030   45.2310 O   0  0  0  0  0  0  0  0  0  0  0  0
   31.6700   26.0980   44.8980 C   0  0  0  0  0  0  0  0  0  0  0  0
   30.5050   26.3690   44.5970 O   0  0  0  0  0  0  0  0  0  0  0  0
   31.6650   24.6880   44.7210 N   0  0  0  0  0  0  0  0  0  0  0  0
   31.5560   23.9790   45.4850 H   0  0  0  0  0  0  0  0  0  0  0  0
   31.7730   24.2300   43.7940 H   0  0  0  0  0  0  0  0  0  0  0  0
  1  6  1  0  0  0  0
  2  3  1  0  0  0  0
  2  1  2  0  0  0  0
  3  4  2  0  0  0  0
  4  5  1  0  0  0  0
  5 14  1  0  0  0  0
  6  5  2  0  0  0  0
  7  3  1  0  0  0  0
  8  7  1  0  0  0  0
  8 15  1  0  0  0  0
  9 17  1  0  0  0  0
  9  8  1  0  0  0  0
  9 10  1  0  0  0  0
 10 11  1  0  0  0  0
 10 20  1  0  0  0  0
 11  7  1  0  0  0  0
 11 21  1  1  0  0  0
 12  1  1  0  0  0  0
 13  2  1  0  0  0  0
 16  8  1  0  0  0  0
 18  9  1  0  0  0  0
 19 10  1  0  0  0  0
 21 23  1  0  0  0  0
 21 22  1  0  0  0  0
 24 21  1  0  0  0  0
 25 26  1  1  0  0  0
 25 11  1  0  0  0  0
 27 25  1  0  0  0  0
 28 27  2  0  0  0  0
 29 28  1  0  0  0  0
 30 28  1  0  0  0  0
 30 31  1  0  0  0  0
 31 32  1  0  0  0  0
 31 33  2  0  0  0  0
 33 27  1  0  0  0  0
 34 25  1  0  0  0  0
 35 34  1  0  0  0  0
 36 35  2  0  0  0  0
 37 35  1  0  0  0  0
 37 38  1  0  0  0  0
 39 37  1  0  0  0  0
M  END
>  <minimizedAffinity>
-4.01281309

>  <minimizedRMSD>
7.50261307

$$$$
