
 OpenBabel03272500383D

 34 36  0  0  1  0  0  0  0  0999 V2000
   39.0950   23.1450   37.3550 C   0  0  0  0  0  0  0  0  0  0  0  0
   40.2960   22.4290   37.5550 C   0  0  0  0  0  0  0  0  0  0  0  0
   40.9510   21.9480   36.4190 C   0  0  0  0  0  0  0  0  0  0  0  0
   40.3940   22.1990   35.1960 N   0  0  0  0  0  0  0  0  0  0  0  0
   39.2470   22.8860   35.0580 C   0  0  0  0  0  0  0  0  0  0  0  0
   38.5920   23.3620   36.1320 N   0  0  0  0  0  0  0  0  0  0  0  0
   38.7500   23.0920   33.7280 N   0  0  0  0  0  0  0  0  0  0  0  0
   37.8320   22.1230   33.1680 C   0  0  0  0  0  0  0  0  0  0  0  0
   38.3530   21.8810   31.7480 C   0  0  0  0  0  0  0  0  0  0  0  0
   38.0500   23.1630   31.0200 C   0  0  0  0  0  0  0  0  0  0  0  0
   38.9240   24.2440   31.5530 C   0  0  0  0  0  0  0  0  0  0  0  0
   39.1810   24.2380   33.0250 C   0  0  1  0  0  0  0  0  0  0  0  0
   40.6940   22.2590   38.5430 H   0  0  0  0  0  0  0  0  0  0  0  0
   41.8570   21.4060   36.5400 H   0  0  0  0  0  0  0  0  0  0  0  0
   37.8620   21.1710   33.7280 H   0  0  0  0  0  0  0  0  0  0  0  0
   36.8010   22.5310   33.0550 H   0  0  0  0  0  0  0  0  0  0  0  0
   37.6600   21.1100   31.3190 H   0  0  0  0  0  0  0  0  0  0  0  0
   39.4080   21.6030   31.7340 H   0  0  0  0  0  0  0  0  0  0  0  0
   36.9690   23.3700   31.1790 H   0  0  0  0  0  0  0  0  0  0  0  0
   38.2400   23.0380   29.9380 H   0  0  0  0  0  0  0  0  0  0  0  0
   38.3980   25.2060   31.3130 H   0  0  0  0  0  0  0  0  0  0  0  0
   39.8390   24.2770   30.9270 H   0  0  0  0  0  0  0  0  0  0  0  0
   40.3040   24.2350   33.1240 H   0  0  0  0  0  0  0  0  0  0  0  0
   38.6340   25.4530   33.6900 C   0  0  0  0  0  0  0  0  0  0  0  0
   37.2340   25.9090   33.5660 C   0  0  0  0  0  0  0  0  0  0  0  0
   36.5280   25.2320   32.8720 H   0  0  0  0  0  0  0  0  0  0  0  0
   37.2530   27.4090   34.6150 S   0  0  0  0  0  0  0  0  0  0  0  0
   39.0500   27.2000   35.0360 C   0  0  0  0  0  0  0  0  0  0  0  0
   39.5300   27.9270   35.6940 H   0  0  0  0  0  0  0  0  0  0  0  0
   39.3890   26.2040   34.4490 N   0  0  0  0  0  0  0  0  0  0  0  0
   38.3760   23.6700   38.5630 C   0  0  0  0  0  0  0  0  0  0  0  0
   37.8830   24.9530   38.2750 F   0  0  0  0  0  0  0  0  0  0  0  0
   37.4170   22.7900   38.9140 F   0  0  0  0  0  0  0  0  0  0  0  0
   39.3230   23.8480   39.5620 F   0  0  0  0  0  0  0  0  0  0  0  0
  1  2  1  0  0  0  0
  1 31  1  0  0  0  0
  2 13  1  0  0  0  0
  3 14  1  0  0  0  0
  3  2  2  0  0  0  0
  4  3  1  0  0  0  0
  5  4  2  0  0  0  0
  5  6  1  0  0  0  0
  6  1  2  0  0  0  0
  7  5  1  0  0  0  0
  8  7  1  0  0  0  0
  8 15  1  0  0  0  0
  9  8  1  0  0  0  0
 10 19  1  0  0  0  0
 10 11  1  0  0  0  0
 10  9  1  0  0  0  0
 11 12  1  0  0  0  0
 12 23  1  1  0  0  0
 12 24  1  0  0  0  0
 12  7  1  0  0  0  0
 16  8  1  0  0  0  0
 17  9  1  0  0  0  0
 18  9  1  0  0  0  0
 20 10  1  0  0  0  0
 21 11  1  0  0  0  0
 22 11  1  0  0  0  0
 24 30  1  0  0  0  0
 25 24  2  0  0  0  0
 25 27  1  0  0  0  0
 26 25  1  0  0  0  0
 27 28  1  0  0  0  0
 28 29  1  0  0  0  0
 30 28  2  0  0  0  0
 31 33  1  0  0  0  0
 31 34  1  0  0  0  0
 32 31  1  0  0  0  0
M  END
>  <minimizedAffinity>
-5.54061174

$$$$

 OpenBabel03272500383D

 34 36  0  0  1  0  0  0  0  0999 V2000
   38.6140   24.2870   35.3750 C   0  0  0  0  0  0  0  0  0  0  0  0
   39.8330   23.6480   35.6860 C   0  0  0  0  0  0  0  0  0  0  0  0
   40.0600   22.3910   35.1200 C   0  0  0  0  0  0  0  0  0  0  0  0
   39.0950   21.8630   34.3080 N   0  0  0  0  0  0  0  0  0  0  0  0
   37.9480   22.5130   34.0420 C   0  0  0  0  0  0  0  0  0  0  0  0
   37.7010   23.7240   34.5720 N   0  0  0  0  0  0  0  0  0  0  0  0
   37.0030   21.8680   33.1770 N   0  0  0  0  0  0  0  0  0  0  0  0
   35.9850   21.0220   33.7630 C   0  0  0  0  0  0  0  0  0  0  0  0
   35.9750   19.7700   32.8800 C   0  0  0  0  0  0  0  0  0  0  0  0
   35.3840   20.2400   31.5790 C   0  0  0  0  0  0  0  0  0  0  0  0
   36.3480   21.1550   30.9080 C   0  0  0  0  0  0  0  0  0  0  0  0
   37.1120   22.0910   31.7870 C   0  0  1  0  0  0  0  0  0  0  0  0
   40.5630   24.1080   36.3340 H   0  0  0  0  0  0  0  0  0  0  0  0
   40.9700   21.8870   35.3380 H   0  0  0  0  0  0  0  0  0  0  0  0
   36.2480   20.7320   34.7950 H   0  0  0  0  0  0  0  0  0  0  0  0
   34.9650   21.4670   33.6800 H   0  0  0  0  0  0  0  0  0  0  0  0
   35.2050   19.1010   33.3460 H   0  0  0  0  0  0  0  0  0  0  0  0
   36.9660   19.3250   32.7800 H   0  0  0  0  0  0  0  0  0  0  0  0
   34.4220   20.7410   31.8290 H   0  0  0  0  0  0  0  0  0  0  0  0
   35.1810   19.3750   30.9200 H   0  0  0  0  0  0  0  0  0  0  0  0
   35.7340   21.7830   30.2090 H   0  0  0  0  0  0  0  0  0  0  0  0
   36.9780   20.5430   30.2300 H   0  0  0  0  0  0  0  0  0  0  0  0
   38.1950   21.8990   31.5450 H   0  0  0  0  0  0  0  0  0  0  0  0
   36.7900   23.5150   31.4940 C   0  0  0  0  0  0  0  0  0  0  0  0
   35.4290   24.0870   31.5430 C   0  0  0  0  0  0  0  0  0  0  0  0
   34.5540   23.3190   31.8360 H   0  0  0  0  0  0  0  0  0  0  0  0
   35.7580   25.8320   31.0980 S   0  0  0  0  0  0  0  0  0  0  0  0
   37.5830   25.5360   30.9240 C   0  0  0  0  0  0  0  0  0  0  0  0
   38.2330   26.3680   30.6470 H   0  0  0  0  0  0  0  0  0  0  0  0
   37.7300   24.3670   31.1740 N   0  0  0  0  0  0  0  0  0  0  0  0
   38.3510   25.6390   35.9720 C   0  0  0  0  0  0  0  0  0  0  0  0
   38.1760   25.4970   37.3570 F   0  0  0  0  0  0  0  0  0  0  0  0
   39.3620   26.4660   35.6370 F   0  0  0  0  0  0  0  0  0  0  0  0
   37.1260   26.0740   35.4830 F   0  0  0  0  0  0  0  0  0  0  0  0
  1  2  1  0  0  0  0
  1 31  1  0  0  0  0
  2 13  1  0  0  0  0
  3 14  1  0  0  0  0
  3  2  2  0  0  0  0
  4  3  1  0  0  0  0
  5  4  2  0  0  0  0
  5  6  1  0  0  0  0
  6  1  2  0  0  0  0
  7  8  1  0  0  0  0
  7  5  1  0  0  0  0
  8 15  1  0  0  0  0
  9 17  1  0  0  0  0
  9  8  1  0  0  0  0
 10 19  1  0  0  0  0
 10  9  1  0  0  0  0
 11 10  1  0  0  0  0
 11 12  1  0  0  0  0
 12 23  1  6  0  0  0
 12  7  1  0  0  0  0
 16  8  1  0  0  0  0
 18  9  1  0  0  0  0
 20 10  1  0  0  0  0
 21 11  1  0  0  0  0
 22 11  1  0  0  0  0
 24 25  2  0  0  0  0
 24 12  1  0  0  0  0
 25 26  1  0  0  0  0
 27 25  1  0  0  0  0
 28 27  1  0  0  0  0
 28 30  2  0  0  0  0
 29 28  1  0  0  0  0
 30 24  1  0  0  0  0
 31 32  1  0  0  0  0
 33 31  1  0  0  0  0
 34 31  1  0  0  0  0
M  END
>  <minimizedAffinity>
-5.22545862

$$$$

 OpenBabel03272500383D

 34 36  0  0  1  0  0  0  0  0999 V2000
   40.0560   23.0600   36.8950 C   0  0  0  0  0  0  0  0  0  0  0  0
   39.1920   23.0570   38.0110 C   0  0  0  0  0  0  0  0  0  0  0  0
   38.0320   23.8310   37.9260 C   0  0  0  0  0  0  0  0  0  0  0  0
   37.8090   24.5370   36.7770 N   0  0  0  0  0  0  0  0  0  0  0  0
   38.6640   24.5070   35.7390 C   0  0  0  0  0  0  0  0  0  0  0  0
   39.7880   23.7720   35.7910 N   0  0  0  0  0  0  0  0  0  0  0  0
   38.3320   25.2860   34.5810 N   0  0  0  0  0  0  0  0  0  0  0  0
   38.8160   26.6480   34.4940 C   0  0  0  0  0  0  0  0  0  0  0  0
   37.6030   27.4530   34.0180 C   0  0  0  0  0  0  0  0  0  0  0  0
   37.4100   27.0210   32.5900 C   0  0  0  0  0  0  0  0  0  0  0  0
   36.9440   25.6070   32.5670 C   0  0  0  0  0  0  0  0  0  0  0  0
   37.5470   24.6830   33.5750 C   0  0  1  0  0  0  0  0  0  0  0  0
   39.4150   22.4810   38.8960 H   0  0  0  0  0  0  0  0  0  0  0  0
   37.3640   23.8470   38.7520 H   0  0  0  0  0  0  0  0  0  0  0  0
   39.1330   27.0260   35.4820 H   0  0  0  0  0  0  0  0  0  0  0  0
   39.5970   26.7710   33.7080 H   0  0  0  0  0  0  0  0  0  0  0  0
   37.9660   28.5130   33.9750 H   0  0  0  0  0  0  0  0  0  0  0  0
   36.7270   27.2970   34.6500 H   0  0  0  0  0  0  0  0  0  0  0  0
   38.3900   27.1560   32.0820 H   0  0  0  0  0  0  0  0  0  0  0  0
   36.6550   27.6630   32.0980 H   0  0  0  0  0  0  0  0  0  0  0  0
   37.2170   25.2140   31.5520 H   0  0  0  0  0  0  0  0  0  0  0  0
   35.8340   25.6170   32.5590 H   0  0  0  0  0  0  0  0  0  0  0  0
   36.6690   24.2340   34.1200 H   0  0  0  0  0  0  0  0  0  0  0  0
   38.3310   23.5930   32.9300 C   0  0  0  0  0  0  0  0  0  0  0  0
   39.5520   23.8110   32.1260 C   0  0  0  0  0  0  0  0  0  0  0  0
   39.8950   24.9550   32.0050 H   0  0  0  0  0  0  0  0  0  0  0  0
   39.9870   22.0950   31.6650 S   0  0  0  0  0  0  0  0  0  0  0  0
   38.5340   21.3860   32.5790 C   0  0  0  0  0  0  0  0  0  0  0  0
   38.3800   20.3050   32.5790 H   0  0  0  0  0  0  0  0  0  0  0  0
   37.9720   22.3420   33.0510 N   0  0  0  0  0  0  0  0  0  0  0  0
   41.3070   22.2350   36.9660 C   0  0  0  0  0  0  0  0  0  0  0  0
   42.4170   23.0940   36.9970 F   0  0  0  0  0  0  0  0  0  0  0  0
   41.2280   21.4170   38.0360 F   0  0  0  0  0  0  0  0  0  0  0  0
   41.4080   21.5350   35.7710 F   0  0  0  0  0  0  0  0  0  0  0  0
  1 31  1  0  0  0  0
  1  2  1  0  0  0  0
  2 13  1  0  0  0  0
  3  2  2  0  0  0  0
  3 14  1  0  0  0  0
  4  3  1  0  0  0  0
  5  6  1  0  0  0  0
  5  4  2  0  0  0  0
  6  1  2  0  0  0  0
  7  5  1  0  0  0  0
  8  7  1  0  0  0  0
  8 15  1  0  0  0  0
  9  8  1  0  0  0  0
  9 18  1  0  0  0  0
 10  9  1  0  0  0  0
 11 10  1  0  0  0  0
 11 12  1  0  0  0  0
 12 23  1  1  0  0  0
 12  7  1  0  0  0  0
 16  8  1  0  0  0  0
 17  9  1  0  0  0  0
 19 10  1  0  0  0  0
 20 10  1  0  0  0  0
 21 11  1  0  0  0  0
 22 11  1  0  0  0  0
 24 30  1  0  0  0  0
 24 12  1  0  0  0  0
 25 24  2  0  0  0  0
 26 25  1  0  0  0  0
 27 25  1  0  0  0  0
 27 28  1  0  0  0  0
 28 30  2  0  0  0  0
 29 28  1  0  0  0  0
 31 32  1  0  0  0  0
 31 33  1  0  0  0  0
 34 31  1  0  0  0  0
M  END
>  <minimizedAffinity>
-5.05548382

$$$$

 OpenBabel03272500383D

 34 36  0  0  1  0  0  0  0  0999 V2000
   36.1700   21.1030   33.2440 C   0  0  0  0  0  0  0  0  0  0  0  0
   35.5340   20.6780   34.4310 C   0  0  0  0  0  0  0  0  0  0  0  0
   36.1310   21.0390   35.6420 C   0  0  0  0  0  0  0  0  0  0  0  0
   37.2830   21.7750   35.6010 N   0  0  0  0  0  0  0  0  0  0  0  0
   37.8500   22.1550   34.4430 C   0  0  0  0  0  0  0  0  0  0  0  0
   37.2990   21.8230   33.2620 N   0  0  0  0  0  0  0  0  0  0  0  0
   39.0580   22.9250   34.5150 N   0  0  0  0  0  0  0  0  0  0  0  0
   40.3290   22.2310   34.5090 C   0  0  0  0  0  0  0  0  0  0  0  0
   41.1380   22.9090   35.6180 C   0  0  0  0  0  0  0  0  0  0  0  0
   41.4440   24.2770   35.0690 C   0  0  0  0  0  0  0  0  0  0  0  0
   40.1830   25.0660   34.9990 C   0  0  0  0  0  0  0  0  0  0  0  0
   38.9500   24.3310   34.5870 C   0  0  1  0  0  0  0  0  0  0  0  0
   34.6250   20.0980   34.4090 H   0  0  0  0  0  0  0  0  0  0  0  0
   35.6740   20.7330   36.5510 H   0  0  0  0  0  0  0  0  0  0  0  0
   40.2040   21.1620   34.7580 H   0  0  0  0  0  0  0  0  0  0  0  0
   40.8980   22.3970   33.5640 H   0  0  0  0  0  0  0  0  0  0  0  0
   42.1140   22.3570   35.6350 H   0  0  0  0  0  0  0  0  0  0  0  0
   40.6060   22.9240   36.5710 H   0  0  0  0  0  0  0  0  0  0  0  0
   41.9080   24.1220   34.0700 H   0  0  0  0  0  0  0  0  0  0  0  0
   42.1650   24.7970   35.7270 H   0  0  0  0  0  0  0  0  0  0  0  0
   40.3660   25.8630   34.2300 H   0  0  0  0  0  0  0  0  0  0  0  0
   40.0860   25.6320   35.9490 H   0  0  0  0  0  0  0  0  0  0  0  0
   38.2070   24.5240   35.4110 H   0  0  0  0  0  0  0  0  0  0  0  0
   38.4000   24.8450   33.3020 C   0  0  0  0  0  0  0  0  0  0  0  0
   37.1260   25.5850   33.1790 C   0  0  0  0  0  0  0  0  0  0  0  0
   36.5260   25.7560   34.2040 H   0  0  0  0  0  0  0  0  0  0  0  0
   37.0750   25.9100   31.3790 S   0  0  0  0  0  0  0  0  0  0  0  0
   38.6910   25.0440   31.0850 C   0  0  0  0  0  0  0  0  0  0  0  0
   39.0880   24.9880   30.0700 H   0  0  0  0  0  0  0  0  0  0  0  0
   39.0400   24.6670   32.1750 N   0  0  0  0  0  0  0  0  0  0  0  0
   35.5440   20.7260   31.9330 C   0  0  0  0  0  0  0  0  0  0  0  0
   35.4980   21.8610   31.1090 F   0  0  0  0  0  0  0  0  0  0  0  0
   36.2380   19.6990   31.4000 F   0  0  0  0  0  0  0  0  0  0  0  0
   34.2200   20.3940   32.1880 F   0  0  0  0  0  0  0  0  0  0  0  0
  1  6  2  0  0  0  0
  1  2  1  0  0  0  0
  2  3  2  0  0  0  0
  3 14  1  0  0  0  0
  4  3  1  0  0  0  0
  5  7  1  0  0  0  0
  5  4  2  0  0  0  0
  6  5  1  0  0  0  0
  7 12  1  0  0  0  0
  8  7  1  0  0  0  0
  8 15  1  0  0  0  0
  8  9  1  0  0  0  0
  9 17  1  0  0  0  0
  9 18  1  0  0  0  0
 10  9  1  0  0  0  0
 10 20  1  0  0  0  0
 11 10  1  0  0  0  0
 11 22  1  0  0  0  0
 12 11  1  0  0  0  0
 12 23  1  1  0  0  0
 13  2  1  0  0  0  0
 16  8  1  0  0  0  0
 19 10  1  0  0  0  0
 21 11  1  0  0  0  0
 24 12  1  0  0  0  0
 25 24  2  0  0  0  0
 25 26  1  0  0  0  0
 27 25  1  0  0  0  0
 28 27  1  0  0  0  0
 28 30  2  0  0  0  0
 29 28  1  0  0  0  0
 30 24  1  0  0  0  0
 31 34  1  0  0  0  0
 31  1  1  0  0  0  0
 32 31  1  0  0  0  0
 33 31  1  0  0  0  0
M  END
>  <minimizedAffinity>
-4.96832705

$$$$

 OpenBabel03272500383D

 34 36  0  0  1  0  0  0  0  0999 V2000
   36.0040   23.4000   31.7320 C   0  0  0  0  0  0  0  0  0  0  0  0
   35.2800   24.2510   30.8700 C   0  0  0  0  0  0  0  0  0  0  0  0
   35.4690   25.6270   31.0210 C   0  0  0  0  0  0  0  0  0  0  0  0
   36.3350   26.0590   31.9870 N   0  0  0  0  0  0  0  0  0  0  0  0
   37.0020   25.2060   32.7850 C   0  0  0  0  0  0  0  0  0  0  0  0
   36.8420   23.8770   32.6640 N   0  0  0  0  0  0  0  0  0  0  0  0
   37.8870   25.7660   33.7660 N   0  0  0  0  0  0  0  0  0  0  0  0
   37.3700   26.0550   35.0870 C   0  0  0  0  0  0  0  0  0  0  0  0
   37.9140   27.4500   35.4120 C   0  0  0  0  0  0  0  0  0  0  0  0
   39.3890   27.2340   35.6140 C   0  0  0  0  0  0  0  0  0  0  0  0
   40.0150   26.8910   34.3070 C   0  0  0  0  0  0  0  0  0  0  0  0
   39.2270   26.0090   33.3930 C   0  0  1  0  0  0  0  0  0  0  0  0
   34.6080   23.8590   30.1230 H   0  0  0  0  0  0  0  0  0  0  0  0
   34.9360   26.2910   30.3850 H   0  0  0  0  0  0  0  0  0  0  0  0
   36.2660   26.0910   35.0880 H   0  0  0  0  0  0  0  0  0  0  0  0
   37.7870   25.3720   35.8640 H   0  0  0  0  0  0  0  0  0  0  0  0
   37.4940   27.6890   36.4240 H   0  0  0  0  0  0  0  0  0  0  0  0
   37.6760   28.1800   34.6350 H   0  0  0  0  0  0  0  0  0  0  0  0
   39.4910   26.4190   36.3630 H   0  0  0  0  0  0  0  0  0  0  0  0
   39.8560   28.1540   36.0120 H   0  0  0  0  0  0  0  0  0  0  0  0
   40.9620   26.3450   34.5580 H   0  0  0  0  0  0  0  0  0  0  0  0
   40.3670   27.8360   33.8430 H   0  0  0  0  0  0  0  0  0  0  0  0
   39.1610   26.5790   32.4240 H   0  0  0  0  0  0  0  0  0  0  0  0
   39.9100   24.7080   33.1520 C   0  0  0  0  0  0  0  0  0  0  0  0
   40.4300   24.2730   31.8390 C   0  0  0  0  0  0  0  0  0  0  0  0
   40.2660   25.0450   30.9350 H   0  0  0  0  0  0  0  0  0  0  0  0
   41.1310   22.6350   32.2570 S   0  0  0  0  0  0  0  0  0  0  0  0
   40.6400   22.7810   34.0430 C   0  0  0  0  0  0  0  0  0  0  0  0
   40.8770   21.9660   34.7290 H   0  0  0  0  0  0  0  0  0  0  0  0
   40.0970   23.8540   34.1250 N   0  0  0  0  0  0  0  0  0  0  0  0
   35.8160   21.9180   31.5860 C   0  0  0  0  0  0  0  0  0  0  0  0
   35.1620   21.4280   32.7270 F   0  0  0  0  0  0  0  0  0  0  0  0
   35.1520   21.6760   30.4370 F   0  0  0  0  0  0  0  0  0  0  0  0
   37.0780   21.3390   31.6000 F   0  0  0  0  0  0  0  0  0  0  0  0
  1  6  1  0  0  0  0
  2  3  1  0  0  0  0
  2  1  2  0  0  0  0
  3  4  2  0  0  0  0
  4  5  1  0  0  0  0
  5  7  1  0  0  0  0
  6  5  2  0  0  0  0
  7  8  1  0  0  0  0
  8 15  1  0  0  0  0
  8  9  1  0  0  0  0
  8 16  1  0  0  0  0
  9 10  1  0  0  0  0
  9 17  1  0  0  0  0
 10 20  1  0  0  0  0
 10 19  1  0  0  0  0
 11 21  1  0  0  0  0
 11 10  1  0  0  0  0
 12 23  1  6  0  0  0
 12  7  1  0  0  0  0
 12 11  1  0  0  0  0
 13  2  1  0  0  0  0
 14  3  1  0  0  0  0
 18  9  1  0  0  0  0
 22 11  1  0  0  0  0
 24 12  1  0  0  0  0
 24 30  1  0  0  0  0
 25 27  1  0  0  0  0
 25 24  2  0  0  0  0
 26 25  1  0  0  0  0
 27 28  1  0  0  0  0
 28 30  2  0  0  0  0
 28 29  1  0  0  0  0
 31 34  1  0  0  0  0
 31  1  1  0  0  0  0
 31 32  1  0  0  0  0
 33 31  1  0  0  0  0
M  END
>  <minimizedAffinity>
-4.95679665

$$$$

 OpenBabel03272500383D

 34 36  0  0  1  0  0  0  0  0999 V2000
   37.2980   26.0650   33.5360 C   0  0  0  0  0  0  0  0  0  0  0  0
   37.2510   27.3220   34.1760 C   0  0  0  0  0  0  0  0  0  0  0  0
   37.9050   27.4420   35.4040 C   0  0  0  0  0  0  0  0  0  0  0  0
   38.5450   26.3420   35.9060 N   0  0  0  0  0  0  0  0  0  0  0  0
   38.5610   25.1640   35.2570 C   0  0  0  0  0  0  0  0  0  0  0  0
   37.9410   25.0180   34.0730 N   0  0  0  0  0  0  0  0  0  0  0  0
   39.2630   24.0750   35.8730 N   0  0  0  0  0  0  0  0  0  0  0  0
   38.5360   23.1870   36.7540 C   0  0  0  0  0  0  0  0  0  0  0  0
   39.4560   23.0140   37.9660 C   0  0  0  0  0  0  0  0  0  0  0  0
   40.6010   22.1880   37.4460 C   0  0  0  0  0  0  0  0  0  0  0  0
   41.3990   23.0070   36.4920 C   0  0  0  0  0  0  0  0  0  0  0  0
   40.6370   23.9200   35.5870 C   0  0  1  0  0  0  0  0  0  0  0  0
   36.7310   28.1600   33.7370 H   0  0  0  0  0  0  0  0  0  0  0  0
   37.8850   28.3770   35.9080 H   0  0  0  0  0  0  0  0  0  0  0  0
   37.5850   23.6400   37.0880 H   0  0  0  0  0  0  0  0  0  0  0  0
   38.4050   22.1690   36.3170 H   0  0  0  0  0  0  0  0  0  0  0  0
   38.8850   22.3470   38.6640 H   0  0  0  0  0  0  0  0  0  0  0  0
   39.7600   23.9700   38.3960 H   0  0  0  0  0  0  0  0  0  0  0  0
   40.1530   21.2890   36.9670 H   0  0  0  0  0  0  0  0  0  0  0  0
   41.2490   21.8670   38.2830 H   0  0  0  0  0  0  0  0  0  0  0  0
   41.9410   22.2710   35.8390 H   0  0  0  0  0  0  0  0  0  0  0  0
   42.2100   23.5000   37.0660 H   0  0  0  0  0  0  0  0  0  0  0  0
   41.0860   24.9390   35.7570 H   0  0  0  0  0  0  0  0  0  0  0  0
   40.7990   23.5460   34.1550 C   0  0  0  0  0  0  0  0  0  0  0  0
   41.4630   24.3950   33.1440 C   0  0  0  0  0  0  0  0  0  0  0  0
   41.8800   25.4470   33.5440 H   0  0  0  0  0  0  0  0  0  0  0  0
   41.3200   23.3480   31.6490 S   0  0  0  0  0  0  0  0  0  0  0  0
   40.4330   22.0000   32.5690 C   0  0  0  0  0  0  0  0  0  0  0  0
   40.1260   21.1020   32.0310 H   0  0  0  0  0  0  0  0  0  0  0  0
   40.3510   22.4040   33.7020 N   0  0  0  0  0  0  0  0  0  0  0  0
   36.6010   25.9160   32.2150 C   0  0  0  0  0  0  0  0  0  0  0  0
   35.9850   24.6560   32.1670 F   0  0  0  0  0  0  0  0  0  0  0  0
   35.7420   26.9430   32.0590 F   0  0  0  0  0  0  0  0  0  0  0  0
   37.5820   25.8910   31.2320 F   0  0  0  0  0  0  0  0  0  0  0  0
  1  6  2  0  0  0  0
  1  2  1  0  0  0  0
  2  3  2  0  0  0  0
  3  4  1  0  0  0  0
  3 14  1  0  0  0  0
  5  7  1  0  0  0  0
  5  4  2  0  0  0  0
  6  5  1  0  0  0  0
  7  8  1  0  0  0  0
  8 15  1  0  0  0  0
  8  9  1  0  0  0  0
  9 18  1  0  0  0  0
  9 17  1  0  0  0  0
 10  9  1  0  0  0  0
 10 20  1  0  0  0  0
 11 22  1  0  0  0  0
 11 10  1  0  0  0  0
 12 23  1  1  0  0  0
 12  7  1  0  0  0  0
 12 11  1  0  0  0  0
 13  2  1  0  0  0  0
 16  8  1  0  0  0  0
 19 10  1  0  0  0  0
 21 11  1  0  0  0  0
 24 12  1  0  0  0  0
 25 26  1  0  0  0  0
 25 24  2  0  0  0  0
 27 28  1  0  0  0  0
 27 25  1  0  0  0  0
 28 30  2  0  0  0  0
 29 28  1  0  0  0  0
 30 24  1  0  0  0  0
 31  1  1  0  0  0  0
 32 31  1  0  0  0  0
 33 31  1  0  0  0  0
 34 31  1  0  0  0  0
M  END
>  <minimizedAffinity>
-4.92364454

$$$$

 OpenBabel03272500383D

 34 36  0  0  1  0  0  0  0  0999 V2000
   37.0740   21.4700   33.0130 C   0  0  0  0  0  0  0  0  0  0  0  0
   37.7890   20.7520   32.0310 C   0  0  0  0  0  0  0  0  0  0  0  0
   38.9130   21.3690   31.4770 C   0  0  0  0  0  0  0  0  0  0  0  0
   39.2470   22.6200   31.9180 N   0  0  0  0  0  0  0  0  0  0  0  0
   38.5310   23.2640   32.8570 C   0  0  0  0  0  0  0  0  0  0  0  0
   37.4450   22.6950   33.4090 N   0  0  0  0  0  0  0  0  0  0  0  0
   38.9700   24.5730   33.2460 N   0  0  0  0  0  0  0  0  0  0  0  0
   38.4380   25.7230   32.5460 C   0  0  0  0  0  0  0  0  0  0  0  0
   39.6630   26.6020   32.2720 C   0  0  0  0  0  0  0  0  0  0  0  0
   40.0540   27.1230   33.6280 C   0  0  0  0  0  0  0  0  0  0  0  0
   40.5850   25.9990   34.4480 C   0  0  0  0  0  0  0  0  0  0  0  0
   39.9030   24.6770   34.3000 C   0  0  1  0  0  0  0  0  0  0  0  0
   37.4830   19.7650   31.7180 H   0  0  0  0  0  0  0  0  0  0  0  0
   39.4710   20.8510   30.7360 H   0  0  0  0  0  0  0  0  0  0  0  0
   37.9820   25.4330   31.5830 H   0  0  0  0  0  0  0  0  0  0  0  0
   37.7580   26.3320   33.1870 H   0  0  0  0  0  0  0  0  0  0  0  0
   39.2590   27.4820   31.7070 H   0  0  0  0  0  0  0  0  0  0  0  0
   40.4590   26.0570   31.7610 H   0  0  0  0  0  0  0  0  0  0  0  0
   39.1410   27.5800   34.0690 H   0  0  0  0  0  0  0  0  0  0  0  0
   40.8350   27.9000   33.5250 H   0  0  0  0  0  0  0  0  0  0  0  0
   40.4610   26.3180   35.5170 H   0  0  0  0  0  0  0  0  0  0  0  0
   41.6850   25.9670   34.3060 H   0  0  0  0  0  0  0  0  0  0  0  0
   40.7250   23.9540   34.0340 H   0  0  0  0  0  0  0  0  0  0  0  0
   39.2580   24.2400   35.5690 C   0  0  0  0  0  0  0  0  0  0  0  0
   38.0770   24.8950   36.1700 C   0  0  0  0  0  0  0  0  0  0  0  0
   37.6460   25.8390   35.5680 H   0  0  0  0  0  0  0  0  0  0  0  0
   37.8210   23.8680   37.6630 S   0  0  0  0  0  0  0  0  0  0  0  0
   39.2680   22.7720   37.2670 C   0  0  0  0  0  0  0  0  0  0  0  0
   39.5130   21.9490   37.9420 H   0  0  0  0  0  0  0  0  0  0  0  0
   39.7140   23.2130   36.2390 N   0  0  0  0  0  0  0  0  0  0  0  0
   35.8630   20.8240   33.6210 C   0  0  0  0  0  0  0  0  0  0  0  0
   35.9130   20.9850   35.0140 F   0  0  0  0  0  0  0  0  0  0  0  0
   34.7580   21.3520   33.0560 F   0  0  0  0  0  0  0  0  0  0  0  0
   35.9690   19.4570   33.3980 F   0  0  0  0  0  0  0  0  0  0  0  0
  1  6  1  0  0  0  0
  1 31  1  0  0  0  0
  2  1  2  0  0  0  0
  3  4  2  0  0  0  0
  3  2  1  0  0  0  0
  4  5  1  0  0  0  0
  5  7  1  0  0  0  0
  5  6  2  0  0  0  0
  7 12  1  0  0  0  0
  8 16  1  0  0  0  0
  8  7  1  0  0  0  0
  9  8  1  0  0  0  0
  9 10  1  0  0  0  0
 10 19  1  0  0  0  0
 10 11  1  0  0  0  0
 11 21  1  0  0  0  0
 12 23  1  6  0  0  0
 12 11  1  0  0  0  0
 12 24  1  0  0  0  0
 13  2  1  0  0  0  0
 14  3  1  0  0  0  0
 15  8  1  0  0  0  0
 17  9  1  0  0  0  0
 18  9  1  0  0  0  0
 20 10  1  0  0  0  0
 22 11  1  0  0  0  0
 24 25  2  0  0  0  0
 24 30  1  0  0  0  0
 25 27  1  0  0  0  0
 26 25  1  0  0  0  0
 28 27  1  0  0  0  0
 28 29  1  0  0  0  0
 30 28  2  0  0  0  0
 31 32  1  0  0  0  0
 33 31  1  0  0  0  0
 34 31  1  0  0  0  0
M  END
>  <minimizedAffinity>
-4.88248014

$$$$

 OpenBabel03272500383D

 34 36  0  0  1  0  0  0  0  0999 V2000
   37.3380   22.2450   32.2360 C   0  0  0  0  0  0  0  0  0  0  0  0
   37.4620   22.6110   30.8790 C   0  0  0  0  0  0  0  0  0  0  0  0
   37.8350   23.9290   30.6020 C   0  0  0  0  0  0  0  0  0  0  0  0
   38.0540   24.7730   31.6550 N   0  0  0  0  0  0  0  0  0  0  0  0
   37.9230   24.3750   32.9330 C   0  0  0  0  0  0  0  0  0  0  0  0
   37.5650   23.1140   33.2310 N   0  0  0  0  0  0  0  0  0  0  0  0
   38.1770   25.3430   33.9610 N   0  0  0  0  0  0  0  0  0  0  0  0
   37.0750   26.1390   34.4580 C   0  0  0  0  0  0  0  0  0  0  0  0
   37.6300   27.5650   34.5150 C   0  0  0  0  0  0  0  0  0  0  0  0
   38.6210   27.5310   35.6470 C   0  0  0  0  0  0  0  0  0  0  0  0
   39.7890   26.6980   35.2470 C   0  0  0  0  0  0  0  0  0  0  0  0
   39.4980   25.4720   34.4420 C   0  0  1  0  0  0  0  0  0  0  0  0
   37.2770   21.9060   30.0840 H   0  0  0  0  0  0  0  0  0  0  0  0
   37.9350   24.2320   29.5890 H   0  0  0  0  0  0  0  0  0  0  0  0
   36.2170   26.1160   33.7630 H   0  0  0  0  0  0  0  0  0  0  0  0
   36.7980   25.8730   35.5050 H   0  0  0  0  0  0  0  0  0  0  0  0
   36.7720   28.1900   34.8750 H   0  0  0  0  0  0  0  0  0  0  0  0
   38.0580   27.8830   33.5620 H   0  0  0  0  0  0  0  0  0  0  0  0
   38.0830   27.1180   36.5280 H   0  0  0  0  0  0  0  0  0  0  0  0
   38.9670   28.5560   35.8810 H   0  0  0  0  0  0  0  0  0  0  0  0
   40.2630   26.3590   36.2060 H   0  0  0  0  0  0  0  0  0  0  0  0
   40.5480   27.3720   34.7990 H   0  0  0  0  0  0  0  0  0  0  0  0
   40.1360   25.5720   33.5190 H   0  0  0  0  0  0  0  0  0  0  0  0
   39.8770   24.2280   35.1680 C   0  0  0  0  0  0  0  0  0  0  0  0
   40.9640   23.3190   34.7480 C   0  0  0  0  0  0  0  0  0  0  0  0
   41.5490   23.6380   33.7500 H   0  0  0  0  0  0  0  0  0  0  0  0
   40.8880   22.0430   36.0570 S   0  0  0  0  0  0  0  0  0  0  0  0
   39.4780   22.8870   36.9230 C   0  0  0  0  0  0  0  0  0  0  0  0
   39.0690   22.4430   37.8320 H   0  0  0  0  0  0  0  0  0  0  0  0
   39.2510   23.8650   36.2570 N   0  0  0  0  0  0  0  0  0  0  0  0
   36.9380   20.8340   32.5540 C   0  0  0  0  0  0  0  0  0  0  0  0
   38.0450   19.9930   32.3580 F   0  0  0  0  0  0  0  0  0  0  0  0
   36.4450   20.7930   33.8090 F   0  0  0  0  0  0  0  0  0  0  0  0
   36.0010   20.4470   31.6050 F   0  0  0  0  0  0  0  0  0  0  0  0
  1 31  1  0  0  0  0
  1  6  1  0  0  0  0
  2  1  2  0  0  0  0
  3  2  1  0  0  0  0
  3  4  2  0  0  0  0
  4  5  1  0  0  0  0
  5  6  2  0  0  0  0
  5  7  1  0  0  0  0
  7 12  1  0  0  0  0
  7  8  1  0  0  0  0
  8  9  1  0  0  0  0
  8 16  1  0  0  0  0
  9 17  1  0  0  0  0
  9 10  1  0  0  0  0
 10 20  1  0  0  0  0
 10 19  1  0  0  0  0
 11 10  1  0  0  0  0
 11 21  1  0  0  0  0
 12 23  1  6  0  0  0
 12 24  1  0  0  0  0
 12 11  1  0  0  0  0
 13  2  1  0  0  0  0
 14  3  1  0  0  0  0
 15  8  1  0  0  0  0
 18  9  1  0  0  0  0
 22 11  1  0  0  0  0
 24 30  1  0  0  0  0
 25 24  2  0  0  0  0
 25 27  1  0  0  0  0
 26 25  1  0  0  0  0
 27 28  1  0  0  0  0
 28 29  1  0  0  0  0
 30 28  2  0  0  0  0
 31 33  1  0  0  0  0
 32 31  1  0  0  0  0
 34 31  1  0  0  0  0
M  END
>  <minimizedAffinity>
-4.80597878

$$$$

 OpenBabel03272500383D

 34 36  0  0  1  0  0  0  0  0999 V2000
   36.8340   23.4750   32.2390 C   0  0  0  0  0  0  0  0  0  0  0  0
   36.0600   22.3010   32.3590 C   0  0  0  0  0  0  0  0  0  0  0  0
   36.5550   21.2890   33.1860 C   0  0  0  0  0  0  0  0  0  0  0  0
   37.7480   21.4980   33.8210 N   0  0  0  0  0  0  0  0  0  0  0  0
   38.4490   22.6360   33.6730 C   0  0  0  0  0  0  0  0  0  0  0  0
   37.9980   23.6280   32.8840 N   0  0  0  0  0  0  0  0  0  0  0  0
   39.6880   22.7510   34.3850 N   0  0  0  0  0  0  0  0  0  0  0  0
   40.9090   22.3220   33.7350 C   0  0  0  0  0  0  0  0  0  0  0  0
   41.6450   21.5090   34.8050 C   0  0  0  0  0  0  0  0  0  0  0  0
   42.0850   22.5360   35.8120 C   0  0  0  0  0  0  0  0  0  0  0  0
   40.8880   23.0720   36.5170 C   0  0  0  0  0  0  0  0  0  0  0  0
   39.6590   23.2820   35.6930 C   0  0  1  0  0  0  0  0  0  0  0  0
   35.1240   22.1850   31.8360 H   0  0  0  0  0  0  0  0  0  0  0  0
   35.9920   20.3940   33.2950 H   0  0  0  0  0  0  0  0  0  0  0  0
   40.6960   21.6690   32.8710 H   0  0  0  0  0  0  0  0  0  0  0  0
   41.5780   23.1780   33.4820 H   0  0  0  0  0  0  0  0  0  0  0  0
   42.5790   21.1530   34.2970 H   0  0  0  0  0  0  0  0  0  0  0  0
   41.0230   20.7160   35.2250 H   0  0  0  0  0  0  0  0  0  0  0  0
   42.6350   23.3210   35.2460 H   0  0  0  0  0  0  0  0  0  0  0  0
   42.7690   22.0750   36.5500 H   0  0  0  0  0  0  0  0  0  0  0  0
   41.1950   24.0760   36.9150 H   0  0  0  0  0  0  0  0  0  0  0  0
   40.7320   22.4610   37.4290 H   0  0  0  0  0  0  0  0  0  0  0  0
   38.8510   22.7030   36.2240 H   0  0  0  0  0  0  0  0  0  0  0  0
   39.2710   24.7180   35.6290 C   0  0  0  0  0  0  0  0  0  0  0  0
   38.0390   25.2740   36.2260 C   0  0  0  0  0  0  0  0  0  0  0  0
   37.3300   24.4820   36.7830 H   0  0  0  0  0  0  0  0  0  0  0  0
   38.1990   27.0450   35.7920 S   0  0  0  0  0  0  0  0  0  0  0  0
   39.8170   26.7760   34.9200 C   0  0  0  0  0  0  0  0  0  0  0  0
   40.3250   27.6300   34.4660 H   0  0  0  0  0  0  0  0  0  0  0  0
   40.0300   25.5950   35.0260 N   0  0  0  0  0  0  0  0  0  0  0  0
   36.3200   24.5740   31.3560 C   0  0  0  0  0  0  0  0  0  0  0  0
   37.3120   24.9060   30.4200 F   0  0  0  0  0  0  0  0  0  0  0  0
   35.1600   24.1740   30.7950 F   0  0  0  0  0  0  0  0  0  0  0  0
   36.1620   25.7020   32.1510 F   0  0  0  0  0  0  0  0  0  0  0  0
  1  2  2  0  0  0  0
  1  6  1  0  0  0  0
  2  3  1  0  0  0  0
  3 14  1  0  0  0  0
  3  4  2  0  0  0  0
  5  4  1  0  0  0  0
  5  7  1  0  0  0  0
  6  5  2  0  0  0  0
  7 12  1  0  0  0  0
  8  7  1  0  0  0  0
  8  9  1  0  0  0  0
  9 18  1  0  0  0  0
  9 10  1  0  0  0  0
 10 11  1  0  0  0  0
 10 20  1  0  0  0  0
 11 21  1  0  0  0  0
 11 22  1  0  0  0  0
 12 23  1  1  0  0  0
 12 11  1  0  0  0  0
 13  2  1  0  0  0  0
 15  8  1  0  0  0  0
 16  8  1  0  0  0  0
 17  9  1  0  0  0  0
 19 10  1  0  0  0  0
 24 12  1  0  0  0  0
 24 25  2  0  0  0  0
 25 26  1  0  0  0  0
 27 25  1  0  0  0  0
 28 30  2  0  0  0  0
 28 27  1  0  0  0  0
 29 28  1  0  0  0  0
 30 24  1  0  0  0  0
 31 34  1  0  0  0  0
 31  1  1  0  0  0  0
 32 31  1  0  0  0  0
 33 31  1  0  0  0  0
M  END
>  <minimizedAffinity>
-4.77468824

$$$$
