
 OpenBabel03272501553D

 22 23  0  0  0  0  0  0  0  0999 V2000
   36.1090   30.4600   49.9770 C   0  0  0  0  0  0  0  0  0  0  0  0
   36.4230   30.3240   51.0180 H   0  0  0  0  0  0  0  0  0  0  0  0
   35.1050   30.8950   49.9230 H   0  0  0  0  0  0  0  0  0  0  0  0
   38.2380   33.3940   49.1780 C   0  0  0  0  0  0  0  0  0  0  0  0
   39.0090   32.9280   48.1020 C   0  0  0  0  0  0  0  0  0  0  0  0
   38.7880   31.6090   47.6610 C   0  0  0  0  0  0  0  0  0  0  0  0
   37.8480   30.8690   48.2990 N   0  0  0  0  0  0  0  0  0  0  0  0
   37.1330   31.3710   49.3340 C   0  0  0  0  0  0  0  0  0  0  0  0
   37.3170   32.6140   49.7760 N   0  0  0  0  0  0  0  0  0  0  0  0
   38.4350   34.4100   49.4880 H   0  0  0  0  0  0  0  0  0  0  0  0
   39.7370   33.5420   47.6280 H   0  0  0  0  0  0  0  0  0  0  0  0
   39.3600   31.2030   46.8320 H   0  0  0  0  0  0  0  0  0  0  0  0
   36.1130   29.1370   49.2910 C   0  0  0  0  0  0  0  0  0  0  0  0
   36.3880   28.3670   50.0500 H   0  0  0  0  0  0  0  0  0  0  0  0
   36.9390   29.1170   48.5520 H   0  0  0  0  0  0  0  0  0  0  0  0
   34.8080   28.8310   48.6310 C   0  0  0  0  0  0  0  0  0  0  0  0
   34.5770   29.4090   47.3150 C   0  0  0  0  0  0  0  0  0  0  0  0
   35.2060   30.0160   46.7590 H   0  0  0  0  0  0  0  0  0  0  0  0
   32.9530   28.7890   46.9520 S   0  0  0  0  0  0  0  0  0  0  0  0
   32.8050   27.8550   48.5860 C   0  0  0  0  0  0  0  0  0  0  0  0
   32.0000   27.2350   49.0000 H   0  0  0  0  0  0  0  0  0  0  0  0
   33.8520   28.0820   49.1480 N   0  0  0  0  0  0  0  0  0  0  0  0
  1  2  1  0  0  0  0
  3  1  1  0  0  0  0
  4 10  1  0  0  0  0
  4  9  1  0  0  0  0
  5  4  2  0  0  0  0
  6  5  1  0  0  0  0
  6  7  2  0  0  0  0
  7  8  1  0  0  0  0
  8  9  2  0  0  0  0
  8  1  1  0  0  0  0
 11  5  1  0  0  0  0
 12  6  1  0  0  0  0
 13  1  1  0  0  0  0
 13 14  1  0  0  0  0
 15 13  1  0  0  0  0
 16 22  1  0  0  0  0
 16 13  1  0  0  0  0
 17 16  2  0  0  0  0
 18 17  1  0  0  0  0
 19 17  1  0  0  0  0
 19 20  1  0  0  0  0
 20 21  1  0  0  0  0
 20 22  2  0  0  0  0
M  END
>  <minimizedAffinity>
-4.17976379

>  <minimizedRMSD>
2.89335966

$$$$
