
 OpenBabel03272509543D

 41 44  0  0  0  0  0  0  0  0999 V2000
   34.4420   28.6740   48.1160 C   0  0  0  0  0  0  0  0  0  0  0  0
   35.3360   28.7600   47.4580 H   0  0  0  0  0  0  0  0  0  0  0  0
   33.9350   29.6590   48.1130 H   0  0  0  0  0  0  0  0  0  0  0  0
   33.5780   27.5530   47.6410 C   0  0  0  0  0  0  0  0  0  0  0  0
   33.7830   26.6080   48.1610 H   0  0  0  0  0  0  0  0  0  0  0  0
   33.7950   27.3510   46.5520 H   0  0  0  0  0  0  0  0  0  0  0  0
   32.1330   27.8590   47.6920 C   0  0  0  0  0  0  0  0  0  0  0  0
   31.3780   27.2600   48.6870 C   0  0  0  0  0  0  0  0  0  0  0  0
   30.0370   27.4630   48.8370 C   0  0  0  0  0  0  0  0  0  0  0  0
   29.4250   28.2810   47.9820 N   0  0  0  0  0  0  0  0  0  0  0  0
   30.1530   28.8730   47.0020 C   0  0  0  0  0  0  0  0  0  0  0  0
   31.4870   28.6830   46.8360 N   0  0  0  0  0  0  0  0  0  0  0  0
   31.8730   26.5880   49.3950 H   0  0  0  0  0  0  0  0  0  0  0  0
   29.4730   26.9810   49.6260 H   0  0  0  0  0  0  0  0  0  0  0  0
   29.4560   29.7760   46.0610 C   0  0  0  0  0  0  0  0  0  0  0  0
   28.0090   29.9870   46.0330 C   0  0  0  0  0  0  0  0  0  0  0  0
   27.4210   29.4680   46.7190 H   0  0  0  0  0  0  0  0  0  0  0  0
   27.9730   31.2330   44.5980 S   0  0  0  0  0  0  0  0  0  0  0  0
   29.8440   31.1820   44.3790 C   0  0  0  0  0  0  0  0  0  0  0  0
   30.2500   31.8140   43.5900 H   0  0  0  0  0  0  0  0  0  0  0  0
   30.2700   30.3990   45.2220 N   0  0  0  0  0  0  0  0  0  0  0  0
   34.9750   28.3810   49.4080 O   0  0  0  0  0  0  0  0  0  0  0  0
   37.3200   30.1610   51.4970 C   0  0  0  0  0  0  0  0  0  0  0  0
   38.0590   30.8470   50.5070 C   0  0  0  0  0  0  0  0  0  0  0  0
   37.7030   30.6500   49.1760 C   0  0  0  0  0  0  0  0  0  0  0  0
   36.6510   29.7980   48.9580 N   0  0  0  0  0  0  0  0  0  0  0  0
   35.9650   29.1620   49.9030 C   0  0  0  0  0  0  0  0  0  0  0  0
   36.3130   29.3530   51.1820 N   0  0  0  0  0  0  0  0  0  0  0  0
   37.6380   30.3490   52.5040 H   0  0  0  0  0  0  0  0  0  0  0  0
   38.8820   31.5110   50.7020 H   0  0  0  0  0  0  0  0  0  0  0  0
   38.9390   33.2550   49.0000 F   0  0  0  0  0  0  0  0  0  0  0  0
   38.9200   32.4760   47.9330 C   0  0  0  0  0  0  0  0  0  0  0  0
   38.3330   31.2560   48.0400 C   0  0  0  0  0  0  0  0  0  0  0  0
   38.3690   30.5160   46.8530 C   0  0  0  0  0  0  0  0  0  0  0  0
   38.9480   30.9920   45.6970 C   0  0  0  0  0  0  0  0  0  0  0  0
   39.5280   32.2370   45.6450 C   0  0  0  0  0  0  0  0  0  0  0  0
   39.5030   32.9750   46.7910 C   0  0  0  0  0  0  0  0  0  0  0  0
   37.9290   29.5190   46.8140 H   0  0  0  0  0  0  0  0  0  0  0  0
   38.9430   30.3650   44.8040 H   0  0  0  0  0  0  0  0  0  0  0  0
   39.9580   32.5440   44.7170 H   0  0  0  0  0  0  0  0  0  0  0  0
   39.9560   33.9570   46.7690 H   0  0  0  0  0  0  0  0  0  0  0  0
  1 22  1  0  0  0  0
  2  1  1  0  0  0  0
  3  1  1  0  0  0  0
  4  7  1  0  0  0  0
  4  1  1  0  0  0  0
  4  5  1  0  0  0  0
  6  4  1  0  0  0  0
  7  8  1  0  0  0  0
  8  9  2  0  0  0  0
  8 13  1  0  0  0  0
  9 14  1  0  0  0  0
 10  9  1  0  0  0  0
 11 10  2  0  0  0  0
 12 11  1  0  0  0  0
 12  7  2  0  0  0  0
 15 11  1  0  0  0  0
 16 15  2  0  0  0  0
 16 17  1  0  0  0  0
 18 16  1  0  0  0  0
 19 18  1  0  0  0  0
 19 21  2  0  0  0  0
 20 19  1  0  0  0  0
 21 15  1  0  0  0  0
 22 27  1  0  0  0  0
 23 29  1  0  0  0  0
 24 30  1  0  0  0  0
 24 23  2  0  0  0  0
 25 24  1  0  0  0  0
 26 25  2  0  0  0  0
 26 27  1  0  0  0  0
 27 28  2  0  0  0  0
 28 23  1  0  0  0  0
 32 33  1  0  0  0  0
 32 31  1  0  0  0  0
 33 25  1  0  0  0  0
 34 33  2  0  0  0  0
 35 34  1  0  0  0  0
 36 35  2  0  0  0  0
 36 37  1  0  0  0  0
 37 32  2  0  0  0  0
 38 34  1  0  0  0  0
 39 35  1  0  0  0  0
 40 36  1  0  0  0  0
 41 37  1  0  0  0  0
M  END
>  <minimizedAffinity>
-6.5117712

>  <minimizedRMSD>
0.274870604

$$$$
