
 OpenBabel03272501453D

 32 35  0  0  0  0  0  0  0  0999 V2000
   37.9090   25.4620   34.0320 C   0  0  0  0  0  0  0  0  0  0  0  0
   38.7280   25.8220   35.1410 C   0  0  0  0  0  0  0  0  0  0  0  0
   38.5360   27.0790   35.6820 C   0  0  0  0  0  0  0  0  0  0  0  0
   37.5970   27.8960   35.1470 N   0  0  0  0  0  0  0  0  0  0  0  0
   36.8270   27.5290   34.0880 C   0  0  0  0  0  0  0  0  0  0  0  0
   36.9940   26.3090   33.5420 N   0  0  0  0  0  0  0  0  0  0  0  0
   37.9050   24.5330   33.4690 H   0  0  0  0  0  0  0  0  0  0  0  0
   39.1670   27.3180   36.5130 H   0  0  0  0  0  0  0  0  0  0  0  0
   40.9300   24.8100   34.9710 C   0  0  0  0  0  0  0  0  0  0  0  0
   39.6600   24.8020   35.5490 C   0  0  0  0  0  0  0  0  0  0  0  0
   39.3800   23.8070   36.4850 C   0  0  0  0  0  0  0  0  0  0  0  0
   40.3780   22.8790   36.7910 C   0  0  0  0  0  0  0  0  0  0  0  0
   40.4100   21.8330   37.6280 N   0  0  0  0  0  0  0  0  0  0  0  0
   41.6040   21.2370   37.5760 C   0  0  0  0  0  0  0  0  0  0  0  0
   42.3720   21.9030   36.6900 N   0  0  0  0  0  0  0  0  0  0  0  0
   41.6250   22.9070   36.2070 C   0  0  0  0  0  0  0  0  0  0  0  0
   41.9040   23.8880   35.2840 C   0  0  0  0  0  0  0  0  0  0  0  0
   41.2780   25.5340   34.2240 H   0  0  0  0  0  0  0  0  0  0  0  0
   38.4090   23.7890   36.9360 H   0  0  0  0  0  0  0  0  0  0  0  0
   39.5940   21.5450   38.2300 H   0  0  0  0  0  0  0  0  0  0  0  0
   41.9310   20.3650   38.1400 H   0  0  0  0  0  0  0  0  0  0  0  0
   42.8920   23.8830   34.8450 H   0  0  0  0  0  0  0  0  0  0  0  0
   35.8170   28.4870   33.5610 C   0  0  0  0  0  0  0  0  0  0  0  0
   35.6440   29.3500   34.2120 H   0  0  0  0  0  0  0  0  0  0  0  0
   34.8540   27.9330   33.5160 H   0  0  0  0  0  0  0  0  0  0  0  0
   36.2350   28.9050   32.1750 C   0  0  0  0  0  0  0  0  0  0  0  0
   36.3430   30.3650   31.8070 C   0  0  0  0  0  0  0  0  0  0  0  0
   36.1310   31.0790   32.5050 H   0  0  0  0  0  0  0  0  0  0  0  0
   36.8630   30.2060   30.0830 S   0  0  0  0  0  0  0  0  0  0  0  0
   36.8530   28.2860   30.1320 C   0  0  0  0  0  0  0  0  0  0  0  0
   37.1070   27.6260   29.2920 H   0  0  0  0  0  0  0  0  0  0  0  0
   36.5020   27.9460   31.2970 N   0  0  0  0  0  0  0  0  0  0  0  0
  1  2  1  0  0  0  0
  2 10  1  0  0  0  0
  2  3  2  0  0  0  0
  3  8  1  0  0  0  0
  4  3  1  0  0  0  0
  5  4  2  0  0  0  0
  6  1  2  0  0  0  0
  6  5  1  0  0  0  0
  7  1  1  0  0  0  0
  9 17  2  0  0  0  0
  9 10  1  0  0  0  0
 10 11  2  0  0  0  0
 11 12  1  0  0  0  0
 11 19  1  0  0  0  0
 12 13  1  0  0  0  0
 13 20  1  0  0  0  0
 14 13  1  0  0  0  0
 14 21  1  0  0  0  0
 15 14  2  0  0  0  0
 16 15  1  0  0  0  0
 16 12  2  0  0  0  0
 17 16  1  0  0  0  0
 18  9  1  0  0  0  0
 22 17  1  0  0  0  0
 23  5  1  0  0  0  0
 23 24  1  0  0  0  0
 25 23  1  0  0  0  0
 26 23  1  0  0  0  0
 27 26  2  0  0  0  0
 27 28  1  0  0  0  0
 29 30  1  0  0  0  0
 29 27  1  0  0  0  0
 30 32  2  0  0  0  0
 31 30  1  0  0  0  0
 32 26  1  0  0  0  0
M  END
>  <minimizedAffinity>
-5.19285679

$$$$

 OpenBabel03272501453D

 32 35  0  0  0  0  0  0  0  0999 V2000
   37.7120   27.1790   35.4660 C   0  0  0  0  0  0  0  0  0  0  0  0
   37.8710   25.9400   34.7810 C   0  0  0  0  0  0  0  0  0  0  0  0
   37.3400   25.8530   33.5080 C   0  0  0  0  0  0  0  0  0  0  0  0
   36.7040   26.9260   32.9780 N   0  0  0  0  0  0  0  0  0  0  0  0
   36.5650   28.0990   33.6520 C   0  0  0  0  0  0  0  0  0  0  0  0
   37.0740   28.2100   34.8950 N   0  0  0  0  0  0  0  0  0  0  0  0
   38.0500   27.4490   36.4620 H   0  0  0  0  0  0  0  0  0  0  0  0
   37.4760   24.9100   33.0220 H   0  0  0  0  0  0  0  0  0  0  0  0
   38.0390   24.5260   36.7490 C   0  0  0  0  0  0  0  0  0  0  0  0
   38.5800   24.9330   35.5290 C   0  0  0  0  0  0  0  0  0  0  0  0
   39.7700   24.3360   35.1140 C   0  0  0  0  0  0  0  0  0  0  0  0
   40.3520   23.3690   35.9380 C   0  0  0  0  0  0  0  0  0  0  0  0
   41.4670   22.6350   35.8170 N   0  0  0  0  0  0  0  0  0  0  0  0
   41.6090   21.8340   36.8760 C   0  0  0  0  0  0  0  0  0  0  0  0
   40.5700   22.0440   37.7090 N   0  0  0  0  0  0  0  0  0  0  0  0
   39.8000   22.9830   37.1390 C   0  0  0  0  0  0  0  0  0  0  0  0
   38.6250   23.5710   37.5490 C   0  0  0  0  0  0  0  0  0  0  0  0
   37.1130   24.9150   37.1890 H   0  0  0  0  0  0  0  0  0  0  0  0
   40.1960   24.6400   34.1810 H   0  0  0  0  0  0  0  0  0  0  0  0
   42.1190   22.7010   34.9920 H   0  0  0  0  0  0  0  0  0  0  0  0
   42.4130   21.1230   37.0620 H   0  0  0  0  0  0  0  0  0  0  0  0
   38.2180   23.2450   38.4960 H   0  0  0  0  0  0  0  0  0  0  0  0
   35.8540   29.2300   32.9970 C   0  0  0  0  0  0  0  0  0  0  0  0
   35.2210   28.9270   32.1580 H   0  0  0  0  0  0  0  0  0  0  0  0
   36.6400   29.8910   32.5730 H   0  0  0  0  0  0  0  0  0  0  0  0
   35.0710   29.9730   34.0500 C   0  0  0  0  0  0  0  0  0  0  0  0
   33.7130   29.4850   34.4910 C   0  0  0  0  0  0  0  0  0  0  0  0
   33.3190   28.6410   34.0740 H   0  0  0  0  0  0  0  0  0  0  0  0
   33.3180   30.7540   35.7170 S   0  0  0  0  0  0  0  0  0  0  0  0
   34.9700   31.6960   35.4500 C   0  0  0  0  0  0  0  0  0  0  0  0
   35.2750   32.6100   35.9760 H   0  0  0  0  0  0  0  0  0  0  0  0
   35.6190   31.0650   34.5680 N   0  0  0  0  0  0  0  0  0  0  0  0
  1  7  1  0  0  0  0
  2  1  2  0  0  0  0
  2 10  1  0  0  0  0
  3  2  1  0  0  0  0
  4  3  2  0  0  0  0
  4  5  1  0  0  0  0
  5  6  2  0  0  0  0
  6  1  1  0  0  0  0
  8  3  1  0  0  0  0
  9 18  1  0  0  0  0
  9 17  1  0  0  0  0
 10  9  2  0  0  0  0
 11 10  1  0  0  0  0
 11 12  2  0  0  0  0
 12 16  1  0  0  0  0
 13 12  1  0  0  0  0
 13 14  1  0  0  0  0
 14 21  1  0  0  0  0
 14 15  2  0  0  0  0
 16 17  2  0  0  0  0
 16 15  1  0  0  0  0
 17 22  1  0  0  0  0
 19 11  1  0  0  0  0
 20 13  1  0  0  0  0
 23  5  1  0  0  0  0
 23 26  1  0  0  0  0
 24 23  1  0  0  0  0
 25 23  1  0  0  0  0
 26 27  2  0  0  0  0
 26 32  1  0  0  0  0
 27 29  1  0  0  0  0
 28 27  1  0  0  0  0
 30 29  1  0  0  0  0
 30 31  1  0  0  0  0
 32 30  2  0  0  0  0
M  END
>  <minimizedAffinity>
-5.13024616

$$$$

 OpenBabel03272501453D

 32 35  0  0  0  0  0  0  0  0999 V2000
   35.8080   29.1810   32.5570 C   0  0  0  0  0  0  0  0  0  0  0  0
   35.9130   28.9680   33.9620 C   0  0  0  0  0  0  0  0  0  0  0  0
   36.7170   27.9260   34.3810 C   0  0  0  0  0  0  0  0  0  0  0  0
   37.3580   27.1680   33.4590 N   0  0  0  0  0  0  0  0  0  0  0  0
   37.2420   27.3910   32.1220 C   0  0  0  0  0  0  0  0  0  0  0  0
   36.4640   28.4010   31.6870 N   0  0  0  0  0  0  0  0  0  0  0  0
   35.2320   29.9350   32.0290 H   0  0  0  0  0  0  0  0  0  0  0  0
   36.7750   27.7940   35.4420 H   0  0  0  0  0  0  0  0  0  0  0  0
   33.7570   29.8090   34.7020 C   0  0  0  0  0  0  0  0  0  0  0  0
   35.1490   29.8910   34.7620 C   0  0  0  0  0  0  0  0  0  0  0  0
   35.7070   30.8600   35.5960 C   0  0  0  0  0  0  0  0  0  0  0  0
   34.8480   31.6900   36.3200 C   0  0  0  0  0  0  0  0  0  0  0  0
   35.0760   32.6910   37.1820 N   0  0  0  0  0  0  0  0  0  0  0  0
   33.9200   33.1910   37.6240 C   0  0  0  0  0  0  0  0  0  0  0  0
   32.9130   32.5100   37.0430 N   0  0  0  0  0  0  0  0  0  0  0  0
   33.4760   31.5910   36.2440 C   0  0  0  0  0  0  0  0  0  0  0  0
   32.9240   30.6360   35.4220 C   0  0  0  0  0  0  0  0  0  0  0  0
   33.1940   29.0960   34.0880 H   0  0  0  0  0  0  0  0  0  0  0  0
   36.7730   30.9340   35.6510 H   0  0  0  0  0  0  0  0  0  0  0  0
   36.0420   33.0140   37.4550 H   0  0  0  0  0  0  0  0  0  0  0  0
   33.7820   34.0080   38.3320 H   0  0  0  0  0  0  0  0  0  0  0  0
   31.8450   30.5830   35.3860 H   0  0  0  0  0  0  0  0  0  0  0  0
   37.9810   26.5120   31.1750 C   0  0  0  0  0  0  0  0  0  0  0  0
   39.0680   26.5430   31.3000 H   0  0  0  0  0  0  0  0  0  0  0  0
   37.7720   26.9050   30.1560 H   0  0  0  0  0  0  0  0  0  0  0  0
   37.4410   25.1110   31.3060 C   0  0  0  0  0  0  0  0  0  0  0  0
   38.3470   23.9660   31.6890 C   0  0  0  0  0  0  0  0  0  0  0  0
   39.3370   24.1420   31.8630 H   0  0  0  0  0  0  0  0  0  0  0  0
   37.1480   22.6130   31.6750 S   0  0  0  0  0  0  0  0  0  0  0  0
   35.6860   23.7540   31.1780 C   0  0  0  0  0  0  0  0  0  0  0  0
   34.6490   23.4290   31.0210 H   0  0  0  0  0  0  0  0  0  0  0  0
   36.1480   24.9250   31.0720 N   0  0  0  0  0  0  0  0  0  0  0  0
  1  2  1  0  0  0  0
  2  3  2  0  0  0  0
  2 10  1  0  0  0  0
  3  8  1  0  0  0  0
  4  3  1  0  0  0  0
  5  4  2  0  0  0  0
  6  5  1  0  0  0  0
  6  1  2  0  0  0  0
  7  1  1  0  0  0  0
  9 10  2  0  0  0  0
  9 17  1  0  0  0  0
 10 11  1  0  0  0  0
 11 19  1  0  0  0  0
 11 12  2  0  0  0  0
 12 13  1  0  0  0  0
 13 20  1  0  0  0  0
 13 14  1  0  0  0  0
 14 21  1  0  0  0  0
 15 14  2  0  0  0  0
 16 12  1  0  0  0  0
 16 15  1  0  0  0  0
 17 16  2  0  0  0  0
 18  9  1  0  0  0  0
 22 17  1  0  0  0  0
 23 24  1  0  0  0  0
 23 26  1  0  0  0  0
 23  5  1  0  0  0  0
 25 23  1  0  0  0  0
 26 27  2  0  0  0  0
 27 28  1  0  0  0  0
 29 27  1  0  0  0  0
 30 29  1  0  0  0  0
 31 30  1  0  0  0  0
 32 30  2  0  0  0  0
 32 26  1  0  0  0  0
M  END
>  <minimizedAffinity>
-5.07225561

$$$$

 OpenBabel03272501453D

 32 35  0  0  0  0  0  0  0  0999 V2000
   36.6410   28.0060   34.1570 C   0  0  0  0  0  0  0  0  0  0  0  0
   35.6750   28.8870   33.5900 C   0  0  0  0  0  0  0  0  0  0  0  0
   35.4130   28.7470   32.2400 C   0  0  0  0  0  0  0  0  0  0  0  0
   36.0710   27.7990   31.5300 N   0  0  0  0  0  0  0  0  0  0  0  0
   36.9890   26.9700   32.0940 C   0  0  0  0  0  0  0  0  0  0  0  0
   37.2630   27.0860   33.4090 N   0  0  0  0  0  0  0  0  0  0  0  0
   36.9870   27.9560   35.1850 H   0  0  0  0  0  0  0  0  0  0  0  0
   34.6830   29.4230   31.8460 H   0  0  0  0  0  0  0  0  0  0  0  0
   35.9620   30.6430   35.2430 C   0  0  0  0  0  0  0  0  0  0  0  0
   35.0960   29.8170   34.5250 C   0  0  0  0  0  0  0  0  0  0  0  0
   33.7280   29.9500   34.7590 C   0  0  0  0  0  0  0  0  0  0  0  0
   33.3010   30.8960   35.6950 C   0  0  0  0  0  0  0  0  0  0  0  0
   32.0830   31.2490   36.1280 N   0  0  0  0  0  0  0  0  0  0  0  0
   32.1810   32.2170   37.0420 C   0  0  0  0  0  0  0  0  0  0  0  0
   33.4860   32.5070   37.2140 N   0  0  0  0  0  0  0  0  0  0  0  0
   34.1740   31.7010   36.3920 C   0  0  0  0  0  0  0  0  0  0  0  0
   35.5250   31.5710   36.1620 C   0  0  0  0  0  0  0  0  0  0  0  0
   37.0550   30.6390   35.1550 H   0  0  0  0  0  0  0  0  0  0  0  0
   33.0530   29.3220   34.2160 H   0  0  0  0  0  0  0  0  0  0  0  0
   31.1920   30.8090   35.7780 H   0  0  0  0  0  0  0  0  0  0  0  0
   31.3670   32.7080   37.5730 H   0  0  0  0  0  0  0  0  0  0  0  0
   36.1830   32.2180   36.7250 H   0  0  0  0  0  0  0  0  0  0  0  0
   37.6670   25.9540   31.2440 C   0  0  0  0  0  0  0  0  0  0  0  0
   38.7590   25.9780   31.3120 H   0  0  0  0  0  0  0  0  0  0  0  0
   37.4150   26.2080   30.1910 H   0  0  0  0  0  0  0  0  0  0  0  0
   37.1140   24.5960   31.5920 C   0  0  0  0  0  0  0  0  0  0  0  0
   35.7530   24.1660   31.0990 C   0  0  0  0  0  0  0  0  0  0  0  0
   35.2010   24.8020   30.5220 H   0  0  0  0  0  0  0  0  0  0  0  0
   35.6750   22.5130   31.8270 S   0  0  0  0  0  0  0  0  0  0  0  0
   37.4080   22.6600   32.6410 C   0  0  0  0  0  0  0  0  0  0  0  0
   37.8940   21.8850   33.2490 H   0  0  0  0  0  0  0  0  0  0  0  0
   37.8640   23.7990   32.3430 N   0  0  0  0  0  0  0  0  0  0  0  0
  1  7  1  0  0  0  0
  2  1  1  0  0  0  0
  2 10  1  0  0  0  0
  3  2  2  0  0  0  0
  4  5  2  0  0  0  0
  4  3  1  0  0  0  0
  5  6  1  0  0  0  0
  6  1  2  0  0  0  0
  8  3  1  0  0  0  0
  9 17  1  0  0  0  0
 10 11  1  0  0  0  0
 10  9  2  0  0  0  0
 11 12  2  0  0  0  0
 12 13  1  0  0  0  0
 12 16  1  0  0  0  0
 13 14  1  0  0  0  0
 14 15  2  0  0  0  0
 14 21  1  0  0  0  0
 16 15  1  0  0  0  0
 17 16  2  0  0  0  0
 17 22  1  0  0  0  0
 18  9  1  0  0  0  0
 19 11  1  0  0  0  0
 20 13  1  0  0  0  0
 23 24  1  0  0  0  0
 23 26  1  0  0  0  0
 23  5  1  0  0  0  0
 25 23  1  0  0  0  0
 26 32  1  0  0  0  0
 27 26  2  0  0  0  0
 27 29  1  0  0  0  0
 28 27  1  0  0  0  0
 29 30  1  0  0  0  0
 30 31  1  0  0  0  0
 32 30  2  0  0  0  0
M  END
>  <minimizedAffinity>
-5.04851151

$$$$

 OpenBabel03272501453D

 32 35  0  0  0  0  0  0  0  0999 V2000
   37.8170   26.6010   35.3280 C   0  0  0  0  0  0  0  0  0  0  0  0
   37.6170   26.1780   33.9820 C   0  0  0  0  0  0  0  0  0  0  0  0
   37.7970   24.8340   33.7130 C   0  0  0  0  0  0  0  0  0  0  0  0
   38.1480   23.9960   34.7170 N   0  0  0  0  0  0  0  0  0  0  0  0
   38.3330   24.4240   35.9950 C   0  0  0  0  0  0  0  0  0  0  0  0
   38.1630   25.7300   36.2840 N   0  0  0  0  0  0  0  0  0  0  0  0
   37.7280   27.6010   35.7410 H   0  0  0  0  0  0  0  0  0  0  0  0
   37.6400   24.5490   32.6930 H   0  0  0  0  0  0  0  0  0  0  0  0
   37.9040   27.2960   31.8440 C   0  0  0  0  0  0  0  0  0  0  0  0
   37.2470   27.2340   33.0740 C   0  0  0  0  0  0  0  0  0  0  0  0
   36.2740   28.1960   33.3400 C   0  0  0  0  0  0  0  0  0  0  0  0
   36.0120   29.1650   32.3680 C   0  0  0  0  0  0  0  0  0  0  0  0
   35.1570   30.1960   32.3310 N   0  0  0  0  0  0  0  0  0  0  0  0
   35.2710   30.8490   31.1720 C   0  0  0  0  0  0  0  0  0  0  0  0
   36.2170   30.2370   30.4320 N   0  0  0  0  0  0  0  0  0  0  0  0
   36.6730   29.2070   31.1610 C   0  0  0  0  0  0  0  0  0  0  0  0
   37.6330   28.2570   30.8960 C   0  0  0  0  0  0  0  0  0  0  0  0
   38.6860   26.6030   31.5120 H   0  0  0  0  0  0  0  0  0  0  0  0
   35.7630   28.1610   34.2800 H   0  0  0  0  0  0  0  0  0  0  0  0
   34.4990   30.4340   33.1190 H   0  0  0  0  0  0  0  0  0  0  0  0
   34.7100   31.7250   30.8500 H   0  0  0  0  0  0  0  0  0  0  0  0
   38.1330   28.3170   29.9400 H   0  0  0  0  0  0  0  0  0  0  0  0
   38.7160   23.4380   37.0410 C   0  0  0  0  0  0  0  0  0  0  0  0
   38.0280   22.5920   37.1240 H   0  0  0  0  0  0  0  0  0  0  0  0
   38.6670   23.9770   38.0130 H   0  0  0  0  0  0  0  0  0  0  0  0
   40.1290   22.9870   36.7750 C   0  0  0  0  0  0  0  0  0  0  0  0
   41.0260   23.7630   35.8410 C   0  0  0  0  0  0  0  0  0  0  0  0
   40.6720   24.6050   35.3850 H   0  0  0  0  0  0  0  0  0  0  0  0
   42.5200   22.7510   35.9420 S   0  0  0  0  0  0  0  0  0  0  0  0
   41.7340   21.5010   37.1700 C   0  0  0  0  0  0  0  0  0  0  0  0
   42.2360   20.6200   37.5920 H   0  0  0  0  0  0  0  0  0  0  0  0
   40.5510   21.8880   37.3880 N   0  0  0  0  0  0  0  0  0  0  0  0
  1  7  1  0  0  0  0
  1  6  1  0  0  0  0
  2  1  2  0  0  0  0
  3  2  1  0  0  0  0
  3  4  2  0  0  0  0
  4  5  1  0  0  0  0
  5  6  2  0  0  0  0
  5 23  1  0  0  0  0
  8  3  1  0  0  0  0
  9 10  1  0  0  0  0
 10 11  2  0  0  0  0
 10  2  1  0  0  0  0
 11 19  1  0  0  0  0
 12 11  1  0  0  0  0
 13 12  1  0  0  0  0
 13 20  1  0  0  0  0
 14 13  1  0  0  0  0
 15 16  1  0  0  0  0
 15 14  2  0  0  0  0
 16 12  2  0  0  0  0
 17 16  1  0  0  0  0
 17  9  2  0  0  0  0
 18  9  1  0  0  0  0
 21 14  1  0  0  0  0
 22 17  1  0  0  0  0
 23 24  1  0  0  0  0
 23 25  1  0  0  0  0
 26 23  1  0  0  0  0
 26 32  1  0  0  0  0
 27 29  1  0  0  0  0
 27 26  2  0  0  0  0
 28 27  1  0  0  0  0
 29 30  1  0  0  0  0
 30 32  2  0  0  0  0
 30 31  1  0  0  0  0
M  END
>  <minimizedAffinity>
-4.93736839

$$$$

 OpenBabel03272501453D

 32 35  0  0  0  0  0  0  0  0999 V2000
   35.4310   24.8620   31.0540 C   0  0  0  0  0  0  0  0  0  0  0  0
   36.6860   24.1930   31.1530 C   0  0  0  0  0  0  0  0  0  0  0  0
   37.8220   24.9780   31.1010 C   0  0  0  0  0  0  0  0  0  0  0  0
   37.6980   26.3190   30.9610 N   0  0  0  0  0  0  0  0  0  0  0  0
   36.4880   26.9350   30.8690 C   0  0  0  0  0  0  0  0  0  0  0  0
   35.3650   26.1930   30.9170 N   0  0  0  0  0  0  0  0  0  0  0  0
   34.4340   24.4320   31.0710 H   0  0  0  0  0  0  0  0  0  0  0  0
   38.7470   24.4450   31.1790 H   0  0  0  0  0  0  0  0  0  0  0  0
   37.6840   21.9920   30.9060 C   0  0  0  0  0  0  0  0  0  0  0  0
   36.5880   22.7620   31.2980 C   0  0  0  0  0  0  0  0  0  0  0  0
   35.4730   22.0960   31.8060 C   0  0  0  0  0  0  0  0  0  0  0  0
   35.5130   20.7030   31.8930 C   0  0  0  0  0  0  0  0  0  0  0  0
   34.6210   19.8010   32.3270 N   0  0  0  0  0  0  0  0  0  0  0  0
   35.1200   18.5680   32.2140 C   0  0  0  0  0  0  0  0  0  0  0  0
   36.3620   18.6580   31.6990 N   0  0  0  0  0  0  0  0  0  0  0  0
   36.6060   19.9620   31.5010 C   0  0  0  0  0  0  0  0  0  0  0  0
   37.7070   20.6180   31.0000 C   0  0  0  0  0  0  0  0  0  0  0  0
   38.6180   22.3890   30.4920 H   0  0  0  0  0  0  0  0  0  0  0  0
   34.6260   22.6760   32.1090 H   0  0  0  0  0  0  0  0  0  0  0  0
   33.6690   20.0580   32.6980 H   0  0  0  0  0  0  0  0  0  0  0  0
   34.6330   17.6320   32.4850 H   0  0  0  0  0  0  0  0  0  0  0  0
   38.5480   20.0090   30.7010 H   0  0  0  0  0  0  0  0  0  0  0  0
   36.4390   28.4150   30.7180 C   0  0  0  0  0  0  0  0  0  0  0  0
   35.9500   28.7490   29.7970 H   0  0  0  0  0  0  0  0  0  0  0  0
   37.4940   28.7580   30.6530 H   0  0  0  0  0  0  0  0  0  0  0  0
   35.7830   28.9960   31.9430 C   0  0  0  0  0  0  0  0  0  0  0  0
   36.1880   28.5440   33.3250 C   0  0  0  0  0  0  0  0  0  0  0  0
   36.9160   27.8370   33.4320 H   0  0  0  0  0  0  0  0  0  0  0  0
   35.0800   29.5710   34.3180 S   0  0  0  0  0  0  0  0  0  0  0  0
   34.2850   30.4070   32.7830 C   0  0  0  0  0  0  0  0  0  0  0  0
   33.4950   31.1690   32.8100 H   0  0  0  0  0  0  0  0  0  0  0  0
   34.8420   29.9150   31.7620 N   0  0  0  0  0  0  0  0  0  0  0  0
  1  7  1  0  0  0  0
  1  2  1  0  0  0  0
  2 10  1  0  0  0  0
  3  2  2  0  0  0  0
  3  8  1  0  0  0  0
  4  3  1  0  0  0  0
  5  6  1  0  0  0  0
  5  4  2  0  0  0  0
  6  1  2  0  0  0  0
  9 17  2  0  0  0  0
  9 10  1  0  0  0  0
 10 11  2  0  0  0  0
 11 12  1  0  0  0  0
 11 19  1  0  0  0  0
 12 13  1  0  0  0  0
 13 20  1  0  0  0  0
 14 13  1  0  0  0  0
 14 21  1  0  0  0  0
 15 14  2  0  0  0  0
 16 15  1  0  0  0  0
 16 12  2  0  0  0  0
 17 16  1  0  0  0  0
 18  9  1  0  0  0  0
 22 17  1  0  0  0  0
 23  5  1  0  0  0  0
 23 26  1  0  0  0  0
 24 23  1  0  0  0  0
 25 23  1  0  0  0  0
 26 27  2  0  0  0  0
 27 28  1  0  0  0  0
 27 29  1  0  0  0  0
 30 31  1  0  0  0  0
 30 29  1  0  0  0  0
 32 26  1  0  0  0  0
 32 30  2  0  0  0  0
M  END
>  <minimizedAffinity>
-4.93556166

$$$$

 OpenBabel03272501453D

 32 35  0  0  0  0  0  0  0  0999 V2000
   38.2440   27.0840   34.0810 C   0  0  0  0  0  0  0  0  0  0  0  0
   37.1520   27.0180   33.1680 C   0  0  0  0  0  0  0  0  0  0  0  0
   36.8050   25.7670   32.6930 C   0  0  0  0  0  0  0  0  0  0  0  0
   37.5010   24.6820   33.1070 N   0  0  0  0  0  0  0  0  0  0  0  0
   38.5400   24.7700   33.9810 C   0  0  0  0  0  0  0  0  0  0  0  0
   38.8990   25.9780   34.4590 N   0  0  0  0  0  0  0  0  0  0  0  0
   38.6690   27.9590   34.5620 H   0  0  0  0  0  0  0  0  0  0  0  0
   35.9810   25.7520   32.0100 H   0  0  0  0  0  0  0  0  0  0  0  0
   35.9850   29.0130   33.9150 C   0  0  0  0  0  0  0  0  0  0  0  0
   36.5520   28.2920   32.8630 C   0  0  0  0  0  0  0  0  0  0  0  0
   36.5030   28.8560   31.5890 C   0  0  0  0  0  0  0  0  0  0  0  0
   35.8910   30.1020   31.4350 C   0  0  0  0  0  0  0  0  0  0  0  0
   35.6920   30.8820   30.3630 N   0  0  0  0  0  0  0  0  0  0  0  0
   35.0520   31.9990   30.7180 C   0  0  0  0  0  0  0  0  0  0  0  0
   34.8260   31.9540   32.0460 N   0  0  0  0  0  0  0  0  0  0  0  0
   35.3370   30.7950   32.4880 C   0  0  0  0  0  0  0  0  0  0  0  0
   35.3850   30.2410   33.7460 C   0  0  0  0  0  0  0  0  0  0  0  0
   35.9550   28.6840   34.9610 H   0  0  0  0  0  0  0  0  0  0  0  0
   36.9340   28.3130   30.7730 H   0  0  0  0  0  0  0  0  0  0  0  0
   36.0070   30.6250   29.3910 H   0  0  0  0  0  0  0  0  0  0  0  0
   34.7520   32.8210   30.0700 H   0  0  0  0  0  0  0  0  0  0  0  0
   34.9420   30.8110   34.5510 H   0  0  0  0  0  0  0  0  0  0  0  0
   39.2530   23.5290   34.3870 C   0  0  0  0  0  0  0  0  0  0  0  0
   40.2940   23.4880   34.0530 H   0  0  0  0  0  0  0  0  0  0  0  0
   38.7290   22.6880   33.8820 H   0  0  0  0  0  0  0  0  0  0  0  0
   39.1380   23.3820   35.8820 C   0  0  0  0  0  0  0  0  0  0  0  0
   37.8660   23.7590   36.6010 C   0  0  0  0  0  0  0  0  0  0  0  0
   37.0720   24.1170   36.0690 H   0  0  0  0  0  0  0  0  0  0  0  0
   38.3490   23.3680   38.2990 S   0  0  0  0  0  0  0  0  0  0  0  0
   40.1070   22.7860   37.7910 C   0  0  0  0  0  0  0  0  0  0  0  0
   40.8790   22.4160   38.4790 H   0  0  0  0  0  0  0  0  0  0  0  0
   40.1930   22.9110   36.5370 N   0  0  0  0  0  0  0  0  0  0  0  0
  1  6  1  0  0  0  0
  1  7  1  0  0  0  0
  2  1  2  0  0  0  0
  3  4  2  0  0  0  0
  3  2  1  0  0  0  0
  4  5  1  0  0  0  0
  5 23  1  0  0  0  0
  5  6  2  0  0  0  0
  8  3  1  0  0  0  0
  9 18  1  0  0  0  0
 10  2  1  0  0  0  0
 10  9  2  0  0  0  0
 11 10  1  0  0  0  0
 12 11  2  0  0  0  0
 12 16  1  0  0  0  0
 13 14  1  0  0  0  0
 13 12  1  0  0  0  0
 14 15  2  0  0  0  0
 15 16  1  0  0  0  0
 16 17  2  0  0  0  0
 17  9  1  0  0  0  0
 17 22  1  0  0  0  0
 19 11  1  0  0  0  0
 20 13  1  0  0  0  0
 21 14  1  0  0  0  0
 23 26  1  0  0  0  0
 24 23  1  0  0  0  0
 25 23  1  0  0  0  0
 26 32  1  0  0  0  0
 26 27  2  0  0  0  0
 27 29  1  0  0  0  0
 28 27  1  0  0  0  0
 30 29  1  0  0  0  0
 30 31  1  0  0  0  0
 32 30  2  0  0  0  0
M  END
>  <minimizedAffinity>
-4.84952021

$$$$

 OpenBabel03272501453D

 32 35  0  0  0  0  0  0  0  0999 V2000
   36.9400   25.8660   32.7760 C   0  0  0  0  0  0  0  0  0  0  0  0
   38.2300   26.1030   33.3320 C   0  0  0  0  0  0  0  0  0  0  0  0
   39.0100   27.0680   32.7230 C   0  0  0  0  0  0  0  0  0  0  0  0
   38.5240   27.7330   31.6480 N   0  0  0  0  0  0  0  0  0  0  0  0
   37.2880   27.4900   31.1350 C   0  0  0  0  0  0  0  0  0  0  0  0
   36.5080   26.5540   31.7100 N   0  0  0  0  0  0  0  0  0  0  0  0
   36.1840   25.1580   33.1010 H   0  0  0  0  0  0  0  0  0  0  0  0
   39.9720   27.2210   33.1650 H   0  0  0  0  0  0  0  0  0  0  0  0
   39.5670   24.3440   34.3430 C   0  0  0  0  0  0  0  0  0  0  0  0
   38.5450   25.2840   34.4760 C   0  0  0  0  0  0  0  0  0  0  0  0
   37.8980   25.3710   35.7080 C   0  0  0  0  0  0  0  0  0  0  0  0
   38.3050   24.5160   36.7350 C   0  0  0  0  0  0  0  0  0  0  0  0
   37.8870   24.3640   38.0000 N   0  0  0  0  0  0  0  0  0  0  0  0
   38.5920   23.4060   38.6060 C   0  0  0  0  0  0  0  0  0  0  0  0
   39.4900   22.9190   37.7270 N   0  0  0  0  0  0  0  0  0  0  0  0
   39.3170   23.5950   36.5810 C   0  0  0  0  0  0  0  0  0  0  0  0
   39.9570   23.5090   35.3660 C   0  0  0  0  0  0  0  0  0  0  0  0
   40.1530   24.1740   33.4320 H   0  0  0  0  0  0  0  0  0  0  0  0
   37.1110   26.0870   35.8230 H   0  0  0  0  0  0  0  0  0  0  0  0
   37.1100   24.9330   38.4270 H   0  0  0  0  0  0  0  0  0  0  0  0
   38.4840   23.0560   39.6320 H   0  0  0  0  0  0  0  0  0  0  0  0
   40.7470   22.7770   35.2780 H   0  0  0  0  0  0  0  0  0  0  0  0
   36.8300   28.2660   29.9510 C   0  0  0  0  0  0  0  0  0  0  0  0
   35.9660   27.8270   29.4420 H   0  0  0  0  0  0  0  0  0  0  0  0
   37.6670   28.2450   29.2190 H   0  0  0  0  0  0  0  0  0  0  0  0
   36.5630   29.6840   30.3860 C   0  0  0  0  0  0  0  0  0  0  0  0
   37.4610   30.8120   29.9400 C   0  0  0  0  0  0  0  0  0  0  0  0
   38.2590   30.6130   29.3350 H   0  0  0  0  0  0  0  0  0  0  0  0
   36.6430   32.1970   30.7650 S   0  0  0  0  0  0  0  0  0  0  0  0
   35.2830   31.0850   31.5430 C   0  0  0  0  0  0  0  0  0  0  0  0
   34.4660   31.4350   32.1870 H   0  0  0  0  0  0  0  0  0  0  0  0
   35.5150   29.9000   31.1710 N   0  0  0  0  0  0  0  0  0  0  0  0
  1  7  1  0  0  0  0
  1  2  1  0  0  0  0
  2 10  1  0  0  0  0
  3  8  1  0  0  0  0
  3  2  2  0  0  0  0
  4  3  1  0  0  0  0
  5  4  2  0  0  0  0
  5  6  1  0  0  0  0
  6  1  2  0  0  0  0
  9 10  2  0  0  0  0
  9 17  1  0  0  0  0
 10 11  1  0  0  0  0
 11 19  1  0  0  0  0
 11 12  2  0  0  0  0
 12 13  1  0  0  0  0
 13 20  1  0  0  0  0
 13 14  1  0  0  0  0
 14 21  1  0  0  0  0
 15 14  2  0  0  0  0
 16 12  1  0  0  0  0
 16 15  1  0  0  0  0
 17 16  2  0  0  0  0
 18  9  1  0  0  0  0
 22 17  1  0  0  0  0
 23 26  1  0  0  0  0
 23  5  1  0  0  0  0
 24 23  1  0  0  0  0
 25 23  1  0  0  0  0
 26 32  1  0  0  0  0
 27 26  2  0  0  0  0
 27 29  1  0  0  0  0
 28 27  1  0  0  0  0
 29 30  1  0  0  0  0
 30 31  1  0  0  0  0
 32 30  2  0  0  0  0
M  END
>  <minimizedAffinity>
-4.84732008

$$$$

 OpenBabel03272501453D

 32 35  0  0  0  0  0  0  0  0999 V2000
   36.7680   27.6760   34.5910 C   0  0  0  0  0  0  0  0  0  0  0  0
   37.2070   26.5610   33.8220 C   0  0  0  0  0  0  0  0  0  0  0  0
   36.8970   26.5650   32.4750 C   0  0  0  0  0  0  0  0  0  0  0  0
   36.2050   27.6070   31.9560 N   0  0  0  0  0  0  0  0  0  0  0  0
   35.7970   28.6620   32.7110 C   0  0  0  0  0  0  0  0  0  0  0  0
   36.0860   28.6820   34.0270 N   0  0  0  0  0  0  0  0  0  0  0  0
   36.9070   27.8610   35.6520 H   0  0  0  0  0  0  0  0  0  0  0  0
   37.2410   25.7130   31.9260 H   0  0  0  0  0  0  0  0  0  0  0  0
   38.8630   24.7850   33.8920 C   0  0  0  0  0  0  0  0  0  0  0  0
   37.9290   25.5650   34.5740 C   0  0  0  0  0  0  0  0  0  0  0  0
   37.7580   25.3310   35.9380 C   0  0  0  0  0  0  0  0  0  0  0  0
   38.5250   24.3340   36.5440 C   0  0  0  0  0  0  0  0  0  0  0  0
   38.5860   23.8850   37.8050 N   0  0  0  0  0  0  0  0  0  0  0  0
   39.4860   22.9030   37.9020 C   0  0  0  0  0  0  0  0  0  0  0  0
   40.0280   22.7030   36.6840 N   0  0  0  0  0  0  0  0  0  0  0  0
   39.4420   23.5750   35.8510 C   0  0  0  0  0  0  0  0  0  0  0  0
   39.6130   23.8050   34.5050 C   0  0  0  0  0  0  0  0  0  0  0  0
   39.0930   24.8660   32.8230 H   0  0  0  0  0  0  0  0  0  0  0  0
   37.0430   25.9220   36.4720 H   0  0  0  0  0  0  0  0  0  0  0  0
   37.9960   24.2710   38.5880 H   0  0  0  0  0  0  0  0  0  0  0  0
   39.7580   22.3440   38.7960 H   0  0  0  0  0  0  0  0  0  0  0  0
   40.3410   23.1940   33.9910 H   0  0  0  0  0  0  0  0  0  0  0  0
   35.0410   29.7680   32.0620 C   0  0  0  0  0  0  0  0  0  0  0  0
   34.8320   29.5970   31.0020 H   0  0  0  0  0  0  0  0  0  0  0  0
   35.6970   30.6650   32.1100 H   0  0  0  0  0  0  0  0  0  0  0  0
   33.7800   30.0090   32.8510 C   0  0  0  0  0  0  0  0  0  0  0  0
   33.5830   31.2920   33.6200 C   0  0  0  0  0  0  0  0  0  0  0  0
   34.3110   32.0070   33.6070 H   0  0  0  0  0  0  0  0  0  0  0  0
   31.9460   30.9780   34.3210 S   0  0  0  0  0  0  0  0  0  0  0  0
   31.7960   29.2470   33.5020 C   0  0  0  0  0  0  0  0  0  0  0  0
   30.9400   28.5680   33.6010 H   0  0  0  0  0  0  0  0  0  0  0  0
   32.8570   29.0560   32.8430 N   0  0  0  0  0  0  0  0  0  0  0  0
  1  7  1  0  0  0  0
  2 10  1  0  0  0  0
  2  1  2  0  0  0  0
  3  2  1  0  0  0  0
  4  3  2  0  0  0  0
  4  5  1  0  0  0  0
  5  6  2  0  0  0  0
  6  1  1  0  0  0  0
  8  3  1  0  0  0  0
  9 17  2  0  0  0  0
  9 10  1  0  0  0  0
 10 11  2  0  0  0  0
 11 19  1  0  0  0  0
 11 12  1  0  0  0  0
 12 13  1  0  0  0  0
 13 14  1  0  0  0  0
 13 20  1  0  0  0  0
 14 21  1  0  0  0  0
 15 14  2  0  0  0  0
 16 12  2  0  0  0  0
 16 15  1  0  0  0  0
 17 16  1  0  0  0  0
 18  9  1  0  0  0  0
 22 17  1  0  0  0  0
 23 25  1  0  0  0  0
 23  5  1  0  0  0  0
 23 26  1  0  0  0  0
 24 23  1  0  0  0  0
 26 27  2  0  0  0  0
 27 29  1  0  0  0  0
 28 27  1  0  0  0  0
 30 31  1  0  0  0  0
 30 29  1  0  0  0  0
 32 26  1  0  0  0  0
 32 30  2  0  0  0  0
M  END
>  <minimizedAffinity>
-4.8433404

$$$$
