
 OpenBabel03272509263D

 23 24  0  0  0  0  0  0  0  0999 V2000
   35.5970   29.8240   47.2770 C   0  0  0  0  0  0  0  0  0  0  0  0
   35.7570   28.8700   46.7190 H   0  0  0  0  0  0  0  0  0  0  0  0
   34.7220   30.3380   46.8450 H   0  0  0  0  0  0  0  0  0  0  0  0
   35.9260   28.7490   50.8750 C   0  0  0  0  0  0  0  0  0  0  0  0
   36.2570   28.9640   49.5490 C   0  0  0  0  0  0  0  0  0  0  0  0
   35.3510   29.5550   48.7020 C   0  0  0  0  0  0  0  0  0  0  0  0
   34.1420   29.9060   49.2310 N   0  0  0  0  0  0  0  0  0  0  0  0
   33.8410   29.6880   50.5240 C   0  0  0  0  0  0  0  0  0  0  0  0
   34.7220   29.1110   51.3580 N   0  0  0  0  0  0  0  0  0  0  0  0
   36.5930   28.2900   51.5930 H   0  0  0  0  0  0  0  0  0  0  0  0
   37.2300   28.6640   49.1850 H   0  0  0  0  0  0  0  0  0  0  0  0
   32.8270   30.0280   50.7920 H   0  0  0  0  0  0  0  0  0  0  0  0
   36.7960   30.7200   47.0860 C   0  0  0  0  0  0  0  0  0  0  0  0
   36.4500   31.5550   46.4010 H   0  0  0  0  0  0  0  0  0  0  0  0
   37.6370   30.2710   46.5640 H   0  0  0  0  0  0  0  0  0  0  0  0
   37.2500   31.5160   48.6610 S   0  0  0  0  0  0  0  0  0  0  0  0
   38.5540   32.7290   48.3410 C   0  0  0  0  0  0  0  0  0  0  0  0
   39.2140   32.6910   47.1590 C   0  0  0  0  0  0  0  0  0  0  0  0
   39.1210   32.0390   46.3000 H   0  0  0  0  0  0  0  0  0  0  0  0
   40.4130   34.0950   47.3160 S   0  0  0  0  0  0  0  0  0  0  0  0
   39.7310   34.4760   49.0680 C   0  0  0  0  0  0  0  0  0  0  0  0
   40.0900   35.2810   49.7150 H   0  0  0  0  0  0  0  0  0  0  0  0
   38.9420   33.6790   49.1660 N   0  0  0  0  0  0  0  0  0  0  0  0
  1  6  1  0  0  0  0
  2  1  1  0  0  0  0
  3  1  1  0  0  0  0
  4  9  1  0  0  0  0
  4 10  1  0  0  0  0
  5  4  2  0  0  0  0
  6  7  2  0  0  0  0
  6  5  1  0  0  0  0
  7  8  1  0  0  0  0
  8 12  1  0  0  0  0
  8  9  2  0  0  0  0
 11  5  1  0  0  0  0
 13  1  1  0  0  0  0
 13 16  1  0  0  0  0
 14 13  1  0  0  0  0
 15 13  1  0  0  0  0
 17 16  1  0  0  0  0
 17 23  1  0  0  0  0
 18 20  1  0  0  0  0
 18 17  2  0  0  0  0
 19 18  1  0  0  0  0
 20 21  1  0  0  0  0
 21 23  2  0  0  0  0
 21 22  1  0  0  0  0
M  END
>  <minimizedAffinity>
-2.57464147

>  <minimizedRMSD>
2.12391615

$$$$
