
 OpenBabel03272506413D

 17 18  0  0  0  0  0  0  0  0999 V2000
   37.2510   30.1600   51.4710 C   0  0  0  0  0  0  0  0  0  0  0  0
   38.1680   30.7070   50.5540 C   0  0  0  0  0  0  0  0  0  0  0  0
   37.9310   30.4920   49.1940 C   0  0  0  0  0  0  0  0  0  0  0  0
   36.8340   29.7700   48.8350 N   0  0  0  0  0  0  0  0  0  0  0  0
   35.9780   29.2610   49.7470 C   0  0  0  0  0  0  0  0  0  0  0  0
   36.1710   29.4460   51.0560 N   0  0  0  0  0  0  0  0  0  0  0  0
   37.3850   30.2950   52.5470 H   0  0  0  0  0  0  0  0  0  0  0  0
   38.9980   31.2590   50.9240 H   0  0  0  0  0  0  0  0  0  0  0  0
   38.6230   30.9040   48.4660 H   0  0  0  0  0  0  0  0  0  0  0  0
   34.5430   28.3160   49.2610 S   0  0  0  0  0  0  0  0  0  0  0  0
   34.0760   28.7190   47.5620 C   0  0  0  0  0  0  0  0  0  0  0  0
   33.8530   30.1280   47.3020 C   0  0  0  0  0  0  0  0  0  0  0  0
   33.9120   30.9690   47.9210 H   0  0  0  0  0  0  0  0  0  0  0  0
   33.4070   30.0310   45.4630 S   0  0  0  0  0  0  0  0  0  0  0  0
   33.6160   28.1440   45.4490 C   0  0  0  0  0  0  0  0  0  0  0  0
   33.4650   27.5400   44.5650 H   0  0  0  0  0  0  0  0  0  0  0  0
   33.9240   27.8710   46.5660 N   0  0  0  0  0  0  0  0  0  0  0  0
  1  7  1  0  0  0  0
  2  8  1  0  0  0  0
  2  1  2  0  0  0  0
  3  2  1  0  0  0  0
  4  3  2  0  0  0  0
  4  5  1  0  0  0  0
  5  6  2  0  0  0  0
  6  1  1  0  0  0  0
  9  3  1  0  0  0  0
 10  5  1  0  0  0  0
 11 10  1  0  0  0  0
 12 11  2  0  0  0  0
 12 13  1  0  0  0  0
 14 12  1  0  0  0  0
 15 14  1  0  0  0  0
 15 17  2  0  0  0  0
 16 15  1  0  0  0  0
 17 11  1  0  0  0  0
M  END
>  <minimizedAffinity>
-3.69071031

>  <minimizedRMSD>
0.772296071

$$$$
