
 OpenBabel03272504003D

 29 31  0  0  0  0  0  0  0  0999 V2000
   39.6360   32.0920   44.7330 C   0  0  0  0  0  0  0  0  0  0  0  0
   40.0010   32.9800   45.2600 H   0  0  0  0  0  0  0  0  0  0  0  0
   39.1680   32.5300   43.8060 H   0  0  0  0  0  0  0  0  0  0  0  0
   38.6020   31.4980   45.6130 C   0  0  0  0  0  0  0  0  0  0  0  0
   37.3830   31.1020   45.0940 C   0  0  0  0  0  0  0  0  0  0  0  0
   36.6300   30.5930   46.1180 C   0  0  0  0  0  0  0  0  0  0  0  0
   37.3950   30.6840   47.2350 N   0  0  0  0  0  0  0  0  0  0  0  0
   38.5460   31.2200   46.9120 N   0  0  0  0  0  0  0  0  0  0  0  0
   36.9370   31.1150   44.1040 H   0  0  0  0  0  0  0  0  0  0  0  0
   35.6500   30.1610   46.2780 H   0  0  0  0  0  0  0  0  0  0  0  0
   37.2720   30.3550   48.6380 C   0  0  0  0  0  0  0  0  0  0  0  0
   36.3260   29.3910   49.2620 C   0  0  0  0  0  0  0  0  0  0  0  0
   35.6860   28.9150   48.5440 H   0  0  0  0  0  0  0  0  0  0  0  0
   36.7100   29.4920   50.9030 S   0  0  0  0  0  0  0  0  0  0  0  0
   38.0840   30.7860   50.6740 C   0  0  0  0  0  0  0  0  0  0  0  0
   38.7030   31.2320   51.4740 H   0  0  0  0  0  0  0  0  0  0  0  0
   38.1420   31.0440   49.3470 N   0  0  0  0  0  0  0  0  0  0  0  0
   40.6390   31.1010   44.2700 C   0  0  0  0  0  0  0  0  0  0  0  0
   41.6550   31.5680   44.4640 H   0  0  0  0  0  0  0  0  0  0  0  0
   40.6770   30.1950   44.9520 H   0  0  0  0  0  0  0  0  0  0  0  0
   40.6370   30.7180   42.8800 C   0  0  0  0  0  0  0  0  0  0  0  0
   39.9650   31.4640   41.9510 C   0  0  0  0  0  0  0  0  0  0  0  0
   39.9710   31.0540   40.5890 C   0  0  0  0  0  0  0  0  0  0  0  0
   40.6730   29.9050   40.3040 N   0  0  0  0  0  0  0  0  0  0  0  0
   41.3190   29.2070   41.2610 C   0  0  0  0  0  0  0  0  0  0  0  0
   41.2970   29.6210   42.5530 N   0  0  0  0  0  0  0  0  0  0  0  0
   39.3900   32.3680   42.0380 H   0  0  0  0  0  0  0  0  0  0  0  0
   39.4880   31.5430   39.7640 H   0  0  0  0  0  0  0  0  0  0  0  0
   41.8530   28.3110   40.9700 H   0  0  0  0  0  0  0  0  0  0  0  0
  1  2  1  0  0  0  0
  1  4  1  0  0  0  0
  3  1  1  0  0  0  0
  4  8  2  0  0  0  0
  5  4  1  0  0  0  0
  5  6  2  0  0  0  0
  6 10  1  0  0  0  0
  6  7  1  0  0  0  0
  7 11  1  0  0  0  0
  8  7  1  0  0  0  0
  9  5  1  0  0  0  0
 11 12  2  0  0  0  0
 11 17  1  0  0  0  0
 12 14  1  0  0  0  0
 13 12  1  0  0  0  0
 15 14  1  0  0  0  0
 15 16  1  0  0  0  0
 17 15  2  0  0  0  0
 18 19  1  0  0  0  0
 18  1  1  0  0  0  0
 18 20  1  0  0  0  0
 21 18  1  0  0  0  0
 22 27  1  0  0  0  0
 22 21  2  0  0  0  0
 23 22  1  0  0  0  0
 24 23  2  0  0  0  0
 24 25  1  0  0  0  0
 25 26  2  0  0  0  0
 26 21  1  0  0  0  0
 28 23  1  0  0  0  0
 29 25  1  0  0  0  0
M  END
>  <minimizedAffinity>
-4.36666489

>  <minimizedRMSD>
4.54711533

$$$$
