
 OpenBabel03272505033D

 27 29  0  0  0  0  0  0  0  0999 V2000
   36.3660   30.3530   45.9870 Cl  0  0  0  0  0  0  0  0  0  0  0  0
   37.6170   31.4020   46.6280 C   0  0  0  0  0  0  0  0  0  0  0  0
   37.7770   31.4770   47.9870 C   0  0  0  0  0  0  0  0  0  0  0  0
   38.7800   32.3250   48.4280 C   0  0  0  0  0  0  0  0  0  0  0  0
   39.5500   33.0340   47.5080 C   0  0  0  0  0  0  0  0  0  0  0  0
   39.3450   32.9190   46.1540 C   0  0  0  0  0  0  0  0  0  0  0  0
   38.3460   32.0760   45.7030 C   0  0  0  0  0  0  0  0  0  0  0  0
   38.9950   32.4630   49.4760 H   0  0  0  0  0  0  0  0  0  0  0  0
   40.3270   33.6900   47.8810 H   0  0  0  0  0  0  0  0  0  0  0  0
   39.9700   33.4910   45.4690 H   0  0  0  0  0  0  0  0  0  0  0  0
   37.5600   29.8740   49.8900 C   0  0  0  0  0  0  0  0  0  0  0  0
   36.9740   30.7380   48.9490 C   0  0  0  0  0  0  0  0  0  0  0  0
   35.5980   30.8540   48.9750 C   0  0  0  0  0  0  0  0  0  0  0  0
   34.9020   30.1420   49.8910 N   0  0  0  0  0  0  0  0  0  0  0  0
   35.4920   29.3230   50.7810 C   0  0  0  0  0  0  0  0  0  0  0  0
   36.8230   29.1920   50.7770 N   0  0  0  0  0  0  0  0  0  0  0  0
   38.6400   29.7580   49.8990 H   0  0  0  0  0  0  0  0  0  0  0  0
   35.1320   31.5160   48.2550 H   0  0  0  0  0  0  0  0  0  0  0  0
   34.8690   28.7970   51.4730 H   0  0  0  0  0  0  0  0  0  0  0  0
   38.1620   31.9790   44.3400 O   0  0  0  0  0  0  0  0  0  0  0  0
   38.8890   30.9670   43.6790 C   0  0  0  0  0  0  0  0  0  0  0  0
   39.8700   31.5280   42.8960 C   0  0  0  0  0  0  0  0  0  0  0  0
   40.2760   32.4720   42.6120 H   0  0  0  0  0  0  0  0  0  0  0  0
   40.6720   30.0230   42.1420 S   0  0  0  0  0  0  0  0  0  0  0  0
   39.4500   28.8850   43.0920 C   0  0  0  0  0  0  0  0  0  0  0  0
   39.1230   27.7650   43.2990 H   0  0  0  0  0  0  0  0  0  0  0  0
   38.8410   29.6520   43.6430 N   0  0  0  0  0  0  0  0  0  0  0  0
  1  2  1  0  0  0  0
  2  3  1  0  0  0  0
  3  4  2  0  0  0  0
  3 12  1  0  0  0  0
  4  8  1  0  0  0  0
  5  9  1  0  0  0  0
  5  4  1  0  0  0  0
  6  5  2  0  0  0  0
  7  6  1  0  0  0  0
  7  2  2  0  0  0  0
 10  6  1  0  0  0  0
 11 17  1  0  0  0  0
 11 16  1  0  0  0  0
 12 13  1  0  0  0  0
 12 11  2  0  0  0  0
 13 14  2  0  0  0  0
 14 15  1  0  0  0  0
 15 19  1  0  0  0  0
 16 15  2  0  0  0  0
 18 13  1  0  0  0  0
 20  7  1  0  0  0  0
 21 20  1  0  0  0  0
 22 21  2  0  0  0  0
 23 22  1  0  0  0  0
 24 22  1  0  0  0  0
 24 25  1  0  0  0  0
 25 26  1  0  0  0  0
 25 27  2  0  0  0  0
 27 21  1  0  0  0  0
M  END
>  <minimizedAffinity>
-5.16955996

>  <minimizedRMSD>
2.1489799

$$$$
