
 OpenBabel03272509543D

 41 44  0  0  0  0  0  0  0  0999 V2000
   34.5110   29.0300   47.6740 C   0  0  0  0  0  0  0  0  0  0  0  0
   35.3570   29.2810   46.9960 H   0  0  0  0  0  0  0  0  0  0  0  0
   33.9640   29.9710   47.8790 H   0  0  0  0  0  0  0  0  0  0  0  0
   33.6680   27.9690   47.0480 C   0  0  0  0  0  0  0  0  0  0  0  0
   34.0490   26.9570   47.2350 H   0  0  0  0  0  0  0  0  0  0  0  0
   33.6810   28.0960   45.9270 H   0  0  0  0  0  0  0  0  0  0  0  0
   32.2400   28.0530   47.4240 C   0  0  0  0  0  0  0  0  0  0  0  0
   31.8220   27.3480   48.5410 C   0  0  0  0  0  0  0  0  0  0  0  0
   30.5320   27.3460   48.9870 C   0  0  0  0  0  0  0  0  0  0  0  0
   29.6310   28.0590   48.3130 N   0  0  0  0  0  0  0  0  0  0  0  0
   30.0290   28.7530   47.2170 C   0  0  0  0  0  0  0  0  0  0  0  0
   31.3060   28.7670   46.7560 N   0  0  0  0  0  0  0  0  0  0  0  0
   32.5550   26.7600   49.1010 H   0  0  0  0  0  0  0  0  0  0  0  0
   30.2350   26.7850   49.8650 H   0  0  0  0  0  0  0  0  0  0  0  0
   29.0140   29.5380   46.4800 C   0  0  0  0  0  0  0  0  0  0  0  0
   27.6040   29.6290   46.8530 C   0  0  0  0  0  0  0  0  0  0  0  0
   27.2820   29.1060   47.6960 H   0  0  0  0  0  0  0  0  0  0  0  0
   27.0540   30.7780   45.4440 S   0  0  0  0  0  0  0  0  0  0  0  0
   28.7860   30.8670   44.7070 C   0  0  0  0  0  0  0  0  0  0  0  0
   28.8940   31.4790   43.8130 H   0  0  0  0  0  0  0  0  0  0  0  0
   29.5020   30.1720   45.4240 N   0  0  0  0  0  0  0  0  0  0  0  0
   35.1360   28.5370   48.8600 O   0  0  0  0  0  0  0  0  0  0  0  0
   37.3390   30.1970   51.1880 C   0  0  0  0  0  0  0  0  0  0  0  0
   38.1460   30.9260   50.2870 C   0  0  0  0  0  0  0  0  0  0  0  0
   37.8790   30.7990   48.9270 C   0  0  0  0  0  0  0  0  0  0  0  0
   36.8420   29.9640   48.5950 N   0  0  0  0  0  0  0  0  0  0  0  0
   36.0920   29.2860   49.4590 C   0  0  0  0  0  0  0  0  0  0  0  0
   36.3540   29.4110   50.7660 N   0  0  0  0  0  0  0  0  0  0  0  0
   37.5880   30.3320   52.2230 H   0  0  0  0  0  0  0  0  0  0  0  0
   38.9550   31.5750   50.5690 H   0  0  0  0  0  0  0  0  0  0  0  0
   38.9400   33.4850   48.8880 F   0  0  0  0  0  0  0  0  0  0  0  0
   39.0940   32.7150   47.8260 C   0  0  0  0  0  0  0  0  0  0  0  0
   38.5860   31.4560   47.8680 C   0  0  0  0  0  0  0  0  0  0  0  0
   38.8060   30.7300   46.6920 C   0  0  0  0  0  0  0  0  0  0  0  0
   39.4740   31.2550   45.6060 C   0  0  0  0  0  0  0  0  0  0  0  0
   39.9670   32.5380   45.6200 C   0  0  0  0  0  0  0  0  0  0  0  0
   39.7630   33.2630   46.7560 C   0  0  0  0  0  0  0  0  0  0  0  0
   38.4450   29.7050   46.6040 H   0  0  0  0  0  0  0  0  0  0  0  0
   39.6120   30.6370   44.7180 H   0  0  0  0  0  0  0  0  0  0  0  0
   40.4730   32.8820   44.7450 H   0  0  0  0  0  0  0  0  0  0  0  0
   40.1450   34.2740   46.7850 H   0  0  0  0  0  0  0  0  0  0  0  0
  1  3  1  0  0  0  0
  1 22  1  0  0  0  0
  2  1  1  0  0  0  0
  4  5  1  0  0  0  0
  4  7  1  0  0  0  0
  4  1  1  0  0  0  0
  6  4  1  0  0  0  0
  7  8  1  0  0  0  0
  8  9  2  0  0  0  0
  8 13  1  0  0  0  0
  9 14  1  0  0  0  0
 10  9  1  0  0  0  0
 11 10  2  0  0  0  0
 12 11  1  0  0  0  0
 12  7  2  0  0  0  0
 15 16  2  0  0  0  0
 15 11  1  0  0  0  0
 16 17  1  0  0  0  0
 18 16  1  0  0  0  0
 19 21  2  0  0  0  0
 19 18  1  0  0  0  0
 20 19  1  0  0  0  0
 21 15  1  0  0  0  0
 22 27  1  0  0  0  0
 23 29  1  0  0  0  0
 24 30  1  0  0  0  0
 24 23  2  0  0  0  0
 25 24  1  0  0  0  0
 26 25  2  0  0  0  0
 26 27  1  0  0  0  0
 27 28  2  0  0  0  0
 28 23  1  0  0  0  0
 32 33  1  0  0  0  0
 32 31  1  0  0  0  0
 33 25  1  0  0  0  0
 34 33  2  0  0  0  0
 35 36  2  0  0  0  0
 35 34  1  0  0  0  0
 36 37  1  0  0  0  0
 37 41  1  0  0  0  0
 37 32  2  0  0  0  0
 38 34  1  0  0  0  0
 39 35  1  0  0  0  0
 40 36  1  0  0  0  0
M  END
>  <minimizedAffinity>
-6.59131813

>  <minimizedRMSD>
0.861088216

$$$$
