
 OpenBabel03272509543D

 41 44  0  0  0  0  0  0  0  0999 V2000
   34.4210   28.7830   48.1020 C   0  0  0  0  0  0  0  0  0  0  0  0
   35.2840   28.9410   47.4180 H   0  0  0  0  0  0  0  0  0  0  0  0
   33.9000   29.7550   48.2050 H   0  0  0  0  0  0  0  0  0  0  0  0
   33.5540   27.6910   47.5680 C   0  0  0  0  0  0  0  0  0  0  0  0
   33.8310   26.7010   47.9530 H   0  0  0  0  0  0  0  0  0  0  0  0
   33.6830   27.6270   46.4490 H   0  0  0  0  0  0  0  0  0  0  0  0
   32.1100   27.9310   47.7720 C   0  0  0  0  0  0  0  0  0  0  0  0
   31.5480   27.5230   48.9720 C   0  0  0  0  0  0  0  0  0  0  0  0
   30.2290   27.6900   49.2770 C   0  0  0  0  0  0  0  0  0  0  0  0
   29.4420   28.2740   48.3740 N   0  0  0  0  0  0  0  0  0  0  0  0
   29.9800   28.6770   47.1950 C   0  0  0  0  0  0  0  0  0  0  0  0
   31.2900   28.5200   46.8720 N   0  0  0  0  0  0  0  0  0  0  0  0
   32.1870   27.0440   49.7190 H   0  0  0  0  0  0  0  0  0  0  0  0
   29.8180   27.3610   50.2230 H   0  0  0  0  0  0  0  0  0  0  0  0
   29.0910   29.3220   46.2050 C   0  0  0  0  0  0  0  0  0  0  0  0
   29.5530   30.1770   45.1110 C   0  0  0  0  0  0  0  0  0  0  0  0
   30.5760   30.3470   45.0160 H   0  0  0  0  0  0  0  0  0  0  0  0
   27.8460   30.5600   44.3670 S   0  0  0  0  0  0  0  0  0  0  0  0
   26.9430   29.5210   45.6540 C   0  0  0  0  0  0  0  0  0  0  0  0
   25.8590   29.4840   45.5620 H   0  0  0  0  0  0  0  0  0  0  0  0
   27.8080   29.0590   46.3930 N   0  0  0  0  0  0  0  0  0  0  0  0
   35.0130   28.3900   49.3410 O   0  0  0  0  0  0  0  0  0  0  0  0
   37.2930   30.1300   51.5320 C   0  0  0  0  0  0  0  0  0  0  0  0
   38.0470   30.8510   50.5800 C   0  0  0  0  0  0  0  0  0  0  0  0
   37.7210   30.6910   49.2370 C   0  0  0  0  0  0  0  0  0  0  0  0
   36.6830   29.8360   48.9700 N   0  0  0  0  0  0  0  0  0  0  0  0
   35.9830   29.1650   49.8800 C   0  0  0  0  0  0  0  0  0  0  0  0
   36.3020   29.3220   51.1720 N   0  0  0  0  0  0  0  0  0  0  0  0
   37.5870   30.2900   52.5520 H   0  0  0  0  0  0  0  0  0  0  0  0
   38.8580   31.5180   50.8130 H   0  0  0  0  0  0  0  0  0  0  0  0
   38.8610   33.3430   49.1400 F   0  0  0  0  0  0  0  0  0  0  0  0
   38.9120   32.5790   48.0640 C   0  0  0  0  0  0  0  0  0  0  0  0
   38.3690   31.3360   48.1330 C   0  0  0  0  0  0  0  0  0  0  0  0
   38.4790   30.6150   46.9390 C   0  0  0  0  0  0  0  0  0  0  0  0
   39.0820   31.1290   45.8120 C   0  0  0  0  0  0  0  0  0  0  0  0
   39.6150   32.3960   45.7980 C   0  0  0  0  0  0  0  0  0  0  0  0
   39.5180   33.1160   46.9520 C   0  0  0  0  0  0  0  0  0  0  0  0
   38.0800   29.6030   46.8710 H   0  0  0  0  0  0  0  0  0  0  0  0
   39.1360   30.5150   44.9120 H   0  0  0  0  0  0  0  0  0  0  0  0
   40.0670   32.7320   44.8910 H   0  0  0  0  0  0  0  0  0  0  0  0
   39.9330   34.1150   46.9590 H   0  0  0  0  0  0  0  0  0  0  0  0
  1  3  1  0  0  0  0
  1 22  1  0  0  0  0
  2  1  1  0  0  0  0
  4  7  1  0  0  0  0
  4  5  1  0  0  0  0
  4  1  1  0  0  0  0
  6  4  1  0  0  0  0
  7  8  1  0  0  0  0
  8  9  2  0  0  0  0
  8 13  1  0  0  0  0
  9 14  1  0  0  0  0
 10  9  1  0  0  0  0
 11 10  2  0  0  0  0
 12 11  1  0  0  0  0
 12  7  2  0  0  0  0
 15 21  1  0  0  0  0
 15 11  1  0  0  0  0
 16 15  2  0  0  0  0
 17 16  1  0  0  0  0
 18 16  1  0  0  0  0
 18 19  1  0  0  0  0
 19 21  2  0  0  0  0
 20 19  1  0  0  0  0
 22 27  1  0  0  0  0
 23 29  1  0  0  0  0
 24 30  1  0  0  0  0
 24 23  2  0  0  0  0
 25 24  1  0  0  0  0
 26 25  2  0  0  0  0
 26 27  1  0  0  0  0
 27 28  2  0  0  0  0
 28 23  1  0  0  0  0
 32 33  1  0  0  0  0
 32 31  1  0  0  0  0
 33 25  1  0  0  0  0
 34 33  2  0  0  0  0
 35 34  1  0  0  0  0
 36 35  2  0  0  0  0
 36 37  1  0  0  0  0
 37 41  1  0  0  0  0
 37 32  2  0  0  0  0
 38 34  1  0  0  0  0
 39 35  1  0  0  0  0
 40 36  1  0  0  0  0
M  END
>  <minimizedAffinity>
-6.56322384

>  <minimizedRMSD>
0.576945841

$$$$
