
 OpenBabel03262521363D

 35 38  0  0  1  0  0  0  0  0999 V2000
   37.5860   25.1620   32.0690 C   0  0  1  0  0  0  0  0  0  0  0  0
   37.4060   26.1180   33.1650 C   0  0  2  0  0  0  0  0  0  0  0  0
   37.8260   27.4570   32.5120 C   0  0  0  0  0  0  0  0  0  0  0  0
   38.8910   27.0670   31.7500 O   0  0  0  0  0  0  0  0  0  0  0  0
   38.6770   25.8130   31.2250 C   0  0  0  0  0  0  0  0  0  0  0  0
   36.6510   25.0510   31.4820 H   0  0  0  0  0  0  0  0  0  0  0  0
   36.3330   26.2680   33.4130 H   0  0  0  0  0  0  0  0  0  0  0  0
   37.0080   27.8790   31.9040 H   0  0  0  0  0  0  0  0  0  0  0  0
   38.1930   28.1510   33.2970 H   0  0  0  0  0  0  0  0  0  0  0  0
   38.2760   25.9290   30.2000 H   0  0  0  0  0  0  0  0  0  0  0  0
   39.5820   25.1870   31.1300 H   0  0  0  0  0  0  0  0  0  0  0  0
   37.5550   25.3980   35.6610 C   0  0  1  0  0  0  0  0  0  0  0  0
   37.8220   26.8080   35.5620 C   0  0  0  0  0  0  0  0  0  0  0  0
   38.2560   25.8960   34.3960 C   0  0  2  0  0  0  0  0  0  0  0  0
   36.5130   25.0200   35.4600 H   0  0  0  0  0  0  0  0  0  0  0  0
   38.6950   27.2280   36.1330 H   0  0  0  0  0  0  0  0  0  0  0  0
   37.0380   27.5480   35.4080 H   0  0  0  0  0  0  0  0  0  0  0  0
   39.3150   25.6860   34.2460 H   0  0  0  0  0  0  0  0  0  0  0  0
   38.9030   23.3580   38.4960 C   0  0  0  0  0  0  0  0  0  0  0  0
   38.0830   24.2200   37.7790 C   0  0  0  0  0  0  0  0  0  0  0  0
   38.3880   24.4740   36.4540 C   0  0  0  0  0  0  0  0  0  0  0  0
   39.4960   23.8530   35.9180 N   0  0  0  0  0  0  0  0  0  0  0  0
   40.2840   23.0180   36.6290 C   0  0  0  0  0  0  0  0  0  0  0  0
   39.9870   22.7620   37.9430 N   0  0  0  0  0  0  0  0  0  0  0  0
   38.6490   23.1700   39.5330 H   0  0  0  0  0  0  0  0  0  0  0  0
   37.2160   24.7250   38.1680 H   0  0  0  0  0  0  0  0  0  0  0  0
   41.1210   22.5990   36.0860 H   0  0  0  0  0  0  0  0  0  0  0  0
   37.9960   23.8890   32.4610 O   0  0  0  0  0  0  0  0  0  0  0  0
   37.0910   22.8300   32.6710 C   0  0  0  0  0  0  0  0  0  0  0  0
   37.2940   21.9010   33.6950 C   0  0  0  0  0  0  0  0  0  0  0  0
   38.0510   21.8040   34.4200 H   0  0  0  0  0  0  0  0  0  0  0  0
   35.8530   20.7690   33.5220 S   0  0  0  0  0  0  0  0  0  0  0  0
   35.2080   21.7810   32.0490 C   0  0  0  0  0  0  0  0  0  0  0  0
   34.3040   21.5800   31.4750 H   0  0  0  0  0  0  0  0  0  0  0  0
   36.0130   22.6460   31.9330 N   0  0  0  0  0  0  0  0  0  0  0  0
  1  6  1  6  0  0  0
  1 28  1  0  0  0  0
  1  2  1  0  0  0  0
  2  7  1  1  0  0  0
  2 14  1  0  0  0  0
  3  2  1  0  0  0  0
  3  9  1  0  0  0  0
  4  3  1  0  0  0  0
  5  4  1  0  0  0  0
  5  1  1  0  0  0  0
  8  3  1  0  0  0  0
 10  5  1  0  0  0  0
 11  5  1  0  0  0  0
 12 15  1  6  0  0  0
 12 21  1  0  0  0  0
 13 12  1  0  0  0  0
 13 16  1  0  0  0  0
 14 18  1  6  0  0  0
 14 13  1  0  0  0  0
 14 12  1  0  0  0  0
 17 13  1  0  0  0  0
 19 25  1  0  0  0  0
 20 26  1  0  0  0  0
 20 19  2  0  0  0  0
 21 20  1  0  0  0  0
 22 21  2  0  0  0  0
 22 23  1  0  0  0  0
 23 24  2  0  0  0  0
 24 19  1  0  0  0  0
 27 23  1  0  0  0  0
 28 29  1  0  0  0  0
 29 30  2  0  0  0  0
 30 31  1  0  0  0  0
 32 30  1  0  0  0  0
 33 32  1  0  0  0  0
 34 33  1  0  0  0  0
 35 33  2  0  0  0  0
 35 29  1  0  0  0  0
M  END
>  <minimizedAffinity>
-4.79062557

$$$$

 OpenBabel03262521363D

 35 38  0  0  1  0  0  0  0  0999 V2000
   38.6390   23.2880   35.3590 C   0  0  1  0  0  0  0  0  0  0  0  0
   38.7050   24.4970   36.1850 C   0  0  2  0  0  0  0  0  0  0  0  0
   38.2370   23.9820   37.5680 C   0  0  0  0  0  0  0  0  0  0  0  0
   37.2380   23.1200   37.2150 O   0  0  0  0  0  0  0  0  0  0  0  0
   37.5540   22.4650   36.0460 C   0  0  0  0  0  0  0  0  0  0  0  0
   39.6070   22.7460   35.3710 H   0  0  0  0  0  0  0  0  0  0  0  0
   39.7520   24.8210   36.3630 H   0  0  0  0  0  0  0  0  0  0  0  0
   39.0570   23.4750   38.1050 H   0  0  0  0  0  0  0  0  0  0  0  0
   37.7890   24.8200   38.1420 H   0  0  0  0  0  0  0  0  0  0  0  0
   37.9980   21.4850   36.3070 H   0  0  0  0  0  0  0  0  0  0  0  0
   36.6950   22.2450   35.3880 H   0  0  0  0  0  0  0  0  0  0  0  0
   38.3600   26.6400   34.7490 C   0  0  1  0  0  0  0  0  0  0  0  0
   38.4230   27.0100   36.1380 C   0  0  0  0  0  0  0  0  0  0  0  0
   37.8090   25.6430   35.7710 C   0  0  2  0  0  0  0  0  0  0  0  0
   39.2910   26.2660   34.2370 H   0  0  0  0  0  0  0  0  0  0  0  0
   37.6600   27.7360   36.5340 H   0  0  0  0  0  0  0  0  0  0  0  0
   39.3570   27.0510   36.6960 H   0  0  0  0  0  0  0  0  0  0  0  0
   36.7320   25.4980   35.8600 H   0  0  0  0  0  0  0  0  0  0  0  0
   35.6020   28.6980   33.2750 C   0  0  0  0  0  0  0  0  0  0  0  0
   36.5780   28.2620   34.1630 C   0  0  0  0  0  0  0  0  0  0  0  0
   37.3260   27.1470   33.8280 C   0  0  0  0  0  0  0  0  0  0  0  0
   37.0580   26.5290   32.6250 N   0  0  0  0  0  0  0  0  0  0  0  0
   36.1050   26.9660   31.7740 C   0  0  0  0  0  0  0  0  0  0  0  0
   35.3600   28.0690   32.0990 N   0  0  0  0  0  0  0  0  0  0  0  0
   35.0260   29.5720   33.5530 H   0  0  0  0  0  0  0  0  0  0  0  0
   36.8080   28.7160   35.1100 H   0  0  0  0  0  0  0  0  0  0  0  0
   35.9990   26.3870   30.8650 H   0  0  0  0  0  0  0  0  0  0  0  0
   38.2870   23.5040   34.0280 O   0  0  0  0  0  0  0  0  0  0  0  0
   37.9890   22.4510   33.1410 C   0  0  0  0  0  0  0  0  0  0  0  0
   36.7920   22.4350   32.4200 C   0  0  0  0  0  0  0  0  0  0  0  0
   35.9780   23.1010   32.3880 H   0  0  0  0  0  0  0  0  0  0  0  0
   36.9150   20.8790   31.4450 S   0  0  0  0  0  0  0  0  0  0  0  0
   38.6160   20.5110   32.2060 C   0  0  0  0  0  0  0  0  0  0  0  0
   39.2440   19.6460   31.9950 H   0  0  0  0  0  0  0  0  0  0  0  0
   38.7990   21.4310   32.9340 N   0  0  0  0  0  0  0  0  0  0  0  0
  1  6  1  1  0  0  0
  1  5  1  0  0  0  0
  1  2  1  0  0  0  0
  2  7  1  1  0  0  0
  2  3  1  0  0  0  0
  3  8  1  0  0  0  0
  3  9  1  0  0  0  0
  4  3  1  0  0  0  0
  5 10  1  0  0  0  0
  5  4  1  0  0  0  0
 11  5  1  0  0  0  0
 12 15  1  6  0  0  0
 12 14  1  0  0  0  0
 12 13  1  0  0  0  0
 13 16  1  0  0  0  0
 13 17  1  0  0  0  0
 14 18  1  1  0  0  0
 14 13  1  0  0  0  0
 14  2  1  0  0  0  0
 19 25  1  0  0  0  0
 19 20  1  0  0  0  0
 20 26  1  0  0  0  0
 21 20  2  0  0  0  0
 21 12  1  0  0  0  0
 22 21  1  0  0  0  0
 23 24  1  0  0  0  0
 23 22  2  0  0  0  0
 24 19  2  0  0  0  0
 27 23  1  0  0  0  0
 28  1  1  0  0  0  0
 29 28  1  0  0  0  0
 30 29  2  0  0  0  0
 31 30  1  0  0  0  0
 32 33  1  0  0  0  0
 32 30  1  0  0  0  0
 33 35  2  0  0  0  0
 34 33  1  0  0  0  0
 35 29  1  0  0  0  0
M  END
>  <minimizedAffinity>
-4.75856876

$$$$

 OpenBabel03262521363D

 35 38  0  0  1  0  0  0  0  0999 V2000
   38.4230   23.3310   35.0210 C   0  0  1  0  0  0  0  0  0  0  0  0
   38.7040   24.4980   35.8620 C   0  0  2  0  0  0  0  0  0  0  0  0
   38.4730   23.9430   37.2890 C   0  0  0  0  0  0  0  0  0  0  0  0
   37.3810   23.1450   37.0990 O   0  0  0  0  0  0  0  0  0  0  0  0
   37.4410   22.5290   35.8690 C   0  0  0  0  0  0  0  0  0  0  0  0
   39.3460   22.7450   34.8330 H   0  0  0  0  0  0  0  0  0  0  0  0
   39.7830   24.7650   35.8530 H   0  0  0  0  0  0  0  0  0  0  0  0
   39.3500   23.3760   37.6460 H   0  0  0  0  0  0  0  0  0  0  0  0
   38.1840   24.7750   37.9660 H   0  0  0  0  0  0  0  0  0  0  0  0
   37.8720   21.5190   36.0070 H   0  0  0  0  0  0  0  0  0  0  0  0
   36.4650   22.3790   35.3750 H   0  0  0  0  0  0  0  0  0  0  0  0
   38.2930   26.7920   34.7060 C   0  0  1  0  0  0  0  0  0  0  0  0
   38.4990   27.0060   36.1140 C   0  0  0  0  0  0  0  0  0  0  0  0
   37.8100   25.7010   35.6630 C   0  0  2  0  0  0  0  0  0  0  0  0
   39.1600   26.4580   34.0680 H   0  0  0  0  0  0  0  0  0  0  0  0
   37.8000   27.7000   36.6570 H   0  0  0  0  0  0  0  0  0  0  0  0
   39.4820   26.9660   36.5790 H   0  0  0  0  0  0  0  0  0  0  0  0
   36.7420   25.5700   35.8410 H   0  0  0  0  0  0  0  0  0  0  0  0
   35.8930   27.6520   31.9650 C   0  0  0  0  0  0  0  0  0  0  0  0
   36.9260   27.0250   32.6500 C   0  0  0  0  0  0  0  0  0  0  0  0
   37.1940   27.4190   33.9490 C   0  0  0  0  0  0  0  0  0  0  0  0
   36.4150   28.4190   34.4910 N   0  0  0  0  0  0  0  0  0  0  0  0
   35.4140   29.0190   33.8110 C   0  0  0  0  0  0  0  0  0  0  0  0
   35.1440   28.6330   32.5240 N   0  0  0  0  0  0  0  0  0  0  0  0
   35.6960   27.3300   30.9490 H   0  0  0  0  0  0  0  0  0  0  0  0
   37.5560   26.2470   32.2540 H   0  0  0  0  0  0  0  0  0  0  0  0
   34.8830   29.7880   34.3560 H   0  0  0  0  0  0  0  0  0  0  0  0
   37.8440   23.6230   33.7870 O   0  0  0  0  0  0  0  0  0  0  0  0
   37.5690   22.6310   32.8240 C   0  0  0  0  0  0  0  0  0  0  0  0
   38.5380   21.6920   32.4610 C   0  0  0  0  0  0  0  0  0  0  0  0
   39.5310   21.5440   32.7760 H   0  0  0  0  0  0  0  0  0  0  0  0
   37.6710   20.6650   31.2040 S   0  0  0  0  0  0  0  0  0  0  0  0
   36.1010   21.7170   31.3950 C   0  0  0  0  0  0  0  0  0  0  0  0
   35.1620   21.5790   30.8600 H   0  0  0  0  0  0  0  0  0  0  0  0
   36.4050   22.5230   32.2130 N   0  0  0  0  0  0  0  0  0  0  0  0
  1  6  1  6  0  0  0
  1  2  1  0  0  0  0
  1  5  1  0  0  0  0
  2  7  1  6  0  0  0
  2  3  1  0  0  0  0
  3  8  1  0  0  0  0
  3  9  1  0  0  0  0
  4  3  1  0  0  0  0
  5 10  1  0  0  0  0
  5  4  1  0  0  0  0
 11  5  1  0  0  0  0
 12 15  1  6  0  0  0
 12 14  1  0  0  0  0
 12 13  1  0  0  0  0
 13 17  1  0  0  0  0
 13 16  1  0  0  0  0
 14 18  1  1  0  0  0
 14  2  1  0  0  0  0
 14 13  1  0  0  0  0
 19 24  2  0  0  0  0
 19 20  1  0  0  0  0
 20 21  2  0  0  0  0
 21 22  1  0  0  0  0
 21 12  1  0  0  0  0
 23 27  1  0  0  0  0
 23 22  2  0  0  0  0
 24 23  1  0  0  0  0
 25 19  1  0  0  0  0
 26 20  1  0  0  0  0
 28  1  1  0  0  0  0
 29 28  1  0  0  0  0
 30 31  1  0  0  0  0
 30 29  2  0  0  0  0
 32 33  1  0  0  0  0
 32 30  1  0  0  0  0
 33 35  2  0  0  0  0
 34 33  1  0  0  0  0
 35 29  1  0  0  0  0
M  END
>  <minimizedAffinity>
-4.70353174

$$$$

 OpenBabel03262521363D

 35 38  0  0  1  0  0  0  0  0999 V2000
   38.6070   27.3810   31.7570 C   0  0  1  0  0  0  0  0  0  0  0  0
   39.9050   27.3120   32.4350 C   0  0  2  0  0  0  0  0  0  0  0  0
   40.8850   27.0850   31.2580 C   0  0  0  0  0  0  0  0  0  0  0  0
   40.1720   26.2250   30.4710 O   0  0  0  0  0  0  0  0  0  0  0  0
   38.8310   26.5350   30.5080 C   0  0  0  0  0  0  0  0  0  0  0  0
   38.3590   28.4270   31.4820 H   0  0  0  0  0  0  0  0  0  0  0  0
   40.2100   28.2970   32.8480 H   0  0  0  0  0  0  0  0  0  0  0  0
   41.1160   28.0320   30.7410 H   0  0  0  0  0  0  0  0  0  0  0  0
   41.7870   26.5540   31.6260 H   0  0  0  0  0  0  0  0  0  0  0  0
   38.5970   27.1710   29.6320 H   0  0  0  0  0  0  0  0  0  0  0  0
   38.1500   25.6680   30.4440 H   0  0  0  0  0  0  0  0  0  0  0  0
   39.5530   26.4090   34.8500 C   0  0  1  0  0  0  0  0  0  0  0  0
   40.9590   26.6180   34.6260 C   0  0  0  0  0  0  0  0  0  0  0  0
   40.0830   26.1890   33.4320 C   0  0  2  0  0  0  0  0  0  0  0  0
   38.8700   27.3020   34.9240 H   0  0  0  0  0  0  0  0  0  0  0  0
   41.6780   25.8150   34.9490 H   0  0  0  0  0  0  0  0  0  0  0  0
   41.4180   27.6050   34.6340 H   0  0  0  0  0  0  0  0  0  0  0  0
   40.1720   25.1760   33.0390 H   0  0  0  0  0  0  0  0  0  0  0  0
   37.6400   24.0770   37.0670 C   0  0  0  0  0  0  0  0  0  0  0  0
   38.1170   25.2580   36.5120 C   0  0  0  0  0  0  0  0  0  0  0  0
   39.0090   25.1800   35.4570 C   0  0  0  0  0  0  0  0  0  0  0  0
   39.3760   23.9270   35.0160 N   0  0  0  0  0  0  0  0  0  0  0  0
   38.9030   22.7890   35.5680 C   0  0  0  0  0  0  0  0  0  0  0  0
   38.0190   22.8590   36.6130 N   0  0  0  0  0  0  0  0  0  0  0  0
   36.9420   24.1570   37.8920 H   0  0  0  0  0  0  0  0  0  0  0  0
   37.8560   26.2510   36.8360 H   0  0  0  0  0  0  0  0  0  0  0  0
   39.2740   21.8740   35.1250 H   0  0  0  0  0  0  0  0  0  0  0  0
   37.5360   26.8650   32.4840 O   0  0  0  0  0  0  0  0  0  0  0  0
   36.7100   25.8350   31.9920 C   0  0  0  0  0  0  0  0  0  0  0  0
   36.9910   24.4940   32.2680 C   0  0  0  0  0  0  0  0  0  0  0  0
   37.7600   24.0330   32.8170 H   0  0  0  0  0  0  0  0  0  0  0  0
   35.6330   23.6000   31.4060 S   0  0  0  0  0  0  0  0  0  0  0  0
   34.9000   25.2460   30.8040 C   0  0  0  0  0  0  0  0  0  0  0  0
   34.0080   25.3700   30.1930 H   0  0  0  0  0  0  0  0  0  0  0  0
   35.6410   26.0590   31.2530 N   0  0  0  0  0  0  0  0  0  0  0  0
  1  6  1  6  0  0  0
  1  2  1  0  0  0  0
  1 28  1  0  0  0  0
  2  7  1  1  0  0  0
  2 14  1  0  0  0  0
  3  9  1  0  0  0  0
  3  2  1  0  0  0  0
  4  5  1  0  0  0  0
  4  3  1  0  0  0  0
  5  1  1  0  0  0  0
  8  3  1  0  0  0  0
 10  5  1  0  0  0  0
 11  5  1  0  0  0  0
 12 15  1  1  0  0  0
 12 21  1  0  0  0  0
 13 17  1  0  0  0  0
 13 12  1  0  0  0  0
 13 16  1  0  0  0  0
 14 18  1  6  0  0  0
 14 13  1  0  0  0  0
 14 12  1  0  0  0  0
 19 25  1  0  0  0  0
 20 26  1  0  0  0  0
 20 19  2  0  0  0  0
 21 20  1  0  0  0  0
 22 21  2  0  0  0  0
 22 23  1  0  0  0  0
 23 24  2  0  0  0  0
 24 19  1  0  0  0  0
 27 23  1  0  0  0  0
 29 30  2  0  0  0  0
 29 28  1  0  0  0  0
 30 31  1  0  0  0  0
 32 30  1  0  0  0  0
 33 35  2  0  0  0  0
 33 32  1  0  0  0  0
 34 33  1  0  0  0  0
 35 29  1  0  0  0  0
M  END
>  <minimizedAffinity>
-4.62942266

$$$$

 OpenBabel03262521363D

 35 38  0  0  1  0  0  0  0  0999 V2000
   38.2650   25.7860   34.7780 C   0  0  1  0  0  0  0  0  0  0  0  0
   38.4010   25.7370   33.3190 C   0  0  2  0  0  0  0  0  0  0  0  0
   37.9910   27.1690   32.8970 C   0  0  0  0  0  0  0  0  0  0  0  0
   36.9550   27.4200   33.7510 O   0  0  0  0  0  0  0  0  0  0  0  0
   37.1960   26.8550   34.9830 C   0  0  0  0  0  0  0  0  0  0  0  0
   39.2190   26.0900   35.2550 H   0  0  0  0  0  0  0  0  0  0  0  0
   39.4640   25.6610   33.0040 H   0  0  0  0  0  0  0  0  0  0  0  0
   38.8250   27.8800   33.0310 H   0  0  0  0  0  0  0  0  0  0  0  0
   37.5930   27.1490   31.8610 H   0  0  0  0  0  0  0  0  0  0  0  0
   37.6290   27.6320   35.6430 H   0  0  0  0  0  0  0  0  0  0  0  0
   36.3000   26.4770   35.5060 H   0  0  0  0  0  0  0  0  0  0  0  0
   38.0510   23.3330   32.3880 C   0  0  1  0  0  0  0  0  0  0  0  0
   38.1620   24.2520   31.2860 C   0  0  0  0  0  0  0  0  0  0  0  0
   37.5130   24.7500   32.5940 C   0  0  2  0  0  0  0  0  0  0  0  0
   38.9600   23.1170   33.0170 H   0  0  0  0  0  0  0  0  0  0  0  0
   37.4240   24.1660   30.4410 H   0  0  0  0  0  0  0  0  0  0  0  0
   39.1120   24.6700   30.9600 H   0  0  0  0  0  0  0  0  0  0  0  0
   36.4370   24.9220   32.6280 H   0  0  0  0  0  0  0  0  0  0  0  0
   35.2200   21.0500   31.4980 C   0  0  0  0  0  0  0  0  0  0  0  0
   36.2110   22.0160   31.3720 C   0  0  0  0  0  0  0  0  0  0  0  0
   36.9990   22.3020   32.4730 C   0  0  0  0  0  0  0  0  0  0  0  0
   36.7530   21.6090   33.6390 N   0  0  0  0  0  0  0  0  0  0  0  0
   35.7840   20.6740   33.7440 C   0  0  0  0  0  0  0  0  0  0  0  0
   35.0000   20.3850   32.6580 N   0  0  0  0  0  0  0  0  0  0  0  0
   34.6120   20.8380   30.6260 H   0  0  0  0  0  0  0  0  0  0  0  0
   36.4250   22.5780   30.4800 H   0  0  0  0  0  0  0  0  0  0  0  0
   35.6990   20.2070   34.7170 H   0  0  0  0  0  0  0  0  0  0  0  0
   37.8520   24.5940   35.3700 O   0  0  0  0  0  0  0  0  0  0  0  0
   38.6420   23.8990   36.3080 C   0  0  0  0  0  0  0  0  0  0  0  0
   39.7950   23.2170   35.9120 C   0  0  0  0  0  0  0  0  0  0  0  0
   40.2550   23.0920   34.9740 H   0  0  0  0  0  0  0  0  0  0  0  0
   40.4210   22.5080   37.4910 S   0  0  0  0  0  0  0  0  0  0  0  0
   38.9680   23.2810   38.4400 C   0  0  0  0  0  0  0  0  0  0  0  0
   38.7800   23.2030   39.5100 H   0  0  0  0  0  0  0  0  0  0  0  0
   38.3530   23.8450   37.5940 N   0  0  0  0  0  0  0  0  0  0  0  0
  1  5  1  0  0  0  0
  1  6  1  1  0  0  0
  1 28  1  0  0  0  0
  2  7  1  6  0  0  0
  2  1  1  0  0  0  0
  3  8  1  0  0  0  0
  3  2  1  0  0  0  0
  3  4  1  0  0  0  0
  4  5  1  0  0  0  0
  5 11  1  0  0  0  0
  5 10  1  0  0  0  0
  9  3  1  0  0  0  0
 12 21  1  0  0  0  0
 12 14  1  0  0  0  0
 12 15  1  1  0  0  0
 13 12  1  0  0  0  0
 13 14  1  0  0  0  0
 14 18  1  1  0  0  0
 14  2  1  0  0  0  0
 16 13  1  0  0  0  0
 17 13  1  0  0  0  0
 19 24  1  0  0  0  0
 20 19  2  0  0  0  0
 20 21  1  0  0  0  0
 21 22  2  0  0  0  0
 22 23  1  0  0  0  0
 23 27  1  0  0  0  0
 24 23  2  0  0  0  0
 25 19  1  0  0  0  0
 26 20  1  0  0  0  0
 28 29  1  0  0  0  0
 29 35  1  0  0  0  0
 30 29  2  0  0  0  0
 30 32  1  0  0  0  0
 31 30  1  0  0  0  0
 32 33  1  0  0  0  0
 33 34  1  0  0  0  0
 35 33  2  0  0  0  0
M  END
>  <minimizedAffinity>
-4.62467575

$$$$

 OpenBabel03262521363D

 35 38  0  0  1  0  0  0  0  0999 V2000
   36.4910   26.5590   31.9830 C   0  0  1  0  0  0  0  0  0  0  0  0
   36.6050   27.3160   33.2330 C   0  0  2  0  0  0  0  0  0  0  0  0
   36.3340   28.7680   32.7690 C   0  0  0  0  0  0  0  0  0  0  0  0
   36.9900   28.7990   31.5710 O   0  0  0  0  0  0  0  0  0  0  0  0
   36.8760   27.5890   30.9250 C   0  0  0  0  0  0  0  0  0  0  0  0
   35.4510   26.2060   31.8260 H   0  0  0  0  0  0  0  0  0  0  0  0
   35.7660   27.0980   33.9280 H   0  0  0  0  0  0  0  0  0  0  0  0
   35.2530   28.9580   32.6600 H   0  0  0  0  0  0  0  0  0  0  0  0
   36.8370   29.4760   33.4610 H   0  0  0  0  0  0  0  0  0  0  0  0
   36.0340   27.6560   30.2090 H   0  0  0  0  0  0  0  0  0  0  0  0
   37.7590   27.2920   30.3320 H   0  0  0  0  0  0  0  0  0  0  0  0
   38.1530   26.2270   35.0190 C   0  0  1  0  0  0  0  0  0  0  0  0
   37.8270   27.5660   35.4330 C   0  0  0  0  0  0  0  0  0  0  0  0
   37.9500   27.2750   33.9230 C   0  0  2  0  0  0  0  0  0  0  0  0
   37.3470   25.4400   35.0210 H   0  0  0  0  0  0  0  0  0  0  0  0
   38.6550   28.2230   35.8180 H   0  0  0  0  0  0  0  0  0  0  0  0
   36.8600   27.8340   35.8550 H   0  0  0  0  0  0  0  0  0  0  0  0
   38.8110   27.6560   33.3730 H   0  0  0  0  0  0  0  0  0  0  0  0
   41.8740   25.9360   34.7290 C   0  0  0  0  0  0  0  0  0  0  0  0
   40.5990   26.4870   34.7030 C   0  0  0  0  0  0  0  0  0  0  0  0
   39.5250   25.6860   35.0500 C   0  0  0  0  0  0  0  0  0  0  0  0
   39.7840   24.3790   35.4020 N   0  0  0  0  0  0  0  0  0  0  0  0
   41.0300   23.8590   35.4200 C   0  0  0  0  0  0  0  0  0  0  0  0
   42.0980   24.6460   35.0780 N   0  0  0  0  0  0  0  0  0  0  0  0
   42.7030   26.5770   34.4550 H   0  0  0  0  0  0  0  0  0  0  0  0
   40.3610   27.5000   34.4280 H   0  0  0  0  0  0  0  0  0  0  0  0
   41.0900   22.8190   35.7150 H   0  0  0  0  0  0  0  0  0  0  0  0
   37.3360   25.4540   31.8870 O   0  0  0  0  0  0  0  0  0  0  0  0
   36.8800   24.1330   32.0690 C   0  0  0  0  0  0  0  0  0  0  0  0
   35.7440   23.6650   31.4040 C   0  0  0  0  0  0  0  0  0  0  0  0
   35.0830   24.1250   30.7270 H   0  0  0  0  0  0  0  0  0  0  0  0
   35.6060   21.9260   31.9900 S   0  0  0  0  0  0  0  0  0  0  0  0
   37.1560   22.1420   33.0670 C   0  0  0  0  0  0  0  0  0  0  0  0
   37.6090   21.3850   33.7060 H   0  0  0  0  0  0  0  0  0  0  0  0
   37.4810   23.2670   32.8630 N   0  0  0  0  0  0  0  0  0  0  0  0
  1  6  1  6  0  0  0
  1  2  1  0  0  0  0
  2 14  1  0  0  0  0
  2  7  1  1  0  0  0
  3  2  1  0  0  0  0
  3  9  1  0  0  0  0
  4  3  1  0  0  0  0
  5  4  1  0  0  0  0
  5  1  1  0  0  0  0
  8  3  1  0  0  0  0
 10  5  1  0  0  0  0
 11  5  1  0  0  0  0
 12 15  1  1  0  0  0
 12 21  1  0  0  0  0
 12 13  1  0  0  0  0
 13 16  1  0  0  0  0
 13 17  1  0  0  0  0
 14 18  1  6  0  0  0
 14 12  1  0  0  0  0
 14 13  1  0  0  0  0
 19 24  1  0  0  0  0
 20 19  2  0  0  0  0
 20 21  1  0  0  0  0
 21 22  2  0  0  0  0
 22 23  1  0  0  0  0
 23 27  1  0  0  0  0
 24 23  2  0  0  0  0
 25 19  1  0  0  0  0
 26 20  1  0  0  0  0
 28  1  1  0  0  0  0
 28 29  1  0  0  0  0
 29 35  1  0  0  0  0
 30 32  1  0  0  0  0
 30 29  2  0  0  0  0
 31 30  1  0  0  0  0
 32 33  1  0  0  0  0
 33 34  1  0  0  0  0
 35 33  2  0  0  0  0
M  END
>  <minimizedAffinity>
-4.48000288

$$$$

 OpenBabel03262521363D

 35 38  0  0  1  0  0  0  0  0999 V2000
   33.3360   29.4930   34.3690 C   0  0  1  0  0  0  0  0  0  0  0  0
   32.7750   30.1480   35.5530 C   0  0  2  0  0  0  0  0  0  0  0  0
   31.2610   30.1810   35.2300 C   0  0  0  0  0  0  0  0  0  0  0  0
   31.2730   30.4690   33.8950 O   0  0  0  0  0  0  0  0  0  0  0  0
   32.3340   29.8490   33.2750 C   0  0  0  0  0  0  0  0  0  0  0  0
   33.3860   28.3930   34.5100 H   0  0  0  0  0  0  0  0  0  0  0  0
   32.8400   29.5030   36.4550 H   0  0  0  0  0  0  0  0  0  0  0  0
   30.7850   29.2090   35.4450 H   0  0  0  0  0  0  0  0  0  0  0  0
   30.7880   31.0300   35.7660 H   0  0  0  0  0  0  0  0  0  0  0  0
   31.9730   28.8990   32.8360 H   0  0  0  0  0  0  0  0  0  0  0  0
   32.7850   30.4180   32.4430 H   0  0  0  0  0  0  0  0  0  0  0  0
   34.4950   31.7450   36.6760 C   0  0  1  0  0  0  0  0  0  0  0  0
   33.2210   31.8930   37.3280 C   0  0  0  0  0  0  0  0  0  0  0  0
   33.2390   31.5630   35.8220 C   0  0  2  0  0  0  0  0  0  0  0  0
   35.0730   30.7880   36.8090 H   0  0  0  0  0  0  0  0  0  0  0  0
   32.8460   32.9330   37.5400 H   0  0  0  0  0  0  0  0  0  0  0  0
   32.8330   31.1650   38.0380 H   0  0  0  0  0  0  0  0  0  0  0  0
   32.9580   32.3310   35.1010 H   0  0  0  0  0  0  0  0  0  0  0  0
   37.2320   33.7920   35.1480 C   0  0  0  0  0  0  0  0  0  0  0  0
   36.4750   32.6870   35.5170 C   0  0  0  0  0  0  0  0  0  0  0  0
   35.3180   32.8920   36.2480 C   0  0  0  0  0  0  0  0  0  0  0  0
   34.9820   34.1890   36.5700 N   0  0  0  0  0  0  0  0  0  0  0  0
   35.7300   35.2530   36.2040 C   0  0  0  0  0  0  0  0  0  0  0  0
   36.8760   35.0570   35.4790 N   0  0  0  0  0  0  0  0  0  0  0  0
   38.1350   33.6140   34.5750 H   0  0  0  0  0  0  0  0  0  0  0  0
   36.7120   31.6630   35.2880 H   0  0  0  0  0  0  0  0  0  0  0  0
   35.3500   36.2150   36.5230 H   0  0  0  0  0  0  0  0  0  0  0  0
   34.6060   29.9330   33.9990 O   0  0  0  0  0  0  0  0  0  0  0  0
   35.6390   29.0490   33.6310 C   0  0  0  0  0  0  0  0  0  0  0  0
   36.0510   28.9380   32.3000 C   0  0  0  0  0  0  0  0  0  0  0  0
   35.7290   29.4160   31.4200 H   0  0  0  0  0  0  0  0  0  0  0  0
   37.3890   27.6780   32.3820 S   0  0  0  0  0  0  0  0  0  0  0  0
   37.1500   27.5140   34.2600 C   0  0  0  0  0  0  0  0  0  0  0  0
   37.7080   26.8590   34.9270 H   0  0  0  0  0  0  0  0  0  0  0  0
   36.2740   28.2810   34.4960 N   0  0  0  0  0  0  0  0  0  0  0  0
  1  6  1  1  0  0  0
  1  2  1  0  0  0  0
  2 14  1  0  0  0  0
  2  7  1  1  0  0  0
  3  8  1  0  0  0  0
  3  2  1  0  0  0  0
  3  9  1  0  0  0  0
  4  3  1  0  0  0  0
  5  4  1  0  0  0  0
  5  1  1  0  0  0  0
 10  5  1  0  0  0  0
 11  5  1  0  0  0  0
 12 15  1  1  0  0  0
 12 13  1  0  0  0  0
 13 16  1  0  0  0  0
 13 17  1  0  0  0  0
 14 18  1  6  0  0  0
 14 12  1  0  0  0  0
 14 13  1  0  0  0  0
 19 24  2  0  0  0  0
 19 20  1  0  0  0  0
 20 21  2  0  0  0  0
 21 22  1  0  0  0  0
 21 12  1  0  0  0  0
 23 27  1  0  0  0  0
 23 22  2  0  0  0  0
 24 23  1  0  0  0  0
 25 19  1  0  0  0  0
 26 20  1  0  0  0  0
 28  1  1  0  0  0  0
 29 28  1  0  0  0  0
 29 35  1  0  0  0  0
 30 32  1  0  0  0  0
 30 29  2  0  0  0  0
 31 30  1  0  0  0  0
 32 33  1  0  0  0  0
 33 35  2  0  0  0  0
 33 34  1  0  0  0  0
M  END
>  <minimizedAffinity>
-4.43918991

$$$$

 OpenBabel03262521363D

 35 38  0  0  1  0  0  0  0  0999 V2000
   36.9590   27.3890   32.1470 C   0  0  1  0  0  0  0  0  0  0  0  0
   35.9820   28.3110   31.5620 C   0  0  2  0  0  0  0  0  0  0  0  0
   36.6480   28.6960   30.2190 C   0  0  0  0  0  0  0  0  0  0  0  0
   37.9600   28.8010   30.5850 O   0  0  0  0  0  0  0  0  0  0  0  0
   38.2750   27.8540   31.5320 C   0  0  0  0  0  0  0  0  0  0  0  0
   36.7400   26.3420   31.8560 H   0  0  0  0  0  0  0  0  0  0  0  0
   35.0500   27.7890   31.2570 H   0  0  0  0  0  0  0  0  0  0  0  0
   36.4880   27.9160   29.4550 H   0  0  0  0  0  0  0  0  0  0  0  0
   36.2920   29.6990   29.9040 H   0  0  0  0  0  0  0  0  0  0  0  0
   38.7250   26.9830   31.0170 H   0  0  0  0  0  0  0  0  0  0  0  0
   39.0150   28.1770   32.2860 H   0  0  0  0  0  0  0  0  0  0  0  0
   34.4020   29.6460   33.1410 C   0  0  1  0  0  0  0  0  0  0  0  0
   34.4200   30.2800   31.8500 C   0  0  0  0  0  0  0  0  0  0  0  0
   35.7040   29.5780   32.3400 C   0  0  2  0  0  0  0  0  0  0  0  0
   33.9080   28.6410   33.2530 H   0  0  0  0  0  0  0  0  0  0  0  0
   34.5280   31.3990   31.8050 H   0  0  0  0  0  0  0  0  0  0  0  0
   33.8820   29.8850   30.9900 H   0  0  0  0  0  0  0  0  0  0  0  0
   36.5600   30.1800   32.6460 H   0  0  0  0  0  0  0  0  0  0  0  0
   35.8750   31.5710   35.9940 C   0  0  0  0  0  0  0  0  0  0  0  0
   35.7790   30.8890   34.7880 C   0  0  0  0  0  0  0  0  0  0  0  0
   34.5450   30.3920   34.4060 C   0  0  0  0  0  0  0  0  0  0  0  0
   33.4770   30.6030   35.2510 N   0  0  0  0  0  0  0  0  0  0  0  0
   33.5880   31.2680   36.4210 C   0  0  0  0  0  0  0  0  0  0  0  0
   34.8070   31.7630   36.8050 N   0  0  0  0  0  0  0  0  0  0  0  0
   36.8480   31.9550   36.2780 H   0  0  0  0  0  0  0  0  0  0  0  0
   36.5920   30.7020   34.1090 H   0  0  0  0  0  0  0  0  0  0  0  0
   32.6700   31.3620   36.9870 H   0  0  0  0  0  0  0  0  0  0  0  0
   37.0510   27.4350   33.5370 O   0  0  0  0  0  0  0  0  0  0  0  0
   37.5280   26.3520   34.3020 C   0  0  0  0  0  0  0  0  0  0  0  0
   37.8110   26.5010   35.6620 C   0  0  0  0  0  0  0  0  0  0  0  0
   37.7400   27.3270   36.3120 H   0  0  0  0  0  0  0  0  0  0  0  0
   38.3860   24.8240   36.1550 S   0  0  0  0  0  0  0  0  0  0  0  0
   38.1380   24.1940   34.3790 C   0  0  0  0  0  0  0  0  0  0  0  0
   38.3280   23.1840   34.0200 H   0  0  0  0  0  0  0  0  0  0  0  0
   37.7380   25.1510   33.7990 N   0  0  0  0  0  0  0  0  0  0  0  0
  1  6  1  6  0  0  0
  1 28  1  0  0  0  0
  2  7  1  6  0  0  0
  2  1  1  0  0  0  0
  2 14  1  0  0  0  0
  3  4  1  0  0  0  0
  3  2  1  0  0  0  0
  4  5  1  0  0  0  0
  5  1  1  0  0  0  0
  5 11  1  0  0  0  0
  8  3  1  0  0  0  0
  9  3  1  0  0  0  0
 10  5  1  0  0  0  0
 12 15  1  1  0  0  0
 12 21  1  0  0  0  0
 13 14  1  0  0  0  0
 13 12  1  0  0  0  0
 14 18  1  1  0  0  0
 14 12  1  0  0  0  0
 16 13  1  0  0  0  0
 17 13  1  0  0  0  0
 19 25  1  0  0  0  0
 19 24  1  0  0  0  0
 20 19  2  0  0  0  0
 21 20  1  0  0  0  0
 21 22  2  0  0  0  0
 22 23  1  0  0  0  0
 23 24  2  0  0  0  0
 23 27  1  0  0  0  0
 26 20  1  0  0  0  0
 28 29  1  0  0  0  0
 29 30  2  0  0  0  0
 30 32  1  0  0  0  0
 30 31  1  0  0  0  0
 33 32  1  0  0  0  0
 34 33  1  0  0  0  0
 35 29  1  0  0  0  0
 35 33  2  0  0  0  0
M  END
>  <minimizedAffinity>
-4.38129997

$$$$

 OpenBabel03262521363D

 35 38  0  0  1  0  0  0  0  0999 V2000
   38.6100   27.4010   31.6790 C   0  0  1  0  0  0  0  0  0  0  0  0
   39.9830   27.2920   32.1800 C   0  0  2  0  0  0  0  0  0  0  0  0
   40.7700   26.8910   30.9080 C   0  0  0  0  0  0  0  0  0  0  0  0
   39.9000   26.0240   30.3100 O   0  0  0  0  0  0  0  0  0  0  0  0
   38.6010   26.4370   30.4980 C   0  0  0  0  0  0  0  0  0  0  0  0
   38.3920   28.4360   31.3420 H   0  0  0  0  0  0  0  0  0  0  0  0
   40.4050   28.2830   32.4520 H   0  0  0  0  0  0  0  0  0  0  0  0
   40.9860   27.7700   30.2770 H   0  0  0  0  0  0  0  0  0  0  0  0
   41.6800   26.3270   31.2010 H   0  0  0  0  0  0  0  0  0  0  0  0
   38.2860   27.0110   29.6050 H   0  0  0  0  0  0  0  0  0  0  0  0
   37.8640   25.6210   30.6100 H   0  0  0  0  0  0  0  0  0  0  0  0
   39.8410   26.5990   34.6840 C   0  0  1  0  0  0  0  0  0  0  0  0
   41.2240   26.7460   34.3150 C   0  0  0  0  0  0  0  0  0  0  0  0
   40.2290   26.2480   33.2460 C   0  0  2  0  0  0  0  0  0  0  0  0
   39.1890   27.5150   34.7460 H   0  0  0  0  0  0  0  0  0  0  0  0
   41.9510   25.9490   34.6360 H   0  0  0  0  0  0  0  0  0  0  0  0
   41.7040   27.7160   34.1970 H   0  0  0  0  0  0  0  0  0  0  0  0
   40.2570   25.2040   32.9320 H   0  0  0  0  0  0  0  0  0  0  0  0
   37.7060   24.4300   36.8640 C   0  0  0  0  0  0  0  0  0  0  0  0
   38.1460   25.5390   36.1520 C   0  0  0  0  0  0  0  0  0  0  0  0
   39.3280   25.4400   35.4390 C   0  0  0  0  0  0  0  0  0  0  0  0
   40.0050   24.2400   35.4770 N   0  0  0  0  0  0  0  0  0  0  0  0
   39.5630   23.1720   36.1760 C   0  0  0  0  0  0  0  0  0  0  0  0
   38.3930   23.2630   36.8830 N   0  0  0  0  0  0  0  0  0  0  0  0
   36.7780   24.5240   37.4160 H   0  0  0  0  0  0  0  0  0  0  0  0
   37.6470   26.4900   36.1060 H   0  0  0  0  0  0  0  0  0  0  0  0
   40.1920   22.2930   36.1190 H   0  0  0  0  0  0  0  0  0  0  0  0
   37.6220   27.0330   32.5910 O   0  0  0  0  0  0  0  0  0  0  0  0
   36.5880   27.9050   32.9840 C   0  0  0  0  0  0  0  0  0  0  0  0
   36.4360   28.2860   34.3190 C   0  0  0  0  0  0  0  0  0  0  0  0
   36.9770   28.0420   35.1890 H   0  0  0  0  0  0  0  0  0  0  0  0
   34.9730   29.4010   34.2710 S   0  0  0  0  0  0  0  0  0  0  0  0
   34.8160   29.1490   32.3950 C   0  0  0  0  0  0  0  0  0  0  0  0
   34.0660   29.5970   31.7440 H   0  0  0  0  0  0  0  0  0  0  0  0
   35.7110   28.4110   32.1380 N   0  0  0  0  0  0  0  0  0  0  0  0
  1  6  1  6  0  0  0
  1  2  1  0  0  0  0
  1 28  1  0  0  0  0
  2  7  1  1  0  0  0
  2 14  1  0  0  0  0
  3  9  1  0  0  0  0
  3  2  1  0  0  0  0
  4  5  1  0  0  0  0
  4  3  1  0  0  0  0
  5 11  1  0  0  0  0
  5  1  1  0  0  0  0
  8  3  1  0  0  0  0
 10  5  1  0  0  0  0
 12 15  1  1  0  0  0
 12 21  1  0  0  0  0
 13 16  1  0  0  0  0
 13 12  1  0  0  0  0
 14 18  1  6  0  0  0
 14 13  1  0  0  0  0
 14 12  1  0  0  0  0
 17 13  1  0  0  0  0
 19 24  1  0  0  0  0
 19 25  1  0  0  0  0
 20 19  2  0  0  0  0
 21 22  2  0  0  0  0
 21 20  1  0  0  0  0
 22 23  1  0  0  0  0
 23 24  2  0  0  0  0
 26 20  1  0  0  0  0
 27 23  1  0  0  0  0
 28 29  1  0  0  0  0
 29 30  2  0  0  0  0
 30 31  1  0  0  0  0
 32 30  1  0  0  0  0
 33 32  1  0  0  0  0
 34 33  1  0  0  0  0
 35 33  2  0  0  0  0
 35 29  1  0  0  0  0
M  END
>  <minimizedAffinity>
-4.37542868

$$$$
