
 OpenBabel03272500073D

 37 40  0  0  0  0  0  0  0  0999 V2000
   35.4780   28.8840   49.1870 C   0  0  0  0  0  0  0  0  0  0  0  0
   35.4020   30.0790   48.4320 C   0  0  0  0  0  0  0  0  0  0  0  0
   34.3020   30.2370   47.5740 C   0  0  0  0  0  0  0  0  0  0  0  0
   33.3750   29.2470   47.5120 N   0  0  0  0  0  0  0  0  0  0  0  0
   33.4880   28.1200   48.2520 C   0  0  0  0  0  0  0  0  0  0  0  0
   34.5410   27.9280   49.0970 N   0  0  0  0  0  0  0  0  0  0  0  0
   36.3240   28.7510   49.8540 H   0  0  0  0  0  0  0  0  0  0  0  0
   34.2390   31.1410   46.9990 H   0  0  0  0  0  0  0  0  0  0  0  0
   36.4320   31.0340   48.5830 N   0  0  0  0  0  0  0  0  0  0  0  0
   36.6020   31.7220   49.7060 C   0  0  0  0  0  0  0  0  0  0  0  0
   37.6440   32.6500   49.7840 C   0  0  0  0  0  0  0  0  0  0  0  0
   38.4100   32.7690   48.6720 C   0  0  0  0  0  0  0  0  0  0  0  0
   39.3610   33.6130   48.7370 O   0  0  0  0  0  0  0  0  0  0  0  0
   38.2720   32.1000   47.5330 N   0  0  0  0  0  0  0  0  0  0  0  0
   37.2510   31.2100   47.4970 C   0  0  0  0  0  0  0  0  0  0  0  0
   37.1000   30.5580   46.4140 O   0  0  0  0  0  0  0  0  0  0  0  0
   35.9210   31.5330   50.5240 H   0  0  0  0  0  0  0  0  0  0  0  0
   37.7850   33.2120   50.6960 H   0  0  0  0  0  0  0  0  0  0  0  0
   38.8830   32.2170   46.6930 H   0  0  0  0  0  0  0  0  0  0  0  0
   32.5240   27.0940   48.1800 O   0  0  0  0  0  0  0  0  0  0  0  0
   31.2010   27.5050   48.2810 C   0  0  0  0  0  0  0  0  0  0  0  0
   30.7950   27.7710   49.5790 C   0  0  0  0  0  0  0  0  0  0  0  0
   29.5270   28.1910   49.8850 C   0  0  0  0  0  0  0  0  0  0  0  0
   28.6300   28.3510   48.8420 C   0  0  0  0  0  0  0  0  0  0  0  0
   29.0380   28.0870   47.5620 C   0  0  0  0  0  0  0  0  0  0  0  0
   30.3180   27.6600   47.2390 C   0  0  0  0  0  0  0  0  0  0  0  0
   31.4480   27.6650   50.4360 H   0  0  0  0  0  0  0  0  0  0  0  0
   29.2090   28.3980   50.8950 H   0  0  0  0  0  0  0  0  0  0  0  0
   27.6330   28.6750   49.0240 H   0  0  0  0  0  0  0  0  0  0  0  0
   28.3150   28.2200   46.7600 H   0  0  0  0  0  0  0  0  0  0  0  0
   30.7200   27.3900   45.8590 C   0  0  0  0  0  0  0  0  0  0  0  0
   30.6830   26.1250   45.2930 C   0  0  0  0  0  0  0  0  0  0  0  0
   30.4160   25.1310   45.5980 H   0  0  0  0  0  0  0  0  0  0  0  0
   31.2530   26.4230   43.5650 S   0  0  0  0  0  0  0  0  0  0  0  0
   31.4480   28.2840   43.9290 C   0  0  0  0  0  0  0  0  0  0  0  0
   31.7850   28.9960   43.1990 H   0  0  0  0  0  0  0  0  0  0  0  0
   31.1190   28.3530   45.0570 N   0  0  0  0  0  0  0  0  0  0  0  0
  1  7  1  0  0  0  0
  2  9  1  0  0  0  0
  2  1  2  0  0  0  0
  3  2  1  0  0  0  0
  4  3  2  0  0  0  0
  4  5  1  0  0  0  0
  5  6  2  0  0  0  0
  6  1  1  0  0  0  0
  8  3  1  0  0  0  0
  9 10  1  0  0  0  0
 10 11  2  0  0  0  0
 10 17  1  0  0  0  0
 11 18  1  0  0  0  0
 12 13  2  0  0  0  0
 12 11  1  0  0  0  0
 14 12  1  0  0  0  0
 15 14  1  0  0  0  0
 15  9  1  0  0  0  0
 16 15  2  0  0  0  0
 19 14  1  0  0  0  0
 20  5  1  0  0  0  0
 20 21  1  0  0  0  0
 21 22  1  0  0  0  0
 22 23  2  0  0  0  0
 22 27  1  0  0  0  0
 23 28  1  0  0  0  0
 24 29  1  0  0  0  0
 24 23  1  0  0  0  0
 25 24  2  0  0  0  0
 26 25  1  0  0  0  0
 26 21  2  0  0  0  0
 30 25  1  0  0  0  0
 31 26  1  0  0  0  0
 32 33  1  0  0  0  0
 32 31  2  0  0  0  0
 34 35  1  0  0  0  0
 34 32  1  0  0  0  0
 35 37  2  0  0  0  0
 36 35  1  0  0  0  0
 37 31  1  0  0  0  0
M  END
>  <minimizedAffinity>
-5.75767326

>  <minimizedRMSD>
0.279540271

$$$$
