
 OpenBabel03262521463D

 28 29  0  0  0  0  0  0  0  0999 V2000
   36.9710   29.1830   50.6880 C   0  0  0  0  0  0  0  0  0  0  0  0
   37.4750   28.3130   51.1600 H   0  0  0  0  0  0  0  0  0  0  0  0
   36.9050   28.9530   49.5920 H   0  0  0  0  0  0  0  0  0  0  0  0
   37.6890   30.4760   50.8860 C   0  0  0  0  0  0  0  0  0  0  0  0
   37.1510   31.1530   51.5910 H   0  0  0  0  0  0  0  0  0  0  0  0
   38.6480   30.2240   51.4260 H   0  0  0  0  0  0  0  0  0  0  0  0
   38.0760   31.1560   49.6620 C   0  0  0  0  0  0  0  0  0  0  0  0
   38.5200   32.4620   49.6380 C   0  0  0  0  0  0  0  0  0  0  0  0
   38.8710   33.0340   48.4060 C   0  0  0  0  0  0  0  0  0  0  0  0
   38.7490   32.2500   47.2840 N   0  0  0  0  0  0  0  0  0  0  0  0
   38.3090   30.9690   47.3450 C   0  0  0  0  0  0  0  0  0  0  0  0
   37.9750   30.4380   48.5550 N   0  0  0  0  0  0  0  0  0  0  0  0
   38.5990   33.0420   50.5460 H   0  0  0  0  0  0  0  0  0  0  0  0
   39.2250   34.0550   48.3280 H   0  0  0  0  0  0  0  0  0  0  0  0
   38.2350   30.4010   46.4190 H   0  0  0  0  0  0  0  0  0  0  0  0
   35.6600   29.3380   51.1520 O   0  0  0  0  0  0  0  0  0  0  0  0
   34.6220   31.0470   49.4890 O   0  0  0  0  0  0  0  0  0  0  0  0
   34.5810   29.5630   49.8830 P   0  0  2  0  0  0  0  0  0  0  0  0
   33.0000   29.2680   50.3530 O   0  0  0  0  0  0  0  0  0  0  0  0
   32.8710   28.4760   50.9060 H   0  0  0  0  0  0  0  0  0  0  0  0
   34.9520   28.5860   48.5760 O   0  0  0  0  0  0  0  0  0  0  0  0
   33.9050   27.9820   47.8490 C   0  0  0  0  0  0  0  0  0  0  0  0
   33.6930   26.5720   47.6990 C   0  0  0  0  0  0  0  0  0  0  0  0
   34.3290   25.9220   48.1400 H   0  0  0  0  0  0  0  0  0  0  0  0
   32.2140   26.5630   46.6710 S   0  0  0  0  0  0  0  0  0  0  0  0
   32.1190   28.4800   46.6080 C   0  0  0  0  0  0  0  0  0  0  0  0
   31.3350   29.0730   46.0640 H   0  0  0  0  0  0  0  0  0  0  0  0
   33.1700   28.9550   47.3390 N   0  0  0  0  0  0  0  0  0  0  0  0
  1  4  1  0  0  0  0
  1 16  1  0  0  0  0
  1  2  1  0  0  0  0
  3  1  1  0  0  0  0
  4  6  1  0  0  0  0
  4  5  1  0  0  0  0
  7  4  1  0  0  0  0
  8  7  1  0  0  0  0
  8 13  1  0  0  0  0
  9  8  2  0  0  0  0
 10 11  2  0  0  0  0
 10  9  1  0  0  0  0
 11 12  1  0  0  0  0
 12  7  2  0  0  0  0
 14  9  1  0  0  0  0
 15 11  1  0  0  0  0
 18 17  2  6  0  0  0
 18 19  1  0  0  0  0
 18 16  1  0  0  0  0
 19 20  1  0  0  0  0
 21 18  1  0  0  0  0
 22 21  1  0  0  0  0
 23 22  2  0  0  0  0
 23 24  1  0  0  0  0
 25 23  1  0  0  0  0
 26 25  1  0  0  0  0
 26 28  2  0  0  0  0
 27 26  1  0  0  0  0
 28 22  1  0  0  0  0
M  END
>  <minimizedAffinity>
-4.73323536

>  <minimizedRMSD>
0.482457042

$$$$
