
 OpenBabel03262522293D

 44 47  0  0  0  0  0  0  0  0999 V2000
   35.0940   28.8170   32.3260 C   0  0  0  0  0  0  0  0  0  0  0  0
   35.2280   30.2040   32.2480 C   0  0  0  0  0  0  0  0  0  0  0  0
   36.2730   30.6990   31.5110 C   0  0  0  0  0  0  0  0  0  0  0  0
   37.1110   29.8130   30.9060 N   0  0  0  0  0  0  0  0  0  0  0  0
   36.9580   28.5230   30.9980 C   0  0  0  0  0  0  0  0  0  0  0  0
   35.9310   27.9650   31.7210 N   0  0  0  0  0  0  0  0  0  0  0  0
   34.3110   28.2860   32.8770 H   0  0  0  0  0  0  0  0  0  0  0  0
   36.4100   31.7730   31.4280 H   0  0  0  0  0  0  0  0  0  0  0  0
   34.3230   30.9670   32.9030 O   0  0  0  0  0  0  0  0  0  0  0  0
   34.5580   31.3190   34.2280 C   0  0  0  0  0  0  0  0  0  0  0  0
   35.7140   31.8500   34.7780 C   0  0  0  0  0  0  0  0  0  0  0  0
   35.7420   32.1250   36.0950 C   0  0  0  0  0  0  0  0  0  0  0  0
   34.6330   31.8740   36.8530 C   0  0  0  0  0  0  0  0  0  0  0  0
   33.4690   31.3360   36.2850 C   0  0  0  0  0  0  0  0  0  0  0  0
   33.4770   31.0740   34.9630 N   0  0  0  0  0  0  0  0  0  0  0  0
   36.5050   31.9900   34.0460 H   0  0  0  0  0  0  0  0  0  0  0  0
   36.6680   32.5410   36.4890 H   0  0  0  0  0  0  0  0  0  0  0  0
   34.6540   32.0940   37.9120 H   0  0  0  0  0  0  0  0  0  0  0  0
   32.2600   31.0720   37.1570 C   0  0  0  0  0  0  0  0  0  0  0  0
   32.5180   30.4500   38.0330 H   0  0  0  0  0  0  0  0  0  0  0  0
   31.9640   32.0600   37.5500 H   0  0  0  0  0  0  0  0  0  0  0  0
   31.5080   30.6130   36.4930 H   0  0  0  0  0  0  0  0  0  0  0  0
   38.2260   27.6000   30.0840 S   0  0  0  0  0  0  0  0  0  0  0  0
   38.3490   26.0150   30.9650 C   0  0  0  0  0  0  0  0  0  0  0  0
   37.3260   25.6180   31.0650 H   0  0  0  0  0  0  0  0  0  0  0  0
   39.0290   25.3640   30.3980 H   0  0  0  0  0  0  0  0  0  0  0  0
   36.9030   25.1080   33.1290 F   0  0  0  0  0  0  0  0  0  0  0  0
   38.0580   25.8140   33.3500 C   0  0  0  0  0  0  0  0  0  0  0  0
   38.8680   26.3200   32.3350 C   0  0  0  0  0  0  0  0  0  0  0  0
   40.0030   27.0140   32.6280 C   0  0  0  0  0  0  0  0  0  0  0  0
   40.3920   27.2390   33.9480 C   0  0  0  0  0  0  0  0  0  0  0  0
   39.5920   26.7390   34.9720 C   0  0  0  0  0  0  0  0  0  0  0  0
   38.4440   26.0380   34.6590 C   0  0  0  0  0  0  0  0  0  0  0  0
   40.5840   27.3780   31.7840 H   0  0  0  0  0  0  0  0  0  0  0  0
   41.3000   27.7940   34.1390 H   0  0  0  0  0  0  0  0  0  0  0  0
   39.8790   26.9040   36.0100 H   0  0  0  0  0  0  0  0  0  0  0  0
   37.7010   25.5720   35.7220 O   0  0  0  0  0  0  0  0  0  0  0  0
   38.2810   24.6030   36.5670 C   0  0  0  0  0  0  0  0  0  0  0  0
   39.2180   23.7650   35.9250 C   0  0  0  0  0  0  0  0  0  0  0  0
   39.5920   23.6980   34.9290 H   0  0  0  0  0  0  0  0  0  0  0  0
   39.7700   22.6480   37.2680 S   0  0  0  0  0  0  0  0  0  0  0  0
   38.6100   23.5290   38.4980 C   0  0  0  0  0  0  0  0  0  0  0  0
   38.2290   23.5510   39.6440 H   0  0  0  0  0  0  0  0  0  0  0  0
   38.1320   24.3110   37.8450 N   0  0  0  0  0  0  0  0  0  0  0  0
  1  7  1  0  0  0  0
  2  1  1  0  0  0  0
  2  9  1  0  0  0  0
  3  2  2  0  0  0  0
  4  5  2  0  0  0  0
  4  3  1  0  0  0  0
  5  6  1  0  0  0  0
  6  1  2  0  0  0  0
  8  3  1  0  0  0  0
  9 10  1  0  0  0  0
 10 11  2  0  0  0  0
 10 15  1  0  0  0  0
 11 12  1  0  0  0  0
 12 17  1  0  0  0  0
 12 13  2  0  0  0  0
 13 18  1  0  0  0  0
 14 13  1  0  0  0  0
 14 19  1  0  0  0  0
 15 14  2  0  0  0  0
 16 11  1  0  0  0  0
 19 21  1  0  0  0  0
 19 20  1  0  0  0  0
 22 19  1  0  0  0  0
 23 24  1  0  0  0  0
 23  5  1  0  0  0  0
 24 25  1  0  0  0  0
 24 29  1  0  0  0  0
 26 24  1  0  0  0  0
 27 28  1  0  0  0  0
 28 33  1  0  0  0  0
 29 30  1  0  0  0  0
 29 28  2  0  0  0  0
 30 31  2  0  0  0  0
 31 35  1  0  0  0  0
 31 32  1  0  0  0  0
 32 36  1  0  0  0  0
 33 32  2  0  0  0  0
 33 37  1  0  0  0  0
 34 30  1  0  0  0  0
 37 38  1  0  0  0  0
 38 44  1  0  0  0  0
 39 38  2  0  0  0  0
 39 41  1  0  0  0  0
 40 39  1  0  0  0  0
 41 42  1  0  0  0  0
 42 43  1  0  0  0  0
 44 42  2  0  0  0  0
M  END
>  <minimizedAffinity>
-5.95270109

$$$$

 OpenBabel03262522293D

 44 47  0  0  0  0  0  0  0  0999 V2000
   37.5970   25.1190   30.9780 C   0  0  0  0  0  0  0  0  0  0  0  0
   36.5590   26.0470   31.0780 C   0  0  0  0  0  0  0  0  0  0  0  0
   35.2840   25.5590   31.1970 C   0  0  0  0  0  0  0  0  0  0  0  0
   35.1070   24.2100   31.2090 N   0  0  0  0  0  0  0  0  0  0  0  0
   36.0980   23.3690   31.1140 C   0  0  0  0  0  0  0  0  0  0  0  0
   37.4000   23.7940   30.9930 N   0  0  0  0  0  0  0  0  0  0  0  0
   38.6590   25.3640   30.8780 H   0  0  0  0  0  0  0  0  0  0  0  0
   34.4490   26.2510   31.2770 H   0  0  0  0  0  0  0  0  0  0  0  0
   36.8790   27.3610   31.0500 O   0  0  0  0  0  0  0  0  0  0  0  0
   36.3680   28.2080   32.0270 C   0  0  0  0  0  0  0  0  0  0  0  0
   36.4990   28.1020   33.4040 C   0  0  0  0  0  0  0  0  0  0  0  0
   35.9240   29.0330   34.1870 C   0  0  0  0  0  0  0  0  0  0  0  0
   35.2280   30.0560   33.6060 C   0  0  0  0  0  0  0  0  0  0  0  0
   35.1030   30.1530   32.2130 C   0  0  0  0  0  0  0  0  0  0  0  0
   35.6910   29.2030   31.4610 N   0  0  0  0  0  0  0  0  0  0  0  0
   37.0790   27.2350   33.7070 H   0  0  0  0  0  0  0  0  0  0  0  0
   36.0490   28.9140   35.2620 H   0  0  0  0  0  0  0  0  0  0  0  0
   34.7650   30.8060   34.2350 H   0  0  0  0  0  0  0  0  0  0  0  0
   34.3240   31.3010   31.6070 C   0  0  0  0  0  0  0  0  0  0  0  0
   33.3080   31.3770   32.0360 H   0  0  0  0  0  0  0  0  0  0  0  0
   34.8630   32.2130   31.9160 H   0  0  0  0  0  0  0  0  0  0  0  0
   34.3330   31.1250   30.5180 H   0  0  0  0  0  0  0  0  0  0  0  0
   35.5560   21.6380   31.1620 S   0  0  0  0  0  0  0  0  0  0  0  0
   36.9190   20.7630   31.9860 C   0  0  0  0  0  0  0  0  0  0  0  0
   36.7550   19.6850   31.8310 H   0  0  0  0  0  0  0  0  0  0  0  0
   37.8640   21.1380   31.5670 H   0  0  0  0  0  0  0  0  0  0  0  0
   38.9650   22.1430   33.2130 F   0  0  0  0  0  0  0  0  0  0  0  0
   37.8860   21.7490   33.9630 C   0  0  0  0  0  0  0  0  0  0  0  0
   36.7960   21.0490   33.4500 C   0  0  0  0  0  0  0  0  0  0  0  0
   35.7560   20.6890   34.2530 C   0  0  0  0  0  0  0  0  0  0  0  0
   35.7470   21.0100   35.6110 C   0  0  0  0  0  0  0  0  0  0  0  0
   36.8310   21.7100   36.1360 C   0  0  0  0  0  0  0  0  0  0  0  0
   37.8780   22.0660   35.3080 C   0  0  0  0  0  0  0  0  0  0  0  0
   34.9410   20.1450   33.7830 H   0  0  0  0  0  0  0  0  0  0  0  0
   34.9040   20.7060   36.2150 H   0  0  0  0  0  0  0  0  0  0  0  0
   36.8430   21.9700   37.1930 H   0  0  0  0  0  0  0  0  0  0  0  0
   38.9150   22.7580   35.8960 O   0  0  0  0  0  0  0  0  0  0  0  0
   38.9270   24.1640   35.7850 C   0  0  0  0  0  0  0  0  0  0  0  0
   39.9920   24.6710   35.0090 C   0  0  0  0  0  0  0  0  0  0  0  0
   40.8010   24.2240   34.4800 H   0  0  0  0  0  0  0  0  0  0  0  0
   39.7230   26.4820   35.0650 S   0  0  0  0  0  0  0  0  0  0  0  0
   38.1780   26.2350   36.1550 C   0  0  0  0  0  0  0  0  0  0  0  0
   37.2840   26.8060   36.7340 H   0  0  0  0  0  0  0  0  0  0  0  0
   38.1460   25.1160   36.2590 N   0  0  0  0  0  0  0  0  0  0  0  0
  1  6  2  0  0  0  0
  1  2  1  0  0  0  0
  2  3  2  0  0  0  0
  3  4  1  0  0  0  0
  3  8  1  0  0  0  0
  5 23  1  0  0  0  0
  5  4  2  0  0  0  0
  6  5  1  0  0  0  0
  7  1  1  0  0  0  0
  9  2  1  0  0  0  0
  9 10  1  0  0  0  0
 10 11  1  0  0  0  0
 11 16  1  0  0  0  0
 11 12  2  0  0  0  0
 12 17  1  0  0  0  0
 13 12  1  0  0  0  0
 13 18  1  0  0  0  0
 14 13  2  0  0  0  0
 15 10  2  0  0  0  0
 15 14  1  0  0  0  0
 19 21  1  0  0  0  0
 19 20  1  0  0  0  0
 19 14  1  0  0  0  0
 22 19  1  0  0  0  0
 23 24  1  0  0  0  0
 24 29  1  0  0  0  0
 25 24  1  0  0  0  0
 26 24  1  0  0  0  0
 27 28  1  0  0  0  0
 28 33  1  0  0  0  0
 29 28  2  0  0  0  0
 29 30  1  0  0  0  0
 30 31  2  0  0  0  0
 31 32  1  0  0  0  0
 31 35  1  0  0  0  0
 32 36  1  0  0  0  0
 33 37  1  0  0  0  0
 33 32  2  0  0  0  0
 34 30  1  0  0  0  0
 38 37  1  0  0  0  0
 38 44  1  0  0  0  0
 39 41  1  0  0  0  0
 39 38  2  0  0  0  0
 40 39  1  0  0  0  0
 41 42  1  0  0  0  0
 42 44  2  0  0  0  0
 42 43  1  0  0  0  0
M  END
>  <minimizedAffinity>
-5.78441906

$$$$

 OpenBabel03262522293D

 44 47  0  0  0  0  0  0  0  0999 V2000
   36.9400   24.7780   32.7550 C   0  0  0  0  0  0  0  0  0  0  0  0
   38.1320   24.6430   33.4690 C   0  0  0  0  0  0  0  0  0  0  0  0
   39.0000   25.7040   33.4610 C   0  0  0  0  0  0  0  0  0  0  0  0
   38.6490   26.8180   32.7620 N   0  0  0  0  0  0  0  0  0  0  0  0
   37.5280   26.9140   32.1050 C   0  0  0  0  0  0  0  0  0  0  0  0
   36.6170   25.8850   32.0740 N   0  0  0  0  0  0  0  0  0  0  0  0
   36.1600   24.0160   32.6740 H   0  0  0  0  0  0  0  0  0  0  0  0
   39.9380   25.6350   34.0060 H   0  0  0  0  0  0  0  0  0  0  0  0
   38.3520   23.4770   34.1190 O   0  0  0  0  0  0  0  0  0  0  0  0
   38.5310   23.4870   35.4990 C   0  0  0  0  0  0  0  0  0  0  0  0
   37.7750   24.1520   36.4520 C   0  0  0  0  0  0  0  0  0  0  0  0
   38.1140   24.0350   37.7490 C   0  0  0  0  0  0  0  0  0  0  0  0
   39.1900   23.2650   38.0910 C   0  0  0  0  0  0  0  0  0  0  0  0
   39.9460   22.5970   37.1170 C   0  0  0  0  0  0  0  0  0  0  0  0
   39.5780   22.7380   35.8290 N   0  0  0  0  0  0  0  0  0  0  0  0
   36.9560   24.7210   36.0210 H   0  0  0  0  0  0  0  0  0  0  0  0
   37.4970   24.5720   38.4680 H   0  0  0  0  0  0  0  0  0  0  0  0
   39.4640   23.1700   39.1340 H   0  0  0  0  0  0  0  0  0  0  0  0
   41.1320   21.7530   37.5350 C   0  0  0  0  0  0  0  0  0  0  0  0
   41.8370   22.3240   38.1660 H   0  0  0  0  0  0  0  0  0  0  0  0
   40.7120   20.9580   38.1740 H   0  0  0  0  0  0  0  0  0  0  0  0
   41.5780   21.3810   36.5970 H   0  0  0  0  0  0  0  0  0  0  0  0
   37.3380   28.5160   31.2740 S   0  0  0  0  0  0  0  0  0  0  0  0
   35.6680   29.0650   31.7350 C   0  0  0  0  0  0  0  0  0  0  0  0
   35.1260   29.2810   30.8000 H   0  0  0  0  0  0  0  0  0  0  0  0
   35.2090   28.2750   32.3470 H   0  0  0  0  0  0  0  0  0  0  0  0
   35.1970   29.0360   34.4500 F   0  0  0  0  0  0  0  0  0  0  0  0
   35.5620   30.2150   33.8520 C   0  0  0  0  0  0  0  0  0  0  0  0
   35.8260   30.3470   32.4910 C   0  0  0  0  0  0  0  0  0  0  0  0
   36.1860   31.5510   31.9620 C   0  0  0  0  0  0  0  0  0  0  0  0
   36.3030   32.6860   32.7650 C   0  0  0  0  0  0  0  0  0  0  0  0
   36.0420   32.5670   34.1280 C   0  0  0  0  0  0  0  0  0  0  0  0
   35.6780   31.3390   34.6470 C   0  0  0  0  0  0  0  0  0  0  0  0
   36.3750   31.5780   30.8930 H   0  0  0  0  0  0  0  0  0  0  0  0
   36.5890   33.6230   32.3090 H   0  0  0  0  0  0  0  0  0  0  0  0
   36.1280   33.4410   34.7710 H   0  0  0  0  0  0  0  0  0  0  0  0
   35.4360   31.2960   36.0030 O   0  0  0  0  0  0  0  0  0  0  0  0
   34.4610   32.1650   36.5360 C   0  0  0  0  0  0  0  0  0  0  0  0
   33.1380   31.8440   36.1620 C   0  0  0  0  0  0  0  0  0  0  0  0
   32.7030   31.0810   35.5580 H   0  0  0  0  0  0  0  0  0  0  0  0
   32.1430   33.1330   36.9990 S   0  0  0  0  0  0  0  0  0  0  0  0
   33.7270   33.9040   37.7300 C   0  0  0  0  0  0  0  0  0  0  0  0
   34.1550   34.7940   38.4260 H   0  0  0  0  0  0  0  0  0  0  0  0
   34.5240   33.2250   37.3180 N   0  0  0  0  0  0  0  0  0  0  0  0
  1  2  1  0  0  0  0
  2  9  1  0  0  0  0
  3  2  2  0  0  0  0
  3  8  1  0  0  0  0
  4  3  1  0  0  0  0
  5  4  2  0  0  0  0
  6  5  1  0  0  0  0
  6  1  2  0  0  0  0
  7  1  1  0  0  0  0
  9 10  1  0  0  0  0
 10 15  2  0  0  0  0
 10 11  1  0  0  0  0
 11 12  2  0  0  0  0
 12 13  1  0  0  0  0
 12 17  1  0  0  0  0
 13 18  1  0  0  0  0
 14 19  1  0  0  0  0
 14 13  2  0  0  0  0
 15 14  1  0  0  0  0
 16 11  1  0  0  0  0
 19 20  1  0  0  0  0
 19 21  1  0  0  0  0
 22 19  1  0  0  0  0
 23 24  1  0  0  0  0
 23  5  1  0  0  0  0
 24 26  1  0  0  0  0
 24 29  1  0  0  0  0
 25 24  1  0  0  0  0
 28 27  1  0  0  0  0
 28 33  1  0  0  0  0
 29 28  2  0  0  0  0
 30 29  1  0  0  0  0
 30 31  2  0  0  0  0
 31 32  1  0  0  0  0
 32 33  2  0  0  0  0
 32 36  1  0  0  0  0
 33 37  1  0  0  0  0
 34 30  1  0  0  0  0
 35 31  1  0  0  0  0
 37 38  1  0  0  0  0
 38 44  1  0  0  0  0
 39 38  2  0  0  0  0
 39 41  1  0  0  0  0
 40 39  1  0  0  0  0
 41 42  1  0  0  0  0
 42 43  1  0  0  0  0
 44 42  2  0  0  0  0
M  END
>  <minimizedAffinity>
-5.76942301

$$$$

 OpenBabel03262522293D

 44 47  0  0  0  0  0  0  0  0999 V2000
   37.6360   23.0550   32.8660 C   0  0  0  0  0  0  0  0  0  0  0  0
   36.8240   23.1110   31.7330 C   0  0  0  0  0  0  0  0  0  0  0  0
   37.2590   23.8720   30.6790 C   0  0  0  0  0  0  0  0  0  0  0  0
   38.4480   24.5230   30.8010 N   0  0  0  0  0  0  0  0  0  0  0  0
   39.1840   24.4500   31.8730 C   0  0  0  0  0  0  0  0  0  0  0  0
   38.8040   23.7050   32.9640 N   0  0  0  0  0  0  0  0  0  0  0  0
   37.4160   22.4910   33.7770 H   0  0  0  0  0  0  0  0  0  0  0  0
   36.6530   23.9400   29.7790 H   0  0  0  0  0  0  0  0  0  0  0  0
   35.6650   22.4140   31.7490 O   0  0  0  0  0  0  0  0  0  0  0  0
   35.7020   21.0300   31.8790 C   0  0  0  0  0  0  0  0  0  0  0  0
   35.3190   20.2640   32.9690 C   0  0  0  0  0  0  0  0  0  0  0  0
   35.4340   18.9250   32.8980 C   0  0  0  0  0  0  0  0  0  0  0  0
   35.9250   18.3570   31.7560 C   0  0  0  0  0  0  0  0  0  0  0  0
   36.3100   19.1430   30.6600 C   0  0  0  0  0  0  0  0  0  0  0  0
   36.1810   20.4800   30.7670 N   0  0  0  0  0  0  0  0  0  0  0  0
   34.9510   20.8630   33.7980 H   0  0  0  0  0  0  0  0  0  0  0  0
   35.1220   18.3590   33.7750 H   0  0  0  0  0  0  0  0  0  0  0  0
   36.0190   17.2810   31.6970 H   0  0  0  0  0  0  0  0  0  0  0  0
   36.8500   18.4770   29.4120 C   0  0  0  0  0  0  0  0  0  0  0  0
   37.6900   17.7980   29.6420 H   0  0  0  0  0  0  0  0  0  0  0  0
   36.0260   17.8430   29.0410 H   0  0  0  0  0  0  0  0  0  0  0  0
   37.1200   19.3000   28.7280 H   0  0  0  0  0  0  0  0  0  0  0  0
   40.7120   25.4220   31.7420 S   0  0  0  0  0  0  0  0  0  0  0  0
   40.1670   27.1430   31.9500 C   0  0  0  0  0  0  0  0  0  0  0  0
   41.0740   27.7610   32.0530 H   0  0  0  0  0  0  0  0  0  0  0  0
   39.5410   27.4070   31.0850 H   0  0  0  0  0  0  0  0  0  0  0  0
   37.5060   27.8550   31.8530 F   0  0  0  0  0  0  0  0  0  0  0  0
   38.0760   27.5760   33.0700 C   0  0  0  0  0  0  0  0  0  0  0  0
   39.4090   27.2060   33.2390 C   0  0  0  0  0  0  0  0  0  0  0  0
   39.9090   26.9430   34.4780 C   0  0  0  0  0  0  0  0  0  0  0  0
   39.1070   27.0340   35.6150 C   0  0  0  0  0  0  0  0  0  0  0  0
   37.7720   27.4020   35.4610 C   0  0  0  0  0  0  0  0  0  0  0  0
   37.2810   27.6660   34.1970 C   0  0  0  0  0  0  0  0  0  0  0  0
   40.9570   26.6610   34.5320 H   0  0  0  0  0  0  0  0  0  0  0  0
   39.5400   26.8180   36.5810 H   0  0  0  0  0  0  0  0  0  0  0  0
   37.1300   27.4790   36.3360 H   0  0  0  0  0  0  0  0  0  0  0  0
   35.9520   28.0240   34.1190 O   0  0  0  0  0  0  0  0  0  0  0  0
   35.5920   29.3360   34.4920 C   0  0  0  0  0  0  0  0  0  0  0  0
   34.3520   29.7630   33.9670 C   0  0  0  0  0  0  0  0  0  0  0  0
   33.6160   29.3110   33.3440 H   0  0  0  0  0  0  0  0  0  0  0  0
   34.1850   31.4650   34.6240 S   0  0  0  0  0  0  0  0  0  0  0  0
   35.8620   31.3020   35.5170 C   0  0  0  0  0  0  0  0  0  0  0  0
   36.6560   31.8730   36.2270 H   0  0  0  0  0  0  0  0  0  0  0  0
   36.1730   30.2590   35.2340 N   0  0  0  0  0  0  0  0  0  0  0  0
  1  6  1  0  0  0  0
  1  7  1  0  0  0  0
  2  9  1  0  0  0  0
  2  1  2  0  0  0  0
  3  4  2  0  0  0  0
  3  2  1  0  0  0  0
  4  5  1  0  0  0  0
  5  6  2  0  0  0  0
  8  3  1  0  0  0  0
  9 10  1  0  0  0  0
 10 11  1  0  0  0  0
 11 16  1  0  0  0  0
 12 11  2  0  0  0  0
 12 17  1  0  0  0  0
 13 12  1  0  0  0  0
 14 15  1  0  0  0  0
 14 13  2  0  0  0  0
 15 10  2  0  0  0  0
 18 13  1  0  0  0  0
 19 20  1  0  0  0  0
 19 14  1  0  0  0  0
 21 19  1  0  0  0  0
 22 19  1  0  0  0  0
 23  5  1  0  0  0  0
 23 24  1  0  0  0  0
 24 25  1  0  0  0  0
 24 29  1  0  0  0  0
 26 24  1  0  0  0  0
 27 28  1  0  0  0  0
 28 29  2  0  0  0  0
 28 33  1  0  0  0  0
 29 30  1  0  0  0  0
 30 34  1  0  0  0  0
 30 31  2  0  0  0  0
 31 35  1  0  0  0  0
 32 31  1  0  0  0  0
 32 36  1  0  0  0  0
 33 32  2  0  0  0  0
 37 33  1  0  0  0  0
 37 38  1  0  0  0  0
 38 44  1  0  0  0  0
 39 38  2  0  0  0  0
 39 41  1  0  0  0  0
 40 39  1  0  0  0  0
 41 42  1  0  0  0  0
 42 43  1  0  0  0  0
 44 42  2  0  0  0  0
M  END
>  <minimizedAffinity>
-5.72750139

$$$$

 OpenBabel03262522293D

 44 47  0  0  0  0  0  0  0  0999 V2000
   36.3760   25.1220   31.3480 C   0  0  0  0  0  0  0  0  0  0  0  0
   37.0980   24.0100   31.7830 C   0  0  0  0  0  0  0  0  0  0  0  0
   37.7280   24.1000   32.9970 C   0  0  0  0  0  0  0  0  0  0  0  0
   37.6120   25.2600   33.6990 N   0  0  0  0  0  0  0  0  0  0  0  0
   36.9290   26.2810   33.2650 C   0  0  0  0  0  0  0  0  0  0  0  0
   36.2750   26.2540   32.0570 N   0  0  0  0  0  0  0  0  0  0  0  0
   35.8260   25.1910   30.4040 H   0  0  0  0  0  0  0  0  0  0  0  0
   38.3010   23.2540   33.3690 H   0  0  0  0  0  0  0  0  0  0  0  0
   37.1300   22.9210   30.9810 O   0  0  0  0  0  0  0  0  0  0  0  0
   36.5190   21.7450   31.4010 C   0  0  0  0  0  0  0  0  0  0  0  0
   35.2200   21.5740   31.8550 C   0  0  0  0  0  0  0  0  0  0  0  0
   34.8140   20.3430   32.2200 C   0  0  0  0  0  0  0  0  0  0  0  0
   35.6920   19.2980   32.1330 C   0  0  0  0  0  0  0  0  0  0  0  0
   37.0030   19.4850   31.6740 C   0  0  0  0  0  0  0  0  0  0  0  0
   37.3740   20.7310   31.3170 N   0  0  0  0  0  0  0  0  0  0  0  0
   34.6490   22.4980   31.8650 H   0  0  0  0  0  0  0  0  0  0  0  0
   33.7870   20.2490   32.5700 H   0  0  0  0  0  0  0  0  0  0  0  0
   35.3670   18.3090   32.4260 H   0  0  0  0  0  0  0  0  0  0  0  0
   37.9460   18.3030   31.5920 C   0  0  0  0  0  0  0  0  0  0  0  0
   38.0070   17.7630   32.5540 H   0  0  0  0  0  0  0  0  0  0  0  0
   37.4800   17.6080   30.8720 H   0  0  0  0  0  0  0  0  0  0  0  0
   38.9110   18.7150   31.2530 H   0  0  0  0  0  0  0  0  0  0  0  0
   36.9550   27.6830   34.4180 S   0  0  0  0  0  0  0  0  0  0  0  0
   36.2520   29.0600   33.4640 C   0  0  0  0  0  0  0  0  0  0  0  0
   37.0970   29.6510   33.0740 H   0  0  0  0  0  0  0  0  0  0  0  0
   35.6040   28.6370   32.6840 H   0  0  0  0  0  0  0  0  0  0  0  0
   33.5000   28.9090   33.4400 F   0  0  0  0  0  0  0  0  0  0  0  0
   34.1120   29.7570   34.3280 C   0  0  0  0  0  0  0  0  0  0  0  0
   35.4920   29.9150   34.4300 C   0  0  0  0  0  0  0  0  0  0  0  0
   36.0320   30.7760   35.3370 C   0  0  0  0  0  0  0  0  0  0  0  0
   35.2240   31.5250   36.1920 C   0  0  0  0  0  0  0  0  0  0  0  0
   33.8420   31.3770   36.1010 C   0  0  0  0  0  0  0  0  0  0  0  0
   33.3100   30.5000   35.1750 C   0  0  0  0  0  0  0  0  0  0  0  0
   37.1170   30.8470   35.3590 H   0  0  0  0  0  0  0  0  0  0  0  0
   35.6900   32.1990   36.8970 H   0  0  0  0  0  0  0  0  0  0  0  0
   33.1940   31.9530   36.7590 H   0  0  0  0  0  0  0  0  0  0  0  0
   31.9360   30.4040   35.1420 O   0  0  0  0  0  0  0  0  0  0  0  0
   31.3170   29.4080   35.9250 C   0  0  0  0  0  0  0  0  0  0  0  0
   30.1830   29.8570   36.6360 C   0  0  0  0  0  0  0  0  0  0  0  0
   29.6810   30.7940   36.7160 H   0  0  0  0  0  0  0  0  0  0  0  0
   29.6300   28.3580   37.5310 S   0  0  0  0  0  0  0  0  0  0  0  0
   31.0640   27.3560   36.7700 C   0  0  0  0  0  0  0  0  0  0  0  0
   31.5840   26.2670   36.7250 H   0  0  0  0  0  0  0  0  0  0  0  0
   31.5760   28.1320   36.1370 N   0  0  0  0  0  0  0  0  0  0  0  0
  1  2  2  0  0  0  0
  1  6  1  0  0  0  0
  2  3  1  0  0  0  0
  3  8  1  0  0  0  0
  3  4  2  0  0  0  0
  5  4  1  0  0  0  0
  5 23  1  0  0  0  0
  6  5  2  0  0  0  0
  7  1  1  0  0  0  0
  9 10  1  0  0  0  0
  9  2  1  0  0  0  0
 10 11  1  0  0  0  0
 11 16  1  0  0  0  0
 11 12  2  0  0  0  0
 12 17  1  0  0  0  0
 13 12  1  0  0  0  0
 13 18  1  0  0  0  0
 14 13  2  0  0  0  0
 15 10  2  0  0  0  0
 15 14  1  0  0  0  0
 19 14  1  0  0  0  0
 19 20  1  0  0  0  0
 21 19  1  0  0  0  0
 22 19  1  0  0  0  0
 24 23  1  0  0  0  0
 24 29  1  0  0  0  0
 25 24  1  0  0  0  0
 26 24  1  0  0  0  0
 27 28  1  0  0  0  0
 28 29  2  0  0  0  0
 28 33  1  0  0  0  0
 29 30  1  0  0  0  0
 30 34  1  0  0  0  0
 30 31  2  0  0  0  0
 31 35  1  0  0  0  0
 32 31  1  0  0  0  0
 32 36  1  0  0  0  0
 33 32  2  0  0  0  0
 37 33  1  0  0  0  0
 37 38  1  0  0  0  0
 38 44  1  0  0  0  0
 38 39  2  0  0  0  0
 39 40  1  0  0  0  0
 39 41  1  0  0  0  0
 42 41  1  0  0  0  0
 43 42  1  0  0  0  0
 44 42  2  0  0  0  0
M  END
>  <minimizedAffinity>
-5.70139647

$$$$

 OpenBabel03262522293D

 44 47  0  0  0  0  0  0  0  0999 V2000
   39.1990   25.0290   33.7940 C   0  0  0  0  0  0  0  0  0  0  0  0
   38.0530   24.2480   33.6310 C   0  0  0  0  0  0  0  0  0  0  0  0
   37.1730   24.6130   32.6460 C   0  0  0  0  0  0  0  0  0  0  0  0
   37.4680   25.7060   31.8910 N   0  0  0  0  0  0  0  0  0  0  0  0
   38.5470   26.4150   32.0670 C   0  0  0  0  0  0  0  0  0  0  0  0
   39.4680   26.1010   33.0380 N   0  0  0  0  0  0  0  0  0  0  0  0
   39.9840   24.8560   34.5370 H   0  0  0  0  0  0  0  0  0  0  0  0
   36.2700   24.0290   32.4890 H   0  0  0  0  0  0  0  0  0  0  0  0
   37.8870   23.1880   34.4540 O   0  0  0  0  0  0  0  0  0  0  0  0
   38.2570   23.2970   35.7910 C   0  0  0  0  0  0  0  0  0  0  0  0
   37.6250   24.0140   36.7960 C   0  0  0  0  0  0  0  0  0  0  0  0
   38.1450   23.9930   38.0370 C   0  0  0  0  0  0  0  0  0  0  0  0
   39.2790   23.2660   38.2730 C   0  0  0  0  0  0  0  0  0  0  0  0
   39.9080   22.5450   37.2480 C   0  0  0  0  0  0  0  0  0  0  0  0
   39.3590   22.5900   36.0190 N   0  0  0  0  0  0  0  0  0  0  0  0
   36.7390   24.5380   36.4480 H   0  0  0  0  0  0  0  0  0  0  0  0
   37.6210   24.5680   38.7980 H   0  0  0  0  0  0  0  0  0  0  0  0
   39.6980   23.2480   39.2710 H   0  0  0  0  0  0  0  0  0  0  0  0
   41.1620   21.7520   37.5490 C   0  0  0  0  0  0  0  0  0  0  0  0
   41.9330   22.3770   38.0350 H   0  0  0  0  0  0  0  0  0  0  0  0
   40.8570   20.9960   38.2930 H   0  0  0  0  0  0  0  0  0  0  0  0
   41.4820   21.3230   36.5840 H   0  0  0  0  0  0  0  0  0  0  0  0
   38.6670   27.8090   30.9110 S   0  0  0  0  0  0  0  0  0  0  0  0
   37.0100   27.9250   30.1750 C   0  0  0  0  0  0  0  0  0  0  0  0
   37.1370   27.9020   29.0810 H   0  0  0  0  0  0  0  0  0  0  0  0
   36.4030   27.0980   30.5730 H   0  0  0  0  0  0  0  0  0  0  0  0
   35.2360   28.0480   32.2810 F   0  0  0  0  0  0  0  0  0  0  0  0
   35.5740   29.2060   31.6290 C   0  0  0  0  0  0  0  0  0  0  0  0
   36.4590   29.2640   30.5540 C   0  0  0  0  0  0  0  0  0  0  0  0
   36.7500   30.4510   29.9520 C   0  0  0  0  0  0  0  0  0  0  0  0
   36.1750   31.6440   30.3900 C   0  0  0  0  0  0  0  0  0  0  0  0
   35.2890   31.6000   31.4640 C   0  0  0  0  0  0  0  0  0  0  0  0
   35.0040   30.3880   32.0630 C   0  0  0  0  0  0  0  0  0  0  0  0
   37.4480   30.4180   29.1190 H   0  0  0  0  0  0  0  0  0  0  0  0
   36.4310   32.5650   29.8860 H   0  0  0  0  0  0  0  0  0  0  0  0
   34.8300   32.5200   31.8210 H   0  0  0  0  0  0  0  0  0  0  0  0
   34.1200   30.4200   33.1200 O   0  0  0  0  0  0  0  0  0  0  0  0
   34.5760   30.9220   34.3560 C   0  0  0  0  0  0  0  0  0  0  0  0
   33.5730   31.5470   35.1290 C   0  0  0  0  0  0  0  0  0  0  0  0
   32.5330   31.7280   34.9860 H   0  0  0  0  0  0  0  0  0  0  0  0
   34.4730   32.0750   36.6340 S   0  0  0  0  0  0  0  0  0  0  0  0
   36.0920   31.3410   35.9430 C   0  0  0  0  0  0  0  0  0  0  0  0
   37.2660   31.1680   36.1680 H   0  0  0  0  0  0  0  0  0  0  0  0
   35.7540   30.9320   34.9510 N   0  0  0  0  0  0  0  0  0  0  0  0
  1  7  1  0  0  0  0
  2  1  1  0  0  0  0
  2  9  1  0  0  0  0
  3  2  2  0  0  0  0
  4  5  2  0  0  0  0
  4  3  1  0  0  0  0
  5  6  1  0  0  0  0
  6  1  2  0  0  0  0
  8  3  1  0  0  0  0
  9 10  1  0  0  0  0
 10 15  2  0  0  0  0
 10 11  1  0  0  0  0
 11 12  2  0  0  0  0
 12 13  1  0  0  0  0
 12 17  1  0  0  0  0
 13 18  1  0  0  0  0
 14 19  1  0  0  0  0
 14 13  2  0  0  0  0
 15 14  1  0  0  0  0
 16 11  1  0  0  0  0
 19 20  1  0  0  0  0
 19 21  1  0  0  0  0
 22 19  1  0  0  0  0
 23  5  1  0  0  0  0
 24 29  1  0  0  0  0
 24 26  1  0  0  0  0
 24 23  1  0  0  0  0
 25 24  1  0  0  0  0
 28 33  1  0  0  0  0
 28 27  1  0  0  0  0
 29 28  2  0  0  0  0
 30 31  2  0  0  0  0
 30 29  1  0  0  0  0
 31 32  1  0  0  0  0
 32 36  1  0  0  0  0
 32 33  2  0  0  0  0
 33 37  1  0  0  0  0
 34 30  1  0  0  0  0
 35 31  1  0  0  0  0
 37 38  1  0  0  0  0
 38 44  1  0  0  0  0
 38 39  2  0  0  0  0
 39 41  1  0  0  0  0
 40 39  1  0  0  0  0
 42 43  1  0  0  0  0
 42 41  1  0  0  0  0
 44 42  2  0  0  0  0
M  END
>  <minimizedAffinity>
-5.66958189

$$$$

 OpenBabel03262522293D

 44 47  0  0  0  0  0  0  0  0999 V2000
   35.6650   24.9850   31.4970 C   0  0  0  0  0  0  0  0  0  0  0  0
   36.9260   25.4390   31.1090 C   0  0  0  0  0  0  0  0  0  0  0  0
   37.8460   24.5000   30.7220 C   0  0  0  0  0  0  0  0  0  0  0  0
   37.4770   23.1900   30.7410 N   0  0  0  0  0  0  0  0  0  0  0  0
   36.2900   22.7970   31.1090 C   0  0  0  0  0  0  0  0  0  0  0  0
   35.3230   23.6900   31.5070 N   0  0  0  0  0  0  0  0  0  0  0  0
   34.8370   25.6190   31.8280 H   0  0  0  0  0  0  0  0  0  0  0  0
   38.8390   24.8150   30.4140 H   0  0  0  0  0  0  0  0  0  0  0  0
   37.1570   26.7710   31.1410 O   0  0  0  0  0  0  0  0  0  0  0  0
   36.8000   27.5000   32.2710 C   0  0  0  0  0  0  0  0  0  0  0  0
   35.8470   28.5010   32.3750 C   0  0  0  0  0  0  0  0  0  0  0  0
   35.6480   29.0900   33.5680 C   0  0  0  0  0  0  0  0  0  0  0  0
   36.3900   28.6860   34.6430 C   0  0  0  0  0  0  0  0  0  0  0  0
   37.3510   27.6720   34.5250 C   0  0  0  0  0  0  0  0  0  0  0  0
   37.5230   27.1060   33.3150 N   0  0  0  0  0  0  0  0  0  0  0  0
   35.3440   28.7060   31.4330 H   0  0  0  0  0  0  0  0  0  0  0  0
   34.8910   29.8720   33.6090 H   0  0  0  0  0  0  0  0  0  0  0  0
   36.2310   29.1590   35.6040 H   0  0  0  0  0  0  0  0  0  0  0  0
   38.1530   27.2520   35.7390 C   0  0  0  0  0  0  0  0  0  0  0  0
   38.6420   28.1170   36.2230 H   0  0  0  0  0  0  0  0  0  0  0  0
   37.4110   26.8680   36.4590 H   0  0  0  0  0  0  0  0  0  0  0  0
   38.8610   26.4870   35.3780 H   0  0  0  0  0  0  0  0  0  0  0  0
   36.0910   20.9950   31.0280 S   0  0  0  0  0  0  0  0  0  0  0  0
   37.3760   20.3520   32.1410 C   0  0  0  0  0  0  0  0  0  0  0  0
   37.3020   19.2530   32.1230 H   0  0  0  0  0  0  0  0  0  0  0  0
   38.3460   20.7420   31.8000 H   0  0  0  0  0  0  0  0  0  0  0  0
   39.0050   22.2410   33.3140 F   0  0  0  0  0  0  0  0  0  0  0  0
   37.9210   21.7730   34.0120 C   0  0  0  0  0  0  0  0  0  0  0  0
   37.0300   20.8210   33.5200 C   0  0  0  0  0  0  0  0  0  0  0  0
   35.9730   20.4010   34.2690 C   0  0  0  0  0  0  0  0  0  0  0  0
   35.7470   20.9090   35.5480 C   0  0  0  0  0  0  0  0  0  0  0  0
   36.6290   21.8610   36.0520 C   0  0  0  0  0  0  0  0  0  0  0  0
   37.6970   22.2760   35.2800 C   0  0  0  0  0  0  0  0  0  0  0  0
   35.3210   19.6560   33.8200 H   0  0  0  0  0  0  0  0  0  0  0  0
   34.8970   20.5500   36.1120 H   0  0  0  0  0  0  0  0  0  0  0  0
   36.4700   22.2700   37.0480 H   0  0  0  0  0  0  0  0  0  0  0  0
   38.5290   23.2200   35.8410 O   0  0  0  0  0  0  0  0  0  0  0  0
   39.8300   22.8260   36.2150 C   0  0  0  0  0  0  0  0  0  0  0  0
   40.8490   23.6860   35.7470 C   0  0  0  0  0  0  0  0  0  0  0  0
   40.8550   24.5790   35.1650 H   0  0  0  0  0  0  0  0  0  0  0  0
   42.3780   22.9090   36.3890 S   0  0  0  0  0  0  0  0  0  0  0  0
   41.3520   21.5220   37.2010 C   0  0  0  0  0  0  0  0  0  0  0  0
   41.4150   20.5140   37.8630 H   0  0  0  0  0  0  0  0  0  0  0  0
   40.3040   21.8140   36.9160 N   0  0  0  0  0  0  0  0  0  0  0  0
  1  6  1  0  0  0  0
  1  7  1  0  0  0  0
  2  9  1  0  0  0  0
  2  1  2  0  0  0  0
  3  4  2  0  0  0  0
  3  2  1  0  0  0  0
  4  5  1  0  0  0  0
  5  6  2  0  0  0  0
  8  3  1  0  0  0  0
  9 10  1  0  0  0  0
 10 11  2  0  0  0  0
 10 15  1  0  0  0  0
 11 12  1  0  0  0  0
 12 17  1  0  0  0  0
 12 13  2  0  0  0  0
 13 18  1  0  0  0  0
 14 13  1  0  0  0  0
 14 19  1  0  0  0  0
 15 14  2  0  0  0  0
 16 11  1  0  0  0  0
 19 20  1  0  0  0  0
 19 21  1  0  0  0  0
 22 19  1  0  0  0  0
 23  5  1  0  0  0  0
 23 24  1  0  0  0  0
 24 29  1  0  0  0  0
 25 24  1  0  0  0  0
 26 24  1  0  0  0  0
 27 28  1  0  0  0  0
 28 33  1  0  0  0  0
 29 28  2  0  0  0  0
 29 30  1  0  0  0  0
 30 31  2  0  0  0  0
 31 32  1  0  0  0  0
 31 35  1  0  0  0  0
 32 36  1  0  0  0  0
 33 37  1  0  0  0  0
 33 32  2  0  0  0  0
 34 30  1  0  0  0  0
 37 38  1  0  0  0  0
 38 44  1  0  0  0  0
 39 38  2  0  0  0  0
 39 41  1  0  0  0  0
 40 39  1  0  0  0  0
 41 42  1  0  0  0  0
 42 43  1  0  0  0  0
 44 42  2  0  0  0  0
M  END
>  <minimizedAffinity>
-5.66910648

$$$$

 OpenBabel03262522293D

 44 47  0  0  0  0  0  0  0  0999 V2000
   36.3570   28.5050   34.3630 C   0  0  0  0  0  0  0  0  0  0  0  0
   35.7920   29.7260   33.9910 C   0  0  0  0  0  0  0  0  0  0  0  0
   35.2840   29.8280   32.7230 C   0  0  0  0  0  0  0  0  0  0  0  0
   35.3600   28.7410   31.9080 N   0  0  0  0  0  0  0  0  0  0  0  0
   35.8930   27.6130   32.2850 C   0  0  0  0  0  0  0  0  0  0  0  0
   36.4200   27.4470   33.5440 N   0  0  0  0  0  0  0  0  0  0  0  0
   36.7980   28.2820   35.3390 H   0  0  0  0  0  0  0  0  0  0  0  0
   34.8370   30.7640   32.3970 H   0  0  0  0  0  0  0  0  0  0  0  0
   35.7850   30.7250   34.9030 O   0  0  0  0  0  0  0  0  0  0  0  0
   34.6040   31.0330   35.5690 C   0  0  0  0  0  0  0  0  0  0  0  0
   33.4060   30.3350   35.5500 C   0  0  0  0  0  0  0  0  0  0  0  0
   32.3680   30.8020   36.2690 C   0  0  0  0  0  0  0  0  0  0  0  0
   32.5230   31.9480   36.9980 C   0  0  0  0  0  0  0  0  0  0  0  0
   33.7400   32.6450   37.0080 C   0  0  0  0  0  0  0  0  0  0  0  0
   34.7560   32.1480   36.2770 N   0  0  0  0  0  0  0  0  0  0  0  0
   33.4440   29.4470   34.9250 H   0  0  0  0  0  0  0  0  0  0  0  0
   31.4450   30.2250   36.2280 H   0  0  0  0  0  0  0  0  0  0  0  0
   31.6890   32.3240   37.5760 H   0  0  0  0  0  0  0  0  0  0  0  0
   33.8720   33.9110   37.8280 C   0  0  0  0  0  0  0  0  0  0  0  0
   33.0770   34.6390   37.5850 H   0  0  0  0  0  0  0  0  0  0  0  0
   33.7040   33.6010   38.8730 H   0  0  0  0  0  0  0  0  0  0  0  0
   34.8910   34.2870   37.6330 H   0  0  0  0  0  0  0  0  0  0  0  0
   35.8490   26.3470   30.9860 S   0  0  0  0  0  0  0  0  0  0  0  0
   37.3650   25.3800   31.2510 C   0  0  0  0  0  0  0  0  0  0  0  0
   37.8240   25.2170   30.2630 H   0  0  0  0  0  0  0  0  0  0  0  0
   38.0020   25.9340   31.9550 H   0  0  0  0  0  0  0  0  0  0  0  0
   39.0060   24.1530   33.0940 F   0  0  0  0  0  0  0  0  0  0  0  0
   37.8470   23.5260   32.7160 C   0  0  0  0  0  0  0  0  0  0  0  0
   36.9420   24.0510   31.7950 C   0  0  0  0  0  0  0  0  0  0  0  0
   35.8080   23.3730   31.4650 C   0  0  0  0  0  0  0  0  0  0  0  0
   35.5140   22.1350   32.0370 C   0  0  0  0  0  0  0  0  0  0  0  0
   36.4090   21.5990   32.9590 C   0  0  0  0  0  0  0  0  0  0  0  0
   37.5560   22.2990   33.2830 C   0  0  0  0  0  0  0  0  0  0  0  0
   35.1500   23.8440   30.7390 H   0  0  0  0  0  0  0  0  0  0  0  0
   34.6040   21.6270   31.7490 H   0  0  0  0  0  0  0  0  0  0  0  0
   36.1980   20.6340   33.4170 H   0  0  0  0  0  0  0  0  0  0  0  0
   38.3950   21.7090   34.2020 O   0  0  0  0  0  0  0  0  0  0  0  0
   38.4480   22.2530   35.5030 C   0  0  0  0  0  0  0  0  0  0  0  0
   39.7370   22.2390   36.0810 C   0  0  0  0  0  0  0  0  0  0  0  0
   40.6930   21.9030   35.7510 H   0  0  0  0  0  0  0  0  0  0  0  0
   39.4650   22.9960   37.7260 S   0  0  0  0  0  0  0  0  0  0  0  0
   37.6100   23.2080   37.3400 C   0  0  0  0  0  0  0  0  0  0  0  0
   36.5560   23.6080   37.7750 H   0  0  0  0  0  0  0  0  0  0  0  0
   37.5400   22.7790   36.3020 N   0  0  0  0  0  0  0  0  0  0  0  0
  1  7  1  0  0  0  0
  2  1  1  0  0  0  0
  2  9  1  0  0  0  0
  3  2  2  0  0  0  0
  4  5  2  0  0  0  0
  4  3  1  0  0  0  0
  5  6  1  0  0  0  0
  6  1  2  0  0  0  0
  8  3  1  0  0  0  0
  9 10  1  0  0  0  0
 10 15  1  0  0  0  0
 11 10  2  0  0  0  0
 11 12  1  0  0  0  0
 12 13  2  0  0  0  0
 13 14  1  0  0  0  0
 13 18  1  0  0  0  0
 14 19  1  0  0  0  0
 15 14  2  0  0  0  0
 16 11  1  0  0  0  0
 17 12  1  0  0  0  0
 19 21  1  0  0  0  0
 20 19  1  0  0  0  0
 22 19  1  0  0  0  0
 23 24  1  0  0  0  0
 23  5  1  0  0  0  0
 24 29  1  0  0  0  0
 24 26  1  0  0  0  0
 25 24  1  0  0  0  0
 28 27  1  0  0  0  0
 28 33  1  0  0  0  0
 29 28  2  0  0  0  0
 30 29  1  0  0  0  0
 30 31  2  0  0  0  0
 31 32  1  0  0  0  0
 32 33  2  0  0  0  0
 32 36  1  0  0  0  0
 33 37  1  0  0  0  0
 34 30  1  0  0  0  0
 35 31  1  0  0  0  0
 37 38  1  0  0  0  0
 38 39  2  0  0  0  0
 38 44  1  0  0  0  0
 39 41  1  0  0  0  0
 40 39  1  0  0  0  0
 42 41  1  0  0  0  0
 42 43  1  0  0  0  0
 44 42  2  0  0  0  0
M  END
>  <minimizedAffinity>
-5.63762808

$$$$

 OpenBabel03262522293D

 44 47  0  0  0  0  0  0  0  0999 V2000
   37.2950   26.8650   35.1980 C   0  0  0  0  0  0  0  0  0  0  0  0
   37.5310   25.6790   34.5010 C   0  0  0  0  0  0  0  0  0  0  0  0
   37.2980   25.6820   33.1500 C   0  0  0  0  0  0  0  0  0  0  0  0
   36.8540   26.8320   32.5750 N   0  0  0  0  0  0  0  0  0  0  0  0
   36.6430   27.9240   33.2540 C   0  0  0  0  0  0  0  0  0  0  0  0
   36.8570   27.9860   34.6100 N   0  0  0  0  0  0  0  0  0  0  0  0
   37.4360   27.0070   36.2740 H   0  0  0  0  0  0  0  0  0  0  0  0
   37.4710   24.7770   32.5740 H   0  0  0  0  0  0  0  0  0  0  0  0
   37.9710   24.6090   35.2010 O   0  0  0  0  0  0  0  0  0  0  0  0
   39.3400   24.3960   35.3330 C   0  0  0  0  0  0  0  0  0  0  0  0
   40.3750   25.0930   34.7290 C   0  0  0  0  0  0  0  0  0  0  0  0
   41.6440   24.7280   34.9880 C   0  0  0  0  0  0  0  0  0  0  0  0
   41.8780   23.6820   35.8370 C   0  0  0  0  0  0  0  0  0  0  0  0
   40.8220   22.9850   36.4410 C   0  0  0  0  0  0  0  0  0  0  0  0
   39.5650   23.3790   36.1590 N   0  0  0  0  0  0  0  0  0  0  0  0
   40.0250   25.8940   34.0830 H   0  0  0  0  0  0  0  0  0  0  0  0
   42.4280   25.3000   34.4940 H   0  0  0  0  0  0  0  0  0  0  0  0
   42.8980   23.3880   36.0450 H   0  0  0  0  0  0  0  0  0  0  0  0
   41.1220   21.8330   37.3760 C   0  0  0  0  0  0  0  0  0  0  0  0
   41.7830   21.0850   36.9030 H   0  0  0  0  0  0  0  0  0  0  0  0
   41.6950   22.2750   38.2090 H   0  0  0  0  0  0  0  0  0  0  0  0
   40.1400   21.4290   37.6760 H   0  0  0  0  0  0  0  0  0  0  0  0
   36.0550   29.2920   32.2160 S   0  0  0  0  0  0  0  0  0  0  0  0
   34.6960   30.0270   33.1720 C   0  0  0  0  0  0  0  0  0  0  0  0
   33.9420   30.3800   32.4500 H   0  0  0  0  0  0  0  0  0  0  0  0
   34.3230   29.2660   33.8730 H   0  0  0  0  0  0  0  0  0  0  0  0
   33.8980   30.4900   35.7700 F   0  0  0  0  0  0  0  0  0  0  0  0
   34.7850   31.3560   35.1830 C   0  0  0  0  0  0  0  0  0  0  0  0
   35.2580   31.2210   33.8800 C   0  0  0  0  0  0  0  0  0  0  0  0
   36.1410   32.1190   33.3600 C   0  0  0  0  0  0  0  0  0  0  0  0
   36.6000   33.1990   34.1130 C   0  0  0  0  0  0  0  0  0  0  0  0
   36.1360   33.3460   35.4180 C   0  0  0  0  0  0  0  0  0  0  0  0
   35.2400   32.4260   35.9300 C   0  0  0  0  0  0  0  0  0  0  0  0
   36.4650   31.9500   32.3360 H   0  0  0  0  0  0  0  0  0  0  0  0
   37.3000   33.8910   33.6660 H   0  0  0  0  0  0  0  0  0  0  0  0
   36.4830   34.1820   36.0230 H   0  0  0  0  0  0  0  0  0  0  0  0
   34.8250   32.6330   37.2270 O   0  0  0  0  0  0  0  0  0  0  0  0
   33.7500   33.5180   37.4510 C   0  0  0  0  0  0  0  0  0  0  0  0
   34.0740   34.6240   38.2670 C   0  0  0  0  0  0  0  0  0  0  0  0
   34.9620   34.9450   38.7600 H   0  0  0  0  0  0  0  0  0  0  0  0
   32.4990   35.5530   38.3570 S   0  0  0  0  0  0  0  0  0  0  0  0
   31.6510   34.2550   37.2470 C   0  0  0  0  0  0  0  0  0  0  0  0
   30.6110   33.9480   36.7140 H   0  0  0  0  0  0  0  0  0  0  0  0
   32.4910   33.5330   37.0540 N   0  0  0  0  0  0  0  0  0  0  0  0
  1  7  1  0  0  0  0
  2  1  2  0  0  0  0
  2  9  1  0  0  0  0
  3  2  1  0  0  0  0
  4  3  2  0  0  0  0
  4  5  1  0  0  0  0
  5  6  2  0  0  0  0
  6  1  1  0  0  0  0
  8  3  1  0  0  0  0
  9 10  1  0  0  0  0
 10 15  1  0  0  0  0
 11 12  1  0  0  0  0
 11 10  2  0  0  0  0
 12 13  2  0  0  0  0
 13 18  1  0  0  0  0
 13 14  1  0  0  0  0
 14 19  1  0  0  0  0
 15 14  2  0  0  0  0
 16 11  1  0  0  0  0
 17 12  1  0  0  0  0
 19 22  1  0  0  0  0
 19 21  1  0  0  0  0
 20 19  1  0  0  0  0
 23 24  1  0  0  0  0
 23  5  1  0  0  0  0
 24 26  1  0  0  0  0
 24 29  1  0  0  0  0
 25 24  1  0  0  0  0
 28 27  1  0  0  0  0
 28 33  1  0  0  0  0
 29 28  2  0  0  0  0
 30 29  1  0  0  0  0
 30 31  2  0  0  0  0
 31 32  1  0  0  0  0
 32 33  2  0  0  0  0
 32 36  1  0  0  0  0
 33 37  1  0  0  0  0
 34 30  1  0  0  0  0
 35 31  1  0  0  0  0
 37 38  1  0  0  0  0
 38 39  2  0  0  0  0
 39 41  1  0  0  0  0
 39 40  1  0  0  0  0
 42 41  1  0  0  0  0
 43 42  1  0  0  0  0
 44 42  2  0  0  0  0
 44 38  1  0  0  0  0
M  END
>  <minimizedAffinity>
-5.5335989

$$$$
