
 OpenBabel03272509533D

 41 44  0  0  0  0  0  0  0  0999 V2000
   34.3870   28.7410   48.0850 C   0  0  0  0  0  0  0  0  0  0  0  0
   35.2590   28.8480   47.4030 H   0  0  0  0  0  0  0  0  0  0  0  0
   33.8870   29.7270   48.1390 H   0  0  0  0  0  0  0  0  0  0  0  0
   33.5000   27.6440   47.5950 C   0  0  0  0  0  0  0  0  0  0  0  0
   33.7500   26.6680   48.0300 H   0  0  0  0  0  0  0  0  0  0  0  0
   33.6390   27.5230   46.4810 H   0  0  0  0  0  0  0  0  0  0  0  0
   32.0600   27.9270   47.7700 C   0  0  0  0  0  0  0  0  0  0  0  0
   31.4530   27.4930   48.9380 C   0  0  0  0  0  0  0  0  0  0  0  0
   30.1320   27.6940   49.2150 C   0  0  0  0  0  0  0  0  0  0  0  0
   29.3900   28.3400   48.3160 N   0  0  0  0  0  0  0  0  0  0  0  0
   29.9740   28.7680   47.1680 C   0  0  0  0  0  0  0  0  0  0  0  0
   31.2860   28.5780   46.8730 N   0  0  0  0  0  0  0  0  0  0  0  0
   32.0540   26.9630   49.6820 H   0  0  0  0  0  0  0  0  0  0  0  0
   29.6840   27.3440   50.1370 H   0  0  0  0  0  0  0  0  0  0  0  0
   29.1350   29.4820   46.1810 C   0  0  0  0  0  0  0  0  0  0  0  0
   27.6770   29.3960   46.1150 C   0  0  0  0  0  0  0  0  0  0  0  0
   27.1880   28.7900   46.8080 H   0  0  0  0  0  0  0  0  0  0  0  0
   27.4310   30.5630   44.6360 S   0  0  0  0  0  0  0  0  0  0  0  0
   29.2800   30.8850   44.4570 C   0  0  0  0  0  0  0  0  0  0  0  0
   29.5710   31.5590   43.6550 H   0  0  0  0  0  0  0  0  0  0  0  0
   29.8300   30.2290   45.3380 N   0  0  0  0  0  0  0  0  0  0  0  0
   34.9600   28.3920   49.3470 O   0  0  0  0  0  0  0  0  0  0  0  0
   37.2940   30.1500   51.4660 C   0  0  0  0  0  0  0  0  0  0  0  0
   38.0450   30.8380   50.4880 C   0  0  0  0  0  0  0  0  0  0  0  0
   37.6990   30.6510   49.1530 C   0  0  0  0  0  0  0  0  0  0  0  0
   36.6450   29.8050   48.9200 N   0  0  0  0  0  0  0  0  0  0  0  0
   35.9480   29.1660   49.8550 C   0  0  0  0  0  0  0  0  0  0  0  0
   36.2870   29.3480   51.1380 N   0  0  0  0  0  0  0  0  0  0  0  0
   37.6040   30.3300   52.4780 H   0  0  0  0  0  0  0  0  0  0  0  0
   38.8690   31.4970   50.6930 H   0  0  0  0  0  0  0  0  0  0  0  0
   38.9190   33.2640   48.9920 F   0  0  0  0  0  0  0  0  0  0  0  0
   38.9220   32.4840   47.9260 C   0  0  0  0  0  0  0  0  0  0  0  0
   38.3420   31.2600   48.0260 C   0  0  0  0  0  0  0  0  0  0  0  0
   38.4020   30.5200   46.8400 C   0  0  0  0  0  0  0  0  0  0  0  0
   38.9940   31.0000   45.6920 C   0  0  0  0  0  0  0  0  0  0  0  0
   39.5660   32.2490   45.6480 C   0  0  0  0  0  0  0  0  0  0  0  0
   39.5190   32.9870   46.7930 C   0  0  0  0  0  0  0  0  0  0  0  0
   37.9700   29.5200   46.7950 H   0  0  0  0  0  0  0  0  0  0  0  0
   39.0080   30.3720   44.7990 H   0  0  0  0  0  0  0  0  0  0  0  0
   40.0070   32.5580   44.7260 H   0  0  0  0  0  0  0  0  0  0  0  0
   39.9650   33.9720   46.7770 H   0  0  0  0  0  0  0  0  0  0  0  0
  1  3  1  0  0  0  0
  1 22  1  0  0  0  0
  2  1  1  0  0  0  0
  4  7  1  0  0  0  0
  4  5  1  0  0  0  0
  4  1  1  0  0  0  0
  6  4  1  0  0  0  0
  7  8  1  0  0  0  0
  8  9  2  0  0  0  0
  8 13  1  0  0  0  0
  9 14  1  0  0  0  0
 10  9  1  0  0  0  0
 11 10  2  0  0  0  0
 12 11  1  0  0  0  0
 12  7  2  0  0  0  0
 15 11  1  0  0  0  0
 16 15  2  0  0  0  0
 16 17  1  0  0  0  0
 18 16  1  0  0  0  0
 19 18  1  0  0  0  0
 19 21  2  0  0  0  0
 20 19  1  0  0  0  0
 21 15  1  0  0  0  0
 22 27  1  0  0  0  0
 23 29  1  0  0  0  0
 24 30  1  0  0  0  0
 24 23  2  0  0  0  0
 25 24  1  0  0  0  0
 26 25  2  0  0  0  0
 26 27  1  0  0  0  0
 27 28  2  0  0  0  0
 28 23  1  0  0  0  0
 32 33  1  0  0  0  0
 32 31  1  0  0  0  0
 33 25  1  0  0  0  0
 34 33  2  0  0  0  0
 35 34  1  0  0  0  0
 36 35  2  0  0  0  0
 36 37  1  0  0  0  0
 37 32  2  0  0  0  0
 38 34  1  0  0  0  0
 39 35  1  0  0  0  0
 40 36  1  0  0  0  0
 41 37  1  0  0  0  0
M  END
>  <minimizedAffinity>
-6.51556969

>  <minimizedRMSD>
0.45678398

$$$$
