
 OpenBabel03272506433D

 30 32  0  0  1  0  0  0  0  0999 V2000
   32.2400   28.1760   47.5220 C   0  0  2  0  0  0  0  0  0  0  0  0
   33.5000   28.1350   48.3720 C   0  0  1  0  0  0  0  0  0  0  0  0
   34.0860   26.9020   48.1950 O   0  0  0  0  0  0  0  0  0  0  0  0
   33.4300   26.2380   47.1870 C   0  0  0  0  0  0  0  0  0  0  0  0
   32.6730   27.3000   46.3860 C   0  0  1  0  0  0  0  0  0  0  0  0
   31.3780   27.7110   48.0500 H   0  0  0  0  0  0  0  0  0  0  0  0
   33.2420   28.3860   49.4080 H   0  0  0  0  0  0  0  0  0  0  0  0
   32.7550   25.4370   47.5460 H   0  0  0  0  0  0  0  0  0  0  0  0
   34.1960   25.8430   46.4810 H   0  0  0  0  0  0  0  0  0  0  0  0
   33.3430   27.8020   45.6860 H   0  0  0  0  0  0  0  0  0  0  0  0
   31.9440   29.4680   47.1190 O   0  0  0  0  0  0  0  0  0  0  0  0
   31.6870   29.9950   47.8990 H   0  0  0  0  0  0  0  0  0  0  0  0
   34.6250   29.3850   47.6460 S   0  0  0  0  0  0  0  0  0  0  0  0
   37.2310   29.2700   50.6180 C   0  0  0  0  0  0  0  0  0  0  0  0
   37.6550   30.5840   50.7920 C   0  0  0  0  0  0  0  0  0  0  0  0
   37.1090   31.5600   49.9460 C   0  0  0  0  0  0  0  0  0  0  0  0
   36.2060   31.1570   49.0210 N   0  0  0  0  0  0  0  0  0  0  0  0
   35.8130   29.8820   48.8740 C   0  0  0  0  0  0  0  0  0  0  0  0
   36.3280   28.9280   49.6790 N   0  0  0  0  0  0  0  0  0  0  0  0
   37.6730   28.5400   51.2880 H   0  0  0  0  0  0  0  0  0  0  0  0
   38.3790   30.8980   51.5360 H   0  0  0  0  0  0  0  0  0  0  0  0
   37.3660   32.6070   49.9930 H   0  0  0  0  0  0  0  0  0  0  0  0
   31.6130   26.7040   45.7110 O   0  0  0  0  0  0  0  0  0  0  0  0
   31.1780   27.3610   44.5500 C   0  0  0  0  0  0  0  0  0  0  0  0
   32.3160   27.7820   43.7690 C   0  0  0  0  0  0  0  0  0  0  0  0
   33.3700   27.7310   43.8280 H   0  0  0  0  0  0  0  0  0  0  0  0
   31.5070   28.6310   42.2780 S   0  0  0  0  0  0  0  0  0  0  0  0
   29.8040   28.2400   43.0240 C   0  0  0  0  0  0  0  0  0  0  0  0
   28.5620   28.3140   42.9270 H   0  0  0  0  0  0  0  0  0  0  0  0
   30.0340   27.6960   43.9850 N   0  0  0  0  0  0  0  0  0  0  0  0
  1  6  1  1  0  0  0
  1  2  1  0  0  0  0
  2  7  1  1  0  0  0
  3  2  1  0  0  0  0
  4  8  1  0  0  0  0
  4  3  1  0  0  0  0
  5 10  1  6  0  0  0
  5  4  1  0  0  0  0
  5  1  1  0  0  0  0
  9  4  1  0  0  0  0
 11  1  1  0  0  0  0
 11 12  1  0  0  0  0
 13  2  1  0  0  0  0
 13 18  1  0  0  0  0
 14 15  1  0  0  0  0
 14 20  1  0  0  0  0
 15 21  1  0  0  0  0
 16 22  1  0  0  0  0
 16 15  2  0  0  0  0
 17 16  1  0  0  0  0
 18 17  2  0  0  0  0
 18 19  1  0  0  0  0
 19 14  2  0  0  0  0
 23  5  1  0  0  0  0
 24 23  1  0  0  0  0
 25 26  1  0  0  0  0
 25 24  2  0  0  0  0
 27 28  1  0  0  0  0
 27 25  1  0  0  0  0
 28 30  2  0  0  0  0
 29 28  1  0  0  0  0
 30 24  1  0  0  0  0
M  END
>  <minimizedAffinity>
-3.72754693

>  <minimizedRMSD>
1.05207849

$$$$
