
 OpenBabel03272507553D

 21 22  0  0  0  0  0  0  0  0999 V2000
   34.9180   28.9780   50.1650 C   0  0  0  0  0  0  0  0  0  0  0  0
   36.0790   29.6860   49.7720 C   0  0  0  0  0  0  0  0  0  0  0  0
   36.0930   30.2610   48.5040 C   0  0  0  0  0  0  0  0  0  0  0  0
   34.9980   30.1190   47.7020 N   0  0  0  0  0  0  0  0  0  0  0  0
   33.9000   29.4260   48.1220 C   0  0  0  0  0  0  0  0  0  0  0  0
   33.8540   28.8570   49.3480 N   0  0  0  0  0  0  0  0  0  0  0  0
   32.8810   29.4000   47.1360 N   0  0  0  0  0  0  0  0  0  0  0  0
   34.8460   28.5090   51.1400 H   0  0  0  0  0  0  0  0  0  0  0  0
   32.1400   30.1240   46.9400 H   0  0  0  0  0  0  0  0  0  0  0  0
   33.1060   28.4640   46.6950 H   0  0  0  0  0  0  0  0  0  0  0  0
   37.2780   31.0030   48.0630 C   0  0  0  0  0  0  0  0  0  0  0  0
   37.4680   32.2670   48.6110 C   0  0  0  0  0  0  0  0  0  0  0  0
   36.8970   32.8410   49.3260 H   0  0  0  0  0  0  0  0  0  0  0  0
   39.0210   32.8390   47.8150 S   0  0  0  0  0  0  0  0  0  0  0  0
   39.1370   31.1950   46.8440 C   0  0  0  0  0  0  0  0  0  0  0  0
   39.8810   30.7660   46.0830 H   0  0  0  0  0  0  0  0  0  0  0  0
   38.2160   30.6500   47.2050 N   0  0  0  0  0  0  0  0  0  0  0  0
   37.2220   29.7870   50.7170 C   0  0  0  0  0  0  0  0  0  0  0  0
   38.4370   29.6240   50.0590 F   0  0  0  0  0  0  0  0  0  0  0  0
   37.2000   31.0300   51.2890 F   0  0  0  0  0  0  0  0  0  0  0  0
   37.1650   28.8430   51.7230 F   0  0  0  0  0  0  0  0  0  0  0  0
  1  8  1  0  0  0  0
  2  1  1  0  0  0  0
  2 18  1  0  0  0  0
  3  2  2  0  0  0  0
  4  5  2  0  0  0  0
  4  3  1  0  0  0  0
  5  6  1  0  0  0  0
  6  1  2  0  0  0  0
  7  5  1  0  0  0  0
  9  7  1  0  0  0  0
 10  7  1  0  0  0  0
 11  3  1  0  0  0  0
 11 12  2  0  0  0  0
 12 13  1  0  0  0  0
 14 12  1  0  0  0  0
 15 17  2  0  0  0  0
 15 14  1  0  0  0  0
 16 15  1  0  0  0  0
 17 11  1  0  0  0  0
 18 20  1  0  0  0  0
 18 21  1  0  0  0  0
 19 18  1  0  0  0  0
M  END
>  <minimizedAffinity>
-5.02063799

>  <minimizedRMSD>
1.31218183

$$$$
