
 OpenBabel03272502393D

 38 41  0  0  1  0  0  0  0  0999 V2000
   32.4110   27.9340   48.8130 N   0  0  0  0  0  0  0  0  0  0  0  0
   33.2680   27.2500   47.8560 C   0  0  0  0  0  0  0  0  0  0  0  0
   34.5670   27.9920   47.9730 C   0  0  0  0  0  0  0  0  0  0  0  0
   34.2500   29.2290   48.9280 C   0  0  1  0  0  0  0  0  0  0  0  0
   33.2630   28.6090   49.8170 C   0  0  0  0  0  0  0  0  0  0  0  0
   32.8880   27.4300   46.8350 H   0  0  0  0  0  0  0  0  0  0  0  0
   33.4200   26.1860   48.0750 H   0  0  0  0  0  0  0  0  0  0  0  0
   35.3490   27.4540   48.5250 H   0  0  0  0  0  0  0  0  0  0  0  0
   34.9600   28.4230   47.0570 H   0  0  0  0  0  0  0  0  0  0  0  0
   33.8650   29.9300   48.1770 H   0  0  0  0  0  0  0  0  0  0  0  0
   33.7600   27.8210   50.4380 H   0  0  0  0  0  0  0  0  0  0  0  0
   32.6600   29.2880   50.4240 H   0  0  0  0  0  0  0  0  0  0  0  0
   36.0410   30.9650   47.5870 F   0  0  0  0  0  0  0  0  0  0  0  0
   36.2770   30.5270   48.8350 C   0  0  0  0  0  0  0  0  0  0  0  0
   35.5030   29.6520   49.5520 C   0  0  0  0  0  0  0  0  0  0  0  0
   35.9210   29.3190   50.8500 C   0  0  0  0  0  0  0  0  0  0  0  0
   37.0610   29.8370   51.4130 C   0  0  0  0  0  0  0  0  0  0  0  0
   37.8280   30.7290   50.6500 C   0  0  0  0  0  0  0  0  0  0  0  0
   37.4240   31.0740   49.3400 C   0  0  0  0  0  0  0  0  0  0  0  0
   35.2530   28.6230   51.3380 H   0  0  0  0  0  0  0  0  0  0  0  0
   37.3170   29.5430   52.4020 H   0  0  0  0  0  0  0  0  0  0  0  0
   38.6940   31.0700   51.1830 H   0  0  0  0  0  0  0  0  0  0  0  0
   38.2990   32.0300   48.6650 C   0  0  0  0  0  0  0  0  0  0  0  0
   38.5590   33.3250   49.3430 C   0  0  0  0  0  0  0  0  0  0  0  0
   38.3260   33.8140   50.1750 H   0  0  0  0  0  0  0  0  0  0  0  0
   39.6150   34.1960   48.2390 S   0  0  0  0  0  0  0  0  0  0  0  0
   39.6080   32.7590   46.9850 C   0  0  0  0  0  0  0  0  0  0  0  0
   40.0100   32.2960   45.8670 H   0  0  0  0  0  0  0  0  0  0  0  0
   38.8050   31.7110   47.4860 N   0  0  0  0  0  0  0  0  0  0  0  0
   31.0060   27.9800   48.8190 C   0  0  0  0  0  0  0  0  0  0  0  0
   30.3950   28.0840   47.5600 C   0  0  0  0  0  0  0  0  0  0  0  0
   28.9930   28.1390   47.4840 C   0  0  0  0  0  0  0  0  0  0  0  0
   28.3100   28.0860   48.6850 N   0  0  0  0  0  0  0  0  0  0  0  0
   28.9400   27.9860   49.8720 C   0  0  0  0  0  0  0  0  0  0  0  0
   30.2810   27.9340   49.9250 N   0  0  0  0  0  0  0  0  0  0  0  0
   30.8820   28.1280   46.6190 H   0  0  0  0  0  0  0  0  0  0  0  0
   28.4820   28.2190   46.5410 H   0  0  0  0  0  0  0  0  0  0  0  0
   28.3730   27.9480   50.7800 H   0  0  0  0  0  0  0  0  0  0  0  0
  1 30  1  0  0  0  0
  1  5  1  0  0  0  0
  2  3  1  0  0  0  0
  2  7  1  0  0  0  0
  2  1  1  0  0  0  0
  3  8  1  0  0  0  0
  3  4  1  0  0  0  0
  4 10  1  6  0  0  0
  4 15  1  0  0  0  0
  4  5  1  0  0  0  0
  5 12  1  0  0  0  0
  5 11  1  0  0  0  0
  6  2  1  0  0  0  0
  9  3  1  0  0  0  0
 13 14  1  0  0  0  0
 14 19  2  0  0  0  0
 14 15  1  0  0  0  0
 15 16  2  0  0  0  0
 16 20  1  0  0  0  0
 16 17  1  0  0  0  0
 17 21  1  0  0  0  0
 18 22  1  0  0  0  0
 18 17  2  0  0  0  0
 19 18  1  0  0  0  0
 23 19  1  0  0  0  0
 23 24  2  0  0  0  0
 24 25  1  0  0  0  0
 26 24  1  0  0  0  0
 27 29  2  0  0  0  0
 27 26  1  0  0  0  0
 28 27  1  0  0  0  0
 29 23  1  0  0  0  0
 30 35  1  0  0  0  0
 31 30  2  0  0  0  0
 32 31  1  0  0  0  0
 32 33  2  0  0  0  0
 33 34  1  0  0  0  0
 34 35  2  0  0  0  0
 34 38  1  0  0  0  0
 36 31  1  0  0  0  0
 37 32  1  0  0  0  0
M  END
>  <minimizedAffinity>
-6.51059818

>  <minimizedRMSD>
3.03544164

$$$$
