
 OpenBabel03262521213D

 31 32  0  0  0  0  0  0  0  0999 V2000
   37.7290   31.1170   46.3330 C   0  0  0  0  0  0  0  0  0  0  0  0
   37.8350   30.2470   45.6170 H   0  0  0  0  0  0  0  0  0  0  0  0
   36.6310   31.2270   46.4780 H   0  0  0  0  0  0  0  0  0  0  0  0
   38.4590   31.0240   47.4620 C   0  0  0  0  0  0  0  0  0  0  0  0
   39.3840   30.3890   47.4520 H   0  0  0  0  0  0  0  0  0  0  0  0
   37.8700   30.4810   48.2700 H   0  0  0  0  0  0  0  0  0  0  0  0
   38.8660   32.3180   48.0800 C   0  0  0  0  0  0  0  0  0  0  0  0
   39.9290   32.2860   48.4600 H   0  0  0  0  0  0  0  0  0  0  0  0
   38.8870   33.1020   47.2870 H   0  0  0  0  0  0  0  0  0  0  0  0
   37.7960   32.8510   49.3980 S   0  0  0  0  0  0  0  0  0  0  0  0
   36.9740   31.3660   50.0410 C   0  0  0  0  0  0  0  0  0  0  0  0
   37.4230   30.3930   51.0050 C   0  0  0  0  0  0  0  0  0  0  0  0
   38.5290   30.7100   51.3760 H   0  0  0  0  0  0  0  0  0  0  0  0
   35.8970   29.2640   51.0030 S   0  0  0  0  0  0  0  0  0  0  0  0
   35.0090   30.3360   49.7260 C   0  0  0  0  0  0  0  0  0  0  0  0
   34.0870   30.2780   49.2630 H   0  0  0  0  0  0  0  0  0  0  0  0
   35.7900   31.2640   49.4680 N   0  0  0  0  0  0  0  0  0  0  0  0
   38.2360   32.2790   45.8150 O   0  0  0  0  0  0  0  0  0  0  0  0
   38.0930   32.5270   44.4750 C   0  0  0  0  0  0  0  0  0  0  0  0
   39.2810   32.8700   43.8700 C   0  0  0  0  0  0  0  0  0  0  0  0
   39.2920   33.1560   42.4880 C   0  0  0  0  0  0  0  0  0  0  0  0
   38.0880   33.0690   41.8350 N   0  0  0  0  0  0  0  0  0  0  0  0
   36.9340   32.7260   42.4710 C   0  0  0  0  0  0  0  0  0  0  0  0
   36.9580   32.4610   43.7820 N   0  0  0  0  0  0  0  0  0  0  0  0
   35.9060   33.0250   40.3270 C   0  0  0  0  0  0  0  0  0  0  0  0
   36.9880   33.3730   39.7710 O   0  0  0  0  0  0  0  0  0  0  0  0
   35.7390   32.6680   41.6990 N   0  0  0  0  0  0  0  0  0  0  0  0
   40.2420   32.9470   44.3530 H   0  0  0  0  0  0  0  0  0  0  0  0
   40.1990   33.4240   41.9880 H   0  0  0  0  0  0  0  0  0  0  0  0
   35.0170   33.0000   39.6790 H   0  0  0  0  0  0  0  0  0  0  0  0
   34.8340   32.3850   42.1330 H   0  0  0  0  0  0  0  0  0  0  0  0
  1  3  1  0  0  0  0
  1  4  1  0  0  0  0
  2  1  1  0  0  0  0
  4  7  1  0  0  0  0
  4  6  1  0  0  0  0
  5  4  1  0  0  0  0
  7  8  1  0  0  0  0
  7 10  1  0  0  0  0
  9  7  1  0  0  0  0
 10 11  1  0  0  0  0
 11 12  2  0  0  0  0
 12 13  1  0  0  0  0
 14 12  1  0  0  0  0
 15 14  1  0  0  0  0
 16 15  1  0  0  0  0
 17 15  2  0  0  0  0
 17 11  1  0  0  0  0
 18  1  1  0  0  0  0
 19 18  1  0  0  0  0
 20 28  1  0  0  0  0
 20 19  1  0  0  0  0
 21 20  2  0  0  0  0
 22 23  2  0  0  0  0
 22 21  1  0  0  0  0
 23 24  1  0  0  0  0
 24 19  2  0  0  0  0
 25 27  1  0  0  0  0
 26 25  2  0  0  0  0
 27 31  1  0  0  0  0
 27 23  1  0  0  0  0
 29 21  1  0  0  0  0
 30 25  1  0  0  0  0
M  END
>  <minimizedAffinity>
-4.24209166

>  <minimizedRMSD>
2.97984076

$$$$
