
 OpenBabel03272506593D

 26 28  0  0  0  0  0  0  0  0999 V2000
   37.7910   25.1160   33.7850 C   0  0  0  0  0  0  0  0  0  0  0  0
   37.9740   24.5510   32.5560 C   0  0  0  0  0  0  0  0  0  0  0  0
   37.6850   25.0780   31.3220 C   0  0  0  0  0  0  0  0  0  0  0  0
   37.1470   26.3280   31.3590 N   0  0  0  0  0  0  0  0  0  0  0  0
   36.9420   26.9420   32.5490 C   0  0  0  0  0  0  0  0  0  0  0  0
   37.2520   26.3620   33.7410 N   0  0  0  0  0  0  0  0  0  0  0  0
   38.4070   23.5430   32.5370 H   0  0  0  0  0  0  0  0  0  0  0  0
   37.8590   24.5640   30.4050 H   0  0  0  0  0  0  0  0  0  0  0  0
   38.0820   24.4670   37.3440 C   0  0  0  0  0  0  0  0  0  0  0  0
   38.7640   23.2590   37.4320 C   0  0  0  0  0  0  0  0  0  0  0  0
   39.1270   22.6650   36.2060 C   0  0  0  0  0  0  0  0  0  0  0  0
   38.8060   23.2750   35.0380 N   0  0  0  0  0  0  0  0  0  0  0  0
   38.1390   24.4540   35.0280 C   0  0  0  0  0  0  0  0  0  0  0  0
   37.7570   25.0860   36.1800 N   0  0  0  0  0  0  0  0  0  0  0  0
   37.8030   24.9260   38.2790 H   0  0  0  0  0  0  0  0  0  0  0  0
   39.6580   21.7250   36.2710 H   0  0  0  0  0  0  0  0  0  0  0  0
   39.0580   22.6940   38.6940 N   0  0  0  0  0  0  0  0  0  0  0  0
   39.5680   23.2810   39.4180 H   0  0  0  0  0  0  0  0  0  0  0  0
   38.7840   21.7140   38.9230 H   0  0  0  0  0  0  0  0  0  0  0  0
   36.3540   28.3020   32.5040 C   0  0  0  0  0  0  0  0  0  0  0  0
   36.1740   29.2110   31.3730 C   0  0  0  0  0  0  0  0  0  0  0  0
   36.5700   28.7260   30.4200 H   0  0  0  0  0  0  0  0  0  0  0  0
   35.3850   30.6230   32.2470 S   0  0  0  0  0  0  0  0  0  0  0  0
   35.4230   29.8320   33.8480 C   0  0  0  0  0  0  0  0  0  0  0  0
   35.0180   30.3740   34.7140 H   0  0  0  0  0  0  0  0  0  0  0  0
   35.9500   28.6890   33.7200 N   0  0  0  0  0  0  0  0  0  0  0  0
  1 13  1  0  0  0  0
  2  1  2  0  0  0  0
  3  4  2  0  0  0  0
  3  2  1  0  0  0  0
  4  5  1  0  0  0  0
  5  6  2  0  0  0  0
  6  1  1  0  0  0  0
  7  2  1  0  0  0  0
  8  3  1  0  0  0  0
  9 10  1  0  0  0  0
  9 15  1  0  0  0  0
 10 17  1  0  0  0  0
 11 16  1  0  0  0  0
 11 10  2  0  0  0  0
 12 11  1  0  0  0  0
 13 12  2  0  0  0  0
 13 14  1  0  0  0  0
 14  9  2  0  0  0  0
 17 19  1  0  0  0  0
 17 18  1  0  0  0  0
 20  5  1  0  0  0  0
 20 26  1  0  0  0  0
 21 23  1  0  0  0  0
 21 20  2  0  0  0  0
 22 21  1  0  0  0  0
 23 24  1  0  0  0  0
 24 25  1  0  0  0  0
 26 24  2  0  0  0  0
M  END
>  <minimizedAffinity>
-4.77908897

$$$$

 OpenBabel03272506593D

 26 28  0  0  0  0  0  0  0  0999 V2000
   38.3620   24.7140   35.9620 C   0  0  0  0  0  0  0  0  0  0  0  0
   37.9010   24.6120   37.2420 C   0  0  0  0  0  0  0  0  0  0  0  0
   38.3460   23.7940   38.2500 C   0  0  0  0  0  0  0  0  0  0  0  0
   39.3860   22.9880   37.8980 N   0  0  0  0  0  0  0  0  0  0  0  0
   39.8880   23.0420   36.6410 C   0  0  0  0  0  0  0  0  0  0  0  0
   39.3990   23.8800   35.6860 N   0  0  0  0  0  0  0  0  0  0  0  0
   37.0620   25.2650   37.5160 H   0  0  0  0  0  0  0  0  0  0  0  0
   37.9250   23.7780   39.2290 H   0  0  0  0  0  0  0  0  0  0  0  0
   37.1800   26.0030   32.7820 C   0  0  0  0  0  0  0  0  0  0  0  0
   36.7530   27.2970   33.0580 C   0  0  0  0  0  0  0  0  0  0  0  0
   36.8880   27.7180   34.3970 C   0  0  0  0  0  0  0  0  0  0  0  0
   37.4080   26.8740   35.3230 N   0  0  0  0  0  0  0  0  0  0  0  0
   37.8040   25.6240   34.9810 C   0  0  0  0  0  0  0  0  0  0  0  0
   37.7020   25.1500   33.7020 N   0  0  0  0  0  0  0  0  0  0  0  0
   37.0790   25.6750   31.7600 H   0  0  0  0  0  0  0  0  0  0  0  0
   36.5560   28.7240   34.6150 H   0  0  0  0  0  0  0  0  0  0  0  0
   36.2220   28.1090   32.0300 N   0  0  0  0  0  0  0  0  0  0  0  0
   36.7870   28.2550   31.1430 H   0  0  0  0  0  0  0  0  0  0  0  0
   35.2900   28.5660   32.1320 H   0  0  0  0  0  0  0  0  0  0  0  0
   41.0200   22.1340   36.3370 C   0  0  0  0  0  0  0  0  0  0  0  0
   41.6760   21.8450   35.0630 C   0  0  0  0  0  0  0  0  0  0  0  0
   41.1860   22.4490   34.2290 H   0  0  0  0  0  0  0  0  0  0  0  0
   42.9350   20.6360   35.6420 S   0  0  0  0  0  0  0  0  0  0  0  0
   42.4180   20.7080   37.3500 C   0  0  0  0  0  0  0  0  0  0  0  0
   42.9490   20.0900   38.0890 H   0  0  0  0  0  0  0  0  0  0  0  0
   41.4520   21.5200   37.4450 N   0  0  0  0  0  0  0  0  0  0  0  0
  1  2  1  0  0  0  0
  2  7  1  0  0  0  0
  2  3  2  0  0  0  0
  3  8  1  0  0  0  0
  4  3  1  0  0  0  0
  5  4  2  0  0  0  0
  6  1  2  0  0  0  0
  6  5  1  0  0  0  0
  9 10  2  0  0  0  0
  9 14  1  0  0  0  0
 10 11  1  0  0  0  0
 11 16  1  0  0  0  0
 11 12  2  0  0  0  0
 13 12  1  0  0  0  0
 13  1  1  0  0  0  0
 14 13  2  0  0  0  0
 15  9  1  0  0  0  0
 17 19  1  0  0  0  0
 17 10  1  0  0  0  0
 18 17  1  0  0  0  0
 20  5  1  0  0  0  0
 20 26  1  0  0  0  0
 21 23  1  0  0  0  0
 21 20  2  0  0  0  0
 22 21  1  0  0  0  0
 23 24  1  0  0  0  0
 24 26  2  0  0  0  0
 24 25  1  0  0  0  0
M  END
>  <minimizedAffinity>
-4.75348854

$$$$

 OpenBabel03272506593D

 26 28  0  0  0  0  0  0  0  0999 V2000
   37.8500   25.1920   33.7580 C   0  0  0  0  0  0  0  0  0  0  0  0
   38.1670   24.6710   32.5380 C   0  0  0  0  0  0  0  0  0  0  0  0
   37.9550   25.2140   31.2950 C   0  0  0  0  0  0  0  0  0  0  0  0
   37.3450   26.4310   31.3130 N   0  0  0  0  0  0  0  0  0  0  0  0
   37.0050   27.0010   32.4930 C   0  0  0  0  0  0  0  0  0  0  0  0
   37.2450   26.4070   33.6950 N   0  0  0  0  0  0  0  0  0  0  0  0
   38.6570   23.6900   32.5340 H   0  0  0  0  0  0  0  0  0  0  0  0
   38.2360   24.7350   30.3850 H   0  0  0  0  0  0  0  0  0  0  0  0
   38.0510   24.5630   37.3270 C   0  0  0  0  0  0  0  0  0  0  0  0
   38.6260   23.3020   37.4350 C   0  0  0  0  0  0  0  0  0  0  0  0
   38.9480   22.6650   36.2190 C   0  0  0  0  0  0  0  0  0  0  0  0
   38.6910   23.2860   35.0410 N   0  0  0  0  0  0  0  0  0  0  0  0
   38.1280   24.5180   35.0120 C   0  0  0  0  0  0  0  0  0  0  0  0
   37.7900   25.1940   36.1530 N   0  0  0  0  0  0  0  0  0  0  0  0
   37.8040   25.0550   38.2540 H   0  0  0  0  0  0  0  0  0  0  0  0
   39.3950   21.6830   36.3000 H   0  0  0  0  0  0  0  0  0  0  0  0
   38.8590   22.7290   38.7060 N   0  0  0  0  0  0  0  0  0  0  0  0
   39.4110   23.2790   39.4280 H   0  0  0  0  0  0  0  0  0  0  0  0
   38.4990   21.7780   38.9430 H   0  0  0  0  0  0  0  0  0  0  0  0
   36.3460   28.3270   32.4270 C   0  0  0  0  0  0  0  0  0  0  0  0
   35.7490   29.1330   33.4910 C   0  0  0  0  0  0  0  0  0  0  0  0
   35.8470   28.5910   34.4890 H   0  0  0  0  0  0  0  0  0  0  0  0
   35.1950   30.5780   32.4970 S   0  0  0  0  0  0  0  0  0  0  0  0
   35.8020   29.9200   30.9510 C   0  0  0  0  0  0  0  0  0  0  0  0
   35.6640   30.5120   30.0350 H   0  0  0  0  0  0  0  0  0  0  0  0
   36.3330   28.7930   31.1720 N   0  0  0  0  0  0  0  0  0  0  0  0
  1 13  1  0  0  0  0
  2  1  2  0  0  0  0
  3  4  2  0  0  0  0
  3  2  1  0  0  0  0
  4  5  1  0  0  0  0
  5  6  2  0  0  0  0
  6  1  1  0  0  0  0
  7  2  1  0  0  0  0
  8  3  1  0  0  0  0
  9 10  1  0  0  0  0
  9 15  1  0  0  0  0
 10 17  1  0  0  0  0
 11 16  1  0  0  0  0
 11 10  2  0  0  0  0
 12 11  1  0  0  0  0
 13 12  2  0  0  0  0
 13 14  1  0  0  0  0
 14  9  2  0  0  0  0
 17 19  1  0  0  0  0
 17 18  1  0  0  0  0
 20  5  1  0  0  0  0
 20 21  2  0  0  0  0
 21 22  1  0  0  0  0
 23 21  1  0  0  0  0
 24 26  2  0  0  0  0
 24 23  1  0  0  0  0
 25 24  1  0  0  0  0
 26 20  1  0  0  0  0
M  END
>  <minimizedAffinity>
-4.7518158

$$$$

 OpenBabel03272506593D

 26 28  0  0  0  0  0  0  0  0999 V2000
   39.6770   24.8310   34.7500 C   0  0  0  0  0  0  0  0  0  0  0  0
   40.2540   26.0610   34.6330 C   0  0  0  0  0  0  0  0  0  0  0  0
   39.8680   27.1160   33.8440 C   0  0  0  0  0  0  0  0  0  0  0  0
   38.7610   26.8740   33.0900 N   0  0  0  0  0  0  0  0  0  0  0  0
   38.1420   25.6720   33.1630 C   0  0  0  0  0  0  0  0  0  0  0  0
   38.5780   24.6640   33.9690 N   0  0  0  0  0  0  0  0  0  0  0  0
   41.1470   26.2460   35.2440 H   0  0  0  0  0  0  0  0  0  0  0  0
   40.3810   28.0500   33.8120 H   0  0  0  0  0  0  0  0  0  0  0  0
   41.7660   22.1440   36.0110 C   0  0  0  0  0  0  0  0  0  0  0  0
   41.2030   21.7990   37.2350 C   0  0  0  0  0  0  0  0  0  0  0  0
   40.0620   22.5330   37.6180 C   0  0  0  0  0  0  0  0  0  0  0  0
   39.5810   23.5080   36.8070 N   0  0  0  0  0  0  0  0  0  0  0  0
   40.1820   23.7910   35.6260 C   0  0  0  0  0  0  0  0  0  0  0  0
   41.2920   23.1180   35.1920 N   0  0  0  0  0  0  0  0  0  0  0  0
   42.6380   21.5850   35.7140 H   0  0  0  0  0  0  0  0  0  0  0  0
   39.6220   22.2670   38.5700 H   0  0  0  0  0  0  0  0  0  0  0  0
   41.7700   20.7670   38.0170 N   0  0  0  0  0  0  0  0  0  0  0  0
   41.9300   19.8130   37.5780 H   0  0  0  0  0  0  0  0  0  0  0  0
   42.0310   20.9290   39.0150 H   0  0  0  0  0  0  0  0  0  0  0  0
   36.9420   25.4870   32.3110 C   0  0  0  0  0  0  0  0  0  0  0  0
   36.0810   26.4820   31.6730 C   0  0  0  0  0  0  0  0  0  0  0  0
   36.4570   27.5310   31.9150 H   0  0  0  0  0  0  0  0  0  0  0  0
   34.8850   25.3570   30.8460 S   0  0  0  0  0  0  0  0  0  0  0  0
   35.6670   23.8650   31.4410 C   0  0  0  0  0  0  0  0  0  0  0  0
   35.2360   22.8940   31.1580 H   0  0  0  0  0  0  0  0  0  0  0  0
   36.6670   24.1880   32.1470 N   0  0  0  0  0  0  0  0  0  0  0  0
  1 13  1  0  0  0  0
  2  1  1  0  0  0  0
  2  7  1  0  0  0  0
  3  2  2  0  0  0  0
  4  5  2  0  0  0  0
  4  3  1  0  0  0  0
  5  6  1  0  0  0  0
  6  1  2  0  0  0  0
  8  3  1  0  0  0  0
  9 10  1  0  0  0  0
 10 11  2  0  0  0  0
 10 17  1  0  0  0  0
 11 16  1  0  0  0  0
 12 11  1  0  0  0  0
 13 12  2  0  0  0  0
 14 13  1  0  0  0  0
 14  9  2  0  0  0  0
 15  9  1  0  0  0  0
 17 19  1  0  0  0  0
 18 17  1  0  0  0  0
 20  5  1  0  0  0  0
 21 22  1  0  0  0  0
 21 20  2  0  0  0  0
 23 24  1  0  0  0  0
 23 21  1  0  0  0  0
 24 26  2  0  0  0  0
 25 24  1  0  0  0  0
 26 20  1  0  0  0  0
M  END
>  <minimizedAffinity>
-4.74714231

$$$$

 OpenBabel03272506593D

 26 28  0  0  0  0  0  0  0  0999 V2000
   37.2100   26.7690   34.0280 C   0  0  0  0  0  0  0  0  0  0  0  0
   37.4260   27.0200   32.7040 C   0  0  0  0  0  0  0  0  0  0  0  0
   37.0210   28.1010   31.9620 C   0  0  0  0  0  0  0  0  0  0  0  0
   36.3130   29.0280   32.6640 N   0  0  0  0  0  0  0  0  0  0  0  0
   36.0660   28.8360   33.9810 C   0  0  0  0  0  0  0  0  0  0  0  0
   36.4980   27.7370   34.6610 N   0  0  0  0  0  0  0  0  0  0  0  0
   37.9980   26.2670   32.1470 H   0  0  0  0  0  0  0  0  0  0  0  0
   37.2340   28.2190   30.9240 H   0  0  0  0  0  0  0  0  0  0  0  0
   38.4250   23.3880   34.5450 C   0  0  0  0  0  0  0  0  0  0  0  0
   38.6170   23.2840   35.9180 C   0  0  0  0  0  0  0  0  0  0  0  0
   38.3090   24.4350   36.6720 C   0  0  0  0  0  0  0  0  0  0  0  0
   37.8570   25.5510   36.0490 N   0  0  0  0  0  0  0  0  0  0  0  0
   37.6940   25.5810   34.7050 C   0  0  0  0  0  0  0  0  0  0  0  0
   37.9730   24.5010   33.9120 N   0  0  0  0  0  0  0  0  0  0  0  0
   38.6580   22.5110   33.9630 H   0  0  0  0  0  0  0  0  0  0  0  0
   38.4580   24.3560   37.7410 H   0  0  0  0  0  0  0  0  0  0  0  0
   39.0920   22.0790   36.4840 N   0  0  0  0  0  0  0  0  0  0  0  0
   38.5850   21.1710   36.2690 H   0  0  0  0  0  0  0  0  0  0  0  0
   39.9290   22.0700   37.1070 H   0  0  0  0  0  0  0  0  0  0  0  0
   35.2880   29.8910   34.6740 C   0  0  0  0  0  0  0  0  0  0  0  0
   33.8560   30.1810   34.6360 C   0  0  0  0  0  0  0  0  0  0  0  0
   33.3290   29.4390   33.9480 H   0  0  0  0  0  0  0  0  0  0  0  0
   33.8120   31.6240   35.7750 S   0  0  0  0  0  0  0  0  0  0  0  0
   35.5700   31.6040   36.0880 C   0  0  0  0  0  0  0  0  0  0  0  0
   35.9940   32.3580   36.7670 H   0  0  0  0  0  0  0  0  0  0  0  0
   36.0870   30.6540   35.4300 N   0  0  0  0  0  0  0  0  0  0  0  0
  1  6  1  0  0  0  0
  1 13  1  0  0  0  0
  2  1  2  0  0  0  0
  3  4  2  0  0  0  0
  3  2  1  0  0  0  0
  4  5  1  0  0  0  0
  5  6  2  0  0  0  0
  5 20  1  0  0  0  0
  7  2  1  0  0  0  0
  8  3  1  0  0  0  0
  9 10  1  0  0  0  0
 10 17  1  0  0  0  0
 10 11  2  0  0  0  0
 11 16  1  0  0  0  0
 12 11  1  0  0  0  0
 13 12  2  0  0  0  0
 14  9  2  0  0  0  0
 14 13  1  0  0  0  0
 15  9  1  0  0  0  0
 17 19  1  0  0  0  0
 18 17  1  0  0  0  0
 20 26  1  0  0  0  0
 21 20  2  0  0  0  0
 21 23  1  0  0  0  0
 22 21  1  0  0  0  0
 23 24  1  0  0  0  0
 24 25  1  0  0  0  0
 26 24  2  0  0  0  0
M  END
>  <minimizedAffinity>
-4.72378969

$$$$

 OpenBabel03272506593D

 26 28  0  0  0  0  0  0  0  0999 V2000
   38.1710   25.9460   34.7550 C   0  0  0  0  0  0  0  0  0  0  0  0
   37.2200   26.8270   35.1790 C   0  0  0  0  0  0  0  0  0  0  0  0
   36.6370   27.8570   34.4820 C   0  0  0  0  0  0  0  0  0  0  0  0
   37.0870   27.9930   33.2050 N   0  0  0  0  0  0  0  0  0  0  0  0
   38.0310   27.1480   32.7260 C   0  0  0  0  0  0  0  0  0  0  0  0
   38.5690   26.1430   33.4710 N   0  0  0  0  0  0  0  0  0  0  0  0
   36.8640   26.7100   36.2100 H   0  0  0  0  0  0  0  0  0  0  0  0
   35.8960   28.5040   34.8930 H   0  0  0  0  0  0  0  0  0  0  0  0
   40.4300   23.3900   35.9950 C   0  0  0  0  0  0  0  0  0  0  0  0
   39.8080   22.8830   37.1300 C   0  0  0  0  0  0  0  0  0  0  0  0
   38.5630   23.4590   37.4600 C   0  0  0  0  0  0  0  0  0  0  0  0
   38.0480   24.4460   36.6850 N   0  0  0  0  0  0  0  0  0  0  0  0
   38.7120   24.8910   35.5910 C   0  0  0  0  0  0  0  0  0  0  0  0
   39.9230   24.3780   35.2130 N   0  0  0  0  0  0  0  0  0  0  0  0
   41.3820   22.9530   35.7380 H   0  0  0  0  0  0  0  0  0  0  0  0
   38.0770   23.0670   38.3420 H   0  0  0  0  0  0  0  0  0  0  0  0
   40.4170   21.8520   37.8800 N   0  0  0  0  0  0  0  0  0  0  0  0
   40.7190   20.9610   37.3850 H   0  0  0  0  0  0  0  0  0  0  0  0
   40.5730   21.9520   38.9070 H   0  0  0  0  0  0  0  0  0  0  0  0
   38.4670   27.3610   31.3240 C   0  0  0  0  0  0  0  0  0  0  0  0
   39.6030   26.7980   30.5980 C   0  0  0  0  0  0  0  0  0  0  0  0
   40.1920   26.0990   31.2820 H   0  0  0  0  0  0  0  0  0  0  0  0
   39.3500   27.6100   28.9680 S   0  0  0  0  0  0  0  0  0  0  0  0
   37.8870   28.4970   29.4840 C   0  0  0  0  0  0  0  0  0  0  0  0
   37.3820   29.1490   28.7570 H   0  0  0  0  0  0  0  0  0  0  0  0
   37.6470   28.2110   30.6930 N   0  0  0  0  0  0  0  0  0  0  0  0
  1  2  1  0  0  0  0
  1 13  1  0  0  0  0
  2  7  1  0  0  0  0
  3  8  1  0  0  0  0
  3  2  2  0  0  0  0
  4  3  1  0  0  0  0
  5  4  2  0  0  0  0
  5  6  1  0  0  0  0
  6  1  2  0  0  0  0
  9 10  1  0  0  0  0
 10 11  2  0  0  0  0
 10 17  1  0  0  0  0
 11 16  1  0  0  0  0
 12 11  1  0  0  0  0
 13 12  2  0  0  0  0
 14 13  1  0  0  0  0
 14  9  2  0  0  0  0
 15  9  1  0  0  0  0
 17 19  1  0  0  0  0
 18 17  1  0  0  0  0
 20  5  1  0  0  0  0
 21 22  1  0  0  0  0
 21 20  2  0  0  0  0
 23 24  1  0  0  0  0
 23 21  1  0  0  0  0
 24 26  2  0  0  0  0
 25 24  1  0  0  0  0
 26 20  1  0  0  0  0
M  END
>  <minimizedAffinity>
-4.67732525

$$$$

 OpenBabel03272506593D

 26 28  0  0  0  0  0  0  0  0999 V2000
   37.2240   23.2140   30.9600 C   0  0  0  0  0  0  0  0  0  0  0  0
   38.4190   23.2580   30.3010 C   0  0  0  0  0  0  0  0  0  0  0  0
   39.1700   24.3570   29.9660 C   0  0  0  0  0  0  0  0  0  0  0  0
   38.6290   25.5440   30.3540 N   0  0  0  0  0  0  0  0  0  0  0  0
   37.4460   25.5660   31.0120 C   0  0  0  0  0  0  0  0  0  0  0  0
   36.7490   24.4360   31.3150 N   0  0  0  0  0  0  0  0  0  0  0  0
   38.8460   22.2960   29.9920 H   0  0  0  0  0  0  0  0  0  0  0  0
   40.0990   24.3020   29.4460 H   0  0  0  0  0  0  0  0  0  0  0  0
   36.3370   19.6950   30.9290 C   0  0  0  0  0  0  0  0  0  0  0  0
   35.2380   19.5960   31.7740 C   0  0  0  0  0  0  0  0  0  0  0  0
   34.8050   20.8020   32.3650 C   0  0  0  0  0  0  0  0  0  0  0  0
   35.4550   21.9600   32.0940 N   0  0  0  0  0  0  0  0  0  0  0  0
   36.5220   21.9810   31.2580 C   0  0  0  0  0  0  0  0  0  0  0  0
   36.9950   20.8500   30.6500 N   0  0  0  0  0  0  0  0  0  0  0  0
   36.6730   18.7760   30.4740 H   0  0  0  0  0  0  0  0  0  0  0  0
   33.9500   20.7280   33.0240 H   0  0  0  0  0  0  0  0  0  0  0  0
   34.6200   18.3460   32.0010 N   0  0  0  0  0  0  0  0  0  0  0  0
   34.3020   17.7670   31.1680 H   0  0  0  0  0  0  0  0  0  0  0  0
   34.4710   17.9860   32.9690 H   0  0  0  0  0  0  0  0  0  0  0  0
   36.9240   26.8990   31.4010 C   0  0  0  0  0  0  0  0  0  0  0  0
   36.5440   28.0380   30.5680 C   0  0  0  0  0  0  0  0  0  0  0  0
   36.7000   27.7820   29.4670 H   0  0  0  0  0  0  0  0  0  0  0  0
   36.0290   29.2130   31.8850 S   0  0  0  0  0  0  0  0  0  0  0  0
   36.3790   28.0820   33.2220 C   0  0  0  0  0  0  0  0  0  0  0  0
   36.1980   28.4120   34.2550 H   0  0  0  0  0  0  0  0  0  0  0  0
   36.8130   26.9990   32.7310 N   0  0  0  0  0  0  0  0  0  0  0  0
  1 13  1  0  0  0  0
  1  6  1  0  0  0  0
  2  1  2  0  0  0  0
  3  2  1  0  0  0  0
  3  4  2  0  0  0  0
  4  5  1  0  0  0  0
  5  6  2  0  0  0  0
  5 20  1  0  0  0  0
  7  2  1  0  0  0  0
  8  3  1  0  0  0  0
  9 10  1  0  0  0  0
 10 17  1  0  0  0  0
 10 11  2  0  0  0  0
 11 16  1  0  0  0  0
 12 11  1  0  0  0  0
 13 12  2  0  0  0  0
 14  9  2  0  0  0  0
 14 13  1  0  0  0  0
 15  9  1  0  0  0  0
 17 19  1  0  0  0  0
 18 17  1  0  0  0  0
 20 26  1  0  0  0  0
 21 20  2  0  0  0  0
 21 23  1  0  0  0  0
 22 21  1  0  0  0  0
 23 24  1  0  0  0  0
 24 25  1  0  0  0  0
 26 24  2  0  0  0  0
M  END
>  <minimizedAffinity>
-4.54672527

$$$$

 OpenBabel03272506593D

 26 28  0  0  0  0  0  0  0  0999 V2000
   38.0300   26.2310   34.4530 C   0  0  0  0  0  0  0  0  0  0  0  0
   37.0650   27.1180   34.8320 C   0  0  0  0  0  0  0  0  0  0  0  0
   36.4940   28.1260   34.0960 C   0  0  0  0  0  0  0  0  0  0  0  0
   36.9720   28.2310   32.8250 N   0  0  0  0  0  0  0  0  0  0  0  0
   37.9300   27.3780   32.3900 C   0  0  0  0  0  0  0  0  0  0  0  0
   38.4560   26.3970   33.1740 N   0  0  0  0  0  0  0  0  0  0  0  0
   36.6870   27.0260   35.8580 H   0  0  0  0  0  0  0  0  0  0  0  0
   35.7410   28.7790   34.4720 H   0  0  0  0  0  0  0  0  0  0  0  0
   38.3290   23.9770   37.2820 C   0  0  0  0  0  0  0  0  0  0  0  0
   39.4950   23.2590   37.0450 C   0  0  0  0  0  0  0  0  0  0  0  0
   40.1880   23.5820   35.8590 C   0  0  0  0  0  0  0  0  0  0  0  0
   39.7030   24.5420   35.0330 N   0  0  0  0  0  0  0  0  0  0  0  0
   38.5580   25.2020   35.3290 C   0  0  0  0  0  0  0  0  0  0  0  0
   37.8350   24.9390   36.4610 N   0  0  0  0  0  0  0  0  0  0  0  0
   37.7960   23.7340   38.1870 H   0  0  0  0  0  0  0  0  0  0  0  0
   41.0960   23.0240   35.6720 H   0  0  0  0  0  0  0  0  0  0  0  0
   39.9280   22.2740   37.9620 N   0  0  0  0  0  0  0  0  0  0  0  0
   40.0410   22.5340   38.9850 H   0  0  0  0  0  0  0  0  0  0  0  0
   40.1370   21.3010   37.6480 H   0  0  0  0  0  0  0  0  0  0  0  0
   38.3970   27.5580   30.9940 C   0  0  0  0  0  0  0  0  0  0  0  0
   38.0210   28.5610   29.9990 C   0  0  0  0  0  0  0  0  0  0  0  0
   37.2510   29.2760   30.4420 H   0  0  0  0  0  0  0  0  0  0  0  0
   39.0810   28.0080   28.6020 S   0  0  0  0  0  0  0  0  0  0  0  0
   39.7920   26.6390   29.5020 C   0  0  0  0  0  0  0  0  0  0  0  0
   40.5290   26.0000   28.9960 H   0  0  0  0  0  0  0  0  0  0  0  0
   39.2960   26.6220   30.6670 N   0  0  0  0  0  0  0  0  0  0  0  0
  1  2  1  0  0  0  0
  1 13  1  0  0  0  0
  2  7  1  0  0  0  0
  3  8  1  0  0  0  0
  3  2  2  0  0  0  0
  4  3  1  0  0  0  0
  5  4  2  0  0  0  0
  5  6  1  0  0  0  0
  6  1  2  0  0  0  0
  9 15  1  0  0  0  0
 10  9  1  0  0  0  0
 10 17  1  0  0  0  0
 11 10  2  0  0  0  0
 12 13  2  0  0  0  0
 12 11  1  0  0  0  0
 13 14  1  0  0  0  0
 14  9  2  0  0  0  0
 16 11  1  0  0  0  0
 17 18  1  0  0  0  0
 19 17  1  0  0  0  0
 20  5  1  0  0  0  0
 21 22  1  0  0  0  0
 21 20  2  0  0  0  0
 23 24  1  0  0  0  0
 23 21  1  0  0  0  0
 24 26  2  0  0  0  0
 25 24  1  0  0  0  0
 26 20  1  0  0  0  0
M  END
>  <minimizedAffinity>
-4.53457689

$$$$

 OpenBabel03272506593D

 26 28  0  0  0  0  0  0  0  0999 V2000
   36.8190   27.4020   33.6580 C   0  0  0  0  0  0  0  0  0  0  0  0
   36.7710   27.8080   32.3560 C   0  0  0  0  0  0  0  0  0  0  0  0
   36.3110   28.9970   31.8470 C   0  0  0  0  0  0  0  0  0  0  0  0
   35.8470   29.8650   32.7870 N   0  0  0  0  0  0  0  0  0  0  0  0
   35.8690   29.5210   34.0960 C   0  0  0  0  0  0  0  0  0  0  0  0
   36.3400   28.3210   34.5360 N   0  0  0  0  0  0  0  0  0  0  0  0
   37.1470   27.1000   31.6060 H   0  0  0  0  0  0  0  0  0  0  0  0
   36.3090   29.2340   30.8080 H   0  0  0  0  0  0  0  0  0  0  0  0
   38.0830   24.7580   35.7990 C   0  0  0  0  0  0  0  0  0  0  0  0
   38.3120   23.6860   34.9440 C   0  0  0  0  0  0  0  0  0  0  0  0
   38.0120   23.9070   33.5840 C   0  0  0  0  0  0  0  0  0  0  0  0
   37.5310   25.1100   33.1840 N   0  0  0  0  0  0  0  0  0  0  0  0
   37.3330   26.1110   34.0740 C   0  0  0  0  0  0  0  0  0  0  0  0
   37.6020   25.9660   35.4080 N   0  0  0  0  0  0  0  0  0  0  0  0
   38.3110   24.5950   36.8400 H   0  0  0  0  0  0  0  0  0  0  0  0
   38.1900   23.0740   32.9170 H   0  0  0  0  0  0  0  0  0  0  0  0
   38.8170   22.4650   35.4480 N   0  0  0  0  0  0  0  0  0  0  0  0
   39.7080   22.4730   36.0250 H   0  0  0  0  0  0  0  0  0  0  0  0
   38.3290   21.5620   35.2590 H   0  0  0  0  0  0  0  0  0  0  0  0
   35.3470   30.5220   35.0570 C   0  0  0  0  0  0  0  0  0  0  0  0
   36.0590   31.5140   35.8600 C   0  0  0  0  0  0  0  0  0  0  0  0
   37.1800   31.4430   35.6580 H   0  0  0  0  0  0  0  0  0  0  0  0
   34.6300   32.2840   36.7230 S   0  0  0  0  0  0  0  0  0  0  0  0
   33.4150   31.2380   35.9350 C   0  0  0  0  0  0  0  0  0  0  0  0
   32.3550   31.3770   36.1890 H   0  0  0  0  0  0  0  0  0  0  0  0
   34.0140   30.4450   35.1510 N   0  0  0  0  0  0  0  0  0  0  0  0
  1 13  1  0  0  0  0
  1  6  1  0  0  0  0
  2  1  2  0  0  0  0
  3  2  1  0  0  0  0
  3  4  2  0  0  0  0
  4  5  1  0  0  0  0
  5  6  2  0  0  0  0
  5 20  1  0  0  0  0
  7  2  1  0  0  0  0
  8  3  1  0  0  0  0
  9 15  1  0  0  0  0
 10 17  1  0  0  0  0
 10  9  2  0  0  0  0
 11 10  1  0  0  0  0
 12 11  2  0  0  0  0
 12 13  1  0  0  0  0
 13 14  2  0  0  0  0
 14  9  1  0  0  0  0
 16 11  1  0  0  0  0
 17 18  1  0  0  0  0
 19 17  1  0  0  0  0
 20 26  1  0  0  0  0
 20 21  2  0  0  0  0
 21 23  1  0  0  0  0
 22 21  1  0  0  0  0
 24 25  1  0  0  0  0
 24 23  1  0  0  0  0
 26 24  2  0  0  0  0
M  END
>  <minimizedAffinity>
-4.46989012

$$$$
