
 OpenBabel03262521463D

 28 29  0  0  0  0  0  0  0  0999 V2000
   36.9410   29.2080   50.5980 C   0  0  0  0  0  0  0  0  0  0  0  0
   37.4700   28.2810   50.9080 H   0  0  0  0  0  0  0  0  0  0  0  0
   36.7280   29.0970   49.5020 H   0  0  0  0  0  0  0  0  0  0  0  0
   37.7250   30.4550   50.8310 C   0  0  0  0  0  0  0  0  0  0  0  0
   37.2420   31.1220   51.5840 H   0  0  0  0  0  0  0  0  0  0  0  0
   38.6880   30.1340   51.3260 H   0  0  0  0  0  0  0  0  0  0  0  0
   38.1060   31.1750   49.6270 C   0  0  0  0  0  0  0  0  0  0  0  0
   38.5370   32.4850   49.6420 C   0  0  0  0  0  0  0  0  0  0  0  0
   38.8830   33.0960   48.4270 C   0  0  0  0  0  0  0  0  0  0  0  0
   38.7680   32.3440   47.2820 N   0  0  0  0  0  0  0  0  0  0  0  0
   38.3390   31.0580   47.3060 C   0  0  0  0  0  0  0  0  0  0  0  0
   38.0100   30.4890   48.5000 N   0  0  0  0  0  0  0  0  0  0  0  0
   38.6120   33.0380   50.5660 H   0  0  0  0  0  0  0  0  0  0  0  0
   39.2280   34.1220   48.3790 H   0  0  0  0  0  0  0  0  0  0  0  0
   38.2700   30.5160   46.3630 H   0  0  0  0  0  0  0  0  0  0  0  0
   35.7070   29.3430   51.2430 O   0  0  0  0  0  0  0  0  0  0  0  0
   34.6920   30.6670   49.2490 O   0  0  0  0  0  0  0  0  0  0  0  0
   34.4430   29.4400   50.1390 P   0  0  2  0  0  0  0  0  0  0  0  0
   32.9770   29.7260   50.8970 O   0  0  0  0  0  0  0  0  0  0  0  0
   32.8170   29.2040   51.7050 H   0  0  0  0  0  0  0  0  0  0  0  0
   34.3180   28.0480   49.2190 O   0  0  0  0  0  0  0  0  0  0  0  0
   33.2930   27.9500   48.2540 C   0  0  0  0  0  0  0  0  0  0  0  0
   31.9590   27.4860   48.4930 C   0  0  0  0  0  0  0  0  0  0  0  0
   31.6890   27.1950   49.4230 H   0  0  0  0  0  0  0  0  0  0  0  0
   31.2510   27.6390   46.8430 S   0  0  0  0  0  0  0  0  0  0  0  0
   32.8840   28.3080   46.0910 C   0  0  0  0  0  0  0  0  0  0  0  0
   33.0340   28.5950   45.0150 H   0  0  0  0  0  0  0  0  0  0  0  0
   33.7980   28.3620   47.1050 N   0  0  0  0  0  0  0  0  0  0  0  0
  1  4  1  0  0  0  0
  1  2  1  0  0  0  0
  1 16  1  0  0  0  0
  3  1  1  0  0  0  0
  4  6  1  0  0  0  0
  4  5  1  0  0  0  0
  7  8  1  0  0  0  0
  7  4  1  0  0  0  0
  8 13  1  0  0  0  0
  9  8  2  0  0  0  0
 10 11  2  0  0  0  0
 10  9  1  0  0  0  0
 11 12  1  0  0  0  0
 12  7  2  0  0  0  0
 14  9  1  0  0  0  0
 15 11  1  0  0  0  0
 18 17  2  6  0  0  0
 18 19  1  0  0  0  0
 18 16  1  0  0  0  0
 19 20  1  0  0  0  0
 21 18  1  0  0  0  0
 22 23  2  0  0  0  0
 22 21  1  0  0  0  0
 23 24  1  0  0  0  0
 25 23  1  0  0  0  0
 26 25  1  0  0  0  0
 26 28  2  0  0  0  0
 27 26  1  0  0  0  0
 28 22  1  0  0  0  0
M  END
>  <minimizedAffinity>
-5.01744795

>  <minimizedRMSD>
0.304763198

$$$$
