
 OpenBabel03272506433D

 30 32  0  0  1  0  0  0  0  0999 V2000
   32.3970   28.3590   47.4720 C   0  0  2  0  0  0  0  0  0  0  0  0
   33.6240   28.4110   48.3680 C   0  0  1  0  0  0  0  0  0  0  0  0
   34.1960   27.1590   48.3690 O   0  0  0  0  0  0  0  0  0  0  0  0
   33.5670   26.3810   47.4280 C   0  0  0  0  0  0  0  0  0  0  0  0
   32.8560   27.3430   46.4720 C   0  0  1  0  0  0  0  0  0  0  0  0
   31.5090   27.9750   48.0200 H   0  0  0  0  0  0  0  0  0  0  0  0
   33.3340   28.7950   49.3530 H   0  0  0  0  0  0  0  0  0  0  0  0
   32.8660   25.6400   47.8590 H   0  0  0  0  0  0  0  0  0  0  0  0
   34.3520   25.8920   46.8070 H   0  0  0  0  0  0  0  0  0  0  0  0
   33.5590   27.7450   45.7400 H   0  0  0  0  0  0  0  0  0  0  0  0
   32.1360   29.5940   46.8990 O   0  0  0  0  0  0  0  0  0  0  0  0
   31.8600   30.2180   47.5960 H   0  0  0  0  0  0  0  0  0  0  0  0
   34.7950   29.5470   47.5340 S   0  0  0  0  0  0  0  0  0  0  0  0
   37.3850   29.4880   50.5210 C   0  0  0  0  0  0  0  0  0  0  0  0
   37.9940   30.7390   50.5100 C   0  0  0  0  0  0  0  0  0  0  0  0
   37.5840   31.6530   49.5280 C   0  0  0  0  0  0  0  0  0  0  0  0
   36.6250   31.2540   48.6600 N   0  0  0  0  0  0  0  0  0  0  0  0
   36.0530   30.0400   48.6920 C   0  0  0  0  0  0  0  0  0  0  0  0
   36.4350   29.1470   49.6300 N   0  0  0  0  0  0  0  0  0  0  0  0
   37.7250   28.8050   51.2930 H   0  0  0  0  0  0  0  0  0  0  0  0
   38.7620   31.0500   51.2110 H   0  0  0  0  0  0  0  0  0  0  0  0
   37.9880   32.6480   49.4280 H   0  0  0  0  0  0  0  0  0  0  0  0
   31.8120   26.6780   45.8370 O   0  0  0  0  0  0  0  0  0  0  0  0
   31.6110   27.0010   44.4870 C   0  0  0  0  0  0  0  0  0  0  0  0
   32.8410   27.4890   43.9110 C   0  0  0  0  0  0  0  0  0  0  0  0
   33.8360   27.6660   44.2200 H   0  0  0  0  0  0  0  0  0  0  0  0
   32.3440   27.8570   42.1180 S   0  0  0  0  0  0  0  0  0  0  0  0
   30.5800   27.2770   42.5240 C   0  0  0  0  0  0  0  0  0  0  0  0
   29.4140   27.0760   42.1310 H   0  0  0  0  0  0  0  0  0  0  0  0
   30.6230   26.9830   43.6130 N   0  0  0  0  0  0  0  0  0  0  0  0
  1  6  1  1  0  0  0
  1  2  1  0  0  0  0
  2  3  1  0  0  0  0
  2  7  1  1  0  0  0
  4  8  1  0  0  0  0
  4  3  1  0  0  0  0
  5 10  1  6  0  0  0
  5  4  1  0  0  0  0
  5  1  1  0  0  0  0
  9  4  1  0  0  0  0
 11  1  1  0  0  0  0
 11 12  1  0  0  0  0
 13  2  1  0  0  0  0
 13 18  1  0  0  0  0
 14 20  1  0  0  0  0
 15 14  1  0  0  0  0
 15 21  1  0  0  0  0
 16 15  2  0  0  0  0
 17 18  2  0  0  0  0
 17 16  1  0  0  0  0
 18 19  1  0  0  0  0
 19 14  2  0  0  0  0
 22 16  1  0  0  0  0
 23  5  1  0  0  0  0
 24 23  1  0  0  0  0
 25 26  1  0  0  0  0
 25 24  2  0  0  0  0
 27 28  1  0  0  0  0
 27 25  1  0  0  0  0
 28 30  2  0  0  0  0
 29 28  1  0  0  0  0
 30 24  1  0  0  0  0
M  END
>  <minimizedAffinity>
-3.70359874

>  <minimizedRMSD>
0.462852269

$$$$
