
 OpenBabel03272503033D

 26 28  0  0  0  0  0  0  0  0999 V2000
   37.5570   23.4570   33.3390 F   0  0  0  0  0  0  0  0  0  0  0  0
   36.7840   24.2070   32.5010 C   0  0  0  0  0  0  0  0  0  0  0  0
   35.9800   23.5800   31.5990 C   0  0  0  0  0  0  0  0  0  0  0  0
   35.2370   24.4050   30.7990 C   0  0  0  0  0  0  0  0  0  0  0  0
   35.2770   25.7760   30.8760 C   0  0  0  0  0  0  0  0  0  0  0  0
   36.1020   26.3610   31.8010 C   0  0  0  0  0  0  0  0  0  0  0  0
   36.8820   25.5760   32.6420 C   0  0  0  0  0  0  0  0  0  0  0  0
   34.5810   23.9400   30.0630 H   0  0  0  0  0  0  0  0  0  0  0  0
   34.6730   26.4040   30.2240 H   0  0  0  0  0  0  0  0  0  0  0  0
   36.1350   27.4330   31.8620 H   0  0  0  0  0  0  0  0  0  0  0  0
   35.0330   19.9650   32.1810 C   0  0  0  0  0  0  0  0  0  0  0  0
   35.0220   21.3630   32.2300 C   0  0  0  0  0  0  0  0  0  0  0  0
   35.9750   22.1260   31.5600 C   0  0  0  0  0  0  0  0  0  0  0  0
   36.9060   21.4310   30.8600 N   0  0  0  0  0  0  0  0  0  0  0  0
   36.9020   20.0830   30.8230 C   0  0  0  0  0  0  0  0  0  0  0  0
   35.9880   19.3620   31.4670 N   0  0  0  0  0  0  0  0  0  0  0  0
   34.2230   19.5280   32.7570 H   0  0  0  0  0  0  0  0  0  0  0  0
   34.2900   21.9690   32.7810 H   0  0  0  0  0  0  0  0  0  0  0  0
   37.6610   19.5570   30.2550 H   0  0  0  0  0  0  0  0  0  0  0  0
   37.7800   26.1740   33.6480 C   0  0  0  0  0  0  0  0  0  0  0  0
   37.2790   26.4910   34.9430 C   0  0  0  0  0  0  0  0  0  0  0  0
   36.2910   26.3570   35.3400 H   0  0  0  0  0  0  0  0  0  0  0  0
   38.7830   27.1930   35.7700 S   0  0  0  0  0  0  0  0  0  0  0  0
   39.8010   26.9330   34.2270 C   0  0  0  0  0  0  0  0  0  0  0  0
   40.9160   27.1320   33.9210 H   0  0  0  0  0  0  0  0  0  0  0  0
   39.0550   26.4660   33.4800 N   0  0  0  0  0  0  0  0  0  0  0  0
  2  7  1  0  0  0  0
  2  1  1  0  0  0  0
  3  2  2  0  0  0  0
  4  5  2  0  0  0  0
  4  3  1  0  0  0  0
  5  6  1  0  0  0  0
  6 10  1  0  0  0  0
  6  7  2  0  0  0  0
  7 20  1  0  0  0  0
  8  4  1  0  0  0  0
  9  5  1  0  0  0  0
 11 12  1  0  0  0  0
 11 17  1  0  0  0  0
 12 18  1  0  0  0  0
 13  3  1  0  0  0  0
 13 12  2  0  0  0  0
 14 13  1  0  0  0  0
 15 14  2  0  0  0  0
 15 16  1  0  0  0  0
 16 11  2  0  0  0  0
 19 15  1  0  0  0  0
 20 21  2  0  0  0  0
 21 22  1  0  0  0  0
 21 23  1  0  0  0  0
 24 23  1  0  0  0  0
 25 24  1  0  0  0  0
 26 20  1  0  0  0  0
 26 24  2  0  0  0  0
M  END
>  <minimizedAffinity>
-4.76057243

$$$$

 OpenBabel03272503033D

 26 28  0  0  0  0  0  0  0  0999 V2000
   35.8480   28.2080   34.6500 F   0  0  0  0  0  0  0  0  0  0  0  0
   35.9910   28.9930   33.5430 C   0  0  0  0  0  0  0  0  0  0  0  0
   35.5350   30.2740   33.5720 C   0  0  0  0  0  0  0  0  0  0  0  0
   35.7190   30.9910   32.4220 C   0  0  0  0  0  0  0  0  0  0  0  0
   36.3210   30.4820   31.2970 C   0  0  0  0  0  0  0  0  0  0  0  0
   36.7650   29.1860   31.3160 C   0  0  0  0  0  0  0  0  0  0  0  0
   36.6060   28.4060   32.4560 C   0  0  0  0  0  0  0  0  0  0  0  0
   35.3660   32.0230   32.4060 H   0  0  0  0  0  0  0  0  0  0  0  0
   36.4520   31.0800   30.3970 H   0  0  0  0  0  0  0  0  0  0  0  0
   37.2360   28.7850   30.4380 H   0  0  0  0  0  0  0  0  0  0  0  0
   34.9670   31.9970   36.8910 C   0  0  0  0  0  0  0  0  0  0  0  0
   35.5890   31.5340   35.7260 C   0  0  0  0  0  0  0  0  0  0  0  0
   34.9050   30.7640   34.7890 C   0  0  0  0  0  0  0  0  0  0  0  0
   33.6070   30.4950   35.0760 N   0  0  0  0  0  0  0  0  0  0  0  0
   33.0240   30.9490   36.2030 C   0  0  0  0  0  0  0  0  0  0  0  0
   33.6840   31.6830   37.0940 N   0  0  0  0  0  0  0  0  0  0  0  0
   35.6410   32.5810   37.5110 H   0  0  0  0  0  0  0  0  0  0  0  0
   36.6350   31.7260   35.4510 H   0  0  0  0  0  0  0  0  0  0  0  0
   31.9840   30.7160   36.4030 H   0  0  0  0  0  0  0  0  0  0  0  0
   37.0740   27.0080   32.5090 C   0  0  0  0  0  0  0  0  0  0  0  0
   38.3760   26.7160   33.0060 C   0  0  0  0  0  0  0  0  0  0  0  0
   39.1270   27.3870   33.3760 H   0  0  0  0  0  0  0  0  0  0  0  0
   38.4370   24.8690   32.8520 S   0  0  0  0  0  0  0  0  0  0  0  0
   36.7070   24.8320   32.1490 C   0  0  0  0  0  0  0  0  0  0  0  0
   35.9790   23.9940   31.7730 H   0  0  0  0  0  0  0  0  0  0  0  0
   36.3940   25.9430   32.1300 N   0  0  0  0  0  0  0  0  0  0  0  0
  2  3  1  0  0  0  0
  2  1  1  0  0  0  0
  3 13  1  0  0  0  0
  4  3  2  0  0  0  0
  5  6  2  0  0  0  0
  5  4  1  0  0  0  0
  6  7  1  0  0  0  0
  7 20  1  0  0  0  0
  7  2  2  0  0  0  0
  8  4  1  0  0  0  0
  9  5  1  0  0  0  0
 10  6  1  0  0  0  0
 11 16  1  0  0  0  0
 11 17  1  0  0  0  0
 12 11  2  0  0  0  0
 13 14  2  0  0  0  0
 13 12  1  0  0  0  0
 14 15  1  0  0  0  0
 15 19  1  0  0  0  0
 15 16  2  0  0  0  0
 18 12  1  0  0  0  0
 20 21  2  0  0  0  0
 21 22  1  0  0  0  0
 23 21  1  0  0  0  0
 24 23  1  0  0  0  0
 25 24  1  0  0  0  0
 26 24  2  0  0  0  0
 26 20  1  0  0  0  0
M  END
>  <minimizedAffinity>
-4.71161842

$$$$

 OpenBabel03272503033D

 26 28  0  0  0  0  0  0  0  0999 V2000
   37.6200   23.3580   33.3080 F   0  0  0  0  0  0  0  0  0  0  0  0
   36.8410   24.1490   32.5150 C   0  0  0  0  0  0  0  0  0  0  0  0
   36.9370   25.5010   32.6250 C   0  0  0  0  0  0  0  0  0  0  0  0
   36.1230   26.2200   31.7930 C   0  0  0  0  0  0  0  0  0  0  0  0
   35.2560   25.6450   30.8960 C   0  0  0  0  0  0  0  0  0  0  0  0
   35.1940   24.2780   30.8220 C   0  0  0  0  0  0  0  0  0  0  0  0
   35.9970   23.4940   31.6420 C   0  0  0  0  0  0  0  0  0  0  0  0
   36.1720   27.3070   31.8510 H   0  0  0  0  0  0  0  0  0  0  0  0
   34.6210   26.2460   30.2480 H   0  0  0  0  0  0  0  0  0  0  0  0
   34.5170   23.8260   30.1220 H   0  0  0  0  0  0  0  0  0  0  0  0
   38.3930   26.9950   35.7810 C   0  0  0  0  0  0  0  0  0  0  0  0
   37.4800   26.4610   34.8650 C   0  0  0  0  0  0  0  0  0  0  0  0
   37.8720   26.0590   33.5910 C   0  0  0  0  0  0  0  0  0  0  0  0
   39.1870   26.2170   33.2970 N   0  0  0  0  0  0  0  0  0  0  0  0
   40.0530   26.7340   34.1920 C   0  0  0  0  0  0  0  0  0  0  0  0
   39.6700   27.1160   35.4070 N   0  0  0  0  0  0  0  0  0  0  0  0
   37.9220   27.2550   36.7240 H   0  0  0  0  0  0  0  0  0  0  0  0
   36.4080   26.3130   35.0560 H   0  0  0  0  0  0  0  0  0  0  0  0
   41.0980   26.8480   33.9260 H   0  0  0  0  0  0  0  0  0  0  0  0
   35.9550   22.0200   31.5860 C   0  0  0  0  0  0  0  0  0  0  0  0
   35.0350   21.3070   32.4060 C   0  0  0  0  0  0  0  0  0  0  0  0
   34.3160   21.6860   33.1060 H   0  0  0  0  0  0  0  0  0  0  0  0
   35.4010   19.5480   31.9470 S   0  0  0  0  0  0  0  0  0  0  0  0
   36.7190   20.0960   30.7430 C   0  0  0  0  0  0  0  0  0  0  0  0
   37.4570   19.5510   30.0130 H   0  0  0  0  0  0  0  0  0  0  0  0
   36.7080   21.2470   30.8280 N   0  0  0  0  0  0  0  0  0  0  0  0
  2  3  1  0  0  0  0
  2  1  1  0  0  0  0
  3 13  1  0  0  0  0
  4  8  1  0  0  0  0
  4  3  2  0  0  0  0
  5  4  1  0  0  0  0
  6  5  2  0  0  0  0
  6  7  1  0  0  0  0
  7  2  2  0  0  0  0
  9  5  1  0  0  0  0
 10  6  1  0  0  0  0
 11 17  1  0  0  0  0
 12 18  1  0  0  0  0
 12 11  2  0  0  0  0
 13 12  1  0  0  0  0
 14 13  2  0  0  0  0
 14 15  1  0  0  0  0
 15 16  2  0  0  0  0
 16 11  1  0  0  0  0
 19 15  1  0  0  0  0
 20  7  1  0  0  0  0
 20 21  2  0  0  0  0
 21 22  1  0  0  0  0
 23 21  1  0  0  0  0
 24 26  2  0  0  0  0
 24 23  1  0  0  0  0
 25 24  1  0  0  0  0
 26 20  1  0  0  0  0
M  END
>  <minimizedAffinity>
-4.68929815

$$$$

 OpenBabel03272503033D

 26 28  0  0  0  0  0  0  0  0999 V2000
   37.1600   28.1550   35.5650 F   0  0  0  0  0  0  0  0  0  0  0  0
   36.8450   28.0580   34.2410 C   0  0  0  0  0  0  0  0  0  0  0  0
   37.4630   27.1170   33.4770 C   0  0  0  0  0  0  0  0  0  0  0  0
   37.0890   27.0860   32.1620 C   0  0  0  0  0  0  0  0  0  0  0  0
   36.1550   27.9330   31.6180 C   0  0  0  0  0  0  0  0  0  0  0  0
   35.5590   28.8640   32.4270 C   0  0  0  0  0  0  0  0  0  0  0  0
   35.8980   28.9450   33.7730 C   0  0  0  0  0  0  0  0  0  0  0  0
   37.5630   26.3450   31.5170 H   0  0  0  0  0  0  0  0  0  0  0  0
   35.8790   27.8830   30.5660 H   0  0  0  0  0  0  0  0  0  0  0  0
   34.8280   29.5290   32.0030 H   0  0  0  0  0  0  0  0  0  0  0  0
   40.6990   25.7750   34.9050 C   0  0  0  0  0  0  0  0  0  0  0  0
   39.7690   26.6280   34.3010 C   0  0  0  0  0  0  0  0  0  0  0  0
   38.4450   26.2440   34.1030 C   0  0  0  0  0  0  0  0  0  0  0  0
   38.1180   24.9990   34.5320 N   0  0  0  0  0  0  0  0  0  0  0  0
   39.0270   24.1900   35.1120 C   0  0  0  0  0  0  0  0  0  0  0  0
   40.2900   24.5650   35.2960 N   0  0  0  0  0  0  0  0  0  0  0  0
   41.6820   26.2300   34.9810 H   0  0  0  0  0  0  0  0  0  0  0  0
   39.9860   27.6420   33.9380 H   0  0  0  0  0  0  0  0  0  0  0  0
   38.7340   23.2010   35.4430 H   0  0  0  0  0  0  0  0  0  0  0  0
   35.2740   29.9360   34.6700 C   0  0  0  0  0  0  0  0  0  0  0  0
   33.8660   29.9120   34.8810 C   0  0  0  0  0  0  0  0  0  0  0  0
   33.1300   29.2480   34.4700 H   0  0  0  0  0  0  0  0  0  0  0  0
   33.6330   31.3280   36.0560 S   0  0  0  0  0  0  0  0  0  0  0  0
   35.4650   31.6890   36.0450 C   0  0  0  0  0  0  0  0  0  0  0  0
   36.1620   32.4770   36.5630 H   0  0  0  0  0  0  0  0  0  0  0  0
   35.8990   30.8900   35.3330 N   0  0  0  0  0  0  0  0  0  0  0  0
  2  1  1  0  0  0  0
  3 13  1  0  0  0  0
  3  2  2  0  0  0  0
  4  3  1  0  0  0  0
  5  4  2  0  0  0  0
  5  6  1  0  0  0  0
  6  7  2  0  0  0  0
  7  2  1  0  0  0  0
  7 20  1  0  0  0  0
  8  4  1  0  0  0  0
  9  5  1  0  0  0  0
 10  6  1  0  0  0  0
 11 17  1  0  0  0  0
 11 16  1  0  0  0  0
 12 11  2  0  0  0  0
 13 12  1  0  0  0  0
 13 14  2  0  0  0  0
 14 15  1  0  0  0  0
 15 16  2  0  0  0  0
 15 19  1  0  0  0  0
 18 12  1  0  0  0  0
 20 21  2  0  0  0  0
 20 26  1  0  0  0  0
 21 23  1  0  0  0  0
 22 21  1  0  0  0  0
 24 23  1  0  0  0  0
 24 25  1  0  0  0  0
 26 24  2  0  0  0  0
M  END
>  <minimizedAffinity>
-4.55483246

$$$$

 OpenBabel03272503033D

 26 28  0  0  0  0  0  0  0  0999 V2000
   35.3670   28.5000   34.2260 F   0  0  0  0  0  0  0  0  0  0  0  0
   35.7650   29.2540   33.1600 C   0  0  0  0  0  0  0  0  0  0  0  0
   36.2620   28.6340   32.0560 C   0  0  0  0  0  0  0  0  0  0  0  0
   36.6360   29.4630   31.0340 C   0  0  0  0  0  0  0  0  0  0  0  0
   36.5290   30.8310   31.0870 C   0  0  0  0  0  0  0  0  0  0  0  0
   36.0220   31.4090   32.2210 C   0  0  0  0  0  0  0  0  0  0  0  0
   35.6250   30.6200   33.2940 C   0  0  0  0  0  0  0  0  0  0  0  0
   37.0400   29.0030   30.1310 H   0  0  0  0  0  0  0  0  0  0  0  0
   36.8360   31.4620   30.2560 H   0  0  0  0  0  0  0  0  0  0  0  0
   35.9380   32.4790   32.2650 H   0  0  0  0  0  0  0  0  0  0  0  0
   35.6260   24.9880   31.2770 C   0  0  0  0  0  0  0  0  0  0  0  0
   35.5230   26.3830   31.2690 C   0  0  0  0  0  0  0  0  0  0  0  0
   36.3540   27.1820   32.0510 C   0  0  0  0  0  0  0  0  0  0  0  0
   37.2620   26.5240   32.8150 N   0  0  0  0  0  0  0  0  0  0  0  0
   37.3470   25.1790   32.8110 C   0  0  0  0  0  0  0  0  0  0  0  0
   36.5490   24.4240   32.0610 N   0  0  0  0  0  0  0  0  0  0  0  0
   34.9050   24.5210   30.6120 H   0  0  0  0  0  0  0  0  0  0  0  0
   34.8060   26.9600   30.6690 H   0  0  0  0  0  0  0  0  0  0  0  0
   38.0840   24.6840   33.4330 H   0  0  0  0  0  0  0  0  0  0  0  0
   35.0740   31.2120   34.5280 C   0  0  0  0  0  0  0  0  0  0  0  0
   35.9390   31.4940   35.6240 C   0  0  0  0  0  0  0  0  0  0  0  0
   36.9970   31.3400   35.7100 H   0  0  0  0  0  0  0  0  0  0  0  0
   34.7580   32.2020   36.8670 S   0  0  0  0  0  0  0  0  0  0  0  0
   33.3260   31.9860   35.6870 C   0  0  0  0  0  0  0  0  0  0  0  0
   32.1750   32.2070   35.7250 H   0  0  0  0  0  0  0  0  0  0  0  0
   33.8120   31.5240   34.7470 N   0  0  0  0  0  0  0  0  0  0  0  0
  2  7  1  0  0  0  0
  2  1  1  0  0  0  0
  3  2  2  0  0  0  0
  4  5  2  0  0  0  0
  4  3  1  0  0  0  0
  5  6  1  0  0  0  0
  6 10  1  0  0  0  0
  6  7  2  0  0  0  0
  7 20  1  0  0  0  0
  8  4  1  0  0  0  0
  9  5  1  0  0  0  0
 11 16  1  0  0  0  0
 12 11  2  0  0  0  0
 12 13  1  0  0  0  0
 13  3  1  0  0  0  0
 13 14  2  0  0  0  0
 15 14  1  0  0  0  0
 15 19  1  0  0  0  0
 16 15  2  0  0  0  0
 17 11  1  0  0  0  0
 18 12  1  0  0  0  0
 20 26  1  0  0  0  0
 20 21  2  0  0  0  0
 21 22  1  0  0  0  0
 21 23  1  0  0  0  0
 24 25  1  0  0  0  0
 24 23  1  0  0  0  0
 26 24  2  0  0  0  0
M  END
>  <minimizedAffinity>
-4.55088806

$$$$

 OpenBabel03272503033D

 26 28  0  0  0  0  0  0  0  0999 V2000
   36.3020   27.9690   34.9030 F   0  0  0  0  0  0  0  0  0  0  0  0
   36.2850   28.5280   33.6580 C   0  0  0  0  0  0  0  0  0  0  0  0
   35.6990   29.7430   33.4830 C   0  0  0  0  0  0  0  0  0  0  0  0
   35.7270   30.2320   32.2060 C   0  0  0  0  0  0  0  0  0  0  0  0
   36.2990   29.5660   31.1500 C   0  0  0  0  0  0  0  0  0  0  0  0
   36.8770   28.3450   31.3760 C   0  0  0  0  0  0  0  0  0  0  0  0
   36.8800   27.7950   32.6530 C   0  0  0  0  0  0  0  0  0  0  0  0
   35.2680   31.2040   32.0260 H   0  0  0  0  0  0  0  0  0  0  0  0
   36.3040   29.9830   30.1450 H   0  0  0  0  0  0  0  0  0  0  0  0
   37.3240   27.8210   30.5510 H   0  0  0  0  0  0  0  0  0  0  0  0
   33.2110   30.9200   36.0770 C   0  0  0  0  0  0  0  0  0  0  0  0
   33.7610   30.2750   34.9650 C   0  0  0  0  0  0  0  0  0  0  0  0
   35.1080   30.4070   34.6360 C   0  0  0  0  0  0  0  0  0  0  0  0
   35.8460   31.1940   35.4580 N   0  0  0  0  0  0  0  0  0  0  0  0
   35.2980   31.8090   36.5260 C   0  0  0  0  0  0  0  0  0  0  0  0
   34.0110   31.6790   36.8320 N   0  0  0  0  0  0  0  0  0  0  0  0
   32.1510   30.7120   36.1880 H   0  0  0  0  0  0  0  0  0  0  0  0
   33.2060   29.6280   34.2710 H   0  0  0  0  0  0  0  0  0  0  0  0
   35.9150   32.4330   37.1630 H   0  0  0  0  0  0  0  0  0  0  0  0
   37.4940   26.4820   32.9290 C   0  0  0  0  0  0  0  0  0  0  0  0
   36.8490   25.2920   32.4860 C   0  0  0  0  0  0  0  0  0  0  0  0
   35.9280   25.1800   31.9470 H   0  0  0  0  0  0  0  0  0  0  0  0
   38.0180   23.9820   33.0830 S   0  0  0  0  0  0  0  0  0  0  0  0
   39.1530   25.2720   33.8140 C   0  0  0  0  0  0  0  0  0  0  0  0
   40.1680   25.2520   34.4000 H   0  0  0  0  0  0  0  0  0  0  0  0
   38.6270   26.2710   33.5700 N   0  0  0  0  0  0  0  0  0  0  0  0
  2  1  1  0  0  0  0
  3  2  1  0  0  0  0
  3 13  1  0  0  0  0
  4  3  2  0  0  0  0
  5  6  2  0  0  0  0
  5  4  1  0  0  0  0
  6  7  1  0  0  0  0
  7 20  1  0  0  0  0
  7  2  2  0  0  0  0
  8  4  1  0  0  0  0
  9  5  1  0  0  0  0
 10  6  1  0  0  0  0
 11 17  1  0  0  0  0
 11 16  1  0  0  0  0
 12 11  2  0  0  0  0
 13 12  1  0  0  0  0
 13 14  2  0  0  0  0
 14 15  1  0  0  0  0
 15 16  2  0  0  0  0
 15 19  1  0  0  0  0
 18 12  1  0  0  0  0
 20 26  1  0  0  0  0
 21 20  2  0  0  0  0
 21 23  1  0  0  0  0
 22 21  1  0  0  0  0
 23 24  1  0  0  0  0
 24 25  1  0  0  0  0
 26 24  2  0  0  0  0
M  END
>  <minimizedAffinity>
-4.54822254

$$$$

 OpenBabel03272503033D

 26 28  0  0  0  0  0  0  0  0999 V2000
   37.1990   25.8560   33.6350 F   0  0  0  0  0  0  0  0  0  0  0  0
   38.5340   26.1170   33.7520 C   0  0  0  0  0  0  0  0  0  0  0  0
   39.2580   25.4670   34.7030 C   0  0  0  0  0  0  0  0  0  0  0  0
   40.5870   25.7860   34.7510 C   0  0  0  0  0  0  0  0  0  0  0  0
   41.1820   26.6950   33.9110 C   0  0  0  0  0  0  0  0  0  0  0  0
   40.4110   27.3240   32.9690 C   0  0  0  0  0  0  0  0  0  0  0  0
   39.0530   27.0430   32.8710 C   0  0  0  0  0  0  0  0  0  0  0  0
   41.2010   25.2850   35.5010 H   0  0  0  0  0  0  0  0  0  0  0  0
   42.2430   26.9260   33.9760 H   0  0  0  0  0  0  0  0  0  0  0  0
   40.8730   28.0360   32.3110 H   0  0  0  0  0  0  0  0  0  0  0  0
   37.5340   23.8980   37.6820 C   0  0  0  0  0  0  0  0  0  0  0  0
   38.1860   24.8280   36.8650 C   0  0  0  0  0  0  0  0  0  0  0  0
   38.5790   24.5130   35.5670 C   0  0  0  0  0  0  0  0  0  0  0  0
   38.2910   23.2550   35.1490 N   0  0  0  0  0  0  0  0  0  0  0  0
   37.6630   22.3710   35.9490 C   0  0  0  0  0  0  0  0  0  0  0  0
   37.2910   22.6800   37.1880 N   0  0  0  0  0  0  0  0  0  0  0  0
   37.2990   24.3050   38.6610 H   0  0  0  0  0  0  0  0  0  0  0  0
   38.4400   25.8560   37.1590 H   0  0  0  0  0  0  0  0  0  0  0  0
   37.4480   21.3730   35.5850 H   0  0  0  0  0  0  0  0  0  0  0  0
   38.1960   27.7020   31.8670 C   0  0  0  0  0  0  0  0  0  0  0  0
   38.4940   27.5630   30.4820 C   0  0  0  0  0  0  0  0  0  0  0  0
   39.2910   27.0210   30.0100 H   0  0  0  0  0  0  0  0  0  0  0  0
   37.1420   28.5620   29.7000 S   0  0  0  0  0  0  0  0  0  0  0  0
   36.4300   28.9810   31.3750 C   0  0  0  0  0  0  0  0  0  0  0  0
   35.5170   29.6090   31.7580 H   0  0  0  0  0  0  0  0  0  0  0  0
   37.1340   28.4430   32.1150 N   0  0  0  0  0  0  0  0  0  0  0  0
  1  2  1  0  0  0  0
  2  3  1  0  0  0  0
  3  4  2  0  0  0  0
  3 13  1  0  0  0  0
  4  8  1  0  0  0  0
  5  9  1  0  0  0  0
  5  4  1  0  0  0  0
  6  5  2  0  0  0  0
  7  6  1  0  0  0  0
  7  2  2  0  0  0  0
 10  6  1  0  0  0  0
 11 17  1  0  0  0  0
 12 18  1  0  0  0  0
 12 11  2  0  0  0  0
 13 12  1  0  0  0  0
 14 13  2  0  0  0  0
 14 15  1  0  0  0  0
 15 16  2  0  0  0  0
 16 11  1  0  0  0  0
 19 15  1  0  0  0  0
 20 26  1  0  0  0  0
 20  7  1  0  0  0  0
 21 20  2  0  0  0  0
 22 21  1  0  0  0  0
 23 21  1  0  0  0  0
 23 24  1  0  0  0  0
 24 25  1  0  0  0  0
 24 26  2  0  0  0  0
M  END
>  <minimizedAffinity>
-4.49893475

$$$$

 OpenBabel03272503033D

 26 28  0  0  0  0  0  0  0  0999 V2000
   37.0500   25.7040   32.5280 F   0  0  0  0  0  0  0  0  0  0  0  0
   37.5010   26.1520   33.7360 C   0  0  0  0  0  0  0  0  0  0  0  0
   37.2660   27.4420   34.0960 C   0  0  0  0  0  0  0  0  0  0  0  0
   37.7500   27.8090   35.3220 C   0  0  0  0  0  0  0  0  0  0  0  0
   38.4300   26.9550   36.1570 C   0  0  0  0  0  0  0  0  0  0  0  0
   38.6420   25.6650   35.7490 C   0  0  0  0  0  0  0  0  0  0  0  0
   38.1740   25.2330   34.5130 C   0  0  0  0  0  0  0  0  0  0  0  0
   37.5820   28.8360   35.6470 H   0  0  0  0  0  0  0  0  0  0  0  0
   38.8030   27.2790   37.1270 H   0  0  0  0  0  0  0  0  0  0  0  0
   39.1740   24.9950   36.4000 H   0  0  0  0  0  0  0  0  0  0  0  0
   34.6220   29.6920   32.5960 C   0  0  0  0  0  0  0  0  0  0  0  0
   35.3050   28.8650   33.4940 C   0  0  0  0  0  0  0  0  0  0  0  0
   36.5400   28.3040   33.1760 C   0  0  0  0  0  0  0  0  0  0  0  0
   37.0330   28.6100   31.9500 N   0  0  0  0  0  0  0  0  0  0  0  0
   36.3600   29.4080   31.0970 C   0  0  0  0  0  0  0  0  0  0  0  0
   35.1810   29.9390   31.4080 N   0  0  0  0  0  0  0  0  0  0  0  0
   33.6770   30.0440   33.0000 H   0  0  0  0  0  0  0  0  0  0  0  0
   34.9480   28.5900   34.4950 H   0  0  0  0  0  0  0  0  0  0  0  0
   36.7820   29.6330   30.1230 H   0  0  0  0  0  0  0  0  0  0  0  0
   38.3850   23.8490   34.0460 C   0  0  0  0  0  0  0  0  0  0  0  0
   39.4870   23.5510   33.1950 C   0  0  0  0  0  0  0  0  0  0  0  0
   40.2440   24.2060   32.8100 H   0  0  0  0  0  0  0  0  0  0  0  0
   39.2770   21.7280   32.9260 S   0  0  0  0  0  0  0  0  0  0  0  0
   37.7510   21.7060   34.0030 C   0  0  0  0  0  0  0  0  0  0  0  0
   36.9910   20.8850   34.3540 H   0  0  0  0  0  0  0  0  0  0  0  0
   37.6350   22.8050   34.3380 N   0  0  0  0  0  0  0  0  0  0  0  0
  1  2  1  0  0  0  0
  2  3  2  0  0  0  0
  2  7  1  0  0  0  0
  3  4  1  0  0  0  0
  4  8  1  0  0  0  0
  4  5  2  0  0  0  0
  5  9  1  0  0  0  0
  6  5  1  0  0  0  0
  6 10  1  0  0  0  0
  7  6  2  0  0  0  0
 11 17  1  0  0  0  0
 11 12  1  0  0  0  0
 12 18  1  0  0  0  0
 13 12  2  0  0  0  0
 13  3  1  0  0  0  0
 14 13  1  0  0  0  0
 15 16  1  0  0  0  0
 15 14  2  0  0  0  0
 16 11  2  0  0  0  0
 19 15  1  0  0  0  0
 20 26  1  0  0  0  0
 20  7  1  0  0  0  0
 21 20  2  0  0  0  0
 22 21  1  0  0  0  0
 23 21  1  0  0  0  0
 23 24  1  0  0  0  0
 24 26  2  0  0  0  0
 24 25  1  0  0  0  0
M  END
>  <minimizedAffinity>
-4.42567062

$$$$

 OpenBabel03272503033D

 26 28  0  0  0  0  0  0  0  0999 V2000
   37.7140   27.0890   33.4170 F   0  0  0  0  0  0  0  0  0  0  0  0
   37.0730   26.1410   32.6740 C   0  0  0  0  0  0  0  0  0  0  0  0
   36.1760   26.5320   31.7290 C   0  0  0  0  0  0  0  0  0  0  0  0
   35.5790   25.5190   31.0280 C   0  0  0  0  0  0  0  0  0  0  0  0
   35.8470   24.1890   31.2400 C   0  0  0  0  0  0  0  0  0  0  0  0
   36.7590   23.8450   32.2030 C   0  0  0  0  0  0  0  0  0  0  0  0
   37.3980   24.8290   32.9480 C   0  0  0  0  0  0  0  0  0  0  0  0
   34.8540   25.7920   30.2620 H   0  0  0  0  0  0  0  0  0  0  0  0
   35.3540   23.4070   30.6650 H   0  0  0  0  0  0  0  0  0  0  0  0
   36.9690   22.8050   32.3710 H   0  0  0  0  0  0  0  0  0  0  0  0
   36.3570   30.0800   30.4300 C   0  0  0  0  0  0  0  0  0  0  0  0
   36.6080   28.7130   30.5940 C   0  0  0  0  0  0  0  0  0  0  0  0
   35.9290   27.9540   31.5450 C   0  0  0  0  0  0  0  0  0  0  0  0
   35.0180   28.6210   32.2950 N   0  0  0  0  0  0  0  0  0  0  0  0
   34.7890   29.9390   32.1250 C   0  0  0  0  0  0  0  0  0  0  0  0
   35.4420   30.6560   31.2150 N   0  0  0  0  0  0  0  0  0  0  0  0
   36.9710   30.5180   29.6480 H   0  0  0  0  0  0  0  0  0  0  0  0
   37.3340   28.1310   30.0110 H   0  0  0  0  0  0  0  0  0  0  0  0
   34.0540   30.4420   32.7420 H   0  0  0  0  0  0  0  0  0  0  0  0
   38.3850   24.4910   33.9920 C   0  0  0  0  0  0  0  0  0  0  0  0
   39.7390   24.2400   33.6290 C   0  0  0  0  0  0  0  0  0  0  0  0
   40.1960   24.2570   32.6590 H   0  0  0  0  0  0  0  0  0  0  0  0
   40.5120   23.8780   35.2760 S   0  0  0  0  0  0  0  0  0  0  0  0
   38.8770   24.1300   36.1420 C   0  0  0  0  0  0  0  0  0  0  0  0
   38.5070   24.0790   37.2540 H   0  0  0  0  0  0  0  0  0  0  0  0
   38.1490   24.3890   35.2850 N   0  0  0  0  0  0  0  0  0  0  0  0
  2  7  1  0  0  0  0
  2  1  1  0  0  0  0
  3  2  2  0  0  0  0
  4  5  2  0  0  0  0
  4  3  1  0  0  0  0
  5  6  1  0  0  0  0
  6 10  1  0  0  0  0
  6  7  2  0  0  0  0
  7 20  1  0  0  0  0
  8  4  1  0  0  0  0
  9  5  1  0  0  0  0
 11 12  2  0  0  0  0
 11 16  1  0  0  0  0
 12 13  1  0  0  0  0
 13  3  1  0  0  0  0
 13 14  2  0  0  0  0
 15 14  1  0  0  0  0
 15 19  1  0  0  0  0
 16 15  2  0  0  0  0
 17 11  1  0  0  0  0
 18 12  1  0  0  0  0
 20 26  1  0  0  0  0
 21 20  2  0  0  0  0
 21 23  1  0  0  0  0
 22 21  1  0  0  0  0
 23 24  1  0  0  0  0
 24 25  1  0  0  0  0
 26 24  2  0  0  0  0
M  END
>  <minimizedAffinity>
-4.40169096

$$$$
