
 OpenBabel03262521463D

 28 29  0  0  0  0  0  0  0  0999 V2000
   36.9550   29.2360   50.6310 C   0  0  0  0  0  0  0  0  0  0  0  0
   37.4820   28.3210   50.9750 H   0  0  0  0  0  0  0  0  0  0  0  0
   36.7560   29.0930   49.5360 H   0  0  0  0  0  0  0  0  0  0  0  0
   37.7320   30.4930   50.8380 C   0  0  0  0  0  0  0  0  0  0  0  0
   37.2440   31.1730   51.5770 H   0  0  0  0  0  0  0  0  0  0  0  0
   38.6960   30.1880   51.3410 H   0  0  0  0  0  0  0  0  0  0  0  0
   38.1090   31.1890   49.6190 C   0  0  0  0  0  0  0  0  0  0  0  0
   38.5340   32.5010   49.6060 C   0  0  0  0  0  0  0  0  0  0  0  0
   38.8770   33.0880   48.3790 C   0  0  0  0  0  0  0  0  0  0  0  0
   38.7670   32.3110   47.2500 N   0  0  0  0  0  0  0  0  0  0  0  0
   38.3450   31.0230   47.3010 C   0  0  0  0  0  0  0  0  0  0  0  0
   38.0180   30.4780   48.5070 N   0  0  0  0  0  0  0  0  0  0  0  0
   38.6040   33.0750   50.5190 H   0  0  0  0  0  0  0  0  0  0  0  0
   39.2170   34.1150   48.3100 H   0  0  0  0  0  0  0  0  0  0  0  0
   38.2800   30.4620   46.3710 H   0  0  0  0  0  0  0  0  0  0  0  0
   35.7120   29.3860   51.2560 O   0  0  0  0  0  0  0  0  0  0  0  0
   34.6980   30.5980   49.1910 O   0  0  0  0  0  0  0  0  0  0  0  0
   34.4590   29.4100   50.1360 P   0  0  2  0  0  0  0  0  0  0  0  0
   32.9800   29.7070   50.8640 O   0  0  0  0  0  0  0  0  0  0  0  0
   32.8200   29.2210   51.6940 H   0  0  0  0  0  0  0  0  0  0  0  0
   34.3660   27.9740   49.2810 O   0  0  0  0  0  0  0  0  0  0  0  0
   33.4540   27.8680   48.2100 C   0  0  0  0  0  0  0  0  0  0  0  0
   33.7920   27.8780   46.8180 C   0  0  0  0  0  0  0  0  0  0  0  0
   34.7600   27.9680   46.5390 H   0  0  0  0  0  0  0  0  0  0  0  0
   32.1600   27.7070   46.0750 S   0  0  0  0  0  0  0  0  0  0  0  0
   31.2770   27.6490   47.7800 C   0  0  0  0  0  0  0  0  0  0  0  0
   30.1690   27.5440   47.9330 H   0  0  0  0  0  0  0  0  0  0  0  0
   32.2460   27.7590   48.7340 N   0  0  0  0  0  0  0  0  0  0  0  0
  1  4  1  0  0  0  0
  1  2  1  0  0  0  0
  1 16  1  0  0  0  0
  3  1  1  0  0  0  0
  4  6  1  0  0  0  0
  4  5  1  0  0  0  0
  7  4  1  0  0  0  0
  8  7  1  0  0  0  0
  8 13  1  0  0  0  0
  9  8  2  0  0  0  0
 10 11  2  0  0  0  0
 10  9  1  0  0  0  0
 11 12  1  0  0  0  0
 12  7  2  0  0  0  0
 14  9  1  0  0  0  0
 15 11  1  0  0  0  0
 18 17  2  6  0  0  0
 18 19  1  0  0  0  0
 18 16  1  0  0  0  0
 19 20  1  0  0  0  0
 21 18  1  0  0  0  0
 22 28  1  0  0  0  0
 22 21  1  0  0  0  0
 23 22  2  0  0  0  0
 24 23  1  0  0  0  0
 25 23  1  0  0  0  0
 25 26  1  0  0  0  0
 26 27  1  0  0  0  0
 26 28  2  0  0  0  0
M  END
>  <minimizedAffinity>
-5.0653367

>  <minimizedRMSD>
0.128119394

$$$$
