
 OpenBabel03272500383D

 34 36  0  0  1  0  0  0  0  0999 V2000
   37.1720   30.5000   49.2020 C   0  0  0  0  0  0  0  0  0  0  0  0
   37.2080   31.6900   49.9600 C   0  0  0  0  0  0  0  0  0  0  0  0
   37.8020   32.8080   49.3700 C   0  0  0  0  0  0  0  0  0  0  0  0
   38.3070   32.6810   48.1060 N   0  0  0  0  0  0  0  0  0  0  0  0
   38.2480   31.5230   47.4240 C   0  0  0  0  0  0  0  0  0  0  0  0
   37.6830   30.4300   47.9650 N   0  0  0  0  0  0  0  0  0  0  0  0
   38.8090   31.5000   46.1030 N   0  0  0  0  0  0  0  0  0  0  0  0
   40.1970   31.1240   45.9420 C   0  0  0  0  0  0  0  0  0  0  0  0
   40.7610   32.1620   44.9660 C   0  0  0  0  0  0  0  0  0  0  0  0
   40.1150   31.8210   43.6510 C   0  0  0  0  0  0  0  0  0  0  0  0
   38.6620   32.1390   43.7250 C   0  0  0  0  0  0  0  0  0  0  0  0
   37.9740   31.8450   45.0190 C   0  0  1  0  0  0  0  0  0  0  0  0
   36.7950   31.7380   50.9560 H   0  0  0  0  0  0  0  0  0  0  0  0
   37.8430   33.7170   49.9190 H   0  0  0  0  0  0  0  0  0  0  0  0
   40.7470   31.1950   46.8970 H   0  0  0  0  0  0  0  0  0  0  0  0
   40.3130   30.1340   45.4420 H   0  0  0  0  0  0  0  0  0  0  0  0
   41.8440   31.8900   44.8580 H   0  0  0  0  0  0  0  0  0  0  0  0
   40.5790   33.1860   45.2960 H   0  0  0  0  0  0  0  0  0  0  0  0
   40.3070   30.7400   43.4720 H   0  0  0  0  0  0  0  0  0  0  0  0
   40.5770   32.4110   42.8370 H   0  0  0  0  0  0  0  0  0  0  0  0
   38.1720   31.5060   42.9380 H   0  0  0  0  0  0  0  0  0  0  0  0
   38.5230   33.1760   43.3560 H   0  0  0  0  0  0  0  0  0  0  0  0
   37.4920   32.8180   45.3200 H   0  0  0  0  0  0  0  0  0  0  0  0
   36.9200   30.8040   44.8640 C   0  0  0  0  0  0  0  0  0  0  0  0
   36.9780   29.7000   43.8830 C   0  0  0  0  0  0  0  0  0  0  0  0
   37.9530   29.6820   43.1820 H   0  0  0  0  0  0  0  0  0  0  0  0
   35.4130   28.8230   44.2380 S   0  0  0  0  0  0  0  0  0  0  0  0
   34.9440   30.0160   45.5820 C   0  0  0  0  0  0  0  0  0  0  0  0
   34.0050   29.8710   46.1190 H   0  0  0  0  0  0  0  0  0  0  0  0
   35.8510   30.8090   45.6180 N   0  0  0  0  0  0  0  0  0  0  0  0
   36.5380   29.2870   49.8180 C   0  0  0  0  0  0  0  0  0  0  0  0
   35.7100   29.6950   50.8750 F   0  0  0  0  0  0  0  0  0  0  0  0
   35.8880   28.6010   48.8560 F   0  0  0  0  0  0  0  0  0  0  0  0
   37.5540   28.5430   50.4040 F   0  0  0  0  0  0  0  0  0  0  0  0
  1 31  1  0  0  0  0
  1  2  1  0  0  0  0
  2 13  1  0  0  0  0
  3 14  1  0  0  0  0
  3  2  2  0  0  0  0
  4  3  1  0  0  0  0
  5  6  1  0  0  0  0
  5  4  2  0  0  0  0
  6  1  2  0  0  0  0
  7  5  1  0  0  0  0
  8  7  1  0  0  0  0
  8 15  1  0  0  0  0
  9 18  1  0  0  0  0
  9  8  1  0  0  0  0
 10 11  1  0  0  0  0
 10  9  1  0  0  0  0
 11 12  1  0  0  0  0
 12 23  1  1  0  0  0
 12  7  1  0  0  0  0
 16  8  1  0  0  0  0
 17  9  1  0  0  0  0
 19 10  1  0  0  0  0
 20 10  1  0  0  0  0
 21 11  1  0  0  0  0
 22 11  1  0  0  0  0
 24 12  1  0  0  0  0
 24 30  1  0  0  0  0
 25 27  1  0  0  0  0
 25 24  2  0  0  0  0
 26 25  1  0  0  0  0
 27 28  1  0  0  0  0
 28 30  2  0  0  0  0
 28 29  1  0  0  0  0
 31 34  1  0  0  0  0
 31 32  1  0  0  0  0
 33 31  1  0  0  0  0
M  END
>  <minimizedAffinity>
-6.02371883

>  <minimizedRMSD>
1.01888514

$$$$
