
 OpenBabel03272502403D

 38 41  0  0  1  0  0  0  0  0999 V2000
   38.4120   24.8420   34.6820 N   0  0  0  0  0  0  0  0  0  0  0  0
   38.2410   24.1490   33.4140 C   0  0  0  0  0  0  0  0  0  0  0  0
   37.4560   25.1310   32.5940 C   0  0  0  0  0  0  0  0  0  0  0  0
   37.0760   26.3020   33.6050 C   0  0  1  0  0  0  0  0  0  0  0  0
   38.2730   26.2970   34.4510 C   0  0  0  0  0  0  0  0  0  0  0  0
   37.5920   23.2680   33.5650 H   0  0  0  0  0  0  0  0  0  0  0  0
   39.1840   23.9050   32.9090 H   0  0  0  0  0  0  0  0  0  0  0  0
   38.0440   25.6530   31.8270 H   0  0  0  0  0  0  0  0  0  0  0  0
   36.5130   24.7750   32.1900 H   0  0  0  0  0  0  0  0  0  0  0  0
   36.1670   25.8670   34.0370 H   0  0  0  0  0  0  0  0  0  0  0  0
   39.1560   26.6400   33.8540 H   0  0  0  0  0  0  0  0  0  0  0  0
   38.1980   26.8220   35.4060 H   0  0  0  0  0  0  0  0  0  0  0  0
   35.4980   28.4190   34.6280 F   0  0  0  0  0  0  0  0  0  0  0  0
   36.1010   28.4970   33.4300 C   0  0  0  0  0  0  0  0  0  0  0  0
   36.8440   27.5170   32.8250 C   0  0  0  0  0  0  0  0  0  0  0  0
   37.3980   27.7970   31.5660 C   0  0  0  0  0  0  0  0  0  0  0  0
   37.2220   29.0040   30.9350 C   0  0  0  0  0  0  0  0  0  0  0  0
   36.4560   29.9820   31.5840 C   0  0  0  0  0  0  0  0  0  0  0  0
   35.8890   29.7170   32.8500 C   0  0  0  0  0  0  0  0  0  0  0  0
   37.9640   26.9680   31.1660 H   0  0  0  0  0  0  0  0  0  0  0  0
   37.6720   29.1480   29.9830 H   0  0  0  0  0  0  0  0  0  0  0  0
   36.3820   30.8820   31.0040 H   0  0  0  0  0  0  0  0  0  0  0  0
   35.1340   30.8300   33.4240 C   0  0  0  0  0  0  0  0  0  0  0  0
   33.6950   30.9390   33.0790 C   0  0  0  0  0  0  0  0  0  0  0  0
   32.9990   30.4750   32.5450 H   0  0  0  0  0  0  0  0  0  0  0  0
   33.1470   32.3810   33.9230 S   0  0  0  0  0  0  0  0  0  0  0  0
   34.8800   32.7000   34.6530 C   0  0  0  0  0  0  0  0  0  0  0  0
   35.6300   33.4300   35.3800 H   0  0  0  0  0  0  0  0  0  0  0  0
   35.7620   31.6920   34.2090 N   0  0  0  0  0  0  0  0  0  0  0  0
   38.6590   24.2680   35.9410 C   0  0  0  0  0  0  0  0  0  0  0  0
   37.8260   24.7040   36.9830 C   0  0  0  0  0  0  0  0  0  0  0  0
   38.0130   24.1790   38.2730 C   0  0  0  0  0  0  0  0  0  0  0  0
   39.0280   23.2520   38.4160 N   0  0  0  0  0  0  0  0  0  0  0  0
   39.8050   22.8620   37.3860 C   0  0  0  0  0  0  0  0  0  0  0  0
   39.6100   23.3750   36.1600 N   0  0  0  0  0  0  0  0  0  0  0  0
   37.0380   25.4130   36.9140 H   0  0  0  0  0  0  0  0  0  0  0  0
   37.3990   24.4850   39.1010 H   0  0  0  0  0  0  0  0  0  0  0  0
   40.5810   22.1400   37.5400 H   0  0  0  0  0  0  0  0  0  0  0  0
  1 30  1  0  0  0  0
  2  6  1  0  0  0  0
  2  1  1  0  0  0  0
  3  2  1  0  0  0  0
  3  4  1  0  0  0  0
  4 10  1  1  0  0  0
  4  5  1  0  0  0  0
  5  1  1  0  0  0  0
  5 12  1  0  0  0  0
  7  2  1  0  0  0  0
  8  3  1  0  0  0  0
  9  3  1  0  0  0  0
 11  5  1  0  0  0  0
 14 13  1  0  0  0  0
 15 14  2  0  0  0  0
 15  4  1  0  0  0  0
 16 15  1  0  0  0  0
 17 16  2  0  0  0  0
 17 18  1  0  0  0  0
 18 19  2  0  0  0  0
 19 23  1  0  0  0  0
 19 14  1  0  0  0  0
 20 16  1  0  0  0  0
 21 17  1  0  0  0  0
 22 18  1  0  0  0  0
 23 29  1  0  0  0  0
 24 23  2  0  0  0  0
 24 26  1  0  0  0  0
 25 24  1  0  0  0  0
 26 27  1  0  0  0  0
 27 28  1  0  0  0  0
 29 27  2  0  0  0  0
 30 35  2  0  0  0  0
 30 31  1  0  0  0  0
 31 32  2  0  0  0  0
 32 33  1  0  0  0  0
 32 37  1  0  0  0  0
 34 38  1  0  0  0  0
 34 33  2  0  0  0  0
 35 34  1  0  0  0  0
 36 31  1  0  0  0  0
M  END
>  <minimizedAffinity>
-5.4323163

$$$$

 OpenBabel03272502403D

 38 41  0  0  1  0  0  0  0  0999 V2000
   35.6380   29.7120   33.5800 N   0  0  0  0  0  0  0  0  0  0  0  0
   35.9660   29.6670   32.1620 C   0  0  0  0  0  0  0  0  0  0  0  0
   36.8530   28.4620   32.0570 C   0  0  0  0  0  0  0  0  0  0  0  0
   37.1060   28.0030   33.5620 C   0  0  1  0  0  0  0  0  0  0  0  0
   35.8100   28.3570   34.1500 C   0  0  0  0  0  0  0  0  0  0  0  0
   36.5870   30.5450   31.9050 H   0  0  0  0  0  0  0  0  0  0  0  0
   35.0940   29.5530   31.5060 H   0  0  0  0  0  0  0  0  0  0  0  0
   36.3700   27.5810   31.6120 H   0  0  0  0  0  0  0  0  0  0  0  0
   37.8390   28.6250   31.6310 H   0  0  0  0  0  0  0  0  0  0  0  0
   37.9510   28.6600   33.8020 H   0  0  0  0  0  0  0  0  0  0  0  0
   35.0120   27.6970   33.7240 H   0  0  0  0  0  0  0  0  0  0  0  0
   35.7660   28.4010   35.2400 H   0  0  0  0  0  0  0  0  0  0  0  0
   38.1760   26.7340   35.8560 F   0  0  0  0  0  0  0  0  0  0  0  0
   37.9120   26.0560   34.7270 C   0  0  0  0  0  0  0  0  0  0  0  0
   37.4410   26.5790   33.5520 C   0  0  0  0  0  0  0  0  0  0  0  0
   37.2240   25.6980   32.4800 C   0  0  0  0  0  0  0  0  0  0  0  0
   37.4650   24.3490   32.5760 C   0  0  0  0  0  0  0  0  0  0  0  0
   37.9470   23.8490   33.7930 C   0  0  0  0  0  0  0  0  0  0  0  0
   38.1740   24.7220   34.8810 C   0  0  0  0  0  0  0  0  0  0  0  0
   36.8550   26.1980   31.5970 H   0  0  0  0  0  0  0  0  0  0  0  0
   37.2770   23.7400   31.7250 H   0  0  0  0  0  0  0  0  0  0  0  0
   38.1020   22.7880   33.7570 H   0  0  0  0  0  0  0  0  0  0  0  0
   38.6540   24.0680   36.0970 C   0  0  0  0  0  0  0  0  0  0  0  0
   39.9800   23.4030   36.0450 C   0  0  0  0  0  0  0  0  0  0  0  0
   40.7270   23.2330   35.4130 H   0  0  0  0  0  0  0  0  0  0  0  0
   40.1990   22.7280   37.6530 S   0  0  0  0  0  0  0  0  0  0  0  0
   38.5100   23.3930   38.2400 C   0  0  0  0  0  0  0  0  0  0  0  0
   37.6580   23.5020   39.1810 H   0  0  0  0  0  0  0  0  0  0  0  0
   37.8890   24.0840   37.1770 N   0  0  0  0  0  0  0  0  0  0  0  0
   35.2300   30.8310   34.3260 C   0  0  0  0  0  0  0  0  0  0  0  0
   35.8580   30.9940   35.5710 C   0  0  0  0  0  0  0  0  0  0  0  0
   35.5010   32.0860   36.3780 C   0  0  0  0  0  0  0  0  0  0  0  0
   34.5360   32.9360   35.8700 N   0  0  0  0  0  0  0  0  0  0  0  0
   33.9600   32.7400   34.6670 C   0  0  0  0  0  0  0  0  0  0  0  0
   34.3140   31.6900   33.9090 N   0  0  0  0  0  0  0  0  0  0  0  0
   36.6000   30.3650   35.9960 H   0  0  0  0  0  0  0  0  0  0  0  0
   35.9550   32.2510   37.3390 H   0  0  0  0  0  0  0  0  0  0  0  0
   33.2160   33.4230   34.3100 H   0  0  0  0  0  0  0  0  0  0  0  0
  1  5  1  0  0  0  0
  1 30  1  0  0  0  0
  2  1  1  0  0  0  0
  3  2  1  0  0  0  0
  3  4  1  0  0  0  0
  4 10  1  1  0  0  0
  4  5  1  0  0  0  0
  5 12  1  0  0  0  0
  6  2  1  0  0  0  0
  7  2  1  0  0  0  0
  8  3  1  0  0  0  0
  9  3  1  0  0  0  0
 11  5  1  0  0  0  0
 14 19  1  0  0  0  0
 14 13  1  0  0  0  0
 15  4  1  0  0  0  0
 15 14  2  0  0  0  0
 16 17  2  0  0  0  0
 16 15  1  0  0  0  0
 17 18  1  0  0  0  0
 18 19  2  0  0  0  0
 19 23  1  0  0  0  0
 20 16  1  0  0  0  0
 21 17  1  0  0  0  0
 22 18  1  0  0  0  0
 23 29  1  0  0  0  0
 24 23  2  0  0  0  0
 24 26  1  0  0  0  0
 25 24  1  0  0  0  0
 26 27  1  0  0  0  0
 27 28  1  0  0  0  0
 29 27  2  0  0  0  0
 30 31  1  0  0  0  0
 31 36  1  0  0  0  0
 31 32  2  0  0  0  0
 32 37  1  0  0  0  0
 33 32  1  0  0  0  0
 34 33  2  0  0  0  0
 35 30  2  0  0  0  0
 35 34  1  0  0  0  0
 38 34  1  0  0  0  0
M  END
>  <minimizedAffinity>
-5.41913462

$$$$

 OpenBabel03272502403D

 38 41  0  0  1  0  0  0  0  0999 V2000
   38.3050   25.3550   33.5900 N   0  0  0  0  0  0  0  0  0  0  0  0
   38.4160   25.2450   32.1430 C   0  0  0  0  0  0  0  0  0  0  0  0
   37.5540   26.3700   31.6500 C   0  0  0  0  0  0  0  0  0  0  0  0
   36.8440   26.9470   32.9540 C   0  0  1  0  0  0  0  0  0  0  0  0
   37.9160   26.7410   33.9320 C   0  0  0  0  0  0  0  0  0  0  0  0
   37.9360   24.3060   31.8120 H   0  0  0  0  0  0  0  0  0  0  0  0
   39.4390   25.3590   31.7640 H   0  0  0  0  0  0  0  0  0  0  0  0
   38.1130   27.2380   31.2740 H   0  0  0  0  0  0  0  0  0  0  0  0
   36.7480   26.0990   30.9730 H   0  0  0  0  0  0  0  0  0  0  0  0
   35.9920   26.2580   33.0050 H   0  0  0  0  0  0  0  0  0  0  0  0
   38.7780   27.4140   33.6910 H   0  0  0  0  0  0  0  0  0  0  0  0
   37.6330   26.8010   34.9860 H   0  0  0  0  0  0  0  0  0  0  0  0
   35.5180   28.5050   34.9120 F   0  0  0  0  0  0  0  0  0  0  0  0
   35.8720   29.0130   33.7200 C   0  0  0  0  0  0  0  0  0  0  0  0
   36.4710   28.3370   32.6900 C   0  0  0  0  0  0  0  0  0  0  0  0
   36.7660   29.0520   31.5190 C   0  0  0  0  0  0  0  0  0  0  0  0
   36.4790   30.3880   31.3790 C   0  0  0  0  0  0  0  0  0  0  0  0
   35.8660   31.0470   32.4530 C   0  0  0  0  0  0  0  0  0  0  0  0
   35.5590   30.3420   33.6390 C   0  0  0  0  0  0  0  0  0  0  0  0
   37.2340   28.4390   30.7620 H   0  0  0  0  0  0  0  0  0  0  0  0
   36.7320   30.8670   30.4650 H   0  0  0  0  0  0  0  0  0  0  0  0
   35.6850   32.0820   32.2370 H   0  0  0  0  0  0  0  0  0  0  0  0
   34.9440   31.1540   34.6880 C   0  0  0  0  0  0  0  0  0  0  0  0
   35.8060   31.5990   35.8110 C   0  0  0  0  0  0  0  0  0  0  0  0
   36.7440   31.5320   36.1280 H   0  0  0  0  0  0  0  0  0  0  0  0
   34.7300   32.5130   36.8580 S   0  0  0  0  0  0  0  0  0  0  0  0
   33.2400   32.2170   35.7050 C   0  0  0  0  0  0  0  0  0  0  0  0
   32.0020   32.4040   35.4670 H   0  0  0  0  0  0  0  0  0  0  0  0
   33.6560   31.4440   34.6000 N   0  0  0  0  0  0  0  0  0  0  0  0
   38.5140   24.3420   34.5410 C   0  0  0  0  0  0  0  0  0  0  0  0
   38.1450   24.6570   35.8570 C   0  0  0  0  0  0  0  0  0  0  0  0
   38.3270   23.6970   36.8670 C   0  0  0  0  0  0  0  0  0  0  0  0
   38.8690   22.4880   36.4730 N   0  0  0  0  0  0  0  0  0  0  0  0
   39.2080   22.2280   35.1940 C   0  0  0  0  0  0  0  0  0  0  0  0
   39.0270   23.1590   34.2430 N   0  0  0  0  0  0  0  0  0  0  0  0
   37.7280   25.5710   36.1990 H   0  0  0  0  0  0  0  0  0  0  0  0
   38.0590   23.8950   37.8890 H   0  0  0  0  0  0  0  0  0  0  0  0
   39.6250   21.2770   34.9310 H   0  0  0  0  0  0  0  0  0  0  0  0
  1  5  1  0  0  0  0
  1 30  1  0  0  0  0
  2  1  1  0  0  0  0
  3  2  1  0  0  0  0
  3  4  1  0  0  0  0
  4 10  1  1  0  0  0
  4  5  1  0  0  0  0
  5 12  1  0  0  0  0
  6  2  1  0  0  0  0
  7  2  1  0  0  0  0
  8  3  1  0  0  0  0
  9  3  1  0  0  0  0
 11  5  1  0  0  0  0
 14 13  1  0  0  0  0
 15  4  1  0  0  0  0
 15 14  2  0  0  0  0
 16 15  1  0  0  0  0
 17 16  2  0  0  0  0
 17 18  1  0  0  0  0
 18 19  2  0  0  0  0
 19 14  1  0  0  0  0
 19 23  1  0  0  0  0
 20 16  1  0  0  0  0
 21 17  1  0  0  0  0
 22 18  1  0  0  0  0
 23 24  2  0  0  0  0
 24 25  1  0  0  0  0
 24 26  1  0  0  0  0
 27 26  1  0  0  0  0
 28 27  1  0  0  0  0
 29 23  1  0  0  0  0
 29 27  2  0  0  0  0
 30 31  1  0  0  0  0
 31 36  1  0  0  0  0
 31 32  2  0  0  0  0
 32 37  1  0  0  0  0
 33 32  1  0  0  0  0
 34 33  2  0  0  0  0
 35 30  2  0  0  0  0
 35 34  1  0  0  0  0
 38 34  1  0  0  0  0
M  END
>  <minimizedAffinity>
-5.24201536

$$$$

 OpenBabel03272502403D

 38 41  0  0  1  0  0  0  0  0999 V2000
   38.4180   24.5450   34.6320 N   0  0  0  0  0  0  0  0  0  0  0  0
   37.9340   23.7790   33.4930 C   0  0  0  0  0  0  0  0  0  0  0  0
   37.3180   24.8280   32.6150 C   0  0  0  0  0  0  0  0  0  0  0  0
   37.3570   26.1650   33.4810 C   0  0  1  0  0  0  0  0  0  0  0  0
   38.6100   25.9510   34.2110 C   0  0  0  0  0  0  0  0  0  0  0  0
   37.1140   23.1160   33.8230 H   0  0  0  0  0  0  0  0  0  0  0  0
   38.7230   23.2450   32.9480 H   0  0  0  0  0  0  0  0  0  0  0  0
   37.9190   25.0910   31.7340 H   0  0  0  0  0  0  0  0  0  0  0  0
   36.2750   24.6810   32.3490 H   0  0  0  0  0  0  0  0  0  0  0  0
   36.4280   26.0290   34.0470 H   0  0  0  0  0  0  0  0  0  0  0  0
   39.4710   25.9860   33.4970 H   0  0  0  0  0  0  0  0  0  0  0  0
   38.7780   26.5840   35.0860 H   0  0  0  0  0  0  0  0  0  0  0  0
   39.3210   26.4550   31.4630 F   0  0  0  0  0  0  0  0  0  0  0  0
   38.3060   27.3240   31.5950 C   0  0  0  0  0  0  0  0  0  0  0  0
   37.3340   27.3020   32.5610 C   0  0  0  0  0  0  0  0  0  0  0  0
   36.3500   28.3020   32.5250 C   0  0  0  0  0  0  0  0  0  0  0  0
   36.3320   29.2840   31.5650 C   0  0  0  0  0  0  0  0  0  0  0  0
   37.3420   29.2760   30.5930 C   0  0  0  0  0  0  0  0  0  0  0  0
   38.3420   28.2770   30.6150 C   0  0  0  0  0  0  0  0  0  0  0  0
   35.6280   28.2070   33.3240 H   0  0  0  0  0  0  0  0  0  0  0  0
   35.5560   30.0100   31.5970 H   0  0  0  0  0  0  0  0  0  0  0  0
   37.2350   30.0840   29.8970 H   0  0  0  0  0  0  0  0  0  0  0  0
   39.3200   28.3710   29.5320 C   0  0  0  0  0  0  0  0  0  0  0  0
   38.8790   27.9810   28.1700 C   0  0  0  0  0  0  0  0  0  0  0  0
   38.0750   27.6490   27.6910 H   0  0  0  0  0  0  0  0  0  0  0  0
   40.3040   28.2030   27.1640 S   0  0  0  0  0  0  0  0  0  0  0  0
   41.3470   28.7920   28.6490 C   0  0  0  0  0  0  0  0  0  0  0  0
   42.4710   29.2040   29.0850 H   0  0  0  0  0  0  0  0  0  0  0  0
   40.5460   28.7820   29.8110 N   0  0  0  0  0  0  0  0  0  0  0  0
   38.6670   24.0750   35.9330 C   0  0  0  0  0  0  0  0  0  0  0  0
   37.8260   24.5810   36.9350 C   0  0  0  0  0  0  0  0  0  0  0  0
   38.0140   24.1620   38.2620 C   0  0  0  0  0  0  0  0  0  0  0  0
   39.0400   23.2620   38.4810 N   0  0  0  0  0  0  0  0  0  0  0  0
   39.8250   22.8010   37.4860 C   0  0  0  0  0  0  0  0  0  0  0  0
   39.6290   23.2140   36.2240 N   0  0  0  0  0  0  0  0  0  0  0  0
   37.0300   25.2720   36.8080 H   0  0  0  0  0  0  0  0  0  0  0  0
   37.3940   24.5240   39.0620 H   0  0  0  0  0  0  0  0  0  0  0  0
   40.6090   22.1030   37.6990 H   0  0  0  0  0  0  0  0  0  0  0  0
  1 30  1  0  0  0  0
  2  6  1  0  0  0  0
  2  1  1  0  0  0  0
  3  4  1  0  0  0  0
  3  2  1  0  0  0  0
  4 10  1  1  0  0  0
  4  5  1  0  0  0  0
  5  1  1  0  0  0  0
  5 12  1  0  0  0  0
  7  2  1  0  0  0  0
  8  3  1  0  0  0  0
  9  3  1  0  0  0  0
 11  5  1  0  0  0  0
 13 14  1  0  0  0  0
 14 15  1  0  0  0  0
 15  4  1  0  0  0  0
 16 15  2  0  0  0  0
 16 20  1  0  0  0  0
 17 21  1  0  0  0  0
 17 16  1  0  0  0  0
 18 19  1  0  0  0  0
 18 17  2  0  0  0  0
 19 14  2  0  0  0  0
 22 18  1  0  0  0  0
 23 29  1  0  0  0  0
 23 19  1  0  0  0  0
 24 23  2  0  0  0  0
 25 24  1  0  0  0  0
 26 24  1  0  0  0  0
 26 27  1  0  0  0  0
 27 28  1  0  0  0  0
 27 29  2  0  0  0  0
 30 35  2  0  0  0  0
 30 31  1  0  0  0  0
 31 32  2  0  0  0  0
 32 33  1  0  0  0  0
 32 37  1  0  0  0  0
 34 38  1  0  0  0  0
 34 33  2  0  0  0  0
 35 34  1  0  0  0  0
 36 31  1  0  0  0  0
M  END
>  <minimizedAffinity>
-5.22135162

$$$$

 OpenBabel03272502403D

 38 41  0  0  1  0  0  0  0  0999 V2000
   37.3270   25.0070   32.5330 N   0  0  0  0  0  0  0  0  0  0  0  0
   38.4280   25.5680   33.3020 C   0  0  0  0  0  0  0  0  0  0  0  0
   38.3520   27.0320   32.9840 C   0  0  0  0  0  0  0  0  0  0  0  0
   37.2440   27.1500   31.8440 C   0  0  1  0  0  0  0  0  0  0  0  0
   36.3400   26.0760   32.2670 C   0  0  0  0  0  0  0  0  0  0  0  0
   39.3840   25.1990   32.8880 H   0  0  0  0  0  0  0  0  0  0  0  0
   38.3410   25.4110   34.3840 H   0  0  0  0  0  0  0  0  0  0  0  0
   37.9370   27.6510   33.7910 H   0  0  0  0  0  0  0  0  0  0  0  0
   39.2490   27.4810   32.5660 H   0  0  0  0  0  0  0  0  0  0  0  0
   37.8750   26.9460   30.9700 H   0  0  0  0  0  0  0  0  0  0  0  0
   35.8570   26.3540   33.2380 H   0  0  0  0  0  0  0  0  0  0  0  0
   35.6090   25.7360   31.5300 H   0  0  0  0  0  0  0  0  0  0  0  0
   35.9950   28.1600   34.1760 F   0  0  0  0  0  0  0  0  0  0  0  0
   36.1520   28.9100   33.0730 C   0  0  0  0  0  0  0  0  0  0  0  0
   36.6970   28.5060   31.8820 C   0  0  0  0  0  0  0  0  0  0  0  0
   36.7770   29.4470   30.8440 C   0  0  0  0  0  0  0  0  0  0  0  0
   36.3340   30.7390   30.9850 C   0  0  0  0  0  0  0  0  0  0  0  0
   35.7820   31.1170   32.2160 C   0  0  0  0  0  0  0  0  0  0  0  0
   35.6920   30.1820   33.2720 C   0  0  0  0  0  0  0  0  0  0  0  0
   37.2170   29.0400   29.9450 H   0  0  0  0  0  0  0  0  0  0  0  0
   36.4260   31.4000   30.1570 H   0  0  0  0  0  0  0  0  0  0  0  0
   35.4680   32.1430   32.2170 H   0  0  0  0  0  0  0  0  0  0  0  0
   35.1190   30.7130   34.5080 C   0  0  0  0  0  0  0  0  0  0  0  0
   33.6580   30.5510   34.7160 C   0  0  0  0  0  0  0  0  0  0  0  0
   32.8580   30.1710   34.2670 H   0  0  0  0  0  0  0  0  0  0  0  0
   33.3460   31.3160   36.2680 S   0  0  0  0  0  0  0  0  0  0  0  0
   35.1840   31.7760   36.4920 C   0  0  0  0  0  0  0  0  0  0  0  0
   36.0820   32.3240   37.2110 H   0  0  0  0  0  0  0  0  0  0  0  0
   35.9150   31.3190   35.3740 N   0  0  0  0  0  0  0  0  0  0  0  0
   37.1850   23.6810   32.0880 C   0  0  0  0  0  0  0  0  0  0  0  0
   35.9200   23.3390   31.5870 C   0  0  0  0  0  0  0  0  0  0  0  0
   35.6980   22.0300   31.1260 C   0  0  0  0  0  0  0  0  0  0  0  0
   36.7700   21.1620   31.2070 N   0  0  0  0  0  0  0  0  0  0  0  0
   37.9700   21.5340   31.6970 C   0  0  0  0  0  0  0  0  0  0  0  0
   38.1620   22.7900   32.1320 N   0  0  0  0  0  0  0  0  0  0  0  0
   35.0730   23.9750   31.5090 H   0  0  0  0  0  0  0  0  0  0  0  0
   34.7450   21.7240   30.7340 H   0  0  0  0  0  0  0  0  0  0  0  0
   38.7750   20.8300   31.7410 H   0  0  0  0  0  0  0  0  0  0  0  0
  1  2  1  0  0  0  0
  2  7  1  0  0  0  0
  3  2  1  0  0  0  0
  3  8  1  0  0  0  0
  4 10  1  6  0  0  0
  4 15  1  0  0  0  0
  4  5  1  0  0  0  0
  4  3  1  0  0  0  0
  5  1  1  0  0  0  0
  5 11  1  0  0  0  0
  6  2  1  0  0  0  0
  9  3  1  0  0  0  0
 12  5  1  0  0  0  0
 14 19  1  0  0  0  0
 14 13  1  0  0  0  0
 15 14  2  0  0  0  0
 16 17  2  0  0  0  0
 16 15  1  0  0  0  0
 17 18  1  0  0  0  0
 18 22  1  0  0  0  0
 18 19  2  0  0  0  0
 19 23  1  0  0  0  0
 20 16  1  0  0  0  0
 21 17  1  0  0  0  0
 23 24  2  0  0  0  0
 23 29  1  0  0  0  0
 24 26  1  0  0  0  0
 25 24  1  0  0  0  0
 26 27  1  0  0  0  0
 27 28  1  0  0  0  0
 29 27  2  0  0  0  0
 30 35  1  0  0  0  0
 30  1  1  0  0  0  0
 31 30  2  0  0  0  0
 32 33  2  0  0  0  0
 32 31  1  0  0  0  0
 33 34  1  0  0  0  0
 34 38  1  0  0  0  0
 34 35  2  0  0  0  0
 36 31  1  0  0  0  0
 37 32  1  0  0  0  0
M  END
>  <minimizedAffinity>
-5.21535444

$$$$

 OpenBabel03272502403D

 38 41  0  0  1  0  0  0  0  0999 V2000
   36.6520   27.4950   32.5520 N   0  0  0  0  0  0  0  0  0  0  0  0
   36.8490   28.5690   31.5890 C   0  0  0  0  0  0  0  0  0  0  0  0
   36.0910   29.7120   32.1960 C   0  0  0  0  0  0  0  0  0  0  0  0
   35.3340   29.0850   33.4510 C   0  0  1  0  0  0  0  0  0  0  0  0
   36.3260   28.0900   33.8670 C   0  0  0  0  0  0  0  0  0  0  0  0
   36.3350   28.3090   30.6460 H   0  0  0  0  0  0  0  0  0  0  0  0
   37.9000   28.8480   31.4420 H   0  0  0  0  0  0  0  0  0  0  0  0
   36.7240   30.4830   32.6560 H   0  0  0  0  0  0  0  0  0  0  0  0
   35.3150   30.1580   31.5800 H   0  0  0  0  0  0  0  0  0  0  0  0
   34.4410   28.7050   32.9400 H   0  0  0  0  0  0  0  0  0  0  0  0
   37.2410   28.6100   34.2500 H   0  0  0  0  0  0  0  0  0  0  0  0
   35.9800   27.3140   34.5540 H   0  0  0  0  0  0  0  0  0  0  0  0
   32.7070   30.0670   33.8450 F   0  0  0  0  0  0  0  0  0  0  0  0
   33.7520   30.5330   34.5470 C   0  0  0  0  0  0  0  0  0  0  0  0
   35.0630   30.1630   34.4020 C   0  0  0  0  0  0  0  0  0  0  0  0
   36.0130   30.7670   35.2410 C   0  0  0  0  0  0  0  0  0  0  0  0
   35.6720   31.7020   36.1870 C   0  0  0  0  0  0  0  0  0  0  0  0
   34.3210   32.0570   36.3070 C   0  0  0  0  0  0  0  0  0  0  0  0
   33.3520   31.4600   35.4700 C   0  0  0  0  0  0  0  0  0  0  0  0
   37.0180   30.4160   35.0550 H   0  0  0  0  0  0  0  0  0  0  0  0
   36.4420   32.1180   36.7900 H   0  0  0  0  0  0  0  0  0  0  0  0
   34.1660   32.7930   37.0720 H   0  0  0  0  0  0  0  0  0  0  0  0
   31.9800   31.9020   35.7150 C   0  0  0  0  0  0  0  0  0  0  0  0
   31.5730   33.2230   35.1750 C   0  0  0  0  0  0  0  0  0  0  0  0
   31.9430   33.9830   34.6540 H   0  0  0  0  0  0  0  0  0  0  0  0
   29.9000   33.4110   35.6800 S   0  0  0  0  0  0  0  0  0  0  0  0
   29.9000   31.7170   36.5580 C   0  0  0  0  0  0  0  0  0  0  0  0
   29.2590   30.8520   37.2380 H   0  0  0  0  0  0  0  0  0  0  0  0
   31.1710   31.1200   36.4120 N   0  0  0  0  0  0  0  0  0  0  0  0
   36.7370   26.1120   32.3170 C   0  0  0  0  0  0  0  0  0  0  0  0
   35.7110   25.5630   31.5330 C   0  0  0  0  0  0  0  0  0  0  0  0
   35.7240   24.1860   31.2570 C   0  0  0  0  0  0  0  0  0  0  0  0
   36.7730   23.4620   31.7930 N   0  0  0  0  0  0  0  0  0  0  0  0
   37.7390   24.0330   32.5410 C   0  0  0  0  0  0  0  0  0  0  0  0
   37.7090   25.3510   32.7940 N   0  0  0  0  0  0  0  0  0  0  0  0
   34.8900   26.0830   31.1050 H   0  0  0  0  0  0  0  0  0  0  0  0
   34.9580   23.7220   30.6610 H   0  0  0  0  0  0  0  0  0  0  0  0
   38.5350   23.4360   32.9370 H   0  0  0  0  0  0  0  0  0  0  0  0
  1  5  1  0  0  0  0
  2  3  1  0  0  0  0
  2  1  1  0  0  0  0
  3  8  1  0  0  0  0
  3  4  1  0  0  0  0
  4 10  1  6  0  0  0
  4  5  1  0  0  0  0
  4 15  1  0  0  0  0
  5 11  1  0  0  0  0
  5 12  1  0  0  0  0
  6  2  1  0  0  0  0
  7  2  1  0  0  0  0
  9  3  1  0  0  0  0
 13 14  1  0  0  0  0
 14 19  1  0  0  0  0
 15 14  2  0  0  0  0
 15 16  1  0  0  0  0
 16 17  2  0  0  0  0
 17 18  1  0  0  0  0
 17 21  1  0  0  0  0
 18 22  1  0  0  0  0
 19 23  1  0  0  0  0
 19 18  2  0  0  0  0
 20 16  1  0  0  0  0
 23 29  1  0  0  0  0
 24 26  1  0  0  0  0
 24 23  2  0  0  0  0
 25 24  1  0  0  0  0
 26 27  1  0  0  0  0
 27 28  1  0  0  0  0
 29 27  2  0  0  0  0
 30  1  1  0  0  0  0
 30 35  1  0  0  0  0
 31 30  2  0  0  0  0
 32 31  1  0  0  0  0
 32 33  2  0  0  0  0
 33 34  1  0  0  0  0
 34 35  2  0  0  0  0
 34 38  1  0  0  0  0
 36 31  1  0  0  0  0
 37 32  1  0  0  0  0
M  END
>  <minimizedAffinity>
-5.07867622

$$$$

 OpenBabel03272502403D

 38 41  0  0  1  0  0  0  0  0999 V2000
   34.2480   30.7520   34.2280 N   0  0  0  0  0  0  0  0  0  0  0  0
   34.2690   31.0950   32.8140 C   0  0  0  0  0  0  0  0  0  0  0  0
   35.2240   30.0930   32.2350 C   0  0  0  0  0  0  0  0  0  0  0  0
   35.8350   29.3310   33.4950 C   0  0  1  0  0  0  0  0  0  0  0  0
   34.6670   29.3410   34.3810 C   0  0  0  0  0  0  0  0  0  0  0  0
   34.7340   32.0890   32.6880 H   0  0  0  0  0  0  0  0  0  0  0  0
   33.2920   31.0130   32.3210 H   0  0  0  0  0  0  0  0  0  0  0  0
   34.7450   29.2820   31.6700 H   0  0  0  0  0  0  0  0  0  0  0  0
   36.0770   30.4960   31.6960 H   0  0  0  0  0  0  0  0  0  0  0  0
   36.6450   30.0290   33.7410 H   0  0  0  0  0  0  0  0  0  0  0  0
   33.8640   28.6910   33.9490 H   0  0  0  0  0  0  0  0  0  0  0  0
   34.8510   29.1170   35.4340 H   0  0  0  0  0  0  0  0  0  0  0  0
   37.6120   27.7910   35.0720 F   0  0  0  0  0  0  0  0  0  0  0  0
   37.1190   27.3360   33.9080 C   0  0  0  0  0  0  0  0  0  0  0  0
   36.2950   28.0160   33.0500 C   0  0  0  0  0  0  0  0  0  0  0  0
   35.8840   27.3610   31.8780 C   0  0  0  0  0  0  0  0  0  0  0  0
   36.2760   26.0810   31.5730 C   0  0  0  0  0  0  0  0  0  0  0  0
   37.1190   25.4170   32.4740 C   0  0  0  0  0  0  0  0  0  0  0  0
   37.5450   26.0610   33.6580 C   0  0  0  0  0  0  0  0  0  0  0  0
   35.2400   27.9730   31.2630 H   0  0  0  0  0  0  0  0  0  0  0  0
   35.9250   25.6450   30.6690 H   0  0  0  0  0  0  0  0  0  0  0  0
   37.3640   24.4270   32.1390 H   0  0  0  0  0  0  0  0  0  0  0  0
   38.4020   25.2480   34.5190 C   0  0  0  0  0  0  0  0  0  0  0  0
   39.7870   24.9800   34.0600 C   0  0  0  0  0  0  0  0  0  0  0  0
   40.3930   25.1800   33.2990 H   0  0  0  0  0  0  0  0  0  0  0  0
   40.4850   23.9760   35.3230 S   0  0  0  0  0  0  0  0  0  0  0  0
   38.8710   24.0090   36.3400 C   0  0  0  0  0  0  0  0  0  0  0  0
   38.2450   23.6420   37.3870 H   0  0  0  0  0  0  0  0  0  0  0  0
   37.9070   24.7790   35.6540 N   0  0  0  0  0  0  0  0  0  0  0  0
   33.9030   31.5880   35.3040 C   0  0  0  0  0  0  0  0  0  0  0  0
   34.9640   31.9820   36.1330 C   0  0  0  0  0  0  0  0  0  0  0  0
   34.6990   32.8160   37.2320 C   0  0  0  0  0  0  0  0  0  0  0  0
   33.3810   33.1900   37.4150 N   0  0  0  0  0  0  0  0  0  0  0  0
   32.3920   32.7860   36.5920 C   0  0  0  0  0  0  0  0  0  0  0  0
   32.6660   31.9900   35.5460 N   0  0  0  0  0  0  0  0  0  0  0  0
   35.9860   31.7170   36.0270 H   0  0  0  0  0  0  0  0  0  0  0  0
   35.4810   33.1420   37.8940 H   0  0  0  0  0  0  0  0  0  0  0  0
   31.3840   33.0990   36.7690 H   0  0  0  0  0  0  0  0  0  0  0  0
  1  5  1  0  0  0  0
  1 30  1  0  0  0  0
  2  1  1  0  0  0  0
  3  2  1  0  0  0  0
  3  4  1  0  0  0  0
  4 10  1  1  0  0  0
  4  5  1  0  0  0  0
  5 12  1  0  0  0  0
  6  2  1  0  0  0  0
  7  2  1  0  0  0  0
  8  3  1  0  0  0  0
  9  3  1  0  0  0  0
 11  5  1  0  0  0  0
 14 13  1  0  0  0  0
 15  4  1  0  0  0  0
 15 14  2  0  0  0  0
 16 15  1  0  0  0  0
 17 16  2  0  0  0  0
 17 18  1  0  0  0  0
 18 19  2  0  0  0  0
 19 14  1  0  0  0  0
 19 23  1  0  0  0  0
 20 16  1  0  0  0  0
 21 17  1  0  0  0  0
 22 18  1  0  0  0  0
 23 29  1  0  0  0  0
 24 23  2  0  0  0  0
 24 26  1  0  0  0  0
 25 24  1  0  0  0  0
 26 27  1  0  0  0  0
 27 28  1  0  0  0  0
 29 27  2  0  0  0  0
 30 35  2  0  0  0  0
 30 31  1  0  0  0  0
 31 32  2  0  0  0  0
 32 33  1  0  0  0  0
 32 37  1  0  0  0  0
 34 38  1  0  0  0  0
 34 33  2  0  0  0  0
 35 34  1  0  0  0  0
 36 31  1  0  0  0  0
M  END
>  <minimizedAffinity>
-5.04319477

$$$$

 OpenBabel03272502403D

 38 41  0  0  1  0  0  0  0  0999 V2000
   35.7250   30.2110   32.8010 N   0  0  0  0  0  0  0  0  0  0  0  0
   36.1290   30.3790   31.4130 C   0  0  0  0  0  0  0  0  0  0  0  0
   36.5890   29.0040   31.0240 C   0  0  0  0  0  0  0  0  0  0  0  0
   36.5650   28.1640   32.3780 C   0  0  1  0  0  0  0  0  0  0  0  0
   35.4100   28.7840   33.0340 C   0  0  0  0  0  0  0  0  0  0  0  0
   37.0160   31.0370   31.3700 H   0  0  0  0  0  0  0  0  0  0  0  0
   35.3200   30.7080   30.7490 H   0  0  0  0  0  0  0  0  0  0  0  0
   35.8850   28.4550   30.3850 H   0  0  0  0  0  0  0  0  0  0  0  0
   37.6050   28.9240   30.6480 H   0  0  0  0  0  0  0  0  0  0  0  0
   37.5540   28.4350   32.7650 H   0  0  0  0  0  0  0  0  0  0  0  0
   34.4770   28.5360   32.4660 H   0  0  0  0  0  0  0  0  0  0  0  0
   35.2980   28.5960   34.1040 H   0  0  0  0  0  0  0  0  0  0  0  0
   38.3490   26.2220   33.4090 F   0  0  0  0  0  0  0  0  0  0  0  0
   37.3150   25.8880   32.6180 C   0  0  0  0  0  0  0  0  0  0  0  0
   36.4260   26.7500   32.0310 C   0  0  0  0  0  0  0  0  0  0  0  0
   35.4060   26.2000   31.2380 C   0  0  0  0  0  0  0  0  0  0  0  0
   35.2750   24.8480   31.0380 C   0  0  0  0  0  0  0  0  0  0  0  0
   36.2040   23.9970   31.6540 C   0  0  0  0  0  0  0  0  0  0  0  0
   37.2380   24.5330   32.4540 C   0  0  0  0  0  0  0  0  0  0  0  0
   34.7550   26.9530   30.8160 H   0  0  0  0  0  0  0  0  0  0  0  0
   34.4780   24.5010   30.4270 H   0  0  0  0  0  0  0  0  0  0  0  0
   36.0110   22.9660   31.4310 H   0  0  0  0  0  0  0  0  0  0  0  0
   38.1210   23.5350   33.0560 C   0  0  0  0  0  0  0  0  0  0  0  0
   39.2110   22.9810   32.2140 C   0  0  0  0  0  0  0  0  0  0  0  0
   39.5860   23.0610   31.2980 H   0  0  0  0  0  0  0  0  0  0  0  0
   40.0280   21.8230   33.2540 S   0  0  0  0  0  0  0  0  0  0  0  0
   38.8450   22.1860   34.7060 C   0  0  0  0  0  0  0  0  0  0  0  0
   38.5030   21.9420   35.9090 H   0  0  0  0  0  0  0  0  0  0  0  0
   37.9070   23.1620   34.3070 N   0  0  0  0  0  0  0  0  0  0  0  0
   35.6400   31.2050   33.7910 C   0  0  0  0  0  0  0  0  0  0  0  0
   35.7100   30.7500   35.1170 C   0  0  0  0  0  0  0  0  0  0  0  0
   35.6290   31.6830   36.1640 C   0  0  0  0  0  0  0  0  0  0  0  0
   35.4830   33.0080   35.7960 N   0  0  0  0  0  0  0  0  0  0  0  0
   35.4200   33.3990   34.5070 C   0  0  0  0  0  0  0  0  0  0  0  0
   35.5000   32.4920   33.5200 N   0  0  0  0  0  0  0  0  0  0  0  0
   35.8210   29.7450   35.4400 H   0  0  0  0  0  0  0  0  0  0  0  0
   35.6770   31.3810   37.1940 H   0  0  0  0  0  0  0  0  0  0  0  0
   35.3070   34.4360   34.2650 H   0  0  0  0  0  0  0  0  0  0  0  0
  1  5  1  0  0  0  0
  1 30  1  0  0  0  0
  2  1  1  0  0  0  0
  3  2  1  0  0  0  0
  3  4  1  0  0  0  0
  4 10  1  1  0  0  0
  4  5  1  0  0  0  0
  5 12  1  0  0  0  0
  6  2  1  0  0  0  0
  7  2  1  0  0  0  0
  8  3  1  0  0  0  0
  9  3  1  0  0  0  0
 11  5  1  0  0  0  0
 14 13  1  0  0  0  0
 15  4  1  0  0  0  0
 15 14  2  0  0  0  0
 16 15  1  0  0  0  0
 17 16  2  0  0  0  0
 17 18  1  0  0  0  0
 18 19  2  0  0  0  0
 19 14  1  0  0  0  0
 19 23  1  0  0  0  0
 20 16  1  0  0  0  0
 21 17  1  0  0  0  0
 22 18  1  0  0  0  0
 23 29  1  0  0  0  0
 24 23  2  0  0  0  0
 24 26  1  0  0  0  0
 25 24  1  0  0  0  0
 26 27  1  0  0  0  0
 27 28  1  0  0  0  0
 29 27  2  0  0  0  0
 30 31  1  0  0  0  0
 31 36  1  0  0  0  0
 31 32  2  0  0  0  0
 32 37  1  0  0  0  0
 33 32  1  0  0  0  0
 34 33  2  0  0  0  0
 35 30  2  0  0  0  0
 35 34  1  0  0  0  0
 38 34  1  0  0  0  0
M  END
>  <minimizedAffinity>
-5.0259881

$$$$

 OpenBabel03272502403D

 38 41  0  0  1  0  0  0  0  0999 V2000
   36.7000   26.9560   33.3010 N   0  0  0  0  0  0  0  0  0  0  0  0
   36.7090   25.8200   32.3910 C   0  0  0  0  0  0  0  0  0  0  0  0
   37.6480   24.8580   33.0570 C   0  0  0  0  0  0  0  0  0  0  0  0
   38.2640   25.6680   34.2840 C   0  0  1  0  0  0  0  0  0  0  0  0
   37.1060   26.4900   34.6450 C   0  0  0  0  0  0  0  0  0  0  0  0
   37.1830   26.1210   31.4390 H   0  0  0  0  0  0  0  0  0  0  0  0
   35.7270   25.3530   32.2510 H   0  0  0  0  0  0  0  0  0  0  0  0
   37.1540   24.0100   33.5500 H   0  0  0  0  0  0  0  0  0  0  0  0
   38.4990   24.5280   32.4680 H   0  0  0  0  0  0  0  0  0  0  0  0
   39.0840   26.1750   33.7610 H   0  0  0  0  0  0  0  0  0  0  0  0
   36.2910   25.8360   35.0470 H   0  0  0  0  0  0  0  0  0  0  0  0
   37.3000   27.3470   35.2950 H   0  0  0  0  0  0  0  0  0  0  0  0
   40.8520   24.5230   34.1770 F   0  0  0  0  0  0  0  0  0  0  0  0
   39.9910   24.2410   35.1690 C   0  0  0  0  0  0  0  0  0  0  0  0
   38.7060   24.7010   35.2890 C   0  0  0  0  0  0  0  0  0  0  0  0
   37.9640   24.2910   36.4090 C   0  0  0  0  0  0  0  0  0  0  0  0
   38.4810   23.4590   37.3700 C   0  0  0  0  0  0  0  0  0  0  0  0
   39.7990   23.0080   37.2140 C   0  0  0  0  0  0  0  0  0  0  0  0
   40.5600   23.4080   36.0930 C   0  0  0  0  0  0  0  0  0  0  0  0
   36.9640   24.7000   36.4180 H   0  0  0  0  0  0  0  0  0  0  0  0
   37.8640   23.1900   38.1930 H   0  0  0  0  0  0  0  0  0  0  0  0
   40.1000   22.3650   38.0180 H   0  0  0  0  0  0  0  0  0  0  0  0
   41.9250   22.8860   36.0650 C   0  0  0  0  0  0  0  0  0  0  0  0
   42.1270   21.5120   35.5420 C   0  0  0  0  0  0  0  0  0  0  0  0
   41.6100   20.7520   35.1660 H   0  0  0  0  0  0  0  0  0  0  0  0
   43.8570   21.2360   35.6830 S   0  0  0  0  0  0  0  0  0  0  0  0
   44.1460   22.9700   36.4230 C   0  0  0  0  0  0  0  0  0  0  0  0
   44.9690   23.8250   36.8870 H   0  0  0  0  0  0  0  0  0  0  0  0
   42.9100   23.6460   36.5150 N   0  0  0  0  0  0  0  0  0  0  0  0
   36.3760   28.2900   32.9980 C   0  0  0  0  0  0  0  0  0  0  0  0
   35.7860   29.0240   34.0370 C   0  0  0  0  0  0  0  0  0  0  0  0
   35.4290   30.3640   33.8110 C   0  0  0  0  0  0  0  0  0  0  0  0
   35.6940   30.8640   32.5500 N   0  0  0  0  0  0  0  0  0  0  0  0
   36.2630   30.1210   31.5800 C   0  0  0  0  0  0  0  0  0  0  0  0
   36.5970   28.8420   31.8160 N   0  0  0  0  0  0  0  0  0  0  0  0
   35.5660   28.6770   35.0160 H   0  0  0  0  0  0  0  0  0  0  0  0
   34.9750   30.9640   34.5780 H   0  0  0  0  0  0  0  0  0  0  0  0
   36.4520   30.5480   30.6160 H   0  0  0  0  0  0  0  0  0  0  0  0
  1  5  1  0  0  0  0
  2  3  1  0  0  0  0
  2  1  1  0  0  0  0
  3  8  1  0  0  0  0
  3  4  1  0  0  0  0
  4 10  1  6  0  0  0
  4  5  1  0  0  0  0
  4 15  1  0  0  0  0
  5 11  1  0  0  0  0
  5 12  1  0  0  0  0
  6  2  1  0  0  0  0
  7  2  1  0  0  0  0
  9  3  1  0  0  0  0
 13 14  1  0  0  0  0
 14 15  2  0  0  0  0
 14 19  1  0  0  0  0
 15 16  1  0  0  0  0
 16 20  1  0  0  0  0
 16 17  2  0  0  0  0
 17 21  1  0  0  0  0
 18 17  1  0  0  0  0
 18 22  1  0  0  0  0
 19 18  2  0  0  0  0
 23 19  1  0  0  0  0
 23 29  1  0  0  0  0
 24 26  1  0  0  0  0
 24 23  2  0  0  0  0
 25 24  1  0  0  0  0
 26 27  1  0  0  0  0
 27 29  2  0  0  0  0
 27 28  1  0  0  0  0
 30  1  1  0  0  0  0
 30 31  1  0  0  0  0
 31 36  1  0  0  0  0
 32 31  2  0  0  0  0
 32 37  1  0  0  0  0
 33 32  1  0  0  0  0
 34 35  1  0  0  0  0
 34 33  2  0  0  0  0
 35 30  2  0  0  0  0
 38 34  1  0  0  0  0
M  END
>  <minimizedAffinity>
-5.01362181

$$$$
