
 OpenBabel03272510123D

 33 36  0  0  0  0  0  0  0  0999 V2000
   36.3240   22.9480   32.0990 C   0  0  0  0  0  0  0  0  0  0  0  0
   35.5930   23.8670   31.4320 C   0  0  0  0  0  0  0  0  0  0  0  0
   35.8840   25.2190   31.3760 C   0  0  0  0  0  0  0  0  0  0  0  0
   36.9820   25.6980   32.0310 C   0  0  0  0  0  0  0  0  0  0  0  0
   37.7480   24.7520   32.7260 C   0  0  0  0  0  0  0  0  0  0  0  0
   37.4050   23.4530   32.7380 N   0  0  0  0  0  0  0  0  0  0  0  0
   34.7050   23.5820   30.8840 H   0  0  0  0  0  0  0  0  0  0  0  0
   35.3000   25.9510   30.8440 H   0  0  0  0  0  0  0  0  0  0  0  0
   38.6430   24.9650   33.2930 H   0  0  0  0  0  0  0  0  0  0  0  0
   36.0140   20.6970   31.0360 C   0  0  0  0  0  0  0  0  0  0  0  0
   36.0160   21.5510   32.1510 C   0  0  0  0  0  0  0  0  0  0  0  0
   35.6940   20.9690   33.3700 C   0  0  0  0  0  0  0  0  0  0  0  0
   35.3980   19.6260   33.4110 N   0  0  0  0  0  0  0  0  0  0  0  0
   35.4160   18.8680   32.2990 C   0  0  0  0  0  0  0  0  0  0  0  0
   35.7260   19.3980   31.0940 N   0  0  0  0  0  0  0  0  0  0  0  0
   36.2610   21.1210   30.0720 H   0  0  0  0  0  0  0  0  0  0  0  0
   35.6570   21.5090   34.3070 H   0  0  0  0  0  0  0  0  0  0  0  0
   35.1840   17.8140   32.3390 H   0  0  0  0  0  0  0  0  0  0  0  0
   37.4260   27.0200   32.0840 O   0  0  0  0  0  0  0  0  0  0  0  0
   36.6010   28.0520   32.5000 C   0  0  0  0  0  0  0  0  0  0  0  0
   36.0000   28.7570   31.4770 C   0  0  0  0  0  0  0  0  0  0  0  0
   35.2080   29.7520   32.0450 C   0  0  0  0  0  0  0  0  0  0  0  0
   35.3510   29.6210   33.3710 N   0  0  0  0  0  0  0  0  0  0  0  0
   36.1640   28.6280   33.6220 N   0  0  0  0  0  0  0  0  0  0  0  0
   36.0080   28.7100   30.3790 H   0  0  0  0  0  0  0  0  0  0  0  0
   34.5600   30.5390   31.6760 H   0  0  0  0  0  0  0  0  0  0  0  0
   34.8160   30.3150   34.5210 C   0  0  0  0  0  0  0  0  0  0  0  0
   33.3550   30.3710   34.9870 C   0  0  0  0  0  0  0  0  0  0  0  0
   32.7510   29.7930   34.3060 H   0  0  0  0  0  0  0  0  0  0  0  0
   33.5800   31.4160   36.4450 S   0  0  0  0  0  0  0  0  0  0  0  0
   35.4570   31.6080   36.2290 C   0  0  0  0  0  0  0  0  0  0  0  0
   35.9170   32.2010   36.9700 H   0  0  0  0  0  0  0  0  0  0  0  0
   35.8020   30.9410   35.1720 N   0  0  0  0  0  0  0  0  0  0  0  0
  1 11  1  0  0  0  0
  1  6  1  0  0  0  0
  2  1  2  0  0  0  0
  3  2  1  0  0  0  0
  3  4  2  0  0  0  0
  4 19  1  0  0  0  0
  4  5  1  0  0  0  0
  5  6  2  0  0  0  0
  5  9  1  0  0  0  0
  7  2  1  0  0  0  0
  8  3  1  0  0  0  0
 10 15  2  0  0  0  0
 10 11  1  0  0  0  0
 11 12  2  0  0  0  0
 12 13  1  0  0  0  0
 12 17  1  0  0  0  0
 14 18  1  0  0  0  0
 14 13  2  0  0  0  0
 15 14  1  0  0  0  0
 16 10  1  0  0  0  0
 19 20  1  0  0  0  0
 20 24  2  0  0  0  0
 21 22  2  0  0  0  0
 21 20  1  0  0  0  0
 22 23  1  0  0  0  0
 23 24  1  0  0  0  0
 23 27  1  0  0  0  0
 25 21  1  0  0  0  0
 26 22  1  0  0  0  0
 27 28  2  0  0  0  0
 27 33  1  0  0  0  0
 28 30  1  0  0  0  0
 29 28  1  0  0  0  0
 31 30  1  0  0  0  0
 31 32  1  0  0  0  0
 33 31  2  0  0  0  0
M  END
>  <minimizedAffinity>
-5.32449436

$$$$

 OpenBabel03272510123D

 33 36  0  0  0  0  0  0  0  0999 V2000
   38.4400   25.4960   35.5010 C   0  0  0  0  0  0  0  0  0  0  0  0
   38.3620   26.7410   36.0170 C   0  0  0  0  0  0  0  0  0  0  0  0
   37.7010   27.8040   35.4230 C   0  0  0  0  0  0  0  0  0  0  0  0
   37.0700   27.6180   34.2270 C   0  0  0  0  0  0  0  0  0  0  0  0
   37.1450   26.3280   33.6830 C   0  0  0  0  0  0  0  0  0  0  0  0
   37.8050   25.3440   34.3160 N   0  0  0  0  0  0  0  0  0  0  0  0
   38.8310   26.9840   36.9610 H   0  0  0  0  0  0  0  0  0  0  0  0
   37.6400   28.7960   35.8350 H   0  0  0  0  0  0  0  0  0  0  0  0
   36.7020   26.0160   32.7470 H   0  0  0  0  0  0  0  0  0  0  0  0
   38.7330   23.8070   37.3320 C   0  0  0  0  0  0  0  0  0  0  0  0
   39.1250   24.4040   36.1220 C   0  0  0  0  0  0  0  0  0  0  0  0
   40.2560   23.8750   35.5160 C   0  0  0  0  0  0  0  0  0  0  0  0
   40.9090   22.8250   36.1200 N   0  0  0  0  0  0  0  0  0  0  0  0
   40.4740   22.3030   37.2820 C   0  0  0  0  0  0  0  0  0  0  0  0
   39.3770   22.7900   37.9030 N   0  0  0  0  0  0  0  0  0  0  0  0
   37.8540   24.1970   37.8290 H   0  0  0  0  0  0  0  0  0  0  0  0
   40.6680   24.2380   34.5840 H   0  0  0  0  0  0  0  0  0  0  0  0
   40.9910   21.4780   37.7500 H   0  0  0  0  0  0  0  0  0  0  0  0
   36.3610   28.5660   33.4880 O   0  0  0  0  0  0  0  0  0  0  0  0
   35.5210   29.4850   34.0950 C   0  0  0  0  0  0  0  0  0  0  0  0
   34.1800   29.3090   33.8220 C   0  0  0  0  0  0  0  0  0  0  0  0
   33.4680   30.2980   34.4950 C   0  0  0  0  0  0  0  0  0  0  0  0
   34.3830   31.0310   35.1440 N   0  0  0  0  0  0  0  0  0  0  0  0
   35.5740   30.5470   34.9030 N   0  0  0  0  0  0  0  0  0  0  0  0
   33.5850   28.6030   33.2260 H   0  0  0  0  0  0  0  0  0  0  0  0
   32.4250   30.5770   34.5960 H   0  0  0  0  0  0  0  0  0  0  0  0
   34.3270   32.1840   36.0140 C   0  0  0  0  0  0  0  0  0  0  0  0
   33.4720   32.3680   37.2750 C   0  0  0  0  0  0  0  0  0  0  0  0
   32.8900   31.4740   37.4320 H   0  0  0  0  0  0  0  0  0  0  0  0
   34.0040   34.0380   37.7170 S   0  0  0  0  0  0  0  0  0  0  0  0
   35.2030   34.2270   36.2560 C   0  0  0  0  0  0  0  0  0  0  0  0
   35.7040   35.1550   36.2280 H   0  0  0  0  0  0  0  0  0  0  0  0
   35.1570   33.1320   35.5650 N   0  0  0  0  0  0  0  0  0  0  0  0
  1  2  1  0  0  0  0
  1 11  1  0  0  0  0
  2  7  1  0  0  0  0
  3  8  1  0  0  0  0
  3  2  2  0  0  0  0
  4  3  1  0  0  0  0
  5  4  2  0  0  0  0
  5  6  1  0  0  0  0
  6  1  2  0  0  0  0
  9  5  1  0  0  0  0
 10 16  1  0  0  0  0
 10 15  1  0  0  0  0
 11 10  2  0  0  0  0
 12 13  2  0  0  0  0
 12 11  1  0  0  0  0
 13 14  1  0  0  0  0
 14 18  1  0  0  0  0
 14 15  2  0  0  0  0
 17 12  1  0  0  0  0
 19 20  1  0  0  0  0
 19  4  1  0  0  0  0
 20 24  2  0  0  0  0
 21 20  1  0  0  0  0
 21 22  2  0  0  0  0
 22 26  1  0  0  0  0
 22 23  1  0  0  0  0
 23 27  1  0  0  0  0
 24 23  1  0  0  0  0
 25 21  1  0  0  0  0
 27 28  2  0  0  0  0
 28 29  1  0  0  0  0
 28 30  1  0  0  0  0
 31 30  1  0  0  0  0
 32 31  1  0  0  0  0
 33 27  1  0  0  0  0
 33 31  2  0  0  0  0
M  END
>  <minimizedAffinity>
-5.3196125

$$$$

 OpenBabel03272510123D

 33 36  0  0  0  0  0  0  0  0999 V2000
   38.3680   25.3420   35.3190 C   0  0  0  0  0  0  0  0  0  0  0  0
   38.1370   26.6070   35.7300 C   0  0  0  0  0  0  0  0  0  0  0  0
   37.4610   27.5660   34.9940 C   0  0  0  0  0  0  0  0  0  0  0  0
   36.9770   27.2470   33.7580 C   0  0  0  0  0  0  0  0  0  0  0  0
   37.2120   25.9350   33.3230 C   0  0  0  0  0  0  0  0  0  0  0  0
   37.8770   25.0560   34.0910 N   0  0  0  0  0  0  0  0  0  0  0  0
   38.4820   26.9520   36.6950 H   0  0  0  0  0  0  0  0  0  0  0  0
   37.2770   28.5750   35.3220 H   0  0  0  0  0  0  0  0  0  0  0  0
   36.8970   25.5240   32.3740 H   0  0  0  0  0  0  0  0  0  0  0  0
   40.2710   23.7510   35.6910 C   0  0  0  0  0  0  0  0  0  0  0  0
   39.0670   24.3570   36.0860 C   0  0  0  0  0  0  0  0  0  0  0  0
   38.5490   23.9490   37.3080 C   0  0  0  0  0  0  0  0  0  0  0  0
   39.2280   23.0010   38.0390 N   0  0  0  0  0  0  0  0  0  0  0  0
   40.3790   22.4640   37.5950 C   0  0  0  0  0  0  0  0  0  0  0  0
   40.9160   22.8350   36.4110 N   0  0  0  0  0  0  0  0  0  0  0  0
   40.7010   24.0480   34.7420 H   0  0  0  0  0  0  0  0  0  0  0  0
   37.6310   24.3330   37.7330 H   0  0  0  0  0  0  0  0  0  0  0  0
   40.9070   21.7200   38.1750 H   0  0  0  0  0  0  0  0  0  0  0  0
   36.2770   28.0780   32.8830 O   0  0  0  0  0  0  0  0  0  0  0  0
   35.5130   29.1400   33.3380 C   0  0  0  0  0  0  0  0  0  0  0  0
   35.7670   30.3440   32.7120 C   0  0  0  0  0  0  0  0  0  0  0  0
   34.9310   31.3060   33.2700 C   0  0  0  0  0  0  0  0  0  0  0  0
   34.2070   30.6680   34.2000 N   0  0  0  0  0  0  0  0  0  0  0  0
   34.5550   29.4080   34.2290 N   0  0  0  0  0  0  0  0  0  0  0  0
   36.4450   30.6900   31.9190 H   0  0  0  0  0  0  0  0  0  0  0  0
   34.7560   32.3670   33.1250 H   0  0  0  0  0  0  0  0  0  0  0  0
   33.1710   31.0660   35.1270 C   0  0  0  0  0  0  0  0  0  0  0  0
   31.6770   31.2600   34.8380 C   0  0  0  0  0  0  0  0  0  0  0  0
   31.4950   31.0480   33.7970 H   0  0  0  0  0  0  0  0  0  0  0  0
   31.1450   31.7420   36.4970 S   0  0  0  0  0  0  0  0  0  0  0  0
   32.8740   31.6210   37.2730 C   0  0  0  0  0  0  0  0  0  0  0  0
   32.9020   31.8570   38.3000 H   0  0  0  0  0  0  0  0  0  0  0  0
   33.6990   31.2580   36.3410 N   0  0  0  0  0  0  0  0  0  0  0  0
  1  2  1  0  0  0  0
  1 11  1  0  0  0  0
  2  7  1  0  0  0  0
  3  8  1  0  0  0  0
  3  2  2  0  0  0  0
  4  3  1  0  0  0  0
  5  4  2  0  0  0  0
  5  6  1  0  0  0  0
  6  1  2  0  0  0  0
  9  5  1  0  0  0  0
 10 11  2  0  0  0  0
 10 15  1  0  0  0  0
 11 12  1  0  0  0  0
 12 17  1  0  0  0  0
 12 13  2  0  0  0  0
 14 13  1  0  0  0  0
 14 18  1  0  0  0  0
 15 14  2  0  0  0  0
 16 10  1  0  0  0  0
 19 20  1  0  0  0  0
 19  4  1  0  0  0  0
 20 24  2  0  0  0  0
 21 22  2  0  0  0  0
 21 20  1  0  0  0  0
 22 23  1  0  0  0  0
 23 24  1  0  0  0  0
 23 27  1  0  0  0  0
 25 21  1  0  0  0  0
 26 22  1  0  0  0  0
 27 33  1  0  0  0  0
 28 27  2  0  0  0  0
 28 30  1  0  0  0  0
 29 28  1  0  0  0  0
 30 31  1  0  0  0  0
 31 32  1  0  0  0  0
 33 31  2  0  0  0  0
M  END
>  <minimizedAffinity>
-5.30056524

$$$$

 OpenBabel03272510123D

 33 36  0  0  0  0  0  0  0  0999 V2000
   35.5170   29.9320   34.3120 C   0  0  0  0  0  0  0  0  0  0  0  0
   35.5300   30.1280   32.9760 C   0  0  0  0  0  0  0  0  0  0  0  0
   36.0800   29.2530   32.0540 C   0  0  0  0  0  0  0  0  0  0  0  0
   36.6600   28.0970   32.4880 C   0  0  0  0  0  0  0  0  0  0  0  0
   36.6510   27.8840   33.8740 C   0  0  0  0  0  0  0  0  0  0  0  0
   36.1000   28.7780   34.7110 N   0  0  0  0  0  0  0  0  0  0  0  0
   35.0940   31.0160   32.5380 H   0  0  0  0  0  0  0  0  0  0  0  0
   36.0900   29.4100   30.9890 H   0  0  0  0  0  0  0  0  0  0  0  0
   37.0670   27.0230   34.3780 H   0  0  0  0  0  0  0  0  0  0  0  0
   35.6880   31.7560   36.0260 C   0  0  0  0  0  0  0  0  0  0  0  0
   34.9470   30.8420   35.2580 C   0  0  0  0  0  0  0  0  0  0  0  0
   33.5730   30.8490   35.4550 C   0  0  0  0  0  0  0  0  0  0  0  0
   33.0330   31.7270   36.3670 N   0  0  0  0  0  0  0  0  0  0  0  0
   33.8070   32.5750   37.0680 C   0  0  0  0  0  0  0  0  0  0  0  0
   35.1490   32.5990   36.9040 N   0  0  0  0  0  0  0  0  0  0  0  0
   36.7620   31.7750   35.8950 H   0  0  0  0  0  0  0  0  0  0  0  0
   32.8840   30.1990   34.9310 H   0  0  0  0  0  0  0  0  0  0  0  0
   33.3760   33.2620   37.7820 H   0  0  0  0  0  0  0  0  0  0  0  0
   37.2580   27.1050   31.7100 O   0  0  0  0  0  0  0  0  0  0  0  0
   36.6970   25.8460   31.5730 C   0  0  0  0  0  0  0  0  0  0  0  0
   35.4380   25.8340   31.0070 C   0  0  0  0  0  0  0  0  0  0  0  0
   35.0090   24.5120   30.9350 C   0  0  0  0  0  0  0  0  0  0  0  0
   36.0030   23.7760   31.4500 N   0  0  0  0  0  0  0  0  0  0  0  0
   36.9800   24.5640   31.8170 N   0  0  0  0  0  0  0  0  0  0  0  0
   34.7410   26.5930   30.6250 H   0  0  0  0  0  0  0  0  0  0  0  0
   34.1220   23.9980   30.5830 H   0  0  0  0  0  0  0  0  0  0  0  0
   36.2090   22.3610   31.6680 C   0  0  0  0  0  0  0  0  0  0  0  0
   37.4270   21.5180   31.2690 C   0  0  0  0  0  0  0  0  0  0  0  0
   38.1460   22.1550   30.7800 H   0  0  0  0  0  0  0  0  0  0  0  0
   36.8620   19.9190   31.8980 S   0  0  0  0  0  0  0  0  0  0  0  0
   35.2020   20.5710   32.5520 C   0  0  0  0  0  0  0  0  0  0  0  0
   34.6000   19.8340   33.0070 H   0  0  0  0  0  0  0  0  0  0  0  0
   35.1490   21.8400   32.2950 N   0  0  0  0  0  0  0  0  0  0  0  0
  1  6  1  0  0  0  0
  1 11  1  0  0  0  0
  2  1  2  0  0  0  0
  3  4  2  0  0  0  0
  3  2  1  0  0  0  0
  4  5  1  0  0  0  0
  5  9  1  0  0  0  0
  5  6  2  0  0  0  0
  7  2  1  0  0  0  0
  8  3  1  0  0  0  0
 10 15  1  0  0  0  0
 11 12  1  0  0  0  0
 11 10  2  0  0  0  0
 12 13  2  0  0  0  0
 13 14  1  0  0  0  0
 14 18  1  0  0  0  0
 15 14  2  0  0  0  0
 16 10  1  0  0  0  0
 17 12  1  0  0  0  0
 19  4  1  0  0  0  0
 20 19  1  0  0  0  0
 20 24  2  0  0  0  0
 21 20  1  0  0  0  0
 22 21  2  0  0  0  0
 22 23  1  0  0  0  0
 23 27  1  0  0  0  0
 23 24  1  0  0  0  0
 25 21  1  0  0  0  0
 26 22  1  0  0  0  0
 27 33  1  0  0  0  0
 28 27  2  0  0  0  0
 28 30  1  0  0  0  0
 29 28  1  0  0  0  0
 30 31  1  0  0  0  0
 31 32  1  0  0  0  0
 33 31  2  0  0  0  0
M  END
>  <minimizedAffinity>
-5.23332834

$$$$

 OpenBabel03272510123D

 33 36  0  0  0  0  0  0  0  0999 V2000
   36.2620   23.6690   31.8120 C   0  0  0  0  0  0  0  0  0  0  0  0
   35.5270   24.5920   31.1550 C   0  0  0  0  0  0  0  0  0  0  0  0
   35.6990   25.9620   31.2620 C   0  0  0  0  0  0  0  0  0  0  0  0
   36.6730   26.4540   32.0810 C   0  0  0  0  0  0  0  0  0  0  0  0
   37.4430   25.5040   32.7670 C   0  0  0  0  0  0  0  0  0  0  0  0
   37.2190   24.1880   32.6160 N   0  0  0  0  0  0  0  0  0  0  0  0
   34.7310   24.2960   30.4840 H   0  0  0  0  0  0  0  0  0  0  0  0
   35.1120   26.6970   30.7380 H   0  0  0  0  0  0  0  0  0  0  0  0
   38.2500   25.7270   33.4510 H   0  0  0  0  0  0  0  0  0  0  0  0
   35.0090   21.5450   32.2680 C   0  0  0  0  0  0  0  0  0  0  0  0
   36.0770   22.2540   31.6960 C   0  0  0  0  0  0  0  0  0  0  0  0
   36.9970   21.5030   30.9770 C   0  0  0  0  0  0  0  0  0  0  0  0
   36.8110   20.1440   30.8710 N   0  0  0  0  0  0  0  0  0  0  0  0
   35.7610   19.5310   31.4480 C   0  0  0  0  0  0  0  0  0  0  0  0
   34.8440   20.2280   32.1560 N   0  0  0  0  0  0  0  0  0  0  0  0
   34.2750   22.1030   32.8350 H   0  0  0  0  0  0  0  0  0  0  0  0
   37.8650   21.9200   30.4850 H   0  0  0  0  0  0  0  0  0  0  0  0
   35.6220   18.4630   31.3600 H   0  0  0  0  0  0  0  0  0  0  0  0
   36.9890   27.7940   32.3100 O   0  0  0  0  0  0  0  0  0  0  0  0
   36.0650   28.6830   32.8340 C   0  0  0  0  0  0  0  0  0  0  0  0
   35.6490   29.6660   31.9580 C   0  0  0  0  0  0  0  0  0  0  0  0
   34.7300   30.4750   32.6200 C   0  0  0  0  0  0  0  0  0  0  0  0
   34.6180   29.9670   33.8550 N   0  0  0  0  0  0  0  0  0  0  0  0
   35.4000   28.9250   33.9660 N   0  0  0  0  0  0  0  0  0  0  0  0
   35.8710   29.9350   30.9160 H   0  0  0  0  0  0  0  0  0  0  0  0
   34.1390   31.3500   32.3710 H   0  0  0  0  0  0  0  0  0  0  0  0
   33.8480   30.3150   35.0280 C   0  0  0  0  0  0  0  0  0  0  0  0
   34.0920   31.4770   36.0000 C   0  0  0  0  0  0  0  0  0  0  0  0
   34.9590   32.0270   35.6720 H   0  0  0  0  0  0  0  0  0  0  0  0
   32.7110   31.1750   37.1280 S   0  0  0  0  0  0  0  0  0  0  0  0
   32.0620   29.6510   36.1990 C   0  0  0  0  0  0  0  0  0  0  0  0
   31.2070   29.2140   36.6340 H   0  0  0  0  0  0  0  0  0  0  0  0
   32.8360   29.4530   35.1780 N   0  0  0  0  0  0  0  0  0  0  0  0
  1  6  1  0  0  0  0
  2  3  1  0  0  0  0
  2  1  2  0  0  0  0
  3  4  2  0  0  0  0
  4 19  1  0  0  0  0
  4  5  1  0  0  0  0
  5  9  1  0  0  0  0
  6  5  2  0  0  0  0
  7  2  1  0  0  0  0
  8  3  1  0  0  0  0
 10 16  1  0  0  0  0
 11  1  1  0  0  0  0
 11 10  2  0  0  0  0
 12 11  1  0  0  0  0
 13 12  2  0  0  0  0
 13 14  1  0  0  0  0
 14 15  2  0  0  0  0
 15 10  1  0  0  0  0
 17 12  1  0  0  0  0
 18 14  1  0  0  0  0
 19 20  1  0  0  0  0
 20 24  2  0  0  0  0
 21 22  2  0  0  0  0
 21 20  1  0  0  0  0
 22 23  1  0  0  0  0
 23 24  1  0  0  0  0
 23 27  1  0  0  0  0
 25 21  1  0  0  0  0
 26 22  1  0  0  0  0
 27 33  1  0  0  0  0
 27 28  2  0  0  0  0
 28 30  1  0  0  0  0
 29 28  1  0  0  0  0
 31 32  1  0  0  0  0
 31 30  1  0  0  0  0
 33 31  2  0  0  0  0
M  END
>  <minimizedAffinity>
-5.18770742

$$$$

 OpenBabel03272510123D

 33 36  0  0  0  0  0  0  0  0999 V2000
   36.2190   22.8340   31.9720 C   0  0  0  0  0  0  0  0  0  0  0  0
   35.4720   23.6940   31.2460 C   0  0  0  0  0  0  0  0  0  0  0  0
   35.6730   25.0630   31.1900 C   0  0  0  0  0  0  0  0  0  0  0  0
   36.6900   25.6230   31.9070 C   0  0  0  0  0  0  0  0  0  0  0  0
   37.4720   24.7390   32.6640 C   0  0  0  0  0  0  0  0  0  0  0  0
   37.2190   23.4190   32.6710 N   0  0  0  0  0  0  0  0  0  0  0  0
   34.6440   23.3420   30.6460 H   0  0  0  0  0  0  0  0  0  0  0  0
   35.0760   25.7470   30.6110 H   0  0  0  0  0  0  0  0  0  0  0  0
   38.3110   25.0190   33.2840 H   0  0  0  0  0  0  0  0  0  0  0  0
   36.1340   20.5570   30.9230 C   0  0  0  0  0  0  0  0  0  0  0  0
   36.0050   21.4200   32.0240 C   0  0  0  0  0  0  0  0  0  0  0  0
   35.6450   20.8290   33.2270 C   0  0  0  0  0  0  0  0  0  0  0  0
   35.4400   19.4690   33.2680 N   0  0  0  0  0  0  0  0  0  0  0  0
   35.5820   18.7040   32.1700 C   0  0  0  0  0  0  0  0  0  0  0  0
   35.9320   19.2420   30.9810 N   0  0  0  0  0  0  0  0  0  0  0  0
   36.4140   20.9880   29.9700 H   0  0  0  0  0  0  0  0  0  0  0  0
   35.5100   21.3740   34.1520 H   0  0  0  0  0  0  0  0  0  0  0  0
   35.4200   17.6360   32.2100 H   0  0  0  0  0  0  0  0  0  0  0  0
   37.0380   26.9720   31.9700 O   0  0  0  0  0  0  0  0  0  0  0  0
   36.1870   27.9220   32.5120 C   0  0  0  0  0  0  0  0  0  0  0  0
   36.4190   28.2120   33.8410 C   0  0  0  0  0  0  0  0  0  0  0  0
   35.4960   29.1730   34.2410 C   0  0  0  0  0  0  0  0  0  0  0  0
   34.7450   29.4320   33.1620 N   0  0  0  0  0  0  0  0  0  0  0  0
   35.1590   28.6970   32.1620 N   0  0  0  0  0  0  0  0  0  0  0  0
   37.1290   27.8720   34.6080 H   0  0  0  0  0  0  0  0  0  0  0  0
   35.2740   29.7080   35.1580 H   0  0  0  0  0  0  0  0  0  0  0  0
   33.6330   30.3140   32.8880 C   0  0  0  0  0  0  0  0  0  0  0  0
   32.5610   30.8040   33.8700 C   0  0  0  0  0  0  0  0  0  0  0  0
   32.7600   30.3810   34.8420 H   0  0  0  0  0  0  0  0  0  0  0  0
   31.5990   31.8250   32.7290 S   0  0  0  0  0  0  0  0  0  0  0  0
   32.6950   31.4690   31.2190 C   0  0  0  0  0  0  0  0  0  0  0  0
   32.3800   31.9510   30.3350 H   0  0  0  0  0  0  0  0  0  0  0  0
   33.6460   30.6750   31.6010 N   0  0  0  0  0  0  0  0  0  0  0  0
  1 11  1  0  0  0  0
  1  6  1  0  0  0  0
  2  1  2  0  0  0  0
  3  2  1  0  0  0  0
  3  4  2  0  0  0  0
  4 19  1  0  0  0  0
  4  5  1  0  0  0  0
  5  6  2  0  0  0  0
  5  9  1  0  0  0  0
  7  2  1  0  0  0  0
  8  3  1  0  0  0  0
 10 15  2  0  0  0  0
 10 11  1  0  0  0  0
 11 12  2  0  0  0  0
 12 13  1  0  0  0  0
 12 17  1  0  0  0  0
 14 18  1  0  0  0  0
 14 13  2  0  0  0  0
 15 14  1  0  0  0  0
 16 10  1  0  0  0  0
 19 20  1  0  0  0  0
 20 21  1  0  0  0  0
 21 22  2  0  0  0  0
 21 25  1  0  0  0  0
 22 26  1  0  0  0  0
 23 22  1  0  0  0  0
 24 20  2  0  0  0  0
 24 23  1  0  0  0  0
 27 23  1  0  0  0  0
 27 28  2  0  0  0  0
 28 29  1  0  0  0  0
 30 28  1  0  0  0  0
 31 33  2  0  0  0  0
 31 30  1  0  0  0  0
 32 31  1  0  0  0  0
 33 27  1  0  0  0  0
M  END
>  <minimizedAffinity>
-5.1657033

$$$$

 OpenBabel03272510123D

 33 36  0  0  0  0  0  0  0  0999 V2000
   38.1240   25.3690   35.1450 C   0  0  0  0  0  0  0  0  0  0  0  0
   37.7470   26.6420   35.3930 C   0  0  0  0  0  0  0  0  0  0  0  0
   37.2150   27.5060   34.4510 C   0  0  0  0  0  0  0  0  0  0  0  0
   37.0440   27.0780   33.1670 C   0  0  0  0  0  0  0  0  0  0  0  0
   37.4320   25.7570   32.8990 C   0  0  0  0  0  0  0  0  0  0  0  0
   37.9430   24.9740   33.8640 N   0  0  0  0  0  0  0  0  0  0  0  0
   37.8460   27.0700   36.3820 H   0  0  0  0  0  0  0  0  0  0  0  0
   36.9150   28.5210   34.6500 H   0  0  0  0  0  0  0  0  0  0  0  0
   37.3620   25.2660   31.9390 H   0  0  0  0  0  0  0  0  0  0  0  0
   38.1220   24.2680   37.3990 C   0  0  0  0  0  0  0  0  0  0  0  0
   38.6740   24.4820   36.1250 C   0  0  0  0  0  0  0  0  0  0  0  0
   39.8280   23.7710   35.8300 C   0  0  0  0  0  0  0  0  0  0  0  0
   40.3500   22.9210   36.7780 N   0  0  0  0  0  0  0  0  0  0  0  0
   39.7660   22.7660   37.9800 C   0  0  0  0  0  0  0  0  0  0  0  0
   38.6400   23.4410   38.3050 N   0  0  0  0  0  0  0  0  0  0  0  0
   37.2210   24.8090   37.6590 H   0  0  0  0  0  0  0  0  0  0  0  0
   40.3570   23.8400   34.8880 H   0  0  0  0  0  0  0  0  0  0  0  0
   40.1810   22.0960   38.7190 H   0  0  0  0  0  0  0  0  0  0  0  0
   36.5260   27.8040   32.0940 O   0  0  0  0  0  0  0  0  0  0  0  0
   35.5080   28.7290   32.2610 C   0  0  0  0  0  0  0  0  0  0  0  0
   35.8890   30.0440   32.0800 C   0  0  0  0  0  0  0  0  0  0  0  0
   34.7710   30.8490   32.2780 C   0  0  0  0  0  0  0  0  0  0  0  0
   33.7640   30.0130   32.5690 N   0  0  0  0  0  0  0  0  0  0  0  0
   34.2070   28.7820   32.5560 N   0  0  0  0  0  0  0  0  0  0  0  0
   36.8230   30.5640   31.8290 H   0  0  0  0  0  0  0  0  0  0  0  0
   34.5600   31.9120   32.2510 H   0  0  0  0  0  0  0  0  0  0  0  0
   32.3620   30.1830   32.8750 C   0  0  0  0  0  0  0  0  0  0  0  0
   31.3810   31.1880   32.2560 C   0  0  0  0  0  0  0  0  0  0  0  0
   31.9070   31.7790   31.5240 H   0  0  0  0  0  0  0  0  0  0  0  0
   29.9010   30.7250   33.1860 S   0  0  0  0  0  0  0  0  0  0  0  0
   30.7540   29.3570   34.1910 C   0  0  0  0  0  0  0  0  0  0  0  0
   30.1160   28.8620   34.8710 H   0  0  0  0  0  0  0  0  0  0  0  0
   31.9940   29.3110   33.8200 N   0  0  0  0  0  0  0  0  0  0  0  0
  1  2  1  0  0  0  0
  1 11  1  0  0  0  0
  2  7  1  0  0  0  0
  3  8  1  0  0  0  0
  3  2  2  0  0  0  0
  4  3  1  0  0  0  0
  5  4  2  0  0  0  0
  5  6  1  0  0  0  0
  6  1  2  0  0  0  0
  9  5  1  0  0  0  0
 10 16  1  0  0  0  0
 10 15  1  0  0  0  0
 11 10  2  0  0  0  0
 12 11  1  0  0  0  0
 12 13  2  0  0  0  0
 13 14  1  0  0  0  0
 14 15  2  0  0  0  0
 14 18  1  0  0  0  0
 17 12  1  0  0  0  0
 19 20  1  0  0  0  0
 19  4  1  0  0  0  0
 20 24  2  0  0  0  0
 21 20  1  0  0  0  0
 21 22  2  0  0  0  0
 22 23  1  0  0  0  0
 23 27  1  0  0  0  0
 24 23  1  0  0  0  0
 25 21  1  0  0  0  0
 26 22  1  0  0  0  0
 27 33  1  0  0  0  0
 28 27  2  0  0  0  0
 28 30  1  0  0  0  0
 29 28  1  0  0  0  0
 30 31  1  0  0  0  0
 31 32  1  0  0  0  0
 33 31  2  0  0  0  0
M  END
>  <minimizedAffinity>
-5.11058617

$$$$

 OpenBabel03272510123D

 33 36  0  0  0  0  0  0  0  0999 V2000
   35.6040   29.4410   34.1220 C   0  0  0  0  0  0  0  0  0  0  0  0
   36.3620   28.3920   34.5080 C   0  0  0  0  0  0  0  0  0  0  0  0
   36.8980   27.4460   33.6500 C   0  0  0  0  0  0  0  0  0  0  0  0
   36.6640   27.5460   32.3090 C   0  0  0  0  0  0  0  0  0  0  0  0
   35.8780   28.6320   31.8980 C   0  0  0  0  0  0  0  0  0  0  0  0
   35.3900   29.5120   32.7880 N   0  0  0  0  0  0  0  0  0  0  0  0
   36.6000   28.2300   35.5500 H   0  0  0  0  0  0  0  0  0  0  0  0
   37.5020   26.6100   33.9590 H   0  0  0  0  0  0  0  0  0  0  0  0
   35.6010   28.8540   30.8780 H   0  0  0  0  0  0  0  0  0  0  0  0
   33.6840   30.5560   35.2890 C   0  0  0  0  0  0  0  0  0  0  0  0
   35.0550   30.4150   35.0160 C   0  0  0  0  0  0  0  0  0  0  0  0
   35.9050   31.2950   35.6720 C   0  0  0  0  0  0  0  0  0  0  0  0
   35.3680   32.2280   36.5280 N   0  0  0  0  0  0  0  0  0  0  0  0
   34.0420   32.3050   36.7420 C   0  0  0  0  0  0  0  0  0  0  0  0
   33.1820   31.4660   36.1220 N   0  0  0  0  0  0  0  0  0  0  0  0
   32.9960   29.8840   34.7930 H   0  0  0  0  0  0  0  0  0  0  0  0
   36.9800   31.2970   35.5530 H   0  0  0  0  0  0  0  0  0  0  0  0
   33.6270   33.0400   37.4160 H   0  0  0  0  0  0  0  0  0  0  0  0
   37.1190   26.6910   31.3050 O   0  0  0  0  0  0  0  0  0  0  0  0
   36.8270   25.3370   31.3090 C   0  0  0  0  0  0  0  0  0  0  0  0
   35.4880   25.0360   31.1630 C   0  0  0  0  0  0  0  0  0  0  0  0
   35.3510   23.6510   31.1860 C   0  0  0  0  0  0  0  0  0  0  0  0
   36.5890   23.1630   31.3430 N   0  0  0  0  0  0  0  0  0  0  0  0
   37.4390   24.1550   31.4130 N   0  0  0  0  0  0  0  0  0  0  0  0
   34.5610   25.6140   31.0400 H   0  0  0  0  0  0  0  0  0  0  0  0
   34.5300   22.9470   31.1110 H   0  0  0  0  0  0  0  0  0  0  0  0
   37.1500   21.8340   31.4420 C   0  0  0  0  0  0  0  0  0  0  0  0
   36.5740   20.5280   30.8790 C   0  0  0  0  0  0  0  0  0  0  0  0
   35.6470   20.7470   30.3730 H   0  0  0  0  0  0  0  0  0  0  0  0
   37.8690   19.4000   31.4440 S   0  0  0  0  0  0  0  0  0  0  0  0
   38.9100   20.7450   32.2880 C   0  0  0  0  0  0  0  0  0  0  0  0
   39.7910   20.3850   32.7430 H   0  0  0  0  0  0  0  0  0  0  0  0
   38.3000   21.8770   32.1240 N   0  0  0  0  0  0  0  0  0  0  0  0
  1  2  1  0  0  0  0
  1 11  1  0  0  0  0
  2  7  1  0  0  0  0
  3  8  1  0  0  0  0
  3  2  2  0  0  0  0
  4  3  1  0  0  0  0
  5  4  2  0  0  0  0
  5  6  1  0  0  0  0
  6  1  2  0  0  0  0
  9  5  1  0  0  0  0
 10 15  1  0  0  0  0
 11 10  2  0  0  0  0
 11 12  1  0  0  0  0
 12 13  2  0  0  0  0
 13 14  1  0  0  0  0
 14 18  1  0  0  0  0
 15 14  2  0  0  0  0
 16 10  1  0  0  0  0
 17 12  1  0  0  0  0
 19 20  1  0  0  0  0
 19  4  1  0  0  0  0
 20 24  2  0  0  0  0
 21 22  2  0  0  0  0
 21 20  1  0  0  0  0
 22 23  1  0  0  0  0
 23 24  1  0  0  0  0
 23 27  1  0  0  0  0
 25 21  1  0  0  0  0
 26 22  1  0  0  0  0
 27 33  1  0  0  0  0
 28 27  2  0  0  0  0
 28 30  1  0  0  0  0
 29 28  1  0  0  0  0
 30 31  1  0  0  0  0
 31 32  1  0  0  0  0
 33 31  2  0  0  0  0
M  END
>  <minimizedAffinity>
-5.03673124

$$$$

 OpenBabel03272510123D

 33 36  0  0  0  0  0  0  0  0999 V2000
   36.3140   22.9450   31.8930 C   0  0  0  0  0  0  0  0  0  0  0  0
   35.4480   23.8510   31.3930 C   0  0  0  0  0  0  0  0  0  0  0  0
   35.7310   25.1930   31.2020 C   0  0  0  0  0  0  0  0  0  0  0  0
   36.9650   25.6730   31.5310 C   0  0  0  0  0  0  0  0  0  0  0  0
   37.8720   24.7390   32.0510 C   0  0  0  0  0  0  0  0  0  0  0  0
   37.5280   23.4500   32.2100 N   0  0  0  0  0  0  0  0  0  0  0  0
   34.4460   23.5650   31.1040 H   0  0  0  0  0  0  0  0  0  0  0  0
   35.0390   25.9160   30.8030 H   0  0  0  0  0  0  0  0  0  0  0  0
   38.8850   24.9550   32.3600 H   0  0  0  0  0  0  0  0  0  0  0  0
   35.7080   20.9800   33.3300 C   0  0  0  0  0  0  0  0  0  0  0  0
   36.0130   21.5590   32.0870 C   0  0  0  0  0  0  0  0  0  0  0  0
   36.0150   20.7010   30.9960 C   0  0  0  0  0  0  0  0  0  0  0  0
   35.7250   19.3700   31.1920 N   0  0  0  0  0  0  0  0  0  0  0  0
   35.4410   18.8860   32.4150 C   0  0  0  0  0  0  0  0  0  0  0  0
   35.4290   19.6890   33.5020 N   0  0  0  0  0  0  0  0  0  0  0  0
   35.6980   21.6240   34.2010 H   0  0  0  0  0  0  0  0  0  0  0  0
   36.2330   21.0120   29.9830 H   0  0  0  0  0  0  0  0  0  0  0  0
   35.2140   17.8400   32.5610 H   0  0  0  0  0  0  0  0  0  0  0  0
   37.4240   26.9850   31.4080 O   0  0  0  0  0  0  0  0  0  0  0  0
   36.6710   28.0660   31.8360 C   0  0  0  0  0  0  0  0  0  0  0  0
   36.2730   28.9260   30.8330 C   0  0  0  0  0  0  0  0  0  0  0  0
   35.5320   29.9520   31.4110 C   0  0  0  0  0  0  0  0  0  0  0  0
   35.5030   29.6880   32.7250 N   0  0  0  0  0  0  0  0  0  0  0  0
   36.1700   28.5880   32.9590 N   0  0  0  0  0  0  0  0  0  0  0  0
   36.4050   28.9760   29.7430 H   0  0  0  0  0  0  0  0  0  0  0  0
   35.0190   30.8400   31.0570 H   0  0  0  0  0  0  0  0  0  0  0  0
   34.9140   30.3350   33.8760 C   0  0  0  0  0  0  0  0  0  0  0  0
   33.6620   29.9080   34.6530 C   0  0  0  0  0  0  0  0  0  0  0  0
   33.2610   29.0150   34.2020 H   0  0  0  0  0  0  0  0  0  0  0  0
   33.6500   31.2300   35.8870 S   0  0  0  0  0  0  0  0  0  0  0  0
   35.2080   32.0920   35.2260 C   0  0  0  0  0  0  0  0  0  0  0  0
   35.4840   32.9550   35.7670 H   0  0  0  0  0  0  0  0  0  0  0  0
   35.6300   31.4150   34.2050 N   0  0  0  0  0  0  0  0  0  0  0  0
  1 11  1  0  0  0  0
  1  6  1  0  0  0  0
  2  1  2  0  0  0  0
  3  2  1  0  0  0  0
  3  4  2  0  0  0  0
  4  5  1  0  0  0  0
  5  6  2  0  0  0  0
  5  9  1  0  0  0  0
  7  2  1  0  0  0  0
  8  3  1  0  0  0  0
 10 15  1  0  0  0  0
 10 16  1  0  0  0  0
 11 10  2  0  0  0  0
 12 13  2  0  0  0  0
 12 11  1  0  0  0  0
 13 14  1  0  0  0  0
 14 18  1  0  0  0  0
 14 15  2  0  0  0  0
 17 12  1  0  0  0  0
 19  4  1  0  0  0  0
 19 20  1  0  0  0  0
 20 24  2  0  0  0  0
 21 22  2  0  0  0  0
 21 20  1  0  0  0  0
 22 23  1  0  0  0  0
 23 24  1  0  0  0  0
 23 27  1  0  0  0  0
 25 21  1  0  0  0  0
 26 22  1  0  0  0  0
 27 33  1  0  0  0  0
 27 28  2  0  0  0  0
 28 30  1  0  0  0  0
 29 28  1  0  0  0  0
 31 32  1  0  0  0  0
 31 30  1  0  0  0  0
 33 31  2  0  0  0  0
M  END
>  <minimizedAffinity>
-5.0220437

$$$$
