
 OpenBabel03272509473D

 23 24  0  0  0  0  0  0  0  0999 V2000
   34.0920   28.4880   48.6040 C   0  0  0  0  0  0  0  0  0  0  0  0
   33.1170   29.0330   48.7180 H   0  0  0  0  0  0  0  0  0  0  0  0
   34.6960   29.0800   47.8690 H   0  0  0  0  0  0  0  0  0  0  0  0
   33.8050   27.1600   47.9440 C   0  0  0  0  0  0  0  0  0  0  0  0
   33.0580   26.6160   48.5350 H   0  0  0  0  0  0  0  0  0  0  0  0
   34.7090   26.5440   47.8750 H   0  0  0  0  0  0  0  0  0  0  0  0
   33.2570   27.5010   46.5810 C   0  0  0  0  0  0  0  0  0  0  0  0
   32.1380   26.6420   46.2130 C   0  0  0  0  0  0  0  0  0  0  0  0
   31.6260   25.8300   46.6970 H   0  0  0  0  0  0  0  0  0  0  0  0
   31.6690   27.2590   44.5390 S   0  0  0  0  0  0  0  0  0  0  0  0
   33.0520   28.5580   44.6240 C   0  0  0  0  0  0  0  0  0  0  0  0
   33.6440   29.4950   44.0680 H   0  0  0  0  0  0  0  0  0  0  0  0
   33.5260   28.3750   45.6310 N   0  0  0  0  0  0  0  0  0  0  0  0
   34.7490   28.2920   49.8330 O   0  0  0  0  0  0  0  0  0  0  0  0
   37.3640   30.2460   51.4280 C   0  0  0  0  0  0  0  0  0  0  0  0
   38.0600   30.6730   50.2840 C   0  0  0  0  0  0  0  0  0  0  0  0
   37.6000   30.2710   49.0350 C   0  0  0  0  0  0  0  0  0  0  0  0
   36.4880   29.4790   49.0020 N   0  0  0  0  0  0  0  0  0  0  0  0
   35.8460   29.0890   50.1260 C   0  0  0  0  0  0  0  0  0  0  0  0
   36.2950   29.4810   51.3230 N   0  0  0  0  0  0  0  0  0  0  0  0
   37.6930   30.5400   52.4200 H   0  0  0  0  0  0  0  0  0  0  0  0
   38.9420   31.3060   50.3790 H   0  0  0  0  0  0  0  0  0  0  0  0
   38.1050   30.5760   48.1260 H   0  0  0  0  0  0  0  0  0  0  0  0
  1  2  1  0  0  0  0
  1 14  1  0  0  0  0
  3  1  1  0  0  0  0
  4  5  1  0  0  0  0
  4  1  1  0  0  0  0
  6  4  1  0  0  0  0
  7  4  1  0  0  0  0
  8  7  2  0  0  0  0
  8  9  1  0  0  0  0
 10 11  1  0  0  0  0
 10  8  1  0  0  0  0
 11 13  2  0  0  0  0
 12 11  1  0  0  0  0
 13  7  1  0  0  0  0
 14 19  1  0  0  0  0
 15 21  1  0  0  0  0
 16 22  1  0  0  0  0
 16 15  2  0  0  0  0
 17 16  1  0  0  0  0
 18 17  2  0  0  0  0
 18 19  1  0  0  0  0
 19 20  2  0  0  0  0
 20 15  1  0  0  0  0
 23 17  1  0  0  0  0
M  END
>  <minimizedAffinity>
-3.56545925

>  <minimizedRMSD>
0.274644017

$$$$
