
 OpenBabel03272504253D

 37 40  0  0  0  0  0  0  0  0999 V2000
   37.1970   27.5130   33.9650 C   0  0  0  0  0  0  0  0  0  0  0  0
   36.6500   27.2500   32.6940 C   0  0  0  0  0  0  0  0  0  0  0  0
   35.6180   27.9570   32.1330 C   0  0  0  0  0  0  0  0  0  0  0  0
   35.0380   29.0200   32.8190 C   0  0  0  0  0  0  0  0  0  0  0  0
   35.5200   29.3500   34.0780 C   0  0  0  0  0  0  0  0  0  0  0  0
   36.5500   28.5840   34.5530 C   0  0  0  0  0  0  0  0  0  0  0  0
   35.2560   27.6790   31.1410 H   0  0  0  0  0  0  0  0  0  0  0  0
   34.2400   29.5390   32.3460 H   0  0  0  0  0  0  0  0  0  0  0  0
   35.1030   30.1570   34.6340 H   0  0  0  0  0  0  0  0  0  0  0  0
   36.9080   28.8760   35.5550 H   0  0  0  0  0  0  0  0  0  0  0  0
   37.4930   24.0100   31.1720 C   0  0  0  0  0  0  0  0  0  0  0  0
   38.4820   24.4060   30.3710 C   0  0  0  0  0  0  0  0  0  0  0  0
   38.8850   25.6620   30.2960 C   0  0  0  0  0  0  0  0  0  0  0  0
   38.2640   26.5790   31.0740 N   0  0  0  0  0  0  0  0  0  0  0  0
   37.2740   26.2080   31.8940 C   0  0  0  0  0  0  0  0  0  0  0  0
   36.8880   24.9270   31.9450 N   0  0  0  0  0  0  0  0  0  0  0  0
   39.0170   23.7220   29.7310 H   0  0  0  0  0  0  0  0  0  0  0  0
   39.6840   26.0580   29.6600 H   0  0  0  0  0  0  0  0  0  0  0  0
   35.2030   21.1970   31.8170 C   0  0  0  0  0  0  0  0  0  0  0  0
   35.9140   20.1130   31.2320 C   0  0  0  0  0  0  0  0  0  0  0  0
   37.1660   20.3860   30.6250 C   0  0  0  0  0  0  0  0  0  0  0  0
   37.6260   21.6690   30.6300 N   0  0  0  0  0  0  0  0  0  0  0  0
   36.9430   22.6560   31.1820 C   0  0  0  0  0  0  0  0  0  0  0  0
   35.7280   22.4220   31.7780 N   0  0  0  0  0  0  0  0  0  0  0  0
   34.2460   21.0580   32.2950 H   0  0  0  0  0  0  0  0  0  0  0  0
   35.4880   19.1350   31.2680 H   0  0  0  0  0  0  0  0  0  0  0  0
   37.7160   19.5940   30.1820 H   0  0  0  0  0  0  0  0  0  0  0  0
   38.4820   26.6490   34.6330 S   0  0  0  0  0  0  0  0  0  0  0  0
   38.3540   27.0800   36.0550 O   0  0  0  0  0  0  0  0  0  0  0  0
   39.8040   27.1860   34.4040 O   0  0  0  0  0  0  0  0  0  0  0  0
   38.2990   25.0680   35.3670 C   0  0  0  0  0  0  0  0  0  0  0  0
   38.5550   23.7780   34.7820 C   0  0  0  0  0  0  0  0  0  0  0  0
   38.8830   23.7480   33.7270 H   0  0  0  0  0  0  0  0  0  0  0  0
   38.2130   22.5490   36.1140 S   0  0  0  0  0  0  0  0  0  0  0  0
   37.7690   23.9920   37.2650 C   0  0  0  0  0  0  0  0  0  0  0  0
   37.4320   23.9630   38.3520 H   0  0  0  0  0  0  0  0  0  0  0  0
   37.9050   24.9600   36.6470 N   0  0  0  0  0  0  0  0  0  0  0  0
  1  6  1  0  0  0  0
  1 28  1  0  0  0  0
  2  1  2  0  0  0  0
  3  2  1  0  0  0  0
  3  4  2  0  0  0  0
  4  5  1  0  0  0  0
  5  6  2  0  0  0  0
  5  9  1  0  0  0  0
  6 10  1  0  0  0  0
  7  3  1  0  0  0  0
  8  4  1  0  0  0  0
 11 23  1  0  0  0  0
 11 16  1  0  0  0  0
 12 11  2  0  0  0  0
 13 12  1  0  0  0  0
 13 14  2  0  0  0  0
 14 15  1  0  0  0  0
 15 16  2  0  0  0  0
 15  2  1  0  0  0  0
 17 12  1  0  0  0  0
 18 13  1  0  0  0  0
 19 25  1  0  0  0  0
 20 26  1  0  0  0  0
 20 19  2  0  0  0  0
 21 22  2  0  0  0  0
 21 20  1  0  0  0  0
 22 23  1  0  0  0  0
 23 24  2  0  0  0  0
 24 19  1  0  0  0  0
 27 21  1  0  0  0  0
 28 31  1  0  0  0  0
 28 29  2  0  0  0  0
 30 28  2  0  0  0  0
 31 37  1  0  0  0  0
 32 31  2  0  0  0  0
 32 34  1  0  0  0  0
 33 32  1  0  0  0  0
 34 35  1  0  0  0  0
 35 36  1  0  0  0  0
 37 35  2  0  0  0  0
M  END
>  <minimizedAffinity>
-5.85076618

$$$$

 OpenBabel03272504253D

 37 40  0  0  0  0  0  0  0  0999 V2000
   39.2440   25.7060   34.5250 C   0  0  0  0  0  0  0  0  0  0  0  0
   38.0610   25.7180   33.7620 C   0  0  0  0  0  0  0  0  0  0  0  0
   37.0510   26.6330   33.9130 C   0  0  0  0  0  0  0  0  0  0  0  0
   37.1520   27.6410   34.8670 C   0  0  0  0  0  0  0  0  0  0  0  0
   38.2890   27.7040   35.6600 C   0  0  0  0  0  0  0  0  0  0  0  0
   39.2390   26.7460   35.4350 C   0  0  0  0  0  0  0  0  0  0  0  0
   36.1660   26.5640   33.2770 H   0  0  0  0  0  0  0  0  0  0  0  0
   36.3450   28.3290   34.9510 H   0  0  0  0  0  0  0  0  0  0  0  0
   38.4040   28.4620   36.4010 H   0  0  0  0  0  0  0  0  0  0  0  0
   40.1290   26.8270   36.0830 H   0  0  0  0  0  0  0  0  0  0  0  0
   37.3280   22.6650   31.8480 C   0  0  0  0  0  0  0  0  0  0  0  0
   37.7540   23.0610   30.6490 C   0  0  0  0  0  0  0  0  0  0  0  0
   38.2600   24.2610   30.4290 C   0  0  0  0  0  0  0  0  0  0  0  0
   38.3510   25.1170   31.4740 N   0  0  0  0  0  0  0  0  0  0  0  0
   37.9390   24.7430   32.6900 C   0  0  0  0  0  0  0  0  0  0  0  0
   37.4280   23.5190   32.8790 N   0  0  0  0  0  0  0  0  0  0  0  0
   37.7120   22.4230   29.7810 H   0  0  0  0  0  0  0  0  0  0  0  0
   38.6240   24.6550   29.4740 H   0  0  0  0  0  0  0  0  0  0  0  0
   35.4950   19.9880   33.5950 C   0  0  0  0  0  0  0  0  0  0  0  0
   35.3980   19.0000   32.5760 C   0  0  0  0  0  0  0  0  0  0  0  0
   35.9660   19.2890   31.3090 C   0  0  0  0  0  0  0  0  0  0  0  0
   36.5740   20.4960   31.1290 N   0  0  0  0  0  0  0  0  0  0  0  0
   36.6500   21.3940   32.0950 C   0  0  0  0  0  0  0  0  0  0  0  0
   36.1090   21.1410   33.3320 N   0  0  0  0  0  0  0  0  0  0  0  0
   35.0850   19.8320   34.5800 H   0  0  0  0  0  0  0  0  0  0  0  0
   34.9050   18.0790   32.7940 H   0  0  0  0  0  0  0  0  0  0  0  0
   35.9060   18.5690   30.5330 H   0  0  0  0  0  0  0  0  0  0  0  0
   40.4890   24.5870   34.3120 S   0  0  0  0  0  0  0  0  0  0  0  0
   41.5770   25.2860   35.0540 O   0  0  0  0  0  0  0  0  0  0  0  0
   41.1320   24.5820   33.0180 O   0  0  0  0  0  0  0  0  0  0  0  0
   40.8600   23.3280   35.4730 C   0  0  0  0  0  0  0  0  0  0  0  0
   41.9010   22.3350   35.4120 C   0  0  0  0  0  0  0  0  0  0  0  0
   42.5480   22.3250   34.5150 H   0  0  0  0  0  0  0  0  0  0  0  0
   41.7610   21.3680   36.9750 S   0  0  0  0  0  0  0  0  0  0  0  0
   40.2970   22.4700   37.4700 C   0  0  0  0  0  0  0  0  0  0  0  0
   39.6610   22.4340   38.4130 H   0  0  0  0  0  0  0  0  0  0  0  0
   40.1480   23.2270   36.6090 N   0  0  0  0  0  0  0  0  0  0  0  0
  1  6  1  0  0  0  0
  2  3  1  0  0  0  0
  2  1  2  0  0  0  0
  3  4  2  0  0  0  0
  4  8  1  0  0  0  0
  4  5  1  0  0  0  0
  5  9  1  0  0  0  0
  6  5  2  0  0  0  0
  6 10  1  0  0  0  0
  7  3  1  0  0  0  0
 11 23  1  0  0  0  0
 11 16  1  0  0  0  0
 12 11  2  0  0  0  0
 13 12  1  0  0  0  0
 13 14  2  0  0  0  0
 14 15  1  0  0  0  0
 15 16  2  0  0  0  0
 15  2  1  0  0  0  0
 17 12  1  0  0  0  0
 18 13  1  0  0  0  0
 19 25  1  0  0  0  0
 20 26  1  0  0  0  0
 20 19  2  0  0  0  0
 21 20  1  0  0  0  0
 22 21  2  0  0  0  0
 22 23  1  0  0  0  0
 23 24  2  0  0  0  0
 24 19  1  0  0  0  0
 27 21  1  0  0  0  0
 28  1  1  0  0  0  0
 28 29  2  0  0  0  0
 28 31  1  0  0  0  0
 30 28  2  0  0  0  0
 31 37  1  0  0  0  0
 32 31  2  0  0  0  0
 32 34  1  0  0  0  0
 33 32  1  0  0  0  0
 34 35  1  0  0  0  0
 35 36  1  0  0  0  0
 37 35  2  0  0  0  0
M  END
>  <minimizedAffinity>
-5.75117207

$$$$

 OpenBabel03272504253D

 37 40  0  0  0  0  0  0  0  0999 V2000
   37.5510   23.3020   33.1320 C   0  0  0  0  0  0  0  0  0  0  0  0
   36.9200   23.8810   32.0150 C   0  0  0  0  0  0  0  0  0  0  0  0
   36.0440   23.2220   31.1910 C   0  0  0  0  0  0  0  0  0  0  0  0
   35.7180   21.8910   31.4320 C   0  0  0  0  0  0  0  0  0  0  0  0
   36.2930   21.2440   32.5160 C   0  0  0  0  0  0  0  0  0  0  0  0
   37.1560   21.9850   33.2770 C   0  0  0  0  0  0  0  0  0  0  0  0
   35.6030   23.7530   30.3440 H   0  0  0  0  0  0  0  0  0  0  0  0
   35.0350   21.4190   30.7670 H   0  0  0  0  0  0  0  0  0  0  0  0
   36.0690   20.2250   32.7330 H   0  0  0  0  0  0  0  0  0  0  0  0
   37.5930   21.4390   34.1300 H   0  0  0  0  0  0  0  0  0  0  0  0
   36.6630   27.5500   32.0450 C   0  0  0  0  0  0  0  0  0  0  0  0
   37.6940   27.8390   31.2520 C   0  0  0  0  0  0  0  0  0  0  0  0
   38.4670   26.9120   30.7140 C   0  0  0  0  0  0  0  0  0  0  0  0
   38.1880   25.6140   30.9810 N   0  0  0  0  0  0  0  0  0  0  0  0
   37.1530   25.2950   31.7670 C   0  0  0  0  0  0  0  0  0  0  0  0
   36.3910   26.2590   32.2990 N   0  0  0  0  0  0  0  0  0  0  0  0
   37.9630   28.8520   30.9990 H   0  0  0  0  0  0  0  0  0  0  0  0
   39.3290   27.0760   30.0590 H   0  0  0  0  0  0  0  0  0  0  0  0
   34.0260   30.0200   32.7640 C   0  0  0  0  0  0  0  0  0  0  0  0
   34.3960   30.4590   34.0650 C   0  0  0  0  0  0  0  0  0  0  0  0
   35.5460   29.8840   34.6620 C   0  0  0  0  0  0  0  0  0  0  0  0
   36.2390   28.9410   33.9630 N   0  0  0  0  0  0  0  0  0  0  0  0
   35.8720   28.5530   32.7540 C   0  0  0  0  0  0  0  0  0  0  0  0
   34.7620   29.0930   32.1510 N   0  0  0  0  0  0  0  0  0  0  0  0
   33.1620   30.4160   32.2530 H   0  0  0  0  0  0  0  0  0  0  0  0
   33.8010   31.2020   34.5490 H   0  0  0  0  0  0  0  0  0  0  0  0
   35.8430   30.1950   35.6310 H   0  0  0  0  0  0  0  0  0  0  0  0
   38.6090   24.1320   34.1500 S   0  0  0  0  0  0  0  0  0  0  0  0
   37.6820   25.1810   34.6650 O   0  0  0  0  0  0  0  0  0  0  0  0
   39.5470   25.0250   33.5100 O   0  0  0  0  0  0  0  0  0  0  0  0
   38.7610   23.7920   35.8630 C   0  0  0  0  0  0  0  0  0  0  0  0
   37.8690   24.1640   36.9290 C   0  0  0  0  0  0  0  0  0  0  0  0
   36.9790   24.7660   36.6670 H   0  0  0  0  0  0  0  0  0  0  0  0
   38.5960   23.4450   38.4630 S   0  0  0  0  0  0  0  0  0  0  0  0
   40.0120   22.7480   37.4080 C   0  0  0  0  0  0  0  0  0  0  0  0
   40.9110   22.1320   37.7340 H   0  0  0  0  0  0  0  0  0  0  0  0
   39.8000   23.0700   36.3180 N   0  0  0  0  0  0  0  0  0  0  0  0
  1  6  1  0  0  0  0
  1 28  1  0  0  0  0
  2  1  2  0  0  0  0
  3  4  2  0  0  0  0
  3  2  1  0  0  0  0
  4  5  1  0  0  0  0
  5  9  1  0  0  0  0
  5  6  2  0  0  0  0
  6 10  1  0  0  0  0
  7  3  1  0  0  0  0
  8  4  1  0  0  0  0
 11 16  1  0  0  0  0
 11 23  1  0  0  0  0
 12 11  2  0  0  0  0
 13 14  2  0  0  0  0
 13 12  1  0  0  0  0
 14 15  1  0  0  0  0
 15  2  1  0  0  0  0
 15 16  2  0  0  0  0
 17 12  1  0  0  0  0
 18 13  1  0  0  0  0
 19 20  1  0  0  0  0
 20 26  1  0  0  0  0
 20 21  2  0  0  0  0
 21 27  1  0  0  0  0
 22 21  1  0  0  0  0
 23 22  2  0  0  0  0
 24 23  1  0  0  0  0
 24 19  2  0  0  0  0
 25 19  1  0  0  0  0
 28 29  2  0  0  0  0
 28 31  1  0  0  0  0
 30 28  2  0  0  0  0
 31 37  1  0  0  0  0
 31 32  2  0  0  0  0
 32 34  1  0  0  0  0
 33 32  1  0  0  0  0
 35 36  1  0  0  0  0
 35 34  1  0  0  0  0
 37 35  2  0  0  0  0
M  END
>  <minimizedAffinity>
-5.60576582

$$$$

 OpenBabel03272504253D

 37 40  0  0  0  0  0  0  0  0999 V2000
   33.3510   30.8020   34.8180 C   0  0  0  0  0  0  0  0  0  0  0  0
   34.7420   30.8830   34.6090 C   0  0  0  0  0  0  0  0  0  0  0  0
   35.6300   31.4160   35.5070 C   0  0  0  0  0  0  0  0  0  0  0  0
   35.1830   31.9210   36.7240 C   0  0  0  0  0  0  0  0  0  0  0  0
   33.8260   31.8770   37.0130 C   0  0  0  0  0  0  0  0  0  0  0  0
   33.0200   31.3290   36.0520 C   0  0  0  0  0  0  0  0  0  0  0  0
   36.6940   31.4390   35.2590 H   0  0  0  0  0  0  0  0  0  0  0  0
   35.9070   32.3260   37.3900 H   0  0  0  0  0  0  0  0  0  0  0  0
   33.4460   32.2540   37.9330 H   0  0  0  0  0  0  0  0  0  0  0  0
   31.9480   31.3100   36.3160 H   0  0  0  0  0  0  0  0  0  0  0  0
   36.0030   28.4850   32.1230 C   0  0  0  0  0  0  0  0  0  0  0  0
   36.2350   29.3280   31.1170 C   0  0  0  0  0  0  0  0  0  0  0  0
   36.0020   30.6260   31.2010 C   0  0  0  0  0  0  0  0  0  0  0  0
   35.5110   31.1120   32.3650 N   0  0  0  0  0  0  0  0  0  0  0  0
   35.2760   30.2900   33.3940 C   0  0  0  0  0  0  0  0  0  0  0  0
   35.5210   28.9790   33.2750 N   0  0  0  0  0  0  0  0  0  0  0  0
   36.6300   29.0020   30.1680 H   0  0  0  0  0  0  0  0  0  0  0  0
   36.1650   31.3740   30.4180 H   0  0  0  0  0  0  0  0  0  0  0  0
   37.2110   25.0540   32.7050 C   0  0  0  0  0  0  0  0  0  0  0  0
   36.3980   24.3110   31.8050 C   0  0  0  0  0  0  0  0  0  0  0  0
   35.4480   25.0170   31.0240 C   0  0  0  0  0  0  0  0  0  0  0  0
   35.3600   26.3700   31.1730 N   0  0  0  0  0  0  0  0  0  0  0  0
   36.1300   27.0330   32.0170 C   0  0  0  0  0  0  0  0  0  0  0  0
   37.0590   26.3750   32.7860 N   0  0  0  0  0  0  0  0  0  0  0  0
   37.9530   24.5780   33.3270 H   0  0  0  0  0  0  0  0  0  0  0  0
   36.5260   23.2530   31.7450 H   0  0  0  0  0  0  0  0  0  0  0  0
   34.8300   24.4860   30.3460 H   0  0  0  0  0  0  0  0  0  0  0  0
   32.2720   30.1230   33.7140 S   0  0  0  0  0  0  0  0  0  0  0  0
   30.9840   30.5160   34.3550 O   0  0  0  0  0  0  0  0  0  0  0  0
   32.0820   28.6930   33.7990 O   0  0  0  0  0  0  0  0  0  0  0  0
   31.5790   31.0150   32.3730 C   0  0  0  0  0  0  0  0  0  0  0  0
   30.2520   31.5610   32.2560 C   0  0  0  0  0  0  0  0  0  0  0  0
   29.5500   31.3880   33.0930 H   0  0  0  0  0  0  0  0  0  0  0  0
   30.2070   32.4170   30.6240 S   0  0  0  0  0  0  0  0  0  0  0  0
   32.0110   31.8910   30.3520 C   0  0  0  0  0  0  0  0  0  0  0  0
   32.6900   32.0980   29.4630 H   0  0  0  0  0  0  0  0  0  0  0  0
   32.3250   31.2930   31.2910 N   0  0  0  0  0  0  0  0  0  0  0  0
  1  6  1  0  0  0  0
  2  1  2  0  0  0  0
  2  3  1  0  0  0  0
  3  4  2  0  0  0  0
  4  5  1  0  0  0  0
  4  8  1  0  0  0  0
  5  9  1  0  0  0  0
  6 10  1  0  0  0  0
  6  5  2  0  0  0  0
  7  3  1  0  0  0  0
 11 16  1  0  0  0  0
 12 13  1  0  0  0  0
 12 11  2  0  0  0  0
 13 14  2  0  0  0  0
 14 15  1  0  0  0  0
 15  2  1  0  0  0  0
 16 15  2  0  0  0  0
 17 12  1  0  0  0  0
 18 13  1  0  0  0  0
 19 24  1  0  0  0  0
 19 25  1  0  0  0  0
 20 19  2  0  0  0  0
 21 22  2  0  0  0  0
 21 20  1  0  0  0  0
 22 23  1  0  0  0  0
 23 11  1  0  0  0  0
 23 24  2  0  0  0  0
 26 20  1  0  0  0  0
 27 21  1  0  0  0  0
 28 30  2  0  0  0  0
 28 29  2  0  0  0  0
 28  1  1  0  0  0  0
 31 28  1  0  0  0  0
 32 31  2  0  0  0  0
 32 33  1  0  0  0  0
 34 32  1  0  0  0  0
 35 34  1  0  0  0  0
 35 37  2  0  0  0  0
 36 35  1  0  0  0  0
 37 31  1  0  0  0  0
M  END
>  <minimizedAffinity>
-5.55315399

$$$$

 OpenBabel03272504253D

 37 40  0  0  0  0  0  0  0  0999 V2000
   37.1390   22.6030   33.1930 C   0  0  0  0  0  0  0  0  0  0  0  0
   37.0540   21.8560   34.3840 C   0  0  0  0  0  0  0  0  0  0  0  0
   36.2750   20.7380   34.5440 C   0  0  0  0  0  0  0  0  0  0  0  0
   35.5010   20.2640   33.4890 C   0  0  0  0  0  0  0  0  0  0  0  0
   35.5290   20.9400   32.2780 C   0  0  0  0  0  0  0  0  0  0  0  0
   36.3350   22.0440   32.2180 C   0  0  0  0  0  0  0  0  0  0  0  0
   36.2700   20.2230   35.5070 H   0  0  0  0  0  0  0  0  0  0  0  0
   34.9110   19.3950   33.6580 H   0  0  0  0  0  0  0  0  0  0  0  0
   34.9500   20.6070   31.4480 H   0  0  0  0  0  0  0  0  0  0  0  0
   36.3330   22.5550   31.2400 H   0  0  0  0  0  0  0  0  0  0  0  0
   39.9750   22.4520   36.5370 C   0  0  0  0  0  0  0  0  0  0  0  0
   39.3620   23.0380   37.5650 C   0  0  0  0  0  0  0  0  0  0  0  0
   38.0590   23.2530   37.5950 C   0  0  0  0  0  0  0  0  0  0  0  0
   37.3210   22.8510   36.5330 N   0  0  0  0  0  0  0  0  0  0  0  0
   37.9090   22.2520   35.4910 C   0  0  0  0  0  0  0  0  0  0  0  0
   39.2330   22.0520   35.4910 N   0  0  0  0  0  0  0  0  0  0  0  0
   39.8940   23.3750   38.4400 H   0  0  0  0  0  0  0  0  0  0  0  0
   37.4910   23.7310   38.4000 H   0  0  0  0  0  0  0  0  0  0  0  0
   43.5280   23.3520   36.1620 C   0  0  0  0  0  0  0  0  0  0  0  0
   44.1470   22.0720   36.1740 C   0  0  0  0  0  0  0  0  0  0  0  0
   43.3180   20.9300   36.3160 C   0  0  0  0  0  0  0  0  0  0  0  0
   41.9730   21.1140   36.4360 N   0  0  0  0  0  0  0  0  0  0  0  0
   41.4250   22.3160   36.4210 C   0  0  0  0  0  0  0  0  0  0  0  0
   42.2030   23.4400   36.2840 N   0  0  0  0  0  0  0  0  0  0  0  0
   44.1000   24.2600   36.0570 H   0  0  0  0  0  0  0  0  0  0  0  0
   45.2080   22.0090   36.0750 H   0  0  0  0  0  0  0  0  0  0  0  0
   43.7560   19.9640   36.3270 H   0  0  0  0  0  0  0  0  0  0  0  0
   38.1190   23.9620   33.0040 S   0  0  0  0  0  0  0  0  0  0  0  0
   37.4070   24.6230   31.8720 O   0  0  0  0  0  0  0  0  0  0  0  0
   39.3780   23.7560   32.3250 O   0  0  0  0  0  0  0  0  0  0  0  0
   37.7860   25.5030   33.7720 C   0  0  0  0  0  0  0  0  0  0  0  0
   36.9450   26.5710   33.3010 C   0  0  0  0  0  0  0  0  0  0  0  0
   36.4540   26.4430   32.3180 H   0  0  0  0  0  0  0  0  0  0  0  0
   36.9990   27.8650   34.6130 S   0  0  0  0  0  0  0  0  0  0  0  0
   38.1690   26.7450   35.6030 C   0  0  0  0  0  0  0  0  0  0  0  0
   38.6490   26.9300   36.6180 H   0  0  0  0  0  0  0  0  0  0  0  0
   38.3220   25.7880   34.9710 N   0  0  0  0  0  0  0  0  0  0  0  0
  1  2  1  0  0  0  0
  2  3  2  0  0  0  0
  2 15  1  0  0  0  0
  3  7  1  0  0  0  0
  4  8  1  0  0  0  0
  4  3  1  0  0  0  0
  5  4  2  0  0  0  0
  6  5  1  0  0  0  0
  6  1  2  0  0  0  0
  9  5  1  0  0  0  0
 10  6  1  0  0  0  0
 11 12  1  0  0  0  0
 12 13  2  0  0  0  0
 12 17  1  0  0  0  0
 13 18  1  0  0  0  0
 14 13  1  0  0  0  0
 15 16  1  0  0  0  0
 15 14  2  0  0  0  0
 16 11  2  0  0  0  0
 19 20  2  0  0  0  0
 19 24  1  0  0  0  0
 20 21  1  0  0  0  0
 21 27  1  0  0  0  0
 21 22  2  0  0  0  0
 23 22  1  0  0  0  0
 23 11  1  0  0  0  0
 24 23  2  0  0  0  0
 25 19  1  0  0  0  0
 26 20  1  0  0  0  0
 28  1  1  0  0  0  0
 28 31  1  0  0  0  0
 29 28  2  0  0  0  0
 30 28  2  0  0  0  0
 31 37  1  0  0  0  0
 32 31  2  0  0  0  0
 32 34  1  0  0  0  0
 33 32  1  0  0  0  0
 34 35  1  0  0  0  0
 35 36  1  0  0  0  0
 37 35  2  0  0  0  0
M  END
>  <minimizedAffinity>
-5.53708506

$$$$

 OpenBabel03272504253D

 37 40  0  0  0  0  0  0  0  0999 V2000
   37.4100   25.6260   33.3800 C   0  0  0  0  0  0  0  0  0  0  0  0
   37.4590   26.9930   33.7150 C   0  0  0  0  0  0  0  0  0  0  0  0
   38.0950   27.4970   34.8200 C   0  0  0  0  0  0  0  0  0  0  0  0
   38.7580   26.6460   35.7000 C   0  0  0  0  0  0  0  0  0  0  0  0
   38.7630   25.2830   35.4410 C   0  0  0  0  0  0  0  0  0  0  0  0
   38.0980   24.8770   34.3160 C   0  0  0  0  0  0  0  0  0  0  0  0
   38.0790   28.5740   35.0030 H   0  0  0  0  0  0  0  0  0  0  0  0
   39.2370   27.0810   36.5440 H   0  0  0  0  0  0  0  0  0  0  0  0
   39.2590   24.6000   36.0910 H   0  0  0  0  0  0  0  0  0  0  0  0
   38.1240   23.7880   34.1410 H   0  0  0  0  0  0  0  0  0  0  0  0
   35.1230   29.2980   32.0550 C   0  0  0  0  0  0  0  0  0  0  0  0
   35.8890   29.6690   31.0290 C   0  0  0  0  0  0  0  0  0  0  0  0
   37.1180   29.2170   30.8510 C   0  0  0  0  0  0  0  0  0  0  0  0
   37.6100   28.3340   31.7510 N   0  0  0  0  0  0  0  0  0  0  0  0
   36.8600   27.9370   32.7860 C   0  0  0  0  0  0  0  0  0  0  0  0
   35.6190   28.4170   32.9390 N   0  0  0  0  0  0  0  0  0  0  0  0
   35.5520   30.3650   30.2780 H   0  0  0  0  0  0  0  0  0  0  0  0
   37.8020   29.4810   30.0370 H   0  0  0  0  0  0  0  0  0  0  0  0
   32.1220   31.4160   31.7760 C   0  0  0  0  0  0  0  0  0  0  0  0
   31.3670   30.9870   32.9030 C   0  0  0  0  0  0  0  0  0  0  0  0
   31.9160   29.9720   33.7270 C   0  0  0  0  0  0  0  0  0  0  0  0
   33.1350   29.4570   33.4000 N   0  0  0  0  0  0  0  0  0  0  0  0
   33.8140   29.8750   32.3470 C   0  0  0  0  0  0  0  0  0  0  0  0
   33.3070   30.8580   31.5310 N   0  0  0  0  0  0  0  0  0  0  0  0
   31.7630   32.1840   31.1090 H   0  0  0  0  0  0  0  0  0  0  0  0
   30.4190   31.4390   33.0930 H   0  0  0  0  0  0  0  0  0  0  0  0
   31.3720   29.6350   34.5730 H   0  0  0  0  0  0  0  0  0  0  0  0
   36.6420   25.0220   32.0040 S   0  0  0  0  0  0  0  0  0  0  0  0
   37.7540   25.1660   31.0200 O   0  0  0  0  0  0  0  0  0  0  0  0
   35.7100   25.9100   31.3480 O   0  0  0  0  0  0  0  0  0  0  0  0
   36.7550   23.3480   31.4960 C   0  0  0  0  0  0  0  0  0  0  0  0
   37.9260   22.6140   31.0940 C   0  0  0  0  0  0  0  0  0  0  0  0
   38.8880   23.1590   31.0660 H   0  0  0  0  0  0  0  0  0  0  0  0
   37.3450   20.9000   30.7450 S   0  0  0  0  0  0  0  0  0  0  0  0
   35.5880   21.4530   31.2000 C   0  0  0  0  0  0  0  0  0  0  0  0
   34.6260   20.8450   31.2100 H   0  0  0  0  0  0  0  0  0  0  0  0
   35.6570   22.5730   31.4830 N   0  0  0  0  0  0  0  0  0  0  0  0
  1  2  2  0  0  0  0
  1  6  1  0  0  0  0
  2  3  1  0  0  0  0
  3  7  1  0  0  0  0
  3  4  2  0  0  0  0
  4  8  1  0  0  0  0
  5  4  1  0  0  0  0
  5  9  1  0  0  0  0
  6  5  2  0  0  0  0
 10  6  1  0  0  0  0
 11 23  1  0  0  0  0
 11 16  1  0  0  0  0
 12 11  2  0  0  0  0
 13 12  1  0  0  0  0
 13 14  2  0  0  0  0
 14 15  1  0  0  0  0
 15 16  2  0  0  0  0
 15  2  1  0  0  0  0
 17 12  1  0  0  0  0
 18 13  1  0  0  0  0
 19 20  1  0  0  0  0
 20 26  1  0  0  0  0
 20 21  2  0  0  0  0
 21 27  1  0  0  0  0
 22 21  1  0  0  0  0
 23 22  2  0  0  0  0
 24 19  2  0  0  0  0
 24 23  1  0  0  0  0
 25 19  1  0  0  0  0
 28  1  1  0  0  0  0
 29 28  2  0  0  0  0
 30 28  2  0  0  0  0
 31 28  1  0  0  0  0
 32 31  2  0  0  0  0
 33 32  1  0  0  0  0
 34 32  1  0  0  0  0
 34 35  1  0  0  0  0
 35 36  1  0  0  0  0
 35 37  2  0  0  0  0
 37 31  1  0  0  0  0
M  END
>  <minimizedAffinity>
-5.45377588

$$$$

 OpenBabel03272504253D

 37 40  0  0  0  0  0  0  0  0999 V2000
   37.2480   22.3050   33.9030 C   0  0  0  0  0  0  0  0  0  0  0  0
   37.0330   22.9080   32.6480 C   0  0  0  0  0  0  0  0  0  0  0  0
   36.2140   22.3990   31.6740 C   0  0  0  0  0  0  0  0  0  0  0  0
   35.5210   21.2110   31.8870 C   0  0  0  0  0  0  0  0  0  0  0  0
   35.6730   20.5530   33.0990 C   0  0  0  0  0  0  0  0  0  0  0  0
   36.5130   21.1390   34.0070 C   0  0  0  0  0  0  0  0  0  0  0  0
   36.1100   22.9350   30.7280 H   0  0  0  0  0  0  0  0  0  0  0  0
   34.8980   20.8520   31.1040 H   0  0  0  0  0  0  0  0  0  0  0  0
   35.1590   19.6420   33.3000 H   0  0  0  0  0  0  0  0  0  0  0  0
   36.6090   20.5890   34.9590 H   0  0  0  0  0  0  0  0  0  0  0  0
   37.6620   26.5200   32.3640 C   0  0  0  0  0  0  0  0  0  0  0  0
   38.9240   26.4800   31.9380 C   0  0  0  0  0  0  0  0  0  0  0  0
   39.5800   25.3500   31.7420 C   0  0  0  0  0  0  0  0  0  0  0  0
   38.9320   24.1860   31.9830 N   0  0  0  0  0  0  0  0  0  0  0  0
   37.6610   24.1960   32.4030 C   0  0  0  0  0  0  0  0  0  0  0  0
   37.0260   25.3600   32.5940 N   0  0  0  0  0  0  0  0  0  0  0  0
   39.4910   27.3730   31.7250 H   0  0  0  0  0  0  0  0  0  0  0  0
   40.6150   25.2420   31.3990 H   0  0  0  0  0  0  0  0  0  0  0  0
   35.8530   29.0470   34.3420 C   0  0  0  0  0  0  0  0  0  0  0  0
   35.6040   30.0480   33.3630 C   0  0  0  0  0  0  0  0  0  0  0  0
   36.0730   29.8240   32.0430 C   0  0  0  0  0  0  0  0  0  0  0  0
   36.7400   28.6640   31.7790 N   0  0  0  0  0  0  0  0  0  0  0  0
   36.9560   27.7520   32.7100 C   0  0  0  0  0  0  0  0  0  0  0  0
   36.5120   27.9420   33.9960 N   0  0  0  0  0  0  0  0  0  0  0  0
   35.5230   29.1550   35.3630 H   0  0  0  0  0  0  0  0  0  0  0  0
   35.0740   30.9300   33.6470 H   0  0  0  0  0  0  0  0  0  0  0  0
   35.9000   30.5550   31.2960 H   0  0  0  0  0  0  0  0  0  0  0  0
   38.2410   22.9550   35.1010 S   0  0  0  0  0  0  0  0  0  0  0  0
   37.8530   22.0780   36.2440 O   0  0  0  0  0  0  0  0  0  0  0  0
   37.8090   24.2050   35.6840 O   0  0  0  0  0  0  0  0  0  0  0  0
   39.8280   22.3180   35.4870 C   0  0  0  0  0  0  0  0  0  0  0  0
   40.8980   21.9820   34.5850 C   0  0  0  0  0  0  0  0  0  0  0  0
   40.7140   22.1060   33.5010 H   0  0  0  0  0  0  0  0  0  0  0  0
   42.2930   21.4230   35.6520 S   0  0  0  0  0  0  0  0  0  0  0  0
   41.1950   21.7310   37.1690 C   0  0  0  0  0  0  0  0  0  0  0  0
   41.4370   21.5830   38.2710 H   0  0  0  0  0  0  0  0  0  0  0  0
   40.1810   22.1170   36.7680 N   0  0  0  0  0  0  0  0  0  0  0  0
  1  6  1  0  0  0  0
  1 28  1  0  0  0  0
  2  1  2  0  0  0  0
  3  4  2  0  0  0  0
  3  2  1  0  0  0  0
  4  5  1  0  0  0  0
  5  9  1  0  0  0  0
  5  6  2  0  0  0  0
  6 10  1  0  0  0  0
  7  3  1  0  0  0  0
  8  4  1  0  0  0  0
 11 16  1  0  0  0  0
 11 23  1  0  0  0  0
 12 11  2  0  0  0  0
 13 12  1  0  0  0  0
 13 14  2  0  0  0  0
 14 15  1  0  0  0  0
 15 16  2  0  0  0  0
 15  2  1  0  0  0  0
 17 12  1  0  0  0  0
 18 13  1  0  0  0  0
 19 25  1  0  0  0  0
 20 26  1  0  0  0  0
 20 19  2  0  0  0  0
 21 20  1  0  0  0  0
 22 21  2  0  0  0  0
 22 23  1  0  0  0  0
 23 24  2  0  0  0  0
 24 19  1  0  0  0  0
 27 21  1  0  0  0  0
 28 31  1  0  0  0  0
 28 30  2  0  0  0  0
 28 29  2  0  0  0  0
 31 37  1  0  0  0  0
 32 31  2  0  0  0  0
 32 34  1  0  0  0  0
 33 32  1  0  0  0  0
 34 35  1  0  0  0  0
 35 36  1  0  0  0  0
 37 35  2  0  0  0  0
M  END
>  <minimizedAffinity>
-5.43821001

$$$$

 OpenBabel03272504253D

 37 40  0  0  0  0  0  0  0  0999 V2000
   37.2490   25.8150   32.5150 C   0  0  0  0  0  0  0  0  0  0  0  0
   36.2180   26.4780   31.8230 C   0  0  0  0  0  0  0  0  0  0  0  0
   35.2320   25.8460   31.1100 C   0  0  0  0  0  0  0  0  0  0  0  0
   35.1980   24.4570   31.0360 C   0  0  0  0  0  0  0  0  0  0  0  0
   36.1760   23.7250   31.6940 C   0  0  0  0  0  0  0  0  0  0  0  0
   37.1170   24.4470   32.3770 C   0  0  0  0  0  0  0  0  0  0  0  0
   34.4720   26.4430   30.6010 H   0  0  0  0  0  0  0  0  0  0  0  0
   34.4160   24.0080   30.4720 H   0  0  0  0  0  0  0  0  0  0  0  0
   36.1830   22.6600   31.6620 H   0  0  0  0  0  0  0  0  0  0  0  0
   37.8780   23.8320   32.8880 H   0  0  0  0  0  0  0  0  0  0  0  0
   35.5690   29.8860   33.0430 C   0  0  0  0  0  0  0  0  0  0  0  0
   36.1090   30.5750   32.0380 C   0  0  0  0  0  0  0  0  0  0  0  0
   36.6730   29.9960   30.9930 C   0  0  0  0  0  0  0  0  0  0  0  0
   36.6940   28.6430   30.9470 N   0  0  0  0  0  0  0  0  0  0  0  0
   36.1510   27.9260   31.9380 C   0  0  0  0  0  0  0  0  0  0  0  0
   35.5890   28.5450   32.9840 N   0  0  0  0  0  0  0  0  0  0  0  0
   36.1190   31.6530   32.0150 H   0  0  0  0  0  0  0  0  0  0  0  0
   37.1380   30.4970   30.1370 H   0  0  0  0  0  0  0  0  0  0  0  0
   35.4810   31.7000   36.2480 C   0  0  0  0  0  0  0  0  0  0  0  0
   34.1010   31.6200   36.5810 C   0  0  0  0  0  0  0  0  0  0  0  0
   33.2350   30.9440   35.6840 C   0  0  0  0  0  0  0  0  0  0  0  0
   33.7660   30.4060   34.5490 N   0  0  0  0  0  0  0  0  0  0  0  0
   35.0530   30.4960   34.2670 C   0  0  0  0  0  0  0  0  0  0  0  0
   35.9160   31.1450   35.1170 N   0  0  0  0  0  0  0  0  0  0  0  0
   36.1930   32.2000   36.8860 H   0  0  0  0  0  0  0  0  0  0  0  0
   33.7610   32.0670   37.4890 H   0  0  0  0  0  0  0  0  0  0  0  0
   32.2020   30.8710   35.9110 H   0  0  0  0  0  0  0  0  0  0  0  0
   38.4420   26.6060   33.4080 S   0  0  0  0  0  0  0  0  0  0  0  0
   39.2780   25.4330   33.7950 O   0  0  0  0  0  0  0  0  0  0  0  0
   38.0790   27.0130   34.7460 O   0  0  0  0  0  0  0  0  0  0  0  0
   39.9650   27.1360   32.7200 C   0  0  0  0  0  0  0  0  0  0  0  0
   41.2220   27.3450   33.3900 C   0  0  0  0  0  0  0  0  0  0  0  0
   41.2540   27.1850   34.4840 H   0  0  0  0  0  0  0  0  0  0  0  0
   42.4130   27.8430   32.0730 S   0  0  0  0  0  0  0  0  0  0  0  0
   41.0050   27.6910   30.8090 C   0  0  0  0  0  0  0  0  0  0  0  0
   41.0290   27.8710   29.6860 H   0  0  0  0  0  0  0  0  0  0  0  0
   40.0650   27.3670   31.4000 N   0  0  0  0  0  0  0  0  0  0  0  0
  1 28  1  0  0  0  0
  2 15  1  0  0  0  0
  2  1  2  0  0  0  0
  3  2  1  0  0  0  0
  4  3  2  0  0  0  0
  4  5  1  0  0  0  0
  5  6  2  0  0  0  0
  6  1  1  0  0  0  0
  6 10  1  0  0  0  0
  7  3  1  0  0  0  0
  8  4  1  0  0  0  0
  9  5  1  0  0  0  0
 11 23  1  0  0  0  0
 12 11  2  0  0  0  0
 13 12  1  0  0  0  0
 14 13  2  0  0  0  0
 14 15  1  0  0  0  0
 15 16  2  0  0  0  0
 16 11  1  0  0  0  0
 17 12  1  0  0  0  0
 18 13  1  0  0  0  0
 19 20  1  0  0  0  0
 19 25  1  0  0  0  0
 20 26  1  0  0  0  0
 21 27  1  0  0  0  0
 21 20  2  0  0  0  0
 22 21  1  0  0  0  0
 23 22  2  0  0  0  0
 23 24  1  0  0  0  0
 24 19  2  0  0  0  0
 28 29  2  0  0  0  0
 28 30  2  0  0  0  0
 31 32  2  0  0  0  0
 31 28  1  0  0  0  0
 32 33  1  0  0  0  0
 34 32  1  0  0  0  0
 35 37  2  0  0  0  0
 35 34  1  0  0  0  0
 36 35  1  0  0  0  0
 37 31  1  0  0  0  0
M  END
>  <minimizedAffinity>
-5.38918447

$$$$

 OpenBabel03272504253D

 37 40  0  0  0  0  0  0  0  0999 V2000
   37.2800   27.2770   33.1990 C   0  0  0  0  0  0  0  0  0  0  0  0
   38.3310   26.3440   33.2850 C   0  0  0  0  0  0  0  0  0  0  0  0
   39.0700   26.1110   34.4160 C   0  0  0  0  0  0  0  0  0  0  0  0
   38.8010   26.8120   35.5880 C   0  0  0  0  0  0  0  0  0  0  0  0
   37.7780   27.7490   35.5920 C   0  0  0  0  0  0  0  0  0  0  0  0
   37.1010   27.9110   34.4140 C   0  0  0  0  0  0  0  0  0  0  0  0
   39.8700   25.3680   34.3900 H   0  0  0  0  0  0  0  0  0  0  0  0
   39.4000   26.6000   36.4420 H   0  0  0  0  0  0  0  0  0  0  0  0
   37.5420   28.3050   36.4690 H   0  0  0  0  0  0  0  0  0  0  0  0
   36.2940   28.6630   34.4530 H   0  0  0  0  0  0  0  0  0  0  0  0
   38.3720   23.5720   30.8690 C   0  0  0  0  0  0  0  0  0  0  0  0
   39.1430   24.1230   29.9310 C   0  0  0  0  0  0  0  0  0  0  0  0
   39.6440   25.3400   30.0380 C   0  0  0  0  0  0  0  0  0  0  0  0
   39.3620   26.0510   31.1560 N   0  0  0  0  0  0  0  0  0  0  0  0
   38.5980   25.5190   32.1170 C   0  0  0  0  0  0  0  0  0  0  0  0
   38.1030   24.2830   31.9760 N   0  0  0  0  0  0  0  0  0  0  0  0
   39.4060   23.6060   29.0220 H   0  0  0  0  0  0  0  0  0  0  0  0
   40.2790   25.8550   29.3090 H   0  0  0  0  0  0  0  0  0  0  0  0
   35.7620   20.9770   31.0270 C   0  0  0  0  0  0  0  0  0  0  0  0
   36.4420   19.8570   30.4740 C   0  0  0  0  0  0  0  0  0  0  0  0
   37.7860   20.0320   30.0550 C   0  0  0  0  0  0  0  0  0  0  0  0
   38.3590   21.2600   30.2020 N   0  0  0  0  0  0  0  0  0  0  0  0
   37.7020   22.2830   30.7210 C   0  0  0  0  0  0  0  0  0  0  0  0
   36.3990   22.1430   31.1350 N   0  0  0  0  0  0  0  0  0  0  0  0
   34.7390   20.9120   31.3640 H   0  0  0  0  0  0  0  0  0  0  0  0
   35.9250   18.9270   30.3910 H   0  0  0  0  0  0  0  0  0  0  0  0
   38.3150   19.2120   29.6400 H   0  0  0  0  0  0  0  0  0  0  0  0
   36.3650   27.5370   31.8050 S   0  0  0  0  0  0  0  0  0  0  0  0
   35.4480   28.6010   32.3090 O   0  0  0  0  0  0  0  0  0  0  0  0
   35.3490   26.5530   31.5120 O   0  0  0  0  0  0  0  0  0  0  0  0
   36.7390   28.7800   30.6270 C   0  0  0  0  0  0  0  0  0  0  0  0
   36.5130   30.1980   30.7230 C   0  0  0  0  0  0  0  0  0  0  0  0
   36.0160   30.5780   31.6340 H   0  0  0  0  0  0  0  0  0  0  0  0
   37.1880   30.9180   29.1650 S   0  0  0  0  0  0  0  0  0  0  0  0
   37.6730   29.1650   28.6210 C   0  0  0  0  0  0  0  0  0  0  0  0
   38.1860   28.8290   27.6630 H   0  0  0  0  0  0  0  0  0  0  0  0
   37.3440   28.4530   29.4720 N   0  0  0  0  0  0  0  0  0  0  0  0
  1  2  2  0  0  0  0
  1  6  1  0  0  0  0
  2  3  1  0  0  0  0
  3  4  2  0  0  0  0
  4  5  1  0  0  0  0
  4  8  1  0  0  0  0
  5  9  1  0  0  0  0
  6 10  1  0  0  0  0
  6  5  2  0  0  0  0
  7  3  1  0  0  0  0
 11 16  1  0  0  0  0
 12 13  1  0  0  0  0
 12 11  2  0  0  0  0
 13 14  2  0  0  0  0
 14 15  1  0  0  0  0
 15  2  1  0  0  0  0
 16 15  2  0  0  0  0
 17 12  1  0  0  0  0
 18 13  1  0  0  0  0
 19 24  1  0  0  0  0
 19 25  1  0  0  0  0
 20 19  2  0  0  0  0
 21 22  2  0  0  0  0
 21 20  1  0  0  0  0
 22 23  1  0  0  0  0
 23 11  1  0  0  0  0
 23 24  2  0  0  0  0
 26 20  1  0  0  0  0
 27 21  1  0  0  0  0
 28 29  2  0  0  0  0
 28  1  1  0  0  0  0
 30 28  2  0  0  0  0
 31 32  2  0  0  0  0
 31 28  1  0  0  0  0
 32 33  1  0  0  0  0
 34 32  1  0  0  0  0
 35 34  1  0  0  0  0
 35 37  2  0  0  0  0
 36 35  1  0  0  0  0
 37 31  1  0  0  0  0
M  END
>  <minimizedAffinity>
-5.34769726

$$$$
