
 OpenBabel03272502233D

 27 29  0  0  0  0  0  0  0  0999 V2000
   36.6660   29.8030   50.3290 C   0  0  0  0  0  0  0  0  0  0  0  0
   37.2590   30.4810   49.2640 C   0  0  0  0  0  0  0  0  0  0  0  0
   36.7670   30.3030   47.9920 C   0  0  0  0  0  0  0  0  0  0  0  0
   35.7160   29.4640   47.8490 N   0  0  0  0  0  0  0  0  0  0  0  0
   35.1520   28.8160   48.8780 C   0  0  0  0  0  0  0  0  0  0  0  0
   35.6350   28.9910   50.1210 N   0  0  0  0  0  0  0  0  0  0  0  0
   37.0620   29.9490   51.3260 H   0  0  0  0  0  0  0  0  0  0  0  0
   38.1010   31.1540   49.3730 H   0  0  0  0  0  0  0  0  0  0  0  0
   37.2950   30.9500   46.7820 C   0  0  0  0  0  0  0  0  0  0  0  0
   36.7320   30.7820   45.5480 C   0  0  0  0  0  0  0  0  0  0  0  0
   37.2430   31.3980   44.4210 C   0  0  0  0  0  0  0  0  0  0  0  0
   38.3230   32.1910   44.5170 N   0  0  0  0  0  0  0  0  0  0  0  0
   38.8620   32.3450   45.7290 C   0  0  0  0  0  0  0  0  0  0  0  0
   38.3840   31.7580   46.8360 N   0  0  0  0  0  0  0  0  0  0  0  0
   35.8620   30.1430   45.4770 H   0  0  0  0  0  0  0  0  0  0  0  0
   36.7390   31.2130   43.4820 H   0  0  0  0  0  0  0  0  0  0  0  0
   40.0650   33.2170   45.8820 C   0  0  0  0  0  0  0  0  0  0  0  0
   40.0830   33.7220   47.1620 F   0  0  0  0  0  0  0  0  0  0  0  0
   41.2330   32.4780   45.6400 F   0  0  0  0  0  0  0  0  0  0  0  0
   40.0610   34.2520   45.0160 F   0  0  0  0  0  0  0  0  0  0  0  0
   34.0110   27.9440   48.5060 C   0  0  0  0  0  0  0  0  0  0  0  0
   33.9310   26.8020   47.6220 C   0  0  0  0  0  0  0  0  0  0  0  0
   35.0630   26.6310   47.1680 H   0  0  0  0  0  0  0  0  0  0  0  0
   32.1310   26.3650   47.7800 S   0  0  0  0  0  0  0  0  0  0  0  0
   31.8340   27.7920   48.9970 C   0  0  0  0  0  0  0  0  0  0  0  0
   30.7980   27.8150   49.3050 H   0  0  0  0  0  0  0  0  0  0  0  0
   32.9180   28.3580   49.1420 N   0  0  0  0  0  0  0  0  0  0  0  0
  1  7  1  0  0  0  0
  2  8  1  0  0  0  0
  2  1  2  0  0  0  0
  3  2  1  0  0  0  0
  4  3  2  0  0  0  0
  4  5  1  0  0  0  0
  5  6  2  0  0  0  0
  6  1  1  0  0  0  0
  9 14  1  0  0  0  0
  9  3  1  0  0  0  0
 10  9  2  0  0  0  0
 11 12  2  0  0  0  0
 11 10  1  0  0  0  0
 12 13  1  0  0  0  0
 13 17  1  0  0  0  0
 13 14  2  0  0  0  0
 15 10  1  0  0  0  0
 16 11  1  0  0  0  0
 17 18  1  0  0  0  0
 19 17  1  0  0  0  0
 20 17  1  0  0  0  0
 21  5  1  0  0  0  0
 21 27  1  0  0  0  0
 22 24  1  0  0  0  0
 22 21  2  0  0  0  0
 23 22  1  0  0  0  0
 24 25  1  0  0  0  0
 25 27  2  0  0  0  0
 25 26  1  0  0  0  0
M  END
>  <minimizedAffinity>
-5.73424387

>  <minimizedRMSD>
1.42575514

$$$$
