
 OpenBabel03272507393D

 32 34  0  0  0  0  0  0  0  0999 V2000
   38.2920   31.9480   46.3460 C   0  0  0  0  0  0  0  0  0  0  0  0
   38.0270   32.3090   47.6400 C   0  0  0  0  0  0  0  0  0  0  0  0
   38.8690   33.1850   48.2860 C   0  0  0  0  0  0  0  0  0  0  0  0
   39.9790   33.6960   47.6250 C   0  0  0  0  0  0  0  0  0  0  0  0
   40.2310   33.3190   46.3160 C   0  0  0  0  0  0  0  0  0  0  0  0
   39.3770   32.4350   45.6710 C   0  0  0  0  0  0  0  0  0  0  0  0
   38.7320   33.5200   49.3040 H   0  0  0  0  0  0  0  0  0  0  0  0
   40.6600   34.3860   48.1050 H   0  0  0  0  0  0  0  0  0  0  0  0
   41.0950   33.7340   45.8420 H   0  0  0  0  0  0  0  0  0  0  0  0
   39.6170   32.0110   44.2690 C   0  0  0  0  0  0  0  0  0  0  0  0
   39.0350   32.7880   43.1790 C   0  0  0  0  0  0  0  0  0  0  0  0
   38.3980   33.7120   43.2760 H   0  0  0  0  0  0  0  0  0  0  0  0
   39.6270   31.8540   41.7230 S   0  0  0  0  0  0  0  0  0  0  0  0
   40.5480   30.5860   42.8010 C   0  0  0  0  0  0  0  0  0  0  0  0
   41.1210   29.7420   42.4420 H   0  0  0  0  0  0  0  0  0  0  0  0
   40.3360   30.9570   43.9360 N   0  0  0  0  0  0  0  0  0  0  0  0
   36.6330   30.2920   45.2190 N   0  0  0  0  0  0  0  0  0  0  0  0
   37.3700   31.0230   45.7280 C   0  0  0  0  0  0  0  0  0  0  0  0
   36.9710   31.8810   48.4050 O   0  0  0  0  0  0  0  0  0  0  0  0
   37.0720   31.0040   49.4560 C   0  0  0  0  0  0  0  0  0  0  0  0
   36.3290   29.8470   49.2280 C   0  0  0  0  0  0  0  0  0  0  0  0
   36.2970   28.8400   50.1650 C   0  0  0  0  0  0  0  0  0  0  0  0
   37.0280   29.0390   51.3160 N   0  0  0  0  0  0  0  0  0  0  0  0
   37.7400   30.1640   51.5160 C   0  0  0  0  0  0  0  0  0  0  0  0
   37.7570   31.1230   50.6020 N   0  0  0  0  0  0  0  0  0  0  0  0
   35.7630   27.9210   50.0880 H   0  0  0  0  0  0  0  0  0  0  0  0
   38.3300   30.3840   52.3810 H   0  0  0  0  0  0  0  0  0  0  0  0
   34.2380   29.0890   48.2080 C   0  0  0  0  0  0  0  0  0  0  0  0
   33.5020   28.7020   49.2010 O   0  0  0  0  0  0  0  0  0  0  0  0
   35.5840   29.5470   48.0830 N   0  0  0  0  0  0  0  0  0  0  0  0
   33.2430   28.8120   47.8820 H   0  0  0  0  0  0  0  0  0  0  0  0
   35.5580   29.4880   47.0620 H   0  0  0  0  0  0  0  0  0  0  0  0
  1  2  1  0  0  0  0
  2  3  2  0  0  0  0
  2 19  1  0  0  0  0
  3  7  1  0  0  0  0
  4  8  1  0  0  0  0
  4  3  1  0  0  0  0
  5  4  2  0  0  0  0
  6  5  1  0  0  0  0
  6  1  2  0  0  0  0
  9  5  1  0  0  0  0
 10  6  1  0  0  0  0
 11 12  1  0  0  0  0
 11 10  2  0  0  0  0
 13 14  1  0  0  0  0
 13 11  1  0  0  0  0
 14 16  2  0  0  0  0
 15 14  1  0  0  0  0
 16 10  1  0  0  0  0
 17 18  3  0  0  0  0
 18  1  1  0  0  0  0
 19 20  1  0  0  0  0
 20 25  1  0  0  0  0
 21 20  2  0  0  0  0
 21 22  1  0  0  0  0
 22 23  2  0  0  0  0
 23 24  1  0  0  0  0
 24 27  1  0  0  0  0
 25 24  2  0  0  0  0
 26 22  1  0  0  0  0
 28 29  2  0  0  0  0
 30 28  1  0  0  0  0
 30 21  1  0  0  0  0
 31 28  1  0  0  0  0
 32 30  1  0  0  0  0
M  END
>  <minimizedAffinity>
-5.22393274

>  <minimizedRMSD>
1.59854019

$$$$
