
 OpenBabel03272510243D

 30 33  0  0  0  0  0  0  0  0999 V2000
   36.1530   30.1650   46.8120 C   0  0  0  0  0  0  0  0  0  0  0  0
   37.0250   30.7310   47.7210 C   0  0  0  0  0  0  0  0  0  0  0  0
   37.9890   31.6130   47.2900 C   0  0  0  0  0  0  0  0  0  0  0  0
   38.0280   31.8920   45.9230 C   0  0  0  0  0  0  0  0  0  0  0  0
   38.8980   32.7350   45.2760 N   0  0  0  0  0  0  0  0  0  0  0  0
   38.5650   32.6870   43.9910 C   0  0  0  0  0  0  0  0  0  0  0  0
   37.5340   31.8630   43.7870 N   0  0  0  0  0  0  0  0  0  0  0  0
   37.1670   31.3420   44.9840 C   0  0  0  0  0  0  0  0  0  0  0  0
   36.2090   30.4570   45.4590 C   0  0  0  0  0  0  0  0  0  0  0  0
   35.3760   29.4660   47.1020 H   0  0  0  0  0  0  0  0  0  0  0  0
   38.6770   32.0650   47.9660 H   0  0  0  0  0  0  0  0  0  0  0  0
   39.6760   33.3050   45.7100 H   0  0  0  0  0  0  0  0  0  0  0  0
   35.5480   30.0360   44.7260 H   0  0  0  0  0  0  0  0  0  0  0  0
   37.5640   30.2410   51.4060 C   0  0  0  0  0  0  0  0  0  0  0  0
   37.8250   30.6520   50.1030 C   0  0  0  0  0  0  0  0  0  0  0  0
   36.8870   30.3640   49.1180 C   0  0  0  0  0  0  0  0  0  0  0  0
   35.7460   29.6850   49.4810 N   0  0  0  0  0  0  0  0  0  0  0  0
   35.5260   29.3000   50.7610 C   0  0  0  0  0  0  0  0  0  0  0  0
   36.4210   29.5730   51.7080 N   0  0  0  0  0  0  0  0  0  0  0  0
   38.3640   30.5210   52.0770 H   0  0  0  0  0  0  0  0  0  0  0  0
   38.7020   31.1830   49.7830 H   0  0  0  0  0  0  0  0  0  0  0  0
   34.6210   28.7720   50.9970 H   0  0  0  0  0  0  0  0  0  0  0  0
   39.2330   33.4190   43.0130 O   0  0  0  0  0  0  0  0  0  0  0  0
   38.8510   33.3310   41.6800 C   0  0  0  0  0  0  0  0  0  0  0  0
   39.3900   32.2210   40.9400 C   0  0  0  0  0  0  0  0  0  0  0  0
   40.0480   31.4430   41.2520 H   0  0  0  0  0  0  0  0  0  0  0  0
   38.6210   32.5030   39.2330 S   0  0  0  0  0  0  0  0  0  0  0  0
   37.7400   34.0520   39.8860 C   0  0  0  0  0  0  0  0  0  0  0  0
   37.0110   34.8690   39.4400 H   0  0  0  0  0  0  0  0  0  0  0  0
   38.0470   34.1310   40.9740 N   0  0  0  0  0  0  0  0  0  0  0  0
  1 10  1  0  0  0  0
  1  2  1  0  0  0  0
  2 16  1  0  0  0  0
  3  2  2  0  0  0  0
  3 11  1  0  0  0  0
  4  3  1  0  0  0  0
  5 12  1  0  0  0  0
  5  4  1  0  0  0  0
  6  5  1  0  0  0  0
  7  6  2  0  0  0  0
  7  8  1  0  0  0  0
  8  9  1  0  0  0  0
  8  4  2  0  0  0  0
  9  1  2  0  0  0  0
 13  9  1  0  0  0  0
 14 19  1  0  0  0  0
 14 20  1  0  0  0  0
 15 14  2  0  0  0  0
 16 17  2  0  0  0  0
 16 15  1  0  0  0  0
 17 18  1  0  0  0  0
 18 22  1  0  0  0  0
 18 19  2  0  0  0  0
 21 15  1  0  0  0  0
 23  6  1  0  0  0  0
 24 23  1  0  0  0  0
 25 26  1  0  0  0  0
 25 24  2  0  0  0  0
 27 28  1  0  0  0  0
 27 25  1  0  0  0  0
 28 30  2  0  0  0  0
 29 28  1  0  0  0  0
 30 24  1  0  0  0  0
M  END
>  <minimizedAffinity>
-5.47525167

>  <minimizedRMSD>
1.45685863

$$$$
