
 OpenBabel03272510123D

 33 36  0  0  0  0  0  0  0  0999 V2000
   33.6420   28.4640   48.4550 C   0  0  0  0  0  0  0  0  0  0  0  0
   34.5470   28.0600   49.3720 C   0  0  0  0  0  0  0  0  0  0  0  0
   35.6320   28.8100   49.7950 C   0  0  0  0  0  0  0  0  0  0  0  0
   35.8350   30.0530   49.2700 C   0  0  0  0  0  0  0  0  0  0  0  0
   34.9000   30.4820   48.3170 C   0  0  0  0  0  0  0  0  0  0  0  0
   33.8700   29.6990   47.9530 N   0  0  0  0  0  0  0  0  0  0  0  0
   34.4690   27.0890   49.8420 H   0  0  0  0  0  0  0  0  0  0  0  0
   36.3540   28.4870   50.5260 H   0  0  0  0  0  0  0  0  0  0  0  0
   34.9170   31.4350   47.8080 H   0  0  0  0  0  0  0  0  0  0  0  0
   31.3100   27.5790   48.7230 C   0  0  0  0  0  0  0  0  0  0  0  0
   32.5230   27.6820   48.0230 C   0  0  0  0  0  0  0  0  0  0  0  0
   32.6090   26.9660   46.8370 C   0  0  0  0  0  0  0  0  0  0  0  0
   31.5290   26.2160   46.4300 N   0  0  0  0  0  0  0  0  0  0  0  0
   30.3970   26.1650   47.1550 C   0  0  0  0  0  0  0  0  0  0  0  0
   30.2740   26.8490   48.3140 N   0  0  0  0  0  0  0  0  0  0  0  0
   31.2120   28.1270   49.6520 H   0  0  0  0  0  0  0  0  0  0  0  0
   33.4840   26.9550   46.2000 H   0  0  0  0  0  0  0  0  0  0  0  0
   29.5520   25.5750   46.8280 H   0  0  0  0  0  0  0  0  0  0  0  0
   36.8660   30.9430   49.5760 O   0  0  0  0  0  0  0  0  0  0  0  0
   37.5940   31.5850   48.5870 C   0  0  0  0  0  0  0  0  0  0  0  0
   38.5060   32.5110   49.0520 C   0  0  0  0  0  0  0  0  0  0  0  0
   39.1550   33.0670   47.9540 C   0  0  0  0  0  0  0  0  0  0  0  0
   38.6260   32.4730   46.8760 N   0  0  0  0  0  0  0  0  0  0  0  0
   37.7190   31.6120   47.2580 N   0  0  0  0  0  0  0  0  0  0  0  0
   38.8140   32.8830   50.0390 H   0  0  0  0  0  0  0  0  0  0  0  0
   39.9280   33.8130   47.8000 H   0  0  0  0  0  0  0  0  0  0  0  0
   38.8440   32.5790   45.4510 C   0  0  0  0  0  0  0  0  0  0  0  0
   40.1570   32.8980   44.7230 C   0  0  0  0  0  0  0  0  0  0  0  0
   40.9350   33.0380   45.4570 H   0  0  0  0  0  0  0  0  0  0  0  0
   39.5430   32.8350   43.0240 S   0  0  0  0  0  0  0  0  0  0  0  0
   37.7530   32.4220   43.5050 C   0  0  0  0  0  0  0  0  0  0  0  0
   37.1010   32.3140   42.6840 H   0  0  0  0  0  0  0  0  0  0  0  0
   37.6990   32.3550   44.7990 N   0  0  0  0  0  0  0  0  0  0  0  0
  1  2  1  0  0  0  0
  2  3  2  0  0  0  0
  2  7  1  0  0  0  0
  3  8  1  0  0  0  0
  4 19  1  0  0  0  0
  4  3  1  0  0  0  0
  5  4  2  0  0  0  0
  6  5  1  0  0  0  0
  6  1  2  0  0  0  0
  9  5  1  0  0  0  0
 10 16  1  0  0  0  0
 11  1  1  0  0  0  0
 11 10  2  0  0  0  0
 12 11  1  0  0  0  0
 13 12  2  0  0  0  0
 13 14  1  0  0  0  0
 14 15  2  0  0  0  0
 15 10  1  0  0  0  0
 17 12  1  0  0  0  0
 18 14  1  0  0  0  0
 20 21  1  0  0  0  0
 20 19  1  0  0  0  0
 21 25  1  0  0  0  0
 22 21  2  0  0  0  0
 23 24  1  0  0  0  0
 23 22  1  0  0  0  0
 24 20  2  0  0  0  0
 26 22  1  0  0  0  0
 27 23  1  0  0  0  0
 28 27  2  0  0  0  0
 28 29  1  0  0  0  0
 30 31  1  0  0  0  0
 30 28  1  0  0  0  0
 31 33  2  0  0  0  0
 32 31  1  0  0  0  0
 33 27  1  0  0  0  0
M  END
>  <minimizedAffinity>
-5.89768219

>  <minimizedRMSD>
1.67017543

$$$$
