
 OpenBabel03272509353D

 45 49  0  0  1  0  0  0  0  0999 V2000
   35.9970   30.2340   44.1860 C   0  0  1  0  0  0  0  0  0  0  0  0
   36.8690   31.2500   44.8350 C   0  0  0  0  0  0  0  0  0  0  0  0
   37.5290   29.9920   44.5580 C   0  0  2  0  0  0  0  0  0  0  0  0
   35.8550   30.1210   43.1220 H   0  0  0  0  0  0  0  0  0  0  0  0
   36.8160   32.1770   44.2690 H   0  0  0  0  0  0  0  0  0  0  0  0
   36.5650   31.4790   45.9250 H   0  0  0  0  0  0  0  0  0  0  0  0
   37.5700   29.0920   45.1610 H   0  0  0  0  0  0  0  0  0  0  0  0
   38.5140   30.1250   43.4320 C   0  0  0  0  0  0  0  0  0  0  0  0
   38.8980   31.4700   43.2940 C   0  0  0  0  0  0  0  0  0  0  0  0
   39.8750   31.8130   42.3940 C   0  0  0  0  0  0  0  0  0  0  0  0
   40.5080   30.8470   41.5990 C   0  0  0  0  0  0  0  0  0  0  0  0
   40.1020   29.5300   41.7640 C   0  0  0  0  0  0  0  0  0  0  0  0
   40.6270   28.4920   41.0450 C   0  0  0  0  0  0  0  0  0  0  0  0
   40.2280   27.1870   41.1890 C   0  0  0  0  0  0  0  0  0  0  0  0
   39.2430   26.8950   42.1080 C   0  0  0  0  0  0  0  0  0  0  0  0
   38.7060   27.9350   42.8380 C   0  0  0  0  0  0  0  0  0  0  0  0
   39.1380   29.2350   42.6600 C   0  0  0  0  0  0  0  0  0  0  0  0
   38.6360   32.4070   43.7410 H   0  0  0  0  0  0  0  0  0  0  0  0
   40.2950   32.7760   42.1510 H   0  0  0  0  0  0  0  0  0  0  0  0
   41.2870   30.9830   40.8570 H   0  0  0  0  0  0  0  0  0  0  0  0
   41.4080   28.6750   40.3090 H   0  0  0  0  0  0  0  0  0  0  0  0
   40.6740   26.3930   40.5960 H   0  0  0  0  0  0  0  0  0  0  0  0
   38.8800   25.8950   42.2740 H   0  0  0  0  0  0  0  0  0  0  0  0
   37.9170   27.6820   43.5700 H   0  0  0  0  0  0  0  0  0  0  0  0
   33.4440   27.7460   45.4150 C   0  0  0  0  0  0  0  0  0  0  0  0
   34.3200   28.4640   44.5410 C   0  0  0  0  0  0  0  0  0  0  0  0
   35.0870   29.4620   45.0680 C   0  0  0  0  0  0  0  0  0  0  0  0
   34.9500   29.6960   46.4210 N   0  0  0  0  0  0  0  0  0  0  0  0
   34.1280   29.0150   47.2240 C   0  0  0  0  0  0  0  0  0  0  0  0
   33.3620   28.0290   46.7340 N   0  0  0  0  0  0  0  0  0  0  0  0
   32.8720   26.9730   44.9220 H   0  0  0  0  0  0  0  0  0  0  0  0
   34.3820   28.2370   43.5030 H   0  0  0  0  0  0  0  0  0  0  0  0
   34.1000   29.3890   48.6800 C   0  0  0  0  0  0  0  0  0  0  0  0
   34.2880   30.4480   48.8350 H   0  0  0  0  0  0  0  0  0  0  0  0
   33.1000   29.0670   49.0740 H   0  0  0  0  0  0  0  0  0  0  0  0
   35.1520   28.5180   49.3870 C   0  0  0  0  0  0  0  0  0  0  0  0
   35.5570   27.8170   48.5990 H   0  0  0  0  0  0  0  0  0  0  0  0
   34.6800   27.8690   50.1220 H   0  0  0  0  0  0  0  0  0  0  0  0
   36.2580   29.3680   49.9200 C   0  0  0  0  0  0  0  0  0  0  0  0
   37.1340   30.1300   49.0470 C   0  0  0  0  0  0  0  0  0  0  0  0
   37.0160   30.1080   47.9900 H   0  0  0  0  0  0  0  0  0  0  0  0
   38.2210   30.9170   50.2590 S   0  0  0  0  0  0  0  0  0  0  0  0
   37.3290   30.0990   51.7430 C   0  0  0  0  0  0  0  0  0  0  0  0
   37.5920   30.2360   52.8020 H   0  0  0  0  0  0  0  0  0  0  0  0
   36.4000   29.3910   51.2280 N   0  0  0  0  0  0  0  0  0  0  0  0
  1  4  1  6  0  0  0
  1  3  1  0  0  0  0
  1  2  1  0  0  0  0
  1 27  1  0  0  0  0
  2  6  1  0  0  0  0
  3  2  1  0  0  0  0
  3  7  1  1  0  0  0
  5  2  1  0  0  0  0
  8  3  1  0  0  0  0
  9  8  1  0  0  0  0
  9 18  1  0  0  0  0
 10  9  2  0  0  0  0
 11 12  2  0  0  0  0
 11 10  1  0  0  0  0
 12 17  1  0  0  0  0
 13 14  2  0  0  0  0
 13 12  1  0  0  0  0
 14 15  1  0  0  0  0
 15 23  1  0  0  0  0
 15 16  2  0  0  0  0
 16 24  1  0  0  0  0
 17 16  1  0  0  0  0
 17  8  2  0  0  0  0
 19 10  1  0  0  0  0
 20 11  1  0  0  0  0
 21 13  1  0  0  0  0
 22 14  1  0  0  0  0
 25 30  1  0  0  0  0
 26 27  1  0  0  0  0
 26 25  2  0  0  0  0
 27 28  2  0  0  0  0
 28 29  1  0  0  0  0
 29 33  1  0  0  0  0
 30 29  2  0  0  0  0
 31 25  1  0  0  0  0
 32 26  1  0  0  0  0
 33 34  1  0  0  0  0
 33 35  1  0  0  0  0
 33 36  1  0  0  0  0
 36 39  1  0  0  0  0
 36 38  1  0  0  0  0
 37 36  1  0  0  0  0
 39 45  1  0  0  0  0
 40 39  2  0  0  0  0
 40 42  1  0  0  0  0
 41 40  1  0  0  0  0
 42 43  1  0  0  0  0
 43 44  1  0  0  0  0
 45 43  2  0  0  0  0
M  END
>  <minimizedAffinity>
-5.18234825

>  <minimizedRMSD>
3.43034959

$$$$
