
 OpenBabel03272506473D

 40 43  0  0  1  0  0  0  0  0999 V2000
   31.9920   28.3850   47.4890 C   0  0  2  0  0  0  0  0  0  0  0  0
   33.2520   28.1690   48.2720 C   0  0  1  0  0  0  0  0  0  0  0  0
   33.5920   26.8550   48.1730 O   0  0  0  0  0  0  0  0  0  0  0  0
   32.8340   26.2600   47.1700 C   0  0  0  0  0  0  0  0  0  0  0  0
   32.2560   27.3740   46.3270 C   0  0  1  0  0  0  0  0  0  0  0  0
   31.0660   28.1370   47.9920 H   0  0  0  0  0  0  0  0  0  0  0  0
   33.0840   28.5270   49.3050 H   0  0  0  0  0  0  0  0  0  0  0  0
   32.1190   25.6170   47.6620 H   0  0  0  0  0  0  0  0  0  0  0  0
   33.5460   25.6770   46.5320 H   0  0  0  0  0  0  0  0  0  0  0  0
   32.9790   27.8600   45.6830 H   0  0  0  0  0  0  0  0  0  0  0  0
   31.9540   29.6920   46.9600 O   0  0  0  0  0  0  0  0  0  0  0  0
   32.3430   29.7340   46.0560 H   0  0  0  0  0  0  0  0  0  0  0  0
   34.5790   29.1630   47.4850 S   0  0  0  0  0  0  0  0  0  0  0  0
   36.9790   29.2550   50.6380 C   0  0  0  0  0  0  0  0  0  0  0  0
   37.3970   30.5850   50.7300 C   0  0  0  0  0  0  0  0  0  0  0  0
   36.9180   31.4930   49.7780 C   0  0  0  0  0  0  0  0  0  0  0  0
   36.0760   31.0340   48.8180 N   0  0  0  0  0  0  0  0  0  0  0  0
   35.6930   29.7410   48.7590 C   0  0  0  0  0  0  0  0  0  0  0  0
   36.1380   28.8340   49.6670 N   0  0  0  0  0  0  0  0  0  0  0  0
   37.3640   28.5750   51.3850 H   0  0  0  0  0  0  0  0  0  0  0  0
   38.0690   30.9450   51.4970 H   0  0  0  0  0  0  0  0  0  0  0  0
   37.1800   32.5420   49.7610 H   0  0  0  0  0  0  0  0  0  0  0  0
   31.0740   26.9450   45.7730 O   0  0  0  0  0  0  0  0  0  0  0  0
   29.8950   29.2080   44.3090 Cl  0  0  0  0  0  0  0  0  0  0  0  0
   29.1970   28.2720   45.6140 C   0  0  0  0  0  0  0  0  0  0  0  0
   29.8500   27.2210   46.2100 C   0  0  0  0  0  0  0  0  0  0  0  0
   29.1810   26.5250   47.2180 C   0  0  0  0  0  0  0  0  0  0  0  0
   27.9070   26.8890   47.5970 C   0  0  0  0  0  0  0  0  0  0  0  0
   27.2470   27.9440   47.0030 C   0  0  0  0  0  0  0  0  0  0  0  0
   27.9160   28.6470   45.9880 C   0  0  0  0  0  0  0  0  0  0  0  0
   29.5950   25.6840   47.7470 H   0  0  0  0  0  0  0  0  0  0  0  0
   27.3580   26.3770   48.3710 H   0  0  0  0  0  0  0  0  0  0  0  0
   26.2530   28.2210   47.3040 H   0  0  0  0  0  0  0  0  0  0  0  0
   27.2600   29.7760   45.3270 C   0  0  0  0  0  0  0  0  0  0  0  0
   27.2880   31.0480   45.8850 C   0  0  0  0  0  0  0  0  0  0  0  0
   27.7570   31.4680   46.8480 H   0  0  0  0  0  0  0  0  0  0  0  0
   26.3200   32.1250   44.6750 S   0  0  0  0  0  0  0  0  0  0  0  0
   26.0580   30.5820   43.6120 C   0  0  0  0  0  0  0  0  0  0  0  0
   25.5120   30.2600   42.5560 H   0  0  0  0  0  0  0  0  0  0  0  0
   26.5910   29.7770   44.1920 N   0  0  0  0  0  0  0  0  0  0  0  0
  1  6  1  1  0  0  0
  1  2  1  0  0  0  0
  2  7  1  1  0  0  0
  3  2  1  0  0  0  0
  4  8  1  0  0  0  0
  4  3  1  0  0  0  0
  5 10  1  6  0  0  0
  5  4  1  0  0  0  0
  5  1  1  0  0  0  0
  9  4  1  0  0  0  0
 11  1  1  0  0  0  0
 12 11  1  0  0  0  0
 13  2  1  0  0  0  0
 13 18  1  0  0  0  0
 14 15  1  0  0  0  0
 14 20  1  0  0  0  0
 15 21  1  0  0  0  0
 16 15  2  0  0  0  0
 17 16  1  0  0  0  0
 18 17  2  0  0  0  0
 18 19  1  0  0  0  0
 19 14  2  0  0  0  0
 22 16  1  0  0  0  0
 23 26  1  0  0  0  0
 23  5  1  0  0  0  0
 24 25  1  0  0  0  0
 25 30  2  0  0  0  0
 25 26  1  0  0  0  0
 26 27  2  0  0  0  0
 27 28  1  0  0  0  0
 27 31  1  0  0  0  0
 28 32  1  0  0  0  0
 29 33  1  0  0  0  0
 29 28  2  0  0  0  0
 30 29  1  0  0  0  0
 34 35  2  0  0  0  0
 34 30  1  0  0  0  0
 35 36  1  0  0  0  0
 37 35  1  0  0  0  0
 38 40  2  0  0  0  0
 38 37  1  0  0  0  0
 39 38  1  0  0  0  0
 40 34  1  0  0  0  0
M  END
>  <minimizedAffinity>
-5.18119383

>  <minimizedRMSD>
0.352216929

$$$$
