
 OpenBabel03272506273D

 40 43  0  0  0  0  0  0  0  0999 V2000
   38.7330   31.3740   45.2000 C   0  0  0  0  0  0  0  0  0  0  0  0
   39.9210   32.0650   45.3240 C   0  0  0  0  0  0  0  0  0  0  0  0
   40.2380   32.8760   46.4230 C   0  0  0  0  0  0  0  0  0  0  0  0
   39.2830   32.9890   47.4590 C   0  0  0  0  0  0  0  0  0  0  0  0
   38.1180   32.2960   47.3080 C   0  0  0  0  0  0  0  0  0  0  0  0
   37.8130   31.5060   46.2420 C   0  0  0  0  0  0  0  0  0  0  0  0
   40.6740   31.9940   44.5350 H   0  0  0  0  0  0  0  0  0  0  0  0
   41.2220   33.3760   46.4040 H   0  0  0  0  0  0  0  0  0  0  0  0
   39.6600   33.6350   48.2250 H   0  0  0  0  0  0  0  0  0  0  0  0
   37.5560   32.5360   48.1800 H   0  0  0  0  0  0  0  0  0  0  0  0
   39.0140   29.2790   44.0260 C   0  0  0  0  0  0  0  0  0  0  0  0
   38.5600   30.6050   43.9940 C   0  0  0  0  0  0  0  0  0  0  0  0
   37.9800   31.0850   42.8130 C   0  0  0  0  0  0  0  0  0  0  0  0
   37.8850   30.2420   41.7480 N   0  0  0  0  0  0  0  0  0  0  0  0
   38.3350   28.9540   41.8000 C   0  0  0  0  0  0  0  0  0  0  0  0
   38.8980   28.4800   42.9410 N   0  0  0  0  0  0  0  0  0  0  0  0
   39.4640   28.8860   44.9270 H   0  0  0  0  0  0  0  0  0  0  0  0
   38.2390   28.3170   40.9290 H   0  0  0  0  0  0  0  0  0  0  0  0
   37.4560   32.4630   42.6330 C   0  0  0  0  0  0  0  0  0  0  0  0
   36.9120   32.5940   41.3390 F   0  0  0  0  0  0  0  0  0  0  0  0
   36.5280   32.8620   43.5270 F   0  0  0  0  0  0  0  0  0  0  0  0
   38.5180   33.3660   42.6340 F   0  0  0  0  0  0  0  0  0  0  0  0
   36.3260   30.6110   46.0930 S   0  0  0  0  0  0  0  0  0  0  0  0
   33.6820   28.9780   46.0170 Cl  0  0  0  0  0  0  0  0  0  0  0  0
   34.6400   29.0670   47.4810 C   0  0  0  0  0  0  0  0  0  0  0  0
   35.8180   29.7810   47.5710 C   0  0  0  0  0  0  0  0  0  0  0  0
   36.5280   29.8220   48.7380 C   0  0  0  0  0  0  0  0  0  0  0  0
   36.0370   29.1230   49.8330 C   0  0  0  0  0  0  0  0  0  0  0  0
   34.8470   28.4010   49.7450 C   0  0  0  0  0  0  0  0  0  0  0  0
   34.1290   28.3610   48.5670 C   0  0  0  0  0  0  0  0  0  0  0  0
   37.4170   30.3590   48.9270 H   0  0  0  0  0  0  0  0  0  0  0  0
   36.5560   29.1150   50.7870 H   0  0  0  0  0  0  0  0  0  0  0  0
   34.5090   27.8750   50.6260 H   0  0  0  0  0  0  0  0  0  0  0  0
   32.8610   27.5950   48.4650 C   0  0  0  0  0  0  0  0  0  0  0  0
   31.6850   28.0940   49.0180 C   0  0  0  0  0  0  0  0  0  0  0  0
   31.5150   29.0370   49.5650 H   0  0  0  0  0  0  0  0  0  0  0  0
   30.4610   26.7920   48.6190 S   0  0  0  0  0  0  0  0  0  0  0  0
   31.7980   25.7650   47.7420 C   0  0  0  0  0  0  0  0  0  0  0  0
   31.7690   24.7630   47.2110 H   0  0  0  0  0  0  0  0  0  0  0  0
   32.7090   26.4200   47.8710 N   0  0  0  0  0  0  0  0  0  0  0  0
  1  2  2  0  0  0  0
  1  6  1  0  0  0  0
  2  3  1  0  0  0  0
  3  4  2  0  0  0  0
  4  9  1  0  0  0  0
  5  4  1  0  0  0  0
  5 10  1  0  0  0  0
  6  5  2  0  0  0  0
  7  2  1  0  0  0  0
  8  3  1  0  0  0  0
 11 17  1  0  0  0  0
 12 11  1  0  0  0  0
 12  1  1  0  0  0  0
 13 12  2  0  0  0  0
 14 15  2  0  0  0  0
 14 13  1  0  0  0  0
 15 16  1  0  0  0  0
 16 11  2  0  0  0  0
 18 15  1  0  0  0  0
 19 22  1  0  0  0  0
 19 13  1  0  0  0  0
 19 21  1  0  0  0  0
 20 19  1  0  0  0  0
 23  6  1  0  0  0  0
 23 26  1  0  0  0  0
 24 25  1  0  0  0  0
 25 26  2  0  0  0  0
 25 30  1  0  0  0  0
 26 27  1  0  0  0  0
 27 31  1  0  0  0  0
 27 28  2  0  0  0  0
 28 32  1  0  0  0  0
 29 28  1  0  0  0  0
 29 33  1  0  0  0  0
 30 29  2  0  0  0  0
 34 30  1  0  0  0  0
 34 35  2  0  0  0  0
 35 36  1  0  0  0  0
 37 35  1  0  0  0  0
 38 40  2  0  0  0  0
 38 37  1  0  0  0  0
 39 38  1  0  0  0  0
 40 34  1  0  0  0  0
M  END
>  <minimizedAffinity>
-5.74336529

>  <minimizedRMSD>
6.53564692

$$$$
