
 OpenBabel03272506473D

 40 43  0  0  1  0  0  0  0  0999 V2000
   32.0000   28.3710   47.5050 C   0  0  2  0  0  0  0  0  0  0  0  0
   33.2590   28.1750   48.2950 C   0  0  1  0  0  0  0  0  0  0  0  0
   33.6140   26.8650   48.2060 O   0  0  0  0  0  0  0  0  0  0  0  0
   32.8670   26.2550   47.2030 C   0  0  0  0  0  0  0  0  0  0  0  0
   32.2810   27.3560   46.3510 C   0  0  1  0  0  0  0  0  0  0  0  0
   31.0740   28.1160   48.0060 H   0  0  0  0  0  0  0  0  0  0  0  0
   33.0820   28.5380   49.3260 H   0  0  0  0  0  0  0  0  0  0  0  0
   32.1590   25.6070   47.6970 H   0  0  0  0  0  0  0  0  0  0  0  0
   33.5890   25.6760   46.5720 H   0  0  0  0  0  0  0  0  0  0  0  0
   33.0010   27.8470   45.7070 H   0  0  0  0  0  0  0  0  0  0  0  0
   31.9480   29.6740   46.9680 O   0  0  0  0  0  0  0  0  0  0  0  0
   32.3410   29.7160   46.0660 H   0  0  0  0  0  0  0  0  0  0  0  0
   34.5780   29.1800   47.5080 S   0  0  0  0  0  0  0  0  0  0  0  0
   37.0120   29.2450   50.6340 C   0  0  0  0  0  0  0  0  0  0  0  0
   37.4160   30.5790   50.7450 C   0  0  0  0  0  0  0  0  0  0  0  0
   36.9150   31.4980   49.8140 C   0  0  0  0  0  0  0  0  0  0  0  0
   36.0670   31.0450   48.8570 N   0  0  0  0  0  0  0  0  0  0  0  0
   35.7000   29.7490   48.7800 C   0  0  0  0  0  0  0  0  0  0  0  0
   36.1660   28.8320   49.6660 N   0  0  0  0  0  0  0  0  0  0  0  0
   37.4140   28.5580   51.3650 H   0  0  0  0  0  0  0  0  0  0  0  0
   38.0920   30.9340   51.5110 H   0  0  0  0  0  0  0  0  0  0  0  0
   37.1650   32.5500   49.8130 H   0  0  0  0  0  0  0  0  0  0  0  0
   31.1060   26.9110   45.7950 O   0  0  0  0  0  0  0  0  0  0  0  0
   29.9480   29.1460   44.2730 Cl  0  0  0  0  0  0  0  0  0  0  0  0
   29.2330   28.2350   45.5860 C   0  0  0  0  0  0  0  0  0  0  0  0
   29.8760   27.1940   46.2100 C   0  0  0  0  0  0  0  0  0  0  0  0
   29.1930   26.5180   47.2220 C   0  0  0  0  0  0  0  0  0  0  0  0
   27.9150   26.8900   47.5760 C   0  0  0  0  0  0  0  0  0  0  0  0
   27.2630   27.9330   46.9530 C   0  0  0  0  0  0  0  0  0  0  0  0
   27.9460   28.6170   45.9350 C   0  0  0  0  0  0  0  0  0  0  0  0
   29.6000   25.6870   47.7720 H   0  0  0  0  0  0  0  0  0  0  0  0
   27.3550   26.3920   48.3520 H   0  0  0  0  0  0  0  0  0  0  0  0
   26.2650   28.2160   47.2360 H   0  0  0  0  0  0  0  0  0  0  0  0
   27.2990   29.7340   45.2440 C   0  0  0  0  0  0  0  0  0  0  0  0
   26.6360   29.5410   44.0390 C   0  0  0  0  0  0  0  0  0  0  0  0
   26.4570   28.6120   43.3850 H   0  0  0  0  0  0  0  0  0  0  0  0
   25.9880   31.2510   43.5690 S   0  0  0  0  0  0  0  0  0  0  0  0
   26.7720   31.9120   45.1600 C   0  0  0  0  0  0  0  0  0  0  0  0
   26.8930   32.9780   45.7640 H   0  0  0  0  0  0  0  0  0  0  0  0
   27.2400   30.9950   45.6150 N   0  0  0  0  0  0  0  0  0  0  0  0
  1  6  1  1  0  0  0
  1  2  1  0  0  0  0
  2  7  1  1  0  0  0
  3  2  1  0  0  0  0
  4  8  1  0  0  0  0
  4  3  1  0  0  0  0
  5 10  1  6  0  0  0
  5  4  1  0  0  0  0
  5  1  1  0  0  0  0
  9  4  1  0  0  0  0
 11  1  1  0  0  0  0
 12 11  1  0  0  0  0
 13  2  1  0  0  0  0
 13 18  1  0  0  0  0
 14 15  1  0  0  0  0
 14 20  1  0  0  0  0
 15 21  1  0  0  0  0
 16 15  2  0  0  0  0
 17 16  1  0  0  0  0
 18 17  2  0  0  0  0
 18 19  1  0  0  0  0
 19 14  2  0  0  0  0
 22 16  1  0  0  0  0
 23 26  1  0  0  0  0
 23  5  1  0  0  0  0
 24 25  1  0  0  0  0
 25 30  2  0  0  0  0
 25 26  1  0  0  0  0
 26 27  2  0  0  0  0
 27 28  1  0  0  0  0
 27 31  1  0  0  0  0
 28 32  1  0  0  0  0
 29 33  1  0  0  0  0
 29 28  2  0  0  0  0
 30 29  1  0  0  0  0
 34 40  1  0  0  0  0
 34 30  1  0  0  0  0
 35 34  2  0  0  0  0
 36 35  1  0  0  0  0
 37 35  1  0  0  0  0
 37 38  1  0  0  0  0
 38 40  2  0  0  0  0
 38 39  1  0  0  0  0
M  END
>  <minimizedAffinity>
-5.14223051

>  <minimizedRMSD>
0.583664954

$$$$
