
 OpenBabel03262521403D

 41 45  0  0  0  0  0  0  0  0999 V2000
   38.3130   31.4110   46.5950 C   0  0  0  0  0  0  0  0  0  0  0  0
   38.7620   31.4650   45.2970 N   0  0  0  0  0  0  0  0  0  0  0  0
   39.6150   32.4490   44.9340 C   0  0  0  0  0  0  0  0  0  0  0  0
   40.0590   33.3930   45.7850 N   0  0  0  0  0  0  0  0  0  0  0  0
   39.6490   33.3830   47.0620 C   0  0  0  0  0  0  0  0  0  0  0  0
   40.1030   34.3420   47.9240 C   0  0  0  0  0  0  0  0  0  0  0  0
   39.6910   34.3400   49.2410 C   0  0  0  0  0  0  0  0  0  0  0  0
   38.8080   33.3500   49.6850 C   0  0  0  0  0  0  0  0  0  0  0  0
   38.3790   32.3980   48.7580 C   0  0  0  0  0  0  0  0  0  0  0  0
   38.7770   32.3880   47.4560 C   0  0  0  0  0  0  0  0  0  0  0  0
   39.9650   32.4830   43.9050 H   0  0  0  0  0  0  0  0  0  0  0  0
   40.7830   35.1000   47.5770 H   0  0  0  0  0  0  0  0  0  0  0  0
   40.0750   35.1200   49.9020 H   0  0  0  0  0  0  0  0  0  0  0  0
   38.5550   33.4410   50.7180 H   0  0  0  0  0  0  0  0  0  0  0  0
   37.4710   31.4630   49.4190 C   0  0  0  0  0  0  0  0  0  0  0  0
   37.9570   30.3480   50.1000 C   0  0  0  0  0  0  0  0  0  0  0  0
   38.9990   30.0420   50.1950 H   0  0  0  0  0  0  0  0  0  0  0  0
   36.4460   29.5550   50.7740 S   0  0  0  0  0  0  0  0  0  0  0  0
   35.3740   30.9190   49.9890 C   0  0  0  0  0  0  0  0  0  0  0  0
   34.2630   31.0520   50.0150 H   0  0  0  0  0  0  0  0  0  0  0  0
   36.1570   31.5750   49.4800 N   0  0  0  0  0  0  0  0  0  0  0  0
   37.2080   30.1990   47.2400 S   0  0  0  0  0  0  0  0  0  0  0  0
   34.8260   28.6230   47.8850 F   0  0  0  0  0  0  0  0  0  0  0  0
   34.7200   29.2030   46.6450 C   0  0  0  0  0  0  0  0  0  0  0  0
   33.5910   29.0120   45.8690 C   0  0  0  0  0  0  0  0  0  0  0  0
   33.5290   29.6230   44.6120 C   0  0  0  0  0  0  0  0  0  0  0  0
   34.5800   30.4110   44.1410 C   0  0  0  0  0  0  0  0  0  0  0  0
   35.6670   30.5540   44.9720 C   0  0  0  0  0  0  0  0  0  0  0  0
   35.7650   29.9690   46.2150 C   0  0  0  0  0  0  0  0  0  0  0  0
   32.6280   29.4470   44.0350 H   0  0  0  0  0  0  0  0  0  0  0  0
   34.4890   30.8650   43.1630 H   0  0  0  0  0  0  0  0  0  0  0  0
   36.4440   31.1750   44.5530 H   0  0  0  0  0  0  0  0  0  0  0  0
   32.7220   26.8350   46.2110 C   0  0  0  0  0  0  0  0  0  0  0  0
   32.5580   28.1990   46.4040 C   0  0  0  0  0  0  0  0  0  0  0  0
   31.4160   28.5970   47.0890 C   0  0  0  0  0  0  0  0  0  0  0  0
   30.5410   27.6550   47.5250 N   0  0  0  0  0  0  0  0  0  0  0  0
   30.7370   26.3650   47.3180 C   0  0  0  0  0  0  0  0  0  0  0  0
   31.8170   25.9280   46.6660 N   0  0  0  0  0  0  0  0  0  0  0  0
   33.5840   26.4040   45.6840 H   0  0  0  0  0  0  0  0  0  0  0  0
   31.3150   29.6560   47.2240 H   0  0  0  0  0  0  0  0  0  0  0  0
   30.0430   25.6120   47.6640 H   0  0  0  0  0  0  0  0  0  0  0  0
  1 22  1  0  0  0  0
  1 10  1  0  0  0  0
  2  1  2  0  0  0  0
  3  2  1  0  0  0  0
  3  4  2  0  0  0  0
  4  5  1  0  0  0  0
  5 10  2  0  0  0  0
  5  6  1  0  0  0  0
  6  7  2  0  0  0  0
  7  8  1  0  0  0  0
  7 13  1  0  0  0  0
  8 14  1  0  0  0  0
  9 15  1  0  0  0  0
  9  8  2  0  0  0  0
 10  9  1  0  0  0  0
 11  3  1  0  0  0  0
 12  6  1  0  0  0  0
 15 21  1  0  0  0  0
 15 16  2  0  0  0  0
 16 17  1  0  0  0  0
 16 18  1  0  0  0  0
 19 20  1  0  0  0  0
 19 18  1  0  0  0  0
 21 19  2  0  0  0  0
 24 23  1  0  0  0  0
 25 34  1  0  0  0  0
 25 24  2  0  0  0  0
 26 25  1  0  0  0  0
 27 26  2  0  0  0  0
 27 28  1  0  0  0  0
 28 29  2  0  0  0  0
 29 24  1  0  0  0  0
 29 22  1  0  0  0  0
 30 26  1  0  0  0  0
 31 27  1  0  0  0  0
 32 28  1  0  0  0  0
 33 34  2  0  0  0  0
 33 38  1  0  0  0  0
 34 35  1  0  0  0  0
 35 40  1  0  0  0  0
 35 36  2  0  0  0  0
 37 36  1  0  0  0  0
 37 41  1  0  0  0  0
 38 37  2  0  0  0  0
 39 33  1  0  0  0  0
M  END
>  <minimizedAffinity>
-5.78259087

>  <minimizedRMSD>
1.24650574

$$$$
