
 OpenBabel03272506073D

 28 30  0  0  0  0  0  0  0  0999 V2000
   38.2670   25.9400   33.8970 C   0  0  0  0  0  0  0  0  0  0  0  0
   39.3060   25.5670   33.8670 H   0  0  0  0  0  0  0  0  0  0  0  0
   38.3230   27.0030   33.5240 H   0  0  0  0  0  0  0  0  0  0  0  0
   37.3900   25.1630   32.9520 C   0  0  0  0  0  0  0  0  0  0  0  0
   36.5160   25.9000   32.0720 C   0  0  0  0  0  0  0  0  0  0  0  0
   35.7310   24.5620   31.2000 S   0  0  0  0  0  0  0  0  0  0  0  0
   36.6730   23.2340   32.1240 C   0  0  0  0  0  0  0  0  0  0  0  0
   37.3640   23.8610   32.8700 N   0  0  0  0  0  0  0  0  0  0  0  0
   36.4190   26.9690   32.0160 H   0  0  0  0  0  0  0  0  0  0  0  0
   36.3520   21.7960   31.7310 C   0  0  0  0  0  0  0  0  0  0  0  0
   37.1020   20.9860   30.9700 C   0  0  0  0  0  0  0  0  0  0  0  0
   38.0490   21.1660   30.4930 H   0  0  0  0  0  0  0  0  0  0  0  0
   36.1160   19.4650   30.9290 S   0  0  0  0  0  0  0  0  0  0  0  0
   34.7790   20.2530   32.0230 C   0  0  0  0  0  0  0  0  0  0  0  0
   33.8710   19.7120   32.3320 H   0  0  0  0  0  0  0  0  0  0  0  0
   35.2170   21.3100   32.1940 N   0  0  0  0  0  0  0  0  0  0  0  0
   37.7720   25.9140   35.2920 C   0  0  0  0  0  0  0  0  0  0  0  0
   36.6810   25.6830   35.4090 H   0  0  0  0  0  0  0  0  0  0  0  0
   37.9710   26.8520   35.8700 H   0  0  0  0  0  0  0  0  0  0  0  0
   40.2040   23.2960   36.3260 C   0  0  0  0  0  0  0  0  0  0  0  0
   39.6830   22.8740   37.5580 C   0  0  0  0  0  0  0  0  0  0  0  0
   38.5120   23.4880   38.0140 C   0  0  0  0  0  0  0  0  0  0  0  0
   37.9340   24.4550   37.2590 N   0  0  0  0  0  0  0  0  0  0  0  0
   38.4800   24.8240   36.0760 C   0  0  0  0  0  0  0  0  0  0  0  0
   39.5870   24.2610   35.6190 N   0  0  0  0  0  0  0  0  0  0  0  0
   41.1090   22.8000   36.0050 H   0  0  0  0  0  0  0  0  0  0  0  0
   40.1230   22.1060   38.1800 H   0  0  0  0  0  0  0  0  0  0  0  0
   38.0220   23.2390   38.9520 H   0  0  0  0  0  0  0  0  0  0  0  0
  1 17  1  0  0  0  0
  2  1  1  0  0  0  0
  3  1  1  0  0  0  0
  4  1  1  0  0  0  0
  5  4  2  0  0  0  0
  6  5  1  0  0  0  0
  6  7  1  0  0  0  0
  7  8  2  0  0  0  0
  8  4  1  0  0  0  0
  9  5  1  0  0  0  0
 10  7  1  0  0  0  0
 10 16  1  0  0  0  0
 11 10  2  0  0  0  0
 12 11  1  0  0  0  0
 13 11  1  0  0  0  0
 13 14  1  0  0  0  0
 14 16  2  0  0  0  0
 14 15  1  0  0  0  0
 17 18  1  0  0  0  0
 17 19  1  0  0  0  0
 17 24  1  0  0  0  0
 20 21  1  0  0  0  0
 21 22  2  0  0  0  0
 21 27  1  0  0  0  0
 22 28  1  0  0  0  0
 23 22  1  0  0  0  0
 24 23  2  0  0  0  0
 25 24  1  0  0  0  0
 25 20  2  0  0  0  0
 26 20  1  0  0  0  0
M  END
>  <minimizedAffinity>
-4.48320436

$$$$

 OpenBabel03272506073D

 28 30  0  0  0  0  0  0  0  0999 V2000
   38.3240   23.3270   33.4570 C   0  0  0  0  0  0  0  0  0  0  0  0
   37.7860   22.6430   34.1360 H   0  0  0  0  0  0  0  0  0  0  0  0
   38.8900   22.6560   32.7480 H   0  0  0  0  0  0  0  0  0  0  0  0
   37.3580   24.1500   32.6470 C   0  0  0  0  0  0  0  0  0  0  0  0
   36.3490   23.4580   31.8830 C   0  0  0  0  0  0  0  0  0  0  0  0
   35.5050   24.8370   31.1390 S   0  0  0  0  0  0  0  0  0  0  0  0
   36.6070   26.1150   31.9470 C   0  0  0  0  0  0  0  0  0  0  0  0
   37.3680   25.4530   32.5860 N   0  0  0  0  0  0  0  0  0  0  0  0
   36.2080   22.3940   31.8270 H   0  0  0  0  0  0  0  0  0  0  0  0
   36.2900   27.5700   31.6160 C   0  0  0  0  0  0  0  0  0  0  0  0
   35.5120   28.4020   32.3250 C   0  0  0  0  0  0  0  0  0  0  0  0
   34.9680   28.2320   33.2370 H   0  0  0  0  0  0  0  0  0  0  0  0
   35.5920   29.9320   31.3550 S   0  0  0  0  0  0  0  0  0  0  0  0
   36.7400   29.1140   30.0830 C   0  0  0  0  0  0  0  0  0  0  0  0
   37.1270   29.6510   29.2020 H   0  0  0  0  0  0  0  0  0  0  0  0
   36.8430   28.0480   30.5190 N   0  0  0  0  0  0  0  0  0  0  0  0
   39.2700   24.1550   34.2390 C   0  0  0  0  0  0  0  0  0  0  0  0
   39.1090   25.2630   34.1670 H   0  0  0  0  0  0  0  0  0  0  0  0
   40.3490   23.9660   34.0090 H   0  0  0  0  0  0  0  0  0  0  0  0
   39.8700   22.7990   37.6500 C   0  0  0  0  0  0  0  0  0  0  0  0
   38.8080   23.3480   38.3810 C   0  0  0  0  0  0  0  0  0  0  0  0
   37.9050   24.1700   37.7000 C   0  0  0  0  0  0  0  0  0  0  0  0
   38.0890   24.4020   36.3770 N   0  0  0  0  0  0  0  0  0  0  0  0
   39.1340   23.8450   35.7190 C   0  0  0  0  0  0  0  0  0  0  0  0
   40.0040   23.0640   36.3370 N   0  0  0  0  0  0  0  0  0  0  0  0
   40.5480   22.1680   38.2080 H   0  0  0  0  0  0  0  0  0  0  0  0
   38.6370   23.1800   39.4370 H   0  0  0  0  0  0  0  0  0  0  0  0
   37.0470   24.6470   38.1670 H   0  0  0  0  0  0  0  0  0  0  0  0
  1  2  1  0  0  0  0
  1 17  1  0  0  0  0
  3  1  1  0  0  0  0
  4  1  1  0  0  0  0
  5  4  2  0  0  0  0
  6  5  1  0  0  0  0
  6  7  1  0  0  0  0
  7  8  2  0  0  0  0
  8  4  1  0  0  0  0
  9  5  1  0  0  0  0
 10  7  1  0  0  0  0
 10 11  2  0  0  0  0
 11 12  1  0  0  0  0
 13 11  1  0  0  0  0
 14 16  2  0  0  0  0
 14 13  1  0  0  0  0
 15 14  1  0  0  0  0
 16 10  1  0  0  0  0
 17 24  1  0  0  0  0
 18 17  1  0  0  0  0
 19 17  1  0  0  0  0
 20 26  1  0  0  0  0
 20 21  1  0  0  0  0
 21 27  1  0  0  0  0
 22 28  1  0  0  0  0
 22 21  2  0  0  0  0
 23 22  1  0  0  0  0
 24 25  1  0  0  0  0
 24 23  2  0  0  0  0
 25 20  2  0  0  0  0
M  END
>  <minimizedAffinity>
-4.42296171

$$$$

 OpenBabel03272506073D

 28 30  0  0  0  0  0  0  0  0999 V2000
   38.4930   26.7720   35.1720 C   0  0  0  0  0  0  0  0  0  0  0  0
   39.4760   27.2760   35.1620 H   0  0  0  0  0  0  0  0  0  0  0  0
   38.0990   26.9140   36.2200 H   0  0  0  0  0  0  0  0  0  0  0  0
   37.5370   27.4430   34.2220 C   0  0  0  0  0  0  0  0  0  0  0  0
   37.7650   27.2910   32.8060 C   0  0  0  0  0  0  0  0  0  0  0  0
   36.4080   28.2410   32.1560 S   0  0  0  0  0  0  0  0  0  0  0  0
   35.7450   28.6940   33.8460 C   0  0  0  0  0  0  0  0  0  0  0  0
   36.5100   28.1580   34.5900 N   0  0  0  0  0  0  0  0  0  0  0  0
   38.5620   26.7380   32.3420 H   0  0  0  0  0  0  0  0  0  0  0  0
   34.4940   29.5680   33.8570 C   0  0  0  0  0  0  0  0  0  0  0  0
   34.1350   30.4410   34.8090 C   0  0  0  0  0  0  0  0  0  0  0  0
   34.6260   30.7030   35.7290 H   0  0  0  0  0  0  0  0  0  0  0  0
   32.5730   31.0990   34.1650 S   0  0  0  0  0  0  0  0  0  0  0  0
   32.6990   30.0010   32.6220 C   0  0  0  0  0  0  0  0  0  0  0  0
   31.9370   30.0070   31.8260 H   0  0  0  0  0  0  0  0  0  0  0  0
   33.6920   29.4420   32.8190 N   0  0  0  0  0  0  0  0  0  0  0  0
   38.6720   25.3320   34.8850 C   0  0  0  0  0  0  0  0  0  0  0  0
   39.6060   25.0680   34.3220 H   0  0  0  0  0  0  0  0  0  0  0  0
   37.8170   24.8600   34.3370 H   0  0  0  0  0  0  0  0  0  0  0  0
   39.7090   22.8670   37.4700 C   0  0  0  0  0  0  0  0  0  0  0  0
   38.8860   23.2060   38.5540 C   0  0  0  0  0  0  0  0  0  0  0  0
   37.9920   24.2680   38.3850 C   0  0  0  0  0  0  0  0  0  0  0  0
   37.9560   24.9200   37.1960 N   0  0  0  0  0  0  0  0  0  0  0  0
   38.7740   24.5500   36.1820 C   0  0  0  0  0  0  0  0  0  0  0  0
   39.6300   23.5500   36.3130 N   0  0  0  0  0  0  0  0  0  0  0  0
   40.3870   22.0410   37.6370 H   0  0  0  0  0  0  0  0  0  0  0  0
   38.8930   22.7030   39.5120 H   0  0  0  0  0  0  0  0  0  0  0  0
   37.3080   24.6140   39.1550 H   0  0  0  0  0  0  0  0  0  0  0  0
  1  3  1  0  0  0  0
  2  1  1  0  0  0  0
  4  8  1  0  0  0  0
  4  1  1  0  0  0  0
  5  4  2  0  0  0  0
  6  5  1  0  0  0  0
  6  7  1  0  0  0  0
  7 10  1  0  0  0  0
  7  8  2  0  0  0  0
  9  5  1  0  0  0  0
 10 11  2  0  0  0  0
 11 12  1  0  0  0  0
 13 11  1  0  0  0  0
 14 16  2  0  0  0  0
 14 13  1  0  0  0  0
 15 14  1  0  0  0  0
 16 10  1  0  0  0  0
 17  1  1  0  0  0  0
 17 24  1  0  0  0  0
 18 17  1  0  0  0  0
 19 17  1  0  0  0  0
 20 26  1  0  0  0  0
 20 21  1  0  0  0  0
 21 27  1  0  0  0  0
 22 21  2  0  0  0  0
 22 28  1  0  0  0  0
 23 22  1  0  0  0  0
 24 25  1  0  0  0  0
 24 23  2  0  0  0  0
 25 20  2  0  0  0  0
M  END
>  <minimizedAffinity>
-4.4044714

$$$$

 OpenBabel03272506073D

 28 30  0  0  0  0  0  0  0  0999 V2000
   36.7400   23.7350   31.2740 C   0  0  0  0  0  0  0  0  0  0  0  0
   36.6480   24.5610   30.5480 H   0  0  0  0  0  0  0  0  0  0  0  0
   37.4920   23.0250   30.8210 H   0  0  0  0  0  0  0  0  0  0  0  0
   37.3000   24.2290   32.5820 C   0  0  0  0  0  0  0  0  0  0  0  0
   37.1550   25.6300   32.8980 C   0  0  0  0  0  0  0  0  0  0  0  0
   37.9540   25.6860   34.4870 S   0  0  0  0  0  0  0  0  0  0  0  0
   38.3580   23.8590   34.4950 C   0  0  0  0  0  0  0  0  0  0  0  0
   37.9110   23.4770   33.4550 N   0  0  0  0  0  0  0  0  0  0  0  0
   36.6800   26.3770   32.2880 H   0  0  0  0  0  0  0  0  0  0  0  0
   39.1000   23.3470   35.7260 C   0  0  0  0  0  0  0  0  0  0  0  0
   40.2840   22.7180   35.7440 C   0  0  0  0  0  0  0  0  0  0  0  0
   40.9380   22.4490   34.9330 H   0  0  0  0  0  0  0  0  0  0  0  0
   40.5370   22.4140   37.5130 S   0  0  0  0  0  0  0  0  0  0  0  0
   38.8860   23.2500   37.9350 C   0  0  0  0  0  0  0  0  0  0  0  0
   38.5170   23.3480   38.9690 H   0  0  0  0  0  0  0  0  0  0  0  0
   38.5060   23.5510   36.8850 N   0  0  0  0  0  0  0  0  0  0  0  0
   35.4310   23.0610   31.4270 C   0  0  0  0  0  0  0  0  0  0  0  0
   34.7000   23.2420   30.5960 H   0  0  0  0  0  0  0  0  0  0  0  0
   34.9010   23.2940   32.3850 H   0  0  0  0  0  0  0  0  0  0  0  0
   34.9190   19.4310   32.0510 C   0  0  0  0  0  0  0  0  0  0  0  0
   36.0420   18.8600   31.4350 C   0  0  0  0  0  0  0  0  0  0  0  0
   36.9540   19.7210   30.8180 C   0  0  0  0  0  0  0  0  0  0  0  0
   36.7210   21.0570   30.8390 N   0  0  0  0  0  0  0  0  0  0  0  0
   35.6190   21.5550   31.4490 C   0  0  0  0  0  0  0  0  0  0  0  0
   34.7390   20.7640   32.0410 N   0  0  0  0  0  0  0  0  0  0  0  0
   34.2360   18.7350   32.5190 H   0  0  0  0  0  0  0  0  0  0  0  0
   36.2530   17.7990   31.4030 H   0  0  0  0  0  0  0  0  0  0  0  0
   37.8560   19.3890   30.3120 H   0  0  0  0  0  0  0  0  0  0  0  0
  1 17  1  0  0  0  0
  1  4  1  0  0  0  0
  2  1  1  0  0  0  0
  3  1  1  0  0  0  0
  4  5  2  0  0  0  0
  4  8  1  0  0  0  0
  5  6  1  0  0  0  0
  6  7  1  0  0  0  0
  7 10  1  0  0  0  0
  8  7  2  0  0  0  0
  9  5  1  0  0  0  0
 10 11  2  0  0  0  0
 10 16  1  0  0  0  0
 11 13  1  0  0  0  0
 12 11  1  0  0  0  0
 13 14  1  0  0  0  0
 14 15  1  0  0  0  0
 16 14  2  0  0  0  0
 17 24  1  0  0  0  0
 17 19  1  0  0  0  0
 18 17  1  0  0  0  0
 20 26  1  0  0  0  0
 21 20  2  0  0  0  0
 22 23  2  0  0  0  0
 22 21  1  0  0  0  0
 23 24  1  0  0  0  0
 24 25  2  0  0  0  0
 25 20  1  0  0  0  0
 27 21  1  0  0  0  0
 28 22  1  0  0  0  0
M  END
>  <minimizedAffinity>
-4.36992311

$$$$

 OpenBabel03272506073D

 28 30  0  0  0  0  0  0  0  0999 V2000
   37.7770   25.8060   33.7780 C   0  0  0  0  0  0  0  0  0  0  0  0
   37.0980   25.0570   34.2230 H   0  0  0  0  0  0  0  0  0  0  0  0
   38.1210   25.3510   32.8040 H   0  0  0  0  0  0  0  0  0  0  0  0
   37.0390   27.0780   33.4600 C   0  0  0  0  0  0  0  0  0  0  0  0
   36.8690   27.4380   32.0730 C   0  0  0  0  0  0  0  0  0  0  0  0
   35.9680   28.9640   32.2430 S   0  0  0  0  0  0  0  0  0  0  0  0
   35.9500   28.8960   34.1130 C   0  0  0  0  0  0  0  0  0  0  0  0
   36.5380   27.8850   34.3540 N   0  0  0  0  0  0  0  0  0  0  0  0
   37.2200   26.8850   31.2210 H   0  0  0  0  0  0  0  0  0  0  0  0
   35.2490   30.0560   34.8130 C   0  0  0  0  0  0  0  0  0  0  0  0
   33.9380   30.3370   34.7820 C   0  0  0  0  0  0  0  0  0  0  0  0
   33.1340   29.8300   34.2790 H   0  0  0  0  0  0  0  0  0  0  0  0
   33.8320   31.8210   35.8170 S   0  0  0  0  0  0  0  0  0  0  0  0
   35.7050   31.7900   36.1260 C   0  0  0  0  0  0  0  0  0  0  0  0
   36.2160   32.5410   36.7500 H   0  0  0  0  0  0  0  0  0  0  0  0
   36.0220   30.8580   35.5190 N   0  0  0  0  0  0  0  0  0  0  0  0
   38.9330   26.0210   34.6770 C   0  0  0  0  0  0  0  0  0  0  0  0
   38.9750   27.0280   35.1680 H   0  0  0  0  0  0  0  0  0  0  0  0
   39.9290   25.8480   34.1970 H   0  0  0  0  0  0  0  0  0  0  0  0
   37.9990   24.3000   37.8390 C   0  0  0  0  0  0  0  0  0  0  0  0
   38.8790   23.2090   37.8570 C   0  0  0  0  0  0  0  0  0  0  0  0
   39.7750   23.0780   36.7920 C   0  0  0  0  0  0  0  0  0  0  0  0
   39.7590   23.9990   35.7960 N   0  0  0  0  0  0  0  0  0  0  0  0
   38.8870   25.0340   35.8300 C   0  0  0  0  0  0  0  0  0  0  0  0
   38.0280   25.1840   36.8240 N   0  0  0  0  0  0  0  0  0  0  0  0
   37.3200   24.3700   38.6790 H   0  0  0  0  0  0  0  0  0  0  0  0
   38.9130   22.4600   38.6380 H   0  0  0  0  0  0  0  0  0  0  0  0
   40.5000   22.2730   36.7040 H   0  0  0  0  0  0  0  0  0  0  0  0
  1  2  1  0  0  0  0
  1 17  1  0  0  0  0
  3  1  1  0  0  0  0
  4  1  1  0  0  0  0
  4  8  1  0  0  0  0
  5  6  1  0  0  0  0
  5  4  2  0  0  0  0
  6  7  1  0  0  0  0
  7  8  2  0  0  0  0
  7 10  1  0  0  0  0
  9  5  1  0  0  0  0
 10 16  1  0  0  0  0
 11 10  2  0  0  0  0
 11 13  1  0  0  0  0
 12 11  1  0  0  0  0
 13 14  1  0  0  0  0
 14 15  1  0  0  0  0
 16 14  2  0  0  0  0
 17 18  1  0  0  0  0
 17 24  1  0  0  0  0
 19 17  1  0  0  0  0
 20 21  1  0  0  0  0
 20 26  1  0  0  0  0
 21 27  1  0  0  0  0
 22 21  2  0  0  0  0
 23 24  2  0  0  0  0
 23 22  1  0  0  0  0
 24 25  1  0  0  0  0
 25 20  2  0  0  0  0
 28 22  1  0  0  0  0
M  END
>  <minimizedAffinity>
-4.35347271

$$$$

 OpenBabel03272506073D

 28 30  0  0  0  0  0  0  0  0999 V2000
   35.8410   29.2690   32.9000 C   0  0  0  0  0  0  0  0  0  0  0  0
   36.5570   29.9330   33.4160 H   0  0  0  0  0  0  0  0  0  0  0  0
   35.8230   29.6280   31.8300 H   0  0  0  0  0  0  0  0  0  0  0  0
   36.3330   27.8460   32.9030 C   0  0  0  0  0  0  0  0  0  0  0  0
   36.1140   27.0480   31.7200 C   0  0  0  0  0  0  0  0  0  0  0  0
   36.8540   25.5100   32.2270 S   0  0  0  0  0  0  0  0  0  0  0  0
   37.3400   26.1510   33.9170 C   0  0  0  0  0  0  0  0  0  0  0  0
   36.9460   27.2780   33.9040 N   0  0  0  0  0  0  0  0  0  0  0  0
   35.6270   27.3650   30.8160 H   0  0  0  0  0  0  0  0  0  0  0  0
   38.0600   25.1560   34.8230 C   0  0  0  0  0  0  0  0  0  0  0  0
   38.9930   24.2660   34.4540 C   0  0  0  0  0  0  0  0  0  0  0  0
   39.4170   24.0690   33.4860 H   0  0  0  0  0  0  0  0  0  0  0  0
   39.3870   23.4430   36.0210 S   0  0  0  0  0  0  0  0  0  0  0  0
   38.1360   24.5250   36.9520 C   0  0  0  0  0  0  0  0  0  0  0  0
   37.9600   24.4310   38.0350 H   0  0  0  0  0  0  0  0  0  0  0  0
   37.7210   25.1840   36.0970 N   0  0  0  0  0  0  0  0  0  0  0  0
   34.5010   29.4150   33.5110 C   0  0  0  0  0  0  0  0  0  0  0  0
   34.0540   28.4700   33.9150 H   0  0  0  0  0  0  0  0  0  0  0  0
   33.7350   29.8780   32.8380 H   0  0  0  0  0  0  0  0  0  0  0  0
   33.5840   31.4200   36.5060 C   0  0  0  0  0  0  0  0  0  0  0  0
   34.8000   32.0330   36.8390 C   0  0  0  0  0  0  0  0  0  0  0  0
   35.9110   31.7530   36.0390 C   0  0  0  0  0  0  0  0  0  0  0  0
   35.7720   30.9110   34.9840 N   0  0  0  0  0  0  0  0  0  0  0  0
   34.5730   30.3470   34.7070 C   0  0  0  0  0  0  0  0  0  0  0  0
   33.5040   30.5930   35.4470 N   0  0  0  0  0  0  0  0  0  0  0  0
   32.7460   31.6600   37.1470 H   0  0  0  0  0  0  0  0  0  0  0  0
   34.9400   32.7080   37.6740 H   0  0  0  0  0  0  0  0  0  0  0  0
   36.9000   32.1720   36.2050 H   0  0  0  0  0  0  0  0  0  0  0  0
  1  4  1  0  0  0  0
  1  2  1  0  0  0  0
  1 17  1  0  0  0  0
  3  1  1  0  0  0  0
  4  8  1  0  0  0  0
  5  6  1  0  0  0  0
  5  4  2  0  0  0  0
  6  7  1  0  0  0  0
  7 10  1  0  0  0  0
  8  7  2  0  0  0  0
  9  5  1  0  0  0  0
 10 16  1  0  0  0  0
 11 10  2  0  0  0  0
 11 13  1  0  0  0  0
 12 11  1  0  0  0  0
 13 14  1  0  0  0  0
 14 15  1  0  0  0  0
 16 14  2  0  0  0  0
 17 18  1  0  0  0  0
 17 24  1  0  0  0  0
 19 17  1  0  0  0  0
 20 21  1  0  0  0  0
 20 26  1  0  0  0  0
 21 27  1  0  0  0  0
 22 28  1  0  0  0  0
 22 21  2  0  0  0  0
 23 22  1  0  0  0  0
 24 23  2  0  0  0  0
 24 25  1  0  0  0  0
 25 20  2  0  0  0  0
M  END
>  <minimizedAffinity>
-4.31222534

$$$$

 OpenBabel03272506073D

 28 30  0  0  0  0  0  0  0  0999 V2000
   37.7590   26.6010   35.1350 C   0  0  0  0  0  0  0  0  0  0  0  0
   38.2560   27.2620   35.8660 H   0  0  0  0  0  0  0  0  0  0  0  0
   36.7920   26.2890   35.6270 H   0  0  0  0  0  0  0  0  0  0  0  0
   37.4180   27.3520   33.8760 C   0  0  0  0  0  0  0  0  0  0  0  0
   36.3020   28.2650   33.9090 C   0  0  0  0  0  0  0  0  0  0  0  0
   36.3260   28.8670   32.2350 S   0  0  0  0  0  0  0  0  0  0  0  0
   37.8030   27.8270   31.7440 C   0  0  0  0  0  0  0  0  0  0  0  0
   38.0640   27.2360   32.7490 N   0  0  0  0  0  0  0  0  0  0  0  0
   35.6710   28.4730   34.7550 H   0  0  0  0  0  0  0  0  0  0  0  0
   38.2700   27.9750   30.2990 C   0  0  0  0  0  0  0  0  0  0  0  0
   39.2690   27.3060   29.7080 C   0  0  0  0  0  0  0  0  0  0  0  0
   39.9290   26.5540   30.1030 H   0  0  0  0  0  0  0  0  0  0  0  0
   39.2520   27.9860   28.0270 S   0  0  0  0  0  0  0  0  0  0  0  0
   37.7990   29.1280   28.4590 C   0  0  0  0  0  0  0  0  0  0  0  0
   37.3510   29.8210   27.7290 H   0  0  0  0  0  0  0  0  0  0  0  0
   37.6150   28.8560   29.5680 N   0  0  0  0  0  0  0  0  0  0  0  0
   38.6090   25.4150   34.8840 C   0  0  0  0  0  0  0  0  0  0  0  0
   39.6640   25.6380   34.5770 H   0  0  0  0  0  0  0  0  0  0  0  0
   38.1930   24.7000   34.1300 H   0  0  0  0  0  0  0  0  0  0  0  0
   39.7280   22.8840   37.3700 C   0  0  0  0  0  0  0  0  0  0  0  0
   38.9220   23.1780   38.4790 C   0  0  0  0  0  0  0  0  0  0  0  0
   38.0110   24.2320   38.3610 C   0  0  0  0  0  0  0  0  0  0  0  0
   37.9430   24.9210   37.1950 N   0  0  0  0  0  0  0  0  0  0  0  0
   38.7460   24.5940   36.1540 C   0  0  0  0  0  0  0  0  0  0  0  0
   39.6170   23.6020   36.2370 N   0  0  0  0  0  0  0  0  0  0  0  0
   40.4190   22.0630   37.4970 H   0  0  0  0  0  0  0  0  0  0  0  0
   38.9550   22.6450   39.4210 H   0  0  0  0  0  0  0  0  0  0  0  0
   37.3390   24.5460   39.1560 H   0  0  0  0  0  0  0  0  0  0  0  0
  1  3  1  0  0  0  0
  1  2  1  0  0  0  0
  4  5  2  0  0  0  0
  4  1  1  0  0  0  0
  5  9  1  0  0  0  0
  6  5  1  0  0  0  0
  7  6  1  0  0  0  0
  7  8  2  0  0  0  0
  8  4  1  0  0  0  0
 10  7  1  0  0  0  0
 11 12  1  0  0  0  0
 11 10  2  0  0  0  0
 13 14  1  0  0  0  0
 13 11  1  0  0  0  0
 14 16  2  0  0  0  0
 15 14  1  0  0  0  0
 16 10  1  0  0  0  0
 17  1  1  0  0  0  0
 17 24  1  0  0  0  0
 18 17  1  0  0  0  0
 19 17  1  0  0  0  0
 20 26  1  0  0  0  0
 20 21  1  0  0  0  0
 21 27  1  0  0  0  0
 22 21  2  0  0  0  0
 22 28  1  0  0  0  0
 23 22  1  0  0  0  0
 24 25  1  0  0  0  0
 24 23  2  0  0  0  0
 25 20  2  0  0  0  0
M  END
>  <minimizedAffinity>
-4.31196737

$$$$

 OpenBabel03272506073D

 28 30  0  0  0  0  0  0  0  0999 V2000
   35.9490   29.3310   34.4130 C   0  0  0  0  0  0  0  0  0  0  0  0
   35.4450   29.3080   35.3950 H   0  0  0  0  0  0  0  0  0  0  0  0
   36.7930   30.0720   34.5300 H   0  0  0  0  0  0  0  0  0  0  0  0
   36.5510   27.9910   34.0870 C   0  0  0  0  0  0  0  0  0  0  0  0
   36.6680   27.6160   32.6990 C   0  0  0  0  0  0  0  0  0  0  0  0
   37.4110   26.0070   32.8600 S   0  0  0  0  0  0  0  0  0  0  0  0
   37.4550   26.0710   34.7300 C   0  0  0  0  0  0  0  0  0  0  0  0
   36.9760   27.1370   34.9760 N   0  0  0  0  0  0  0  0  0  0  0  0
   36.3660   28.2030   31.8500 H   0  0  0  0  0  0  0  0  0  0  0  0
   38.0430   24.8450   35.4230 C   0  0  0  0  0  0  0  0  0  0  0  0
   38.6790   23.8210   34.8360 C   0  0  0  0  0  0  0  0  0  0  0  0
   38.9040   23.6480   33.7990 H   0  0  0  0  0  0  0  0  0  0  0  0
   39.0880   22.7570   36.2460 S   0  0  0  0  0  0  0  0  0  0  0  0
   38.2700   23.9720   37.4540 C   0  0  0  0  0  0  0  0  0  0  0  0
   38.2320   23.7940   38.5400 H   0  0  0  0  0  0  0  0  0  0  0  0
   37.9040   24.8000   36.7330 N   0  0  0  0  0  0  0  0  0  0  0  0
   34.9980   29.8010   33.3800 C   0  0  0  0  0  0  0  0  0  0  0  0
   35.1160   29.3270   32.3700 H   0  0  0  0  0  0  0  0  0  0  0  0
   34.9960   30.9090   33.2240 H   0  0  0  0  0  0  0  0  0  0  0  0
   31.4140   28.8130   33.2810 C   0  0  0  0  0  0  0  0  0  0  0  0
   31.0440   28.8940   34.6310 C   0  0  0  0  0  0  0  0  0  0  0  0
   32.0210   29.2840   35.5520 C   0  0  0  0  0  0  0  0  0  0  0  0
   33.2720   29.5640   35.1100 N   0  0  0  0  0  0  0  0  0  0  0  0
   33.5750   29.4700   33.7930 C   0  0  0  0  0  0  0  0  0  0  0  0
   32.6710   29.1040   32.8990 N   0  0  0  0  0  0  0  0  0  0  0  0
   30.6320   28.5100   32.5980 H   0  0  0  0  0  0  0  0  0  0  0  0
   30.0540   28.6760   35.0110 H   0  0  0  0  0  0  0  0  0  0  0  0
   31.8450   29.3800   36.6200 H   0  0  0  0  0  0  0  0  0  0  0  0
  1  3  1  0  0  0  0
  1  2  1  0  0  0  0
  4  1  1  0  0  0  0
  4  8  1  0  0  0  0
  5  6  1  0  0  0  0
  5  4  2  0  0  0  0
  6  7  1  0  0  0  0
  7  8  2  0  0  0  0
  7 10  1  0  0  0  0
  9  5  1  0  0  0  0
 10 16  1  0  0  0  0
 11 10  2  0  0  0  0
 11 13  1  0  0  0  0
 12 11  1  0  0  0  0
 13 14  1  0  0  0  0
 14 15  1  0  0  0  0
 16 14  2  0  0  0  0
 17 24  1  0  0  0  0
 17  1  1  0  0  0  0
 18 17  1  0  0  0  0
 19 17  1  0  0  0  0
 20 21  1  0  0  0  0
 21 27  1  0  0  0  0
 21 22  2  0  0  0  0
 22 28  1  0  0  0  0
 23 22  1  0  0  0  0
 24 23  2  0  0  0  0
 25 20  2  0  0  0  0
 25 24  1  0  0  0  0
 26 20  1  0  0  0  0
M  END
>  <minimizedAffinity>
-4.28600883

$$$$

 OpenBabel03272506073D

 28 30  0  0  0  0  0  0  0  0999 V2000
   36.2430   26.4010   31.4070 C   0  0  0  0  0  0  0  0  0  0  0  0
   35.5840   26.7180   30.5810 H   0  0  0  0  0  0  0  0  0  0  0  0
   35.5910   26.4150   32.3290 H   0  0  0  0  0  0  0  0  0  0  0  0
   36.7220   24.9890   31.2010 C   0  0  0  0  0  0  0  0  0  0  0  0
   38.0240   24.7910   30.6100 C   0  0  0  0  0  0  0  0  0  0  0  0
   38.1020   23.0130   30.5880 S   0  0  0  0  0  0  0  0  0  0  0  0
   36.4100   22.7990   31.3600 C   0  0  0  0  0  0  0  0  0  0  0  0
   36.0400   23.9240   31.5190 N   0  0  0  0  0  0  0  0  0  0  0  0
   38.7060   25.5590   30.2940 H   0  0  0  0  0  0  0  0  0  0  0  0
   35.9560   21.3590   31.5760 C   0  0  0  0  0  0  0  0  0  0  0  0
   35.1450   20.9120   32.5460 C   0  0  0  0  0  0  0  0  0  0  0  0
   34.6610   21.4450   33.3450 H   0  0  0  0  0  0  0  0  0  0  0  0
   35.0500   19.1370   32.1870 S   0  0  0  0  0  0  0  0  0  0  0  0
   36.2000   19.3360   30.6900 C   0  0  0  0  0  0  0  0  0  0  0  0
   36.4990   18.4880   30.0540 H   0  0  0  0  0  0  0  0  0  0  0  0
   36.4140   20.4730   30.7150 N   0  0  0  0  0  0  0  0  0  0  0  0
   37.3530   27.3690   31.5530 C   0  0  0  0  0  0  0  0  0  0  0  0
   37.0740   28.4440   31.3980 H   0  0  0  0  0  0  0  0  0  0  0  0
   38.2360   27.1620   30.8960 H   0  0  0  0  0  0  0  0  0  0  0  0
   39.6670   27.0410   34.4460 C   0  0  0  0  0  0  0  0  0  0  0  0
   38.8120   27.2470   35.5380 C   0  0  0  0  0  0  0  0  0  0  0  0
   37.4620   27.4930   35.2700 C   0  0  0  0  0  0  0  0  0  0  0  0
   37.0380   27.5240   33.9830 N   0  0  0  0  0  0  0  0  0  0  0  0
   37.9080   27.3180   32.9650 C   0  0  0  0  0  0  0  0  0  0  0  0
   39.1900   27.0820   33.1890 N   0  0  0  0  0  0  0  0  0  0  0  0
   40.7040   26.8520   34.6920 H   0  0  0  0  0  0  0  0  0  0  0  0
   39.1230   27.2280   36.5750 H   0  0  0  0  0  0  0  0  0  0  0  0
   36.7120   27.6660   36.0380 H   0  0  0  0  0  0  0  0  0  0  0  0
  1 17  1  0  0  0  0
  1  3  1  0  0  0  0
  2  1  1  0  0  0  0
  4  1  1  0  0  0  0
  4  8  1  0  0  0  0
  5  4  2  0  0  0  0
  6  5  1  0  0  0  0
  6  7  1  0  0  0  0
  7  8  2  0  0  0  0
  7 10  1  0  0  0  0
  9  5  1  0  0  0  0
 10 11  2  0  0  0  0
 11 12  1  0  0  0  0
 13 11  1  0  0  0  0
 14 16  2  0  0  0  0
 14 13  1  0  0  0  0
 15 14  1  0  0  0  0
 16 10  1  0  0  0  0
 17 24  1  0  0  0  0
 18 17  1  0  0  0  0
 19 17  1  0  0  0  0
 20 26  1  0  0  0  0
 20 21  1  0  0  0  0
 21 27  1  0  0  0  0
 22 21  2  0  0  0  0
 22 28  1  0  0  0  0
 23 22  1  0  0  0  0
 24 25  1  0  0  0  0
 24 23  2  0  0  0  0
 25 20  2  0  0  0  0
M  END
>  <minimizedAffinity>
-4.25984955

$$$$
