
 OpenBabel03272505123D

 37 40  0  0  0  0  0  0  0  0999 V2000
   36.4030   30.9050   45.7080 Cl  0  0  0  0  0  0  0  0  0  0  0  0
   36.6880   30.7790   47.4200 C   0  0  0  0  0  0  0  0  0  0  0  0
   37.9490   31.1100   47.8790 C   0  0  0  0  0  0  0  0  0  0  0  0
   38.1850   31.0120   49.2350 C   0  0  0  0  0  0  0  0  0  0  0  0
   37.1830   30.5970   50.0800 C   0  0  0  0  0  0  0  0  0  0  0  0
   35.9290   30.2770   49.5520 C   0  0  0  0  0  0  0  0  0  0  0  0
   35.6310   30.3530   48.2160 C   0  0  0  0  0  0  0  0  0  0  0  0
   39.1510   31.2620   49.6120 H   0  0  0  0  0  0  0  0  0  0  0  0
   37.3730   30.5230   51.1410 H   0  0  0  0  0  0  0  0  0  0  0  0
   35.1660   29.9550   50.2470 H   0  0  0  0  0  0  0  0  0  0  0  0
   40.2110   33.3240   46.0750 C   0  0  0  0  0  0  0  0  0  0  0  0
   40.9260   32.4580   45.2130 C   0  0  0  0  0  0  0  0  0  0  0  0
   40.6070   31.1000   45.2730 C   0  0  0  0  0  0  0  0  0  0  0  0
   39.6410   30.6880   46.1420 N   0  0  0  0  0  0  0  0  0  0  0  0
   38.9930   31.5500   46.9370 C   0  0  0  0  0  0  0  0  0  0  0  0
   39.2820   32.8440   46.8960 N   0  0  0  0  0  0  0  0  0  0  0  0
   40.4880   34.3730   45.9990 H   0  0  0  0  0  0  0  0  0  0  0  0
   41.6880   32.7330   44.5170 H   0  0  0  0  0  0  0  0  0  0  0  0
   41.0700   30.3200   44.6740 H   0  0  0  0  0  0  0  0  0  0  0  0
   34.0640   29.9590   47.5220 S   0  0  0  0  0  0  0  0  0  0  0  0
   33.8280   29.1990   44.4860 Cl  0  0  0  0  0  0  0  0  0  0  0  0
   33.8370   27.9670   45.7460 C   0  0  0  0  0  0  0  0  0  0  0  0
   33.9370   28.2190   47.1080 C   0  0  0  0  0  0  0  0  0  0  0  0
   33.9280   27.1580   47.9740 C   0  0  0  0  0  0  0  0  0  0  0  0
   33.8260   25.8740   47.5480 C   0  0  0  0  0  0  0  0  0  0  0  0
   33.7250   25.5860   46.1910 C   0  0  0  0  0  0  0  0  0  0  0  0
   33.7320   26.6510   45.2980 C   0  0  0  0  0  0  0  0  0  0  0  0
   34.0100   27.4580   49.0090 H   0  0  0  0  0  0  0  0  0  0  0  0
   33.8260   25.0970   48.2980 H   0  0  0  0  0  0  0  0  0  0  0  0
   33.6460   24.5490   45.8980 H   0  0  0  0  0  0  0  0  0  0  0  0
   33.6240   26.3360   43.8440 C   0  0  0  0  0  0  0  0  0  0  0  0
   34.7340   26.0790   43.0740 C   0  0  0  0  0  0  0  0  0  0  0  0
   35.7880   26.0530   43.3220 H   0  0  0  0  0  0  0  0  0  0  0  0
   34.0080   25.7650   41.4090 S   0  0  0  0  0  0  0  0  0  0  0  0
   32.2670   26.0490   42.0800 C   0  0  0  0  0  0  0  0  0  0  0  0
   31.3000   26.0060   41.5500 H   0  0  0  0  0  0  0  0  0  0  0  0
   32.4850   26.2790   43.1920 N   0  0  0  0  0  0  0  0  0  0  0  0
  1  2  1  0  0  0  0
  2  3  2  0  0  0  0
  2  7  1  0  0  0  0
  3  4  1  0  0  0  0
  4  8  1  0  0  0  0
  4  5  2  0  0  0  0
  5  9  1  0  0  0  0
  6  5  1  0  0  0  0
  6 10  1  0  0  0  0
  7  6  2  0  0  0  0
 11 16  1  0  0  0  0
 12 13  1  0  0  0  0
 12 11  2  0  0  0  0
 13 14  2  0  0  0  0
 14 15  1  0  0  0  0
 15  3  1  0  0  0  0
 16 15  2  0  0  0  0
 17 11  1  0  0  0  0
 18 12  1  0  0  0  0
 19 13  1  0  0  0  0
 20  7  1  0  0  0  0
 21 22  1  0  0  0  0
 22 23  1  0  0  0  0
 23 20  1  0  0  0  0
 23 24  2  0  0  0  0
 24 28  1  0  0  0  0
 25 24  1  0  0  0  0
 25 29  1  0  0  0  0
 26 25  2  0  0  0  0
 27 22  2  0  0  0  0
 27 26  1  0  0  0  0
 30 26  1  0  0  0  0
 31 27  1  0  0  0  0
 32 33  1  0  0  0  0
 32 31  2  0  0  0  0
 34 35  1  0  0  0  0
 34 32  1  0  0  0  0
 35 37  2  0  0  0  0
 36 35  1  0  0  0  0
 37 31  1  0  0  0  0
M  END
>  <minimizedAffinity>
-5.60789013

>  <minimizedRMSD>
0.332333714

$$$$
