
 OpenBabel03262520283D

 18 19  0  0  0  0  0  0  0  0999 V2000
   37.9890   24.2880   38.2840 C   0  0  0  0  0  0  0  0  0  0  0  0
   38.9320   23.2970   38.5850 C   0  0  0  0  0  0  0  0  0  0  0  0
   39.6830   22.7670   37.5290 C   0  0  0  0  0  0  0  0  0  0  0  0
   39.4550   23.2430   36.2700 N   0  0  0  0  0  0  0  0  0  0  0  0
   38.5340   24.1980   36.0280 C   0  0  0  0  0  0  0  0  0  0  0  0
   37.8080   24.7160   37.0230 N   0  0  0  0  0  0  0  0  0  0  0  0
   40.6320   21.7700   37.8520 N   0  0  0  0  0  0  0  0  0  0  0  0
   37.4060   24.6990   39.1000 H   0  0  0  0  0  0  0  0  0  0  0  0
   39.0650   22.9630   39.6100 H   0  0  0  0  0  0  0  0  0  0  0  0
   40.4360   21.0710   38.5960 H   0  0  0  0  0  0  0  0  0  0  0  0
   41.5340   21.7480   37.3250 H   0  0  0  0  0  0  0  0  0  0  0  0
   38.4290   24.5850   34.6040 C   0  0  0  0  0  0  0  0  0  0  0  0
   39.1270   23.9500   33.4770 C   0  0  0  0  0  0  0  0  0  0  0  0
   39.7600   23.1400   33.7210 H   0  0  0  0  0  0  0  0  0  0  0  0
   38.5190   24.9340   32.0960 S   0  0  0  0  0  0  0  0  0  0  0  0
   37.4430   26.0270   33.2200 C   0  0  0  0  0  0  0  0  0  0  0  0
   36.8500   26.8230   32.7760 H   0  0  0  0  0  0  0  0  0  0  0  0
   37.6170   25.6160   34.3240 N   0  0  0  0  0  0  0  0  0  0  0  0
  1  2  1  0  0  0  0
  1  8  1  0  0  0  0
  2  9  1  0  0  0  0
  3  7  1  0  0  0  0
  3  2  2  0  0  0  0
  4  3  1  0  0  0  0
  5  4  2  0  0  0  0
  5  6  1  0  0  0  0
  6  1  2  0  0  0  0
  7 10  1  0  0  0  0
 11  7  1  0  0  0  0
 12  5  1  0  0  0  0
 13 14  1  0  0  0  0
 13 12  2  0  0  0  0
 15 16  1  0  0  0  0
 15 13  1  0  0  0  0
 16 18  2  0  0  0  0
 17 16  1  0  0  0  0
 18 12  1  0  0  0  0
M  END
>  <minimizedAffinity>
-4.10911036

$$$$

 OpenBabel03262520283D

 18 19  0  0  0  0  0  0  0  0999 V2000
   41.0550   22.9730   36.2710 C   0  0  0  0  0  0  0  0  0  0  0  0
   40.4730   22.6160   37.4930 C   0  0  0  0  0  0  0  0  0  0  0  0
   39.1950   23.1120   37.7790 C   0  0  0  0  0  0  0  0  0  0  0  0
   38.5900   23.9140   36.8540 N   0  0  0  0  0  0  0  0  0  0  0  0
   39.1910   24.2320   35.6890 C   0  0  0  0  0  0  0  0  0  0  0  0
   40.4110   23.7680   35.3990 N   0  0  0  0  0  0  0  0  0  0  0  0
   38.6230   22.7390   39.0170 N   0  0  0  0  0  0  0  0  0  0  0  0
   42.0450   22.5910   36.0470 H   0  0  0  0  0  0  0  0  0  0  0  0
   41.0090   21.9720   38.1860 H   0  0  0  0  0  0  0  0  0  0  0  0
   39.2130   22.6360   39.8670 H   0  0  0  0  0  0  0  0  0  0  0  0
   37.5920   22.5700   39.0610 H   0  0  0  0  0  0  0  0  0  0  0  0
   38.3820   25.1100   34.8170 C   0  0  0  0  0  0  0  0  0  0  0  0
   38.2160   24.9760   33.3620 C   0  0  0  0  0  0  0  0  0  0  0  0
   38.7280   24.1700   32.9100 H   0  0  0  0  0  0  0  0  0  0  0  0
   37.1240   26.3650   33.0090 S   0  0  0  0  0  0  0  0  0  0  0  0
   37.0590   26.9040   34.8320 C   0  0  0  0  0  0  0  0  0  0  0  0
   36.4670   27.7740   35.1080 H   0  0  0  0  0  0  0  0  0  0  0  0
   37.7430   26.1240   35.4180 N   0  0  0  0  0  0  0  0  0  0  0  0
  1  2  1  0  0  0  0
  2  3  2  0  0  0  0
  2  9  1  0  0  0  0
  3  7  1  0  0  0  0
  4  3  1  0  0  0  0
  5  4  2  0  0  0  0
  6  5  1  0  0  0  0
  6  1  2  0  0  0  0
  7 11  1  0  0  0  0
  7 10  1  0  0  0  0
  8  1  1  0  0  0  0
 12 18  1  0  0  0  0
 12  5  1  0  0  0  0
 13 12  2  0  0  0  0
 14 13  1  0  0  0  0
 15 13  1  0  0  0  0
 15 16  1  0  0  0  0
 16 17  1  0  0  0  0
 16 18  2  0  0  0  0
M  END
>  <minimizedAffinity>
-3.91279888

$$$$

 OpenBabel03262520283D

 18 19  0  0  0  0  0  0  0  0999 V2000
   38.2040   24.3140   38.5770 C   0  0  0  0  0  0  0  0  0  0  0  0
   39.1300   23.2780   38.7480 C   0  0  0  0  0  0  0  0  0  0  0  0
   39.8110   22.8150   37.6160 C   0  0  0  0  0  0  0  0  0  0  0  0
   39.5340   23.3960   36.4120 N   0  0  0  0  0  0  0  0  0  0  0  0
   38.6320   24.3920   36.2950 C   0  0  0  0  0  0  0  0  0  0  0  0
   37.9720   24.8470   37.3650 N   0  0  0  0  0  0  0  0  0  0  0  0
   40.7430   21.7700   37.8080 N   0  0  0  0  0  0  0  0  0  0  0  0
   37.6750   24.6740   39.4530 H   0  0  0  0  0  0  0  0  0  0  0  0
   39.3040   22.8590   39.7360 H   0  0  0  0  0  0  0  0  0  0  0  0
   40.5640   21.0190   38.5040 H   0  0  0  0  0  0  0  0  0  0  0  0
   41.6170   21.7670   37.2350 H   0  0  0  0  0  0  0  0  0  0  0  0
   38.4660   24.8950   34.9140 C   0  0  0  0  0  0  0  0  0  0  0  0
   37.5220   25.9310   34.4730 C   0  0  0  0  0  0  0  0  0  0  0  0
   36.9090   26.3500   35.2250 H   0  0  0  0  0  0  0  0  0  0  0  0
   37.8890   26.0060   32.7110 S   0  0  0  0  0  0  0  0  0  0  0  0
   39.2270   24.6590   32.8320 C   0  0  0  0  0  0  0  0  0  0  0  0
   39.7590   24.3570   31.9330 H   0  0  0  0  0  0  0  0  0  0  0  0
   39.2580   24.3450   33.9810 N   0  0  0  0  0  0  0  0  0  0  0  0
  1  2  1  0  0  0  0
  1  8  1  0  0  0  0
  2  9  1  0  0  0  0
  3  7  1  0  0  0  0
  3  2  2  0  0  0  0
  4  3  1  0  0  0  0
  5  4  2  0  0  0  0
  5  6  1  0  0  0  0
  6  1  2  0  0  0  0
  7 10  1  0  0  0  0
 11  7  1  0  0  0  0
 12  5  1  0  0  0  0
 13 12  2  0  0  0  0
 13 14  1  0  0  0  0
 15 16  1  0  0  0  0
 15 13  1  0  0  0  0
 16 18  2  0  0  0  0
 17 16  1  0  0  0  0
 18 12  1  0  0  0  0
M  END
>  <minimizedAffinity>
-3.88323736

$$$$

 OpenBabel03262520283D

 18 19  0  0  0  0  0  0  0  0999 V2000
   40.4590   25.9830   33.6680 C   0  0  0  0  0  0  0  0  0  0  0  0
   40.1860   26.6950   34.8420 C   0  0  0  0  0  0  0  0  0  0  0  0
   38.8480   26.9830   35.1380 C   0  0  0  0  0  0  0  0  0  0  0  0
   37.8870   26.5550   34.2670 N   0  0  0  0  0  0  0  0  0  0  0  0
   38.1980   25.8720   33.1460 C   0  0  0  0  0  0  0  0  0  0  0  0
   39.4700   25.5880   32.8480 N   0  0  0  0  0  0  0  0  0  0  0  0
   38.5920   27.7010   36.3280 N   0  0  0  0  0  0  0  0  0  0  0  0
   41.4940   25.7600   33.4370 H   0  0  0  0  0  0  0  0  0  0  0  0
   40.9990   27.0060   35.4940 H   0  0  0  0  0  0  0  0  0  0  0  0
   39.2430   28.4440   36.6520 H   0  0  0  0  0  0  0  0  0  0  0  0
   37.7330   27.4700   36.8770 H   0  0  0  0  0  0  0  0  0  0  0  0
   37.0250   25.4940   32.3280 C   0  0  0  0  0  0  0  0  0  0  0  0
   36.0990   26.4170   31.6580 C   0  0  0  0  0  0  0  0  0  0  0  0
   36.3020   27.4470   31.7790 H   0  0  0  0  0  0  0  0  0  0  0  0
   34.9590   25.2600   30.8790 S   0  0  0  0  0  0  0  0  0  0  0  0
   35.8820   23.7410   31.5600 C   0  0  0  0  0  0  0  0  0  0  0  0
   35.5140   22.7460   31.3220 H   0  0  0  0  0  0  0  0  0  0  0  0
   36.7920   24.1800   32.1920 N   0  0  0  0  0  0  0  0  0  0  0  0
  1  2  1  0  0  0  0
  2  3  2  0  0  0  0
  2  9  1  0  0  0  0
  3  7  1  0  0  0  0
  4  3  1  0  0  0  0
  5  4  2  0  0  0  0
  6  5  1  0  0  0  0
  6  1  2  0  0  0  0
  7 10  1  0  0  0  0
  7 11  1  0  0  0  0
  8  1  1  0  0  0  0
 12  5  1  0  0  0  0
 13 14  1  0  0  0  0
 13 12  2  0  0  0  0
 15 16  1  0  0  0  0
 15 13  1  0  0  0  0
 16 18  2  0  0  0  0
 17 16  1  0  0  0  0
 18 12  1  0  0  0  0
M  END
>  <minimizedAffinity>
-3.77483392

$$$$

 OpenBabel03262520283D

 18 19  0  0  0  0  0  0  0  0999 V2000
   38.0520   25.1860   36.0640 C   0  0  0  0  0  0  0  0  0  0  0  0
   38.2310   24.6440   37.3420 C   0  0  0  0  0  0  0  0  0  0  0  0
   38.4230   23.2610   37.4470 C   0  0  0  0  0  0  0  0  0  0  0  0
   38.4250   22.5200   36.3000 N   0  0  0  0  0  0  0  0  0  0  0  0
   38.2480   23.0860   35.0890 C   0  0  0  0  0  0  0  0  0  0  0  0
   38.0630   24.4040   34.9700 N   0  0  0  0  0  0  0  0  0  0  0  0
   38.6040   22.7330   38.7450 N   0  0  0  0  0  0  0  0  0  0  0  0
   37.9030   26.2560   35.9810 H   0  0  0  0  0  0  0  0  0  0  0  0
   38.2190   25.2910   38.2160 H   0  0  0  0  0  0  0  0  0  0  0  0
   38.0890   23.1290   39.5570 H   0  0  0  0  0  0  0  0  0  0  0  0
   39.2650   21.9340   38.8740 H   0  0  0  0  0  0  0  0  0  0  0  0
   38.2810   22.1240   33.9650 C   0  0  0  0  0  0  0  0  0  0  0  0
   39.4840   21.6040   33.3010 C   0  0  0  0  0  0  0  0  0  0  0  0
   40.4080   21.9590   33.6720 H   0  0  0  0  0  0  0  0  0  0  0  0
   38.7540   20.5150   32.0660 S   0  0  0  0  0  0  0  0  0  0  0  0
   36.9780   20.9170   32.6190 C   0  0  0  0  0  0  0  0  0  0  0  0
   36.1440   20.4440   32.1060 H   0  0  0  0  0  0  0  0  0  0  0  0
   37.0930   21.6910   33.5160 N   0  0  0  0  0  0  0  0  0  0  0  0
  1  2  1  0  0  0  0
  2  3  2  0  0  0  0
  2  9  1  0  0  0  0
  3  7  1  0  0  0  0
  4  3  1  0  0  0  0
  5  4  2  0  0  0  0
  6  5  1  0  0  0  0
  6  1  2  0  0  0  0
  7 11  1  0  0  0  0
  7 10  1  0  0  0  0
  8  1  1  0  0  0  0
 12  5  1  0  0  0  0
 13 14  1  0  0  0  0
 13 12  2  0  0  0  0
 15 16  1  0  0  0  0
 15 13  1  0  0  0  0
 16 18  2  0  0  0  0
 17 16  1  0  0  0  0
 18 12  1  0  0  0  0
M  END
>  <minimizedAffinity>
-3.6613512

$$$$

 OpenBabel03262520283D

 18 19  0  0  0  0  0  0  0  0999 V2000
   37.6200   27.7060   35.2490 C   0  0  0  0  0  0  0  0  0  0  0  0
   37.1080   27.3770   33.9880 C   0  0  0  0  0  0  0  0  0  0  0  0
   37.2220   26.0480   33.5610 C   0  0  0  0  0  0  0  0  0  0  0  0
   37.8250   25.1510   34.3950 N   0  0  0  0  0  0  0  0  0  0  0  0
   38.3050   25.5150   35.6020 C   0  0  0  0  0  0  0  0  0  0  0  0
   38.2040   26.7780   36.0260 N   0  0  0  0  0  0  0  0  0  0  0  0
   36.6980   25.7340   32.2860 N   0  0  0  0  0  0  0  0  0  0  0  0
   37.5330   28.7340   35.5800 H   0  0  0  0  0  0  0  0  0  0  0  0
   36.6390   28.1400   33.3730 H   0  0  0  0  0  0  0  0  0  0  0  0
   36.7620   26.4140   31.5030 H   0  0  0  0  0  0  0  0  0  0  0  0
   36.2450   24.8030   32.1470 H   0  0  0  0  0  0  0  0  0  0  0  0
   38.9230   24.4060   36.3620 C   0  0  0  0  0  0  0  0  0  0  0  0
   40.0690   23.5920   35.9330 C   0  0  0  0  0  0  0  0  0  0  0  0
   40.4820   23.8330   34.9910 H   0  0  0  0  0  0  0  0  0  0  0  0
   40.2450   22.4760   37.3370 S   0  0  0  0  0  0  0  0  0  0  0  0
   38.7800   23.2570   38.2660 C   0  0  0  0  0  0  0  0  0  0  0  0
   38.5010   22.8660   39.2420 H   0  0  0  0  0  0  0  0  0  0  0  0
   38.3780   24.1240   37.5550 N   0  0  0  0  0  0  0  0  0  0  0  0
  1  8  1  0  0  0  0
  1  6  1  0  0  0  0
  2  1  2  0  0  0  0
  3  2  1  0  0  0  0
  3  4  2  0  0  0  0
  4  5  1  0  0  0  0
  5  6  2  0  0  0  0
  5 12  1  0  0  0  0
  7  3  1  0  0  0  0
  9  2  1  0  0  0  0
 10  7  1  0  0  0  0
 11  7  1  0  0  0  0
 12 18  1  0  0  0  0
 13 12  2  0  0  0  0
 13 15  1  0  0  0  0
 14 13  1  0  0  0  0
 15 16  1  0  0  0  0
 16 17  1  0  0  0  0
 18 16  2  0  0  0  0
M  END
>  <minimizedAffinity>
-3.62271452

$$$$

 OpenBabel03262520283D

 18 19  0  0  0  0  0  0  0  0999 V2000
   37.4890   24.6430   32.7100 C   0  0  0  0  0  0  0  0  0  0  0  0
   36.6920   25.4340   31.8730 C   0  0  0  0  0  0  0  0  0  0  0  0
   35.6930   24.7970   31.1260 C   0  0  0  0  0  0  0  0  0  0  0  0
   35.5530   23.4450   31.2540 N   0  0  0  0  0  0  0  0  0  0  0  0
   36.3460   22.7240   32.0730 C   0  0  0  0  0  0  0  0  0  0  0  0
   37.3040   23.3140   32.7930 N   0  0  0  0  0  0  0  0  0  0  0  0
   34.8980   25.6120   30.2890 N   0  0  0  0  0  0  0  0  0  0  0  0
   38.2630   25.1340   33.2880 H   0  0  0  0  0  0  0  0  0  0  0  0
   36.8560   26.5070   31.8180 H   0  0  0  0  0  0  0  0  0  0  0  0
   35.3090   26.4290   29.7950 H   0  0  0  0  0  0  0  0  0  0  0  0
   33.8860   25.3760   30.1750 H   0  0  0  0  0  0  0  0  0  0  0  0
   36.0440   21.2760   32.0780 C   0  0  0  0  0  0  0  0  0  0  0  0
   35.4830   20.5090   33.2000 C   0  0  0  0  0  0  0  0  0  0  0  0
   35.2790   21.0560   34.0800 H   0  0  0  0  0  0  0  0  0  0  0  0
   35.3990   18.8580   32.4820 S   0  0  0  0  0  0  0  0  0  0  0  0
   36.1170   19.4380   30.8180 C   0  0  0  0  0  0  0  0  0  0  0  0
   36.2540   18.7140   30.0190 H   0  0  0  0  0  0  0  0  0  0  0  0
   36.3120   20.6060   30.9470 N   0  0  0  0  0  0  0  0  0  0  0  0
  1  6  1  0  0  0  0
  1  8  1  0  0  0  0
  2  1  2  0  0  0  0
  3  4  2  0  0  0  0
  3  2  1  0  0  0  0
  4  5  1  0  0  0  0
  5 12  1  0  0  0  0
  5  6  2  0  0  0  0
  7  3  1  0  0  0  0
  9  2  1  0  0  0  0
 10  7  1  0  0  0  0
 11  7  1  0  0  0  0
 12 13  2  0  0  0  0
 13 14  1  0  0  0  0
 15 13  1  0  0  0  0
 16 18  2  0  0  0  0
 16 15  1  0  0  0  0
 17 16  1  0  0  0  0
 18 12  1  0  0  0  0
M  END
>  <minimizedAffinity>
-3.58571506

$$$$

 OpenBabel03262520283D

 18 19  0  0  0  0  0  0  0  0999 V2000
   35.4500   19.7860   33.3320 C   0  0  0  0  0  0  0  0  0  0  0  0
   35.6450   18.9630   32.2170 C   0  0  0  0  0  0  0  0  0  0  0  0
   36.0580   19.5650   31.0220 C   0  0  0  0  0  0  0  0  0  0  0  0
   36.2440   20.9170   31.0110 N   0  0  0  0  0  0  0  0  0  0  0  0
   36.0430   21.6710   32.1110 C   0  0  0  0  0  0  0  0  0  0  0  0
   35.6490   21.1140   33.2600 N   0  0  0  0  0  0  0  0  0  0  0  0
   36.2510   18.7170   29.9080 N   0  0  0  0  0  0  0  0  0  0  0  0
   35.1300   19.3220   34.2580 H   0  0  0  0  0  0  0  0  0  0  0  0
   35.4790   17.8910   32.2940 H   0  0  0  0  0  0  0  0  0  0  0  0
   35.6350   17.8950   29.7510 H   0  0  0  0  0  0  0  0  0  0  0  0
   37.0280   18.9340   29.2430 H   0  0  0  0  0  0  0  0  0  0  0  0
   36.2950   23.1140   31.9050 C   0  0  0  0  0  0  0  0  0  0  0  0
   37.4760   23.8630   32.3570 C   0  0  0  0  0  0  0  0  0  0  0  0
   38.2080   23.3050   32.8770 H   0  0  0  0  0  0  0  0  0  0  0  0
   37.0870   25.5170   31.7590 S   0  0  0  0  0  0  0  0  0  0  0  0
   35.4290   24.9620   31.0090 C   0  0  0  0  0  0  0  0  0  0  0  0
   34.8030   25.6940   30.5040 H   0  0  0  0  0  0  0  0  0  0  0  0
   35.3500   23.7960   31.2420 N   0  0  0  0  0  0  0  0  0  0  0  0
  1  8  1  0  0  0  0
  2  9  1  0  0  0  0
  2  1  2  0  0  0  0
  3  2  1  0  0  0  0
  4  3  2  0  0  0  0
  4  5  1  0  0  0  0
  5  6  2  0  0  0  0
  6  1  1  0  0  0  0
  7  3  1  0  0  0  0
 10  7  1  0  0  0  0
 11  7  1  0  0  0  0
 12  5  1  0  0  0  0
 12 13  2  0  0  0  0
 13 14  1  0  0  0  0
 15 13  1  0  0  0  0
 16 18  2  0  0  0  0
 16 15  1  0  0  0  0
 17 16  1  0  0  0  0
 18 12  1  0  0  0  0
M  END
>  <minimizedAffinity>
-3.55152822

$$$$

 OpenBabel03262520283D

 18 19  0  0  0  0  0  0  0  0999 V2000
   38.6850   24.5170   34.9460 C   0  0  0  0  0  0  0  0  0  0  0  0
   39.1440   24.1420   36.2140 C   0  0  0  0  0  0  0  0  0  0  0  0
   38.8870   22.8340   36.6430 C   0  0  0  0  0  0  0  0  0  0  0  0
   38.2040   22.0010   35.8040 N   0  0  0  0  0  0  0  0  0  0  0  0
   37.7810   22.4070   34.5900 C   0  0  0  0  0  0  0  0  0  0  0  0
   38.0170   23.6520   34.1640 N   0  0  0  0  0  0  0  0  0  0  0  0
   39.3590   22.4740   37.9260 N   0  0  0  0  0  0  0  0  0  0  0  0
   38.8820   25.5300   34.6120 H   0  0  0  0  0  0  0  0  0  0  0  0
   39.6820   24.8560   36.8330 H   0  0  0  0  0  0  0  0  0  0  0  0
   39.3560   23.1600   38.7070 H   0  0  0  0  0  0  0  0  0  0  0  0
   39.7110   21.5010   38.0740 H   0  0  0  0  0  0  0  0  0  0  0  0
   37.0600   21.3660   33.8260 C   0  0  0  0  0  0  0  0  0  0  0  0
   35.7870   20.7360   34.2020 C   0  0  0  0  0  0  0  0  0  0  0  0
   35.3550   21.0690   35.1070 H   0  0  0  0  0  0  0  0  0  0  0  0
   35.5420   19.6000   32.8260 S   0  0  0  0  0  0  0  0  0  0  0  0
   37.1570   20.1330   31.9710 C   0  0  0  0  0  0  0  0  0  0  0  0
   37.4370   19.6680   31.0290 H   0  0  0  0  0  0  0  0  0  0  0  0
   37.6320   20.9630   32.6810 N   0  0  0  0  0  0  0  0  0  0  0  0
  1  2  1  0  0  0  0
  2  3  2  0  0  0  0
  2  9  1  0  0  0  0
  3  7  1  0  0  0  0
  4  3  1  0  0  0  0
  5  4  2  0  0  0  0
  6  5  1  0  0  0  0
  6  1  2  0  0  0  0
  7 11  1  0  0  0  0
  7 10  1  0  0  0  0
  8  1  1  0  0  0  0
 12 13  2  0  0  0  0
 12  5  1  0  0  0  0
 13 14  1  0  0  0  0
 15 13  1  0  0  0  0
 16 18  2  0  0  0  0
 16 15  1  0  0  0  0
 17 16  1  0  0  0  0
 18 12  1  0  0  0  0
M  END
>  <minimizedAffinity>
-3.50225925

$$$$
