
 OpenBabel03272510063D

 28 30  0  0  0  0  0  0  0  0999 V2000
   36.5340   31.1400   49.0010 C   0  0  0  0  0  0  0  0  0  0  0  0
   37.2010   31.4680   47.8180 C   0  0  0  0  0  0  0  0  0  0  0  0
   36.7790   30.8530   46.6400 C   0  0  0  0  0  0  0  0  0  0  0  0
   35.7450   29.9690   46.6950 N   0  0  0  0  0  0  0  0  0  0  0  0
   35.1270   29.6810   47.8680 C   0  0  0  0  0  0  0  0  0  0  0  0
   35.5070   30.2530   49.0110 N   0  0  0  0  0  0  0  0  0  0  0  0
   34.0430   28.7320   47.8350 N   0  0  0  0  0  0  0  0  0  0  0  0
   32.8290   28.9090   47.0740 C   0  0  0  0  0  0  0  0  0  0  0  0
   32.1470   27.5820   47.1430 C   0  0  0  0  0  0  0  0  0  0  0  0
   33.1310   26.6150   47.7610 C   0  0  0  0  0  0  0  0  0  0  0  0
   34.0450   27.4670   48.5720 C   0  0  0  0  0  0  0  0  0  0  0  0
   36.8440   31.6060   49.9310 H   0  0  0  0  0  0  0  0  0  0  0  0
   37.2490   31.0610   45.6880 H   0  0  0  0  0  0  0  0  0  0  0  0
   32.2100   29.6580   47.6150 H   0  0  0  0  0  0  0  0  0  0  0  0
   33.0130   29.1800   46.0210 H   0  0  0  0  0  0  0  0  0  0  0  0
   31.2380   27.6290   47.7580 H   0  0  0  0  0  0  0  0  0  0  0  0
   31.8600   27.2320   46.1140 H   0  0  0  0  0  0  0  0  0  0  0  0
   33.7030   26.1300   46.9460 H   0  0  0  0  0  0  0  0  0  0  0  0
   32.6220   25.8970   48.4180 H   0  0  0  0  0  0  0  0  0  0  0  0
   33.7110   27.6150   49.6140 H   0  0  0  0  0  0  0  0  0  0  0  0
   35.0910   27.1020   48.5530 H   0  0  0  0  0  0  0  0  0  0  0  0
   38.3140   32.4310   47.8080 C   0  0  0  0  0  0  0  0  0  0  0  0
   38.5480   33.2930   48.9060 C   0  0  0  0  0  0  0  0  0  0  0  0
   37.9680   33.3700   49.8710 H   0  0  0  0  0  0  0  0  0  0  0  0
   40.0150   34.2540   48.3800 S   0  0  0  0  0  0  0  0  0  0  0  0
   40.0680   33.3100   46.7320 C   0  0  0  0  0  0  0  0  0  0  0  0
   40.7670   33.3650   45.8140 H   0  0  0  0  0  0  0  0  0  0  0  0
   39.1930   32.6030   46.8240 N   0  0  0  0  0  0  0  0  0  0  0  0
  1  6  1  0  0  0  0
  1 12  1  0  0  0  0
  2  1  2  0  0  0  0
  3  4  2  0  0  0  0
  3  2  1  0  0  0  0
  4  5  1  0  0  0  0
  5  6  2  0  0  0  0
  7  5  1  0  0  0  0
  7 11  1  0  0  0  0
  8  9  1  0  0  0  0
  8 14  1  0  0  0  0
  8  7  1  0  0  0  0
  9 16  1  0  0  0  0
  9 10  1  0  0  0  0
 10 19  1  0  0  0  0
 10 11  1  0  0  0  0
 11 20  1  0  0  0  0
 13  3  1  0  0  0  0
 15  8  1  0  0  0  0
 17  9  1  0  0  0  0
 18 10  1  0  0  0  0
 21 11  1  0  0  0  0
 22  2  1  0  0  0  0
 22 23  2  0  0  0  0
 23 24  1  0  0  0  0
 25 23  1  0  0  0  0
 26 28  2  0  0  0  0
 26 25  1  0  0  0  0
 27 26  1  0  0  0  0
 28 22  1  0  0  0  0
M  END
>  <minimizedAffinity>
-3.77035594

>  <minimizedRMSD>
2.62868309

$$$$
