
 OpenBabel03272507113D

 25 27  0  0  0  0  0  0  0  0999 V2000
   38.0010   25.4770   35.9880 C   0  0  0  0  0  0  0  0  0  0  0  0
   38.4490   26.6990   36.3740 C   0  0  0  0  0  0  0  0  0  0  0  0
   38.1030   27.6200   35.4000 C   0  0  0  0  0  0  0  0  0  0  0  0
   37.4400   26.8820   34.4390 C   0  0  0  0  0  0  0  0  0  0  0  0
   37.4040   25.6410   34.8230 O   0  0  0  0  0  0  0  0  0  0  0  0
   38.9890   26.9460   37.2850 H   0  0  0  0  0  0  0  0  0  0  0  0
   38.3330   28.6630   35.4490 H   0  0  0  0  0  0  0  0  0  0  0  0
   36.9110   27.4980   33.2350 C   0  0  0  0  0  0  0  0  0  0  0  0
   37.5990   27.1160   32.0090 C   0  0  0  0  0  0  0  0  0  0  0  0
   38.4390   26.4740   31.6920 H   0  0  0  0  0  0  0  0  0  0  0  0
   36.6840   28.0710   30.6540 S   0  0  0  0  0  0  0  0  0  0  0  0
   35.5600   28.7910   32.0030 C   0  0  0  0  0  0  0  0  0  0  0  0
   34.5820   29.5610   32.2290 H   0  0  0  0  0  0  0  0  0  0  0  0
   35.9400   28.3350   32.9670 N   0  0  0  0  0  0  0  0  0  0  0  0
   38.1860   24.2720   36.7660 C   0  0  0  0  0  0  0  0  0  0  0  0
   37.3390   23.9600   37.6230 O   0  0  0  0  0  0  0  0  0  0  0  0
   39.3710   23.4840   36.4930 C   0  0  0  0  0  0  0  0  0  0  0  0
   39.9030   22.7550   37.5580 C   0  0  0  0  0  0  0  0  0  0  0  0
   41.0430   21.9890   37.3240 C   0  0  0  0  0  0  0  0  0  0  0  0
   41.5780   21.9880   36.0710 N   0  0  0  0  0  0  0  0  0  0  0  0
   41.0490   22.6980   35.0580 C   0  0  0  0  0  0  0  0  0  0  0  0
   39.9440   23.4440   35.2760 N   0  0  0  0  0  0  0  0  0  0  0  0
   39.4720   22.7610   38.5470 H   0  0  0  0  0  0  0  0  0  0  0  0
   41.4630   21.4220   38.1350 H   0  0  0  0  0  0  0  0  0  0  0  0
   41.4880   22.6860   34.0660 H   0  0  0  0  0  0  0  0  0  0  0  0
  1  2  2  0  0  0  0
  1 15  1  0  0  0  0
  2  6  1  0  0  0  0
  3  7  1  0  0  0  0
  3  2  1  0  0  0  0
  4  5  1  0  0  0  0
  4  3  2  0  0  0  0
  5  1  1  0  0  0  0
  8  4  1  0  0  0  0
  9  8  2  0  0  0  0
 10  9  1  0  0  0  0
 11 12  1  0  0  0  0
 11  9  1  0  0  0  0
 12 13  1  0  0  0  0
 12 14  2  0  0  0  0
 14  8  1  0  0  0  0
 15 16  2  0  0  0  0
 17 15  1  0  0  0  0
 17 18  1  0  0  0  0
 18 23  1  0  0  0  0
 19 18  2  0  0  0  0
 19 24  1  0  0  0  0
 20 19  1  0  0  0  0
 21 22  1  0  0  0  0
 21 20  2  0  0  0  0
 22 17  2  0  0  0  0
 25 21  1  0  0  0  0
M  END
>  <minimizedAffinity>
-4.79076242

$$$$

 OpenBabel03272507113D

 25 27  0  0  0  0  0  0  0  0999 V2000
   36.3780   26.0560   31.9240 C   0  0  0  0  0  0  0  0  0  0  0  0
   35.3780   26.0050   31.0060 C   0  0  0  0  0  0  0  0  0  0  0  0
   35.0260   24.6800   30.8150 C   0  0  0  0  0  0  0  0  0  0  0  0
   35.8610   23.9700   31.6560 C   0  0  0  0  0  0  0  0  0  0  0  0
   36.6300   24.8110   32.2810 O   0  0  0  0  0  0  0  0  0  0  0  0
   34.9120   26.8430   30.4920 H   0  0  0  0  0  0  0  0  0  0  0  0
   34.2620   24.3520   30.1430 H   0  0  0  0  0  0  0  0  0  0  0  0
   35.8010   22.5220   31.7450 C   0  0  0  0  0  0  0  0  0  0  0  0
   36.8850   21.8290   31.0620 C   0  0  0  0  0  0  0  0  0  0  0  0
   37.7820   22.0710   30.4660 H   0  0  0  0  0  0  0  0  0  0  0  0
   36.5200   19.9960   31.3640 S   0  0  0  0  0  0  0  0  0  0  0  0
   34.9860   20.5250   32.3490 C   0  0  0  0  0  0  0  0  0  0  0  0
   33.9920   20.1110   33.0140 H   0  0  0  0  0  0  0  0  0  0  0  0
   34.9920   21.6570   32.3050 N   0  0  0  0  0  0  0  0  0  0  0  0
   36.9960   27.2850   32.3700 C   0  0  0  0  0  0  0  0  0  0  0  0
   36.6970   28.3580   31.8150 O   0  0  0  0  0  0  0  0  0  0  0  0
   37.9460   27.1900   33.4590 C   0  0  0  0  0  0  0  0  0  0  0  0
   37.4370   27.3060   34.7530 C   0  0  0  0  0  0  0  0  0  0  0  0
   38.3280   27.2190   35.8200 C   0  0  0  0  0  0  0  0  0  0  0  0
   39.6490   27.0250   35.5480 N   0  0  0  0  0  0  0  0  0  0  0  0
   40.1190   26.9150   34.2920 C   0  0  0  0  0  0  0  0  0  0  0  0
   39.2620   26.9980   33.2510 N   0  0  0  0  0  0  0  0  0  0  0  0
   36.3890   27.4600   34.9600 H   0  0  0  0  0  0  0  0  0  0  0  0
   37.9490   27.3060   36.8230 H   0  0  0  0  0  0  0  0  0  0  0  0
   41.1750   26.7600   34.0930 H   0  0  0  0  0  0  0  0  0  0  0  0
  1  5  1  0  0  0  0
  1 15  1  0  0  0  0
  2  1  2  0  0  0  0
  3  2  1  0  0  0  0
  3  4  2  0  0  0  0
  4  8  1  0  0  0  0
  4  5  1  0  0  0  0
  6  2  1  0  0  0  0
  7  3  1  0  0  0  0
  8 14  1  0  0  0  0
  9 11  1  0  0  0  0
  9  8  2  0  0  0  0
 10  9  1  0  0  0  0
 11 12  1  0  0  0  0
 12 13  1  0  0  0  0
 14 12  2  0  0  0  0
 15 17  1  0  0  0  0
 16 15  2  0  0  0  0
 17 18  1  0  0  0  0
 18 23  1  0  0  0  0
 18 19  2  0  0  0  0
 19 24  1  0  0  0  0
 20 19  1  0  0  0  0
 21 20  2  0  0  0  0
 22 17  2  0  0  0  0
 22 21  1  0  0  0  0
 25 21  1  0  0  0  0
M  END
>  <minimizedAffinity>
-4.69907713

$$$$

 OpenBabel03272507113D

 25 27  0  0  0  0  0  0  0  0999 V2000
   37.1490   26.4510   33.5620 C   0  0  0  0  0  0  0  0  0  0  0  0
   37.4800   27.4730   34.3930 C   0  0  0  0  0  0  0  0  0  0  0  0
   37.9890   26.9380   35.5630 C   0  0  0  0  0  0  0  0  0  0  0  0
   37.9400   25.5700   35.3750 C   0  0  0  0  0  0  0  0  0  0  0  0
   37.4450   25.3330   34.1970 O   0  0  0  0  0  0  0  0  0  0  0  0
   37.3750   28.5390   34.2020 H   0  0  0  0  0  0  0  0  0  0  0  0
   38.3290   27.5210   36.3930 H   0  0  0  0  0  0  0  0  0  0  0  0
   38.3950   24.6430   36.3960 C   0  0  0  0  0  0  0  0  0  0  0  0
   39.5290   23.8190   36.0010 C   0  0  0  0  0  0  0  0  0  0  0  0
   40.1850   23.6710   35.1250 H   0  0  0  0  0  0  0  0  0  0  0  0
   39.8670   22.7450   37.5220 S   0  0  0  0  0  0  0  0  0  0  0  0
   38.4180   23.6160   38.3850 C   0  0  0  0  0  0  0  0  0  0  0  0
   37.7440   23.6850   39.4540 H   0  0  0  0  0  0  0  0  0  0  0  0
   38.0300   24.3540   37.6200 N   0  0  0  0  0  0  0  0  0  0  0  0
   36.5840   26.6390   32.2440 C   0  0  0  0  0  0  0  0  0  0  0  0
   36.4760   25.6640   31.4790 O   0  0  0  0  0  0  0  0  0  0  0  0
   36.1670   27.9800   31.8880 C   0  0  0  0  0  0  0  0  0  0  0  0
   36.9870   28.6820   31.0040 C   0  0  0  0  0  0  0  0  0  0  0  0
   36.6100   29.9750   30.6440 C   0  0  0  0  0  0  0  0  0  0  0  0
   35.4630   30.4860   31.1720 N   0  0  0  0  0  0  0  0  0  0  0  0
   34.6860   29.7910   32.0230 C   0  0  0  0  0  0  0  0  0  0  0  0
   35.0440   28.5380   32.3770 N   0  0  0  0  0  0  0  0  0  0  0  0
   37.8940   28.2690   30.5910 H   0  0  0  0  0  0  0  0  0  0  0  0
   37.2330   30.5270   29.9640 H   0  0  0  0  0  0  0  0  0  0  0  0
   33.7750   30.2140   32.4340 H   0  0  0  0  0  0  0  0  0  0  0  0
  1  5  1  0  0  0  0
  1  2  2  0  0  0  0
  2  3  1  0  0  0  0
  3  7  1  0  0  0  0
  4  3  2  0  0  0  0
  4  8  1  0  0  0  0
  5  4  1  0  0  0  0
  6  2  1  0  0  0  0
  8 14  1  0  0  0  0
  9  8  2  0  0  0  0
  9 11  1  0  0  0  0
 10  9  1  0  0  0  0
 11 12  1  0  0  0  0
 12 13  1  0  0  0  0
 14 12  2  0  0  0  0
 15  1  1  0  0  0  0
 16 15  2  0  0  0  0
 17 15  1  0  0  0  0
 17 22  1  0  0  0  0
 18 17  2  0  0  0  0
 19 18  1  0  0  0  0
 19 20  2  0  0  0  0
 20 21  1  0  0  0  0
 21 22  2  0  0  0  0
 21 25  1  0  0  0  0
 23 18  1  0  0  0  0
 24 19  1  0  0  0  0
M  END
>  <minimizedAffinity>
-4.61504173

$$$$

 OpenBabel03272507113D

 25 27  0  0  0  0  0  0  0  0999 V2000
   36.5260   24.0480   31.9670 C   0  0  0  0  0  0  0  0  0  0  0  0
   35.3280   24.0390   31.3270 C   0  0  0  0  0  0  0  0  0  0  0  0
   35.0600   25.3230   30.8830 C   0  0  0  0  0  0  0  0  0  0  0  0
   36.1470   26.0700   31.2920 C   0  0  0  0  0  0  0  0  0  0  0  0
   36.9750   25.2880   31.9180 O   0  0  0  0  0  0  0  0  0  0  0  0
   34.6690   23.1880   31.1730 H   0  0  0  0  0  0  0  0  0  0  0  0
   34.1790   25.6010   30.3450 H   0  0  0  0  0  0  0  0  0  0  0  0
   36.2440   27.4920   31.0110 C   0  0  0  0  0  0  0  0  0  0  0  0
   35.5840   28.3460   31.9890 C   0  0  0  0  0  0  0  0  0  0  0  0
   35.0040   28.2480   32.9230 H   0  0  0  0  0  0  0  0  0  0  0  0
   35.8910   30.1000   31.3460 S   0  0  0  0  0  0  0  0  0  0  0  0
   36.8440   29.3370   29.8930 C   0  0  0  0  0  0  0  0  0  0  0  0
   37.4940   29.5900   28.8370 H   0  0  0  0  0  0  0  0  0  0  0  0
   36.7940   28.2200   30.0720 N   0  0  0  0  0  0  0  0  0  0  0  0
   37.1250   22.8750   32.5640 C   0  0  0  0  0  0  0  0  0  0  0  0
   38.0560   23.0090   33.3780 O   0  0  0  0  0  0  0  0  0  0  0  0
   36.5930   21.5860   32.1690 C   0  0  0  0  0  0  0  0  0  0  0  0
   35.7850   20.9260   33.0960 C   0  0  0  0  0  0  0  0  0  0  0  0
   35.2600   19.6850   32.7420 C   0  0  0  0  0  0  0  0  0  0  0  0
   35.5610   19.1790   31.5130 N   0  0  0  0  0  0  0  0  0  0  0  0
   36.3430   19.8330   30.6350 C   0  0  0  0  0  0  0  0  0  0  0  0
   36.8560   21.0370   30.9690 N   0  0  0  0  0  0  0  0  0  0  0  0
   35.5520   21.3340   34.0670 H   0  0  0  0  0  0  0  0  0  0  0  0
   34.6360   19.1650   33.4470 H   0  0  0  0  0  0  0  0  0  0  0  0
   36.5720   19.4160   29.6590 H   0  0  0  0  0  0  0  0  0  0  0  0
  1 15  1  0  0  0  0
  2  1  2  0  0  0  0
  3  4  2  0  0  0  0
  3  2  1  0  0  0  0
  4  5  1  0  0  0  0
  5  1  1  0  0  0  0
  6  2  1  0  0  0  0
  7  3  1  0  0  0  0
  8  4  1  0  0  0  0
  8  9  2  0  0  0  0
  9 10  1  0  0  0  0
 11  9  1  0  0  0  0
 12 14  2  0  0  0  0
 12 11  1  0  0  0  0
 13 12  1  0  0  0  0
 14  8  1  0  0  0  0
 15 16  2  0  0  0  0
 17 15  1  0  0  0  0
 17 18  1  0  0  0  0
 18 23  1  0  0  0  0
 19 18  2  0  0  0  0
 19 24  1  0  0  0  0
 20 19  1  0  0  0  0
 21 22  1  0  0  0  0
 21 20  2  0  0  0  0
 22 17  2  0  0  0  0
 25 21  1  0  0  0  0
M  END
>  <minimizedAffinity>
-4.5180335

$$$$

 OpenBabel03272507113D

 25 27  0  0  0  0  0  0  0  0999 V2000
   38.2280   24.9640   34.0590 C   0  0  0  0  0  0  0  0  0  0  0  0
   39.3760   25.6690   33.8930 C   0  0  0  0  0  0  0  0  0  0  0  0
   39.0640   26.8810   33.3010 C   0  0  0  0  0  0  0  0  0  0  0  0
   37.6930   26.8470   33.1340 C   0  0  0  0  0  0  0  0  0  0  0  0
   37.2490   25.7130   33.5890 O   0  0  0  0  0  0  0  0  0  0  0  0
   40.3840   25.3630   34.1660 H   0  0  0  0  0  0  0  0  0  0  0  0
   39.7820   27.6340   33.0560 H   0  0  0  0  0  0  0  0  0  0  0  0
   36.9700   27.9550   32.5350 C   0  0  0  0  0  0  0  0  0  0  0  0
   37.4670   28.3640   31.2280 C   0  0  0  0  0  0  0  0  0  0  0  0
   38.2610   28.0830   30.5140 H   0  0  0  0  0  0  0  0  0  0  0  0
   36.3330   29.7970   30.7350 S   0  0  0  0  0  0  0  0  0  0  0  0
   35.4180   29.5610   32.3800 C   0  0  0  0  0  0  0  0  0  0  0  0
   34.4690   29.9830   33.1040 H   0  0  0  0  0  0  0  0  0  0  0  0
   35.9520   28.7000   32.8850 N   0  0  0  0  0  0  0  0  0  0  0  0
   38.1750   23.6440   34.6490 C   0  0  0  0  0  0  0  0  0  0  0  0
   37.8590   22.6690   33.9430 O   0  0  0  0  0  0  0  0  0  0  0  0
   38.5010   23.5350   36.0560 C   0  0  0  0  0  0  0  0  0  0  0  0
   37.6280   24.1460   36.9560 C   0  0  0  0  0  0  0  0  0  0  0  0
   37.9170   24.0570   38.3160 C   0  0  0  0  0  0  0  0  0  0  0  0
   39.0360   23.3790   38.6980 N   0  0  0  0  0  0  0  0  0  0  0  0
   39.8650   22.7960   37.8130 C   0  0  0  0  0  0  0  0  0  0  0  0
   39.5920   22.8780   36.4930 N   0  0  0  0  0  0  0  0  0  0  0  0
   36.7440   24.6820   36.6450 H   0  0  0  0  0  0  0  0  0  0  0  0
   37.2520   24.5240   39.0210 H   0  0  0  0  0  0  0  0  0  0  0  0
   40.7510   22.2590   38.1350 H   0  0  0  0  0  0  0  0  0  0  0  0
  1 15  1  0  0  0  0
  2  1  2  0  0  0  0
  2  6  1  0  0  0  0
  3  2  1  0  0  0  0
  4  3  2  0  0  0  0
  4  5  1  0  0  0  0
  5  1  1  0  0  0  0
  7  3  1  0  0  0  0
  8 14  1  0  0  0  0
  8  4  1  0  0  0  0
  9  8  2  0  0  0  0
 10  9  1  0  0  0  0
 11  9  1  0  0  0  0
 11 12  1  0  0  0  0
 12 14  2  0  0  0  0
 12 13  1  0  0  0  0
 15 17  1  0  0  0  0
 16 15  2  0  0  0  0
 17 22  2  0  0  0  0
 17 18  1  0  0  0  0
 18 19  2  0  0  0  0
 19 20  1  0  0  0  0
 19 24  1  0  0  0  0
 21 25  1  0  0  0  0
 21 20  2  0  0  0  0
 22 21  1  0  0  0  0
 23 18  1  0  0  0  0
M  END
>  <minimizedAffinity>
-4.49576664

$$$$

 OpenBabel03272507113D

 25 27  0  0  0  0  0  0  0  0999 V2000
   37.1920   26.0000   33.4010 C   0  0  0  0  0  0  0  0  0  0  0  0
   37.2500   27.0430   34.2680 C   0  0  0  0  0  0  0  0  0  0  0  0
   37.7550   26.5840   35.4720 C   0  0  0  0  0  0  0  0  0  0  0  0
   37.9860   25.2380   35.2660 C   0  0  0  0  0  0  0  0  0  0  0  0
   37.6440   24.9420   34.0470 O   0  0  0  0  0  0  0  0  0  0  0  0
   36.9570   28.0740   34.0800 H   0  0  0  0  0  0  0  0  0  0  0  0
   37.9070   27.1980   36.3340 H   0  0  0  0  0  0  0  0  0  0  0  0
   38.5260   24.3880   36.3120 C   0  0  0  0  0  0  0  0  0  0  0  0
   39.7380   23.6700   35.9410 C   0  0  0  0  0  0  0  0  0  0  0  0
   40.4080   23.5630   35.0710 H   0  0  0  0  0  0  0  0  0  0  0  0
   40.1740   22.6740   37.4910 S   0  0  0  0  0  0  0  0  0  0  0  0
   38.6430   23.4210   38.3280 C   0  0  0  0  0  0  0  0  0  0  0  0
   37.9600   23.4510   39.3930 H   0  0  0  0  0  0  0  0  0  0  0  0
   38.1860   24.0960   37.5430 N   0  0  0  0  0  0  0  0  0  0  0  0
   36.7110   26.1120   32.0420 C   0  0  0  0  0  0  0  0  0  0  0  0
   35.8000   25.3590   31.6500 O   0  0  0  0  0  0  0  0  0  0  0  0
   37.3310   27.1160   31.2010 C   0  0  0  0  0  0  0  0  0  0  0  0
   36.4920   28.0880   30.6560 C   0  0  0  0  0  0  0  0  0  0  0  0
   37.0610   29.0660   29.8420 C   0  0  0  0  0  0  0  0  0  0  0  0
   38.4050   29.0230   29.6220 N   0  0  0  0  0  0  0  0  0  0  0  0
   39.1960   28.0770   30.1580 C   0  0  0  0  0  0  0  0  0  0  0  0
   38.6520   27.1250   30.9470 N   0  0  0  0  0  0  0  0  0  0  0  0
   35.4280   28.1140   30.8360 H   0  0  0  0  0  0  0  0  0  0  0  0
   36.4260   29.8210   29.4160 H   0  0  0  0  0  0  0  0  0  0  0  0
   40.2650   28.0580   29.9720 H   0  0  0  0  0  0  0  0  0  0  0  0
  1  5  1  0  0  0  0
  1  2  2  0  0  0  0
  2  3  1  0  0  0  0
  3  7  1  0  0  0  0
  4  3  2  0  0  0  0
  4  8  1  0  0  0  0
  5  4  1  0  0  0  0
  6  2  1  0  0  0  0
  8 14  1  0  0  0  0
  9  8  2  0  0  0  0
  9 11  1  0  0  0  0
 10  9  1  0  0  0  0
 11 12  1  0  0  0  0
 12 13  1  0  0  0  0
 14 12  2  0  0  0  0
 15  1  1  0  0  0  0
 16 15  2  0  0  0  0
 17 15  1  0  0  0  0
 18 23  1  0  0  0  0
 18 17  2  0  0  0  0
 19 18  1  0  0  0  0
 20 19  2  0  0  0  0
 20 21  1  0  0  0  0
 21 22  2  0  0  0  0
 22 17  1  0  0  0  0
 24 19  1  0  0  0  0
 25 21  1  0  0  0  0
M  END
>  <minimizedAffinity>
-4.4710784

$$$$

 OpenBabel03272507113D

 25 27  0  0  0  0  0  0  0  0999 V2000
   38.4260   25.5560   35.6520 C   0  0  0  0  0  0  0  0  0  0  0  0
   37.7720   24.8700   36.6240 C   0  0  0  0  0  0  0  0  0  0  0  0
   38.5140   23.7450   36.9410 C   0  0  0  0  0  0  0  0  0  0  0  0
   39.6190   23.8090   36.1150 C   0  0  0  0  0  0  0  0  0  0  0  0
   39.5260   24.8790   35.3820 O   0  0  0  0  0  0  0  0  0  0  0  0
   36.8270   25.1320   37.0940 H   0  0  0  0  0  0  0  0  0  0  0  0
   38.2300   23.0250   37.6790 H   0  0  0  0  0  0  0  0  0  0  0  0
   40.6540   22.7910   36.1460 C   0  0  0  0  0  0  0  0  0  0  0  0
   40.8980   22.2180   37.4620 C   0  0  0  0  0  0  0  0  0  0  0  0
   40.5250   22.3190   38.4960 H   0  0  0  0  0  0  0  0  0  0  0  0
   42.2730   20.9510   37.1630 S   0  0  0  0  0  0  0  0  0  0  0  0
   42.2470   21.4440   35.3310 C   0  0  0  0  0  0  0  0  0  0  0  0
   42.7630   21.2280   34.1960 H   0  0  0  0  0  0  0  0  0  0  0  0
   41.4470   22.2420   35.2590 N   0  0  0  0  0  0  0  0  0  0  0  0
   37.9390   26.7880   35.0730 C   0  0  0  0  0  0  0  0  0  0  0  0
   38.1270   27.8630   35.6720 O   0  0  0  0  0  0  0  0  0  0  0  0
   37.2480   26.6950   33.8030 C   0  0  0  0  0  0  0  0  0  0  0  0
   36.6550   27.8620   33.3200 C   0  0  0  0  0  0  0  0  0  0  0  0
   35.9830   27.8020   32.1010 C   0  0  0  0  0  0  0  0  0  0  0  0
   35.9410   26.6090   31.4420 N   0  0  0  0  0  0  0  0  0  0  0  0
   36.5200   25.4960   31.9260 C   0  0  0  0  0  0  0  0  0  0  0  0
   37.1730   25.5450   33.1080 N   0  0  0  0  0  0  0  0  0  0  0  0
   36.6940   28.8030   33.8480 H   0  0  0  0  0  0  0  0  0  0  0  0
   35.5220   28.6940   31.7170 H   0  0  0  0  0  0  0  0  0  0  0  0
   36.4770   24.5540   31.3890 H   0  0  0  0  0  0  0  0  0  0  0  0
  1  2  2  0  0  0  0
  2  3  1  0  0  0  0
  2  6  1  0  0  0  0
  3  7  1  0  0  0  0
  4  8  1  0  0  0  0
  4  3  2  0  0  0  0
  5  1  1  0  0  0  0
  5  4  1  0  0  0  0
  8  9  2  0  0  0  0
  9 10  1  0  0  0  0
 11  9  1  0  0  0  0
 12 11  1  0  0  0  0
 13 12  1  0  0  0  0
 14 12  2  0  0  0  0
 14  8  1  0  0  0  0
 15  1  1  0  0  0  0
 15 16  2  0  0  0  0
 17 15  1  0  0  0  0
 18 17  1  0  0  0  0
 18 23  1  0  0  0  0
 19 18  2  0  0  0  0
 20 21  2  0  0  0  0
 20 19  1  0  0  0  0
 21 22  1  0  0  0  0
 22 17  2  0  0  0  0
 24 19  1  0  0  0  0
 25 21  1  0  0  0  0
M  END
>  <minimizedAffinity>
-4.45670223

$$$$

 OpenBabel03272507113D

 25 27  0  0  0  0  0  0  0  0999 V2000
   37.5650   23.6650   32.6750 C   0  0  0  0  0  0  0  0  0  0  0  0
   37.6110   24.9890   32.9730 C   0  0  0  0  0  0  0  0  0  0  0  0
   38.0360   25.1290   34.2830 C   0  0  0  0  0  0  0  0  0  0  0  0
   38.2320   23.8360   34.7280 C   0  0  0  0  0  0  0  0  0  0  0  0
   37.9460   23.0170   33.7600 O   0  0  0  0  0  0  0  0  0  0  0  0
   37.3640   25.8220   32.3180 H   0  0  0  0  0  0  0  0  0  0  0  0
   38.1630   26.0680   34.7770 H   0  0  0  0  0  0  0  0  0  0  0  0
   38.6860   23.5550   36.0780 C   0  0  0  0  0  0  0  0  0  0  0  0
   37.7970   24.0360   37.1270 C   0  0  0  0  0  0  0  0  0  0  0  0
   36.8380   24.5750   37.2220 H   0  0  0  0  0  0  0  0  0  0  0  0
   38.6590   23.5200   38.7310 S   0  0  0  0  0  0  0  0  0  0  0  0
   40.0410   22.7610   37.6750 C   0  0  0  0  0  0  0  0  0  0  0  0
   41.1420   22.1390   37.7080 H   0  0  0  0  0  0  0  0  0  0  0  0
   39.7260   22.9580   36.6050 N   0  0  0  0  0  0  0  0  0  0  0  0
   37.1600   23.1460   31.3870 C   0  0  0  0  0  0  0  0  0  0  0  0
   37.3580   23.8250   30.3630 O   0  0  0  0  0  0  0  0  0  0  0  0
   36.5380   21.8380   31.3670 C   0  0  0  0  0  0  0  0  0  0  0  0
   35.3520   21.6920   32.0880 C   0  0  0  0  0  0  0  0  0  0  0  0
   34.7320   20.4440   32.0860 C   0  0  0  0  0  0  0  0  0  0  0  0
   35.3130   19.4320   31.3810 N   0  0  0  0  0  0  0  0  0  0  0  0
   36.4560   19.5950   30.6920 C   0  0  0  0  0  0  0  0  0  0  0  0
   37.0640   20.8010   30.6890 N   0  0  0  0  0  0  0  0  0  0  0  0
   34.8990   22.4990   32.6430 H   0  0  0  0  0  0  0  0  0  0  0  0
   33.8180   20.3180   32.6370 H   0  0  0  0  0  0  0  0  0  0  0  0
   36.9050   18.7790   30.1360 H   0  0  0  0  0  0  0  0  0  0  0  0
  1  2  2  0  0  0  0
  1  5  1  0  0  0  0
  2  3  1  0  0  0  0
  3  4  2  0  0  0  0
  3  7  1  0  0  0  0
  4  8  1  0  0  0  0
  5  4  1  0  0  0  0
  6  2  1  0  0  0  0
  8 14  1  0  0  0  0
  8  9  2  0  0  0  0
  9 10  1  0  0  0  0
  9 11  1  0  0  0  0
 12 13  1  0  0  0  0
 12 11  1  0  0  0  0
 14 12  2  0  0  0  0
 15  1  1  0  0  0  0
 16 15  2  0  0  0  0
 17 15  1  0  0  0  0
 17 18  1  0  0  0  0
 18 23  1  0  0  0  0
 19 18  2  0  0  0  0
 19 24  1  0  0  0  0
 20 19  1  0  0  0  0
 21 20  2  0  0  0  0
 22 21  1  0  0  0  0
 22 17  2  0  0  0  0
 25 21  1  0  0  0  0
M  END
>  <minimizedAffinity>
-4.4515295

$$$$

 OpenBabel03272507113D

 25 27  0  0  0  0  0  0  0  0999 V2000
   38.2600   24.6340   35.2250 C   0  0  0  0  0  0  0  0  0  0  0  0
   38.5680   25.4990   36.2250 C   0  0  0  0  0  0  0  0  0  0  0  0
   38.0790   26.7500   35.8880 C   0  0  0  0  0  0  0  0  0  0  0  0
   37.4790   26.5720   34.6560 C   0  0  0  0  0  0  0  0  0  0  0  0
   37.6080   25.3260   34.3090 O   0  0  0  0  0  0  0  0  0  0  0  0
   39.1040   25.2800   37.1450 H   0  0  0  0  0  0  0  0  0  0  0  0
   38.1820   27.6210   36.4990 H   0  0  0  0  0  0  0  0  0  0  0  0
   36.8390   27.6700   33.9540 C   0  0  0  0  0  0  0  0  0  0  0  0
   37.2080   27.7870   32.5500 C   0  0  0  0  0  0  0  0  0  0  0  0
   37.8550   27.2780   31.8150 H   0  0  0  0  0  0  0  0  0  0  0  0
   36.2210   29.2820   31.9390 S   0  0  0  0  0  0  0  0  0  0  0  0
   35.5090   29.4530   33.6900 C   0  0  0  0  0  0  0  0  0  0  0  0
   34.7310   30.1250   34.4280 H   0  0  0  0  0  0  0  0  0  0  0  0
   35.9850   28.6100   34.2770 N   0  0  0  0  0  0  0  0  0  0  0  0
   38.6170   23.2330   35.2370 C   0  0  0  0  0  0  0  0  0  0  0  0
   39.7990   22.9040   35.4480 O   0  0  0  0  0  0  0  0  0  0  0  0
   37.5550   22.2770   35.0000 C   0  0  0  0  0  0  0  0  0  0  0  0
   37.3050   21.9260   33.6730 C   0  0  0  0  0  0  0  0  0  0  0  0
   36.2890   21.0090   33.4160 C   0  0  0  0  0  0  0  0  0  0  0  0
   35.5910   20.5010   34.4720 N   0  0  0  0  0  0  0  0  0  0  0  0
   35.8490   20.8530   35.7440 C   0  0  0  0  0  0  0  0  0  0  0  0
   36.8330   21.7420   36.0020 N   0  0  0  0  0  0  0  0  0  0  0  0
   37.8620   22.3340   32.8430 H   0  0  0  0  0  0  0  0  0  0  0  0
   36.0860   20.7300   32.3980 H   0  0  0  0  0  0  0  0  0  0  0  0
   35.2840   20.4380   36.5730 H   0  0  0  0  0  0  0  0  0  0  0  0
  1 15  1  0  0  0  0
  1  2  2  0  0  0  0
  2  6  1  0  0  0  0
  3  2  1  0  0  0  0
  3  7  1  0  0  0  0
  4  3  2  0  0  0  0
  5  4  1  0  0  0  0
  5  1  1  0  0  0  0
  8 14  1  0  0  0  0
  8  4  1  0  0  0  0
  9  8  2  0  0  0  0
 10  9  1  0  0  0  0
 11  9  1  0  0  0  0
 11 12  1  0  0  0  0
 12 14  2  0  0  0  0
 12 13  1  0  0  0  0
 15 16  2  0  0  0  0
 17 15  1  0  0  0  0
 17 22  1  0  0  0  0
 18 17  2  0  0  0  0
 19 18  1  0  0  0  0
 19 20  2  0  0  0  0
 20 21  1  0  0  0  0
 21 22  2  0  0  0  0
 21 25  1  0  0  0  0
 23 18  1  0  0  0  0
 24 19  1  0  0  0  0
M  END
>  <minimizedAffinity>
-4.41725397

$$$$
