
 OpenBabel03272501093D

 38 41  0  0  1  0  0  0  0  0999 V2000
   39.3730   25.9230   33.2150 C   0  0  2  0  0  0  0  0  0  0  0  0
   39.6580   26.2510   34.7170 C   0  0  2  0  0  0  0  0  0  0  0  0
   41.0430   26.6840   34.6400 C   0  0  0  0  0  0  0  0  0  0  0  0
   41.2000   27.3910   33.4570 O   0  0  0  0  0  0  0  0  0  0  0  0
   40.1450   27.1370   32.6450 C   0  0  0  0  0  0  0  0  0  0  0  0
   39.9320   25.0620   32.8720 H   0  0  0  0  0  0  0  0  0  0  0  0
   38.9800   27.1160   34.9380 H   0  0  0  0  0  0  0  0  0  0  0  0
   41.3150   27.3020   35.5210 H   0  0  0  0  0  0  0  0  0  0  0  0
   41.7520   25.8360   34.6130 H   0  0  0  0  0  0  0  0  0  0  0  0
   39.4210   27.9770   32.6810 H   0  0  0  0  0  0  0  0  0  0  0  0
   40.4110   26.9510   31.5880 H   0  0  0  0  0  0  0  0  0  0  0  0
   37.8590   24.1030   37.2280 C   0  0  0  0  0  0  0  0  0  0  0  0
   38.1380   25.2090   36.3800 C   0  0  0  0  0  0  0  0  0  0  0  0
   39.3170   25.1530   35.5930 C   0  0  0  0  0  0  0  0  0  0  0  0
   40.1260   24.0490   35.6820 N   0  0  0  0  0  0  0  0  0  0  0  0
   39.8240   23.0300   36.4940 C   0  0  0  0  0  0  0  0  0  0  0  0
   38.6980   23.0460   37.2690 N   0  0  0  0  0  0  0  0  0  0  0  0
   36.9840   24.0640   37.8610 H   0  0  0  0  0  0  0  0  0  0  0  0
   37.4430   26.0300   36.3810 H   0  0  0  0  0  0  0  0  0  0  0  0
   40.5450   22.2160   36.4740 H   0  0  0  0  0  0  0  0  0  0  0  0
   38.0520   26.0490   32.9110 O   0  0  0  0  0  0  0  0  0  0  0  0
   38.1090   22.9550   32.9670 Cl  0  0  0  0  0  0  0  0  0  0  0  0
   36.9110   23.9210   32.1650 C   0  0  0  0  0  0  0  0  0  0  0  0
   37.1200   25.2870   32.2930 C   0  0  0  0  0  0  0  0  0  0  0  0
   36.1750   26.0770   31.6560 C   0  0  0  0  0  0  0  0  0  0  0  0
   35.1030   25.5520   30.9450 C   0  0  0  0  0  0  0  0  0  0  0  0
   34.9630   24.1960   30.8640 C   0  0  0  0  0  0  0  0  0  0  0  0
   35.8680   23.3870   31.4760 C   0  0  0  0  0  0  0  0  0  0  0  0
   36.1620   27.1670   31.6380 H   0  0  0  0  0  0  0  0  0  0  0  0
   34.3530   26.1460   30.4400 H   0  0  0  0  0  0  0  0  0  0  0  0
   34.1480   23.7490   30.3250 H   0  0  0  0  0  0  0  0  0  0  0  0
   35.8400   21.9240   31.4680 C   0  0  0  0  0  0  0  0  0  0  0  0
   35.0160   21.3100   32.4850 C   0  0  0  0  0  0  0  0  0  0  0  0
   34.3390   21.6790   33.3460 H   0  0  0  0  0  0  0  0  0  0  0  0
   35.1880   19.4520   32.2160 S   0  0  0  0  0  0  0  0  0  0  0  0
   36.3480   19.8480   30.7710 C   0  0  0  0  0  0  0  0  0  0  0  0
   37.0810   19.3910   29.8410 H   0  0  0  0  0  0  0  0  0  0  0  0
   36.3860   20.9640   30.7560 N   0  0  0  0  0  0  0  0  0  0  0  0
  1  6  1  6  0  0  0
  1  2  1  0  0  0  0
  2  7  1  1  0  0  0
  2 14  1  0  0  0  0
  3  2  1  0  0  0  0
  3  8  1  0  0  0  0
  4  3  1  0  0  0  0
  5 10  1  0  0  0  0
  5  1  1  0  0  0  0
  5  4  1  0  0  0  0
  9  3  1  0  0  0  0
 11  5  1  0  0  0  0
 12 17  1  0  0  0  0
 12 18  1  0  0  0  0
 13 19  1  0  0  0  0
 13 12  2  0  0  0  0
 14 15  2  0  0  0  0
 14 13  1  0  0  0  0
 15 16  1  0  0  0  0
 16 17  2  0  0  0  0
 20 16  1  0  0  0  0
 21  1  1  0  0  0  0
 23 24  1  0  0  0  0
 23 22  1  0  0  0  0
 24 21  1  0  0  0  0
 25 24  2  0  0  0  0
 26 25  1  0  0  0  0
 27 26  2  0  0  0  0
 27 28  1  0  0  0  0
 28 23  2  0  0  0  0
 29 25  1  0  0  0  0
 30 26  1  0  0  0  0
 31 27  1  0  0  0  0
 32 28  1  0  0  0  0
 32 33  2  0  0  0  0
 33 34  1  0  0  0  0
 35 33  1  0  0  0  0
 36 35  1  0  0  0  0
 37 36  1  0  0  0  0
 38 36  2  0  0  0  0
 38 32  1  0  0  0  0
M  END
>  <minimizedAffinity>
-5.61001587

$$$$

 OpenBabel03272501093D

 38 41  0  0  1  0  0  0  0  0999 V2000
   37.3690   25.1950   30.7150 C   0  0  2  0  0  0  0  0  0  0  0  0
   36.2590   25.8970   31.5620 C   0  0  2  0  0  0  0  0  0  0  0  0
   35.0740   25.2030   31.0840 C   0  0  0  0  0  0  0  0  0  0  0  0
   35.4210   23.8770   30.8660 O   0  0  0  0  0  0  0  0  0  0  0  0
   36.7720   23.7720   30.8320 C   0  0  0  0  0  0  0  0  0  0  0  0
   37.2920   25.4340   29.6630 H   0  0  0  0  0  0  0  0  0  0  0  0
   36.4970   25.6020   32.6180 H   0  0  0  0  0  0  0  0  0  0  0  0
   34.2420   25.2900   31.8130 H   0  0  0  0  0  0  0  0  0  0  0  0
   34.7040   25.6080   30.1250 H   0  0  0  0  0  0  0  0  0  0  0  0
   37.1520   23.3810   31.7980 H   0  0  0  0  0  0  0  0  0  0  0  0
   37.1630   23.1310   30.0200 H   0  0  0  0  0  0  0  0  0  0  0  0
   36.0900   29.5590   32.4130 C   0  0  0  0  0  0  0  0  0  0  0  0
   36.0270   28.1480   32.5820 C   0  0  0  0  0  0  0  0  0  0  0  0
   36.3150   27.3370   31.4550 C   0  0  0  0  0  0  0  0  0  0  0  0
   36.6390   27.9400   30.2660 N   0  0  0  0  0  0  0  0  0  0  0  0
   36.6880   29.2710   30.1520 C   0  0  0  0  0  0  0  0  0  0  0  0
   36.4160   30.0880   31.2140 N   0  0  0  0  0  0  0  0  0  0  0  0
   35.8850   30.2490   33.2190 H   0  0  0  0  0  0  0  0  0  0  0  0
   35.7610   27.7700   33.5540 H   0  0  0  0  0  0  0  0  0  0  0  0
   36.9550   29.6240   29.1590 H   0  0  0  0  0  0  0  0  0  0  0  0
   38.5780   25.2260   31.3390 O   0  0  0  0  0  0  0  0  0  0  0  0
   38.0560   23.3240   33.7230 Cl  0  0  0  0  0  0  0  0  0  0  0  0
   38.9310   24.8200   33.8090 C   0  0  0  0  0  0  0  0  0  0  0  0
   39.0190   25.4830   32.5920 C   0  0  0  0  0  0  0  0  0  0  0  0
   39.7110   26.6840   32.6390 C   0  0  0  0  0  0  0  0  0  0  0  0
   40.2740   27.1890   33.8050 C   0  0  0  0  0  0  0  0  0  0  0  0
   40.1470   26.4790   34.9640 C   0  0  0  0  0  0  0  0  0  0  0  0
   39.4750   25.2960   34.9590 C   0  0  0  0  0  0  0  0  0  0  0  0
   39.8900   27.3500   31.7960 H   0  0  0  0  0  0  0  0  0  0  0  0
   40.8180   28.1210   33.8680 H   0  0  0  0  0  0  0  0  0  0  0  0
   40.5670   26.8330   35.8870 H   0  0  0  0  0  0  0  0  0  0  0  0
   39.2620   24.4370   36.1240 C   0  0  0  0  0  0  0  0  0  0  0  0
   38.0970   24.7450   36.9230 C   0  0  0  0  0  0  0  0  0  0  0  0
   37.2450   25.5250   36.8890 H   0  0  0  0  0  0  0  0  0  0  0  0
   38.1000   23.4850   38.3250 S   0  0  0  0  0  0  0  0  0  0  0  0
   39.6840   22.7680   37.5700 C   0  0  0  0  0  0  0  0  0  0  0  0
   40.5980   21.8920   37.6540 H   0  0  0  0  0  0  0  0  0  0  0  0
   39.8680   23.4100   36.6750 N   0  0  0  0  0  0  0  0  0  0  0  0
  1  6  1  6  0  0  0
  1  5  1  0  0  0  0
  1 21  1  0  0  0  0
  1  2  1  0  0  0  0
  2  7  1  1  0  0  0
  3  2  1  0  0  0  0
  3  8  1  0  0  0  0
  4  3  1  0  0  0  0
  5  4  1  0  0  0  0
  5 10  1  0  0  0  0
  9  3  1  0  0  0  0
 11  5  1  0  0  0  0
 12 13  1  0  0  0  0
 12 18  1  0  0  0  0
 13 19  1  0  0  0  0
 14  2  1  0  0  0  0
 14 13  2  0  0  0  0
 15 14  1  0  0  0  0
 16 15  2  0  0  0  0
 16 17  1  0  0  0  0
 17 12  2  0  0  0  0
 20 16  1  0  0  0  0
 21 24  1  0  0  0  0
 22 23  1  0  0  0  0
 23 28  1  0  0  0  0
 24 25  1  0  0  0  0
 24 23  2  0  0  0  0
 25 26  2  0  0  0  0
 26 30  1  0  0  0  0
 26 27  1  0  0  0  0
 27 31  1  0  0  0  0
 28 27  2  0  0  0  0
 28 32  1  0  0  0  0
 29 25  1  0  0  0  0
 32 38  1  0  0  0  0
 32 33  2  0  0  0  0
 33 35  1  0  0  0  0
 34 33  1  0  0  0  0
 36 37  1  0  0  0  0
 36 35  1  0  0  0  0
 38 36  2  0  0  0  0
M  END
>  <minimizedAffinity>
-5.46007395

$$$$

 OpenBabel03272501093D

 38 41  0  0  1  0  0  0  0  0999 V2000
   38.5620   27.1530   33.4820 C   0  0  2  0  0  0  0  0  0  0  0  0
   39.2250   26.4220   34.6950 C   0  0  2  0  0  0  0  0  0  0  0  0
   38.7740   27.2610   35.7940 C   0  0  0  0  0  0  0  0  0  0  0  0
   37.4790   27.6690   35.5100 O   0  0  0  0  0  0  0  0  0  0  0  0
   37.2220   27.4500   34.1980 C   0  0  0  0  0  0  0  0  0  0  0  0
   38.9960   28.1280   33.3060 H   0  0  0  0  0  0  0  0  0  0  0  0
   38.7160   25.4230   34.7200 H   0  0  0  0  0  0  0  0  0  0  0  0
   38.8260   26.7130   36.7570 H   0  0  0  0  0  0  0  0  0  0  0  0
   39.3880   28.1730   35.9110 H   0  0  0  0  0  0  0  0  0  0  0  0
   36.6200   26.5270   34.0720 H   0  0  0  0  0  0  0  0  0  0  0  0
   36.6980   28.2790   33.6870 H   0  0  0  0  0  0  0  0  0  0  0  0
   42.8140   26.9610   33.7020 C   0  0  0  0  0  0  0  0  0  0  0  0
   41.4250   27.2190   33.8680 C   0  0  0  0  0  0  0  0  0  0  0  0
   40.6430   26.2220   34.5060 C   0  0  0  0  0  0  0  0  0  0  0  0
   41.2520   25.0670   34.9290 N   0  0  0  0  0  0  0  0  0  0  0  0
   42.5610   24.8670   34.7530 C   0  0  0  0  0  0  0  0  0  0  0  0
   43.3500   25.8020   34.1430 N   0  0  0  0  0  0  0  0  0  0  0  0
   43.4810   27.6650   33.2280 H   0  0  0  0  0  0  0  0  0  0  0  0
   41.0410   28.1530   33.5000 H   0  0  0  0  0  0  0  0  0  0  0  0
   42.9210   23.9130   35.1310 H   0  0  0  0  0  0  0  0  0  0  0  0
   38.3350   26.3040   32.4420 O   0  0  0  0  0  0  0  0  0  0  0  0
   38.3750   23.2940   33.1570 Cl  0  0  0  0  0  0  0  0  0  0  0  0
   37.1200   24.0950   32.2660 C   0  0  0  0  0  0  0  0  0  0  0  0
   37.3490   25.4520   32.0800 C   0  0  0  0  0  0  0  0  0  0  0  0
   36.3590   26.1110   31.3660 C   0  0  0  0  0  0  0  0  0  0  0  0
   35.2270   25.4730   30.8740 C   0  0  0  0  0  0  0  0  0  0  0  0
   35.0710   24.1350   31.0980 C   0  0  0  0  0  0  0  0  0  0  0  0
   36.0190   23.4530   31.7940 C   0  0  0  0  0  0  0  0  0  0  0  0
   36.3520   27.1720   31.1160 H   0  0  0  0  0  0  0  0  0  0  0  0
   34.4420   25.9640   30.3160 H   0  0  0  0  0  0  0  0  0  0  0  0
   34.2100   23.6030   30.7360 H   0  0  0  0  0  0  0  0  0  0  0  0
   35.9800   22.0230   32.1030 C   0  0  0  0  0  0  0  0  0  0  0  0
   36.4690   21.1460   31.0630 C   0  0  0  0  0  0  0  0  0  0  0  0
   36.9060   21.2740   30.0000 H   0  0  0  0  0  0  0  0  0  0  0  0
   36.2910   19.4000   31.7520 S   0  0  0  0  0  0  0  0  0  0  0  0
   35.5830   20.1810   33.3280 C   0  0  0  0  0  0  0  0  0  0  0  0
   35.1090   19.9860   34.4880 H   0  0  0  0  0  0  0  0  0  0  0  0
   35.6030   21.2770   33.1160 N   0  0  0  0  0  0  0  0  0  0  0  0
  1  6  1  6  0  0  0
  1  5  1  0  0  0  0
  1  2  1  0  0  0  0
  2  7  1  1  0  0  0
  2  3  1  0  0  0  0
  3  9  1  0  0  0  0
  3  8  1  0  0  0  0
  4  3  1  0  0  0  0
  5  4  1  0  0  0  0
 10  5  1  0  0  0  0
 11  5  1  0  0  0  0
 12 13  2  0  0  0  0
 12 17  1  0  0  0  0
 13 14  1  0  0  0  0
 14  2  1  0  0  0  0
 14 15  2  0  0  0  0
 16 15  1  0  0  0  0
 16 20  1  0  0  0  0
 17 16  2  0  0  0  0
 18 12  1  0  0  0  0
 19 13  1  0  0  0  0
 21  1  1  0  0  0  0
 23 22  1  0  0  0  0
 24 23  1  0  0  0  0
 24 21  1  0  0  0  0
 25 24  2  0  0  0  0
 26 27  2  0  0  0  0
 26 25  1  0  0  0  0
 27 28  1  0  0  0  0
 28 32  1  0  0  0  0
 28 23  2  0  0  0  0
 29 25  1  0  0  0  0
 30 26  1  0  0  0  0
 31 27  1  0  0  0  0
 32 38  1  0  0  0  0
 33 35  1  0  0  0  0
 33 32  2  0  0  0  0
 34 33  1  0  0  0  0
 35 36  1  0  0  0  0
 36 37  1  0  0  0  0
 38 36  2  0  0  0  0
M  END
>  <minimizedAffinity>
-5.4267807

$$$$

 OpenBabel03272501093D

 38 41  0  0  1  0  0  0  0  0999 V2000
   39.0170   24.1630   35.9800 C   0  0  2  0  0  0  0  0  0  0  0  0
   39.4870   22.9180   36.8010 C   0  0  2  0  0  0  0  0  0  0  0  0
   38.9930   23.2640   38.1230 C   0  0  0  0  0  0  0  0  0  0  0  0
   37.7730   23.9050   37.9640 O   0  0  0  0  0  0  0  0  0  0  0  0
   37.6380   24.2900   36.6720 C   0  0  0  0  0  0  0  0  0  0  0  0
   39.5470   25.0620   36.2650 H   0  0  0  0  0  0  0  0  0  0  0  0
   38.8980   22.0690   36.3640 H   0  0  0  0  0  0  0  0  0  0  0  0
   38.8970   22.3610   38.7600 H   0  0  0  0  0  0  0  0  0  0  0  0
   39.6640   23.9630   38.6560 H   0  0  0  0  0  0  0  0  0  0  0  0
   36.9800   23.5840   36.1260 H   0  0  0  0  0  0  0  0  0  0  0  0
   37.2420   25.3130   36.5340 H   0  0  0  0  0  0  0  0  0  0  0  0
   42.8350   21.2030   36.8670 C   0  0  0  0  0  0  0  0  0  0  0  0
   41.4410   21.4080   37.0540 C   0  0  0  0  0  0  0  0  0  0  0  0
   40.8960   22.6470   36.6300 C   0  0  0  0  0  0  0  0  0  0  0  0
   41.7270   23.5820   36.0650 N   0  0  0  0  0  0  0  0  0  0  0  0
   43.0330   23.3460   35.9090 C   0  0  0  0  0  0  0  0  0  0  0  0
   43.5970   22.1650   36.3040 N   0  0  0  0  0  0  0  0  0  0  0  0
   43.3310   20.2890   37.1620 H   0  0  0  0  0  0  0  0  0  0  0  0
   40.8730   20.6150   37.5080 H   0  0  0  0  0  0  0  0  0  0  0  0
   43.5820   24.1650   35.4500 H   0  0  0  0  0  0  0  0  0  0  0  0
   38.8330   23.8630   34.6650 O   0  0  0  0  0  0  0  0  0  0  0  0
   38.2900   26.8460   34.0470 Cl  0  0  0  0  0  0  0  0  0  0  0  0
   37.5810   25.5030   33.2060 C   0  0  0  0  0  0  0  0  0  0  0  0
   37.9940   24.2670   33.6840 C   0  0  0  0  0  0  0  0  0  0  0  0
   37.4360   23.1800   33.0280 C   0  0  0  0  0  0  0  0  0  0  0  0
   36.5380   23.3090   31.9750 C   0  0  0  0  0  0  0  0  0  0  0  0
   36.1810   24.5600   31.5590 C   0  0  0  0  0  0  0  0  0  0  0  0
   36.7060   25.6520   32.1770 C   0  0  0  0  0  0  0  0  0  0  0  0
   37.6300   22.1310   33.2510 H   0  0  0  0  0  0  0  0  0  0  0  0
   36.0900   22.4790   31.4470 H   0  0  0  0  0  0  0  0  0  0  0  0
   35.4900   24.7050   30.7480 H   0  0  0  0  0  0  0  0  0  0  0  0
   36.4100   27.0430   31.8370 C   0  0  0  0  0  0  0  0  0  0  0  0
   37.1300   27.5750   30.7020 C   0  0  0  0  0  0  0  0  0  0  0  0
   37.9160   27.1800   29.9520 H   0  0  0  0  0  0  0  0  0  0  0  0
   36.5410   29.3570   30.5220 S   0  0  0  0  0  0  0  0  0  0  0  0
   35.4220   29.0540   32.0220 C   0  0  0  0  0  0  0  0  0  0  0  0
   34.5620   29.5370   32.8200 H   0  0  0  0  0  0  0  0  0  0  0  0
   35.6310   27.9930   32.3010 N   0  0  0  0  0  0  0  0  0  0  0  0
  1  6  1  1  0  0  0
  1  5  1  0  0  0  0
  1  2  1  0  0  0  0
  2  7  1  6  0  0  0
  2  3  1  0  0  0  0
  3  9  1  0  0  0  0
  3  8  1  0  0  0  0
  4  3  1  0  0  0  0
  5  4  1  0  0  0  0
 10  5  1  0  0  0  0
 11  5  1  0  0  0  0
 12 13  1  0  0  0  0
 12 18  1  0  0  0  0
 13 19  1  0  0  0  0
 14  2  1  0  0  0  0
 14 13  2  0  0  0  0
 15 14  1  0  0  0  0
 16 15  2  0  0  0  0
 16 17  1  0  0  0  0
 17 12  2  0  0  0  0
 20 16  1  0  0  0  0
 21  1  1  0  0  0  0
 23 24  1  0  0  0  0
 23 22  1  0  0  0  0
 24 21  1  0  0  0  0
 25 29  1  0  0  0  0
 25 24  2  0  0  0  0
 26 25  1  0  0  0  0
 27 26  2  0  0  0  0
 27 28  1  0  0  0  0
 28 23  2  0  0  0  0
 30 26  1  0  0  0  0
 31 27  1  0  0  0  0
 32 28  1  0  0  0  0
 32 38  1  0  0  0  0
 33 32  2  0  0  0  0
 34 33  1  0  0  0  0
 35 33  1  0  0  0  0
 35 36  1  0  0  0  0
 36 38  2  0  0  0  0
 36 37  1  0  0  0  0
M  END
>  <minimizedAffinity>
-5.42553663

$$$$

 OpenBabel03272501093D

 38 41  0  0  1  0  0  0  0  0999 V2000
   39.3280   23.7430   33.2760 C   0  0  2  0  0  0  0  0  0  0  0  0
   40.1170   24.5210   34.3790 C   0  0  2  0  0  0  0  0  0  0  0  0
   41.4270   24.6200   33.7550 C   0  0  0  0  0  0  0  0  0  0  0  0
   41.2340   24.8160   32.3960 O   0  0  0  0  0  0  0  0  0  0  0  0
   39.9540   24.5020   32.0800 C   0  0  0  0  0  0  0  0  0  0  0  0
   39.6790   22.7260   33.1640 H   0  0  0  0  0  0  0  0  0  0  0  0
   39.6150   25.5220   34.4160 H   0  0  0  0  0  0  0  0  0  0  0  0
   42.0180   25.4440   34.2050 H   0  0  0  0  0  0  0  0  0  0  0  0
   42.0230   23.6960   33.8740 H   0  0  0  0  0  0  0  0  0  0  0  0
   39.3450   25.4230   31.9760 H   0  0  0  0  0  0  0  0  0  0  0  0
   39.8410   23.9050   31.1560 H   0  0  0  0  0  0  0  0  0  0  0  0
   40.8650   22.4370   37.4220 C   0  0  0  0  0  0  0  0  0  0  0  0
   41.0330   23.0320   36.1410 C   0  0  0  0  0  0  0  0  0  0  0  0
   40.0070   23.8940   35.6770 C   0  0  0  0  0  0  0  0  0  0  0  0
   38.9110   24.1140   36.4720 N   0  0  0  0  0  0  0  0  0  0  0  0
   38.7940   23.5340   37.6700 C   0  0  0  0  0  0  0  0  0  0  0  0
   39.7610   22.6970   38.1540 N   0  0  0  0  0  0  0  0  0  0  0  0
   41.5970   21.7690   37.8510 H   0  0  0  0  0  0  0  0  0  0  0  0
   41.9270   22.7950   35.5910 H   0  0  0  0  0  0  0  0  0  0  0  0
   37.8800   23.7890   38.2010 H   0  0  0  0  0  0  0  0  0  0  0  0
   37.9940   24.0080   33.3250 O   0  0  0  0  0  0  0  0  0  0  0  0
   37.8200   27.0960   33.4170 Cl  0  0  0  0  0  0  0  0  0  0  0  0
   36.8340   26.0660   32.4280 C   0  0  0  0  0  0  0  0  0  0  0  0
   37.1150   24.7150   32.5790 C   0  0  0  0  0  0  0  0  0  0  0  0
   36.3350   23.8740   31.8000 C   0  0  0  0  0  0  0  0  0  0  0  0
   35.3500   24.3370   30.9360 C   0  0  0  0  0  0  0  0  0  0  0  0
   35.1320   25.6820   30.8400 C   0  0  0  0  0  0  0  0  0  0  0  0
   35.8770   26.5400   31.5880 C   0  0  0  0  0  0  0  0  0  0  0  0
   36.4000   22.7860   31.7730 H   0  0  0  0  0  0  0  0  0  0  0  0
   34.7290   23.7030   30.3180 H   0  0  0  0  0  0  0  0  0  0  0  0
   34.3810   26.0830   30.1840 H   0  0  0  0  0  0  0  0  0  0  0  0
   35.7480   27.9970   31.5860 C   0  0  0  0  0  0  0  0  0  0  0  0
   36.4900   28.6890   30.5570 C   0  0  0  0  0  0  0  0  0  0  0  0
   37.1940   28.3880   29.6900 H   0  0  0  0  0  0  0  0  0  0  0  0
   36.1250   30.5200   30.8170 S   0  0  0  0  0  0  0  0  0  0  0  0
   35.0290   30.0120   32.2780 C   0  0  0  0  0  0  0  0  0  0  0  0
   34.2650   30.3950   33.2160 H   0  0  0  0  0  0  0  0  0  0  0  0
   35.1110   28.8990   32.2990 N   0  0  0  0  0  0  0  0  0  0  0  0
  1  6  1  6  0  0  0
  1 21  1  0  0  0  0
  1  2  1  0  0  0  0
  2  7  1  1  0  0  0
  2 14  1  0  0  0  0
  3  9  1  0  0  0  0
  3  8  1  0  0  0  0
  3  2  1  0  0  0  0
  4  3  1  0  0  0  0
  5  4  1  0  0  0  0
  5  1  1  0  0  0  0
 10  5  1  0  0  0  0
 11  5  1  0  0  0  0
 12 18  1  0  0  0  0
 12 17  1  0  0  0  0
 13 12  2  0  0  0  0
 14 13  1  0  0  0  0
 14 15  2  0  0  0  0
 15 16  1  0  0  0  0
 16 17  2  0  0  0  0
 16 20  1  0  0  0  0
 19 13  1  0  0  0  0
 23 24  1  0  0  0  0
 23 22  1  0  0  0  0
 24 21  1  0  0  0  0
 25 24  2  0  0  0  0
 26 25  1  0  0  0  0
 27 26  2  0  0  0  0
 27 28  1  0  0  0  0
 28 23  2  0  0  0  0
 29 25  1  0  0  0  0
 30 26  1  0  0  0  0
 31 27  1  0  0  0  0
 32 28  1  0  0  0  0
 32 38  1  0  0  0  0
 33 35  1  0  0  0  0
 33 32  2  0  0  0  0
 34 33  1  0  0  0  0
 35 36  1  0  0  0  0
 36 38  2  0  0  0  0
 36 37  1  0  0  0  0
M  END
>  <minimizedAffinity>
-5.22466564

$$$$

 OpenBabel03272501093D

 38 41  0  0  1  0  0  0  0  0999 V2000
   39.3390   25.9230   33.0830 C   0  0  2  0  0  0  0  0  0  0  0  0
   39.3280   26.0620   34.6410 C   0  0  2  0  0  0  0  0  0  0  0  0
   40.7190   26.3970   34.8920 C   0  0  0  0  0  0  0  0  0  0  0  0
   41.1500   27.2160   33.8590 O   0  0  0  0  0  0  0  0  0  0  0  0
   40.2710   27.1320   32.8300 C   0  0  0  0  0  0  0  0  0  0  0  0
   39.9130   25.0660   32.7550 H   0  0  0  0  0  0  0  0  0  0  0  0
   38.6630   26.9450   34.8280 H   0  0  0  0  0  0  0  0  0  0  0  0
   40.8360   26.8920   35.8780 H   0  0  0  0  0  0  0  0  0  0  0  0
   41.3750   25.5070   34.9010 H   0  0  0  0  0  0  0  0  0  0  0  0
   39.5990   28.0140   32.8250 H   0  0  0  0  0  0  0  0  0  0  0  0
   40.7380   27.0440   31.8310 H   0  0  0  0  0  0  0  0  0  0  0  0
   37.5560   23.8620   37.1270 C   0  0  0  0  0  0  0  0  0  0  0  0
   38.0870   25.0390   36.5320 C   0  0  0  0  0  0  0  0  0  0  0  0
   38.7600   24.9020   35.2910 C   0  0  0  0  0  0  0  0  0  0  0  0
   38.8690   23.6570   34.7250 N   0  0  0  0  0  0  0  0  0  0  0  0
   38.3550   22.5760   35.3210 C   0  0  0  0  0  0  0  0  0  0  0  0
   37.6990   22.6650   36.5170 N   0  0  0  0  0  0  0  0  0  0  0  0
   37.0300   23.8760   38.0700 H   0  0  0  0  0  0  0  0  0  0  0  0
   37.9520   25.9700   37.0530 H   0  0  0  0  0  0  0  0  0  0  0  0
   38.5090   21.6500   34.7730 H   0  0  0  0  0  0  0  0  0  0  0  0
   38.1170   26.1780   32.5430 O   0  0  0  0  0  0  0  0  0  0  0  0
   36.6400   27.8640   34.6760 Cl  0  0  0  0  0  0  0  0  0  0  0  0
   36.6650   28.2020   32.9740 C   0  0  0  0  0  0  0  0  0  0  0  0
   37.4020   27.2850   32.2360 C   0  0  0  0  0  0  0  0  0  0  0  0
   37.4310   27.5350   30.8720 C   0  0  0  0  0  0  0  0  0  0  0  0
   36.7800   28.6120   30.2840 C   0  0  0  0  0  0  0  0  0  0  0  0
   36.0750   29.4720   31.0760 C   0  0  0  0  0  0  0  0  0  0  0  0
   36.0220   29.2630   32.4190 C   0  0  0  0  0  0  0  0  0  0  0  0
   37.9520   26.9360   30.1250 H   0  0  0  0  0  0  0  0  0  0  0  0
   36.7880   28.8280   29.2250 H   0  0  0  0  0  0  0  0  0  0  0  0
   35.5580   30.3190   30.6630 H   0  0  0  0  0  0  0  0  0  0  0  0
   35.3050   30.1000   33.3800 C   0  0  0  0  0  0  0  0  0  0  0  0
   33.8840   29.8540   33.4860 C   0  0  0  0  0  0  0  0  0  0  0  0
   33.1230   29.1380   32.9920 H   0  0  0  0  0  0  0  0  0  0  0  0
   33.2580   31.0710   34.7830 S   0  0  0  0  0  0  0  0  0  0  0  0
   35.0410   31.6930   34.9450 C   0  0  0  0  0  0  0  0  0  0  0  0
   35.8360   32.5000   35.5160 H   0  0  0  0  0  0  0  0  0  0  0  0
   35.6110   31.0650   34.2180 N   0  0  0  0  0  0  0  0  0  0  0  0
  1  6  1  6  0  0  0
  1  2  1  0  0  0  0
  2  7  1  1  0  0  0
  2  3  1  0  0  0  0
  2 14  1  0  0  0  0
  3  9  1  0  0  0  0
  3  8  1  0  0  0  0
  4  3  1  0  0  0  0
  5  1  1  0  0  0  0
  5  4  1  0  0  0  0
 10  5  1  0  0  0  0
 11  5  1  0  0  0  0
 12 18  1  0  0  0  0
 13 19  1  0  0  0  0
 13 12  1  0  0  0  0
 14 13  2  0  0  0  0
 15 14  1  0  0  0  0
 15 16  2  0  0  0  0
 16 17  1  0  0  0  0
 17 12  2  0  0  0  0
 20 16  1  0  0  0  0
 21  1  1  0  0  0  0
 23 22  1  0  0  0  0
 24 21  1  0  0  0  0
 24 23  2  0  0  0  0
 25 24  1  0  0  0  0
 26 25  2  0  0  0  0
 26 27  1  0  0  0  0
 27 28  2  0  0  0  0
 28 23  1  0  0  0  0
 28 32  1  0  0  0  0
 29 25  1  0  0  0  0
 30 26  1  0  0  0  0
 31 27  1  0  0  0  0
 32 33  2  0  0  0  0
 32 38  1  0  0  0  0
 33 35  1  0  0  0  0
 34 33  1  0  0  0  0
 35 36  1  0  0  0  0
 36 37  1  0  0  0  0
 38 36  2  0  0  0  0
M  END
>  <minimizedAffinity>
-5.22429562

$$$$

 OpenBabel03272501093D

 38 41  0  0  1  0  0  0  0  0999 V2000
   37.8130   25.9920   34.6320 C   0  0  2  0  0  0  0  0  0  0  0  0
   38.2380   25.8080   33.1380 C   0  0  2  0  0  0  0  0  0  0  0  0
   38.8090   27.1150   32.8570 C   0  0  0  0  0  0  0  0  0  0  0  0
   39.4720   27.5410   33.9980 O   0  0  0  0  0  0  0  0  0  0  0  0
   39.0740   26.7860   35.0510 C   0  0  0  0  0  0  0  0  0  0  0  0
   37.0000   26.6980   34.7400 H   0  0  0  0  0  0  0  0  0  0  0  0
   39.0380   25.0230   33.1800 H   0  0  0  0  0  0  0  0  0  0  0  0
   39.4910   27.0700   31.9830 H   0  0  0  0  0  0  0  0  0  0  0  0
   38.0380   27.8720   32.6230 H   0  0  0  0  0  0  0  0  0  0  0  0
   39.8350   26.0130   35.2820 H   0  0  0  0  0  0  0  0  0  0  0  0
   38.8670   27.3580   35.9750 H   0  0  0  0  0  0  0  0  0  0  0  0
   35.9700   23.5350   31.1770 C   0  0  0  0  0  0  0  0  0  0  0  0
   37.0550   23.9480   31.9980 C   0  0  0  0  0  0  0  0  0  0  0  0
   37.1530   25.3270   32.3140 C   0  0  0  0  0  0  0  0  0  0  0  0
   36.2100   26.1930   31.8200 N   0  0  0  0  0  0  0  0  0  0  0  0
   35.2060   25.7610   31.0510 C   0  0  0  0  0  0  0  0  0  0  0  0
   35.0760   24.4400   30.7230 N   0  0  0  0  0  0  0  0  0  0  0  0
   35.8210   22.5050   30.8880 H   0  0  0  0  0  0  0  0  0  0  0  0
   37.7440   23.1940   32.3350 H   0  0  0  0  0  0  0  0  0  0  0  0
   34.5270   26.5440   30.7230 H   0  0  0  0  0  0  0  0  0  0  0  0
   37.7870   24.8070   35.3010 O   0  0  0  0  0  0  0  0  0  0  0  0
   40.5400   23.7050   34.4130 Cl  0  0  0  0  0  0  0  0  0  0  0  0
   39.8720   23.5660   36.0100 C   0  0  0  0  0  0  0  0  0  0  0  0
   38.6180   24.1460   36.1400 C   0  0  0  0  0  0  0  0  0  0  0  0
   38.0640   24.0430   37.4080 C   0  0  0  0  0  0  0  0  0  0  0  0
   38.7060   23.4120   38.4660 C   0  0  0  0  0  0  0  0  0  0  0  0
   39.9410   22.8650   38.2610 C   0  0  0  0  0  0  0  0  0  0  0  0
   40.5180   22.9460   37.0320 C   0  0  0  0  0  0  0  0  0  0  0  0
   37.0930   24.4310   37.7130 H   0  0  0  0  0  0  0  0  0  0  0  0
   38.2970   23.3180   39.4620 H   0  0  0  0  0  0  0  0  0  0  0  0
   40.4720   22.3690   39.0520 H   0  0  0  0  0  0  0  0  0  0  0  0
   41.8280   22.4040   36.6730 C   0  0  0  0  0  0  0  0  0  0  0  0
   41.9010   20.9650   36.5660 C   0  0  0  0  0  0  0  0  0  0  0  0
   41.1680   20.0800   36.6930 H   0  0  0  0  0  0  0  0  0  0  0  0
   43.6880   20.5840   36.1000 S   0  0  0  0  0  0  0  0  0  0  0  0
   44.0110   22.4520   36.1360 C   0  0  0  0  0  0  0  0  0  0  0  0
   44.8560   23.3860   35.9870 H   0  0  0  0  0  0  0  0  0  0  0  0
   43.0200   22.8890   36.4080 N   0  0  0  0  0  0  0  0  0  0  0  0
  1  6  1  1  0  0  0
  1  5  1  0  0  0  0
  1 21  1  0  0  0  0
  2  7  1  6  0  0  0
  2  1  1  0  0  0  0
  3  2  1  0  0  0  0
  3  4  1  0  0  0  0
  4  5  1  0  0  0  0
  5 10  1  0  0  0  0
  5 11  1  0  0  0  0
  8  3  1  0  0  0  0
  9  3  1  0  0  0  0
 12 13  1  0  0  0  0
 13 14  2  0  0  0  0
 13 19  1  0  0  0  0
 14  2  1  0  0  0  0
 15 14  1  0  0  0  0
 16 15  2  0  0  0  0
 17 16  1  0  0  0  0
 17 12  2  0  0  0  0
 18 12  1  0  0  0  0
 20 16  1  0  0  0  0
 21 24  1  0  0  0  0
 22 23  1  0  0  0  0
 23 24  2  0  0  0  0
 23 28  1  0  0  0  0
 24 25  1  0  0  0  0
 25 29  1  0  0  0  0
 25 26  2  0  0  0  0
 26 30  1  0  0  0  0
 27 26  1  0  0  0  0
 27 31  1  0  0  0  0
 28 27  2  0  0  0  0
 32 28  1  0  0  0  0
 33 32  2  0  0  0  0
 33 34  1  0  0  0  0
 35 36  1  0  0  0  0
 35 33  1  0  0  0  0
 36 38  2  0  0  0  0
 37 36  1  0  0  0  0
 38 32  1  0  0  0  0
M  END
>  <minimizedAffinity>
-5.22400379

$$$$

 OpenBabel03272501093D

 38 41  0  0  1  0  0  0  0  0999 V2000
   35.2690   30.8350   35.2040 C   0  0  2  0  0  0  0  0  0  0  0  0
   33.7900   31.2960   35.4120 C   0  0  2  0  0  0  0  0  0  0  0  0
   33.8240   31.6930   36.8100 C   0  0  0  0  0  0  0  0  0  0  0  0
   35.0560   32.2830   37.0510 O   0  0  0  0  0  0  0  0  0  0  0  0
   35.9020   31.9760   36.0370 C   0  0  0  0  0  0  0  0  0  0  0  0
   35.4980   29.9350   35.7610 H   0  0  0  0  0  0  0  0  0  0  0  0
   33.6890   32.1910   34.7440 H   0  0  0  0  0  0  0  0  0  0  0  0
   32.9900   32.3840   37.0460 H   0  0  0  0  0  0  0  0  0  0  0  0
   33.7320   30.8320   37.4980 H   0  0  0  0  0  0  0  0  0  0  0  0
   35.9870   32.8290   35.3340 H   0  0  0  0  0  0  0  0  0  0  0  0
   36.9200   31.6870   36.3590 H   0  0  0  0  0  0  0  0  0  0  0  0
   31.4420   29.2480   33.3010 C   0  0  0  0  0  0  0  0  0  0  0  0
   32.3850   30.2540   33.6510 C   0  0  0  0  0  0  0  0  0  0  0  0
   32.8380   30.2910   34.9950 C   0  0  0  0  0  0  0  0  0  0  0  0
   32.3560   29.3670   35.8870 N   0  0  0  0  0  0  0  0  0  0  0  0
   31.4700   28.4380   35.5140 C   0  0  0  0  0  0  0  0  0  0  0  0
   31.0080   28.3680   34.2290 N   0  0  0  0  0  0  0  0  0  0  0  0
   31.0450   29.1480   32.3020 H   0  0  0  0  0  0  0  0  0  0  0  0
   32.7020   30.9340   32.8810 H   0  0  0  0  0  0  0  0  0  0  0  0
   31.1660   27.7670   36.3130 H   0  0  0  0  0  0  0  0  0  0  0  0
   35.6610   30.9570   33.9070 O   0  0  0  0  0  0  0  0  0  0  0  0
   36.1330   27.9290   34.3330 Cl  0  0  0  0  0  0  0  0  0  0  0  0
   36.1820   28.7450   32.8020 C   0  0  0  0  0  0  0  0  0  0  0  0
   35.9370   30.1080   32.8900 C   0  0  0  0  0  0  0  0  0  0  0  0
   35.9750   30.7800   31.6780 C   0  0  0  0  0  0  0  0  0  0  0  0
   36.2370   30.1480   30.4680 C   0  0  0  0  0  0  0  0  0  0  0  0
   36.4670   28.8020   30.4610 C   0  0  0  0  0  0  0  0  0  0  0  0
   36.4380   28.1070   31.6290 C   0  0  0  0  0  0  0  0  0  0  0  0
   35.8100   31.8480   31.5340 H   0  0  0  0  0  0  0  0  0  0  0  0
   36.2720   30.6490   29.5100 H   0  0  0  0  0  0  0  0  0  0  0  0
   36.6730   28.2740   29.5480 H   0  0  0  0  0  0  0  0  0  0  0  0
   36.6690   26.6690   31.7670 C   0  0  0  0  0  0  0  0  0  0  0  0
   35.6550   25.8160   31.1900 C   0  0  0  0  0  0  0  0  0  0  0  0
   34.6600   25.9680   30.6210 H   0  0  0  0  0  0  0  0  0  0  0  0
   36.2300   24.0520   31.5270 S   0  0  0  0  0  0  0  0  0  0  0  0
   37.7450   24.7960   32.3900 C   0  0  0  0  0  0  0  0  0  0  0  0
   38.8280   24.5730   33.0130 H   0  0  0  0  0  0  0  0  0  0  0  0
   37.5910   25.8980   32.2980 N   0  0  0  0  0  0  0  0  0  0  0  0
  1  2  1  0  0  0  0
  1  6  1  1  0  0  0
  1  5  1  0  0  0  0
  2  7  1  6  0  0  0
  2  3  1  0  0  0  0
  3  8  1  0  0  0  0
  3  4  1  0  0  0  0
  3  9  1  0  0  0  0
  5 11  1  0  0  0  0
  5  4  1  0  0  0  0
 10  5  1  0  0  0  0
 12 13  2  0  0  0  0
 12 17  1  0  0  0  0
 13 14  1  0  0  0  0
 14  2  1  0  0  0  0
 14 15  2  0  0  0  0
 16 15  1  0  0  0  0
 16 20  1  0  0  0  0
 17 16  2  0  0  0  0
 18 12  1  0  0  0  0
 19 13  1  0  0  0  0
 21  1  1  0  0  0  0
 23 24  1  0  0  0  0
 23 22  1  0  0  0  0
 24 21  1  0  0  0  0
 25 24  2  0  0  0  0
 26 25  1  0  0  0  0
 27 26  2  0  0  0  0
 27 28  1  0  0  0  0
 28 32  1  0  0  0  0
 28 23  2  0  0  0  0
 29 25  1  0  0  0  0
 30 26  1  0  0  0  0
 31 27  1  0  0  0  0
 32 38  1  0  0  0  0
 33 35  1  0  0  0  0
 33 32  2  0  0  0  0
 34 33  1  0  0  0  0
 35 36  1  0  0  0  0
 36 37  1  0  0  0  0
 38 36  2  0  0  0  0
M  END
>  <minimizedAffinity>
-5.22356653

$$$$

 OpenBabel03272501093D

 38 41  0  0  1  0  0  0  0  0999 V2000
   35.9140   29.3640   33.2080 C   0  0  2  0  0  0  0  0  0  0  0  0
   34.5200   30.0450   33.4050 C   0  0  2  0  0  0  0  0  0  0  0  0
   34.4510   30.8690   32.2100 C   0  0  0  0  0  0  0  0  0  0  0  0
   35.0320   30.1570   31.1710 O   0  0  0  0  0  0  0  0  0  0  0  0
   35.7550   29.1320   31.6860 C   0  0  0  0  0  0  0  0  0  0  0  0
   36.7290   30.0720   33.2900 H   0  0  0  0  0  0  0  0  0  0  0  0
   33.7930   29.1940   33.3470 H   0  0  0  0  0  0  0  0  0  0  0  0
   33.4010   31.1420   31.9770 H   0  0  0  0  0  0  0  0  0  0  0  0
   35.0120   31.8160   32.3140 H   0  0  0  0  0  0  0  0  0  0  0  0
   35.1910   28.1810   31.6000 H   0  0  0  0  0  0  0  0  0  0  0  0
   36.7490   28.9910   31.2220 H   0  0  0  0  0  0  0  0  0  0  0  0
   33.1070   31.2700   36.6700 C   0  0  0  0  0  0  0  0  0  0  0  0
   33.1700   30.6210   35.4070 C   0  0  0  0  0  0  0  0  0  0  0  0
   34.3980   30.6790   34.6990 C   0  0  0  0  0  0  0  0  0  0  0  0
   35.4570   31.3480   35.2560 N   0  0  0  0  0  0  0  0  0  0  0  0
   35.3530   31.9440   36.4480 C   0  0  0  0  0  0  0  0  0  0  0  0
   34.1880   31.9120   37.1620 N   0  0  0  0  0  0  0  0  0  0  0  0
   32.2110   31.2750   37.2750 H   0  0  0  0  0  0  0  0  0  0  0  0
   32.2840   30.1240   35.0530 H   0  0  0  0  0  0  0  0  0  0  0  0
   36.2620   32.4410   36.7780 H   0  0  0  0  0  0  0  0  0  0  0  0
   35.9840   28.1610   33.8400 O   0  0  0  0  0  0  0  0  0  0  0  0
   36.5630   25.5160   32.3420 Cl  0  0  0  0  0  0  0  0  0  0  0  0
   37.4370   26.0960   33.7250 C   0  0  0  0  0  0  0  0  0  0  0  0
   36.9710   27.3120   34.2070 C   0  0  0  0  0  0  0  0  0  0  0  0
   37.6530   27.7910   35.3150 C   0  0  0  0  0  0  0  0  0  0  0  0
   38.7170   27.1170   35.9010 C   0  0  0  0  0  0  0  0  0  0  0  0
   39.1190   25.9250   35.3690 C   0  0  0  0  0  0  0  0  0  0  0  0
   38.4760   25.4210   34.2820 C   0  0  0  0  0  0  0  0  0  0  0  0
   37.4430   28.7230   35.8400 H   0  0  0  0  0  0  0  0  0  0  0  0
   39.2650   27.4690   36.7640 H   0  0  0  0  0  0  0  0  0  0  0  0
   39.9380   25.3710   35.7910 H   0  0  0  0  0  0  0  0  0  0  0  0
   38.7990   24.1600   33.6150 C   0  0  0  0  0  0  0  0  0  0  0  0
   38.2300   22.9730   34.2130 C   0  0  0  0  0  0  0  0  0  0  0  0
   37.5540   22.7380   35.1210 H   0  0  0  0  0  0  0  0  0  0  0  0
   38.8200   21.5370   33.1420 S   0  0  0  0  0  0  0  0  0  0  0  0
   39.7340   22.8120   32.0770 C   0  0  0  0  0  0  0  0  0  0  0  0
   40.4780   23.0160   31.0700 H   0  0  0  0  0  0  0  0  0  0  0  0
   39.5000   23.7870   32.5680 N   0  0  0  0  0  0  0  0  0  0  0  0
  1  6  1  1  0  0  0
  1  2  1  0  0  0  0
  1 21  1  0  0  0  0
  2  7  1  6  0  0  0
  2 14  1  0  0  0  0
  3  9  1  0  0  0  0
  3  2  1  0  0  0  0
  4  5  1  0  0  0  0
  4  3  1  0  0  0  0
  5  1  1  0  0  0  0
  8  3  1  0  0  0  0
 10  5  1  0  0  0  0
 11  5  1  0  0  0  0
 12 17  1  0  0  0  0
 12 18  1  0  0  0  0
 13 12  2  0  0  0  0
 14 15  2  0  0  0  0
 14 13  1  0  0  0  0
 15 16  1  0  0  0  0
 16 20  1  0  0  0  0
 16 17  2  0  0  0  0
 19 13  1  0  0  0  0
 21 24  1  0  0  0  0
 22 23  1  0  0  0  0
 23 24  2  0  0  0  0
 23 28  1  0  0  0  0
 24 25  1  0  0  0  0
 25 29  1  0  0  0  0
 25 26  2  0  0  0  0
 26 30  1  0  0  0  0
 27 31  1  0  0  0  0
 27 26  1  0  0  0  0
 28 27  2  0  0  0  0
 32 33  2  0  0  0  0
 32 28  1  0  0  0  0
 33 34  1  0  0  0  0
 35 33  1  0  0  0  0
 36 38  2  0  0  0  0
 36 35  1  0  0  0  0
 37 36  1  0  0  0  0
 38 32  1  0  0  0  0
M  END
>  <minimizedAffinity>
-5.19314337

$$$$
