
 OpenBabel03262521423D

 41 45  0  0  0  0  0  0  0  0999 V2000
   38.7310   24.5050   35.6560 C   0  0  0  0  0  0  0  0  0  0  0  0
   37.6610   24.5910   36.5130 N   0  0  0  0  0  0  0  0  0  0  0  0
   37.6860   23.8950   37.6720 C   0  0  0  0  0  0  0  0  0  0  0  0
   38.7170   23.1120   38.0410 N   0  0  0  0  0  0  0  0  0  0  0  0
   39.7850   22.9960   37.2380 C   0  0  0  0  0  0  0  0  0  0  0  0
   40.8300   22.2010   37.6170 C   0  0  0  0  0  0  0  0  0  0  0  0
   41.9360   22.0760   36.8000 C   0  0  0  0  0  0  0  0  0  0  0  0
   41.9770   22.7680   35.5860 C   0  0  0  0  0  0  0  0  0  0  0  0
   40.8780   23.5640   35.2530 C   0  0  0  0  0  0  0  0  0  0  0  0
   39.7820   23.6970   36.0480 C   0  0  0  0  0  0  0  0  0  0  0  0
   36.8350   23.9690   38.3440 H   0  0  0  0  0  0  0  0  0  0  0  0
   40.7940   21.6710   38.5530 H   0  0  0  0  0  0  0  0  0  0  0  0
   42.7540   21.4340   37.1350 H   0  0  0  0  0  0  0  0  0  0  0  0
   42.8750   22.6020   35.0330 H   0  0  0  0  0  0  0  0  0  0  0  0
   41.1210   24.1950   33.9580 C   0  0  0  0  0  0  0  0  0  0  0  0
   41.6790   25.4690   33.8710 C   0  0  0  0  0  0  0  0  0  0  0  0
   41.9610   26.1180   34.7010 H   0  0  0  0  0  0  0  0  0  0  0  0
   41.8160   25.7640   32.0650 S   0  0  0  0  0  0  0  0  0  0  0  0
   41.0650   24.0480   31.7230 C   0  0  0  0  0  0  0  0  0  0  0  0
   40.8500   23.5500   30.7440 H   0  0  0  0  0  0  0  0  0  0  0  0
   40.8860   23.6510   32.7770 N   0  0  0  0  0  0  0  0  0  0  0  0
   38.8690   25.3450   34.1130 S   0  0  0  0  0  0  0  0  0  0  0  0
   38.0570   22.6290   33.3770 F   0  0  0  0  0  0  0  0  0  0  0  0
   37.3100   23.5710   32.7130 C   0  0  0  0  0  0  0  0  0  0  0  0
   36.3170   23.1910   31.8280 C   0  0  0  0  0  0  0  0  0  0  0  0
   35.5830   24.1870   31.1750 C   0  0  0  0  0  0  0  0  0  0  0  0
   35.8380   25.5390   31.4060 C   0  0  0  0  0  0  0  0  0  0  0  0
   36.8390   25.8360   32.3010 C   0  0  0  0  0  0  0  0  0  0  0  0
   37.5840   24.8860   32.9630 C   0  0  0  0  0  0  0  0  0  0  0  0
   34.8150   23.8470   30.4890 H   0  0  0  0  0  0  0  0  0  0  0  0
   35.2450   26.2750   30.8800 H   0  0  0  0  0  0  0  0  0  0  0  0
   36.9870   26.8970   32.4380 H   0  0  0  0  0  0  0  0  0  0  0  0
   35.0840   21.2490   32.3920 C   0  0  0  0  0  0  0  0  0  0  0  0
   36.1080   21.8010   31.6360 C   0  0  0  0  0  0  0  0  0  0  0  0
   36.7920   20.9350   30.7910 C   0  0  0  0  0  0  0  0  0  0  0  0
   36.4360   19.6260   30.7500 N   0  0  0  0  0  0  0  0  0  0  0  0
   35.4540   19.1430   31.4900 C   0  0  0  0  0  0  0  0  0  0  0  0
   34.7620   19.9300   32.3170 N   0  0  0  0  0  0  0  0  0  0  0  0
   34.4750   21.8350   33.0920 H   0  0  0  0  0  0  0  0  0  0  0  0
   37.5790   21.3880   30.2190 H   0  0  0  0  0  0  0  0  0  0  0  0
   35.1650   18.1010   31.4600 H   0  0  0  0  0  0  0  0  0  0  0  0
  1 10  2  0  0  0  0
  1  2  1  0  0  0  0
  2  3  2  0  0  0  0
  3  4  1  0  0  0  0
  3 11  1  0  0  0  0
  5  6  1  0  0  0  0
  5  4  2  0  0  0  0
  6 12  1  0  0  0  0
  7 13  1  0  0  0  0
  7  6  2  0  0  0  0
  8  7  1  0  0  0  0
  9  8  2  0  0  0  0
  9 10  1  0  0  0  0
 10  5  1  0  0  0  0
 14  8  1  0  0  0  0
 15  9  1  0  0  0  0
 16 15  2  0  0  0  0
 16 17  1  0  0  0  0
 18 16  1  0  0  0  0
 19 18  1  0  0  0  0
 19 21  2  0  0  0  0
 20 19  1  0  0  0  0
 21 15  1  0  0  0  0
 22  1  1  0  0  0  0
 24 29  1  0  0  0  0
 24 23  1  0  0  0  0
 25 24  2  0  0  0  0
 26 27  2  0  0  0  0
 26 25  1  0  0  0  0
 27 28  1  0  0  0  0
 28 32  1  0  0  0  0
 28 29  2  0  0  0  0
 29 22  1  0  0  0  0
 30 26  1  0  0  0  0
 31 27  1  0  0  0  0
 33 39  1  0  0  0  0
 34 25  1  0  0  0  0
 34 33  2  0  0  0  0
 35 34  1  0  0  0  0
 36 35  2  0  0  0  0
 36 37  1  0  0  0  0
 37 38  2  0  0  0  0
 38 33  1  0  0  0  0
 40 35  1  0  0  0  0
 41 37  1  0  0  0  0
M  END
>  <minimizedAffinity>
-6.39521837

$$$$

 OpenBabel03262521423D

 41 45  0  0  0  0  0  0  0  0999 V2000
   36.8040   25.4060   32.1020 C   0  0  0  0  0  0  0  0  0  0  0  0
   35.6830   25.3990   31.3080 N   0  0  0  0  0  0  0  0  0  0  0  0
   35.0810   24.2220   31.0260 C   0  0  0  0  0  0  0  0  0  0  0  0
   35.5250   23.0370   31.4860 N   0  0  0  0  0  0  0  0  0  0  0  0
   36.6170   22.9920   32.2650 C   0  0  0  0  0  0  0  0  0  0  0  0
   37.0630   21.7870   32.7320 C   0  0  0  0  0  0  0  0  0  0  0  0
   38.1830   21.7280   33.5370 C   0  0  0  0  0  0  0  0  0  0  0  0
   38.8550   22.9100   33.8680 C   0  0  0  0  0  0  0  0  0  0  0  0
   38.3520   24.1100   33.3600 C   0  0  0  0  0  0  0  0  0  0  0  0
   37.2480   24.1820   32.5660 C   0  0  0  0  0  0  0  0  0  0  0  0
   34.1950   24.2260   30.3970 H   0  0  0  0  0  0  0  0  0  0  0  0
   36.5410   20.8820   32.4740 H   0  0  0  0  0  0  0  0  0  0  0  0
   38.5100   20.7500   33.8930 H   0  0  0  0  0  0  0  0  0  0  0  0
   39.7050   22.7520   34.4940 H   0  0  0  0  0  0  0  0  0  0  0  0
   39.1900   25.2130   33.8220 C   0  0  0  0  0  0  0  0  0  0  0  0
   40.3270   25.5990   33.1140 C   0  0  0  0  0  0  0  0  0  0  0  0
   40.7180   25.1420   32.2040 H   0  0  0  0  0  0  0  0  0  0  0  0
   40.9740   27.0260   34.0700 S   0  0  0  0  0  0  0  0  0  0  0  0
   39.5420   26.8490   35.3120 C   0  0  0  0  0  0  0  0  0  0  0  0
   39.3150   27.4560   36.2250 H   0  0  0  0  0  0  0  0  0  0  0  0
   38.9670   25.9590   34.8890 N   0  0  0  0  0  0  0  0  0  0  0  0
   37.7080   26.8440   32.5740 S   0  0  0  0  0  0  0  0  0  0  0  0
   36.5570   28.3930   34.7780 F   0  0  0  0  0  0  0  0  0  0  0  0
   36.2640   28.9600   33.5620 C   0  0  0  0  0  0  0  0  0  0  0  0
   35.5140   30.1200   33.4850 C   0  0  0  0  0  0  0  0  0  0  0  0
   35.2410   30.6600   32.2230 C   0  0  0  0  0  0  0  0  0  0  0  0
   35.7110   30.0490   31.0600 C   0  0  0  0  0  0  0  0  0  0  0  0
   36.4500   28.9010   31.2200 C   0  0  0  0  0  0  0  0  0  0  0  0
   36.7400   28.3380   32.4430 C   0  0  0  0  0  0  0  0  0  0  0  0
   34.6490   31.5680   32.2070 H   0  0  0  0  0  0  0  0  0  0  0  0
   35.4760   30.5020   30.1060 H   0  0  0  0  0  0  0  0  0  0  0  0
   36.7860   28.4770   30.2860 H   0  0  0  0  0  0  0  0  0  0  0  0
   33.7440   30.4200   35.0300 C   0  0  0  0  0  0  0  0  0  0  0  0
   35.0640   30.6920   34.7030 C   0  0  0  0  0  0  0  0  0  0  0  0
   35.7770   31.4800   35.5990 C   0  0  0  0  0  0  0  0  0  0  0  0
   35.1610   31.9340   36.7210 N   0  0  0  0  0  0  0  0  0  0  0  0
   33.8990   31.6500   36.9920 C   0  0  0  0  0  0  0  0  0  0  0  0
   33.1690   30.8970   36.1660 N   0  0  0  0  0  0  0  0  0  0  0  0
   33.0850   29.8090   34.4000 H   0  0  0  0  0  0  0  0  0  0  0  0
   36.7950   31.6750   35.3220 H   0  0  0  0  0  0  0  0  0  0  0  0
   33.4050   32.0090   37.8840 H   0  0  0  0  0  0  0  0  0  0  0  0
  1 10  1  0  0  0  0
  1 22  1  0  0  0  0
  2  1  2  0  0  0  0
  3  2  1  0  0  0  0
  3  4  2  0  0  0  0
  4  5  1  0  0  0  0
  5 10  2  0  0  0  0
  5  6  1  0  0  0  0
  6  7  2  0  0  0  0
  7  8  1  0  0  0  0
  7 13  1  0  0  0  0
  8 14  1  0  0  0  0
  9 15  1  0  0  0  0
  9  8  2  0  0  0  0
 10  9  1  0  0  0  0
 11  3  1  0  0  0  0
 12  6  1  0  0  0  0
 15 21  1  0  0  0  0
 16 15  2  0  0  0  0
 16 18  1  0  0  0  0
 17 16  1  0  0  0  0
 18 19  1  0  0  0  0
 19 20  1  0  0  0  0
 21 19  2  0  0  0  0
 24 23  1  0  0  0  0
 25 24  1  0  0  0  0
 25 34  1  0  0  0  0
 26 25  2  0  0  0  0
 27 28  2  0  0  0  0
 27 26  1  0  0  0  0
 28 29  1  0  0  0  0
 29 22  1  0  0  0  0
 29 24  2  0  0  0  0
 30 26  1  0  0  0  0
 31 27  1  0  0  0  0
 32 28  1  0  0  0  0
 33 38  1  0  0  0  0
 34 33  2  0  0  0  0
 34 35  1  0  0  0  0
 35 36  2  0  0  0  0
 36 37  1  0  0  0  0
 37 41  1  0  0  0  0
 38 37  2  0  0  0  0
 39 33  1  0  0  0  0
 40 35  1  0  0  0  0
M  END
>  <minimizedAffinity>
-6.21028376

$$$$

 OpenBabel03262521423D

 41 45  0  0  0  0  0  0  0  0999 V2000
   40.0850   25.8490   34.4310 C   0  0  0  0  0  0  0  0  0  0  0  0
   40.4490   26.9870   33.7540 N   0  0  0  0  0  0  0  0  0  0  0  0
   41.7590   27.3030   33.6490 C   0  0  0  0  0  0  0  0  0  0  0  0
   42.7440   26.5520   34.1770 N   0  0  0  0  0  0  0  0  0  0  0  0
   42.4390   25.4310   34.8480 C   0  0  0  0  0  0  0  0  0  0  0  0
   43.4420   24.6710   35.3810 C   0  0  0  0  0  0  0  0  0  0  0  0
   43.1410   23.5130   36.0710 C   0  0  0  0  0  0  0  0  0  0  0  0
   41.8050   23.1270   36.2170 C   0  0  0  0  0  0  0  0  0  0  0  0
   40.8250   23.9450   35.6510 C   0  0  0  0  0  0  0  0  0  0  0  0
   41.1070   25.0890   34.9680 C   0  0  0  0  0  0  0  0  0  0  0  0
   42.0380   28.2060   33.1110 H   0  0  0  0  0  0  0  0  0  0  0  0
   44.4690   24.9730   35.2650 H   0  0  0  0  0  0  0  0  0  0  0  0
   43.9670   22.9290   36.4820 H   0  0  0  0  0  0  0  0  0  0  0  0
   41.6840   22.2190   36.7650 H   0  0  0  0  0  0  0  0  0  0  0  0
   39.5100   23.3670   35.9140 C   0  0  0  0  0  0  0  0  0  0  0  0
   38.9470   22.4330   35.0470 C   0  0  0  0  0  0  0  0  0  0  0  0
   39.3770   22.0630   34.1150 H   0  0  0  0  0  0  0  0  0  0  0  0
   37.3530   21.9990   35.8450 S   0  0  0  0  0  0  0  0  0  0  0  0
   37.7350   23.2020   37.2710 C   0  0  0  0  0  0  0  0  0  0  0  0
   37.1240   23.4440   38.1780 H   0  0  0  0  0  0  0  0  0  0  0  0
   38.7520   23.6180   36.9660 N   0  0  0  0  0  0  0  0  0  0  0  0
   38.4310   25.2840   34.6580 S   0  0  0  0  0  0  0  0  0  0  0  0
   37.2650   27.8650   33.9100 F   0  0  0  0  0  0  0  0  0  0  0  0
   36.9140   26.8810   33.0190 C   0  0  0  0  0  0  0  0  0  0  0  0
   36.1070   27.1670   31.9320 C   0  0  0  0  0  0  0  0  0  0  0  0
   35.7760   26.1310   31.0520 C   0  0  0  0  0  0  0  0  0  0  0  0
   36.2440   24.8330   31.2560 C   0  0  0  0  0  0  0  0  0  0  0  0
   37.0410   24.6290   32.3580 C   0  0  0  0  0  0  0  0  0  0  0  0
   37.3900   25.6210   33.2480 C   0  0  0  0  0  0  0  0  0  0  0  0
   35.1410   26.3960   30.2140 H   0  0  0  0  0  0  0  0  0  0  0  0
   35.9630   24.0630   30.5500 H   0  0  0  0  0  0  0  0  0  0  0  0
   37.3730   23.6070   32.4620 H   0  0  0  0  0  0  0  0  0  0  0  0
   36.3150   29.2350   30.7970 C   0  0  0  0  0  0  0  0  0  0  0  0
   35.6630   28.5050   31.7800 C   0  0  0  0  0  0  0  0  0  0  0  0
   34.6640   29.1670   32.4850 C   0  0  0  0  0  0  0  0  0  0  0  0
   34.3850   30.4610   32.1860 N   0  0  0  0  0  0  0  0  0  0  0  0
   35.0330   31.1180   31.2400 C   0  0  0  0  0  0  0  0  0  0  0  0
   36.0000   30.5310   30.5320 N   0  0  0  0  0  0  0  0  0  0  0  0
   37.1190   28.8180   30.1760 H   0  0  0  0  0  0  0  0  0  0  0  0
   34.1770   28.5800   33.2390 H   0  0  0  0  0  0  0  0  0  0  0  0
   34.8130   32.1490   30.9980 H   0  0  0  0  0  0  0  0  0  0  0  0
  1 22  1  0  0  0  0
  1 10  1  0  0  0  0
  2  1  2  0  0  0  0
  3  2  1  0  0  0  0
  3  4  2  0  0  0  0
  4  5  1  0  0  0  0
  5 10  2  0  0  0  0
  5  6  1  0  0  0  0
  6  7  2  0  0  0  0
  7  8  1  0  0  0  0
  7 13  1  0  0  0  0
  8 14  1  0  0  0  0
  9 15  1  0  0  0  0
  9  8  2  0  0  0  0
 10  9  1  0  0  0  0
 11  3  1  0  0  0  0
 12  6  1  0  0  0  0
 15 21  1  0  0  0  0
 16 18  1  0  0  0  0
 16 15  2  0  0  0  0
 17 16  1  0  0  0  0
 18 19  1  0  0  0  0
 19 20  1  0  0  0  0
 21 19  2  0  0  0  0
 24 29  1  0  0  0  0
 24 23  1  0  0  0  0
 25 24  2  0  0  0  0
 26 27  2  0  0  0  0
 26 25  1  0  0  0  0
 27 28  1  0  0  0  0
 28 32  1  0  0  0  0
 28 29  2  0  0  0  0
 29 22  1  0  0  0  0
 30 26  1  0  0  0  0
 31 27  1  0  0  0  0
 33 34  1  0  0  0  0
 34 25  1  0  0  0  0
 34 35  2  0  0  0  0
 35 40  1  0  0  0  0
 36 35  1  0  0  0  0
 37 36  2  0  0  0  0
 38 33  2  0  0  0  0
 38 37  1  0  0  0  0
 39 33  1  0  0  0  0
 41 37  1  0  0  0  0
M  END
>  <minimizedAffinity>
-6.19140816

$$$$

 OpenBabel03262521423D

 41 45  0  0  0  0  0  0  0  0999 V2000
   38.8540   25.0790   35.4980 C   0  0  0  0  0  0  0  0  0  0  0  0
   37.6490   25.0310   36.1560 N   0  0  0  0  0  0  0  0  0  0  0  0
   37.4460   24.0800   37.0950 C   0  0  0  0  0  0  0  0  0  0  0  0
   38.3730   23.1620   37.4270 N   0  0  0  0  0  0  0  0  0  0  0  0
   39.5650   23.1660   36.8120 C   0  0  0  0  0  0  0  0  0  0  0  0
   40.5040   22.2340   37.1540 C   0  0  0  0  0  0  0  0  0  0  0  0
   41.7360   22.2310   36.5310 C   0  0  0  0  0  0  0  0  0  0  0  0
   42.0130   23.1880   35.5500 C   0  0  0  0  0  0  0  0  0  0  0  0
   41.0140   24.1150   35.2430 C   0  0  0  0  0  0  0  0  0  0  0  0
   39.7960   24.1290   35.8500 C   0  0  0  0  0  0  0  0  0  0  0  0
   36.4900   24.0500   37.6100 H   0  0  0  0  0  0  0  0  0  0  0  0
   40.2860   21.5000   37.9100 H   0  0  0  0  0  0  0  0  0  0  0  0
   42.4630   21.4720   36.8300 H   0  0  0  0  0  0  0  0  0  0  0  0
   42.9920   23.0970   35.1330 H   0  0  0  0  0  0  0  0  0  0  0  0
   41.5030   25.0180   34.2040 C   0  0  0  0  0  0  0  0  0  0  0  0
   42.1900   26.1850   34.5300 C   0  0  0  0  0  0  0  0  0  0  0  0
   42.4120   26.5560   35.5320 H   0  0  0  0  0  0  0  0  0  0  0  0
   42.6160   26.9120   32.9000 S   0  0  0  0  0  0  0  0  0  0  0  0
   41.7570   25.4570   32.0220 C   0  0  0  0  0  0  0  0  0  0  0  0
   41.6380   25.2590   30.9260 H   0  0  0  0  0  0  0  0  0  0  0  0
   41.3890   24.8310   32.9020 N   0  0  0  0  0  0  0  0  0  0  0  0
   39.2910   26.2510   34.2560 S   0  0  0  0  0  0  0  0  0  0  0  0
   37.5940   28.2750   35.5220 F   0  0  0  0  0  0  0  0  0  0  0  0
   37.1650   27.9880   34.2500 C   0  0  0  0  0  0  0  0  0  0  0  0
   36.0600   28.6270   33.7160 C   0  0  0  0  0  0  0  0  0  0  0  0
   35.6600   28.3010   32.4150 C   0  0  0  0  0  0  0  0  0  0  0  0
   36.3550   27.3520   31.6630 C   0  0  0  0  0  0  0  0  0  0  0  0
   37.4420   26.7630   32.2640 C   0  0  0  0  0  0  0  0  0  0  0  0
   37.8670   27.0560   33.5410 C   0  0  0  0  0  0  0  0  0  0  0  0
   34.7890   28.8230   32.0340 H   0  0  0  0  0  0  0  0  0  0  0  0
   36.0100   27.1310   30.6620 H   0  0  0  0  0  0  0  0  0  0  0  0
   37.9380   26.0400   31.6330 H   0  0  0  0  0  0  0  0  0  0  0  0
   34.0210   29.4230   34.6200 C   0  0  0  0  0  0  0  0  0  0  0  0
   35.3960   29.5800   34.5300 C   0  0  0  0  0  0  0  0  0  0  0  0
   35.9490   30.6390   35.2410 C   0  0  0  0  0  0  0  0  0  0  0  0
   35.1360   31.4460   35.9700 N   0  0  0  0  0  0  0  0  0  0  0  0
   33.8300   31.2590   36.0270 C   0  0  0  0  0  0  0  0  0  0  0  0
   33.2470   30.2580   35.3640 N   0  0  0  0  0  0  0  0  0  0  0  0
   33.4750   28.6230   34.1030 H   0  0  0  0  0  0  0  0  0  0  0  0
   37.0130   30.7380   35.1530 H   0  0  0  0  0  0  0  0  0  0  0  0
   33.1780   31.8990   36.6070 H   0  0  0  0  0  0  0  0  0  0  0  0
  1 10  2  0  0  0  0
  1  2  1  0  0  0  0
  2  3  2  0  0  0  0
  3  4  1  0  0  0  0
  3 11  1  0  0  0  0
  5  6  1  0  0  0  0
  5  4  2  0  0  0  0
  6 12  1  0  0  0  0
  7 13  1  0  0  0  0
  7  6  2  0  0  0  0
  8  7  1  0  0  0  0
  9  8  2  0  0  0  0
  9 10  1  0  0  0  0
 10  5  1  0  0  0  0
 14  8  1  0  0  0  0
 15 16  2  0  0  0  0
 15  9  1  0  0  0  0
 16 17  1  0  0  0  0
 18 16  1  0  0  0  0
 19 18  1  0  0  0  0
 19 21  2  0  0  0  0
 20 19  1  0  0  0  0
 21 15  1  0  0  0  0
 22  1  1  0  0  0  0
 24 23  1  0  0  0  0
 25 24  1  0  0  0  0
 25 34  1  0  0  0  0
 26 25  2  0  0  0  0
 27 28  2  0  0  0  0
 27 26  1  0  0  0  0
 28 29  1  0  0  0  0
 29 24  2  0  0  0  0
 29 22  1  0  0  0  0
 30 26  1  0  0  0  0
 31 27  1  0  0  0  0
 32 28  1  0  0  0  0
 33 38  1  0  0  0  0
 34 33  2  0  0  0  0
 34 35  1  0  0  0  0
 35 36  2  0  0  0  0
 36 37  1  0  0  0  0
 37 41  1  0  0  0  0
 38 37  2  0  0  0  0
 39 33  1  0  0  0  0
 40 35  1  0  0  0  0
M  END
>  <minimizedAffinity>
-6.18672323

$$$$

 OpenBabel03262521423D

 41 45  0  0  0  0  0  0  0  0999 V2000
   40.8210   25.6060   34.6150 C   0  0  0  0  0  0  0  0  0  0  0  0
   41.3850   26.7250   34.0540 N   0  0  0  0  0  0  0  0  0  0  0  0
   42.7230   26.9050   34.1400 C   0  0  0  0  0  0  0  0  0  0  0  0
   43.5460   26.0340   34.7530 N   0  0  0  0  0  0  0  0  0  0  0  0
   43.0430   24.9260   35.3160 C   0  0  0  0  0  0  0  0  0  0  0  0
   43.8830   24.0430   35.9360 C   0  0  0  0  0  0  0  0  0  0  0  0
   43.3770   22.8970   36.5170 C   0  0  0  0  0  0  0  0  0  0  0  0
   42.0020   22.6490   36.4650 C   0  0  0  0  0  0  0  0  0  0  0  0
   41.1940   23.5880   35.8180 C   0  0  0  0  0  0  0  0  0  0  0  0
   41.6800   24.7210   35.2410 C   0  0  0  0  0  0  0  0  0  0  0  0
   43.1600   27.7940   33.6920 H   0  0  0  0  0  0  0  0  0  0  0  0
   44.9400   24.2390   35.9720 H   0  0  0  0  0  0  0  0  0  0  0  0
   44.0770   22.2140   37.0020 H   0  0  0  0  0  0  0  0  0  0  0  0
   41.7170   21.7380   36.9430 H   0  0  0  0  0  0  0  0  0  0  0  0
   39.8050   23.1420   35.8750 C   0  0  0  0  0  0  0  0  0  0  0  0
   39.2850   22.2800   34.9110 C   0  0  0  0  0  0  0  0  0  0  0  0
   39.8070   21.8800   34.0410 H   0  0  0  0  0  0  0  0  0  0  0  0
   37.5570   21.9990   35.4610 S   0  0  0  0  0  0  0  0  0  0  0  0
   37.8440   23.1400   36.9590 C   0  0  0  0  0  0  0  0  0  0  0  0
   37.1340   23.4320   37.7740 H   0  0  0  0  0  0  0  0  0  0  0  0
   38.9300   23.4560   36.8140 N   0  0  0  0  0  0  0  0  0  0  0  0
   39.1040   25.2100   34.5920 S   0  0  0  0  0  0  0  0  0  0  0  0
   39.1540   26.3560   31.8960 F   0  0  0  0  0  0  0  0  0  0  0  0
   38.2270   26.9860   32.6900 C   0  0  0  0  0  0  0  0  0  0  0  0
   37.4580   28.0230   32.1920 C   0  0  0  0  0  0  0  0  0  0  0  0
   36.5270   28.6350   33.0390 C   0  0  0  0  0  0  0  0  0  0  0  0
   36.3700   28.2160   34.3610 C   0  0  0  0  0  0  0  0  0  0  0  0
   37.1710   27.1800   34.7810 C   0  0  0  0  0  0  0  0  0  0  0  0
   38.0980   26.5520   33.9790 C   0  0  0  0  0  0  0  0  0  0  0  0
   35.9450   29.4430   32.6110 H   0  0  0  0  0  0  0  0  0  0  0  0
   35.6390   28.7170   34.9800 H   0  0  0  0  0  0  0  0  0  0  0  0
   37.0030   26.9000   35.8100 H   0  0  0  0  0  0  0  0  0  0  0  0
   37.0010   29.5540   30.4440 C   0  0  0  0  0  0  0  0  0  0  0  0
   37.6650   28.4020   30.8410 C   0  0  0  0  0  0  0  0  0  0  0  0
   38.4430   27.7700   29.8780 C   0  0  0  0  0  0  0  0  0  0  0  0
   38.5130   28.2970   28.6290 N   0  0  0  0  0  0  0  0  0  0  0  0
   37.8620   29.3970   28.2950 C   0  0  0  0  0  0  0  0  0  0  0  0
   37.1020   30.0450   29.1800 N   0  0  0  0  0  0  0  0  0  0  0  0
   36.3600   30.1370   31.1170 H   0  0  0  0  0  0  0  0  0  0  0  0
   38.9440   26.8820   30.2120 H   0  0  0  0  0  0  0  0  0  0  0  0
   37.9160   29.8210   27.3010 H   0  0  0  0  0  0  0  0  0  0  0  0
  1 10  1  0  0  0  0
  2  3  1  0  0  0  0
  2  1  2  0  0  0  0
  3  4  2  0  0  0  0
  4  5  1  0  0  0  0
  5  6  1  0  0  0  0
  6 12  1  0  0  0  0
  6  7  2  0  0  0  0
  7 13  1  0  0  0  0
  8  7  1  0  0  0  0
  8 14  1  0  0  0  0
  9 15  1  0  0  0  0
  9  8  2  0  0  0  0
 10  5  2  0  0  0  0
 10  9  1  0  0  0  0
 11  3  1  0  0  0  0
 15 21  1  0  0  0  0
 16 18  1  0  0  0  0
 16 15  2  0  0  0  0
 17 16  1  0  0  0  0
 18 19  1  0  0  0  0
 19 20  1  0  0  0  0
 21 19  2  0  0  0  0
 22  1  1  0  0  0  0
 23 24  1  0  0  0  0
 24 29  1  0  0  0  0
 25 24  2  0  0  0  0
 25 26  1  0  0  0  0
 26 27  2  0  0  0  0
 27 28  1  0  0  0  0
 27 31  1  0  0  0  0
 28 32  1  0  0  0  0
 29 22  1  0  0  0  0
 29 28  2  0  0  0  0
 30 26  1  0  0  0  0
 33 34  1  0  0  0  0
 33 39  1  0  0  0  0
 34 25  1  0  0  0  0
 35 40  1  0  0  0  0
 35 34  2  0  0  0  0
 36 35  1  0  0  0  0
 37 36  2  0  0  0  0
 37 38  1  0  0  0  0
 38 33  2  0  0  0  0
 41 37  1  0  0  0  0
M  END
>  <minimizedAffinity>
-6.13541126

$$$$

 OpenBabel03262521423D

 41 45  0  0  0  0  0  0  0  0999 V2000
   39.0400   24.6090   35.6780 C   0  0  0  0  0  0  0  0  0  0  0  0
   37.9070   24.7280   36.4460 N   0  0  0  0  0  0  0  0  0  0  0  0
   37.7690   23.9520   37.5440 C   0  0  0  0  0  0  0  0  0  0  0  0
   38.6930   23.0540   37.9340 N   0  0  0  0  0  0  0  0  0  0  0  0
   39.8160   22.9010   37.2170 C   0  0  0  0  0  0  0  0  0  0  0  0
   40.7530   21.9900   37.6180 C   0  0  0  0  0  0  0  0  0  0  0  0
   41.9150   21.8250   36.8910 C   0  0  0  0  0  0  0  0  0  0  0  0
   42.1230   22.5970   35.7430 C   0  0  0  0  0  0  0  0  0  0  0  0
   41.1290   23.5110   35.3830 C   0  0  0  0  0  0  0  0  0  0  0  0
   39.9800   23.6830   36.0920 C   0  0  0  0  0  0  0  0  0  0  0  0
   36.8690   24.0530   38.1450 H   0  0  0  0  0  0  0  0  0  0  0  0
   40.5880   21.3990   38.5030 H   0  0  0  0  0  0  0  0  0  0  0  0
   42.6420   21.0900   37.2400 H   0  0  0  0  0  0  0  0  0  0  0  0
   43.0510   22.3910   35.2560 H   0  0  0  0  0  0  0  0  0  0  0  0
   41.5400   24.2090   34.1680 C   0  0  0  0  0  0  0  0  0  0  0  0
   42.3050   25.3720   34.2300 C   0  0  0  0  0  0  0  0  0  0  0  0
   42.6460   25.8840   35.1310 H   0  0  0  0  0  0  0  0  0  0  0  0
   42.5830   25.8080   32.4690 S   0  0  0  0  0  0  0  0  0  0  0  0
   41.5780   24.2830   31.9290 C   0  0  0  0  0  0  0  0  0  0  0  0
   41.3350   23.9220   30.8970 H   0  0  0  0  0  0  0  0  0  0  0  0
   41.2810   23.8250   32.9310 N   0  0  0  0  0  0  0  0  0  0  0  0
   39.3870   25.5430   34.2240 S   0  0  0  0  0  0  0  0  0  0  0  0
   37.8910   27.9610   33.5240 F   0  0  0  0  0  0  0  0  0  0  0  0
   37.3790   26.8560   32.8890 C   0  0  0  0  0  0  0  0  0  0  0  0
   36.2920   26.9670   32.0420 C   0  0  0  0  0  0  0  0  0  0  0  0
   35.8060   25.8120   31.4190 C   0  0  0  0  0  0  0  0  0  0  0  0
   36.3990   24.5690   31.6400 C   0  0  0  0  0  0  0  0  0  0  0  0
   37.4760   24.5410   32.4950 C   0  0  0  0  0  0  0  0  0  0  0  0
   37.9840   25.6540   33.1270 C   0  0  0  0  0  0  0  0  0  0  0  0
   34.9520   25.9420   30.7630 H   0  0  0  0  0  0  0  0  0  0  0  0
   35.9900   23.7030   31.1370 H   0  0  0  0  0  0  0  0  0  0  0  0
   37.8920   23.5530   32.6240 H   0  0  0  0  0  0  0  0  0  0  0  0
   36.3020   29.0080   30.8400 C   0  0  0  0  0  0  0  0  0  0  0  0
   35.7330   28.2580   31.8580 C   0  0  0  0  0  0  0  0  0  0  0  0
   34.6960   28.8560   32.5650 C   0  0  0  0  0  0  0  0  0  0  0  0
   34.3020   30.1120   32.2330 N   0  0  0  0  0  0  0  0  0  0  0  0
   34.8740   30.7900   31.2540 C   0  0  0  0  0  0  0  0  0  0  0  0
   35.8730   30.2640   30.5420 N   0  0  0  0  0  0  0  0  0  0  0  0
   37.1260   28.6400   30.2140 H   0  0  0  0  0  0  0  0  0  0  0  0
   34.2740   28.2550   33.3470 H   0  0  0  0  0  0  0  0  0  0  0  0
   34.5640   31.7900   30.9850 H   0  0  0  0  0  0  0  0  0  0  0  0
  1 10  2  0  0  0  0
  1  2  1  0  0  0  0
  2  3  2  0  0  0  0
  3  4  1  0  0  0  0
  3 11  1  0  0  0  0
  5  6  1  0  0  0  0
  5  4  2  0  0  0  0
  6 12  1  0  0  0  0
  7 13  1  0  0  0  0
  7  6  2  0  0  0  0
  8  7  1  0  0  0  0
  9  8  2  0  0  0  0
  9 10  1  0  0  0  0
 10  5  1  0  0  0  0
 14  8  1  0  0  0  0
 15 16  2  0  0  0  0
 15  9  1  0  0  0  0
 16 17  1  0  0  0  0
 18 16  1  0  0  0  0
 19 18  1  0  0  0  0
 19 21  2  0  0  0  0
 20 19  1  0  0  0  0
 21 15  1  0  0  0  0
 22  1  1  0  0  0  0
 24 29  1  0  0  0  0
 24 23  1  0  0  0  0
 25 24  2  0  0  0  0
 26 27  2  0  0  0  0
 26 25  1  0  0  0  0
 27 28  1  0  0  0  0
 28 32  1  0  0  0  0
 28 29  2  0  0  0  0
 29 22  1  0  0  0  0
 30 26  1  0  0  0  0
 31 27  1  0  0  0  0
 33 34  1  0  0  0  0
 34 25  1  0  0  0  0
 34 35  2  0  0  0  0
 35 40  1  0  0  0  0
 36 35  1  0  0  0  0
 37 36  2  0  0  0  0
 38 33  2  0  0  0  0
 38 37  1  0  0  0  0
 39 33  1  0  0  0  0
 41 37  1  0  0  0  0
M  END
>  <minimizedAffinity>
-6.0032239

$$$$

 OpenBabel03262521423D

 41 45  0  0  0  0  0  0  0  0999 V2000
   35.2260   32.1960   33.9840 C   0  0  0  0  0  0  0  0  0  0  0  0
   36.4450   32.8040   33.8110 N   0  0  0  0  0  0  0  0  0  0  0  0
   36.8990   33.6550   34.7590 C   0  0  0  0  0  0  0  0  0  0  0  0
   36.2120   33.9440   35.8800 N   0  0  0  0  0  0  0  0  0  0  0  0
   35.0160   33.3760   36.0940 C   0  0  0  0  0  0  0  0  0  0  0  0
   34.3230   33.6710   37.2350 C   0  0  0  0  0  0  0  0  0  0  0  0
   33.0930   33.0890   37.4670 C   0  0  0  0  0  0  0  0  0  0  0  0
   32.5640   32.1980   36.5280 C   0  0  0  0  0  0  0  0  0  0  0  0
   33.3190   31.9370   35.3810 C   0  0  0  0  0  0  0  0  0  0  0  0
   34.5330   32.5030   35.1400 C   0  0  0  0  0  0  0  0  0  0  0  0
   37.8650   34.1320   34.6140 H   0  0  0  0  0  0  0  0  0  0  0  0
   34.7360   34.3560   37.9540 H   0  0  0  0  0  0  0  0  0  0  0  0
   32.5680   33.3460   38.3890 H   0  0  0  0  0  0  0  0  0  0  0  0
   31.6110   31.8070   36.8050 H   0  0  0  0  0  0  0  0  0  0  0  0
   32.5940   30.9890   34.5390 C   0  0  0  0  0  0  0  0  0  0  0  0
   32.6830   29.6160   34.7600 C   0  0  0  0  0  0  0  0  0  0  0  0
   33.2830   29.1120   35.5200 H   0  0  0  0  0  0  0  0  0  0  0  0
   31.5710   28.8950   33.4910 S   0  0  0  0  0  0  0  0  0  0  0  0
   31.1600   30.6420   32.8530 C   0  0  0  0  0  0  0  0  0  0  0  0
   30.4830   30.9510   32.0170 H   0  0  0  0  0  0  0  0  0  0  0  0
   31.7840   31.3010   33.5440 N   0  0  0  0  0  0  0  0  0  0  0  0
   34.4880   31.0580   32.8580 S   0  0  0  0  0  0  0  0  0  0  0  0
   35.7930   29.1500   34.6570 F   0  0  0  0  0  0  0  0  0  0  0  0
   36.1310   28.9130   33.3470 C   0  0  0  0  0  0  0  0  0  0  0  0
   36.9870   27.8790   33.0140 C   0  0  0  0  0  0  0  0  0  0  0  0
   37.3020   27.6770   31.6650 C   0  0  0  0  0  0  0  0  0  0  0  0
   36.7690   28.4960   30.6700 C   0  0  0  0  0  0  0  0  0  0  0  0
   35.9260   29.5020   31.0810 C   0  0  0  0  0  0  0  0  0  0  0  0
   35.5910   29.7330   32.3970 C   0  0  0  0  0  0  0  0  0  0  0  0
   37.9770   26.8570   31.4460 H   0  0  0  0  0  0  0  0  0  0  0  0
   37.0400   28.3040   29.6400 H   0  0  0  0  0  0  0  0  0  0  0  0
   35.5460   30.1000   30.2660 H   0  0  0  0  0  0  0  0  0  0  0  0
   37.4660   25.7140   33.8460 C   0  0  0  0  0  0  0  0  0  0  0  0
   37.4950   27.0820   34.0720 C   0  0  0  0  0  0  0  0  0  0  0  0
   38.0150   27.4990   35.2910 C   0  0  0  0  0  0  0  0  0  0  0  0
   38.4560   26.5720   36.1780 N   0  0  0  0  0  0  0  0  0  0  0  0
   38.4080   25.2770   35.9210 C   0  0  0  0  0  0  0  0  0  0  0  0
   37.9200   24.8210   34.7650 N   0  0  0  0  0  0  0  0  0  0  0  0
   37.0790   25.2680   32.9200 H   0  0  0  0  0  0  0  0  0  0  0  0
   38.0250   28.5620   35.4390 H   0  0  0  0  0  0  0  0  0  0  0  0
   38.7590   24.5340   36.6250 H   0  0  0  0  0  0  0  0  0  0  0  0
  1 10  1  0  0  0  0
  2  1  2  0  0  0  0
  2  3  1  0  0  0  0
  3  4  2  0  0  0  0
  4  5  1  0  0  0  0
  5  6  1  0  0  0  0
  6  7  2  0  0  0  0
  6 12  1  0  0  0  0
  7 13  1  0  0  0  0
  8 14  1  0  0  0  0
  8  7  1  0  0  0  0
  9  8  2  0  0  0  0
 10  9  1  0  0  0  0
 10  5  2  0  0  0  0
 11  3  1  0  0  0  0
 15 16  2  0  0  0  0
 15  9  1  0  0  0  0
 16 17  1  0  0  0  0
 18 16  1  0  0  0  0
 19 18  1  0  0  0  0
 19 21  2  0  0  0  0
 20 19  1  0  0  0  0
 21 15  1  0  0  0  0
 22  1  1  0  0  0  0
 24 23  1  0  0  0  0
 25 24  1  0  0  0  0
 25 34  1  0  0  0  0
 26 25  2  0  0  0  0
 27 28  2  0  0  0  0
 27 26  1  0  0  0  0
 28 29  1  0  0  0  0
 29 22  1  0  0  0  0
 29 24  2  0  0  0  0
 30 26  1  0  0  0  0
 31 27  1  0  0  0  0
 32 28  1  0  0  0  0
 33 34  2  0  0  0  0
 33 38  1  0  0  0  0
 34 35  1  0  0  0  0
 35 40  1  0  0  0  0
 35 36  2  0  0  0  0
 37 36  1  0  0  0  0
 37 41  1  0  0  0  0
 38 37  2  0  0  0  0
 39 33  1  0  0  0  0
M  END
>  <minimizedAffinity>
-5.94198227

$$$$

 OpenBabel03262521423D

 41 45  0  0  0  0  0  0  0  0999 V2000
   37.3980   24.5000   33.0320 C   0  0  0  0  0  0  0  0  0  0  0  0
   36.8010   24.5900   31.7980 N   0  0  0  0  0  0  0  0  0  0  0  0
   36.3260   25.7840   31.3790 C   0  0  0  0  0  0  0  0  0  0  0  0
   36.4060   26.9090   32.1150 N   0  0  0  0  0  0  0  0  0  0  0  0
   36.9800   26.8730   33.3260 C   0  0  0  0  0  0  0  0  0  0  0  0
   37.0610   28.0180   34.0690 C   0  0  0  0  0  0  0  0  0  0  0  0
   37.6530   27.9930   35.3160 C   0  0  0  0  0  0  0  0  0  0  0  0
   38.1660   26.7900   35.8110 C   0  0  0  0  0  0  0  0  0  0  0  0
   38.0520   25.6540   35.0060 C   0  0  0  0  0  0  0  0  0  0  0  0
   37.4730   25.6640   33.7750 C   0  0  0  0  0  0  0  0  0  0  0  0
   35.8550   25.8460   30.4020 H   0  0  0  0  0  0  0  0  0  0  0  0
   36.6650   28.9410   33.6820 H   0  0  0  0  0  0  0  0  0  0  0  0
   37.7020   28.9260   35.8810 H   0  0  0  0  0  0  0  0  0  0  0  0
   38.6000   26.8820   36.7820 H   0  0  0  0  0  0  0  0  0  0  0  0
   38.6470   24.5150   35.7020 C   0  0  0  0  0  0  0  0  0  0  0  0
   39.9710   24.1440   35.4760 C   0  0  0  0  0  0  0  0  0  0  0  0
   40.6710   24.6090   34.7810 H   0  0  0  0  0  0  0  0  0  0  0  0
   40.2270   22.7230   36.6080 S   0  0  0  0  0  0  0  0  0  0  0  0
   38.4300   22.8790   37.2170 C   0  0  0  0  0  0  0  0  0  0  0  0
   37.8820   22.2660   37.9780 H   0  0  0  0  0  0  0  0  0  0  0  0
   38.0460   23.7630   36.6060 N   0  0  0  0  0  0  0  0  0  0  0  0
   38.0760   23.0310   33.7300 S   0  0  0  0  0  0  0  0  0  0  0  0
   38.6780   21.4690   31.3270 F   0  0  0  0  0  0  0  0  0  0  0  0
   37.6290   20.9250   32.0270 C   0  0  0  0  0  0  0  0  0  0  0  0
   36.9970   19.7790   31.5770 C   0  0  0  0  0  0  0  0  0  0  0  0
   35.9320   19.2630   32.3230 C   0  0  0  0  0  0  0  0  0  0  0  0
   35.5080   19.8830   33.4990 C   0  0  0  0  0  0  0  0  0  0  0  0
   36.1870   21.0170   33.8810 C   0  0  0  0  0  0  0  0  0  0  0  0
   37.2390   21.5560   33.1740 C   0  0  0  0  0  0  0  0  0  0  0  0
   35.4640   18.3660   31.9360 H   0  0  0  0  0  0  0  0  0  0  0  0
   34.6810   19.4490   34.0450 H   0  0  0  0  0  0  0  0  0  0  0  0
   35.8150   21.4490   34.7970 H   0  0  0  0  0  0  0  0  0  0  0  0
   36.5630   19.1760   29.3280 C   0  0  0  0  0  0  0  0  0  0  0  0
   37.4740   19.1970   30.3740 C   0  0  0  0  0  0  0  0  0  0  0  0
   38.7270   18.6530   30.1190 C   0  0  0  0  0  0  0  0  0  0  0  0
   38.9910   18.1410   28.8900 N   0  0  0  0  0  0  0  0  0  0  0  0
   38.0920   18.1410   27.9220 C   0  0  0  0  0  0  0  0  0  0  0  0
   36.8740   18.6510   28.1130 N   0  0  0  0  0  0  0  0  0  0  0  0
   35.5450   19.5760   29.4130 H   0  0  0  0  0  0  0  0  0  0  0  0
   39.4110   18.6830   30.9450 H   0  0  0  0  0  0  0  0  0  0  0  0
   38.2980   17.7340   26.9410 H   0  0  0  0  0  0  0  0  0  0  0  0
  1 22  1  0  0  0  0
  1 10  1  0  0  0  0
  2  1  2  0  0  0  0
  3  2  1  0  0  0  0
  3  4  2  0  0  0  0
  4  5  1  0  0  0  0
  5 10  2  0  0  0  0
  5  6  1  0  0  0  0
  6  7  2  0  0  0  0
  7  8  1  0  0  0  0
  7 13  1  0  0  0  0
  8 14  1  0  0  0  0
  9 15  1  0  0  0  0
  9  8  2  0  0  0  0
 10  9  1  0  0  0  0
 11  3  1  0  0  0  0
 12  6  1  0  0  0  0
 15 21  1  0  0  0  0
 16 15  2  0  0  0  0
 16 18  1  0  0  0  0
 17 16  1  0  0  0  0
 18 19  1  0  0  0  0
 19 20  1  0  0  0  0
 21 19  2  0  0  0  0
 23 24  1  0  0  0  0
 24 29  1  0  0  0  0
 25 24  2  0  0  0  0
 25 26  1  0  0  0  0
 26 27  2  0  0  0  0
 27 28  1  0  0  0  0
 27 31  1  0  0  0  0
 28 32  1  0  0  0  0
 29 22  1  0  0  0  0
 29 28  2  0  0  0  0
 30 26  1  0  0  0  0
 33 39  1  0  0  0  0
 33 34  1  0  0  0  0
 34 25  1  0  0  0  0
 35 34  2  0  0  0  0
 35 40  1  0  0  0  0
 36 35  1  0  0  0  0
 37 38  1  0  0  0  0
 37 36  2  0  0  0  0
 38 33  2  0  0  0  0
 41 37  1  0  0  0  0
M  END
>  <minimizedAffinity>
-5.92488623

$$$$

 OpenBabel03262521423D

 41 45  0  0  0  0  0  0  0  0999 V2000
   40.4330   23.2270   35.0640 C   0  0  0  0  0  0  0  0  0  0  0  0
   41.3270   22.1990   35.2350 N   0  0  0  0  0  0  0  0  0  0  0  0
   41.4060   21.5850   36.4380 C   0  0  0  0  0  0  0  0  0  0  0  0
   40.6450   21.9310   37.4930 N   0  0  0  0  0  0  0  0  0  0  0  0
   39.7570   22.9290   37.3760 C   0  0  0  0  0  0  0  0  0  0  0  0
   38.9850   23.2750   38.4490 C   0  0  0  0  0  0  0  0  0  0  0  0
   38.0650   24.2990   38.3390 C   0  0  0  0  0  0  0  0  0  0  0  0
   37.9320   24.9770   37.1230 C   0  0  0  0  0  0  0  0  0  0  0  0
   38.7490   24.5780   36.0620 C   0  0  0  0  0  0  0  0  0  0  0  0
   39.6590   23.5700   36.1570 C   0  0  0  0  0  0  0  0  0  0  0  0
   42.1160   20.7730   36.5640 H   0  0  0  0  0  0  0  0  0  0  0  0
   39.0920   22.7500   39.3820 H   0  0  0  0  0  0  0  0  0  0  0  0
   37.4650   24.5480   39.2160 H   0  0  0  0  0  0  0  0  0  0  0  0
   37.1950   25.7480   37.1470 H   0  0  0  0  0  0  0  0  0  0  0  0
   38.4520   25.4040   34.8950 C   0  0  0  0  0  0  0  0  0  0  0  0
   39.2270   26.5220   34.5880 C   0  0  0  0  0  0  0  0  0  0  0  0
   40.0750   26.9060   35.1560 H   0  0  0  0  0  0  0  0  0  0  0  0
   38.4810   27.1590   33.0370 S   0  0  0  0  0  0  0  0  0  0  0  0
   37.1990   25.7500   33.0700 C   0  0  0  0  0  0  0  0  0  0  0  0
   36.3710   25.5280   32.3510 H   0  0  0  0  0  0  0  0  0  0  0  0
   37.4900   25.1850   34.0180 N   0  0  0  0  0  0  0  0  0  0  0  0
   40.1940   24.1300   33.5690 S   0  0  0  0  0  0  0  0  0  0  0  0
   38.0670   22.1170   33.6240 F   0  0  0  0  0  0  0  0  0  0  0  0
   38.6530   22.1900   32.3840 C   0  0  0  0  0  0  0  0  0  0  0  0
   38.2250   21.3770   31.3500 C   0  0  0  0  0  0  0  0  0  0  0  0
   38.8540   21.4870   30.1050 C   0  0  0  0  0  0  0  0  0  0  0  0
   39.8920   22.3970   29.9000 C   0  0  0  0  0  0  0  0  0  0  0  0
   40.2590   23.1710   30.9760 C   0  0  0  0  0  0  0  0  0  0  0  0
   39.6660   23.0920   32.2160 C   0  0  0  0  0  0  0  0  0  0  0  0
   38.4900   20.8320   29.3220 H   0  0  0  0  0  0  0  0  0  0  0  0
   40.3490   22.4490   28.9200 H   0  0  0  0  0  0  0  0  0  0  0  0
   41.0640   23.8550   30.7540 H   0  0  0  0  0  0  0  0  0  0  0  0
   35.9000   21.0370   31.6450 C   0  0  0  0  0  0  0  0  0  0  0  0
   37.1670   20.4720   31.6230 C   0  0  0  0  0  0  0  0  0  0  0  0
   37.2420   19.1060   31.8660 C   0  0  0  0  0  0  0  0  0  0  0  0
   36.1030   18.4100   32.1080 N   0  0  0  0  0  0  0  0  0  0  0  0
   34.9160   18.9890   32.1190 C   0  0  0  0  0  0  0  0  0  0  0  0
   34.7850   20.2980   31.8910 N   0  0  0  0  0  0  0  0  0  0  0  0
   35.7180   22.1040   31.4660 H   0  0  0  0  0  0  0  0  0  0  0  0
   38.2340   18.6960   31.8440 H   0  0  0  0  0  0  0  0  0  0  0  0
   34.0050   18.4390   32.3100 H   0  0  0  0  0  0  0  0  0  0  0  0
  1  2  2  0  0  0  0
  1 10  1  0  0  0  0
  2  3  1  0  0  0  0
  3 11  1  0  0  0  0
  3  4  2  0  0  0  0
  5  4  1  0  0  0  0
  5  6  1  0  0  0  0
  6 12  1  0  0  0  0
  7  6  2  0  0  0  0
  7 13  1  0  0  0  0
  8 14  1  0  0  0  0
  8  7  1  0  0  0  0
  9 10  1  0  0  0  0
  9  8  2  0  0  0  0
 10  5  2  0  0  0  0
 15  9  1  0  0  0  0
 16 15  2  0  0  0  0
 16 17  1  0  0  0  0
 18 19  1  0  0  0  0
 18 16  1  0  0  0  0
 19 21  2  0  0  0  0
 20 19  1  0  0  0  0
 21 15  1  0  0  0  0
 22  1  1  0  0  0  0
 24 23  1  0  0  0  0
 25 34  1  0  0  0  0
 25 24  2  0  0  0  0
 26 25  1  0  0  0  0
 27 26  2  0  0  0  0
 27 28  1  0  0  0  0
 28 29  2  0  0  0  0
 29 24  1  0  0  0  0
 29 22  1  0  0  0  0
 30 26  1  0  0  0  0
 31 27  1  0  0  0  0
 32 28  1  0  0  0  0
 33 38  1  0  0  0  0
 34 33  2  0  0  0  0
 34 35  1  0  0  0  0
 35 36  2  0  0  0  0
 36 37  1  0  0  0  0
 37 41  1  0  0  0  0
 38 37  2  0  0  0  0
 39 33  1  0  0  0  0
 40 35  1  0  0  0  0
M  END
>  <minimizedAffinity>
-5.8961482

$$$$
