
 OpenBabel03272508133D

 32 34  0  0  0  0  0  0  0  0999 V2000
   38.0810   22.9850   33.2940 Cl  0  0  0  0  0  0  0  0  0  0  0  0
   37.0220   24.1250   32.4230 C   0  0  0  0  0  0  0  0  0  0  0  0
   37.1530   25.5010   32.5030 C   0  0  0  0  0  0  0  0  0  0  0  0
   36.2570   26.2500   31.7710 C   0  0  0  0  0  0  0  0  0  0  0  0
   35.2800   25.6830   30.9990 C   0  0  0  0  0  0  0  0  0  0  0  0
   35.1550   24.3360   30.9250 C   0  0  0  0  0  0  0  0  0  0  0  0
   36.0250   23.5290   31.6370 C   0  0  0  0  0  0  0  0  0  0  0  0
   36.4090   27.3150   31.8730 H   0  0  0  0  0  0  0  0  0  0  0  0
   34.6360   26.3720   30.4710 H   0  0  0  0  0  0  0  0  0  0  0  0
   34.3800   23.9070   30.3120 H   0  0  0  0  0  0  0  0  0  0  0  0
   35.9140   22.0500   31.5750 C   0  0  0  0  0  0  0  0  0  0  0  0
   35.0360   21.3870   32.4260 C   0  0  0  0  0  0  0  0  0  0  0  0
   34.3350   21.7130   33.2090 H   0  0  0  0  0  0  0  0  0  0  0  0
   35.2880   19.5770   31.9430 S   0  0  0  0  0  0  0  0  0  0  0  0
   36.5670   20.1220   30.6530 C   0  0  0  0  0  0  0  0  0  0  0  0
   37.2690   19.5890   29.8460 H   0  0  0  0  0  0  0  0  0  0  0  0
   36.5840   21.2390   30.7700 N   0  0  0  0  0  0  0  0  0  0  0  0
   38.1790   25.8880   33.3170 O   0  0  0  0  0  0  0  0  0  0  0  0
   39.4760   27.1040   35.1870 O   0  0  0  0  0  0  0  0  0  0  0  0
   38.1280   26.5780   34.8450 P   0  0  1  0  0  0  0  0  0  0  0  0
   37.0230   27.8720   34.7030 O   0  0  0  0  0  0  0  0  0  0  0  0
   37.5110   28.6390   34.2830 H   0  0  0  0  0  0  0  0  0  0  0  0
   37.5310   25.4420   35.9520 O   0  0  0  0  0  0  0  0  0  0  0  0
   38.8490   23.3430   38.6910 C   0  0  0  0  0  0  0  0  0  0  0  0
   37.9950   24.2650   38.0860 C   0  0  0  0  0  0  0  0  0  0  0  0
   38.2180   24.5880   36.7410 C   0  0  0  0  0  0  0  0  0  0  0  0
   39.2590   23.9780   36.1010 N   0  0  0  0  0  0  0  0  0  0  0  0
   40.0640   23.0900   36.7200 C   0  0  0  0  0  0  0  0  0  0  0  0
   39.8570   22.7750   38.0110 N   0  0  0  0  0  0  0  0  0  0  0  0
   38.5870   23.1740   39.7120 H   0  0  0  0  0  0  0  0  0  0  0  0
   37.1690   24.7760   38.5180 H   0  0  0  0  0  0  0  0  0  0  0  0
   40.8890   22.6080   36.2120 H   0  0  0  0  0  0  0  0  0  0  0  0
  2  3  1  0  0  0  0
  2  1  1  0  0  0  0
  3 18  1  0  0  0  0
  4  8  1  0  0  0  0
  4  3  2  0  0  0  0
  5  4  1  0  0  0  0
  6  5  2  0  0  0  0
  6  7  1  0  0  0  0
  7  2  2  0  0  0  0
  9  5  1  0  0  0  0
 10  6  1  0  0  0  0
 11  7  1  0  0  0  0
 11 12  2  0  0  0  0
 12 13  1  0  0  0  0
 14 12  1  0  0  0  0
 15 17  2  0  0  0  0
 15 14  1  0  0  0  0
 16 15  1  0  0  0  0
 17 11  1  0  0  0  0
 18 20  1  0  0  0  0
 20 19  2  1  0  0  0
 20 23  1  0  0  0  0
 21 20  1  0  0  0  0
 22 21  1  0  0  0  0
 23 26  1  0  0  0  0
 24 30  1  0  0  0  0
 25 31  1  0  0  0  0
 25 24  1  0  0  0  0
 26 25  2  0  0  0  0
 27 28  2  0  0  0  0
 27 26  1  0  0  0  0
 28 29  1  0  0  0  0
 29 24  2  0  0  0  0
 32 28  1  0  0  0  0
M  END
>  <minimizedAffinity>
-5.71906805

$$$$

 OpenBabel03272508133D

 32 34  0  0  0  0  0  0  0  0999 V2000
   35.5050   29.7300   34.2050 Cl  0  0  0  0  0  0  0  0  0  0  0  0
   36.2520   29.0190   32.7500 C   0  0  0  0  0  0  0  0  0  0  0  0
   37.0880   27.9160   32.7830 C   0  0  0  0  0  0  0  0  0  0  0  0
   37.5880   27.4830   31.5750 C   0  0  0  0  0  0  0  0  0  0  0  0
   37.2880   28.0980   30.3900 C   0  0  0  0  0  0  0  0  0  0  0  0
   36.4690   29.1780   30.3620 C   0  0  0  0  0  0  0  0  0  0  0  0
   35.9350   29.6600   31.5430 C   0  0  0  0  0  0  0  0  0  0  0  0
   38.2320   26.6210   31.6650 H   0  0  0  0  0  0  0  0  0  0  0  0
   37.7390   27.6700   29.5070 H   0  0  0  0  0  0  0  0  0  0  0  0
   36.2430   29.6500   29.4200 H   0  0  0  0  0  0  0  0  0  0  0  0
   35.0340   30.8400   31.5460 C   0  0  0  0  0  0  0  0  0  0  0  0
   35.5730   32.1190   31.6420 C   0  0  0  0  0  0  0  0  0  0  0  0
   36.5960   32.5160   31.7240 H   0  0  0  0  0  0  0  0  0  0  0  0
   34.0320   33.2150   31.6020 S   0  0  0  0  0  0  0  0  0  0  0  0
   32.9570   31.6590   31.4600 C   0  0  0  0  0  0  0  0  0  0  0  0
   31.7900   31.4140   31.3770 H   0  0  0  0  0  0  0  0  0  0  0  0
   33.7120   30.8280   31.4650 N   0  0  0  0  0  0  0  0  0  0  0  0
   37.2760   27.4330   34.0480 O   0  0  0  0  0  0  0  0  0  0  0  0
   39.8470   27.2460   33.9500 O   0  0  0  0  0  0  0  0  0  0  0  0
   38.6720   26.8510   34.7710 P   0  0  1  0  0  0  0  0  0  0  0  0
   38.7380   27.6340   36.2870 O   0  0  0  0  0  0  0  0  0  0  0  0
   39.1020   28.5540   36.1350 H   0  0  0  0  0  0  0  0  0  0  0  0
   38.5260   25.1780   35.0040 O   0  0  0  0  0  0  0  0  0  0  0  0
   39.7930   22.8430   37.5690 C   0  0  0  0  0  0  0  0  0  0  0  0
   39.7310   23.4520   36.3160 C   0  0  0  0  0  0  0  0  0  0  0  0
   38.7720   24.4540   36.1170 C   0  0  0  0  0  0  0  0  0  0  0  0
   37.9550   24.7750   37.1630 N   0  0  0  0  0  0  0  0  0  0  0  0
   38.0460   24.1630   38.3620 C   0  0  0  0  0  0  0  0  0  0  0  0
   38.9630   23.2000   38.5610 N   0  0  0  0  0  0  0  0  0  0  0  0
   40.5580   22.0980   37.6070 H   0  0  0  0  0  0  0  0  0  0  0  0
   40.3310   23.2560   35.4610 H   0  0  0  0  0  0  0  0  0  0  0  0
   37.3980   24.4180   39.1900 H   0  0  0  0  0  0  0  0  0  0  0  0
  2  3  1  0  0  0  0
  2  1  1  0  0  0  0
  3 18  1  0  0  0  0
  4  8  1  0  0  0  0
  4  3  2  0  0  0  0
  5  4  1  0  0  0  0
  6  5  2  0  0  0  0
  6  7  1  0  0  0  0
  7 11  1  0  0  0  0
  7  2  2  0  0  0  0
  9  5  1  0  0  0  0
 10  6  1  0  0  0  0
 11 12  2  0  0  0  0
 12 13  1  0  0  0  0
 14 12  1  0  0  0  0
 15 17  2  0  0  0  0
 15 14  1  0  0  0  0
 16 15  1  0  0  0  0
 17 11  1  0  0  0  0
 18 20  1  0  0  0  0
 20 19  2  6  0  0  0
 20 23  1  0  0  0  0
 20 21  1  0  0  0  0
 22 21  1  0  0  0  0
 23 26  1  0  0  0  0
 24 30  1  0  0  0  0
 24 29  1  0  0  0  0
 25 24  2  0  0  0  0
 26 25  1  0  0  0  0
 26 27  2  0  0  0  0
 27 28  1  0  0  0  0
 28 29  2  0  0  0  0
 28 32  1  0  0  0  0
 31 25  1  0  0  0  0
M  END
>  <minimizedAffinity>
-5.37964678

$$$$

 OpenBabel03272508133D

 32 34  0  0  0  0  0  0  0  0999 V2000
   38.8630   26.8400   32.0210 Cl  0  0  0  0  0  0  0  0  0  0  0  0
   37.4950   25.7530   31.6630 C   0  0  0  0  0  0  0  0  0  0  0  0
   37.5820   24.3730   31.7230 C   0  0  0  0  0  0  0  0  0  0  0  0
   36.4380   23.6680   31.4170 C   0  0  0  0  0  0  0  0  0  0  0  0
   35.2660   24.2820   31.0690 C   0  0  0  0  0  0  0  0  0  0  0  0
   35.1850   25.6330   31.0110 C   0  0  0  0  0  0  0  0  0  0  0  0
   36.3010   26.3960   31.3070 C   0  0  0  0  0  0  0  0  0  0  0  0
   36.5670   22.5980   31.4820 H   0  0  0  0  0  0  0  0  0  0  0  0
   34.4350   23.6250   30.8500 H   0  0  0  0  0  0  0  0  0  0  0  0
   34.2540   26.0990   30.7350 H   0  0  0  0  0  0  0  0  0  0  0  0
   36.2450   27.8790   31.2530 C   0  0  0  0  0  0  0  0  0  0  0  0
   35.7390   28.5900   32.3360 C   0  0  0  0  0  0  0  0  0  0  0  0
   35.3300   28.3050   33.3170 H   0  0  0  0  0  0  0  0  0  0  0  0
   35.8930   30.3830   31.7550 S   0  0  0  0  0  0  0  0  0  0  0  0
   36.6320   29.7660   30.1210 C   0  0  0  0  0  0  0  0  0  0  0  0
   37.0410   30.2580   29.1120 H   0  0  0  0  0  0  0  0  0  0  0  0
   36.6360   28.6500   30.2500 N   0  0  0  0  0  0  0  0  0  0  0  0
   38.8240   23.9360   32.0870 O   0  0  0  0  0  0  0  0  0  0  0  0
   39.5820   21.7720   33.2690 O   0  0  0  0  0  0  0  0  0  0  0  0
   39.3270   23.2160   33.5160 P   0  0  1  0  0  0  0  0  0  0  0  0
   40.7910   24.0020   33.9090 O   0  0  0  0  0  0  0  0  0  0  0  0
   41.5130   23.5890   33.3520 H   0  0  0  0  0  0  0  0  0  0  0  0
   38.1790   23.5150   34.7270 O   0  0  0  0  0  0  0  0  0  0  0  0
   37.9440   24.0730   38.3700 C   0  0  0  0  0  0  0  0  0  0  0  0
   37.5530   24.1720   37.0350 C   0  0  0  0  0  0  0  0  0  0  0  0
   38.3530   23.5550   36.0650 C   0  0  0  0  0  0  0  0  0  0  0  0
   39.4700   22.8910   36.4860 N   0  0  0  0  0  0  0  0  0  0  0  0
   39.8160   22.8160   37.7880 C   0  0  0  0  0  0  0  0  0  0  0  0
   39.0530   23.4060   38.7250 N   0  0  0  0  0  0  0  0  0  0  0  0
   37.2620   24.5780   39.0190 H   0  0  0  0  0  0  0  0  0  0  0  0
   36.7020   24.6680   36.6360 H   0  0  0  0  0  0  0  0  0  0  0  0
   40.7010   22.2900   38.1200 H   0  0  0  0  0  0  0  0  0  0  0  0
  2  3  1  0  0  0  0
  2  1  1  0  0  0  0
  3 18  1  0  0  0  0
  4  8  1  0  0  0  0
  4  3  2  0  0  0  0
  5  4  1  0  0  0  0
  6  5  2  0  0  0  0
  6  7  1  0  0  0  0
  7  2  2  0  0  0  0
  9  5  1  0  0  0  0
 10  6  1  0  0  0  0
 11  7  1  0  0  0  0
 11 12  2  0  0  0  0
 12 13  1  0  0  0  0
 14 12  1  0  0  0  0
 15 17  2  0  0  0  0
 15 14  1  0  0  0  0
 16 15  1  0  0  0  0
 17 11  1  0  0  0  0
 18 20  1  0  0  0  0
 20 19  2  6  0  0  0
 20 21  1  0  0  0  0
 20 23  1  0  0  0  0
 22 21  1  0  0  0  0
 23 26  1  0  0  0  0
 24 29  1  0  0  0  0
 24 30  1  0  0  0  0
 25 24  2  0  0  0  0
 26 27  2  0  0  0  0
 26 25  1  0  0  0  0
 27 28  1  0  0  0  0
 28 32  1  0  0  0  0
 28 29  2  0  0  0  0
 31 25  1  0  0  0  0
M  END
>  <minimizedAffinity>
-5.15878057

$$$$

 OpenBabel03272508133D

 32 34  0  0  0  0  0  0  0  0999 V2000
   40.5450   24.2700   34.3660 Cl  0  0  0  0  0  0  0  0  0  0  0  0
   39.6290   23.9910   35.8700 C   0  0  0  0  0  0  0  0  0  0  0  0
   38.3640   24.5030   36.0990 C   0  0  0  0  0  0  0  0  0  0  0  0
   37.7840   24.2000   37.3120 C   0  0  0  0  0  0  0  0  0  0  0  0
   38.4110   23.4340   38.2570 C   0  0  0  0  0  0  0  0  0  0  0  0
   39.6490   22.9340   38.0280 C   0  0  0  0  0  0  0  0  0  0  0  0
   40.2840   23.2030   36.8290 C   0  0  0  0  0  0  0  0  0  0  0  0
   36.7990   24.6270   37.4320 H   0  0  0  0  0  0  0  0  0  0  0  0
   37.8580   23.2630   39.1690 H   0  0  0  0  0  0  0  0  0  0  0  0
   40.1270   22.3320   38.7840 H   0  0  0  0  0  0  0  0  0  0  0  0
   41.6400   22.6700   36.5490 C   0  0  0  0  0  0  0  0  0  0  0  0
   41.7990   21.3300   36.2100 C   0  0  0  0  0  0  0  0  0  0  0  0
   41.1070   20.4840   36.0840 H   0  0  0  0  0  0  0  0  0  0  0  0
   43.6690   21.1890   35.9670 S   0  0  0  0  0  0  0  0  0  0  0  0
   43.8400   23.0300   36.3900 C   0  0  0  0  0  0  0  0  0  0  0  0
   44.7310   23.8210   36.4810 H   0  0  0  0  0  0  0  0  0  0  0  0
   42.7790   23.3450   36.5840 N   0  0  0  0  0  0  0  0  0  0  0  0
   37.8950   25.2430   35.0500 O   0  0  0  0  0  0  0  0  0  0  0  0
   38.9060   27.4970   35.7960 O   0  0  0  0  0  0  0  0  0  0  0  0
   38.0260   26.8900   34.7620 P   0  0  1  0  0  0  0  0  0  0  0  0
   38.7710   27.0080   33.2300 O   0  0  0  0  0  0  0  0  0  0  0  0
   39.7530   26.8700   33.3620 H   0  0  0  0  0  0  0  0  0  0  0  0
   36.4750   27.5710   34.6930 O   0  0  0  0  0  0  0  0  0  0  0  0
   35.1930   30.8670   33.6290 C   0  0  0  0  0  0  0  0  0  0  0  0
   35.5560   29.8690   34.5330 C   0  0  0  0  0  0  0  0  0  0  0  0
   36.0620   28.6670   34.0220 C   0  0  0  0  0  0  0  0  0  0  0  0
   36.1700   28.5440   32.6650 N   0  0  0  0  0  0  0  0  0  0  0  0
   35.8090   29.5320   31.8220 C   0  0  0  0  0  0  0  0  0  0  0  0
   35.3220   30.6890   32.3050 N   0  0  0  0  0  0  0  0  0  0  0  0
   34.8220   31.7350   34.1280 H   0  0  0  0  0  0  0  0  0  0  0  0
   35.5010   29.8940   35.5940 H   0  0  0  0  0  0  0  0  0  0  0  0
   35.8950   29.4340   30.7470 H   0  0  0  0  0  0  0  0  0  0  0  0
  1  2  1  0  0  0  0
  2  3  2  0  0  0  0
  2  7  1  0  0  0  0
  3  4  1  0  0  0  0
  4  8  1  0  0  0  0
  4  5  2  0  0  0  0
  5  9  1  0  0  0  0
  6  5  1  0  0  0  0
  6 10  1  0  0  0  0
  7  6  2  0  0  0  0
 11 17  1  0  0  0  0
 11  7  1  0  0  0  0
 12 11  2  0  0  0  0
 13 12  1  0  0  0  0
 14 12  1  0  0  0  0
 14 15  1  0  0  0  0
 15 16  1  0  0  0  0
 15 17  2  0  0  0  0
 18  3  1  0  0  0  0
 20 18  1  0  0  0  0
 20 19  2  1  0  0  0
 21 22  1  0  0  0  0
 21 20  1  0  0  0  0
 23 20  1  0  0  0  0
 24 30  1  0  0  0  0
 24 25  1  0  0  0  0
 25 31  1  0  0  0  0
 26 25  2  0  0  0  0
 26 23  1  0  0  0  0
 27 26  1  0  0  0  0
 28 29  1  0  0  0  0
 28 27  2  0  0  0  0
 29 24  2  0  0  0  0
 32 28  1  0  0  0  0
M  END
>  <minimizedAffinity>
-5.13103962

$$$$

 OpenBabel03272508133D

 32 34  0  0  0  0  0  0  0  0999 V2000
   37.0010   24.8520   32.6310 Cl  0  0  0  0  0  0  0  0  0  0  0  0
   37.5630   25.6850   34.1040 C   0  0  0  0  0  0  0  0  0  0  0  0
   37.9790   25.0200   35.2450 C   0  0  0  0  0  0  0  0  0  0  0  0
   38.3840   25.8030   36.3030 C   0  0  0  0  0  0  0  0  0  0  0  0
   38.3830   27.1700   36.2510 C   0  0  0  0  0  0  0  0  0  0  0  0
   37.9750   27.8170   35.1330 C   0  0  0  0  0  0  0  0  0  0  0  0
   37.5560   27.0860   34.0360 C   0  0  0  0  0  0  0  0  0  0  0  0
   38.6970   25.2290   37.1630 H   0  0  0  0  0  0  0  0  0  0  0  0
   38.7220   27.6780   37.1430 H   0  0  0  0  0  0  0  0  0  0  0  0
   37.9810   28.8940   35.1100 H   0  0  0  0  0  0  0  0  0  0  0  0
   37.1030   27.7650   32.7960 C   0  0  0  0  0  0  0  0  0  0  0  0
   37.9810   27.9080   31.7270 C   0  0  0  0  0  0  0  0  0  0  0  0
   39.0280   27.6170   31.5510 H   0  0  0  0  0  0  0  0  0  0  0  0
   36.9250   28.8160   30.4490 S   0  0  0  0  0  0  0  0  0  0  0  0
   35.4760   28.8070   31.6720 C   0  0  0  0  0  0  0  0  0  0  0  0
   34.3460   29.1960   31.6840 H   0  0  0  0  0  0  0  0  0  0  0  0
   35.9040   28.2800   32.5680 N   0  0  0  0  0  0  0  0  0  0  0  0
   37.9130   23.6610   35.1180 O   0  0  0  0  0  0  0  0  0  0  0  0
   40.4240   23.2700   34.6670 O   0  0  0  0  0  0  0  0  0  0  0  0
   39.1520   22.5460   34.9290 P   0  0  1  0  0  0  0  0  0  0  0  0
   39.2460   21.7390   36.4310 O   0  0  0  0  0  0  0  0  0  0  0  0
   39.7610   22.3270   37.0560 H   0  0  0  0  0  0  0  0  0  0  0  0
   38.7280   21.4400   33.7170 O   0  0  0  0  0  0  0  0  0  0  0  0
   35.1980   20.8840   32.7840 C   0  0  0  0  0  0  0  0  0  0  0  0
   36.2880   20.9990   33.6460 C   0  0  0  0  0  0  0  0  0  0  0  0
   37.5420   21.2830   33.0900 C   0  0  0  0  0  0  0  0  0  0  0  0
   37.6220   21.4330   31.7350 N   0  0  0  0  0  0  0  0  0  0  0  0
   36.5440   21.3150   30.9330 C   0  0  0  0  0  0  0  0  0  0  0  0
   35.3370   21.0410   31.4580 N   0  0  0  0  0  0  0  0  0  0  0  0
   34.2970   20.6670   33.3150 H   0  0  0  0  0  0  0  0  0  0  0  0
   36.3010   20.8970   34.7040 H   0  0  0  0  0  0  0  0  0  0  0  0
   36.6080   21.4330   29.8590 H   0  0  0  0  0  0  0  0  0  0  0  0
  1  2  1  0  0  0  0
  2  3  1  0  0  0  0
  3  4  2  0  0  0  0
  4  8  1  0  0  0  0
  5  4  1  0  0  0  0
  5  9  1  0  0  0  0
  6  5  2  0  0  0  0
  7  2  2  0  0  0  0
  7  6  1  0  0  0  0
 10  6  1  0  0  0  0
 11  7  1  0  0  0  0
 12 11  2  0  0  0  0
 13 12  1  0  0  0  0
 14 15  1  0  0  0  0
 14 12  1  0  0  0  0
 15 16  1  0  0  0  0
 15 17  2  0  0  0  0
 17 11  1  0  0  0  0
 18  3  1  0  0  0  0
 20 19  2  6  0  0  0
 20 18  1  0  0  0  0
 20 21  1  0  0  0  0
 21 22  1  0  0  0  0
 23 20  1  0  0  0  0
 24 30  1  0  0  0  0
 24 25  1  0  0  0  0
 25 31  1  0  0  0  0
 26 25  2  0  0  0  0
 26 23  1  0  0  0  0
 27 26  1  0  0  0  0
 28 29  1  0  0  0  0
 28 27  2  0  0  0  0
 29 24  2  0  0  0  0
 32 28  1  0  0  0  0
M  END
>  <minimizedAffinity>
-5.11157799

$$$$

 OpenBabel03272508133D

 32 34  0  0  0  0  0  0  0  0999 V2000
   35.8710   26.5840   31.4150 Cl  0  0  0  0  0  0  0  0  0  0  0  0
   36.6800   26.8410   32.9830 C   0  0  0  0  0  0  0  0  0  0  0  0
   37.5030   25.9020   33.5800 C   0  0  0  0  0  0  0  0  0  0  0  0
   38.0560   26.2460   34.7940 C   0  0  0  0  0  0  0  0  0  0  0  0
   37.8160   27.4510   35.3970 C   0  0  0  0  0  0  0  0  0  0  0  0
   37.0090   28.3680   34.8090 C   0  0  0  0  0  0  0  0  0  0  0  0
   36.4240   28.0800   33.5890 C   0  0  0  0  0  0  0  0  0  0  0  0
   38.6870   25.4750   35.2100 H   0  0  0  0  0  0  0  0  0  0  0  0
   38.3050   27.6100   36.3480 H   0  0  0  0  0  0  0  0  0  0  0  0
   36.8320   29.3120   35.2990 H   0  0  0  0  0  0  0  0  0  0  0  0
   35.5370   29.0640   32.9200 C   0  0  0  0  0  0  0  0  0  0  0  0
   36.0800   30.0070   32.0540 C   0  0  0  0  0  0  0  0  0  0  0  0
   37.1000   30.2300   31.7050 H   0  0  0  0  0  0  0  0  0  0  0  0
   34.5550   30.9770   31.4980 S   0  0  0  0  0  0  0  0  0  0  0  0
   33.4770   29.8650   32.5910 C   0  0  0  0  0  0  0  0  0  0  0  0
   32.3150   29.7710   32.8560 H   0  0  0  0  0  0  0  0  0  0  0  0
   34.2220   29.1620   33.0510 N   0  0  0  0  0  0  0  0  0  0  0  0
   37.6280   24.7610   32.8390 O   0  0  0  0  0  0  0  0  0  0  0  0
   38.2140   22.3610   32.0950 O   0  0  0  0  0  0  0  0  0  0  0  0
   38.3680   23.3080   33.2310 P   0  0  1  0  0  0  0  0  0  0  0  0
   40.0170   23.7000   33.4360 O   0  0  0  0  0  0  0  0  0  0  0  0
   40.4280   23.7570   32.5250 H   0  0  0  0  0  0  0  0  0  0  0  0
   37.7350   22.7350   34.6950 O   0  0  0  0  0  0  0  0  0  0  0  0
   38.3240   23.4450   38.2710 C   0  0  0  0  0  0  0  0  0  0  0  0
   37.5990   23.4020   37.0800 C   0  0  0  0  0  0  0  0  0  0  0  0
   38.2280   22.8780   35.9440 C   0  0  0  0  0  0  0  0  0  0  0  0
   39.5150   22.4380   36.0710 N   0  0  0  0  0  0  0  0  0  0  0  0
   40.1840   22.4950   37.2410 C   0  0  0  0  0  0  0  0  0  0  0  0
   39.5870   22.9980   38.3360 N   0  0  0  0  0  0  0  0  0  0  0  0
   37.7470   23.8620   39.0680 H   0  0  0  0  0  0  0  0  0  0  0  0
   36.6010   23.7240   36.9080 H   0  0  0  0  0  0  0  0  0  0  0  0
   41.2040   22.1470   37.3400 H   0  0  0  0  0  0  0  0  0  0  0  0
  1  2  1  0  0  0  0
  2  3  2  0  0  0  0
  2  7  1  0  0  0  0
  3  4  1  0  0  0  0
  4  8  1  0  0  0  0
  4  5  2  0  0  0  0
  5  9  1  0  0  0  0
  6 10  1  0  0  0  0
  6  5  1  0  0  0  0
  7  6  2  0  0  0  0
 11 17  1  0  0  0  0
 11  7  1  0  0  0  0
 12 11  2  0  0  0  0
 13 12  1  0  0  0  0
 14 12  1  0  0  0  0
 14 15  1  0  0  0  0
 15 16  1  0  0  0  0
 15 17  2  0  0  0  0
 18 20  1  0  0  0  0
 18  3  1  0  0  0  0
 20 19  2  6  0  0  0
 20 21  1  0  0  0  0
 20 23  1  0  0  0  0
 22 21  1  0  0  0  0
 23 26  1  0  0  0  0
 24 29  1  0  0  0  0
 24 30  1  0  0  0  0
 25 24  2  0  0  0  0
 26 27  2  0  0  0  0
 26 25  1  0  0  0  0
 27 28  1  0  0  0  0
 28 32  1  0  0  0  0
 28 29  2  0  0  0  0
 31 25  1  0  0  0  0
M  END
>  <minimizedAffinity>
-5.03893471

$$$$

 OpenBabel03272508133D

 32 34  0  0  0  0  0  0  0  0999 V2000
   36.6090   27.8560   34.6930 Cl  0  0  0  0  0  0  0  0  0  0  0  0
   36.4850   28.5200   33.0430 C   0  0  0  0  0  0  0  0  0  0  0  0
   37.0420   27.9110   31.9320 C   0  0  0  0  0  0  0  0  0  0  0  0
   36.8620   28.5470   30.7230 C   0  0  0  0  0  0  0  0  0  0  0  0
   36.1710   29.7220   30.6050 C   0  0  0  0  0  0  0  0  0  0  0  0
   35.6270   30.3150   31.6960 C   0  0  0  0  0  0  0  0  0  0  0  0
   35.7750   29.7250   32.9380 C   0  0  0  0  0  0  0  0  0  0  0  0
   37.3180   28.0250   29.8940 H   0  0  0  0  0  0  0  0  0  0  0  0
   36.0950   30.1270   29.6060 H   0  0  0  0  0  0  0  0  0  0  0  0
   35.0860   31.2400   31.5830 H   0  0  0  0  0  0  0  0  0  0  0  0
   35.1900   30.3490   34.1510 C   0  0  0  0  0  0  0  0  0  0  0  0
   33.8310   30.2100   34.4130 C   0  0  0  0  0  0  0  0  0  0  0  0
   32.9990   29.7060   33.8990 H   0  0  0  0  0  0  0  0  0  0  0  0
   33.6270   31.1700   36.0290 S   0  0  0  0  0  0  0  0  0  0  0  0
   35.4810   31.5660   36.0030 C   0  0  0  0  0  0  0  0  0  0  0  0
   36.2520   32.1660   36.6920 H   0  0  0  0  0  0  0  0  0  0  0  0
   35.8350   31.0610   35.0640 N   0  0  0  0  0  0  0  0  0  0  0  0
   37.6940   26.7490   32.2370 O   0  0  0  0  0  0  0  0  0  0  0  0
   35.8630   24.9660   31.8790 O   0  0  0  0  0  0  0  0  0  0  0  0
   37.3330   25.1740   31.7880 P   0  0  1  0  0  0  0  0  0  0  0  0
   37.8320   25.0580   30.1590 O   0  0  0  0  0  0  0  0  0  0  0  0
   37.1150   25.4700   29.5950 H   0  0  0  0  0  0  0  0  0  0  0  0
   38.2390   24.1010   32.7370 O   0  0  0  0  0  0  0  0  0  0  0  0
   38.0890   24.1810   36.4260 C   0  0  0  0  0  0  0  0  0  0  0  0
   38.2570   24.7020   35.1430 C   0  0  0  0  0  0  0  0  0  0  0  0
   38.1230   23.8300   34.0540 C   0  0  0  0  0  0  0  0  0  0  0  0
   37.8340   22.5210   34.3150 N   0  0  0  0  0  0  0  0  0  0  0  0
   37.6790   22.0540   35.5710 C   0  0  0  0  0  0  0  0  0  0  0  0
   37.8060   22.8840   36.6210 N   0  0  0  0  0  0  0  0  0  0  0  0
   38.2120   24.9320   37.1750 H   0  0  0  0  0  0  0  0  0  0  0  0
   38.4800   25.7030   34.8660 H   0  0  0  0  0  0  0  0  0  0  0  0
   37.4500   21.0160   35.7770 H   0  0  0  0  0  0  0  0  0  0  0  0
  2  1  1  0  0  0  0
  3 18  1  0  0  0  0
  3  2  2  0  0  0  0
  4  3  1  0  0  0  0
  5  4  2  0  0  0  0
  5  6  1  0  0  0  0
  6  7  2  0  0  0  0
  7  2  1  0  0  0  0
  7 11  1  0  0  0  0
  8  4  1  0  0  0  0
  9  5  1  0  0  0  0
 10  6  1  0  0  0  0
 11 12  2  0  0  0  0
 11 17  1  0  0  0  0
 12 14  1  0  0  0  0
 13 12  1  0  0  0  0
 15 14  1  0  0  0  0
 15 16  1  0  0  0  0
 17 15  2  0  0  0  0
 20 19  2  1  0  0  0
 20 18  1  0  0  0  0
 20 23  1  0  0  0  0
 21 20  1  0  0  0  0
 22 21  1  0  0  0  0
 23 26  1  0  0  0  0
 24 29  1  0  0  0  0
 24 30  1  0  0  0  0
 25 24  2  0  0  0  0
 26 27  2  0  0  0  0
 26 25  1  0  0  0  0
 27 28  1  0  0  0  0
 28 32  1  0  0  0  0
 28 29  2  0  0  0  0
 31 25  1  0  0  0  0
M  END
>  <minimizedAffinity>
-5.02650404

$$$$

 OpenBabel03272508133D

 32 34  0  0  0  0  0  0  0  0999 V2000
   37.8320   22.9770   34.3620 Cl  0  0  0  0  0  0  0  0  0  0  0  0
   38.5600   24.5950   34.1770 C   0  0  0  0  0  0  0  0  0  0  0  0
   37.9730   25.6170   33.4520 C   0  0  0  0  0  0  0  0  0  0  0  0
   38.6580   26.8110   33.4010 C   0  0  0  0  0  0  0  0  0  0  0  0
   39.8610   26.9970   34.0270 C   0  0  0  0  0  0  0  0  0  0  0  0
   40.4320   25.9930   34.7350 C   0  0  0  0  0  0  0  0  0  0  0  0
   39.7920   24.7700   34.8240 C   0  0  0  0  0  0  0  0  0  0  0  0
   38.1510   27.5700   32.8230 H   0  0  0  0  0  0  0  0  0  0  0  0
   40.3050   27.9770   33.9160 H   0  0  0  0  0  0  0  0  0  0  0  0
   41.3800   26.1580   35.2220 H   0  0  0  0  0  0  0  0  0  0  0  0
   40.3920   23.6510   35.5920 C   0  0  0  0  0  0  0  0  0  0  0  0
   41.4230   22.9030   35.0330 C   0  0  0  0  0  0  0  0  0  0  0  0
   41.9590   22.9350   34.0720 H   0  0  0  0  0  0  0  0  0  0  0  0
   41.8010   21.6470   36.3940 S   0  0  0  0  0  0  0  0  0  0  0  0
   40.4410   22.4260   37.4610 C   0  0  0  0  0  0  0  0  0  0  0  0
   39.9750   22.2420   38.5460 H   0  0  0  0  0  0  0  0  0  0  0  0
   40.0490   23.2520   36.8080 N   0  0  0  0  0  0  0  0  0  0  0  0
   36.7780   25.2540   32.8980 O   0  0  0  0  0  0  0  0  0  0  0  0
   35.5930   26.3030   30.8600 O   0  0  0  0  0  0  0  0  0  0  0  0
   36.3540   25.0980   31.2830 P   0  0  1  0  0  0  0  0  0  0  0  0
   37.8410   25.0320   30.4460 O   0  0  0  0  0  0  0  0  0  0  0  0
   38.1750   25.9710   30.3520 H   0  0  0  0  0  0  0  0  0  0  0  0
   35.5150   23.6410   31.0630 O   0  0  0  0  0  0  0  0  0  0  0  0
   35.6870   20.2810   32.5850 C   0  0  0  0  0  0  0  0  0  0  0  0
   35.1250   21.5240   32.2930 C   0  0  0  0  0  0  0  0  0  0  0  0
   35.8500   22.4010   31.4770 C   0  0  0  0  0  0  0  0  0  0  0  0
   37.0670   21.9860   31.0150 N   0  0  0  0  0  0  0  0  0  0  0  0
   37.5780   20.7750   31.3190 C   0  0  0  0  0  0  0  0  0  0  0  0
   36.8870   19.9270   32.1010 N   0  0  0  0  0  0  0  0  0  0  0  0
   35.0480   19.6970   33.2120 H   0  0  0  0  0  0  0  0  0  0  0  0
   34.1890   21.9120   32.6150 H   0  0  0  0  0  0  0  0  0  0  0  0
   38.5420   20.4470   30.9520 H   0  0  0  0  0  0  0  0  0  0  0  0
  2  1  1  0  0  0  0
  2  7  1  0  0  0  0
  3  2  2  0  0  0  0
  4  3  1  0  0  0  0
  4  5  2  0  0  0  0
  5  6  1  0  0  0  0
  6  7  2  0  0  0  0
  6 10  1  0  0  0  0
  7 11  1  0  0  0  0
  8  4  1  0  0  0  0
  9  5  1  0  0  0  0
 11 17  1  0  0  0  0
 12 11  2  0  0  0  0
 12 14  1  0  0  0  0
 13 12  1  0  0  0  0
 14 15  1  0  0  0  0
 15 16  1  0  0  0  0
 17 15  2  0  0  0  0
 18  3  1  0  0  0  0
 20 19  2  6  0  0  0
 20 18  1  0  0  0  0
 21 20  1  0  0  0  0
 22 21  1  0  0  0  0
 23 20  1  0  0  0  0
 23 26  1  0  0  0  0
 24 30  1  0  0  0  0
 25 24  1  0  0  0  0
 25 31  1  0  0  0  0
 26 25  2  0  0  0  0
 27 28  2  0  0  0  0
 27 26  1  0  0  0  0
 28 29  1  0  0  0  0
 29 24  2  0  0  0  0
 32 28  1  0  0  0  0
M  END
>  <minimizedAffinity>
-4.99711037

$$$$

 OpenBabel03272508133D

 32 34  0  0  0  0  0  0  0  0999 V2000
   38.4100   26.4730   34.1510 Cl  0  0  0  0  0  0  0  0  0  0  0  0
   37.7360   25.0660   33.2880 C   0  0  0  0  0  0  0  0  0  0  0  0
   37.9630   23.7550   33.6710 C   0  0  0  0  0  0  0  0  0  0  0  0
   37.3740   22.7750   32.9020 C   0  0  0  0  0  0  0  0  0  0  0  0
   36.6000   23.0620   31.8100 C   0  0  0  0  0  0  0  0  0  0  0  0
   36.3800   24.3470   31.4380 C   0  0  0  0  0  0  0  0  0  0  0  0
   36.9450   25.3750   32.1710 C   0  0  0  0  0  0  0  0  0  0  0  0
   37.5860   21.7750   33.2500 H   0  0  0  0  0  0  0  0  0  0  0  0
   36.1910   22.2110   31.2840 H   0  0  0  0  0  0  0  0  0  0  0  0
   35.7690   24.5530   30.5760 H   0  0  0  0  0  0  0  0  0  0  0  0
   36.7230   26.7920   31.7900 C   0  0  0  0  0  0  0  0  0  0  0  0
   37.5200   27.3770   30.8110 C   0  0  0  0  0  0  0  0  0  0  0  0
   38.3540   27.0210   30.1880 H   0  0  0  0  0  0  0  0  0  0  0  0
   36.8320   29.1360   30.7220 S   0  0  0  0  0  0  0  0  0  0  0  0
   35.5740   28.6890   32.0690 C   0  0  0  0  0  0  0  0  0  0  0  0
   34.6930   29.2450   32.6540 H   0  0  0  0  0  0  0  0  0  0  0  0
   35.8140   27.6140   32.2920 N   0  0  0  0  0  0  0  0  0  0  0  0
   38.7560   23.6580   34.7790 O   0  0  0  0  0  0  0  0  0  0  0  0
   37.3600   24.2900   36.8560 O   0  0  0  0  0  0  0  0  0  0  0  0
   38.3390   23.2860   36.3610 P   0  0  1  0  0  0  0  0  0  0  0  0
   37.5930   21.7530   36.2660 O   0  0  0  0  0  0  0  0  0  0  0  0
   36.6490   21.8960   35.9640 H   0  0  0  0  0  0  0  0  0  0  0  0
   39.7460   23.1740   37.2990 O   0  0  0  0  0  0  0  0  0  0  0  0
   43.1300   22.6210   35.9270 C   0  0  0  0  0  0  0  0  0  0  0  0
   41.9390   23.3130   36.1490 C   0  0  0  0  0  0  0  0  0  0  0  0
   40.9620   22.7050   36.9480 C   0  0  0  0  0  0  0  0  0  0  0  0
   41.2350   21.4700   37.4640 N   0  0  0  0  0  0  0  0  0  0  0  0
   42.4000   20.8320   37.2280 C   0  0  0  0  0  0  0  0  0  0  0  0
   43.3430   21.4090   36.4610 N   0  0  0  0  0  0  0  0  0  0  0  0
   43.7990   23.1770   35.3070 H   0  0  0  0  0  0  0  0  0  0  0  0
   41.6590   24.2700   35.7830 H   0  0  0  0  0  0  0  0  0  0  0  0
   42.6160   19.8540   37.6370 H   0  0  0  0  0  0  0  0  0  0  0  0
  2  3  1  0  0  0  0
  2  1  1  0  0  0  0
  3 18  1  0  0  0  0
  4  8  1  0  0  0  0
  4  3  2  0  0  0  0
  5  4  1  0  0  0  0
  6  5  2  0  0  0  0
  6  7  1  0  0  0  0
  7  2  2  0  0  0  0
  9  5  1  0  0  0  0
 10  6  1  0  0  0  0
 11  7  1  0  0  0  0
 11 17  1  0  0  0  0
 12 11  2  0  0  0  0
 13 12  1  0  0  0  0
 14 12  1  0  0  0  0
 14 15  1  0  0  0  0
 15 17  2  0  0  0  0
 15 16  1  0  0  0  0
 18 20  1  0  0  0  0
 20 19  2  1  0  0  0
 20 23  1  0  0  0  0
 21 20  1  0  0  0  0
 22 21  1  0  0  0  0
 24 25  2  0  0  0  0
 24 29  1  0  0  0  0
 25 26  1  0  0  0  0
 26 23  1  0  0  0  0
 26 27  2  0  0  0  0
 28 27  1  0  0  0  0
 28 32  1  0  0  0  0
 29 28  2  0  0  0  0
 30 24  1  0  0  0  0
 31 25  1  0  0  0  0
M  END
>  <minimizedAffinity>
-4.99547291

$$$$
