
 OpenBabel03272508123D

 32 34  0  0  0  0  0  0  0  0999 V2000
   36.6090   29.4850   44.0660 Cl  0  0  0  0  0  0  0  0  0  0  0  0
   38.2600   29.8460   43.4960 C   0  0  0  0  0  0  0  0  0  0  0  0
   39.2680   30.3100   44.3220 C   0  0  0  0  0  0  0  0  0  0  0  0
   40.4920   30.5440   43.7330 C   0  0  0  0  0  0  0  0  0  0  0  0
   40.7190   30.3360   42.4000 C   0  0  0  0  0  0  0  0  0  0  0  0
   39.7290   29.8820   41.5940 C   0  0  0  0  0  0  0  0  0  0  0  0
   38.4780   29.6280   42.1270 C   0  0  0  0  0  0  0  0  0  0  0  0
   41.2370   30.9040   44.4270 H   0  0  0  0  0  0  0  0  0  0  0  0
   41.7180   30.5550   42.0510 H   0  0  0  0  0  0  0  0  0  0  0  0
   39.9260   29.7240   40.5470 H   0  0  0  0  0  0  0  0  0  0  0  0
   37.3720   29.1300   41.2710 C   0  0  0  0  0  0  0  0  0  0  0  0
   36.5870   30.0330   40.5620 C   0  0  0  0  0  0  0  0  0  0  0  0
   36.5770   31.1300   40.4660 H   0  0  0  0  0  0  0  0  0  0  0  0
   35.3680   28.8990   39.6650 S   0  0  0  0  0  0  0  0  0  0  0  0
   36.2080   27.4000   40.4670 C   0  0  0  0  0  0  0  0  0  0  0  0
   36.0680   26.2130   40.4490 H   0  0  0  0  0  0  0  0  0  0  0  0
   37.0210   27.8660   41.0880 N   0  0  0  0  0  0  0  0  0  0  0  0
   38.8630   30.4590   45.6190 O   0  0  0  0  0  0  0  0  0  0  0  0
   39.4430   32.4800   47.1130 O   0  0  0  0  0  0  0  0  0  0  0  0
   38.3060   31.8270   46.4130 P   0  0  1  0  0  0  0  0  0  0  0  0
   37.7290   32.8480   45.1710 O   0  0  0  0  0  0  0  0  0  0  0  0
   38.5220   33.3060   44.7660 H   0  0  0  0  0  0  0  0  0  0  0  0
   37.0230   31.3970   47.4350 O   0  0  0  0  0  0  0  0  0  0  0  0
   37.6120   30.5330   50.9770 C   0  0  0  0  0  0  0  0  0  0  0  0
   37.7070   31.3020   49.8170 C   0  0  0  0  0  0  0  0  0  0  0  0
   37.0710   30.8330   48.6610 C   0  0  0  0  0  0  0  0  0  0  0  0
   36.3940   29.6490   48.7380 N   0  0  0  0  0  0  0  0  0  0  0  0
   36.3240   28.9340   49.8790 C   0  0  0  0  0  0  0  0  0  0  0  0
   36.9320   29.3770   50.9940 N   0  0  0  0  0  0  0  0  0  0  0  0
   38.1320   30.9850   51.7930 H   0  0  0  0  0  0  0  0  0  0  0  0
   38.2130   32.2270   49.6830 H   0  0  0  0  0  0  0  0  0  0  0  0
   35.7870   27.9950   49.9400 H   0  0  0  0  0  0  0  0  0  0  0  0
  2  1  1  0  0  0  0
  2  3  1  0  0  0  0
  3 18  1  0  0  0  0
  4  3  2  0  0  0  0
  4  8  1  0  0  0  0
  5  4  1  0  0  0  0
  6  7  1  0  0  0  0
  6  5  2  0  0  0  0
  7  2  2  0  0  0  0
  9  5  1  0  0  0  0
 10  6  1  0  0  0  0
 11  7  1  0  0  0  0
 12 11  2  0  0  0  0
 13 12  1  0  0  0  0
 14 15  1  0  0  0  0
 14 12  1  0  0  0  0
 15 17  2  0  0  0  0
 16 15  1  0  0  0  0
 17 11  1  0  0  0  0
 18 20  1  0  0  0  0
 20 19  2  1  0  0  0
 20 23  1  0  0  0  0
 21 20  1  0  0  0  0
 22 21  1  0  0  0  0
 23 26  1  0  0  0  0
 24 29  1  0  0  0  0
 24 30  1  0  0  0  0
 25 24  2  0  0  0  0
 26 27  2  0  0  0  0
 26 25  1  0  0  0  0
 27 28  1  0  0  0  0
 28 32  1  0  0  0  0
 28 29  2  0  0  0  0
 31 25  1  0  0  0  0
M  END
>  <minimizedAffinity>
-4.80121756

>  <minimizedRMSD>
0.297327459

$$$$
