
 OpenBabel03272510213D

 34 37  0  0  0  0  0  0  0  0999 V2000
   37.4120   29.2050   50.8880 Br  0  0  0  0  0  0  0  0  0  0  0  0
   36.0140   29.2700   49.5970 C   0  0  0  0  0  0  0  0  0  0  0  0
   36.0010   30.2480   48.6090 C   0  0  0  0  0  0  0  0  0  0  0  0
   34.9600   30.2290   47.7130 C   0  0  0  0  0  0  0  0  0  0  0  0
   33.9370   29.3000   47.7440 C   0  0  0  0  0  0  0  0  0  0  0  0
   33.9840   28.3460   48.7370 C   0  0  0  0  0  0  0  0  0  0  0  0
   35.0160   28.3400   49.6490 C   0  0  0  0  0  0  0  0  0  0  0  0
   34.9060   30.9690   46.9280 H   0  0  0  0  0  0  0  0  0  0  0  0
   33.2130   27.5860   48.8190 H   0  0  0  0  0  0  0  0  0  0  0  0
   35.0150   27.5720   50.4160 H   0  0  0  0  0  0  0  0  0  0  0  0
   38.0050   33.1720   49.4410 C   0  0  0  0  0  0  0  0  0  0  0  0
   39.0200   33.1650   48.4500 C   0  0  0  0  0  0  0  0  0  0  0  0
   38.9970   32.1560   47.5140 C   0  0  0  0  0  0  0  0  0  0  0  0
   38.0100   31.2220   47.5870 N   0  0  0  0  0  0  0  0  0  0  0  0
   37.0500   31.2430   48.5360 C   0  0  0  0  0  0  0  0  0  0  0  0
   37.0610   32.2290   49.4600 N   0  0  0  0  0  0  0  0  0  0  0  0
   38.0840   33.9920   50.1420 H   0  0  0  0  0  0  0  0  0  0  0  0
   39.8170   33.8780   48.3540 H   0  0  0  0  0  0  0  0  0  0  0  0
   39.6650   31.9810   46.7020 H   0  0  0  0  0  0  0  0  0  0  0  0
   32.8430   29.2800   46.8030 C   0  0  0  0  0  0  0  0  0  0  0  0
   32.0100   28.1960   46.5820 C   0  0  0  0  0  0  0  0  0  0  0  0
   30.9690   28.2060   45.6740 C   0  0  0  0  0  0  0  0  0  0  0  0
   30.7480   29.3260   44.9630 N   0  0  0  0  0  0  0  0  0  0  0  0
   31.5450   30.3870   45.1630 C   0  0  0  0  0  0  0  0  0  0  0  0
   32.5520   30.3510   46.0540 N   0  0  0  0  0  0  0  0  0  0  0  0
   32.1940   27.2860   47.1660 H   0  0  0  0  0  0  0  0  0  0  0  0
   30.3870   27.3070   45.5860 H   0  0  0  0  0  0  0  0  0  0  0  0
   31.2150   31.5490   44.3350 C   0  0  0  0  0  0  0  0  0  0  0  0
   31.7380   32.7520   44.9670 C   0  0  0  0  0  0  0  0  0  0  0  0
   32.2960   33.0170   45.8660 H   0  0  0  0  0  0  0  0  0  0  0  0
   31.2170   34.1180   43.7690 S   0  0  0  0  0  0  0  0  0  0  0  0
   30.4040   32.7980   42.6670 C   0  0  0  0  0  0  0  0  0  0  0  0
   29.7840   32.5930   41.6480 H   0  0  0  0  0  0  0  0  0  0  0  0
   30.5950   31.8370   43.2090 N   0  0  0  0  0  0  0  0  0  0  0  0
  2  7  1  0  0  0  0
  2  1  1  0  0  0  0
  3  2  2  0  0  0  0
  4  5  2  0  0  0  0
  4  3  1  0  0  0  0
  5  6  1  0  0  0  0
  6  9  1  0  0  0  0
  6  7  2  0  0  0  0
  7 10  1  0  0  0  0
  8  4  1  0  0  0  0
 11 16  1  0  0  0  0
 11 17  1  0  0  0  0
 12 11  2  0  0  0  0
 13 14  2  0  0  0  0
 13 12  1  0  0  0  0
 14 15  1  0  0  0  0
 15  3  1  0  0  0  0
 15 16  2  0  0  0  0
 18 12  1  0  0  0  0
 19 13  1  0  0  0  0
 20  5  1  0  0  0  0
 21 20  1  0  0  0  0
 21 26  1  0  0  0  0
 22 21  2  0  0  0  0
 23 24  2  0  0  0  0
 23 22  1  0  0  0  0
 24 25  1  0  0  0  0
 25 20  2  0  0  0  0
 27 22  1  0  0  0  0
 28 29  2  0  0  0  0
 28 24  1  0  0  0  0
 29 30  1  0  0  0  0
 31 29  1  0  0  0  0
 32 34  2  0  0  0  0
 32 31  1  0  0  0  0
 33 32  1  0  0  0  0
 34 28  1  0  0  0  0
M  END
>  <minimizedAffinity>
-6.3088932

>  <minimizedRMSD>
0.337342054

$$$$
