
 OpenBabel03272510203D

 34 37  0  0  0  0  0  0  0  0999 V2000
   37.4770   29.1850   50.8290 Br  0  0  0  0  0  0  0  0  0  0  0  0
   36.0520   29.2950   49.5710 C   0  0  0  0  0  0  0  0  0  0  0  0
   36.0240   30.3000   48.6110 C   0  0  0  0  0  0  0  0  0  0  0  0
   34.9630   30.3130   47.7390 C   0  0  0  0  0  0  0  0  0  0  0  0
   33.9340   29.3900   47.7670 C   0  0  0  0  0  0  0  0  0  0  0  0
   33.9950   28.4100   48.7320 C   0  0  0  0  0  0  0  0  0  0  0  0
   35.0470   28.3710   49.6200 C   0  0  0  0  0  0  0  0  0  0  0  0
   34.8980   31.0760   46.9760 H   0  0  0  0  0  0  0  0  0  0  0  0
   33.2210   27.6530   48.8100 H   0  0  0  0  0  0  0  0  0  0  0  0
   35.0580   27.5820   50.3660 H   0  0  0  0  0  0  0  0  0  0  0  0
   38.0430   33.2100   49.4550 C   0  0  0  0  0  0  0  0  0  0  0  0
   39.0600   33.2000   48.4650 C   0  0  0  0  0  0  0  0  0  0  0  0
   39.0320   32.1950   47.5250 C   0  0  0  0  0  0  0  0  0  0  0  0
   38.0390   31.2670   47.5940 N   0  0  0  0  0  0  0  0  0  0  0  0
   37.0780   31.2900   48.5430 C   0  0  0  0  0  0  0  0  0  0  0  0
   37.0950   32.2720   49.4710 N   0  0  0  0  0  0  0  0  0  0  0  0
   38.1270   34.0270   50.1590 H   0  0  0  0  0  0  0  0  0  0  0  0
   39.8600   33.9090   48.3720 H   0  0  0  0  0  0  0  0  0  0  0  0
   39.6990   32.0190   46.7130 H   0  0  0  0  0  0  0  0  0  0  0  0
   32.8200   29.4050   46.8500 C   0  0  0  0  0  0  0  0  0  0  0  0
   31.9190   28.3650   46.6840 C   0  0  0  0  0  0  0  0  0  0  0  0
   30.8600   28.4060   45.7980 C   0  0  0  0  0  0  0  0  0  0  0  0
   30.6890   29.5140   45.0550 N   0  0  0  0  0  0  0  0  0  0  0  0
   31.5500   30.5310   45.2010 C   0  0  0  0  0  0  0  0  0  0  0  0
   32.5750   30.4650   46.0720 N   0  0  0  0  0  0  0  0  0  0  0  0
   32.0640   27.4650   47.2950 H   0  0  0  0  0  0  0  0  0  0  0  0
   30.2250   27.5410   45.7540 H   0  0  0  0  0  0  0  0  0  0  0  0
   31.2700   31.6830   44.3410 C   0  0  0  0  0  0  0  0  0  0  0  0
   32.4850   32.0630   43.6340 C   0  0  0  0  0  0  0  0  0  0  0  0
   33.5210   31.7310   43.5710 H   0  0  0  0  0  0  0  0  0  0  0  0
   31.9240   33.5400   42.5970 S   0  0  0  0  0  0  0  0  0  0  0  0
   30.1770   33.3470   43.3220 C   0  0  0  0  0  0  0  0  0  0  0  0
   29.0460   33.7800   43.3320 H   0  0  0  0  0  0  0  0  0  0  0  0
   30.2670   32.4720   44.0160 N   0  0  0  0  0  0  0  0  0  0  0  0
  2  7  1  0  0  0  0
  2  1  1  0  0  0  0
  3  2  2  0  0  0  0
  4  5  2  0  0  0  0
  4  3  1  0  0  0  0
  5  6  1  0  0  0  0
  6  9  1  0  0  0  0
  6  7  2  0  0  0  0
  7 10  1  0  0  0  0
  8  4  1  0  0  0  0
 11 16  1  0  0  0  0
 11 17  1  0  0  0  0
 12 11  2  0  0  0  0
 13 14  2  0  0  0  0
 13 12  1  0  0  0  0
 14 15  1  0  0  0  0
 15  3  1  0  0  0  0
 15 16  2  0  0  0  0
 18 12  1  0  0  0  0
 19 13  1  0  0  0  0
 20  5  1  0  0  0  0
 21 20  1  0  0  0  0
 21 26  1  0  0  0  0
 22 21  2  0  0  0  0
 23 24  2  0  0  0  0
 23 22  1  0  0  0  0
 24 25  1  0  0  0  0
 25 20  2  0  0  0  0
 27 22  1  0  0  0  0
 28 24  1  0  0  0  0
 29 28  2  0  0  0  0
 30 29  1  0  0  0  0
 31 32  1  0  0  0  0
 31 29  1  0  0  0  0
 32 33  1  0  0  0  0
 32 34  2  0  0  0  0
 34 28  1  0  0  0  0
M  END
>  <minimizedAffinity>
-6.22293472

>  <minimizedRMSD>
0.375843823

$$$$
