
 OpenBabel03272510073D

 28 30  0  0  0  0  0  0  0  0999 V2000
   35.9750   29.0610   49.2650 C   0  0  0  0  0  0  0  0  0  0  0  0
   35.9200   30.2340   48.5090 C   0  0  0  0  0  0  0  0  0  0  0  0
   34.8150   30.4240   47.6800 C   0  0  0  0  0  0  0  0  0  0  0  0
   33.8480   29.4650   47.6450 N   0  0  0  0  0  0  0  0  0  0  0  0
   33.9450   28.3400   48.3980 C   0  0  0  0  0  0  0  0  0  0  0  0
   34.9900   28.1310   49.2010 N   0  0  0  0  0  0  0  0  0  0  0  0
   32.8780   27.3780   48.2980 N   0  0  0  0  0  0  0  0  0  0  0  0
   31.5000   27.6530   48.6290 C   0  0  0  0  0  0  0  0  0  0  0  0
   30.7490   26.4640   48.1250 C   0  0  0  0  0  0  0  0  0  0  0  0
   31.7220   25.6470   47.3060 C   0  0  0  0  0  0  0  0  0  0  0  0
   33.0650   25.9980   47.8450 C   0  0  0  0  0  0  0  0  0  0  0  0
   36.8260   28.8910   49.9190 H   0  0  0  0  0  0  0  0  0  0  0  0
   34.7070   31.3080   47.0670 H   0  0  0  0  0  0  0  0  0  0  0  0
   31.4290   27.6770   49.7390 H   0  0  0  0  0  0  0  0  0  0  0  0
   31.1140   28.5690   48.1520 H   0  0  0  0  0  0  0  0  0  0  0  0
   30.3590   25.8550   48.9520 H   0  0  0  0  0  0  0  0  0  0  0  0
   29.8840   26.7860   47.4850 H   0  0  0  0  0  0  0  0  0  0  0  0
   31.6500   25.9740   46.2500 H   0  0  0  0  0  0  0  0  0  0  0  0
   31.5460   24.5710   47.4370 H   0  0  0  0  0  0  0  0  0  0  0  0
   33.3970   25.3500   48.6750 H   0  0  0  0  0  0  0  0  0  0  0  0
   33.8410   26.0370   47.0550 H   0  0  0  0  0  0  0  0  0  0  0  0
   36.9900   31.2430   48.5790 C   0  0  0  0  0  0  0  0  0  0  0  0
   37.1430   32.0700   49.7190 C   0  0  0  0  0  0  0  0  0  0  0  0
   36.5250   32.0830   50.6620 H   0  0  0  0  0  0  0  0  0  0  0  0
   38.5840   33.1130   49.2890 S   0  0  0  0  0  0  0  0  0  0  0  0
   38.7410   32.2390   47.6080 C   0  0  0  0  0  0  0  0  0  0  0  0
   39.4720   32.3620   46.7210 H   0  0  0  0  0  0  0  0  0  0  0  0
   37.8960   31.4930   47.6380 N   0  0  0  0  0  0  0  0  0  0  0  0
  1 12  1  0  0  0  0
  2 22  1  0  0  0  0
  2  1  2  0  0  0  0
  3  2  1  0  0  0  0
  4  3  2  0  0  0  0
  4  5  1  0  0  0  0
  5  6  2  0  0  0  0
  6  1  1  0  0  0  0
  7  5  1  0  0  0  0
  7  8  1  0  0  0  0
  8 14  1  0  0  0  0
  9  8  1  0  0  0  0
  9 16  1  0  0  0  0
 10 19  1  0  0  0  0
 10 11  1  0  0  0  0
 10  9  1  0  0  0  0
 11  7  1  0  0  0  0
 11 20  1  0  0  0  0
 13  3  1  0  0  0  0
 15  8  1  0  0  0  0
 17  9  1  0  0  0  0
 18 10  1  0  0  0  0
 21 11  1  0  0  0  0
 22 23  2  0  0  0  0
 23 24  1  0  0  0  0
 25 23  1  0  0  0  0
 26 28  2  0  0  0  0
 26 25  1  0  0  0  0
 27 26  1  0  0  0  0
 28 22  1  0  0  0  0
M  END
>  <minimizedAffinity>
-4.7805047

>  <minimizedRMSD>
4.3294034

$$$$
