
 OpenBabel03262523043D

 24 26  0  0  0  0  0  0  0  0999 V2000
   38.3780   24.5880   36.2560 C   0  0  0  0  0  0  0  0  0  0  0  0
   37.8690   24.5830   37.5070 C   0  0  0  0  0  0  0  0  0  0  0  0
   38.3860   23.7530   38.4590 C   0  0  0  0  0  0  0  0  0  0  0  0
   39.4120   22.9290   38.1540 N   0  0  0  0  0  0  0  0  0  0  0  0
   39.9110   22.9420   36.9040 C   0  0  0  0  0  0  0  0  0  0  0  0
   39.4120   23.7590   35.9440 N   0  0  0  0  0  0  0  0  0  0  0  0
   37.0460   25.2480   37.7390 H   0  0  0  0  0  0  0  0  0  0  0  0
   37.9700   23.7530   39.4700 H   0  0  0  0  0  0  0  0  0  0  0  0
   36.9950   27.4770   34.4680 C   0  0  0  0  0  0  0  0  0  0  0  0
   36.9310   27.0320   33.1490 C   0  0  0  0  0  0  0  0  0  0  0  0
   37.3720   25.7220   32.8890 C   0  0  0  0  0  0  0  0  0  0  0  0
   37.8340   24.9600   33.9240 N   0  0  0  0  0  0  0  0  0  0  0  0
   37.8730   25.4470   35.1940 C   0  0  0  0  0  0  0  0  0  0  0  0
   37.4540   26.6990   35.4480 N   0  0  0  0  0  0  0  0  0  0  0  0
   36.6370   28.4940   34.5820 H   0  0  0  0  0  0  0  0  0  0  0  0
   36.5940   27.5270   32.2700 H   0  0  0  0  0  0  0  0  0  0  0  0
   37.4080   25.1870   31.9520 H   0  0  0  0  0  0  0  0  0  0  0  0
   41.0320   22.0600   36.5250 C   0  0  0  0  0  0  0  0  0  0  0  0
   41.4590   21.9830   35.2390 C   0  0  0  0  0  0  0  0  0  0  0  0
   41.0790   22.5130   34.3420 H   0  0  0  0  0  0  0  0  0  0  0  0
   42.8500   20.7610   35.3300 S   0  0  0  0  0  0  0  0  0  0  0  0
   42.5620   20.5840   37.2120 C   0  0  0  0  0  0  0  0  0  0  0  0
   43.1360   19.9380   37.8790 H   0  0  0  0  0  0  0  0  0  0  0  0
   41.6930   21.3010   37.3580 N   0  0  0  0  0  0  0  0  0  0  0  0
  1  2  1  0  0  0  0
  2  7  1  0  0  0  0
  2  3  2  0  0  0  0
  3  8  1  0  0  0  0
  4  3  1  0  0  0  0
  5  4  2  0  0  0  0
  6  1  2  0  0  0  0
  6  5  1  0  0  0  0
  9 15  1  0  0  0  0
  9 14  1  0  0  0  0
 10  9  2  0  0  0  0
 11 10  1  0  0  0  0
 11 12  2  0  0  0  0
 12 13  1  0  0  0  0
 13 14  2  0  0  0  0
 13  1  1  0  0  0  0
 16 10  1  0  0  0  0
 17 11  1  0  0  0  0
 18  5  1  0  0  0  0
 18 24  1  0  0  0  0
 19 21  1  0  0  0  0
 19 18  2  0  0  0  0
 20 19  1  0  0  0  0
 21 22  1  0  0  0  0
 22 24  2  0  0  0  0
 22 23  1  0  0  0  0
M  END
>  <minimizedAffinity>
-4.60786343

$$$$

 OpenBabel03262523043D

 24 26  0  0  0  0  0  0  0  0999 V2000
   39.8180   22.9800   36.9100 C   0  0  0  0  0  0  0  0  0  0  0  0
   39.2600   23.0350   38.1380 C   0  0  0  0  0  0  0  0  0  0  0  0
   38.2260   23.8900   38.3880 C   0  0  0  0  0  0  0  0  0  0  0  0
   37.7540   24.6880   37.4050 N   0  0  0  0  0  0  0  0  0  0  0  0
   38.3190   24.6250   36.1850 C   0  0  0  0  0  0  0  0  0  0  0  0
   39.3470   23.7830   35.9160 N   0  0  0  0  0  0  0  0  0  0  0  0
   39.6470   22.3900   38.9170 H   0  0  0  0  0  0  0  0  0  0  0  0
   37.7770   23.9300   39.3850 H   0  0  0  0  0  0  0  0  0  0  0  0
   42.5680   20.5700   37.2070 C   0  0  0  0  0  0  0  0  0  0  0  0
   43.0060   20.4260   35.8910 C   0  0  0  0  0  0  0  0  0  0  0  0
   42.3370   21.1720   34.9050 C   0  0  0  0  0  0  0  0  0  0  0  0
   41.3070   21.9900   35.2750 N   0  0  0  0  0  0  0  0  0  0  0  0
   40.9230   22.0920   36.5760 C   0  0  0  0  0  0  0  0  0  0  0  0
   41.5580   21.3800   37.5240 N   0  0  0  0  0  0  0  0  0  0  0  0
   43.1350   19.9620   37.9030 H   0  0  0  0  0  0  0  0  0  0  0  0
   43.7860   19.8270   35.4870 H   0  0  0  0  0  0  0  0  0  0  0  0
   42.5130   21.2070   33.8400 H   0  0  0  0  0  0  0  0  0  0  0  0
   37.8370   25.4780   35.0810 C   0  0  0  0  0  0  0  0  0  0  0  0
   37.9030   25.0580   33.7920 C   0  0  0  0  0  0  0  0  0  0  0  0
   38.2900   24.1030   33.3860 H   0  0  0  0  0  0  0  0  0  0  0  0
   37.1830   26.4830   32.8490 S   0  0  0  0  0  0  0  0  0  0  0  0
   36.9160   27.4260   34.4910 C   0  0  0  0  0  0  0  0  0  0  0  0
   36.4810   28.4230   34.5810 H   0  0  0  0  0  0  0  0  0  0  0  0
   37.3220   26.6690   35.2340 N   0  0  0  0  0  0  0  0  0  0  0  0
  1  2  1  0  0  0  0
  2  3  2  0  0  0  0
  2  7  1  0  0  0  0
  3  8  1  0  0  0  0
  4  3  1  0  0  0  0
  5  4  2  0  0  0  0
  6  5  1  0  0  0  0
  6  1  2  0  0  0  0
  9 14  1  0  0  0  0
  9 15  1  0  0  0  0
 10  9  2  0  0  0  0
 11 12  2  0  0  0  0
 11 10  1  0  0  0  0
 12 13  1  0  0  0  0
 13  1  1  0  0  0  0
 13 14  2  0  0  0  0
 16 10  1  0  0  0  0
 17 11  1  0  0  0  0
 18 24  1  0  0  0  0
 18  5  1  0  0  0  0
 19 18  2  0  0  0  0
 20 19  1  0  0  0  0
 21 19  1  0  0  0  0
 21 22  1  0  0  0  0
 22 23  1  0  0  0  0
 22 24  2  0  0  0  0
M  END
>  <minimizedAffinity>
-4.51096916

$$$$

 OpenBabel03262523043D

 24 26  0  0  0  0  0  0  0  0999 V2000
   36.0880   23.7650   31.7220 C   0  0  0  0  0  0  0  0  0  0  0  0
   35.2990   24.6260   31.0460 C   0  0  0  0  0  0  0  0  0  0  0  0
   35.4790   25.9730   31.1730 C   0  0  0  0  0  0  0  0  0  0  0  0
   36.4510   26.4530   31.9800 N   0  0  0  0  0  0  0  0  0  0  0  0
   37.2320   25.5850   32.6490 C   0  0  0  0  0  0  0  0  0  0  0  0
   37.0690   24.2440   32.5360 N   0  0  0  0  0  0  0  0  0  0  0  0
   34.5230   24.2300   30.4020 H   0  0  0  0  0  0  0  0  0  0  0  0
   34.8370   26.6660   30.6220 H   0  0  0  0  0  0  0  0  0  0  0  0
   34.8540   20.3430   32.1990 C   0  0  0  0  0  0  0  0  0  0  0  0
   35.7290   19.5810   31.4270 C   0  0  0  0  0  0  0  0  0  0  0  0
   36.7470   20.2670   30.7420 C   0  0  0  0  0  0  0  0  0  0  0  0
   36.8310   21.6250   30.8630 N   0  0  0  0  0  0  0  0  0  0  0  0
   35.9490   22.3180   31.6320 C   0  0  0  0  0  0  0  0  0  0  0  0
   34.9720   21.6680   32.2890 N   0  0  0  0  0  0  0  0  0  0  0  0
   34.1010   19.7400   32.6930 H   0  0  0  0  0  0  0  0  0  0  0  0
   35.7630   18.5310   31.2580 H   0  0  0  0  0  0  0  0  0  0  0  0
   37.5200   19.8740   30.0980 H   0  0  0  0  0  0  0  0  0  0  0  0
   38.3060   26.0630   33.5410 C   0  0  0  0  0  0  0  0  0  0  0  0
   39.6100   25.7940   33.2740 C   0  0  0  0  0  0  0  0  0  0  0  0
   40.0490   25.2280   32.4290 H   0  0  0  0  0  0  0  0  0  0  0  0
   40.5030   26.6090   34.6790 S   0  0  0  0  0  0  0  0  0  0  0  0
   38.8290   27.1900   35.3970 C   0  0  0  0  0  0  0  0  0  0  0  0
   38.7050   27.7760   36.3100 H   0  0  0  0  0  0  0  0  0  0  0  0
   38.1120   26.7620   34.6270 N   0  0  0  0  0  0  0  0  0  0  0  0
  1  6  1  0  0  0  0
  2  3  1  0  0  0  0
  2  1  2  0  0  0  0
  3  4  2  0  0  0  0
  4  5  1  0  0  0  0
  5 18  1  0  0  0  0
  6  5  2  0  0  0  0
  7  2  1  0  0  0  0
  8  3  1  0  0  0  0
  9 14  1  0  0  0  0
  9 15  1  0  0  0  0
 10  9  2  0  0  0  0
 11 12  2  0  0  0  0
 11 10  1  0  0  0  0
 12 13  1  0  0  0  0
 13  1  1  0  0  0  0
 13 14  2  0  0  0  0
 16 10  1  0  0  0  0
 17 11  1  0  0  0  0
 18 24  1  0  0  0  0
 19 18  2  0  0  0  0
 19 21  1  0  0  0  0
 20 19  1  0  0  0  0
 21 22  1  0  0  0  0
 22 23  1  0  0  0  0
 24 22  2  0  0  0  0
M  END
>  <minimizedAffinity>
-4.50835085

$$$$

 OpenBabel03262523043D

 24 26  0  0  0  0  0  0  0  0999 V2000
   38.1560   24.5550   34.6660 C   0  0  0  0  0  0  0  0  0  0  0  0
   38.3970   23.8100   33.5660 C   0  0  0  0  0  0  0  0  0  0  0  0
   38.0860   24.2900   32.3260 C   0  0  0  0  0  0  0  0  0  0  0  0
   37.5340   25.5160   32.1940 N   0  0  0  0  0  0  0  0  0  0  0  0
   37.2990   26.2490   33.2970 C   0  0  0  0  0  0  0  0  0  0  0  0
   37.6000   25.7900   34.5370 N   0  0  0  0  0  0  0  0  0  0  0  0
   38.8390   22.8290   33.6850 H   0  0  0  0  0  0  0  0  0  0  0  0
   38.2830   23.6820   31.4380 H   0  0  0  0  0  0  0  0  0  0  0  0
   39.7500   22.8470   37.4960 C   0  0  0  0  0  0  0  0  0  0  0  0
   39.0020   23.2820   38.5890 C   0  0  0  0  0  0  0  0  0  0  0  0
   37.9440   24.1710   38.3320 C   0  0  0  0  0  0  0  0  0  0  0  0
   37.7000   24.5610   37.0450 N   0  0  0  0  0  0  0  0  0  0  0  0
   38.4630   24.1030   36.0160 C   0  0  0  0  0  0  0  0  0  0  0  0
   39.4770   23.2540   36.2550 N   0  0  0  0  0  0  0  0  0  0  0  0
   40.5440   22.1660   37.7790 H   0  0  0  0  0  0  0  0  0  0  0  0
   39.0960   23.0520   39.6230 H   0  0  0  0  0  0  0  0  0  0  0  0
   37.2500   24.6250   39.0250 H   0  0  0  0  0  0  0  0  0  0  0  0
   36.6980   27.5930   33.2010 C   0  0  0  0  0  0  0  0  0  0  0  0
   36.5900   28.2280   32.0060 C   0  0  0  0  0  0  0  0  0  0  0  0
   36.9020   27.8850   31.0000 H   0  0  0  0  0  0  0  0  0  0  0  0
   35.7840   29.8360   32.4560 S   0  0  0  0  0  0  0  0  0  0  0  0
   35.7490   29.2970   34.2900 C   0  0  0  0  0  0  0  0  0  0  0  0
   35.3480   29.8920   35.1130 H   0  0  0  0  0  0  0  0  0  0  0  0
   36.2300   28.2710   34.2150 N   0  0  0  0  0  0  0  0  0  0  0  0
  1 13  1  0  0  0  0
  2  7  1  0  0  0  0
  2  1  2  0  0  0  0
  3  2  1  0  0  0  0
  4  3  2  0  0  0  0
  4  5  1  0  0  0  0
  5  6  2  0  0  0  0
  6  1  1  0  0  0  0
  8  3  1  0  0  0  0
  9 15  1  0  0  0  0
  9 10  1  0  0  0  0
 10 16  1  0  0  0  0
 11 10  2  0  0  0  0
 11 17  1  0  0  0  0
 12 11  1  0  0  0  0
 13 14  1  0  0  0  0
 13 12  2  0  0  0  0
 14  9  2  0  0  0  0
 18  5  1  0  0  0  0
 18 24  1  0  0  0  0
 19 21  1  0  0  0  0
 19 18  2  0  0  0  0
 20 19  1  0  0  0  0
 21 22  1  0  0  0  0
 22 23  1  0  0  0  0
 24 22  2  0  0  0  0
M  END
>  <minimizedAffinity>
-4.50359154

$$$$

 OpenBabel03262523043D

 24 26  0  0  0  0  0  0  0  0999 V2000
   36.8250   25.3770   32.5970 C   0  0  0  0  0  0  0  0  0  0  0  0
   36.0720   26.1250   31.7630 C   0  0  0  0  0  0  0  0  0  0  0  0
   35.2610   25.5270   30.8430 C   0  0  0  0  0  0  0  0  0  0  0  0
   35.2070   24.1790   30.7620 N   0  0  0  0  0  0  0  0  0  0  0  0
   35.9620   23.4440   31.5990 C   0  0  0  0  0  0  0  0  0  0  0  0
   36.7750   24.0190   32.5200 N   0  0  0  0  0  0  0  0  0  0  0  0
   36.1240   27.2040   31.8370 H   0  0  0  0  0  0  0  0  0  0  0  0
   34.6530   26.1370   30.1690 H   0  0  0  0  0  0  0  0  0  0  0  0
   39.8150   26.1430   34.5810 C   0  0  0  0  0  0  0  0  0  0  0  0
   39.3470   27.0650   35.5160 C   0  0  0  0  0  0  0  0  0  0  0  0
   37.9870   27.4160   35.4480 C   0  0  0  0  0  0  0  0  0  0  0  0
   37.2010   26.8460   34.4870 N   0  0  0  0  0  0  0  0  0  0  0  0
   37.7120   25.9500   33.6010 C   0  0  0  0  0  0  0  0  0  0  0  0
   39.0120   25.6120   33.6590 N   0  0  0  0  0  0  0  0  0  0  0  0
   40.8710   25.9270   34.7020 H   0  0  0  0  0  0  0  0  0  0  0  0
   39.8570   27.5700   36.3010 H   0  0  0  0  0  0  0  0  0  0  0  0
   37.4280   28.1020   36.0670 H   0  0  0  0  0  0  0  0  0  0  0  0
   35.9370   21.9690   31.5470 C   0  0  0  0  0  0  0  0  0  0  0  0
   36.9450   21.2710   30.9640 C   0  0  0  0  0  0  0  0  0  0  0  0
   37.8650   21.6470   30.4760 H   0  0  0  0  0  0  0  0  0  0  0  0
   36.4120   19.5080   31.1760 S   0  0  0  0  0  0  0  0  0  0  0  0
   34.8290   20.1010   32.0700 C   0  0  0  0  0  0  0  0  0  0  0  0
   34.0500   19.4490   32.4690 H   0  0  0  0  0  0  0  0  0  0  0  0
   34.9810   21.2260   32.0380 N   0  0  0  0  0  0  0  0  0  0  0  0
  1 13  1  0  0  0  0
  2  7  1  0  0  0  0
  2  1  2  0  0  0  0
  3  2  1  0  0  0  0
  4  3  2  0  0  0  0
  4  5  1  0  0  0  0
  5  6  2  0  0  0  0
  6  1  1  0  0  0  0
  8  3  1  0  0  0  0
  9 15  1  0  0  0  0
  9 10  1  0  0  0  0
 10 16  1  0  0  0  0
 11 10  2  0  0  0  0
 11 17  1  0  0  0  0
 12 11  1  0  0  0  0
 13 14  1  0  0  0  0
 13 12  2  0  0  0  0
 14  9  2  0  0  0  0
 18  5  1  0  0  0  0
 18 24  1  0  0  0  0
 19 21  1  0  0  0  0
 19 18  2  0  0  0  0
 20 19  1  0  0  0  0
 21 22  1  0  0  0  0
 22 23  1  0  0  0  0
 24 22  2  0  0  0  0
M  END
>  <minimizedAffinity>
-4.42169094

$$$$

 OpenBabel03262523043D

 24 26  0  0  0  0  0  0  0  0999 V2000
   38.5630   22.8420   34.5270 C   0  0  0  0  0  0  0  0  0  0  0  0
   39.0220   21.7970   33.8070 C   0  0  0  0  0  0  0  0  0  0  0  0
   38.7870   21.7260   32.4640 C   0  0  0  0  0  0  0  0  0  0  0  0
   38.0910   22.7060   31.8470 N   0  0  0  0  0  0  0  0  0  0  0  0
   37.6380   23.7430   32.5750 C   0  0  0  0  0  0  0  0  0  0  0  0
   37.8620   23.8320   33.9090 N   0  0  0  0  0  0  0  0  0  0  0  0
   39.5790   21.0170   34.3130 H   0  0  0  0  0  0  0  0  0  0  0  0
   39.1610   20.8770   31.8860 H   0  0  0  0  0  0  0  0  0  0  0  0
   40.1110   22.7010   37.8510 C   0  0  0  0  0  0  0  0  0  0  0  0
   39.1370   23.2610   38.6760 C   0  0  0  0  0  0  0  0  0  0  0  0
   37.9430   23.6850   38.0680 C   0  0  0  0  0  0  0  0  0  0  0  0
   37.7940   23.5330   36.7180 N   0  0  0  0  0  0  0  0  0  0  0  0
   38.7790   22.9790   35.9610 C   0  0  0  0  0  0  0  0  0  0  0  0
   39.9240   22.5710   36.5370 N   0  0  0  0  0  0  0  0  0  0  0  0
   40.9980   22.4000   38.3970 H   0  0  0  0  0  0  0  0  0  0  0  0
   39.1390   23.4300   39.7260 H   0  0  0  0  0  0  0  0  0  0  0  0
   37.0720   24.1400   38.5170 H   0  0  0  0  0  0  0  0  0  0  0  0
   36.8730   24.8360   31.9440 C   0  0  0  0  0  0  0  0  0  0  0  0
   37.3710   26.0980   31.8890 C   0  0  0  0  0  0  0  0  0  0  0  0
   38.3360   26.4880   32.2690 H   0  0  0  0  0  0  0  0  0  0  0  0
   36.0340   27.0390   31.0140 S   0  0  0  0  0  0  0  0  0  0  0  0
   34.9990   25.4370   30.8860 C   0  0  0  0  0  0  0  0  0  0  0  0
   34.0140   25.3590   30.4230 H   0  0  0  0  0  0  0  0  0  0  0  0
   35.6940   24.6990   31.4000 N   0  0  0  0  0  0  0  0  0  0  0  0
  1 13  1  0  0  0  0
  2  7  1  0  0  0  0
  2  1  2  0  0  0  0
  3  2  1  0  0  0  0
  4  3  2  0  0  0  0
  4  5  1  0  0  0  0
  5  6  2  0  0  0  0
  6  1  1  0  0  0  0
  8  3  1  0  0  0  0
  9 15  1  0  0  0  0
  9 10  1  0  0  0  0
 10 16  1  0  0  0  0
 11 17  1  0  0  0  0
 11 10  2  0  0  0  0
 12 11  1  0  0  0  0
 13 14  1  0  0  0  0
 13 12  2  0  0  0  0
 14  9  2  0  0  0  0
 18  5  1  0  0  0  0
 19 18  2  0  0  0  0
 19 20  1  0  0  0  0
 21 19  1  0  0  0  0
 22 21  1  0  0  0  0
 22 24  2  0  0  0  0
 23 22  1  0  0  0  0
 24 18  1  0  0  0  0
M  END
>  <minimizedAffinity>
-4.37682486

$$$$

 OpenBabel03262523043D

 24 26  0  0  0  0  0  0  0  0999 V2000
   35.7070   29.5210   34.0290 C   0  0  0  0  0  0  0  0  0  0  0  0
   35.8050   29.8300   32.7180 C   0  0  0  0  0  0  0  0  0  0  0  0
   36.4170   28.9730   31.8510 C   0  0  0  0  0  0  0  0  0  0  0  0
   36.9300   27.8060   32.3010 N   0  0  0  0  0  0  0  0  0  0  0  0
   36.8260   27.5080   33.6090 C   0  0  0  0  0  0  0  0  0  0  0  0
   36.2210   28.3470   34.4860 N   0  0  0  0  0  0  0  0  0  0  0  0
   35.3910   30.7690   32.3700 H   0  0  0  0  0  0  0  0  0  0  0  0
   36.4940   29.2280   30.7900 H   0  0  0  0  0  0  0  0  0  0  0  0
   35.1930   32.0220   36.6640 C   0  0  0  0  0  0  0  0  0  0  0  0
   33.8100   32.0150   36.8410 C   0  0  0  0  0  0  0  0  0  0  0  0
   33.0630   31.1360   36.0380 C   0  0  0  0  0  0  0  0  0  0  0  0
   33.7150   30.3420   35.1370 N   0  0  0  0  0  0  0  0  0  0  0  0
   35.0680   30.3900   35.0070 C   0  0  0  0  0  0  0  0  0  0  0  0
   35.7880   31.2300   35.7710 N   0  0  0  0  0  0  0  0  0  0  0  0
   35.6930   32.7250   37.3190 H   0  0  0  0  0  0  0  0  0  0  0  0
   33.1980   32.5800   37.5010 H   0  0  0  0  0  0  0  0  0  0  0  0
   31.9950   30.9740   36.0140 H   0  0  0  0  0  0  0  0  0  0  0  0
   37.3700   26.2460   34.1450 C   0  0  0  0  0  0  0  0  0  0  0  0
   37.7210   25.2280   33.3190 C   0  0  0  0  0  0  0  0  0  0  0  0
   37.6650   25.1720   32.2140 H   0  0  0  0  0  0  0  0  0  0  0  0
   38.3270   23.9250   34.4910 S   0  0  0  0  0  0  0  0  0  0  0  0
   37.9630   25.0910   35.9630 C   0  0  0  0  0  0  0  0  0  0  0  0
   38.1350   24.8500   37.0140 H   0  0  0  0  0  0  0  0  0  0  0  0
   37.5600   26.0000   35.4140 N   0  0  0  0  0  0  0  0  0  0  0  0
  1  6  1  0  0  0  0
  1 13  1  0  0  0  0
  2  1  2  0  0  0  0
  3  4  2  0  0  0  0
  3  2  1  0  0  0  0
  4  5  1  0  0  0  0
  5 18  1  0  0  0  0
  5  6  2  0  0  0  0
  7  2  1  0  0  0  0
  8  3  1  0  0  0  0
  9 10  1  0  0  0  0
  9 15  1  0  0  0  0
 10 16  1  0  0  0  0
 11 10  2  0  0  0  0
 12 11  1  0  0  0  0
 13 12  2  0  0  0  0
 13 14  1  0  0  0  0
 14  9  2  0  0  0  0
 17 11  1  0  0  0  0
 18 24  1  0  0  0  0
 19 18  2  0  0  0  0
 19 21  1  0  0  0  0
 20 19  1  0  0  0  0
 21 22  1  0  0  0  0
 22 23  1  0  0  0  0
 24 22  2  0  0  0  0
M  END
>  <minimizedAffinity>
-4.37059546

$$$$

 OpenBabel03262523043D

 24 26  0  0  0  0  0  0  0  0999 V2000
   38.4320   25.7590   33.2500 C   0  0  0  0  0  0  0  0  0  0  0  0
   39.1920   26.8720   33.1670 C   0  0  0  0  0  0  0  0  0  0  0  0
   40.2970   27.0140   33.9550 C   0  0  0  0  0  0  0  0  0  0  0  0
   40.6380   26.0370   34.8240 N   0  0  0  0  0  0  0  0  0  0  0  0
   39.8740   24.9320   34.8980 C   0  0  0  0  0  0  0  0  0  0  0  0
   38.7720   24.7730   34.1240 N   0  0  0  0  0  0  0  0  0  0  0  0
   38.9080   27.6480   32.4660 H   0  0  0  0  0  0  0  0  0  0  0  0
   40.9090   27.9180   33.8840 H   0  0  0  0  0  0  0  0  0  0  0  0
   35.6930   24.1210   31.4400 C   0  0  0  0  0  0  0  0  0  0  0  0
   34.9830   25.1940   30.9040 C   0  0  0  0  0  0  0  0  0  0  0  0
   35.4640   26.4860   31.1770 C   0  0  0  0  0  0  0  0  0  0  0  0
   36.5870   26.6290   31.9420 N   0  0  0  0  0  0  0  0  0  0  0  0
   37.2410   25.5450   32.4390 C   0  0  0  0  0  0  0  0  0  0  0  0
   36.7850   24.3060   32.1820 N   0  0  0  0  0  0  0  0  0  0  0  0
   35.2570   23.1620   31.1820 H   0  0  0  0  0  0  0  0  0  0  0  0
   34.1060   25.2070   30.3010 H   0  0  0  0  0  0  0  0  0  0  0  0
   35.0690   27.4420   30.8650 H   0  0  0  0  0  0  0  0  0  0  0  0
   40.2080   23.8400   35.8330 C   0  0  0  0  0  0  0  0  0  0  0  0
   41.3330   23.0970   35.6690 C   0  0  0  0  0  0  0  0  0  0  0  0
   42.1140   23.1730   34.8870 H   0  0  0  0  0  0  0  0  0  0  0  0
   41.2560   21.9030   37.0850 S   0  0  0  0  0  0  0  0  0  0  0  0
   39.6130   22.6950   37.6560 C   0  0  0  0  0  0  0  0  0  0  0  0
   39.0330   22.3830   38.5260 H   0  0  0  0  0  0  0  0  0  0  0  0
   39.4830   23.4990   36.8640 N   0  0  0  0  0  0  0  0  0  0  0  0
  1  6  1  0  0  0  0
  2  1  2  0  0  0  0
  2  3  1  0  0  0  0
  3  4  2  0  0  0  0
  4  5  1  0  0  0  0
  5 18  1  0  0  0  0
  6  5  2  0  0  0  0
  7  2  1  0  0  0  0
  8  3  1  0  0  0  0
  9 14  1  0  0  0  0
 10 11  1  0  0  0  0
 10  9  2  0  0  0  0
 11 12  2  0  0  0  0
 12 13  1  0  0  0  0
 13  1  1  0  0  0  0
 14 13  2  0  0  0  0
 15  9  1  0  0  0  0
 16 10  1  0  0  0  0
 17 11  1  0  0  0  0
 18 24  1  0  0  0  0
 19 18  2  0  0  0  0
 19 21  1  0  0  0  0
 20 19  1  0  0  0  0
 21 22  1  0  0  0  0
 22 23  1  0  0  0  0
 24 22  2  0  0  0  0
M  END
>  <minimizedAffinity>
-4.36144733

$$$$

 OpenBabel03262523043D

 24 26  0  0  0  0  0  0  0  0999 V2000
   39.8190   24.9790   34.8150 C   0  0  0  0  0  0  0  0  0  0  0  0
   40.3960   26.1970   34.7310 C   0  0  0  0  0  0  0  0  0  0  0  0
   39.8990   27.1380   33.8760 C   0  0  0  0  0  0  0  0  0  0  0  0
   38.8250   26.8540   33.1070 N   0  0  0  0  0  0  0  0  0  0  0  0
   38.2590   25.6370   33.1990 C   0  0  0  0  0  0  0  0  0  0  0  0
   38.7370   24.6890   34.0420 N   0  0  0  0  0  0  0  0  0  0  0  0
   41.2570   26.4120   35.3520 H   0  0  0  0  0  0  0  0  0  0  0  0
   40.3710   28.1230   33.8110 H   0  0  0  0  0  0  0  0  0  0  0  0
   39.9830   22.5020   37.5170 C   0  0  0  0  0  0  0  0  0  0  0  0
   41.2500   21.9450   37.3580 C   0  0  0  0  0  0  0  0  0  0  0  0
   42.0430   22.4360   36.3060 C   0  0  0  0  0  0  0  0  0  0  0  0
   41.5430   23.4220   35.5020 N   0  0  0  0  0  0  0  0  0  0  0  0
   40.2980   23.9300   35.7050 C   0  0  0  0  0  0  0  0  0  0  0  0
   39.5350   23.4630   36.7090 N   0  0  0  0  0  0  0  0  0  0  0  0
   39.4380   22.0690   38.3480 H   0  0  0  0  0  0  0  0  0  0  0  0
   41.7410   21.1820   37.9140 H   0  0  0  0  0  0  0  0  0  0  0  0
   43.0400   22.1460   36.0110 H   0  0  0  0  0  0  0  0  0  0  0  0
   37.0840   25.2830   32.3790 C   0  0  0  0  0  0  0  0  0  0  0  0
   36.2960   26.2440   31.8330 C   0  0  0  0  0  0  0  0  0  0  0  0
   36.3860   27.3460   31.9010 H   0  0  0  0  0  0  0  0  0  0  0  0
   35.0060   25.2650   30.9290 S   0  0  0  0  0  0  0  0  0  0  0  0
   35.8420   23.6450   31.5050 C   0  0  0  0  0  0  0  0  0  0  0  0
   35.4990   22.6380   31.2600 H   0  0  0  0  0  0  0  0  0  0  0  0
   36.7080   24.0610   32.1110 N   0  0  0  0  0  0  0  0  0  0  0  0
  1 13  1  0  0  0  0
  2  1  1  0  0  0  0
  2  7  1  0  0  0  0
  3  2  2  0  0  0  0
  4  5  2  0  0  0  0
  4  3  1  0  0  0  0
  5  6  1  0  0  0  0
  6  1  2  0  0  0  0
  8  3  1  0  0  0  0
  9 15  1  0  0  0  0
 10  9  1  0  0  0  0
 10 16  1  0  0  0  0
 11 10  2  0  0  0  0
 12 13  2  0  0  0  0
 12 11  1  0  0  0  0
 13 14  1  0  0  0  0
 14  9  2  0  0  0  0
 17 11  1  0  0  0  0
 18  5  1  0  0  0  0
 19 20  1  0  0  0  0
 19 18  2  0  0  0  0
 21 22  1  0  0  0  0
 21 19  1  0  0  0  0
 22 24  2  0  0  0  0
 23 22  1  0  0  0  0
 24 18  1  0  0  0  0
M  END
>  <minimizedAffinity>
-4.30285358

$$$$
