
 OpenBabel03272507493D

 44 48  0  0  0  0  0  0  0  0999 V2000
   36.9260   27.5250   31.5940 N   0  0  0  0  0  0  0  0  0  0  0  0
   36.5960   26.1950   31.2160 C   0  0  0  0  0  0  0  0  0  0  0  0
   36.8920   25.1290   32.2020 C   0  0  0  0  0  0  0  0  0  0  0  0
   38.1280   25.2690   32.9720 C   0  0  0  0  0  0  0  0  0  0  0  0
   38.4570   26.7390   33.2850 C   0  0  0  0  0  0  0  0  0  0  0  0
   38.3130   27.5230   31.9690 C   0  0  0  0  0  0  0  0  0  0  0  0
   37.1420   25.9690   30.2550 H   0  0  0  0  0  0  0  0  0  0  0  0
   35.5160   26.1710   30.9460 H   0  0  0  0  0  0  0  0  0  0  0  0
   36.7660   24.1420   31.7310 H   0  0  0  0  0  0  0  0  0  0  0  0
   36.0370   25.2570   32.9450 H   0  0  0  0  0  0  0  0  0  0  0  0
   39.0360   24.8990   32.4220 H   0  0  0  0  0  0  0  0  0  0  0  0
   37.6930   27.0970   33.9890 H   0  0  0  0  0  0  0  0  0  0  0  0
   39.4890   26.7610   33.6340 H   0  0  0  0  0  0  0  0  0  0  0  0
   38.9910   27.0860   31.2040 H   0  0  0  0  0  0  0  0  0  0  0  0
   38.6160   28.5680   32.2270 H   0  0  0  0  0  0  0  0  0  0  0  0
   38.1280   23.2040   34.2950 C   0  0  0  0  0  0  0  0  0  0  0  0
   38.1210   24.5900   34.2910 C   0  0  0  0  0  0  0  0  0  0  0  0
   38.0830   25.3590   35.4240 C   0  0  0  0  0  0  0  0  0  0  0  0
   38.0470   24.7010   36.6540 C   0  0  0  0  0  0  0  0  0  0  0  0
   38.0530   23.3240   36.6620 C   0  0  0  0  0  0  0  0  0  0  0  0
   38.0930   22.5430   35.5100 C   0  0  0  0  0  0  0  0  0  0  0  0
   38.0120   22.8510   37.9790 O   0  0  0  0  0  0  0  0  0  0  0  0
   38.3090   23.9860   38.7810 C   0  0  0  0  0  0  0  0  0  0  0  0
   38.0040   25.1030   37.9880 O   0  0  0  0  0  0  0  0  0  0  0  0
   38.1700   22.5030   33.4750 H   0  0  0  0  0  0  0  0  0  0  0  0
   38.0800   26.4220   35.3880 H   0  0  0  0  0  0  0  0  0  0  0  0
   38.0950   21.4470   35.5940 H   0  0  0  0  0  0  0  0  0  0  0  0
   37.5270   23.9740   39.5950 H   0  0  0  0  0  0  0  0  0  0  0  0
   39.3130   23.9740   39.2100 H   0  0  0  0  0  0  0  0  0  0  0  0
   36.0710   28.6730   31.6100 C   0  0  0  0  0  0  0  0  0  0  0  0
   36.2190   29.8180   30.8340 C   0  0  0  0  0  0  0  0  0  0  0  0
   35.2840   30.8300   30.9910 C   0  0  0  0  0  0  0  0  0  0  0  0
   34.2770   30.6570   31.8870 N   0  0  0  0  0  0  0  0  0  0  0  0
   34.1600   29.5460   32.6200 C   0  0  0  0  0  0  0  0  0  0  0  0
   35.0480   28.5630   32.4830 N   0  0  0  0  0  0  0  0  0  0  0  0
   37.0610   29.7980   30.1790 H   0  0  0  0  0  0  0  0  0  0  0  0
   35.4240   31.7020   30.3790 H   0  0  0  0  0  0  0  0  0  0  0  0
   33.0190   29.4760   33.5630 C   0  0  0  0  0  0  0  0  0  0  0  0
   31.7360   29.0090   33.2330 C   0  0  0  0  0  0  0  0  0  0  0  0
   31.4980   28.6780   32.3040 H   0  0  0  0  0  0  0  0  0  0  0  0
   30.8780   29.2140   34.8630 S   0  0  0  0  0  0  0  0  0  0  0  0
   32.4610   29.9060   35.6820 C   0  0  0  0  0  0  0  0  0  0  0  0
   32.3920   30.1760   36.7170 H   0  0  0  0  0  0  0  0  0  0  0  0
   33.3860   29.9180   34.7530 N   0  0  0  0  0  0  0  0  0  0  0  0
  1 30  1  0  0  0  0
  1  6  1  0  0  0  0
  2  1  1  0  0  0  0
  2  3  1  0  0  0  0
  3 10  1  0  0  0  0
  3  4  1  0  0  0  0
  4  5  1  0  0  0  0
  4 17  1  0  0  0  0
  5 13  1  0  0  0  0
  5 12  1  0  0  0  0
  6 15  1  0  0  0  0
  6  5  1  0  0  0  0
  7  2  1  0  0  0  0
  8  2  1  0  0  0  0
  9  3  1  0  0  0  0
 11  4  1  0  0  0  0
 14  6  1  0  0  0  0
 16 21  1  0  0  0  0
 17 16  2  0  0  0  0
 17 18  1  0  0  0  0
 18 19  2  0  0  0  0
 19 20  1  0  0  0  0
 19 24  1  0  0  0  0
 20 22  1  0  0  0  0
 21 27  1  0  0  0  0
 21 20  2  0  0  0  0
 22 23  1  0  0  0  0
 23 29  1  0  0  0  0
 23 28  1  0  0  0  0
 24 23  1  0  0  0  0
 25 16  1  0  0  0  0
 26 18  1  0  0  0  0
 30 35  1  0  0  0  0
 31 32  1  0  0  0  0
 31 30  2  0  0  0  0
 32 33  2  0  0  0  0
 33 34  1  0  0  0  0
 34 38  1  0  0  0  0
 35 34  2  0  0  0  0
 36 31  1  0  0  0  0
 37 32  1  0  0  0  0
 38 44  1  0  0  0  0
 39 38  2  0  0  0  0
 39 41  1  0  0  0  0
 40 39  1  0  0  0  0
 41 42  1  0  0  0  0
 42 43  1  0  0  0  0
 44 42  2  0  0  0  0
M  END
>  <minimizedAffinity>
-5.88194752

$$$$

 OpenBabel03272507493D

 44 48  0  0  0  0  0  0  0  0999 V2000
   37.2540   25.0200   31.7020 N   0  0  0  0  0  0  0  0  0  0  0  0
   38.3530   25.9130   31.5790 C   0  0  0  0  0  0  0  0  0  0  0  0
   38.1010   27.3320   31.9220 C   0  0  0  0  0  0  0  0  0  0  0  0
   36.8030   27.8840   31.5290 C   0  0  0  0  0  0  0  0  0  0  0  0
   35.6750   26.8430   31.6220 C   0  0  0  0  0  0  0  0  0  0  0  0
   36.1790   25.5690   30.9220 C   0  0  0  0  0  0  0  0  0  0  0  0
   38.7240   25.8510   30.5160 H   0  0  0  0  0  0  0  0  0  0  0  0
   39.1890   25.5180   32.1990 H   0  0  0  0  0  0  0  0  0  0  0  0
   38.9610   27.9480   31.6160 H   0  0  0  0  0  0  0  0  0  0  0  0
   38.1010   27.3000   33.0620 H   0  0  0  0  0  0  0  0  0  0  0  0
   36.7740   28.2230   30.4570 H   0  0  0  0  0  0  0  0  0  0  0  0
   35.5280   26.6210   32.6870 H   0  0  0  0  0  0  0  0  0  0  0  0
   34.8200   27.2610   31.0900 H   0  0  0  0  0  0  0  0  0  0  0  0
   36.4540   25.8100   29.8720 H   0  0  0  0  0  0  0  0  0  0  0  0
   35.3120   24.8640   30.9600 H   0  0  0  0  0  0  0  0  0  0  0  0
   36.0160   28.7710   33.6750 C   0  0  0  0  0  0  0  0  0  0  0  0
   36.3380   29.0270   32.3510 C   0  0  0  0  0  0  0  0  0  0  0  0
   36.2290   30.2590   31.7610 C   0  0  0  0  0  0  0  0  0  0  0  0
   35.7610   31.3150   32.5440 C   0  0  0  0  0  0  0  0  0  0  0  0
   35.4390   31.0640   33.8590 C   0  0  0  0  0  0  0  0  0  0  0  0
   35.5520   29.8130   34.4590 C   0  0  0  0  0  0  0  0  0  0  0  0
   34.9910   32.2390   34.4760 O   0  0  0  0  0  0  0  0  0  0  0  0
   35.3600   33.2800   33.5820 C   0  0  0  0  0  0  0  0  0  0  0  0
   35.5150   32.6700   32.3280 O   0  0  0  0  0  0  0  0  0  0  0  0
   36.0740   27.8560   34.2450 H   0  0  0  0  0  0  0  0  0  0  0  0
   36.4860   30.4230   30.7420 H   0  0  0  0  0  0  0  0  0  0  0  0
   35.2760   29.6880   35.5160 H   0  0  0  0  0  0  0  0  0  0  0  0
   34.4340   33.9200   33.4910 H   0  0  0  0  0  0  0  0  0  0  0  0
   36.2090   33.8760   33.9240 H   0  0  0  0  0  0  0  0  0  0  0  0
   37.1900   23.8000   32.4480 C   0  0  0  0  0  0  0  0  0  0  0  0
   36.4430   22.6750   32.1160 C   0  0  0  0  0  0  0  0  0  0  0  0
   36.5100   21.5820   32.9680 C   0  0  0  0  0  0  0  0  0  0  0  0
   37.2940   21.6610   34.0740 N   0  0  0  0  0  0  0  0  0  0  0  0
   38.0010   22.7570   34.3670 C   0  0  0  0  0  0  0  0  0  0  0  0
   37.9500   23.8160   33.5630 N   0  0  0  0  0  0  0  0  0  0  0  0
   35.8790   22.7710   31.2160 H   0  0  0  0  0  0  0  0  0  0  0  0
   35.9230   20.7270   32.6870 H   0  0  0  0  0  0  0  0  0  0  0  0
   38.8200   22.7220   35.6030 C   0  0  0  0  0  0  0  0  0  0  0  0
   40.1290   22.2180   35.6810 C   0  0  0  0  0  0  0  0  0  0  0  0
   40.6150   21.8360   34.8770 H   0  0  0  0  0  0  0  0  0  0  0  0
   40.4860   22.5010   37.4780 S   0  0  0  0  0  0  0  0  0  0  0  0
   38.7560   23.2590   37.7690 C   0  0  0  0  0  0  0  0  0  0  0  0
   38.5310   23.5840   38.7660 H   0  0  0  0  0  0  0  0  0  0  0  0
   38.1380   23.2320   36.6140 N   0  0  0  0  0  0  0  0  0  0  0  0
  1 30  1  0  0  0  0
  2  1  1  0  0  0  0
  2  3  1  0  0  0  0
  2  8  1  0  0  0  0
  3 10  1  0  0  0  0
  4  5  1  0  0  0  0
  4  3  1  0  0  0  0
  4 17  1  0  0  0  0
  5 12  1  0  0  0  0
  6 15  1  0  0  0  0
  6  5  1  0  0  0  0
  6  1  1  0  0  0  0
  7  2  1  0  0  0  0
  9  3  1  0  0  0  0
 11  4  1  0  0  0  0
 13  5  1  0  0  0  0
 14  6  1  0  0  0  0
 16 25  1  0  0  0  0
 16 21  1  0  0  0  0
 17 16  2  0  0  0  0
 18 17  1  0  0  0  0
 18 19  2  0  0  0  0
 19 20  1  0  0  0  0
 20 21  2  0  0  0  0
 20 22  1  0  0  0  0
 21 27  1  0  0  0  0
 23 29  1  0  0  0  0
 23 22  1  0  0  0  0
 24 19  1  0  0  0  0
 24 23  1  0  0  0  0
 26 18  1  0  0  0  0
 28 23  1  0  0  0  0
 30 35  1  0  0  0  0
 31 30  2  0  0  0  0
 31 32  1  0  0  0  0
 32 33  2  0  0  0  0
 33 34  1  0  0  0  0
 34 38  1  0  0  0  0
 35 34  2  0  0  0  0
 36 31  1  0  0  0  0
 37 32  1  0  0  0  0
 38 39  2  0  0  0  0
 38 44  1  0  0  0  0
 39 41  1  0  0  0  0
 40 39  1  0  0  0  0
 41 42  1  0  0  0  0
 42 43  1  0  0  0  0
 44 42  2  0  0  0  0
M  END
>  <minimizedAffinity>
-5.8051548

$$$$

 OpenBabel03272507493D

 44 48  0  0  0  0  0  0  0  0999 V2000
   37.1680   27.4550   31.5310 N   0  0  0  0  0  0  0  0  0  0  0  0
   36.7900   26.0990   31.3240 C   0  0  0  0  0  0  0  0  0  0  0  0
   37.2380   25.1200   32.3410 C   0  0  0  0  0  0  0  0  0  0  0  0
   38.5770   25.3150   32.8990 C   0  0  0  0  0  0  0  0  0  0  0  0
   38.9430   26.8040   33.0300 C   0  0  0  0  0  0  0  0  0  0  0  0
   38.5960   27.4730   31.6880 C   0  0  0  0  0  0  0  0  0  0  0  0
   37.1830   25.7880   30.3140 H   0  0  0  0  0  0  0  0  0  0  0  0
   35.6820   26.0620   31.2260 H   0  0  0  0  0  0  0  0  0  0  0  0
   37.0460   24.0970   31.9830 H   0  0  0  0  0  0  0  0  0  0  0  0
   36.5070   25.3190   33.1930 H   0  0  0  0  0  0  0  0  0  0  0  0
   39.3920   24.8910   32.2510 H   0  0  0  0  0  0  0  0  0  0  0  0
   38.2950   27.2280   33.8080 H   0  0  0  0  0  0  0  0  0  0  0  0
   40.0170   26.8470   33.2130 H   0  0  0  0  0  0  0  0  0  0  0  0
   39.1510   26.9650   30.8690 H   0  0  0  0  0  0  0  0  0  0  0  0
   38.9300   28.5330   31.8050 H   0  0  0  0  0  0  0  0  0  0  0  0
   37.8330   25.0700   35.2230 C   0  0  0  0  0  0  0  0  0  0  0  0
   38.7750   24.7530   34.2570 C   0  0  0  0  0  0  0  0  0  0  0  0
   39.8790   23.9750   34.4900 C   0  0  0  0  0  0  0  0  0  0  0  0
   40.0620   23.4790   35.7820 C   0  0  0  0  0  0  0  0  0  0  0  0
   39.1300   23.7940   36.7440 C   0  0  0  0  0  0  0  0  0  0  0  0
   38.0070   24.5820   36.5060 C   0  0  0  0  0  0  0  0  0  0  0  0
   39.4840   23.2100   37.9660 O   0  0  0  0  0  0  0  0  0  0  0  0
   40.4900   22.2630   37.6360 C   0  0  0  0  0  0  0  0  0  0  0  0
   41.0200   22.6810   36.4060 O   0  0  0  0  0  0  0  0  0  0  0  0
   36.9280   25.6560   35.1520 H   0  0  0  0  0  0  0  0  0  0  0  0
   40.5830   23.7470   33.7270 H   0  0  0  0  0  0  0  0  0  0  0  0
   37.3040   24.7920   37.3250 H   0  0  0  0  0  0  0  0  0  0  0  0
   41.3100   22.4400   38.3910 H   0  0  0  0  0  0  0  0  0  0  0  0
   40.1500   21.2250   37.6730 H   0  0  0  0  0  0  0  0  0  0  0  0
   36.3200   28.6080   31.5780 C   0  0  0  0  0  0  0  0  0  0  0  0
   36.4600   29.7600   30.8130 C   0  0  0  0  0  0  0  0  0  0  0  0
   35.5340   30.7760   31.0020 C   0  0  0  0  0  0  0  0  0  0  0  0
   34.5450   30.5980   31.9160 N   0  0  0  0  0  0  0  0  0  0  0  0
   34.4360   29.4780   32.6370 C   0  0  0  0  0  0  0  0  0  0  0  0
   35.3140   28.4930   32.4710 N   0  0  0  0  0  0  0  0  0  0  0  0
   37.2880   29.7440   30.1410 H   0  0  0  0  0  0  0  0  0  0  0  0
   35.6660   31.6540   30.3980 H   0  0  0  0  0  0  0  0  0  0  0  0
   33.3130   29.4040   33.6030 C   0  0  0  0  0  0  0  0  0  0  0  0
   33.4050   29.7410   34.9630 C   0  0  0  0  0  0  0  0  0  0  0  0
   34.2660   30.0670   35.3880 H   0  0  0  0  0  0  0  0  0  0  0  0
   31.6640   29.4070   35.5050 S   0  0  0  0  0  0  0  0  0  0  0  0
   31.1510   28.8660   33.7450 C   0  0  0  0  0  0  0  0  0  0  0  0
   30.1310   28.5660   33.6100 H   0  0  0  0  0  0  0  0  0  0  0  0
   32.2200   28.9750   32.9960 N   0  0  0  0  0  0  0  0  0  0  0  0
  1 30  1  0  0  0  0
  1  6  1  0  0  0  0
  2  1  1  0  0  0  0
  2  3  1  0  0  0  0
  3  4  1  0  0  0  0
  3 10  1  0  0  0  0
  4  5  1  0  0  0  0
  4 17  1  0  0  0  0
  5 13  1  0  0  0  0
  5 12  1  0  0  0  0
  6 15  1  0  0  0  0
  6  5  1  0  0  0  0
  7  2  1  0  0  0  0
  8  2  1  0  0  0  0
  9  3  1  0  0  0  0
 11  4  1  0  0  0  0
 14  6  1  0  0  0  0
 16 21  1  0  0  0  0
 17 18  1  0  0  0  0
 17 16  2  0  0  0  0
 18 19  2  0  0  0  0
 19 24  1  0  0  0  0
 19 20  1  0  0  0  0
 20 22  1  0  0  0  0
 21 20  2  0  0  0  0
 21 27  1  0  0  0  0
 23 29  1  0  0  0  0
 23 22  1  0  0  0  0
 23 28  1  0  0  0  0
 24 23  1  0  0  0  0
 25 16  1  0  0  0  0
 26 18  1  0  0  0  0
 30 35  1  0  0  0  0
 31 32  1  0  0  0  0
 31 30  2  0  0  0  0
 32 33  2  0  0  0  0
 33 34  1  0  0  0  0
 34 38  1  0  0  0  0
 35 34  2  0  0  0  0
 36 31  1  0  0  0  0
 37 32  1  0  0  0  0
 38 39  2  0  0  0  0
 39 40  1  0  0  0  0
 39 41  1  0  0  0  0
 42 41  1  0  0  0  0
 43 42  1  0  0  0  0
 44 38  1  0  0  0  0
 44 42  2  0  0  0  0
M  END
>  <minimizedAffinity>
-5.77421904

$$$$

 OpenBabel03272507493D

 44 48  0  0  0  0  0  0  0  0999 V2000
   36.9490   26.1800   32.1100 N   0  0  0  0  0  0  0  0  0  0  0  0
   35.7430   25.7940   31.4630 C   0  0  0  0  0  0  0  0  0  0  0  0
   35.5690   24.3490   31.1850 C   0  0  0  0  0  0  0  0  0  0  0  0
   36.7620   23.6090   30.7710 C   0  0  0  0  0  0  0  0  0  0  0  0
   38.0370   24.1260   31.4600 C   0  0  0  0  0  0  0  0  0  0  0  0
   38.0330   25.6580   31.3230 C   0  0  0  0  0  0  0  0  0  0  0  0
   35.6800   26.3660   30.4940 H   0  0  0  0  0  0  0  0  0  0  0  0
   34.8900   26.1670   32.0740 H   0  0  0  0  0  0  0  0  0  0  0  0
   34.6970   24.1990   30.5290 H   0  0  0  0  0  0  0  0  0  0  0  0
   35.2860   23.9470   32.2140 H   0  0  0  0  0  0  0  0  0  0  0  0
   36.9850   23.7100   29.6740 H   0  0  0  0  0  0  0  0  0  0  0  0
   37.9540   23.8710   32.5250 H   0  0  0  0  0  0  0  0  0  0  0  0
   38.8790   23.6940   30.9200 H   0  0  0  0  0  0  0  0  0  0  0  0
   37.9860   25.9320   30.2460 H   0  0  0  0  0  0  0  0  0  0  0  0
   38.9980   25.9860   31.7810 H   0  0  0  0  0  0  0  0  0  0  0  0
   37.8980   21.4390   30.8770 C   0  0  0  0  0  0  0  0  0  0  0  0
   36.7280   22.1570   31.0700 C   0  0  0  0  0  0  0  0  0  0  0  0
   35.5490   21.6010   31.4930 C   0  0  0  0  0  0  0  0  0  0  0  0
   35.5310   20.2280   31.7400 C   0  0  0  0  0  0  0  0  0  0  0  0
   36.6910   19.5110   31.5480 C   0  0  0  0  0  0  0  0  0  0  0  0
   37.8890   20.0760   31.1200 C   0  0  0  0  0  0  0  0  0  0  0  0
   36.4750   18.1600   31.8440 O   0  0  0  0  0  0  0  0  0  0  0  0
   35.2330   18.1350   32.5340 C   0  0  0  0  0  0  0  0  0  0  0  0
   34.5680   19.3150   32.1670 O   0  0  0  0  0  0  0  0  0  0  0  0
   38.8770   21.7680   30.5620 H   0  0  0  0  0  0  0  0  0  0  0  0
   34.6680   22.1800   31.6340 H   0  0  0  0  0  0  0  0  0  0  0  0
   38.7750   19.4400   30.9880 H   0  0  0  0  0  0  0  0  0  0  0  0
   34.6510   17.2990   32.0470 H   0  0  0  0  0  0  0  0  0  0  0  0
   35.3270   17.9630   33.6090 H   0  0  0  0  0  0  0  0  0  0  0  0
   37.0990   26.9410   33.3140 C   0  0  0  0  0  0  0  0  0  0  0  0
   37.9730   26.6610   34.3580 C   0  0  0  0  0  0  0  0  0  0  0  0
   37.9740   27.5200   35.4470 C   0  0  0  0  0  0  0  0  0  0  0  0
   37.1290   28.5840   35.4420 N   0  0  0  0  0  0  0  0  0  0  0  0
   36.2990   28.8270   34.4230 C   0  0  0  0  0  0  0  0  0  0  0  0
   36.2830   28.0150   33.3700 N   0  0  0  0  0  0  0  0  0  0  0  0
   38.5700   25.7890   34.2090 H   0  0  0  0  0  0  0  0  0  0  0  0
   38.6590   27.2790   36.2380 H   0  0  0  0  0  0  0  0  0  0  0  0
   35.4250   30.0200   34.5350 C   0  0  0  0  0  0  0  0  0  0  0  0
   34.2790   30.2480   33.7560 C   0  0  0  0  0  0  0  0  0  0  0  0
   33.9620   29.5950   33.0460 H   0  0  0  0  0  0  0  0  0  0  0  0
   33.7310   31.8810   34.4410 S   0  0  0  0  0  0  0  0  0  0  0  0
   35.1940   31.9290   35.6700 C   0  0  0  0  0  0  0  0  0  0  0  0
   35.2570   32.7840   36.3130 H   0  0  0  0  0  0  0  0  0  0  0  0
   35.8840   30.8320   35.4720 N   0  0  0  0  0  0  0  0  0  0  0  0
  1 30  1  0  0  0  0
  2  8  1  0  0  0  0
  2  1  1  0  0  0  0
  3  2  1  0  0  0  0
  3 10  1  0  0  0  0
  4 17  1  0  0  0  0
  4  3  1  0  0  0  0
  4  5  1  0  0  0  0
  5 12  1  0  0  0  0
  6  5  1  0  0  0  0
  6 15  1  0  0  0  0
  6  1  1  0  0  0  0
  7  2  1  0  0  0  0
  9  3  1  0  0  0  0
 11  4  1  0  0  0  0
 13  5  1  0  0  0  0
 14  6  1  0  0  0  0
 16 17  2  0  0  0  0
 16 21  1  0  0  0  0
 17 18  1  0  0  0  0
 18 26  1  0  0  0  0
 18 19  2  0  0  0  0
 19 24  1  0  0  0  0
 20 19  1  0  0  0  0
 20 22  1  0  0  0  0
 21 20  2  0  0  0  0
 22 23  1  0  0  0  0
 23 29  1  0  0  0  0
 24 23  1  0  0  0  0
 25 16  1  0  0  0  0
 27 21  1  0  0  0  0
 28 23  1  0  0  0  0
 30 35  2  0  0  0  0
 30 31  1  0  0  0  0
 31 32  2  0  0  0  0
 32 37  1  0  0  0  0
 33 32  1  0  0  0  0
 34 38  1  0  0  0  0
 34 33  2  0  0  0  0
 35 34  1  0  0  0  0
 36 31  1  0  0  0  0
 38 44  1  0  0  0  0
 39 41  1  0  0  0  0
 39 38  2  0  0  0  0
 40 39  1  0  0  0  0
 41 42  1  0  0  0  0
 42 43  1  0  0  0  0
 44 42  2  0  0  0  0
M  END
>  <minimizedAffinity>
-5.75785351

$$$$

 OpenBabel03272507493D

 44 48  0  0  0  0  0  0  0  0999 V2000
   38.2280   25.9730   35.7120 N   0  0  0  0  0  0  0  0  0  0  0  0
   37.0880   26.1370   34.8790 C   0  0  0  0  0  0  0  0  0  0  0  0
   37.3430   26.3950   33.4430 C   0  0  0  0  0  0  0  0  0  0  0  0
   38.4790   27.2590   33.1200 C   0  0  0  0  0  0  0  0  0  0  0  0
   39.6480   27.0760   34.1030 C   0  0  0  0  0  0  0  0  0  0  0  0
   39.0570   27.1320   35.5220 C   0  0  0  0  0  0  0  0  0  0  0  0
   36.4770   26.9850   35.3030 H   0  0  0  0  0  0  0  0  0  0  0  0
   36.4450   25.2350   34.9930 H   0  0  0  0  0  0  0  0  0  0  0  0
   36.4040   26.6820   32.9440 H   0  0  0  0  0  0  0  0  0  0  0  0
   37.6170   25.3540   33.0650 H   0  0  0  0  0  0  0  0  0  0  0  0
   38.2350   28.3540   33.1890 H   0  0  0  0  0  0  0  0  0  0  0  0
   40.0560   26.0710   33.9350 H   0  0  0  0  0  0  0  0  0  0  0  0
   40.3280   27.9120   33.9380 H   0  0  0  0  0  0  0  0  0  0  0  0
   38.5260   28.0990   35.6620 H   0  0  0  0  0  0  0  0  0  0  0  0
   39.9410   27.0550   36.2010 H   0  0  0  0  0  0  0  0  0  0  0  0
   40.0530   26.0660   31.6670 C   0  0  0  0  0  0  0  0  0  0  0  0
   39.0690   27.0360   31.7780 C   0  0  0  0  0  0  0  0  0  0  0  0
   38.6340   27.8090   30.7340 C   0  0  0  0  0  0  0  0  0  0  0  0
   39.2230   27.6040   29.4850 C   0  0  0  0  0  0  0  0  0  0  0  0
   40.2020   26.6420   29.3710 C   0  0  0  0  0  0  0  0  0  0  0  0
   40.6420   25.8560   30.4320 C   0  0  0  0  0  0  0  0  0  0  0  0
   40.6680   26.5860   28.0520 O   0  0  0  0  0  0  0  0  0  0  0  0
   39.7130   27.3190   27.2990 C   0  0  0  0  0  0  0  0  0  0  0  0
   39.0670   28.1610   28.2170 O   0  0  0  0  0  0  0  0  0  0  0  0
   40.4630   25.3970   32.4080 H   0  0  0  0  0  0  0  0  0  0  0  0
   37.8750   28.5440   30.8510 H   0  0  0  0  0  0  0  0  0  0  0  0
   41.4290   25.1070   30.2660 H   0  0  0  0  0  0  0  0  0  0  0  0
   40.3280   28.0040   26.6450 H   0  0  0  0  0  0  0  0  0  0  0  0
   39.0540   26.6950   26.6900 H   0  0  0  0  0  0  0  0  0  0  0  0
   38.5300   24.8800   36.5860 C   0  0  0  0  0  0  0  0  0  0  0  0
   37.9000   24.5970   37.7930 C   0  0  0  0  0  0  0  0  0  0  0  0
   38.3350   23.4870   38.5030 C   0  0  0  0  0  0  0  0  0  0  0  0
   39.3440   22.7370   37.9910 N   0  0  0  0  0  0  0  0  0  0  0  0
   39.9320   23.0340   36.8280 C   0  0  0  0  0  0  0  0  0  0  0  0
   39.5290   24.0950   36.1320 N   0  0  0  0  0  0  0  0  0  0  0  0
   37.1260   25.2820   38.0560 H   0  0  0  0  0  0  0  0  0  0  0  0
   37.8300   23.2930   39.4320 H   0  0  0  0  0  0  0  0  0  0  0  0
   41.0230   22.1390   36.3740 C   0  0  0  0  0  0  0  0  0  0  0  0
   41.4420   22.0000   35.0410 C   0  0  0  0  0  0  0  0  0  0  0  0
   41.0160   22.5160   34.2780 H   0  0  0  0  0  0  0  0  0  0  0  0
   42.7970   20.7530   35.2470 S   0  0  0  0  0  0  0  0  0  0  0  0
   42.5190   20.6670   37.1360 C   0  0  0  0  0  0  0  0  0  0  0  0
   43.1540   20.0030   37.6890 H   0  0  0  0  0  0  0  0  0  0  0  0
   41.5390   21.4940   37.4060 N   0  0  0  0  0  0  0  0  0  0  0  0
  1 30  1  0  0  0  0
  2  8  1  0  0  0  0
  2  7  1  0  0  0  0
  2  1  1  0  0  0  0
  3  2  1  0  0  0  0
  4 11  1  0  0  0  0
  4  3  1  0  0  0  0
  4  5  1  0  0  0  0
  5  6  1  0  0  0  0
  6 14  1  0  0  0  0
  6  1  1  0  0  0  0
  6 15  1  0  0  0  0
  9  3  1  0  0  0  0
 10  3  1  0  0  0  0
 12  5  1  0  0  0  0
 13  5  1  0  0  0  0
 16 17  1  0  0  0  0
 16 25  1  0  0  0  0
 17  4  1  0  0  0  0
 18 26  1  0  0  0  0
 18 17  2  0  0  0  0
 19 18  1  0  0  0  0
 20 19  2  0  0  0  0
 20 21  1  0  0  0  0
 21 16  2  0  0  0  0
 22 20  1  0  0  0  0
 23 22  1  0  0  0  0
 23 24  1  0  0  0  0
 24 19  1  0  0  0  0
 27 21  1  0  0  0  0
 28 23  1  0  0  0  0
 29 23  1  0  0  0  0
 30 31  1  0  0  0  0
 31 36  1  0  0  0  0
 31 32  2  0  0  0  0
 32 37  1  0  0  0  0
 33 32  1  0  0  0  0
 34 33  2  0  0  0  0
 35 30  2  0  0  0  0
 35 34  1  0  0  0  0
 38 34  1  0  0  0  0
 38 44  1  0  0  0  0
 39 41  1  0  0  0  0
 39 38  2  0  0  0  0
 40 39  1  0  0  0  0
 41 42  1  0  0  0  0
 42 44  2  0  0  0  0
 42 43  1  0  0  0  0
M  END
>  <minimizedAffinity>
-5.729146

$$$$

 OpenBabel03272507493D

 44 48  0  0  0  0  0  0  0  0999 V2000
   38.5660   26.5460   33.3980 N   0  0  0  0  0  0  0  0  0  0  0  0
   38.1070   27.0700   32.1590 C   0  0  0  0  0  0  0  0  0  0  0  0
   37.2280   28.2610   32.2230 C   0  0  0  0  0  0  0  0  0  0  0  0
   36.2560   28.3050   33.3160 C   0  0  0  0  0  0  0  0  0  0  0  0
   36.7970   27.6600   34.6040 C   0  0  0  0  0  0  0  0  0  0  0  0
   37.4040   26.3020   34.2070 C   0  0  0  0  0  0  0  0  0  0  0  0
   37.5640   26.2410   31.6200 H   0  0  0  0  0  0  0  0  0  0  0  0
   38.9970   27.2900   31.5270 H   0  0  0  0  0  0  0  0  0  0  0  0
   36.7960   28.4590   31.2300 H   0  0  0  0  0  0  0  0  0  0  0  0
   37.9800   29.0930   32.4330 H   0  0  0  0  0  0  0  0  0  0  0  0
   35.3180   27.7260   33.0960 H   0  0  0  0  0  0  0  0  0  0  0  0
   37.6040   28.3070   34.9740 H   0  0  0  0  0  0  0  0  0  0  0  0
   35.9430   27.5200   35.2660 H   0  0  0  0  0  0  0  0  0  0  0  0
   36.6250   25.6820   33.7120 H   0  0  0  0  0  0  0  0  0  0  0  0
   37.7290   25.8450   35.1740 H   0  0  0  0  0  0  0  0  0  0  0  0
   35.4520   30.5420   32.7140 C   0  0  0  0  0  0  0  0  0  0  0  0
   35.8340   29.6680   33.7200 C   0  0  0  0  0  0  0  0  0  0  0  0
   35.8640   29.9970   35.0500 C   0  0  0  0  0  0  0  0  0  0  0  0
   35.4910   31.2940   35.4060 C   0  0  0  0  0  0  0  0  0  0  0  0
   35.1130   32.1650   34.4090 C   0  0  0  0  0  0  0  0  0  0  0  0
   35.0800   31.8290   33.0580 C   0  0  0  0  0  0  0  0  0  0  0  0
   34.7770   33.4080   34.9600 O   0  0  0  0  0  0  0  0  0  0  0  0
   34.6520   33.1640   36.3540 C   0  0  0  0  0  0  0  0  0  0  0  0
   35.3900   31.9970   36.6050 O   0  0  0  0  0  0  0  0  0  0  0  0
   35.3780   30.3910   31.6470 H   0  0  0  0  0  0  0  0  0  0  0  0
   36.1600   29.3030   35.7990 H   0  0  0  0  0  0  0  0  0  0  0  0
   34.7670   32.5790   32.3180 H   0  0  0  0  0  0  0  0  0  0  0  0
   35.2350   33.9980   36.8430 H   0  0  0  0  0  0  0  0  0  0  0  0
   33.6200   33.1540   36.7110 H   0  0  0  0  0  0  0  0  0  0  0  0
   39.9170   26.2940   33.8020 C   0  0  0  0  0  0  0  0  0  0  0  0
   41.0150   27.1050   33.5400 C   0  0  0  0  0  0  0  0  0  0  0  0
   42.2510   26.6910   34.0160 C   0  0  0  0  0  0  0  0  0  0  0  0
   42.3280   25.5250   34.7080 N   0  0  0  0  0  0  0  0  0  0  0  0
   41.2540   24.7650   34.9430 C   0  0  0  0  0  0  0  0  0  0  0  0
   40.0600   25.1450   34.4950 N   0  0  0  0  0  0  0  0  0  0  0  0
   40.7880   27.9870   32.9850 H   0  0  0  0  0  0  0  0  0  0  0  0
   43.0810   27.3370   33.7990 H   0  0  0  0  0  0  0  0  0  0  0  0
   41.4670   23.5140   35.7100 C   0  0  0  0  0  0  0  0  0  0  0  0
   42.6200   22.7160   35.6340 C   0  0  0  0  0  0  0  0  0  0  0  0
   43.4050   22.9470   35.0350 H   0  0  0  0  0  0  0  0  0  0  0  0
   42.1740   21.3740   36.8330 S   0  0  0  0  0  0  0  0  0  0  0  0
   40.4810   22.1790   37.2040 C   0  0  0  0  0  0  0  0  0  0  0  0
   39.8510   21.6760   37.9100 H   0  0  0  0  0  0  0  0  0  0  0  0
   40.4150   23.2640   36.4710 N   0  0  0  0  0  0  0  0  0  0  0  0
  1 30  1  0  0  0  0
  1  6  1  0  0  0  0
  2  3  1  0  0  0  0
  2  1  1  0  0  0  0
  3 10  1  0  0  0  0
  3  4  1  0  0  0  0
  4 17  1  0  0  0  0
  4  5  1  0  0  0  0
  5 12  1  0  0  0  0
  5 13  1  0  0  0  0
  6  5  1  0  0  0  0
  6 15  1  0  0  0  0
  7  2  1  0  0  0  0
  8  2  1  0  0  0  0
  9  3  1  0  0  0  0
 11  4  1  0  0  0  0
 14  6  1  0  0  0  0
 16 21  2  0  0  0  0
 16 17  1  0  0  0  0
 17 18  2  0  0  0  0
 18 19  1  0  0  0  0
 18 26  1  0  0  0  0
 19 24  1  0  0  0  0
 20 22  1  0  0  0  0
 20 19  2  0  0  0  0
 21 20  1  0  0  0  0
 22 23  1  0  0  0  0
 23 24  1  0  0  0  0
 23 29  1  0  0  0  0
 23 28  1  0  0  0  0
 25 16  1  0  0  0  0
 27 21  1  0  0  0  0
 30 35  1  0  0  0  0
 31 30  2  0  0  0  0
 31 32  1  0  0  0  0
 32 33  2  0  0  0  0
 33 34  1  0  0  0  0
 34 38  1  0  0  0  0
 35 34  2  0  0  0  0
 36 31  1  0  0  0  0
 37 32  1  0  0  0  0
 38 44  1  0  0  0  0
 39 38  2  0  0  0  0
 39 41  1  0  0  0  0
 40 39  1  0  0  0  0
 41 42  1  0  0  0  0
 42 43  1  0  0  0  0
 44 42  2  0  0  0  0
M  END
>  <minimizedAffinity>
-5.67775726

$$$$

 OpenBabel03272507493D

 44 48  0  0  0  0  0  0  0  0999 V2000
   37.4980   27.6680   31.9700 N   0  0  0  0  0  0  0  0  0  0  0  0
   38.1160   26.8780   30.9620 C   0  0  0  0  0  0  0  0  0  0  0  0
   38.0240   25.4070   31.1190 C   0  0  0  0  0  0  0  0  0  0  0  0
   38.1370   24.8810   32.4800 C   0  0  0  0  0  0  0  0  0  0  0  0
   37.5070   25.8200   33.5220 C   0  0  0  0  0  0  0  0  0  0  0  0
   38.0350   27.2360   33.2310 C   0  0  0  0  0  0  0  0  0  0  0  0
   39.2020   27.1770   30.9160 H   0  0  0  0  0  0  0  0  0  0  0  0
   37.6920   27.1800   29.9790 H   0  0  0  0  0  0  0  0  0  0  0  0
   38.6860   24.9140   30.3900 H   0  0  0  0  0  0  0  0  0  0  0  0
   36.9520   25.2050   30.7870 H   0  0  0  0  0  0  0  0  0  0  0  0
   39.2020   24.7690   32.8230 H   0  0  0  0  0  0  0  0  0  0  0  0
   36.4230   25.8110   33.3510 H   0  0  0  0  0  0  0  0  0  0  0  0
   37.8490   25.4770   34.4990 H   0  0  0  0  0  0  0  0  0  0  0  0
   39.1470   27.2310   33.2740 H   0  0  0  0  0  0  0  0  0  0  0  0
   37.6030   27.8720   34.0410 H   0  0  0  0  0  0  0  0  0  0  0  0
   37.7860   22.8870   33.8640 C   0  0  0  0  0  0  0  0  0  0  0  0
   37.4780   23.5710   32.6970 C   0  0  0  0  0  0  0  0  0  0  0  0
   36.6260   23.0970   31.7350 C   0  0  0  0  0  0  0  0  0  0  0  0
   36.0380   21.8490   31.9450 C   0  0  0  0  0  0  0  0  0  0  0  0
   36.3430   21.1670   33.1010 C   0  0  0  0  0  0  0  0  0  0  0  0
   37.2070   21.6490   34.0800 C   0  0  0  0  0  0  0  0  0  0  0  0
   35.6620   19.9440   33.1310 O   0  0  0  0  0  0  0  0  0  0  0  0
   34.6820   20.0500   32.1080 C   0  0  0  0  0  0  0  0  0  0  0  0
   35.1480   21.0450   31.2350 O   0  0  0  0  0  0  0  0  0  0  0  0
   38.4250   23.1640   34.6890 H   0  0  0  0  0  0  0  0  0  0  0  0
   36.4080   23.6470   30.8510 H   0  0  0  0  0  0  0  0  0  0  0  0
   37.4030   21.0470   34.9790 H   0  0  0  0  0  0  0  0  0  0  0  0
   34.7630   19.0830   31.5310 H   0  0  0  0  0  0  0  0  0  0  0  0
   33.6650   20.1920   32.4810 H   0  0  0  0  0  0  0  0  0  0  0  0
   36.5240   28.7040   31.8020 C   0  0  0  0  0  0  0  0  0  0  0  0
   36.5780   29.7370   30.8740 C   0  0  0  0  0  0  0  0  0  0  0  0
   35.5330   30.6510   30.8640 C   0  0  0  0  0  0  0  0  0  0  0  0
   34.5180   30.4930   31.7520 N   0  0  0  0  0  0  0  0  0  0  0  0
   34.4930   29.4890   32.6340 C   0  0  0  0  0  0  0  0  0  0  0  0
   35.4860   28.6030   32.6590 N   0  0  0  0  0  0  0  0  0  0  0  0
   37.4410   29.7210   30.2480 H   0  0  0  0  0  0  0  0  0  0  0  0
   35.6010   31.4380   30.1360 H   0  0  0  0  0  0  0  0  0  0  0  0
   33.3300   29.4250   33.5510 C   0  0  0  0  0  0  0  0  0  0  0  0
   33.3670   29.7640   34.9140 C   0  0  0  0  0  0  0  0  0  0  0  0
   34.2120   30.0850   35.3740 H   0  0  0  0  0  0  0  0  0  0  0  0
   31.6030   29.4430   35.3830 S   0  0  0  0  0  0  0  0  0  0  0  0
   31.1600   28.9020   33.6040 C   0  0  0  0  0  0  0  0  0  0  0  0
   30.1450   28.6080   33.4260 H   0  0  0  0  0  0  0  0  0  0  0  0
   32.2610   29.0020   32.9000 N   0  0  0  0  0  0  0  0  0  0  0  0
  1  6  1  0  0  0  0
  2  3  1  0  0  0  0
  2  1  1  0  0  0  0
  3  4  1  0  0  0  0
  4 17  1  0  0  0  0
  4 11  1  0  0  0  0
  4  5  1  0  0  0  0
  5 13  1  0  0  0  0
  6 14  1  0  0  0  0
  6  5  1  0  0  0  0
  6 15  1  0  0  0  0
  7  2  1  0  0  0  0
  8  2  1  0  0  0  0
  9  3  1  0  0  0  0
 10  3  1  0  0  0  0
 12  5  1  0  0  0  0
 16 21  1  0  0  0  0
 16 25  1  0  0  0  0
 17 16  2  0  0  0  0
 18 19  2  0  0  0  0
 18 17  1  0  0  0  0
 19 20  1  0  0  0  0
 20 22  1  0  0  0  0
 20 21  2  0  0  0  0
 21 27  1  0  0  0  0
 23 29  1  0  0  0  0
 23 22  1  0  0  0  0
 24 19  1  0  0  0  0
 24 23  1  0  0  0  0
 26 18  1  0  0  0  0
 28 23  1  0  0  0  0
 30  1  1  0  0  0  0
 30 35  1  0  0  0  0
 31 30  2  0  0  0  0
 32 31  1  0  0  0  0
 32 33  2  0  0  0  0
 33 34  1  0  0  0  0
 34 35  2  0  0  0  0
 34 38  1  0  0  0  0
 36 31  1  0  0  0  0
 37 32  1  0  0  0  0
 38 39  2  0  0  0  0
 39 40  1  0  0  0  0
 39 41  1  0  0  0  0
 42 41  1  0  0  0  0
 43 42  1  0  0  0  0
 44 38  1  0  0  0  0
 44 42  2  0  0  0  0
M  END
>  <minimizedAffinity>
-5.60564947

$$$$

 OpenBabel03272507493D

 44 48  0  0  0  0  0  0  0  0999 V2000
   36.9030   26.6910   31.1920 N   0  0  0  0  0  0  0  0  0  0  0  0
   37.4830   27.7650   30.4620 C   0  0  0  0  0  0  0  0  0  0  0  0
   37.2560   29.1290   30.9920 C   0  0  0  0  0  0  0  0  0  0  0  0
   35.9360   29.4040   31.5610 C   0  0  0  0  0  0  0  0  0  0  0  0
   35.3420   28.1780   32.2760 C   0  0  0  0  0  0  0  0  0  0  0  0
   35.5020   26.9810   31.3230 C   0  0  0  0  0  0  0  0  0  0  0  0
   37.0900   27.7090   29.4070 H   0  0  0  0  0  0  0  0  0  0  0  0
   38.5760   27.5700   30.3730 H   0  0  0  0  0  0  0  0  0  0  0  0
   37.5910   29.8750   30.2550 H   0  0  0  0  0  0  0  0  0  0  0  0
   37.9920   29.1660   31.8620 H   0  0  0  0  0  0  0  0  0  0  0  0
   35.1660   29.6660   30.7850 H   0  0  0  0  0  0  0  0  0  0  0  0
   35.9560   27.9970   33.1680 H   0  0  0  0  0  0  0  0  0  0  0  0
   34.2880   28.3960   32.4450 H   0  0  0  0  0  0  0  0  0  0  0  0
   34.9910   27.2050   30.3600 H   0  0  0  0  0  0  0  0  0  0  0  0
   35.0080   26.1290   31.8520 H   0  0  0  0  0  0  0  0  0  0  0  0
   36.2250   31.7680   32.1480 C   0  0  0  0  0  0  0  0  0  0  0  0
   35.9080   30.4870   32.5740 C   0  0  0  0  0  0  0  0  0  0  0  0
   35.5970   30.1660   33.8690 C   0  0  0  0  0  0  0  0  0  0  0  0
   35.6050   31.1950   34.8130 C   0  0  0  0  0  0  0  0  0  0  0  0
   35.9210   32.4670   34.3940 C   0  0  0  0  0  0  0  0  0  0  0  0
   36.2340   32.7940   33.0770 C   0  0  0  0  0  0  0  0  0  0  0  0
   35.8760   33.3540   35.4760 O   0  0  0  0  0  0  0  0  0  0  0  0
   35.2070   32.6380   36.5040 C   0  0  0  0  0  0  0  0  0  0  0  0
   35.3550   31.2800   36.1810 O   0  0  0  0  0  0  0  0  0  0  0  0
   36.4710   32.1370   31.1630 H   0  0  0  0  0  0  0  0  0  0  0  0
   35.3570   29.1730   34.1650 H   0  0  0  0  0  0  0  0  0  0  0  0
   36.4770   33.8330   32.8160 H   0  0  0  0  0  0  0  0  0  0  0  0
   35.8410   32.7980   37.4240 H   0  0  0  0  0  0  0  0  0  0  0  0
   34.1810   32.9700   36.6800 H   0  0  0  0  0  0  0  0  0  0  0  0
   37.5550   25.5270   31.7120 C   0  0  0  0  0  0  0  0  0  0  0  0
   38.8750   25.4490   32.1430 C   0  0  0  0  0  0  0  0  0  0  0  0
   39.3280   24.2270   32.6180 C   0  0  0  0  0  0  0  0  0  0  0  0
   38.4690   23.1750   32.6410 N   0  0  0  0  0  0  0  0  0  0  0  0
   37.2050   23.2800   32.2200 C   0  0  0  0  0  0  0  0  0  0  0  0
   36.7520   24.4430   31.7610 N   0  0  0  0  0  0  0  0  0  0  0  0
   39.4180   26.3630   32.0600 H   0  0  0  0  0  0  0  0  0  0  0  0
   40.3510   24.1970   32.9440 H   0  0  0  0  0  0  0  0  0  0  0  0
   36.3650   22.0600   32.2950 C   0  0  0  0  0  0  0  0  0  0  0  0
   35.6360   21.5240   31.2210 C   0  0  0  0  0  0  0  0  0  0  0  0
   35.6350   21.9440   30.2980 H   0  0  0  0  0  0  0  0  0  0  0  0
   34.8640   20.0540   32.0450 S   0  0  0  0  0  0  0  0  0  0  0  0
   35.7000   20.4690   33.7130 C   0  0  0  0  0  0  0  0  0  0  0  0
   35.4980   19.8080   34.5330 H   0  0  0  0  0  0  0  0  0  0  0  0
   36.4040   21.5560   33.5170 N   0  0  0  0  0  0  0  0  0  0  0  0
  1  6  1  0  0  0  0
  1 30  1  0  0  0  0
  2  3  1  0  0  0  0
  2  1  1  0  0  0  0
  3  4  1  0  0  0  0
  3 10  1  0  0  0  0
  4  5  1  0  0  0  0
  4 17  1  0  0  0  0
  5 13  1  0  0  0  0
  5 12  1  0  0  0  0
  6 15  1  0  0  0  0
  6  5  1  0  0  0  0
  7  2  1  0  0  0  0
  8  2  1  0  0  0  0
  9  3  1  0  0  0  0
 11  4  1  0  0  0  0
 14  6  1  0  0  0  0
 16 17  2  0  0  0  0
 16 21  1  0  0  0  0
 17 18  1  0  0  0  0
 18 26  1  0  0  0  0
 18 19  2  0  0  0  0
 19 24  1  0  0  0  0
 20 19  1  0  0  0  0
 20 22  1  0  0  0  0
 21 20  2  0  0  0  0
 22 23  1  0  0  0  0
 23 29  1  0  0  0  0
 23 28  1  0  0  0  0
 24 23  1  0  0  0  0
 25 16  1  0  0  0  0
 27 21  1  0  0  0  0
 30 35  2  0  0  0  0
 30 31  1  0  0  0  0
 31 32  2  0  0  0  0
 32 33  1  0  0  0  0
 32 37  1  0  0  0  0
 34 38  1  0  0  0  0
 34 33  2  0  0  0  0
 35 34  1  0  0  0  0
 36 31  1  0  0  0  0
 38 44  1  0  0  0  0
 39 41  1  0  0  0  0
 39 38  2  0  0  0  0
 40 39  1  0  0  0  0
 41 42  1  0  0  0  0
 42 43  1  0  0  0  0
 44 42  2  0  0  0  0
M  END
>  <minimizedAffinity>
-5.53038025

$$$$

 OpenBabel03272507493D

 44 48  0  0  0  0  0  0  0  0999 V2000
   37.0190   27.4080   34.2270 N   0  0  0  0  0  0  0  0  0  0  0  0
   37.6750   27.3600   35.4880 C   0  0  0  0  0  0  0  0  0  0  0  0
   39.1410   27.1500   35.4680 C   0  0  0  0  0  0  0  0  0  0  0  0
   39.6610   26.2250   34.4600 C   0  0  0  0  0  0  0  0  0  0  0  0
   38.8600   26.2830   33.1470 C   0  0  0  0  0  0  0  0  0  0  0  0
   37.3710   26.2050   33.5250 C   0  0  0  0  0  0  0  0  0  0  0  0
   37.1930   26.5380   36.0900 H   0  0  0  0  0  0  0  0  0  0  0  0
   37.4350   28.2980   36.0370 H   0  0  0  0  0  0  0  0  0  0  0  0
   39.5030   26.9500   36.4890 H   0  0  0  0  0  0  0  0  0  0  0  0
   39.5210   28.1850   35.1760 H   0  0  0  0  0  0  0  0  0  0  0  0
   39.5930   25.1470   34.7720 H   0  0  0  0  0  0  0  0  0  0  0  0
   39.0540   27.2650   32.6950 H   0  0  0  0  0  0  0  0  0  0  0  0
   39.1550   25.4120   32.5630 H   0  0  0  0  0  0  0  0  0  0  0  0
   37.1850   25.2710   34.0990 H   0  0  0  0  0  0  0  0  0  0  0  0
   36.8310   26.1910   32.5460 H   0  0  0  0  0  0  0  0  0  0  0  0
   42.0530   25.7550   34.7280 C   0  0  0  0  0  0  0  0  0  0  0  0
   41.0690   26.4670   34.0600 C   0  0  0  0  0  0  0  0  0  0  0  0
   41.3220   27.3880   33.0770 C   0  0  0  0  0  0  0  0  0  0  0  0
   42.6550   27.6220   32.7360 C   0  0  0  0  0  0  0  0  0  0  0  0
   43.6360   26.9180   33.3990 C   0  0  0  0  0  0  0  0  0  0  0  0
   43.3770   25.9810   34.3950 C   0  0  0  0  0  0  0  0  0  0  0  0
   44.8990   27.2890   32.9210 O   0  0  0  0  0  0  0  0  0  0  0  0
   44.6370   28.0020   31.7210 C   0  0  0  0  0  0  0  0  0  0  0  0
   43.3100   28.4470   31.8230 O   0  0  0  0  0  0  0  0  0  0  0  0
   41.9710   25.0050   35.5000 H   0  0  0  0  0  0  0  0  0  0  0  0
   40.5440   27.9160   32.5820 H   0  0  0  0  0  0  0  0  0  0  0  0
   44.2120   25.4570   34.8810 H   0  0  0  0  0  0  0  0  0  0  0  0
   45.2720   28.9330   31.7970 H   0  0  0  0  0  0  0  0  0  0  0  0
   44.8770   27.4450   30.8130 H   0  0  0  0  0  0  0  0  0  0  0  0
   36.1640   28.4380   33.7190 C   0  0  0  0  0  0  0  0  0  0  0  0
   35.8710   28.6730   32.3800 C   0  0  0  0  0  0  0  0  0  0  0  0
   35.0150   29.7240   32.0820 C   0  0  0  0  0  0  0  0  0  0  0  0
   34.5090   30.4650   33.1010 N   0  0  0  0  0  0  0  0  0  0  0  0
   34.8090   30.2140   34.3790 C   0  0  0  0  0  0  0  0  0  0  0  0
   35.6280   29.2110   34.6850 N   0  0  0  0  0  0  0  0  0  0  0  0
   36.3480   28.0030   31.7010 H   0  0  0  0  0  0  0  0  0  0  0  0
   34.8070   29.8820   31.0400 H   0  0  0  0  0  0  0  0  0  0  0  0
   34.1930   31.0940   35.4020 C   0  0  0  0  0  0  0  0  0  0  0  0
   32.8110   31.2340   35.6080 C   0  0  0  0  0  0  0  0  0  0  0  0
   32.1230   30.7300   35.0590 H   0  0  0  0  0  0  0  0  0  0  0  0
   32.8060   32.4570   37.0020 S   0  0  0  0  0  0  0  0  0  0  0  0
   34.7150   32.5350   37.0250 C   0  0  0  0  0  0  0  0  0  0  0  0
   35.1640   33.1850   37.7510 H   0  0  0  0  0  0  0  0  0  0  0  0
   35.1330   31.7230   36.0850 N   0  0  0  0  0  0  0  0  0  0  0  0
  1  2  1  0  0  0  0
  2  8  1  0  0  0  0
  2  7  1  0  0  0  0
  3  2  1  0  0  0  0
  3  9  1  0  0  0  0
  4 11  1  0  0  0  0
  4  3  1  0  0  0  0
  5  6  1  0  0  0  0
  5  4  1  0  0  0  0
  6 14  1  0  0  0  0
  6  1  1  0  0  0  0
 10  3  1  0  0  0  0
 12  5  1  0  0  0  0
 13  5  1  0  0  0  0
 15  6  1  0  0  0  0
 16 25  1  0  0  0  0
 17  4  1  0  0  0  0
 17 16  2  0  0  0  0
 18 17  1  0  0  0  0
 19 18  2  0  0  0  0
 19 20  1  0  0  0  0
 20 21  2  0  0  0  0
 21 16  1  0  0  0  0
 21 27  1  0  0  0  0
 22 20  1  0  0  0  0
 23 28  1  0  0  0  0
 23 24  1  0  0  0  0
 23 22  1  0  0  0  0
 24 19  1  0  0  0  0
 26 18  1  0  0  0  0
 29 23  1  0  0  0  0
 30  1  1  0  0  0  0
 30 35  1  0  0  0  0
 31 30  2  0  0  0  0
 32 31  1  0  0  0  0
 32 33  2  0  0  0  0
 33 34  1  0  0  0  0
 34 35  2  0  0  0  0
 34 38  1  0  0  0  0
 36 31  1  0  0  0  0
 37 32  1  0  0  0  0
 38 39  2  0  0  0  0
 38 44  1  0  0  0  0
 39 41  1  0  0  0  0
 40 39  1  0  0  0  0
 41 42  1  0  0  0  0
 42 43  1  0  0  0  0
 44 42  2  0  0  0  0
M  END
>  <minimizedAffinity>
-5.52394581

$$$$
