
 OpenBabel03272508543D

 36 39  0  0  1  0  0  0  0  0999 V2000
   38.3010   31.8980   44.5390 C   0  0  0  0  0  0  0  0  0  0  0  0
   37.1470   32.3560   44.4430 O   0  0  0  0  0  0  0  0  0  0  0  0
   38.9300   31.7310   45.8350 N   0  0  0  0  0  0  0  0  0  0  0  0
   39.9390   31.5310   45.9770 H   0  0  0  0  0  0  0  0  0  0  0  0
   39.0960   31.4990   43.3490 C   0  0  0  0  0  0  0  0  0  0  0  0
   40.0830   30.5610   43.4900 C   0  0  0  0  0  0  0  0  0  0  0  0
   40.8010   30.2380   42.3490 C   0  0  0  0  0  0  0  0  0  0  0  0
   40.4930   30.8600   41.1680 C   0  0  0  0  0  0  0  0  0  0  0  0
   39.4950   31.8060   41.0290 C   0  0  0  0  0  0  0  0  0  0  0  0
   38.8430   32.0720   42.1630 N   0  0  0  0  0  0  0  0  0  0  0  0
   40.3110   30.0820   44.4320 H   0  0  0  0  0  0  0  0  0  0  0  0
   41.6030   29.5100   42.3460 H   0  0  0  0  0  0  0  0  0  0  0  0
   41.0630   30.6030   40.2620 H   0  0  0  0  0  0  0  0  0  0  0  0
   39.1400   32.4850   39.7920 C   0  0  0  0  0  0  0  0  0  0  0  0
   38.4110   33.6750   39.8900 C   0  0  0  0  0  0  0  0  0  0  0  0
   37.9750   34.3220   40.7210 H   0  0  0  0  0  0  0  0  0  0  0  0
   38.1820   34.1910   38.0890 S   0  0  0  0  0  0  0  0  0  0  0  0
   39.1500   32.6450   37.5640 C   0  0  0  0  0  0  0  0  0  0  0  0
   39.5150   32.1270   36.5350 H   0  0  0  0  0  0  0  0  0  0  0  0
   39.3960   32.1630   38.5440 N   0  0  0  0  0  0  0  0  0  0  0  0
   38.4530   31.1740   48.2160 C   0  0  2  0  0  0  0  0  0  0  0  0
   38.7320   32.6180   48.1690 C   0  0  0  0  0  0  0  0  0  0  0  0
   38.0700   31.8530   47.0010 C   0  0  1  0  0  0  0  0  0  0  0  0
   39.3570   30.5330   48.2490 H   0  0  0  0  0  0  0  0  0  0  0  0
   39.7750   32.9520   48.0310 H   0  0  0  0  0  0  0  0  0  0  0  0
   38.1120   33.3420   48.7300 H   0  0  0  0  0  0  0  0  0  0  0  0
   37.0190   32.1930   46.8320 H   0  0  0  0  0  0  0  0  0  0  0  0
   35.1180   30.2300   49.5330 C   0  0  0  0  0  0  0  0  0  0  0  0
   35.4510   29.5550   50.7430 C   0  0  0  0  0  0  0  0  0  0  0  0
   36.8520   29.4460   51.0850 C   0  0  0  0  0  0  0  0  0  0  0  0
   37.7810   29.9860   50.2470 N   0  0  0  0  0  0  0  0  0  0  0  0
   37.3810   30.6170   49.1080 C   0  0  0  0  0  0  0  0  0  0  0  0
   36.0630   30.7560   48.7220 N   0  0  0  0  0  0  0  0  0  0  0  0
   34.0630   30.2850   49.3240 H   0  0  0  0  0  0  0  0  0  0  0  0
   34.6910   29.1450   51.3730 H   0  0  0  0  0  0  0  0  0  0  0  0
   37.1140   28.9380   51.9970 H   0  0  0  0  0  0  0  0  0  0  0  0
  1  3  1  0  0  0  0
  2  1  2  0  0  0  0
  3  4  1  0  0  0  0
  3 23  1  0  0  0  0
  5  6  1  0  0  0  0
  5  1  1  0  0  0  0
  6 11  1  0  0  0  0
  7  6  2  0  0  0  0
  8  7  1  0  0  0  0
  9  8  2  0  0  0  0
  9 10  1  0  0  0  0
 10  5  2  0  0  0  0
 12  7  1  0  0  0  0
 13  8  1  0  0  0  0
 14 15  2  0  0  0  0
 14  9  1  0  0  0  0
 15 16  1  0  0  0  0
 17 15  1  0  0  0  0
 18 17  1  0  0  0  0
 18 20  2  0  0  0  0
 19 18  1  0  0  0  0
 20 14  1  0  0  0  0
 21 24  1  6  0  0  0
 21 32  1  0  0  0  0
 22 21  1  0  0  0  0
 22 26  1  0  0  0  0
 23 27  1  6  0  0  0
 23 22  1  0  0  0  0
 23 21  1  0  0  0  0
 25 22  1  0  0  0  0
 28 29  1  0  0  0  0
 29 30  2  0  0  0  0
 29 35  1  0  0  0  0
 30 36  1  0  0  0  0
 31 30  1  0  0  0  0
 32 31  2  0  0  0  0
 33 32  1  0  0  0  0
 33 28  2  0  0  0  0
 34 28  1  0  0  0  0
M  END
>  <minimizedAffinity>
-5.18404341

>  <minimizedRMSD>
0.557098091

$$$$
