
 OpenBabel03262523383D

 43 46  0  0  1  0  0  0  0  0999 V2000
   35.2840   30.0400   49.5420 C   0  0  2  0  0  0  0  0  0  0  0  0
   36.1830   31.2120   49.3370 C   0  0  0  0  0  0  0  0  0  0  0  0
   37.6520   30.8880   49.6080 C   0  0  2  0  0  0  0  0  0  0  0  0
   37.8030   30.4970   51.0550 C   0  0  0  0  0  0  0  0  0  0  0  0
   36.7700   29.4740   51.4810 C   0  0  0  0  0  0  0  0  0  0  0  0
   35.9890   28.9420   50.3070 C   0  0  0  0  0  0  0  0  0  0  0  0
   34.3510   30.2730   50.1290 H   0  0  0  0  0  0  0  0  0  0  0  0
   35.9240   31.9160   50.2090 H   0  0  0  0  0  0  0  0  0  0  0  0
   36.1140   31.8140   48.4770 H   0  0  0  0  0  0  0  0  0  0  0  0
   37.8670   29.9820   49.0080 H   0  0  0  0  0  0  0  0  0  0  0  0
   38.8160   30.0740   51.2300 H   0  0  0  0  0  0  0  0  0  0  0  0
   37.7110   31.4210   51.6730 H   0  0  0  0  0  0  0  0  0  0  0  0
   37.1840   28.6310   52.0470 H   0  0  0  0  0  0  0  0  0  0  0  0
   36.0100   29.9390   52.1660 H   0  0  0  0  0  0  0  0  0  0  0  0
   35.2080   28.2680   50.7110 H   0  0  0  0  0  0  0  0  0  0  0  0
   36.6260   28.3400   49.6540 H   0  0  0  0  0  0  0  0  0  0  0  0
   38.5550   31.9540   49.1450 C   0  0  2  0  0  0  0  0  0  0  0  0
   38.7860   33.1020   50.0880 C   0  0  0  0  0  0  0  0  0  0  0  0
   39.5380   34.0250   49.1110 C   0  0  0  0  0  0  0  0  0  0  0  0
   38.9090   33.8730   47.9030 O   0  0  0  0  0  0  0  0  0  0  0  0
   38.1710   32.6910   47.9150 C   0  0  1  0  0  0  0  0  0  0  0  0
   39.5530   31.5040   48.9600 H   0  0  0  0  0  0  0  0  0  0  0  0
   39.4150   32.8320   50.9480 H   0  0  0  0  0  0  0  0  0  0  0  0
   37.8290   33.5780   50.3510 H   0  0  0  0  0  0  0  0  0  0  0  0
   39.5260   35.0730   49.4790 H   0  0  0  0  0  0  0  0  0  0  0  0
   40.5940   33.6480   49.0500 H   0  0  0  0  0  0  0  0  0  0  0  0
   37.1350   33.0100   47.8160 H   0  0  0  0  0  0  0  0  0  0  0  0
   38.5720   31.9740   46.6490 C   0  0  0  0  0  0  0  0  0  0  0  0
   38.6070   30.5560   46.6100 C   0  0  0  0  0  0  0  0  0  0  0  0
   38.3550   29.9000   47.4590 H   0  0  0  0  0  0  0  0  0  0  0  0
   39.1260   30.2130   44.9410 S   0  0  0  0  0  0  0  0  0  0  0  0
   39.2280   32.0570   44.5140 C   0  0  0  0  0  0  0  0  0  0  0  0
   39.5120   32.5450   43.5650 H   0  0  0  0  0  0  0  0  0  0  0  0
   38.9080   32.5740   45.5260 N   0  0  0  0  0  0  0  0  0  0  0  0
   34.8040   29.4560   48.2710 C   0  0  0  0  0  0  0  0  0  0  0  0
   35.0580   30.2180   47.1290 C   0  0  0  0  0  0  0  0  0  0  0  0
   34.6530   29.7230   45.9080 C   0  0  0  0  0  0  0  0  0  0  0  0
   34.0120   28.4940   45.8620 N   0  0  0  0  0  0  0  0  0  0  0  0
   33.7800   27.7790   46.9970 C   0  0  0  0  0  0  0  0  0  0  0  0
   34.1780   28.2730   48.1610 N   0  0  0  0  0  0  0  0  0  0  0  0
   35.5090   31.1610   46.8730 H   0  0  0  0  0  0  0  0  0  0  0  0
   34.7160   30.0800   44.9050 H   0  0  0  0  0  0  0  0  0  0  0  0
   33.2830   26.8240   46.9770 H   0  0  0  0  0  0  0  0  0  0  0  0
  1  7  1  1  0  0  0
  1  6  1  0  0  0  0
  2  1  1  0  0  0  0
  2  3  1  0  0  0  0
  2  8  1  0  0  0  0
  3 10  1  6  0  0  0
  3  4  1  0  0  0  0
  4 11  1  0  0  0  0
  4  5  1  0  0  0  0
  4 12  1  0  0  0  0
  5 13  1  0  0  0  0
  5 14  1  0  0  0  0
  6 15  1  0  0  0  0
  6  5  1  0  0  0  0
  9  2  1  0  0  0  0
 16  6  1  0  0  0  0
 17 22  1  6  0  0  0
 17  3  1  0  0  0  0
 17 18  1  0  0  0  0
 18 24  1  0  0  0  0
 18 23  1  0  0  0  0
 19 25  1  0  0  0  0
 19 18  1  0  0  0  0
 20 21  1  0  0  0  0
 20 19  1  0  0  0  0
 21 27  1  6  0  0  0
 21 17  1  0  0  0  0
 26 19  1  0  0  0  0
 28 21  1  0  0  0  0
 29 28  2  0  0  0  0
 29 30  1  0  0  0  0
 31 29  1  0  0  0  0
 32 31  1  0  0  0  0
 32 34  2  0  0  0  0
 33 32  1  0  0  0  0
 34 28  1  0  0  0  0
 35  1  1  0  0  0  0
 36 35  2  0  0  0  0
 37 36  1  0  0  0  0
 38 37  2  0  0  0  0
 38 39  1  0  0  0  0
 39 40  2  0  0  0  0
 40 35  1  0  0  0  0
 41 36  1  0  0  0  0
 42 37  1  0  0  0  0
 43 39  1  0  0  0  0
M  END
>  <minimizedAffinity>
-6.15571547

>  <minimizedRMSD>
2.09641671

$$$$
