
 OpenBabel03272506003D

 42 45  0  0  1  0  0  0  0  0999 V2000
   34.7330   30.4100   32.9820 C   0  0  2  0  0  0  0  0  0  0  0  0
   35.0170   28.9580   32.8760 C   0  0  0  0  0  0  0  0  0  0  0  0
   36.4510   28.6670   32.4150 C   0  0  2  0  0  0  0  0  0  0  0  0
   36.8100   29.3040   31.1450 C   0  0  0  0  0  0  0  0  0  0  0  0
   36.2500   30.7130   30.9910 C   0  0  0  0  0  0  0  0  0  0  0  0
   35.7740   31.2690   32.3030 C   0  0  0  0  0  0  0  0  0  0  0  0
   33.7630   30.7150   32.4840 H   0  0  0  0  0  0  0  0  0  0  0  0
   34.4030   28.5990   31.9810 H   0  0  0  0  0  0  0  0  0  0  0  0
   34.8740   28.2890   33.6870 H   0  0  0  0  0  0  0  0  0  0  0  0
   37.0950   28.9410   33.2560 H   0  0  0  0  0  0  0  0  0  0  0  0
   37.9100   29.2860   31.0180 H   0  0  0  0  0  0  0  0  0  0  0  0
   36.4040   28.7350   30.2890 H   0  0  0  0  0  0  0  0  0  0  0  0
   37.0980   31.3520   30.6680 H   0  0  0  0  0  0  0  0  0  0  0  0
   35.4970   30.7960   30.1930 H   0  0  0  0  0  0  0  0  0  0  0  0
   35.3540   32.2610   32.1380 H   0  0  0  0  0  0  0  0  0  0  0  0
   36.6250   31.3590   32.9980 H   0  0  0  0  0  0  0  0  0  0  0  0
   38.1660   27.2800   34.3680 Cl  0  0  0  0  0  0  0  0  0  0  0  0
   37.2790   26.4220   33.1060 C   0  0  0  0  0  0  0  0  0  0  0  0
   36.4850   27.1830   32.2700 C   0  0  0  0  0  0  0  0  0  0  0  0
   35.8260   26.4230   31.3350 C   0  0  0  0  0  0  0  0  0  0  0  0
   35.9470   25.0510   31.2440 C   0  0  0  0  0  0  0  0  0  0  0  0
   36.7710   24.3680   32.1300 C   0  0  0  0  0  0  0  0  0  0  0  0
   37.4630   25.0860   33.0990 C   0  0  0  0  0  0  0  0  0  0  0  0
   35.1740   26.9330   30.6360 H   0  0  0  0  0  0  0  0  0  0  0  0
   35.3900   24.5210   30.4720 H   0  0  0  0  0  0  0  0  0  0  0  0
   36.8440   23.3020   32.0330 H   0  0  0  0  0  0  0  0  0  0  0  0
   38.3380   24.3980   34.0480 C   0  0  0  0  0  0  0  0  0  0  0  0
   39.7090   24.1080   33.7280 C   0  0  0  0  0  0  0  0  0  0  0  0
   40.2750   24.3540   32.7550 H   0  0  0  0  0  0  0  0  0  0  0  0
   40.3400   23.2650   35.2100 S   0  0  0  0  0  0  0  0  0  0  0  0
   38.6410   23.4320   36.0450 C   0  0  0  0  0  0  0  0  0  0  0  0
   38.1940   23.1190   37.0870 H   0  0  0  0  0  0  0  0  0  0  0  0
   38.0490   23.9630   35.2540 N   0  0  0  0  0  0  0  0  0  0  0  0
   34.6110   30.8780   34.3710 C   0  0  0  0  0  0  0  0  0  0  0  0
   35.7800   31.4010   34.9240 C   0  0  0  0  0  0  0  0  0  0  0  0
   35.7170   31.8770   36.2430 C   0  0  0  0  0  0  0  0  0  0  0  0
   34.5070   31.8040   36.9250 N   0  0  0  0  0  0  0  0  0  0  0  0
   33.4050   31.2880   36.3470 C   0  0  0  0  0  0  0  0  0  0  0  0
   33.4900   30.8420   35.0900 N   0  0  0  0  0  0  0  0  0  0  0  0
   36.8080   31.5760   34.6640 H   0  0  0  0  0  0  0  0  0  0  0  0
   36.4370   32.3140   36.8890 H   0  0  0  0  0  0  0  0  0  0  0  0
   32.4630   31.2290   36.8730 H   0  0  0  0  0  0  0  0  0  0  0  0
  1  7  1  6  0  0  0
  1 34  1  0  0  0  0
  2  1  1  0  0  0  0
  2  9  1  0  0  0  0
  3  2  1  0  0  0  0
  3 10  1  1  0  0  0
  4  3  1  0  0  0  0
  5  4  1  0  0  0  0
  5  6  1  0  0  0  0
  6  1  1  0  0  0  0
  6 16  1  0  0  0  0
  8  2  1  0  0  0  0
 11  4  1  0  0  0  0
 12  4  1  0  0  0  0
 13  5  1  0  0  0  0
 14  5  1  0  0  0  0
 15  6  1  0  0  0  0
 18 17  1  0  0  0  0
 19  3  1  0  0  0  0
 19 18  2  0  0  0  0
 20 19  1  0  0  0  0
 21 20  2  0  0  0  0
 21 22  1  0  0  0  0
 22 23  2  0  0  0  0
 23 18  1  0  0  0  0
 23 27  1  0  0  0  0
 24 20  1  0  0  0  0
 25 21  1  0  0  0  0
 26 22  1  0  0  0  0
 27 33  1  0  0  0  0
 28 27  2  0  0  0  0
 28 30  1  0  0  0  0
 29 28  1  0  0  0  0
 30 31  1  0  0  0  0
 31 32  1  0  0  0  0
 33 31  2  0  0  0  0
 34 35  2  0  0  0  0
 34 39  1  0  0  0  0
 35 36  1  0  0  0  0
 36 41  1  0  0  0  0
 36 37  2  0  0  0  0
 38 42  1  0  0  0  0
 38 37  1  0  0  0  0
 39 38  2  0  0  0  0
 40 35  1  0  0  0  0
M  END
>  <minimizedAffinity>
-5.62526274

$$$$

 OpenBabel03272506003D

 42 45  0  0  1  0  0  0  0  0999 V2000
   36.6280   23.4600   30.9380 C   0  0  2  0  0  0  0  0  0  0  0  0
   37.7680   23.8910   31.7830 C   0  0  0  0  0  0  0  0  0  0  0  0
   37.3480   24.8590   32.8960 C   0  0  2  0  0  0  0  0  0  0  0  0
   36.6510   26.0540   32.4150 C   0  0  0  0  0  0  0  0  0  0  0  0
   35.6870   25.7760   31.2670 C   0  0  0  0  0  0  0  0  0  0  0  0
   35.3930   24.3100   31.1310 C   0  0  0  0  0  0  0  0  0  0  0  0
   36.8390   23.5370   29.8280 H   0  0  0  0  0  0  0  0  0  0  0  0
   38.4010   24.5640   31.1100 H   0  0  0  0  0  0  0  0  0  0  0  0
   38.4020   23.1990   32.2790 H   0  0  0  0  0  0  0  0  0  0  0  0
   36.7770   24.2590   33.6120 H   0  0  0  0  0  0  0  0  0  0  0  0
   36.1420   26.5540   33.2620 H   0  0  0  0  0  0  0  0  0  0  0  0
   37.3660   26.7970   32.0200 H   0  0  0  0  0  0  0  0  0  0  0  0
   34.7280   26.2640   31.5400 H   0  0  0  0  0  0  0  0  0  0  0  0
   35.9960   26.2400   30.3190 H   0  0  0  0  0  0  0  0  0  0  0  0
   34.7290   24.1570   30.2800 H   0  0  0  0  0  0  0  0  0  0  0  0
   34.8880   23.9460   32.0400 H   0  0  0  0  0  0  0  0  0  0  0  0
   38.6550   22.7020   34.4200 Cl  0  0  0  0  0  0  0  0  0  0  0  0
   39.3290   24.3290   34.3100 C   0  0  0  0  0  0  0  0  0  0  0  0
   38.6370   25.2440   33.5400 C   0  0  0  0  0  0  0  0  0  0  0  0
   39.2500   26.4720   33.5060 C   0  0  0  0  0  0  0  0  0  0  0  0
   40.4260   26.7570   34.1680 C   0  0  0  0  0  0  0  0  0  0  0  0
   41.0550   25.7720   34.9200 C   0  0  0  0  0  0  0  0  0  0  0  0
   40.4800   24.5080   34.9910 C   0  0  0  0  0  0  0  0  0  0  0  0
   38.7820   27.2550   32.9220 H   0  0  0  0  0  0  0  0  0  0  0  0
   40.8490   27.7580   34.0900 H   0  0  0  0  0  0  0  0  0  0  0  0
   41.9670   26.0240   35.4230 H   0  0  0  0  0  0  0  0  0  0  0  0
   41.1140   23.4470   35.7740 C   0  0  0  0  0  0  0  0  0  0  0  0
   42.3680   22.8700   35.3750 C   0  0  0  0  0  0  0  0  0  0  0  0
   43.0080   23.1360   34.4550 H   0  0  0  0  0  0  0  0  0  0  0  0
   42.7100   21.6270   36.6570 S   0  0  0  0  0  0  0  0  0  0  0  0
   41.0910   22.0770   37.5450 C   0  0  0  0  0  0  0  0  0  0  0  0
   40.5460   21.7030   38.5170 H   0  0  0  0  0  0  0  0  0  0  0  0
   40.6840   22.8840   36.8810 N   0  0  0  0  0  0  0  0  0  0  0  0
   36.2400   22.0590   31.1560 C   0  0  0  0  0  0  0  0  0  0  0  0
   35.1950   21.8680   32.0610 C   0  0  0  0  0  0  0  0  0  0  0  0
   34.7740   20.5500   32.2950 C   0  0  0  0  0  0  0  0  0  0  0  0
   35.4100   19.5130   31.6220 N   0  0  0  0  0  0  0  0  0  0  0  0
   36.4160   19.7480   30.7580 C   0  0  0  0  0  0  0  0  0  0  0  0
   36.7990   21.0110   30.5510 N   0  0  0  0  0  0  0  0  0  0  0  0
   34.5470   22.4360   32.7020 H   0  0  0  0  0  0  0  0  0  0  0  0
   34.0210   20.1310   32.9160 H   0  0  0  0  0  0  0  0  0  0  0  0
   36.9130   18.9460   30.2330 H   0  0  0  0  0  0  0  0  0  0  0  0
  1  7  1  6  0  0  0
  1  6  1  0  0  0  0
  1 34  1  0  0  0  0
  1  2  1  0  0  0  0
  2  9  1  0  0  0  0
  2  3  1  0  0  0  0
  3 19  1  0  0  0  0
  3 10  1  1  0  0  0
  4  3  1  0  0  0  0
  4 11  1  0  0  0  0
  5 13  1  0  0  0  0
  5  4  1  0  0  0  0
  6  5  1  0  0  0  0
  6 16  1  0  0  0  0
  8  2  1  0  0  0  0
 12  4  1  0  0  0  0
 14  5  1  0  0  0  0
 15  6  1  0  0  0  0
 18 17  1  0  0  0  0
 18 23  1  0  0  0  0
 19 18  2  0  0  0  0
 20 19  1  0  0  0  0
 20 21  2  0  0  0  0
 21 22  1  0  0  0  0
 22 23  2  0  0  0  0
 22 26  1  0  0  0  0
 23 27  1  0  0  0  0
 24 20  1  0  0  0  0
 25 21  1  0  0  0  0
 27 33  1  0  0  0  0
 28 27  2  0  0  0  0
 28 30  1  0  0  0  0
 29 28  1  0  0  0  0
 30 31  1  0  0  0  0
 31 32  1  0  0  0  0
 33 31  2  0  0  0  0
 34 35  1  0  0  0  0
 35 36  2  0  0  0  0
 35 40  1  0  0  0  0
 36 41  1  0  0  0  0
 37 36  1  0  0  0  0
 38 37  2  0  0  0  0
 39 38  1  0  0  0  0
 39 34  2  0  0  0  0
 42 38  1  0  0  0  0
M  END
>  <minimizedAffinity>
-5.61227036

$$$$

 OpenBabel03272506003D

 42 45  0  0  1  0  0  0  0  0999 V2000
   35.1100   31.7490   36.2250 C   0  0  2  0  0  0  0  0  0  0  0  0
   35.8900   30.6950   35.5320 C   0  0  0  0  0  0  0  0  0  0  0  0
   35.1560   30.1180   34.3150 C   0  0  2  0  0  0  0  0  0  0  0  0
   33.8250   29.5850   34.6190 C   0  0  0  0  0  0  0  0  0  0  0  0
   33.0490   30.4240   35.6280 C   0  0  0  0  0  0  0  0  0  0  0  0
   33.6580   31.7850   35.8050 C   0  0  0  0  0  0  0  0  0  0  0  0
   35.0630   31.6070   37.3470 H   0  0  0  0  0  0  0  0  0  0  0  0
   35.8940   29.8060   36.2500 H   0  0  0  0  0  0  0  0  0  0  0  0
   36.8760   30.8580   35.1750 H   0  0  0  0  0  0  0  0  0  0  0  0
   35.1640   30.9100   33.5590 H   0  0  0  0  0  0  0  0  0  0  0  0
   33.2560   29.4480   33.6790 H   0  0  0  0  0  0  0  0  0  0  0  0
   33.8960   28.5790   35.0710 H   0  0  0  0  0  0  0  0  0  0  0  0
   32.0420   30.5850   35.1900 H   0  0  0  0  0  0  0  0  0  0  0  0
   32.8770   29.9060   36.5830 H   0  0  0  0  0  0  0  0  0  0  0  0
   33.0910   32.3340   36.5560 H   0  0  0  0  0  0  0  0  0  0  0  0
   33.6100   32.3400   34.8530 H   0  0  0  0  0  0  0  0  0  0  0  0
   36.2960   30.5250   31.6290 Cl  0  0  0  0  0  0  0  0  0  0  0  0
   36.6200   29.0800   32.5880 C   0  0  0  0  0  0  0  0  0  0  0  0
   36.0500   29.0200   33.8450 C   0  0  0  0  0  0  0  0  0  0  0  0
   36.3750   27.8670   34.5160 C   0  0  0  0  0  0  0  0  0  0  0  0
   37.1800   26.8780   33.9890 C   0  0  0  0  0  0  0  0  0  0  0  0
   37.7110   27.0240   32.7120 C   0  0  0  0  0  0  0  0  0  0  0  0
   37.4170   28.1730   31.9870 C   0  0  0  0  0  0  0  0  0  0  0  0
   35.9770   27.7330   35.5140 H   0  0  0  0  0  0  0  0  0  0  0  0
   37.3900   25.9920   34.5860 H   0  0  0  0  0  0  0  0  0  0  0  0
   38.3330   26.2380   32.3310 H   0  0  0  0  0  0  0  0  0  0  0  0
   37.9590   28.3590   30.6400 C   0  0  0  0  0  0  0  0  0  0  0  0
   39.3420   28.1040   30.3480 C   0  0  0  0  0  0  0  0  0  0  0  0
   40.1630   27.7450   31.0720 H   0  0  0  0  0  0  0  0  0  0  0  0
   39.4970   28.4790   28.5760 S   0  0  0  0  0  0  0  0  0  0  0  0
   37.6520   28.9290   28.4970 C   0  0  0  0  0  0  0  0  0  0  0  0
   36.9220   29.2940   27.6500 H   0  0  0  0  0  0  0  0  0  0  0  0
   37.3290   28.7570   29.5570 N   0  0  0  0  0  0  0  0  0  0  0  0
   35.6600   33.0990   36.0340 C   0  0  0  0  0  0  0  0  0  0  0  0
   36.8510   33.1570   35.3100 C   0  0  0  0  0  0  0  0  0  0  0  0
   37.4120   34.4230   35.0850 C   0  0  0  0  0  0  0  0  0  0  0  0
   36.7620   35.5440   35.5880 N   0  0  0  0  0  0  0  0  0  0  0  0
   35.6130   35.4370   36.2830 C   0  0  0  0  0  0  0  0  0  0  0  0
   35.0980   34.2200   36.4840 N   0  0  0  0  0  0  0  0  0  0  0  0
   37.5520   32.5030   34.8250 H   0  0  0  0  0  0  0  0  0  0  0  0
   38.2870   34.7460   34.5780 H   0  0  0  0  0  0  0  0  0  0  0  0
   35.1040   36.3050   36.6770 H   0  0  0  0  0  0  0  0  0  0  0  0
  1  7  1  1  0  0  0
  2  1  1  0  0  0  0
  2  8  1  0  0  0  0
  3 10  1  6  0  0  0
  3  4  1  0  0  0  0
  3  2  1  0  0  0  0
  4 12  1  0  0  0  0
  4  5  1  0  0  0  0
  5  6  1  0  0  0  0
  5 14  1  0  0  0  0
  6  1  1  0  0  0  0
  6 15  1  0  0  0  0
  9  2  1  0  0  0  0
 11  4  1  0  0  0  0
 13  5  1  0  0  0  0
 16  6  1  0  0  0  0
 17 18  1  0  0  0  0
 18 19  1  0  0  0  0
 19  3  1  0  0  0  0
 19 20  2  0  0  0  0
 20 24  1  0  0  0  0
 21 20  1  0  0  0  0
 21 25  1  0  0  0  0
 22 21  2  0  0  0  0
 23 18  2  0  0  0  0
 23 22  1  0  0  0  0
 26 22  1  0  0  0  0
 27 23  1  0  0  0  0
 28 27  2  0  0  0  0
 28 29  1  0  0  0  0
 30 28  1  0  0  0  0
 31 30  1  0  0  0  0
 31 33  2  0  0  0  0
 32 31  1  0  0  0  0
 33 27  1  0  0  0  0
 34  1  1  0  0  0  0
 34 39  1  0  0  0  0
 35 34  2  0  0  0  0
 36 35  1  0  0  0  0
 36 37  2  0  0  0  0
 37 38  1  0  0  0  0
 38 39  2  0  0  0  0
 38 42  1  0  0  0  0
 40 35  1  0  0  0  0
 41 36  1  0  0  0  0
M  END
>  <minimizedAffinity>
-5.61128044

$$$$

 OpenBabel03272506003D

 42 45  0  0  1  0  0  0  0  0999 V2000
   32.7030   30.3100   35.0750 C   0  0  2  0  0  0  0  0  0  0  0  0
   33.5930   29.8130   33.9990 C   0  0  0  0  0  0  0  0  0  0  0  0
   35.0750   29.8450   34.3930 C   0  0  2  0  0  0  0  0  0  0  0  0
   35.5510   31.1650   34.8170 C   0  0  0  0  0  0  0  0  0  0  0  0
   34.5400   31.9350   35.6570 C   0  0  0  0  0  0  0  0  0  0  0  0
   33.4450   31.0430   36.1690 C   0  0  0  0  0  0  0  0  0  0  0  0
   31.9390   31.0640   34.7140 H   0  0  0  0  0  0  0  0  0  0  0  0
   33.5480   30.6130   33.1830 H   0  0  0  0  0  0  0  0  0  0  0  0
   33.4720   28.8570   33.5560 H   0  0  0  0  0  0  0  0  0  0  0  0
   35.2000   29.0570   35.1420 H   0  0  0  0  0  0  0  0  0  0  0  0
   36.5210   31.0590   35.3410 H   0  0  0  0  0  0  0  0  0  0  0  0
   35.7550   31.8100   33.9440 H   0  0  0  0  0  0  0  0  0  0  0  0
   35.0890   32.3000   36.5500 H   0  0  0  0  0  0  0  0  0  0  0  0
   34.1570   32.8370   35.1570 H   0  0  0  0  0  0  0  0  0  0  0  0
   32.7320   31.6420   36.7340 H   0  0  0  0  0  0  0  0  0  0  0  0
   33.8720   30.2790   36.8390 H   0  0  0  0  0  0  0  0  0  0  0  0
   36.8280   27.5000   34.7200 Cl  0  0  0  0  0  0  0  0  0  0  0  0
   36.6610   28.3530   33.1840 C   0  0  0  0  0  0  0  0  0  0  0  0
   35.7850   29.4210   33.1510 C   0  0  0  0  0  0  0  0  0  0  0  0
   35.7140   30.0050   31.9120 C   0  0  0  0  0  0  0  0  0  0  0  0
   36.4400   29.5730   30.8210 C   0  0  0  0  0  0  0  0  0  0  0  0
   37.3000   28.4880   30.9470 C   0  0  0  0  0  0  0  0  0  0  0  0
   37.4110   27.8550   32.1800 C   0  0  0  0  0  0  0  0  0  0  0  0
   35.0470   30.8500   31.7880 H   0  0  0  0  0  0  0  0  0  0  0  0
   36.3280   30.0920   29.8700 H   0  0  0  0  0  0  0  0  0  0  0  0
   37.8500   28.1760   30.0810 H   0  0  0  0  0  0  0  0  0  0  0  0
   38.3060   26.7100   32.3480 C   0  0  0  0  0  0  0  0  0  0  0  0
   39.6910   26.8850   32.6890 C   0  0  0  0  0  0  0  0  0  0  0  0
   40.2550   27.8730   32.8670 H   0  0  0  0  0  0  0  0  0  0  0  0
   40.3430   25.1900   32.7750 S   0  0  0  0  0  0  0  0  0  0  0  0
   38.6310   24.4940   32.3320 C   0  0  0  0  0  0  0  0  0  0  0  0
   38.1870   23.4160   32.1800 H   0  0  0  0  0  0  0  0  0  0  0  0
   38.0240   25.4310   32.2250 N   0  0  0  0  0  0  0  0  0  0  0  0
   31.9140   29.2450   35.7130 C   0  0  0  0  0  0  0  0  0  0  0  0
   31.8680   29.2960   37.1070 C   0  0  0  0  0  0  0  0  0  0  0  0
   31.1160   28.3130   37.7670 C   0  0  0  0  0  0  0  0  0  0  0  0
   30.4610   27.3480   37.0100 N   0  0  0  0  0  0  0  0  0  0  0  0
   30.5370   27.3400   35.6650 C   0  0  0  0  0  0  0  0  0  0  0  0
   31.2580   28.2870   35.0590 N   0  0  0  0  0  0  0  0  0  0  0  0
   32.2510   29.8820   37.9220 H   0  0  0  0  0  0  0  0  0  0  0  0
   30.9160   28.1230   38.7930 H   0  0  0  0  0  0  0  0  0  0  0  0
   30.0300   26.5920   35.0720 H   0  0  0  0  0  0  0  0  0  0  0  0
  1  7  1  6  0  0  0
  1 34  1  0  0  0  0
  1  6  1  0  0  0  0
  2  3  1  0  0  0  0
  2  1  1  0  0  0  0
  3  4  1  0  0  0  0
  3 10  1  1  0  0  0
  4 11  1  0  0  0  0
  4  5  1  0  0  0  0
  5  6  1  0  0  0  0
  5 13  1  0  0  0  0
  6 15  1  0  0  0  0
  6 16  1  0  0  0  0
  8  2  1  0  0  0  0
  9  2  1  0  0  0  0
 12  4  1  0  0  0  0
 14  5  1  0  0  0  0
 18 17  1  0  0  0  0
 19 18  1  0  0  0  0
 19  3  1  0  0  0  0
 20 19  2  0  0  0  0
 21 22  2  0  0  0  0
 21 20  1  0  0  0  0
 22 23  1  0  0  0  0
 23 27  1  0  0  0  0
 23 18  2  0  0  0  0
 24 20  1  0  0  0  0
 25 21  1  0  0  0  0
 26 22  1  0  0  0  0
 27 28  2  0  0  0  0
 28 30  1  0  0  0  0
 28 29  1  0  0  0  0
 31 30  1  0  0  0  0
 32 31  1  0  0  0  0
 33 31  2  0  0  0  0
 33 27  1  0  0  0  0
 34 35  1  0  0  0  0
 35 36  2  0  0  0  0
 35 40  1  0  0  0  0
 36 41  1  0  0  0  0
 37 36  1  0  0  0  0
 38 37  2  0  0  0  0
 39 38  1  0  0  0  0
 39 34  2  0  0  0  0
 42 38  1  0  0  0  0
M  END
>  <minimizedAffinity>
-5.59574032

$$$$

 OpenBabel03272506003D

 42 45  0  0  1  0  0  0  0  0999 V2000
   35.5680   30.6360   32.0850 C   0  0  2  0  0  0  0  0  0  0  0  0
   35.5770   29.1570   32.1920 C   0  0  0  0  0  0  0  0  0  0  0  0
   36.8400   28.5280   31.5890 C   0  0  2  0  0  0  0  0  0  0  0  0
   37.0800   28.8930   30.1910 C   0  0  0  0  0  0  0  0  0  0  0  0
   36.7510   30.3480   29.8770 C   0  0  0  0  0  0  0  0  0  0  0  0
   36.6090   31.1690   31.1270 C   0  0  0  0  0  0  0  0  0  0  0  0
   34.5940   31.0510   31.6840 H   0  0  0  0  0  0  0  0  0  0  0  0
   34.7670   28.8010   31.4680 H   0  0  0  0  0  0  0  0  0  0  0  0
   35.4630   28.6520   33.1180 H   0  0  0  0  0  0  0  0  0  0  0  0
   37.6560   28.7870   32.2720 H   0  0  0  0  0  0  0  0  0  0  0  0
   38.1220   28.6420   29.9150 H   0  0  0  0  0  0  0  0  0  0  0  0
   36.4430   28.2980   29.5120 H   0  0  0  0  0  0  0  0  0  0  0  0
   37.6280   30.7560   29.3330 H   0  0  0  0  0  0  0  0  0  0  0  0
   35.8980   30.4620   29.1920 H   0  0  0  0  0  0  0  0  0  0  0  0
   36.3430   32.1890   30.8550 H   0  0  0  0  0  0  0  0  0  0  0  0
   37.5690   31.1880   31.6690 H   0  0  0  0  0  0  0  0  0  0  0  0
   38.6100   27.1230   33.4790 Cl  0  0  0  0  0  0  0  0  0  0  0  0
   37.3820   26.2850   32.5280 C   0  0  0  0  0  0  0  0  0  0  0  0
   36.5940   27.0600   31.6990 C   0  0  0  0  0  0  0  0  0  0  0  0
   35.6620   26.3200   31.0170 C   0  0  0  0  0  0  0  0  0  0  0  0
   35.5290   24.9520   31.1460 C   0  0  0  0  0  0  0  0  0  0  0  0
   36.3670   24.2530   32.0060 C   0  0  0  0  0  0  0  0  0  0  0  0
   37.3310   24.9520   32.7250 C   0  0  0  0  0  0  0  0  0  0  0  0
   34.9930   26.8430   30.3430 H   0  0  0  0  0  0  0  0  0  0  0  0
   34.7620   24.4370   30.5680 H   0  0  0  0  0  0  0  0  0  0  0  0
   36.2390   23.1910   32.0850 H   0  0  0  0  0  0  0  0  0  0  0  0
   38.2300   24.2470   33.6400 C   0  0  0  0  0  0  0  0  0  0  0  0
   39.4380   23.6260   33.1720 C   0  0  0  0  0  0  0  0  0  0  0  0
   39.8440   23.5930   32.0950 H   0  0  0  0  0  0  0  0  0  0  0  0
   40.1740   22.9060   34.6700 S   0  0  0  0  0  0  0  0  0  0  0  0
   38.7240   23.5580   35.7120 C   0  0  0  0  0  0  0  0  0  0  0  0
   38.4330   23.5120   36.8510 H   0  0  0  0  0  0  0  0  0  0  0  0
   38.1000   24.0740   34.9360 N   0  0  0  0  0  0  0  0  0  0  0  0
   35.7670   31.3130   33.3760 C   0  0  0  0  0  0  0  0  0  0  0  0
   35.5990   30.5040   34.5000 C   0  0  0  0  0  0  0  0  0  0  0  0
   35.7930   31.0950   35.7580 C   0  0  0  0  0  0  0  0  0  0  0  0
   36.1380   32.4410   35.8210 N   0  0  0  0  0  0  0  0  0  0  0  0
   36.2870   33.1810   34.7050 C   0  0  0  0  0  0  0  0  0  0  0  0
   36.0980   32.5960   33.5190 N   0  0  0  0  0  0  0  0  0  0  0  0
   35.3440   29.4930   34.7560 H   0  0  0  0  0  0  0  0  0  0  0  0
   35.7320   30.7210   36.7500 H   0  0  0  0  0  0  0  0  0  0  0  0
   36.5540   34.2270   34.7490 H   0  0  0  0  0  0  0  0  0  0  0  0
  1  7  1  6  0  0  0
  1  2  1  0  0  0  0
  1 34  1  0  0  0  0
  2  9  1  0  0  0  0
  3 19  1  0  0  0  0
  3  2  1  0  0  0  0
  3 10  1  1  0  0  0
  4  3  1  0  0  0  0
  5  4  1  0  0  0  0
  5  6  1  0  0  0  0
  6 16  1  0  0  0  0
  6  1  1  0  0  0  0
  8  2  1  0  0  0  0
 11  4  1  0  0  0  0
 12  4  1  0  0  0  0
 13  5  1  0  0  0  0
 14  5  1  0  0  0  0
 15  6  1  0  0  0  0
 18 23  1  0  0  0  0
 18 17  1  0  0  0  0
 19 18  2  0  0  0  0
 20 21  2  0  0  0  0
 20 19  1  0  0  0  0
 21 22  1  0  0  0  0
 22 26  1  0  0  0  0
 22 23  2  0  0  0  0
 23 27  1  0  0  0  0
 24 20  1  0  0  0  0
 25 21  1  0  0  0  0
 27 33  1  0  0  0  0
 28 27  2  0  0  0  0
 28 30  1  0  0  0  0
 29 28  1  0  0  0  0
 30 31  1  0  0  0  0
 31 32  1  0  0  0  0
 33 31  2  0  0  0  0
 34 39  2  0  0  0  0
 34 35  1  0  0  0  0
 35 40  1  0  0  0  0
 35 36  2  0  0  0  0
 36 37  1  0  0  0  0
 36 41  1  0  0  0  0
 38 42  1  0  0  0  0
 38 37  2  0  0  0  0
 39 38  1  0  0  0  0
M  END
>  <minimizedAffinity>
-5.55026245

$$$$

 OpenBabel03272506003D

 42 45  0  0  1  0  0  0  0  0999 V2000
   37.7040   26.7350   33.0980 C   0  0  2  0  0  0  0  0  0  0  0  0
   39.0680   26.2070   33.3390 C   0  0  0  0  0  0  0  0  0  0  0  0
   39.3100   25.8370   34.8080 C   0  0  2  0  0  0  0  0  0  0  0  0
   39.0660   26.9350   35.7470 C   0  0  0  0  0  0  0  0  0  0  0  0
   37.8580   27.7900   35.3830 C   0  0  0  0  0  0  0  0  0  0  0  0
   36.9800   27.1110   34.3710 C   0  0  0  0  0  0  0  0  0  0  0  0
   37.6940   27.6900   32.4890 H   0  0  0  0  0  0  0  0  0  0  0  0
   39.7640   27.1040   33.2030 H   0  0  0  0  0  0  0  0  0  0  0  0
   39.4610   25.3780   32.8050 H   0  0  0  0  0  0  0  0  0  0  0  0
   38.7080   24.9420   34.9920 H   0  0  0  0  0  0  0  0  0  0  0  0
   38.9860   26.5330   36.7760 H   0  0  0  0  0  0  0  0  0  0  0  0
   39.9210   27.6350   35.7680 H   0  0  0  0  0  0  0  0  0  0  0  0
   37.2520   27.8840   36.3090 H   0  0  0  0  0  0  0  0  0  0  0  0
   38.1230   28.8180   35.0970 H   0  0  0  0  0  0  0  0  0  0  0  0
   36.1510   27.7710   34.1190 H   0  0  0  0  0  0  0  0  0  0  0  0
   36.5720   26.1800   34.7980 H   0  0  0  0  0  0  0  0  0  0  0  0
   39.7950   23.0180   35.5160 Cl  0  0  0  0  0  0  0  0  0  0  0  0
   41.1060   24.1560   35.1970 C   0  0  0  0  0  0  0  0  0  0  0  0
   40.7490   25.4430   34.8450 C   0  0  0  0  0  0  0  0  0  0  0  0
   41.8370   26.2440   34.6030 C   0  0  0  0  0  0  0  0  0  0  0  0
   43.1420   25.8080   34.7010 C   0  0  0  0  0  0  0  0  0  0  0  0
   43.4080   24.4920   35.0620 C   0  0  0  0  0  0  0  0  0  0  0  0
   42.3440   23.6350   35.3190 C   0  0  0  0  0  0  0  0  0  0  0  0
   41.6550   27.2720   34.3150 H   0  0  0  0  0  0  0  0  0  0  0  0
   43.9510   26.5070   34.4920 H   0  0  0  0  0  0  0  0  0  0  0  0
   44.4330   24.1840   35.1300 H   0  0  0  0  0  0  0  0  0  0  0  0
   42.5880   22.2440   35.7010 C   0  0  0  0  0  0  0  0  0  0  0  0
   43.0430   21.2730   34.7440 C   0  0  0  0  0  0  0  0  0  0  0  0
   43.2640   21.4330   33.6250 H   0  0  0  0  0  0  0  0  0  0  0  0
   43.1860   19.7370   35.7060 S   0  0  0  0  0  0  0  0  0  0  0  0
   42.6040   20.6470   37.2700 C   0  0  0  0  0  0  0  0  0  0  0  0
   42.4180   20.3380   38.3900 H   0  0  0  0  0  0  0  0  0  0  0  0
   42.4460   21.6870   36.8840 N   0  0  0  0  0  0  0  0  0  0  0  0
   36.8420   25.8020   32.3570 C   0  0  0  0  0  0  0  0  0  0  0  0
   35.8560   26.4030   31.5730 C   0  0  0  0  0  0  0  0  0  0  0  0
   35.0140   25.5590   30.8330 C   0  0  0  0  0  0  0  0  0  0  0  0
   35.2010   24.1840   30.9160 N   0  0  0  0  0  0  0  0  0  0  0  0
   36.1680   23.6510   31.6890 C   0  0  0  0  0  0  0  0  0  0  0  0
   36.9570   24.4750   32.3840 N   0  0  0  0  0  0  0  0  0  0  0  0
   35.4840   27.3790   31.3240 H   0  0  0  0  0  0  0  0  0  0  0  0
   34.2050   25.7450   30.1710 H   0  0  0  0  0  0  0  0  0  0  0  0
   36.3160   22.5840   31.7580 H   0  0  0  0  0  0  0  0  0  0  0  0
  1  7  1  6  0  0  0
  1  2  1  0  0  0  0
  1  6  1  0  0  0  0
  2  3  1  0  0  0  0
  3 19  1  0  0  0  0
  3 10  1  1  0  0  0
  3  4  1  0  0  0  0
  4 12  1  0  0  0  0
  4 11  1  0  0  0  0
  5  4  1  0  0  0  0
  5 13  1  0  0  0  0
  6 16  1  0  0  0  0
  6  5  1  0  0  0  0
  8  2  1  0  0  0  0
  9  2  1  0  0  0  0
 14  5  1  0  0  0  0
 15  6  1  0  0  0  0
 18 23  1  0  0  0  0
 18 17  1  0  0  0  0
 19 18  2  0  0  0  0
 20 21  2  0  0  0  0
 20 19  1  0  0  0  0
 21 22  1  0  0  0  0
 22 26  1  0  0  0  0
 22 23  2  0  0  0  0
 23 27  1  0  0  0  0
 24 20  1  0  0  0  0
 25 21  1  0  0  0  0
 27 33  1  0  0  0  0
 28 27  2  0  0  0  0
 28 30  1  0  0  0  0
 29 28  1  0  0  0  0
 30 31  1  0  0  0  0
 31 32  1  0  0  0  0
 33 31  2  0  0  0  0
 34 39  1  0  0  0  0
 34  1  1  0  0  0  0
 35 34  2  0  0  0  0
 36 37  2  0  0  0  0
 36 35  1  0  0  0  0
 37 38  1  0  0  0  0
 38 42  1  0  0  0  0
 38 39  2  0  0  0  0
 40 35  1  0  0  0  0
 41 36  1  0  0  0  0
M  END
>  <minimizedAffinity>
-5.54681587

$$$$

 OpenBabel03272506003D

 42 45  0  0  1  0  0  0  0  0999 V2000
   35.1460   31.5750   35.9310 C   0  0  2  0  0  0  0  0  0  0  0  0
   35.7680   30.9620   34.7330 C   0  0  0  0  0  0  0  0  0  0  0  0
   34.7440   30.6230   33.6410 C   0  0  2  0  0  0  0  0  0  0  0  0
   33.6550   29.7540   34.0940 C   0  0  0  0  0  0  0  0  0  0  0  0
   33.1650   30.0760   35.5010 C   0  0  0  0  0  0  0  0  0  0  0  0
   33.6420   31.4230   35.9630 C   0  0  0  0  0  0  0  0  0  0  0  0
   35.4860   31.1040   36.9030 H   0  0  0  0  0  0  0  0  0  0  0  0
   36.1060   29.9230   35.0700 H   0  0  0  0  0  0  0  0  0  0  0  0
   36.5570   31.4280   34.1990 H   0  0  0  0  0  0  0  0  0  0  0  0
   34.4160   31.5850   33.2330 H   0  0  0  0  0  0  0  0  0  0  0  0
   32.8280   29.7810   33.3580 H   0  0  0  0  0  0  0  0  0  0  0  0
   33.9810   28.7000   34.1340 H   0  0  0  0  0  0  0  0  0  0  0  0
   32.0580   30.1400   35.4390 H   0  0  0  0  0  0  0  0  0  0  0  0
   33.3740   29.2760   36.2270 H   0  0  0  0  0  0  0  0  0  0  0  0
   33.2960   31.5940   36.9810 H   0  0  0  0  0  0  0  0  0  0  0  0
   33.2230   32.2080   35.3120 H   0  0  0  0  0  0  0  0  0  0  0  0
   36.1730   28.2250   34.5840 Cl  0  0  0  0  0  0  0  0  0  0  0  0
   36.2940   28.8090   32.9240 C   0  0  0  0  0  0  0  0  0  0  0  0
   35.5520   29.9280   32.5970 C   0  0  0  0  0  0  0  0  0  0  0  0
   35.7010   30.2930   31.2820 C   0  0  0  0  0  0  0  0  0  0  0  0
   36.5050   29.6150   30.3890 C   0  0  0  0  0  0  0  0  0  0  0  0
   37.2170   28.4970   30.8070 C   0  0  0  0  0  0  0  0  0  0  0  0
   37.1030   28.0810   32.1280 C   0  0  0  0  0  0  0  0  0  0  0  0
   35.1530   31.1590   30.9310 H   0  0  0  0  0  0  0  0  0  0  0  0
   36.5700   29.9700   29.3600 H   0  0  0  0  0  0  0  0  0  0  0  0
   37.8330   27.9930   30.0890 H   0  0  0  0  0  0  0  0  0  0  0  0
   37.8380   26.9070   32.6020 C   0  0  0  0  0  0  0  0  0  0  0  0
   39.2080   27.0020   33.0240 C   0  0  0  0  0  0  0  0  0  0  0  0
   39.8770   27.9400   33.0490 H   0  0  0  0  0  0  0  0  0  0  0  0
   39.6410   25.3040   33.5070 S   0  0  0  0  0  0  0  0  0  0  0  0
   37.8890   24.7160   33.0600 C   0  0  0  0  0  0  0  0  0  0  0  0
   37.3270   23.6830   33.0890 H   0  0  0  0  0  0  0  0  0  0  0  0
   37.4100   25.6690   32.7140 N   0  0  0  0  0  0  0  0  0  0  0  0
   35.4490   33.0070   36.0750 C   0  0  0  0  0  0  0  0  0  0  0  0
   36.6120   33.4330   35.4330 C   0  0  0  0  0  0  0  0  0  0  0  0
   36.9410   34.7940   35.5250 C   0  0  0  0  0  0  0  0  0  0  0  0
   36.1020   35.6400   36.2420 N   0  0  0  0  0  0  0  0  0  0  0  0
   34.9900   35.1790   36.8460 C   0  0  0  0  0  0  0  0  0  0  0  0
   34.6970   33.8800   36.7440 N   0  0  0  0  0  0  0  0  0  0  0  0
   37.4180   33.0390   34.8420 H   0  0  0  0  0  0  0  0  0  0  0  0
   37.7460   35.3710   35.1410 H   0  0  0  0  0  0  0  0  0  0  0  0
   34.3350   35.8330   37.4050 H   0  0  0  0  0  0  0  0  0  0  0  0
  1  6  1  0  0  0  0
  1 34  1  0  0  0  0
  1  7  1  1  0  0  0
  2  8  1  0  0  0  0
  2  1  1  0  0  0  0
  3 10  1  6  0  0  0
  3  4  1  0  0  0  0
  3  2  1  0  0  0  0
  4 12  1  0  0  0  0
  4  5  1  0  0  0  0
  5  6  1  0  0  0  0
  5 14  1  0  0  0  0
  6 15  1  0  0  0  0
  9  2  1  0  0  0  0
 11  4  1  0  0  0  0
 13  5  1  0  0  0  0
 16  6  1  0  0  0  0
 18 17  1  0  0  0  0
 19 18  1  0  0  0  0
 19  3  1  0  0  0  0
 20 19  2  0  0  0  0
 21 22  2  0  0  0  0
 21 20  1  0  0  0  0
 22 23  1  0  0  0  0
 23 27  1  0  0  0  0
 23 18  2  0  0  0  0
 24 20  1  0  0  0  0
 25 21  1  0  0  0  0
 26 22  1  0  0  0  0
 27 33  1  0  0  0  0
 27 28  2  0  0  0  0
 28 29  1  0  0  0  0
 28 30  1  0  0  0  0
 31 32  1  0  0  0  0
 31 30  1  0  0  0  0
 33 31  2  0  0  0  0
 34 39  1  0  0  0  0
 35 36  1  0  0  0  0
 35 34  2  0  0  0  0
 36 37  2  0  0  0  0
 37 38  1  0  0  0  0
 38 42  1  0  0  0  0
 39 38  2  0  0  0  0
 40 35  1  0  0  0  0
 41 36  1  0  0  0  0
M  END
>  <minimizedAffinity>
-5.54106808

$$$$

 OpenBabel03272506003D

 42 45  0  0  1  0  0  0  0  0999 V2000
   38.2710   26.9120   33.9740 C   0  0  2  0  0  0  0  0  0  0  0  0
   37.4340   27.9790   34.5740 C   0  0  0  0  0  0  0  0  0  0  0  0
   36.2340   28.3540   33.6960 C   0  0  2  0  0  0  0  0  0  0  0  0
   36.5930   28.7590   32.3350 C   0  0  0  0  0  0  0  0  0  0  0  0
   37.7260   27.9340   31.7340 C   0  0  0  0  0  0  0  0  0  0  0  0
   37.9690   26.6730   32.5120 C   0  0  0  0  0  0  0  0  0  0  0  0
   39.3780   27.1510   33.9850 H   0  0  0  0  0  0  0  0  0  0  0  0
   38.0730   28.9250   34.5190 H   0  0  0  0  0  0  0  0  0  0  0  0
   37.0180   27.8960   35.5460 H   0  0  0  0  0  0  0  0  0  0  0  0
   35.5480   27.5020   33.7490 H   0  0  0  0  0  0  0  0  0  0  0  0
   35.6920   28.7430   31.6920 H   0  0  0  0  0  0  0  0  0  0  0  0
   36.9520   29.8030   32.3150 H   0  0  0  0  0  0  0  0  0  0  0  0
   37.3820   27.6190   30.7270 H   0  0  0  0  0  0  0  0  0  0  0  0
   38.6440   28.5150   31.5650 H   0  0  0  0  0  0  0  0  0  0  0  0
   38.8050   26.1350   32.0670 H   0  0  0  0  0  0  0  0  0  0  0  0
   37.0740   26.0300   32.4680 H   0  0  0  0  0  0  0  0  0  0  0  0
   33.4350   28.8940   32.9500 Cl  0  0  0  0  0  0  0  0  0  0  0  0
   34.3060   29.8710   34.1340 C   0  0  0  0  0  0  0  0  0  0  0  0
   35.6060   29.4980   34.4200 C   0  0  0  0  0  0  0  0  0  0  0  0
   36.1900   30.3080   35.3620 C   0  0  0  0  0  0  0  0  0  0  0  0
   35.5480   31.3760   35.9540 C   0  0  0  0  0  0  0  0  0  0  0  0
   34.2370   31.6780   35.6040 C   0  0  0  0  0  0  0  0  0  0  0  0
   33.5940   30.8900   34.6560 C   0  0  0  0  0  0  0  0  0  0  0  0
   37.2100   30.0900   35.6550 H   0  0  0  0  0  0  0  0  0  0  0  0
   36.0830   31.9710   36.6940 H   0  0  0  0  0  0  0  0  0  0  0  0
   33.7660   32.5140   36.0820 H   0  0  0  0  0  0  0  0  0  0  0  0
   32.2140   31.1800   34.2640 C   0  0  0  0  0  0  0  0  0  0  0  0
   31.9130   32.1400   33.2390 C   0  0  0  0  0  0  0  0  0  0  0  0
   32.6530   32.7740   32.6240 H   0  0  0  0  0  0  0  0  0  0  0  0
   30.0980   32.1240   33.1380 S   0  0  0  0  0  0  0  0  0  0  0  0
   30.0200   30.8110   34.5100 C   0  0  0  0  0  0  0  0  0  0  0  0
   29.1540   30.2330   35.0580 H   0  0  0  0  0  0  0  0  0  0  0  0
   31.1060   30.6570   34.7400 N   0  0  0  0  0  0  0  0  0  0  0  0
   38.1530   25.6210   34.6680 C   0  0  0  0  0  0  0  0  0  0  0  0
   37.9940   25.7040   36.0510 C   0  0  0  0  0  0  0  0  0  0  0  0
   37.8600   24.5020   36.7620 C   0  0  0  0  0  0  0  0  0  0  0  0
   37.8930   23.3010   36.0610 N   0  0  0  0  0  0  0  0  0  0  0  0
   38.0500   23.2730   34.7230 C   0  0  0  0  0  0  0  0  0  0  0  0
   38.1740   24.4310   34.0690 N   0  0  0  0  0  0  0  0  0  0  0  0
   37.9380   26.4420   36.8310 H   0  0  0  0  0  0  0  0  0  0  0  0
   37.7290   24.2820   37.7920 H   0  0  0  0  0  0  0  0  0  0  0  0
   38.0770   22.3420   34.1750 H   0  0  0  0  0  0  0  0  0  0  0  0
  1  7  1  1  0  0  0
  1  2  1  0  0  0  0
  1 34  1  0  0  0  0
  2  9  1  0  0  0  0
  3 10  1  6  0  0  0
  3 19  1  0  0  0  0
  3  2  1  0  0  0  0
  4  3  1  0  0  0  0
  5  4  1  0  0  0  0
  5  6  1  0  0  0  0
  6  1  1  0  0  0  0
  8  2  1  0  0  0  0
 11  4  1  0  0  0  0
 12  4  1  0  0  0  0
 13  5  1  0  0  0  0
 14  5  1  0  0  0  0
 15  6  1  0  0  0  0
 16  6  1  0  0  0  0
 17 18  1  0  0  0  0
 18 19  2  0  0  0  0
 18 23  1  0  0  0  0
 19 20  1  0  0  0  0
 20 24  1  0  0  0  0
 20 21  2  0  0  0  0
 21 25  1  0  0  0  0
 22 21  1  0  0  0  0
 22 26  1  0  0  0  0
 23 22  2  0  0  0  0
 27 23  1  0  0  0  0
 27 33  1  0  0  0  0
 28 27  2  0  0  0  0
 29 28  1  0  0  0  0
 30 28  1  0  0  0  0
 30 31  1  0  0  0  0
 31 33  2  0  0  0  0
 31 32  1  0  0  0  0
 34 35  1  0  0  0  0
 35 36  2  0  0  0  0
 35 40  1  0  0  0  0
 36 41  1  0  0  0  0
 37 36  1  0  0  0  0
 38 37  2  0  0  0  0
 39 34  2  0  0  0  0
 39 38  1  0  0  0  0
 42 38  1  0  0  0  0
M  END
>  <minimizedAffinity>
-5.42634201

$$$$

 OpenBabel03272506003D

 42 45  0  0  1  0  0  0  0  0999 V2000
   37.1220   27.7110   31.8420 C   0  0  2  0  0  0  0  0  0  0  0  0
   36.6430   28.4640   33.0260 C   0  0  0  0  0  0  0  0  0  0  0  0
   35.5110   29.4420   32.6880 C   0  0  2  0  0  0  0  0  0  0  0  0
   35.8470   30.4020   31.6330 C   0  0  0  0  0  0  0  0  0  0  0  0
   36.6730   29.8000   30.5020 C   0  0  0  0  0  0  0  0  0  0  0  0
   36.6470   28.2980   30.5330 C   0  0  0  0  0  0  0  0  0  0  0  0
   38.2510   27.7040   31.7410 H   0  0  0  0  0  0  0  0  0  0  0  0
   37.4980   29.1750   33.2930 H   0  0  0  0  0  0  0  0  0  0  0  0
   36.3030   27.9820   33.9080 H   0  0  0  0  0  0  0  0  0  0  0  0
   34.6360   28.8210   32.4720 H   0  0  0  0  0  0  0  0  0  0  0  0
   34.9210   30.8770   31.2530 H   0  0  0  0  0  0  0  0  0  0  0  0
   36.4610   31.2290   32.0320 H   0  0  0  0  0  0  0  0  0  0  0  0
   36.1770   30.1030   29.5570 H   0  0  0  0  0  0  0  0  0  0  0  0
   37.6930   30.2080   30.4450 H   0  0  0  0  0  0  0  0  0  0  0  0
   37.2750   27.9140   29.7290 H   0  0  0  0  0  0  0  0  0  0  0  0
   35.6160   27.9420   30.3740 H   0  0  0  0  0  0  0  0  0  0  0  0
   32.6810   30.0670   33.2220 Cl  0  0  0  0  0  0  0  0  0  0  0  0
   33.9800   30.5380   34.3200 C   0  0  0  0  0  0  0  0  0  0  0  0
   35.2630   30.1600   33.9720 C   0  0  0  0  0  0  0  0  0  0  0  0
   36.1970   30.5590   34.8950 C   0  0  0  0  0  0  0  0  0  0  0  0
   35.8860   31.2590   36.0430 C   0  0  0  0  0  0  0  0  0  0  0  0
   34.5650   31.5970   36.3110 C   0  0  0  0  0  0  0  0  0  0  0  0
   33.5750   31.2180   35.4110 C   0  0  0  0  0  0  0  0  0  0  0  0
   37.2340   30.3030   34.7100 H   0  0  0  0  0  0  0  0  0  0  0  0
   36.6870   31.5390   36.7260 H   0  0  0  0  0  0  0  0  0  0  0  0
   34.3550   32.1420   37.2110 H   0  0  0  0  0  0  0  0  0  0  0  0
   32.1740   31.5560   35.6630 C   0  0  0  0  0  0  0  0  0  0  0  0
   31.6460   32.8510   35.3340 C   0  0  0  0  0  0  0  0  0  0  0  0
   32.2020   33.7420   34.8620 H   0  0  0  0  0  0  0  0  0  0  0  0
   29.9010   32.7570   35.8350 S   0  0  0  0  0  0  0  0  0  0  0  0
   30.1510   30.9660   36.4200 C   0  0  0  0  0  0  0  0  0  0  0  0
   29.4600   30.1460   36.9030 H   0  0  0  0  0  0  0  0  0  0  0  0
   31.2360   30.8000   36.1890 N   0  0  0  0  0  0  0  0  0  0  0  0
   36.7330   26.2930   31.8580 C   0  0  0  0  0  0  0  0  0  0  0  0
   35.5570   25.9940   31.1700 C   0  0  0  0  0  0  0  0  0  0  0  0
   35.1460   24.6530   31.1410 C   0  0  0  0  0  0  0  0  0  0  0  0
   35.9220   23.6990   31.7910 N   0  0  0  0  0  0  0  0  0  0  0  0
   37.0510   24.0380   32.4440 C   0  0  0  0  0  0  0  0  0  0  0  0
   37.4210   25.3220   32.4570 N   0  0  0  0  0  0  0  0  0  0  0  0
   34.7840   26.4850   30.6080 H   0  0  0  0  0  0  0  0  0  0  0  0
   34.3140   24.1610   30.7010 H   0  0  0  0  0  0  0  0  0  0  0  0
   37.6570   23.3010   32.9510 H   0  0  0  0  0  0  0  0  0  0  0  0
  1  7  1  1  0  0  0
  1 34  1  0  0  0  0
  1  2  1  0  0  0  0
  2  8  1  0  0  0  0
  2  9  1  0  0  0  0
  3 10  1  6  0  0  0
  3  2  1  0  0  0  0
  3 19  1  0  0  0  0
  4 12  1  0  0  0  0
  4  3  1  0  0  0  0
  5  6  1  0  0  0  0
  5  4  1  0  0  0  0
  6  1  1  0  0  0  0
 11  4  1  0  0  0  0
 13  5  1  0  0  0  0
 14  5  1  0  0  0  0
 15  6  1  0  0  0  0
 16  6  1  0  0  0  0
 17 18  1  0  0  0  0
 18 23  1  0  0  0  0
 19 18  2  0  0  0  0
 19 20  1  0  0  0  0
 20 21  2  0  0  0  0
 21 22  1  0  0  0  0
 21 25  1  0  0  0  0
 22 26  1  0  0  0  0
 23 27  1  0  0  0  0
 23 22  2  0  0  0  0
 24 20  1  0  0  0  0
 27 33  1  0  0  0  0
 28 27  2  0  0  0  0
 28 30  1  0  0  0  0
 29 28  1  0  0  0  0
 30 31  1  0  0  0  0
 31 32  1  0  0  0  0
 33 31  2  0  0  0  0
 34 39  1  0  0  0  0
 35 34  2  0  0  0  0
 36 35  1  0  0  0  0
 36 37  2  0  0  0  0
 37 38  1  0  0  0  0
 38 39  2  0  0  0  0
 38 42  1  0  0  0  0
 40 35  1  0  0  0  0
 41 36  1  0  0  0  0
M  END
>  <minimizedAffinity>
-5.38508034

$$$$
