
 OpenBabel03272509333D

 39 43  0  0  1  0  0  0  0  0999 V2000
   35.3670   30.4110   48.5080 C   0  0  1  0  0  0  0  0  0  0  0  0
   36.1490   30.3020   49.7500 C   0  0  0  0  0  0  0  0  0  0  0  0
   36.9100   30.2320   48.4760 C   0  0  2  0  0  0  0  0  0  0  0  0
   35.0940   31.3750   48.1140 H   0  0  0  0  0  0  0  0  0  0  0  0
   36.0450   29.2980   50.2680 H   0  0  0  0  0  0  0  0  0  0  0  0
   35.9840   31.1270   50.4170 H   0  0  0  0  0  0  0  0  0  0  0  0
   37.1540   29.4470   47.7850 H   0  0  0  0  0  0  0  0  0  0  0  0
   37.7670   31.4360   48.3110 C   0  0  0  0  0  0  0  0  0  0  0  0
   37.6910   32.2500   49.4460 C   0  0  0  0  0  0  0  0  0  0  0  0
   38.4660   33.3840   49.5640 C   0  0  0  0  0  0  0  0  0  0  0  0
   39.3480   33.7450   48.5500 C   0  0  0  0  0  0  0  0  0  0  0  0
   39.4060   32.9280   47.4440 C   0  0  0  0  0  0  0  0  0  0  0  0
   40.2300   33.1760   46.3640 C   0  0  0  0  0  0  0  0  0  0  0  0
   40.2880   32.3670   45.2440 C   0  0  0  0  0  0  0  0  0  0  0  0
   39.4830   31.2410   45.1880 C   0  0  0  0  0  0  0  0  0  0  0  0
   38.6570   30.9830   46.2590 C   0  0  0  0  0  0  0  0  0  0  0  0
   38.6310   31.8120   47.3500 C   0  0  0  0  0  0  0  0  0  0  0  0
   37.1580   32.2540   50.3750 H   0  0  0  0  0  0  0  0  0  0  0  0
   38.5290   34.1110   50.3560 H   0  0  0  0  0  0  0  0  0  0  0  0
   40.0200   34.5910   48.4790 H   0  0  0  0  0  0  0  0  0  0  0  0
   40.8700   34.0570   46.3910 H   0  0  0  0  0  0  0  0  0  0  0  0
   40.9490   32.5930   44.4120 H   0  0  0  0  0  0  0  0  0  0  0  0
   39.4770   30.5650   44.3460 H   0  0  0  0  0  0  0  0  0  0  0  0
   38.0250   30.0800   46.1900 H   0  0  0  0  0  0  0  0  0  0  0  0
   33.7980   26.9870   48.3200 C   0  0  0  0  0  0  0  0  0  0  0  0
   34.5010   28.1180   48.8240 C   0  0  0  0  0  0  0  0  0  0  0  0
   34.6320   29.2250   48.0200 C   0  0  0  0  0  0  0  0  0  0  0  0
   34.0680   29.1480   46.7880 N   0  0  0  0  0  0  0  0  0  0  0  0
   33.4040   28.0810   46.3140 C   0  0  0  0  0  0  0  0  0  0  0  0
   33.2660   26.9800   47.0940 N   0  0  0  0  0  0  0  0  0  0  0  0
   33.7060   26.1280   48.9690 H   0  0  0  0  0  0  0  0  0  0  0  0
   34.9100   28.0590   49.8310 H   0  0  0  0  0  0  0  0  0  0  0  0
   32.8680   28.2120   44.9410 C   0  0  0  0  0  0  0  0  0  0  0  0
   32.2570   29.4240   44.7730 C   0  0  0  0  0  0  0  0  0  0  0  0
   32.0310   30.3480   45.3350 H   0  0  0  0  0  0  0  0  0  0  0  0
   31.6530   29.4260   43.0320 S   0  0  0  0  0  0  0  0  0  0  0  0
   32.3780   27.6760   42.8220 C   0  0  0  0  0  0  0  0  0  0  0  0
   32.6110   26.6350   42.1260 H   0  0  0  0  0  0  0  0  0  0  0  0
   32.8130   27.4980   43.8420 N   0  0  0  0  0  0  0  0  0  0  0  0
  1  4  1  6  0  0  0
  1  2  1  0  0  0  0
  2  5  1  0  0  0  0
  2  6  1  0  0  0  0
  3  7  1  6  0  0  0
  3  1  1  0  0  0  0
  3  2  1  0  0  0  0
  8  3  1  0  0  0  0
  8  9  1  0  0  0  0
  9 10  2  0  0  0  0
  9 18  1  0  0  0  0
 10 19  1  0  0  0  0
 11 10  1  0  0  0  0
 12 11  2  0  0  0  0
 13 21  1  0  0  0  0
 13 12  1  0  0  0  0
 14 13  2  0  0  0  0
 15 14  1  0  0  0  0
 15 16  2  0  0  0  0
 16 17  1  0  0  0  0
 17 12  1  0  0  0  0
 17  8  2  0  0  0  0
 20 11  1  0  0  0  0
 22 14  1  0  0  0  0
 23 15  1  0  0  0  0
 24 16  1  0  0  0  0
 25 26  1  0  0  0  0
 25 31  1  0  0  0  0
 26 32  1  0  0  0  0
 27  1  1  0  0  0  0
 27 26  2  0  0  0  0
 28 27  1  0  0  0  0
 29 28  2  0  0  0  0
 29 30  1  0  0  0  0
 30 25  2  0  0  0  0
 33 29  1  0  0  0  0
 34 33  2  0  0  0  0
 34 35  1  0  0  0  0
 36 34  1  0  0  0  0
 37 36  1  0  0  0  0
 37 39  2  0  0  0  0
 38 37  1  0  0  0  0
 39 33  1  0  0  0  0
M  END
>  <minimizedAffinity>
-6.54956579

>  <minimizedRMSD>
6.4032445

$$$$
