
 OpenBabel03272501083D

 38 41  0  0  1  0  0  0  0  0999 V2000
   38.9640   32.4930   47.6510 C   0  0  2  0  0  0  0  0  0  0  0  0
   38.0790   32.7920   48.9050 C   0  0  2  0  0  0  0  0  0  0  0  0
   39.0340   33.4940   49.7470 C   0  0  0  0  0  0  0  0  0  0  0  0
   39.8280   34.2780   48.9240 O   0  0  0  0  0  0  0  0  0  0  0  0
   39.6830   33.8640   47.6420 C   0  0  0  0  0  0  0  0  0  0  0  0
   39.7480   31.7780   47.8670 H   0  0  0  0  0  0  0  0  0  0  0  0
   37.2940   33.4940   48.5200 H   0  0  0  0  0  0  0  0  0  0  0  0
   38.5120   34.1060   50.5120 H   0  0  0  0  0  0  0  0  0  0  0  0
   39.7050   32.8040   50.2930 H   0  0  0  0  0  0  0  0  0  0  0  0
   38.9970   34.5410   47.0930 H   0  0  0  0  0  0  0  0  0  0  0  0
   40.6280   33.7890   47.0720 H   0  0  0  0  0  0  0  0  0  0  0  0
   37.3860   29.6700   50.8870 C   0  0  0  0  0  0  0  0  0  0  0  0
   38.0640   30.8320   50.4280 C   0  0  0  0  0  0  0  0  0  0  0  0
   37.4350   31.6040   49.4180 C   0  0  0  0  0  0  0  0  0  0  0  0
   36.2160   31.2020   48.9330 N   0  0  0  0  0  0  0  0  0  0  0  0
   35.6140   30.1010   49.3950 C   0  0  0  0  0  0  0  0  0  0  0  0
   36.1870   29.3300   50.3670 N   0  0  0  0  0  0  0  0  0  0  0  0
   37.7940   29.0260   51.6530 H   0  0  0  0  0  0  0  0  0  0  0  0
   39.0180   31.0640   50.8680 H   0  0  0  0  0  0  0  0  0  0  0  0
   34.6540   29.8900   48.9300 H   0  0  0  0  0  0  0  0  0  0  0  0
   38.2160   32.3710   46.5200 O   0  0  0  0  0  0  0  0  0  0  0  0
   40.5790   31.9590   44.5650 Cl  0  0  0  0  0  0  0  0  0  0  0  0
   39.0510   31.1390   44.4780 C   0  0  0  0  0  0  0  0  0  0  0  0
   38.1630   31.5100   45.4780 C   0  0  0  0  0  0  0  0  0  0  0  0
   36.9340   30.8700   45.4240 C   0  0  0  0  0  0  0  0  0  0  0  0
   36.6100   29.9310   44.4520 C   0  0  0  0  0  0  0  0  0  0  0  0
   37.5370   29.6170   43.5000 C   0  0  0  0  0  0  0  0  0  0  0  0
   38.7550   30.2230   43.5190 C   0  0  0  0  0  0  0  0  0  0  0  0
   36.1050   31.0210   46.1150 H   0  0  0  0  0  0  0  0  0  0  0  0
   35.6600   29.4180   44.3890 H   0  0  0  0  0  0  0  0  0  0  0  0
   37.3280   28.8960   42.7310 H   0  0  0  0  0  0  0  0  0  0  0  0
   39.8360   29.9830   42.5630 C   0  0  0  0  0  0  0  0  0  0  0  0
   39.7930   30.7810   41.3580 C   0  0  0  0  0  0  0  0  0  0  0  0
   39.1010   31.5990   40.9230 H   0  0  0  0  0  0  0  0  0  0  0  0
   41.2920   30.2480   40.3470 S   0  0  0  0  0  0  0  0  0  0  0  0
   41.7050   29.0370   41.7460 C   0  0  0  0  0  0  0  0  0  0  0  0
   42.4940   28.1430   42.1780 H   0  0  0  0  0  0  0  0  0  0  0  0
   40.8900   29.2030   42.4920 N   0  0  0  0  0  0  0  0  0  0  0  0
  1  6  1  1  0  0  0
  1  2  1  0  0  0  0
  2  7  1  6  0  0  0
  2 14  1  0  0  0  0
  2  3  1  0  0  0  0
  3  9  1  0  0  0  0
  3  8  1  0  0  0  0
  4  3  1  0  0  0  0
  5  1  1  0  0  0  0
  5  4  1  0  0  0  0
 10  5  1  0  0  0  0
 11  5  1  0  0  0  0
 12 18  1  0  0  0  0
 13 19  1  0  0  0  0
 13 12  1  0  0  0  0
 14 13  2  0  0  0  0
 15 16  2  0  0  0  0
 15 14  1  0  0  0  0
 16 17  1  0  0  0  0
 17 12  2  0  0  0  0
 20 16  1  0  0  0  0
 21  1  1  0  0  0  0
 23 22  1  0  0  0  0
 23 24  1  0  0  0  0
 24 21  1  0  0  0  0
 25 24  2  0  0  0  0
 25 29  1  0  0  0  0
 26 25  1  0  0  0  0
 27 28  1  0  0  0  0
 27 26  2  0  0  0  0
 28 23  2  0  0  0  0
 30 26  1  0  0  0  0
 31 27  1  0  0  0  0
 32 28  1  0  0  0  0
 33 32  2  0  0  0  0
 34 33  1  0  0  0  0
 35 33  1  0  0  0  0
 35 36  1  0  0  0  0
 36 37  1  0  0  0  0
 36 38  2  0  0  0  0
 38 32  1  0  0  0  0
M  END
>  <minimizedAffinity>
-6.09093809

>  <minimizedRMSD>
0.871154606

$$$$
