
 OpenBabel03272506473D

 40 43  0  0  1  0  0  0  0  0999 V2000
   32.1570   28.4310   47.4860 C   0  0  2  0  0  0  0  0  0  0  0  0
   33.4110   28.2980   48.2960 C   0  0  1  0  0  0  0  0  0  0  0  0
   33.8350   27.0080   48.2100 O   0  0  0  0  0  0  0  0  0  0  0  0
   33.1370   26.3630   47.1930 C   0  0  0  0  0  0  0  0  0  0  0  0
   32.5080   27.4360   46.3340 C   0  0  1  0  0  0  0  0  0  0  0  0
   31.2380   28.1270   47.9710 H   0  0  0  0  0  0  0  0  0  0  0  0
   33.2000   28.6470   49.3240 H   0  0  0  0  0  0  0  0  0  0  0  0
   32.4540   25.6780   47.6730 H   0  0  0  0  0  0  0  0  0  0  0  0
   33.8980   25.8240   46.5720 H   0  0  0  0  0  0  0  0  0  0  0  0
   33.2120   27.9650   45.7030 H   0  0  0  0  0  0  0  0  0  0  0  0
   32.0470   29.7320   46.9510 O   0  0  0  0  0  0  0  0  0  0  0  0
   32.4520   29.7960   46.0560 H   0  0  0  0  0  0  0  0  0  0  0  0
   34.6900   29.3710   47.5330 S   0  0  0  0  0  0  0  0  0  0  0  0
   37.1450   29.2880   50.6420 C   0  0  0  0  0  0  0  0  0  0  0  0
   37.6170   30.5990   50.7600 C   0  0  0  0  0  0  0  0  0  0  0  0
   37.1580   31.5490   49.8400 C   0  0  0  0  0  0  0  0  0  0  0  0
   36.2820   31.1470   48.8850 N   0  0  0  0  0  0  0  0  0  0  0  0
   35.8470   29.8720   48.8010 C   0  0  0  0  0  0  0  0  0  0  0  0
   36.2720   28.9260   49.6760 N   0  0  0  0  0  0  0  0  0  0  0  0
   37.5160   28.5750   51.3650 H   0  0  0  0  0  0  0  0  0  0  0  0
   38.3160   30.9120   51.5240 H   0  0  0  0  0  0  0  0  0  0  0  0
   37.4610   32.5860   49.8440 H   0  0  0  0  0  0  0  0  0  0  0  0
   31.3670   26.9320   45.7580 O   0  0  0  0  0  0  0  0  0  0  0  0
   30.0900   29.0330   44.1430 Cl  0  0  0  0  0  0  0  0  0  0  0  0
   29.4180   28.1280   45.4830 C   0  0  0  0  0  0  0  0  0  0  0  0
   30.1180   27.1540   46.1520 C   0  0  0  0  0  0  0  0  0  0  0  0
   29.4670   26.4740   47.1820 C   0  0  0  0  0  0  0  0  0  0  0  0
   28.1640   26.7780   47.5110 C   0  0  0  0  0  0  0  0  0  0  0  0
   27.4560   27.7560   46.8440 C   0  0  0  0  0  0  0  0  0  0  0  0
   28.1070   28.4430   45.8060 C   0  0  0  0  0  0  0  0  0  0  0  0
   29.9180   25.6910   47.7660 H   0  0  0  0  0  0  0  0  0  0  0  0
   27.6280   26.2760   48.3000 H   0  0  0  0  0  0  0  0  0  0  0  0
   26.4390   27.9860   47.1070 H   0  0  0  0  0  0  0  0  0  0  0  0
   27.3990   29.4910   45.0690 C   0  0  0  0  0  0  0  0  0  0  0  0
   26.6410   29.1870   43.9450 C   0  0  0  0  0  0  0  0  0  0  0  0
   26.4130   28.2000   43.3990 H   0  0  0  0  0  0  0  0  0  0  0  0
   25.9480   30.8450   43.3700 S   0  0  0  0  0  0  0  0  0  0  0  0
   26.8570   31.6530   44.8210 C   0  0  0  0  0  0  0  0  0  0  0  0
   27.0220   32.7710   45.3100 H   0  0  0  0  0  0  0  0  0  0  0  0
   27.3640   30.7820   45.3220 N   0  0  0  0  0  0  0  0  0  0  0  0
  1  6  1  1  0  0  0
  1  2  1  0  0  0  0
  2  7  1  1  0  0  0
  3  2  1  0  0  0  0
  4  8  1  0  0  0  0
  4  3  1  0  0  0  0
  5 10  1  6  0  0  0
  5  4  1  0  0  0  0
  5  1  1  0  0  0  0
  9  4  1  0  0  0  0
 11  1  1  0  0  0  0
 12 11  1  0  0  0  0
 13  2  1  0  0  0  0
 13 18  1  0  0  0  0
 14 15  1  0  0  0  0
 14 20  1  0  0  0  0
 15 21  1  0  0  0  0
 16 22  1  0  0  0  0
 16 15  2  0  0  0  0
 17 16  1  0  0  0  0
 18 17  2  0  0  0  0
 18 19  1  0  0  0  0
 19 14  2  0  0  0  0
 23 26  1  0  0  0  0
 23  5  1  0  0  0  0
 24 25  1  0  0  0  0
 25 30  2  0  0  0  0
 25 26  1  0  0  0  0
 26 27  2  0  0  0  0
 27 28  1  0  0  0  0
 27 31  1  0  0  0  0
 28 32  1  0  0  0  0
 29 33  1  0  0  0  0
 29 28  2  0  0  0  0
 30 29  1  0  0  0  0
 34 40  1  0  0  0  0
 34 30  1  0  0  0  0
 35 34  2  0  0  0  0
 36 35  1  0  0  0  0
 37 35  1  0  0  0  0
 37 38  1  0  0  0  0
 38 39  1  0  0  0  0
 38 40  2  0  0  0  0
M  END
>  <minimizedAffinity>
-5.07943249

>  <minimizedRMSD>
0.209299043

$$$$
