
 OpenBabel03272508123D

 32 34  0  0  0  0  0  0  0  0999 V2000
   36.6530   29.4550   44.0550 Cl  0  0  0  0  0  0  0  0  0  0  0  0
   38.3140   29.8230   43.5210 C   0  0  0  0  0  0  0  0  0  0  0  0
   39.2990   30.3030   44.3670 C   0  0  0  0  0  0  0  0  0  0  0  0
   40.5340   30.5400   43.8050 C   0  0  0  0  0  0  0  0  0  0  0  0
   40.7950   30.3210   42.4800 C   0  0  0  0  0  0  0  0  0  0  0  0
   39.8280   29.8520   41.6550 C   0  0  0  0  0  0  0  0  0  0  0  0
   38.5660   29.5940   42.1600 C   0  0  0  0  0  0  0  0  0  0  0  0
   41.2600   30.9120   44.5140 H   0  0  0  0  0  0  0  0  0  0  0  0
   41.8010   30.5440   42.1530 H   0  0  0  0  0  0  0  0  0  0  0  0
   40.0520   29.6850   40.6140 H   0  0  0  0  0  0  0  0  0  0  0  0
   37.4860   29.0790   41.2820 C   0  0  0  0  0  0  0  0  0  0  0  0
   37.3930   27.7160   41.0270 C   0  0  0  0  0  0  0  0  0  0  0  0
   37.9750   26.8360   41.3410 H   0  0  0  0  0  0  0  0  0  0  0  0
   35.8870   27.6140   39.8880 S   0  0  0  0  0  0  0  0  0  0  0  0
   35.7000   29.4970   40.0050 C   0  0  0  0  0  0  0  0  0  0  0  0
   34.9590   30.3260   39.5650 H   0  0  0  0  0  0  0  0  0  0  0  0
   36.5480   29.7950   40.6790 N   0  0  0  0  0  0  0  0  0  0  0  0
   38.8610   30.4610   45.6510 O   0  0  0  0  0  0  0  0  0  0  0  0
   39.4400   32.5040   47.1170 O   0  0  0  0  0  0  0  0  0  0  0  0
   38.3030   31.8390   46.4270 P   0  0  1  0  0  0  0  0  0  0  0  0
   37.7240   32.8420   45.1720 O   0  0  0  0  0  0  0  0  0  0  0  0
   38.5160   33.2960   44.7600 H   0  0  0  0  0  0  0  0  0  0  0  0
   37.0220   31.4230   47.4560 O   0  0  0  0  0  0  0  0  0  0  0  0
   37.6140   30.5260   50.9900 C   0  0  0  0  0  0  0  0  0  0  0  0
   37.7080   31.3050   49.8370 C   0  0  0  0  0  0  0  0  0  0  0  0
   37.0710   30.8470   48.6770 C   0  0  0  0  0  0  0  0  0  0  0  0
   36.3930   29.6630   48.7450 N   0  0  0  0  0  0  0  0  0  0  0  0
   36.3240   28.9370   49.8790 C   0  0  0  0  0  0  0  0  0  0  0  0
   36.9330   29.3690   50.9970 N   0  0  0  0  0  0  0  0  0  0  0  0
   38.1360   30.9700   51.8100 H   0  0  0  0  0  0  0  0  0  0  0  0
   38.2150   32.2310   49.7110 H   0  0  0  0  0  0  0  0  0  0  0  0
   35.7860   27.9990   49.9320 H   0  0  0  0  0  0  0  0  0  0  0  0
  2  1  1  0  0  0  0
  2  3  1  0  0  0  0
  3 18  1  0  0  0  0
  4  3  2  0  0  0  0
  4  8  1  0  0  0  0
  5  4  1  0  0  0  0
  6  7  1  0  0  0  0
  6  5  2  0  0  0  0
  7  2  2  0  0  0  0
  9  5  1  0  0  0  0
 10  6  1  0  0  0  0
 11  7  1  0  0  0  0
 12 11  2  0  0  0  0
 12 13  1  0  0  0  0
 14 15  1  0  0  0  0
 14 12  1  0  0  0  0
 15 17  2  0  0  0  0
 16 15  1  0  0  0  0
 17 11  1  0  0  0  0
 18 20  1  0  0  0  0
 20 19  2  1  0  0  0
 20 23  1  0  0  0  0
 21 20  1  0  0  0  0
 22 21  1  0  0  0  0
 23 26  1  0  0  0  0
 24 29  1  0  0  0  0
 24 30  1  0  0  0  0
 25 24  2  0  0  0  0
 26 27  2  0  0  0  0
 26 25  1  0  0  0  0
 27 28  1  0  0  0  0
 28 32  1  0  0  0  0
 28 29  2  0  0  0  0
 31 25  1  0  0  0  0
M  END
>  <minimizedAffinity>
-4.78939629

>  <minimizedRMSD>
0.163142085

$$$$
