
 OpenBabel03272505133D

 37 40  0  0  0  0  0  0  0  0999 V2000
   36.3100   27.6990   34.8190 Cl  0  0  0  0  0  0  0  0  0  0  0  0
   36.2650   28.4310   33.2410 C   0  0  0  0  0  0  0  0  0  0  0  0
   35.7280   29.7020   33.1470 C   0  0  0  0  0  0  0  0  0  0  0  0
   35.6870   30.2910   31.9000 C   0  0  0  0  0  0  0  0  0  0  0  0
   36.1700   29.6170   30.8030 C   0  0  0  0  0  0  0  0  0  0  0  0
   36.7010   28.3340   30.9670 C   0  0  0  0  0  0  0  0  0  0  0  0
   36.7700   27.6940   32.1760 C   0  0  0  0  0  0  0  0  0  0  0  0
   35.2770   31.2710   31.8030 H   0  0  0  0  0  0  0  0  0  0  0  0
   36.1360   30.0830   29.8290 H   0  0  0  0  0  0  0  0  0  0  0  0
   37.0710   27.8350   30.0820 H   0  0  0  0  0  0  0  0  0  0  0  0
   33.3960   30.8390   35.7050 C   0  0  0  0  0  0  0  0  0  0  0  0
   34.1930   31.6300   36.5700 C   0  0  0  0  0  0  0  0  0  0  0  0
   35.5440   31.7570   36.2450 C   0  0  0  0  0  0  0  0  0  0  0  0
   36.0180   31.1250   35.1330 N   0  0  0  0  0  0  0  0  0  0  0  0
   35.2210   30.3880   34.3490 C   0  0  0  0  0  0  0  0  0  0  0  0
   33.9340   30.2540   34.6390 N   0  0  0  0  0  0  0  0  0  0  0  0
   32.3500   30.7640   35.9910 H   0  0  0  0  0  0  0  0  0  0  0  0
   33.8680   32.1440   37.4480 H   0  0  0  0  0  0  0  0  0  0  0  0
   36.2740   32.3300   36.8120 H   0  0  0  0  0  0  0  0  0  0  0  0
   37.4320   26.0820   32.4130 S   0  0  0  0  0  0  0  0  0  0  0  0
   38.1540   23.5820   34.1690 Cl  0  0  0  0  0  0  0  0  0  0  0  0
   39.2220   24.9800   34.0720 C   0  0  0  0  0  0  0  0  0  0  0  0
   38.9770   26.1220   33.3220 C   0  0  0  0  0  0  0  0  0  0  0  0
   39.9000   27.1340   33.3450 C   0  0  0  0  0  0  0  0  0  0  0  0
   41.0410   27.0580   34.0740 C   0  0  0  0  0  0  0  0  0  0  0  0
   41.3190   25.9280   34.8360 C   0  0  0  0  0  0  0  0  0  0  0  0
   40.3930   24.8920   34.8240 C   0  0  0  0  0  0  0  0  0  0  0  0
   39.6180   27.9770   32.7310 H   0  0  0  0  0  0  0  0  0  0  0  0
   41.7160   27.9010   34.0360 H   0  0  0  0  0  0  0  0  0  0  0  0
   42.2410   25.9120   35.4000 H   0  0  0  0  0  0  0  0  0  0  0  0
   40.6960   23.6830   35.6430 C   0  0  0  0  0  0  0  0  0  0  0  0
   41.6660   22.7800   35.2690 C   0  0  0  0  0  0  0  0  0  0  0  0
   42.3300   22.7550   34.4160 H   0  0  0  0  0  0  0  0  0  0  0  0
   41.5970   21.5300   36.6220 S   0  0  0  0  0  0  0  0  0  0  0  0
   40.2170   22.4900   37.4820 C   0  0  0  0  0  0  0  0  0  0  0  0
   39.6860   22.2570   38.4210 H   0  0  0  0  0  0  0  0  0  0  0  0
   40.0780   23.3850   36.7630 N   0  0  0  0  0  0  0  0  0  0  0  0
  2  1  1  0  0  0  0
  3  2  1  0  0  0  0
  3 15  1  0  0  0  0
  4  3  2  0  0  0  0
  5  6  2  0  0  0  0
  5  4  1  0  0  0  0
  6  7  1  0  0  0  0
  7 20  1  0  0  0  0
  7  2  2  0  0  0  0
  8  4  1  0  0  0  0
  9  5  1  0  0  0  0
 10  6  1  0  0  0  0
 11 17  1  0  0  0  0
 11 12  1  0  0  0  0
 12 18  1  0  0  0  0
 13 12  2  0  0  0  0
 13 19  1  0  0  0  0
 14 13  1  0  0  0  0
 15 16  1  0  0  0  0
 15 14  2  0  0  0  0
 16 11  2  0  0  0  0
 20 23  1  0  0  0  0
 22 21  1  0  0  0  0
 22 27  1  0  0  0  0
 23 24  1  0  0  0  0
 23 22  2  0  0  0  0
 24 25  2  0  0  0  0
 25 26  1  0  0  0  0
 26 30  1  0  0  0  0
 27 26  2  0  0  0  0
 27 31  1  0  0  0  0
 28 24  1  0  0  0  0
 29 25  1  0  0  0  0
 31 37  1  0  0  0  0
 32 31  2  0  0  0  0
 32 34  1  0  0  0  0
 33 32  1  0  0  0  0
 34 35  1  0  0  0  0
 35 36  1  0  0  0  0
 37 35  2  0  0  0  0
M  END
>  <minimizedAffinity>
-5.71382999

$$$$

 OpenBabel03272505133D

 37 40  0  0  0  0  0  0  0  0999 V2000
   38.2920   23.5990   34.1220 Cl  0  0  0  0  0  0  0  0  0  0  0  0
   39.3760   24.9570   34.0390 C   0  0  0  0  0  0  0  0  0  0  0  0
   40.5400   24.8860   34.7800 C   0  0  0  0  0  0  0  0  0  0  0  0
   41.4060   25.9580   34.7220 C   0  0  0  0  0  0  0  0  0  0  0  0
   41.0990   27.0500   33.9450 C   0  0  0  0  0  0  0  0  0  0  0  0
   39.9040   27.0590   33.2170 C   0  0  0  0  0  0  0  0  0  0  0  0
   39.0040   26.0270   33.2330 C   0  0  0  0  0  0  0  0  0  0  0  0
   42.3110   25.9260   35.2860 H   0  0  0  0  0  0  0  0  0  0  0  0
   41.7800   27.8870   33.9020 H   0  0  0  0  0  0  0  0  0  0  0  0
   39.6970   27.9340   32.6170 H   0  0  0  0  0  0  0  0  0  0  0  0
   42.0950   21.7700   35.8530 C   0  0  0  0  0  0  0  0  0  0  0  0
   41.4350   21.4550   37.0660 C   0  0  0  0  0  0  0  0  0  0  0  0
   40.4470   22.3420   37.4970 C   0  0  0  0  0  0  0  0  0  0  0  0
   40.1750   23.4450   36.7410 N   0  0  0  0  0  0  0  0  0  0  0  0
   40.8300   23.6960   35.6000 C   0  0  0  0  0  0  0  0  0  0  0  0
   41.7720   22.8660   35.1730 N   0  0  0  0  0  0  0  0  0  0  0  0
   42.8570   21.0560   35.5500 H   0  0  0  0  0  0  0  0  0  0  0  0
   41.6120   20.6070   37.6890 H   0  0  0  0  0  0  0  0  0  0  0  0
   39.8580   22.2330   38.4050 H   0  0  0  0  0  0  0  0  0  0  0  0
   37.4950   26.0090   32.3300 S   0  0  0  0  0  0  0  0  0  0  0  0
   36.3020   27.5840   34.7690 Cl  0  0  0  0  0  0  0  0  0  0  0  0
   36.3680   28.2940   33.1570 C   0  0  0  0  0  0  0  0  0  0  0  0
   36.8780   27.6660   32.0290 C   0  0  0  0  0  0  0  0  0  0  0  0
   36.8620   28.3420   30.8380 C   0  0  0  0  0  0  0  0  0  0  0  0
   36.3670   29.6000   30.7250 C   0  0  0  0  0  0  0  0  0  0  0  0
   35.8500   30.2580   31.8350 C   0  0  0  0  0  0  0  0  0  0  0  0
   35.8580   29.5870   33.0520 C   0  0  0  0  0  0  0  0  0  0  0  0
   37.2790   27.7690   30.0220 H   0  0  0  0  0  0  0  0  0  0  0  0
   36.3920   30.0610   29.7480 H   0  0  0  0  0  0  0  0  0  0  0  0
   35.4670   31.2590   31.6970 H   0  0  0  0  0  0  0  0  0  0  0  0
   35.3020   30.2980   34.2390 C   0  0  0  0  0  0  0  0  0  0  0  0
   33.9560   30.2880   34.5240 C   0  0  0  0  0  0  0  0  0  0  0  0
   33.1210   29.8240   34.0190 H   0  0  0  0  0  0  0  0  0  0  0  0
   33.8610   31.3020   36.0610 S   0  0  0  0  0  0  0  0  0  0  0  0
   35.7310   31.5680   36.0390 C   0  0  0  0  0  0  0  0  0  0  0  0
   36.3620   32.1340   36.7440 H   0  0  0  0  0  0  0  0  0  0  0  0
   36.0350   30.9780   35.0910 N   0  0  0  0  0  0  0  0  0  0  0  0
  2  1  1  0  0  0  0
  2  3  1  0  0  0  0
  3 15  1  0  0  0  0
  4  3  2  0  0  0  0
  4  8  1  0  0  0  0
  5  4  1  0  0  0  0
  6  7  1  0  0  0  0
  6  5  2  0  0  0  0
  7  2  2  0  0  0  0
  9  5  1  0  0  0  0
 10  6  1  0  0  0  0
 11 12  1  0  0  0  0
 12 13  2  0  0  0  0
 12 18  1  0  0  0  0
 13 19  1  0  0  0  0
 14 13  1  0  0  0  0
 15 14  2  0  0  0  0
 16 15  1  0  0  0  0
 16 11  2  0  0  0  0
 17 11  1  0  0  0  0
 20  7  1  0  0  0  0
 22 21  1  0  0  0  0
 23 20  1  0  0  0  0
 23 22  2  0  0  0  0
 24 23  1  0  0  0  0
 25 24  2  0  0  0  0
 25 26  1  0  0  0  0
 26 27  2  0  0  0  0
 27 22  1  0  0  0  0
 27 31  1  0  0  0  0
 28 24  1  0  0  0  0
 29 25  1  0  0  0  0
 30 26  1  0  0  0  0
 31 32  2  0  0  0  0
 31 37  1  0  0  0  0
 32 34  1  0  0  0  0
 33 32  1  0  0  0  0
 35 34  1  0  0  0  0
 35 36  1  0  0  0  0
 37 35  2  0  0  0  0
M  END
>  <minimizedAffinity>
-5.60133028

$$$$

 OpenBabel03272505133D

 37 40  0  0  0  0  0  0  0  0999 V2000
   37.4960   24.5920   33.5230 Cl  0  0  0  0  0  0  0  0  0  0  0  0
   38.9070   25.6100   33.5560 C   0  0  0  0  0  0  0  0  0  0  0  0
   39.6620   25.6090   34.7140 C   0  0  0  0  0  0  0  0  0  0  0  0
   40.7820   26.4140   34.7500 C   0  0  0  0  0  0  0  0  0  0  0  0
   41.1150   27.1810   33.6590 C   0  0  0  0  0  0  0  0  0  0  0  0
   40.3090   27.1360   32.5180 C   0  0  0  0  0  0  0  0  0  0  0  0
   39.1850   26.3590   32.4190 C   0  0  0  0  0  0  0  0  0  0  0  0
   41.3810   26.4300   35.6340 H   0  0  0  0  0  0  0  0  0  0  0  0
   41.9940   27.8090   33.6930 H   0  0  0  0  0  0  0  0  0  0  0  0
   40.6020   27.7520   31.6800 H   0  0  0  0  0  0  0  0  0  0  0  0
   39.6510   22.8340   37.0750 C   0  0  0  0  0  0  0  0  0  0  0  0
   38.6030   23.1500   37.9730 C   0  0  0  0  0  0  0  0  0  0  0  0
   37.9070   24.3370   37.7410 C   0  0  0  0  0  0  0  0  0  0  0  0
   38.2680   25.1170   36.6810 N   0  0  0  0  0  0  0  0  0  0  0  0
   39.2680   24.7710   35.8600 C   0  0  0  0  0  0  0  0  0  0  0  0
   39.9420   23.6470   36.0630 N   0  0  0  0  0  0  0  0  0  0  0  0
   40.1690   21.9020   37.2880 H   0  0  0  0  0  0  0  0  0  0  0  0
   38.2850   22.5740   38.8130 H   0  0  0  0  0  0  0  0  0  0  0  0
   37.0820   24.7090   38.3430 H   0  0  0  0  0  0  0  0  0  0  0  0
   38.1520   26.2800   30.9970 S   0  0  0  0  0  0  0  0  0  0  0  0
   36.2820   27.9610   32.8760 Cl  0  0  0  0  0  0  0  0  0  0  0  0
   36.8360   28.5890   31.3260 C   0  0  0  0  0  0  0  0  0  0  0  0
   37.6610   27.9110   30.4390 C   0  0  0  0  0  0  0  0  0  0  0  0
   38.0090   28.5260   29.2650 C   0  0  0  0  0  0  0  0  0  0  0  0
   37.5760   29.7710   28.9420 C   0  0  0  0  0  0  0  0  0  0  0  0
   36.7490   30.4780   29.8080 C   0  0  0  0  0  0  0  0  0  0  0  0
   36.3860   29.8690   31.0030 C   0  0  0  0  0  0  0  0  0  0  0  0
   38.6520   27.9180   28.6450 H   0  0  0  0  0  0  0  0  0  0  0  0
   37.8980   30.1820   27.9960 H   0  0  0  0  0  0  0  0  0  0  0  0
   36.4300   31.4660   29.5090 H   0  0  0  0  0  0  0  0  0  0  0  0
   35.4990   30.6330   31.9280 C   0  0  0  0  0  0  0  0  0  0  0  0
   34.1280   30.5680   31.8340 C   0  0  0  0  0  0  0  0  0  0  0  0
   33.4820   30.0220   31.1600 H   0  0  0  0  0  0  0  0  0  0  0  0
   33.5770   31.6840   33.1940 S   0  0  0  0  0  0  0  0  0  0  0  0
   35.3690   32.0510   33.6620 C   0  0  0  0  0  0  0  0  0  0  0  0
   35.7610   32.7010   34.4620 H   0  0  0  0  0  0  0  0  0  0  0  0
   35.9430   31.4120   32.8870 N   0  0  0  0  0  0  0  0  0  0  0  0
  1  2  1  0  0  0  0
  2  3  1  0  0  0  0
  3  4  2  0  0  0  0
  3 15  1  0  0  0  0
  4  8  1  0  0  0  0
  5  9  1  0  0  0  0
  5  4  1  0  0  0  0
  6  5  2  0  0  0  0
  7  6  1  0  0  0  0
  7  2  2  0  0  0  0
 10  6  1  0  0  0  0
 11 17  1  0  0  0  0
 11 12  1  0  0  0  0
 12 18  1  0  0  0  0
 13 12  2  0  0  0  0
 13 19  1  0  0  0  0
 14 13  1  0  0  0  0
 15 16  1  0  0  0  0
 15 14  2  0  0  0  0
 16 11  2  0  0  0  0
 20  7  1  0  0  0  0
 22 21  1  0  0  0  0
 23 20  1  0  0  0  0
 23 22  2  0  0  0  0
 24 23  1  0  0  0  0
 25 24  2  0  0  0  0
 25 26  1  0  0  0  0
 26 27  2  0  0  0  0
 27 22  1  0  0  0  0
 27 31  1  0  0  0  0
 28 24  1  0  0  0  0
 29 25  1  0  0  0  0
 30 26  1  0  0  0  0
 31 37  1  0  0  0  0
 32 31  2  0  0  0  0
 32 34  1  0  0  0  0
 33 32  1  0  0  0  0
 34 35  1  0  0  0  0
 35 36  1  0  0  0  0
 37 35  2  0  0  0  0
M  END
>  <minimizedAffinity>
-5.50271511

$$$$

 OpenBabel03272505133D

 37 40  0  0  0  0  0  0  0  0999 V2000
   40.0610   25.9760   34.9010 Cl  0  0  0  0  0  0  0  0  0  0  0  0
   39.1160   24.8930   33.9200 C   0  0  0  0  0  0  0  0  0  0  0  0
   38.5310   23.8120   34.5520 C   0  0  0  0  0  0  0  0  0  0  0  0
   37.7810   22.9470   33.7830 C   0  0  0  0  0  0  0  0  0  0  0  0
   37.6350   23.1740   32.4340 C   0  0  0  0  0  0  0  0  0  0  0  0
   38.2530   24.2880   31.8560 C   0  0  0  0  0  0  0  0  0  0  0  0
   39.0100   25.1830   32.5650 C   0  0  0  0  0  0  0  0  0  0  0  0
   37.3190   22.1060   34.2490 H   0  0  0  0  0  0  0  0  0  0  0  0
   37.0450   22.4950   31.8360 H   0  0  0  0  0  0  0  0  0  0  0  0
   38.1150   24.4340   30.7940 H   0  0  0  0  0  0  0  0  0  0  0  0
   37.8780   23.9580   38.1340 C   0  0  0  0  0  0  0  0  0  0  0  0
   38.9730   23.2700   38.7120 C   0  0  0  0  0  0  0  0  0  0  0  0
   39.9330   22.7590   37.8360 C   0  0  0  0  0  0  0  0  0  0  0  0
   39.7690   22.9470   36.4950 N   0  0  0  0  0  0  0  0  0  0  0  0
   38.7130   23.6070   36.0000 C   0  0  0  0  0  0  0  0  0  0  0  0
   37.7900   24.1000   36.8150 N   0  0  0  0  0  0  0  0  0  0  0  0
   37.1520   24.3410   38.8480 H   0  0  0  0  0  0  0  0  0  0  0  0
   39.1450   23.0990   39.7510 H   0  0  0  0  0  0  0  0  0  0  0  0
   40.8240   22.2110   38.1320 H   0  0  0  0  0  0  0  0  0  0  0  0
   39.7990   26.5910   31.8660 S   0  0  0  0  0  0  0  0  0  0  0  0
   37.4790   27.8780   33.5440 Cl  0  0  0  0  0  0  0  0  0  0  0  0
   37.6420   28.1780   31.8150 C   0  0  0  0  0  0  0  0  0  0  0  0
   38.6360   27.6480   31.0030 C   0  0  0  0  0  0  0  0  0  0  0  0
   38.6350   27.9670   29.6720 C   0  0  0  0  0  0  0  0  0  0  0  0
   37.6990   28.7810   29.1210 C   0  0  0  0  0  0  0  0  0  0  0  0
   36.6900   29.3290   29.9060 C   0  0  0  0  0  0  0  0  0  0  0  0
   36.6760   29.0150   31.2590 C   0  0  0  0  0  0  0  0  0  0  0  0
   39.4460   27.5060   29.1260 H   0  0  0  0  0  0  0  0  0  0  0  0
   37.7720   28.9810   28.0620 H   0  0  0  0  0  0  0  0  0  0  0  0
   35.9680   29.9720   29.4240 H   0  0  0  0  0  0  0  0  0  0  0  0
   35.5920   29.6070   32.0960 C   0  0  0  0  0  0  0  0  0  0  0  0
   35.6960   30.8730   32.6250 C   0  0  0  0  0  0  0  0  0  0  0  0
   36.4800   31.6140   32.5590 H   0  0  0  0  0  0  0  0  0  0  0  0
   34.1050   31.0600   33.5390 S   0  0  0  0  0  0  0  0  0  0  0  0
   33.5660   29.3260   33.0200 C   0  0  0  0  0  0  0  0  0  0  0  0
   32.6340   28.7860   33.2560 H   0  0  0  0  0  0  0  0  0  0  0  0
   34.4740   28.9830   32.3900 N   0  0  0  0  0  0  0  0  0  0  0  0
  2  3  1  0  0  0  0
  2  1  1  0  0  0  0
  3 15  1  0  0  0  0
  4  8  1  0  0  0  0
  4  3  2  0  0  0  0
  5  4  1  0  0  0  0
  6  5  2  0  0  0  0
  6  7  1  0  0  0  0
  7  2  2  0  0  0  0
  9  5  1  0  0  0  0
 10  6  1  0  0  0  0
 11 12  1  0  0  0  0
 11 17  1  0  0  0  0
 12 18  1  0  0  0  0
 13 19  1  0  0  0  0
 13 12  2  0  0  0  0
 14 13  1  0  0  0  0
 15 14  2  0  0  0  0
 15 16  1  0  0  0  0
 16 11  2  0  0  0  0
 20  7  1  0  0  0  0
 22 21  1  0  0  0  0
 23 22  2  0  0  0  0
 23 20  1  0  0  0  0
 24 23  1  0  0  0  0
 25 24  2  0  0  0  0
 25 26  1  0  0  0  0
 26 27  2  0  0  0  0
 27 22  1  0  0  0  0
 27 31  1  0  0  0  0
 28 24  1  0  0  0  0
 29 25  1  0  0  0  0
 30 26  1  0  0  0  0
 31 37  1  0  0  0  0
 31 32  2  0  0  0  0
 32 34  1  0  0  0  0
 33 32  1  0  0  0  0
 35 36  1  0  0  0  0
 35 34  1  0  0  0  0
 37 35  2  0  0  0  0
M  END
>  <minimizedAffinity>
-5.46639109

$$$$

 OpenBabel03272505133D

 37 40  0  0  0  0  0  0  0  0999 V2000
   37.9570   23.6080   31.7140 Cl  0  0  0  0  0  0  0  0  0  0  0  0
   37.9630   23.4250   33.4440 C   0  0  0  0  0  0  0  0  0  0  0  0
   37.4680   22.2420   33.9590 C   0  0  0  0  0  0  0  0  0  0  0  0
   37.4680   22.0880   35.3300 C   0  0  0  0  0  0  0  0  0  0  0  0
   37.9500   23.0920   36.1360 C   0  0  0  0  0  0  0  0  0  0  0  0
   38.4380   24.2650   35.5520 C   0  0  0  0  0  0  0  0  0  0  0  0
   38.4650   24.4790   34.1990 C   0  0  0  0  0  0  0  0  0  0  0  0
   37.0900   21.1820   35.7500 H   0  0  0  0  0  0  0  0  0  0  0  0
   37.9480   22.9660   37.2090 H   0  0  0  0  0  0  0  0  0  0  0  0
   38.8090   25.0320   36.2180 H   0  0  0  0  0  0  0  0  0  0  0  0
   35.1090   20.1930   32.0850 C   0  0  0  0  0  0  0  0  0  0  0  0
   35.9290   19.2660   31.3960 C   0  0  0  0  0  0  0  0  0  0  0  0
   37.3060   19.3700   31.5960 C   0  0  0  0  0  0  0  0  0  0  0  0
   37.7810   20.3400   32.4290 N   0  0  0  0  0  0  0  0  0  0  0  0
   36.9610   21.1920   33.0580 C   0  0  0  0  0  0  0  0  0  0  0  0
   35.6490   21.1100   32.8820 N   0  0  0  0  0  0  0  0  0  0  0  0
   34.0420   20.0800   31.9040 H   0  0  0  0  0  0  0  0  0  0  0  0
   35.6050   18.4920   30.7360 H   0  0  0  0  0  0  0  0  0  0  0  0
   38.0570   18.7320   31.1360 H   0  0  0  0  0  0  0  0  0  0  0  0
   39.0730   25.9430   33.4360 S   0  0  0  0  0  0  0  0  0  0  0  0
   37.5580   27.8870   35.3800 Cl  0  0  0  0  0  0  0  0  0  0  0  0
   37.1290   27.7700   33.6740 C   0  0  0  0  0  0  0  0  0  0  0  0
   37.7470   26.9370   32.7510 C   0  0  0  0  0  0  0  0  0  0  0  0
   37.3040   26.9510   31.4550 C   0  0  0  0  0  0  0  0  0  0  0  0
   36.2860   27.7480   31.0450 C   0  0  0  0  0  0  0  0  0  0  0  0
   35.6460   28.5950   31.9430 C   0  0  0  0  0  0  0  0  0  0  0  0
   36.0820   28.5940   33.2630 C   0  0  0  0  0  0  0  0  0  0  0  0
   37.8470   26.2700   30.8160 H   0  0  0  0  0  0  0  0  0  0  0  0
   35.9990   27.6970   30.0040 H   0  0  0  0  0  0  0  0  0  0  0  0
   34.8410   29.2120   31.5710 H   0  0  0  0  0  0  0  0  0  0  0  0
   35.3920   29.5040   34.2210 C   0  0  0  0  0  0  0  0  0  0  0  0
   34.0440   29.3990   34.4770 C   0  0  0  0  0  0  0  0  0  0  0  0
   33.2930   28.7240   34.0910 H   0  0  0  0  0  0  0  0  0  0  0  0
   33.7600   30.7450   35.7040 S   0  0  0  0  0  0  0  0  0  0  0  0
   35.5850   31.2250   35.6480 C   0  0  0  0  0  0  0  0  0  0  0  0
   36.1130   32.0230   36.1970 H   0  0  0  0  0  0  0  0  0  0  0  0
   36.0000   30.4600   34.8860 N   0  0  0  0  0  0  0  0  0  0  0  0
  1  2  1  0  0  0  0
  2  3  2  0  0  0  0
  2  7  1  0  0  0  0
  3  4  1  0  0  0  0
  4  8  1  0  0  0  0
  4  5  2  0  0  0  0
  5  9  1  0  0  0  0
  6  5  1  0  0  0  0
  6 10  1  0  0  0  0
  7  6  2  0  0  0  0
 11 16  1  0  0  0  0
 12 13  1  0  0  0  0
 12 11  2  0  0  0  0
 13 14  2  0  0  0  0
 14 15  1  0  0  0  0
 15  3  1  0  0  0  0
 16 15  2  0  0  0  0
 17 11  1  0  0  0  0
 18 12  1  0  0  0  0
 19 13  1  0  0  0  0
 20  7  1  0  0  0  0
 22 21  1  0  0  0  0
 23 20  1  0  0  0  0
 23 22  2  0  0  0  0
 24 23  1  0  0  0  0
 25 24  2  0  0  0  0
 25 26  1  0  0  0  0
 26 27  2  0  0  0  0
 27 22  1  0  0  0  0
 27 31  1  0  0  0  0
 28 24  1  0  0  0  0
 29 25  1  0  0  0  0
 30 26  1  0  0  0  0
 31 32  2  0  0  0  0
 31 37  1  0  0  0  0
 32 34  1  0  0  0  0
 33 32  1  0  0  0  0
 35 34  1  0  0  0  0
 35 36  1  0  0  0  0
 37 35  2  0  0  0  0
M  END
>  <minimizedAffinity>
-5.44576406

$$$$

 OpenBabel03272505133D

 37 40  0  0  0  0  0  0  0  0999 V2000
   40.8200   25.4490   34.5910 Cl  0  0  0  0  0  0  0  0  0  0  0  0
   39.6600   24.7350   35.6740 C   0  0  0  0  0  0  0  0  0  0  0  0
   39.9330   23.4660   36.1490 C   0  0  0  0  0  0  0  0  0  0  0  0
   39.0200   22.8910   37.0070 C   0  0  0  0  0  0  0  0  0  0  0  0
   37.8820   23.5760   37.3630 C   0  0  0  0  0  0  0  0  0  0  0  0
   37.6650   24.8580   36.8480 C   0  0  0  0  0  0  0  0  0  0  0  0
   38.5330   25.4830   35.9920 C   0  0  0  0  0  0  0  0  0  0  0  0
   39.2100   21.9120   37.3870 H   0  0  0  0  0  0  0  0  0  0  0  0
   37.1700   23.1220   38.0370 H   0  0  0  0  0  0  0  0  0  0  0  0
   36.7600   25.3660   37.1500 H   0  0  0  0  0  0  0  0  0  0  0  0
   43.4030   22.3540   36.1840 C   0  0  0  0  0  0  0  0  0  0  0  0
   43.5030   21.5030   35.0550 C   0  0  0  0  0  0  0  0  0  0  0  0
   42.3490   21.3270   34.2910 C   0  0  0  0  0  0  0  0  0  0  0  0
   41.2060   21.9730   34.6640 N   0  0  0  0  0  0  0  0  0  0  0  0
   41.1650   22.7670   35.7410 C   0  0  0  0  0  0  0  0  0  0  0  0
   42.2510   22.9470   36.4820 N   0  0  0  0  0  0  0  0  0  0  0  0
   44.3220   22.4650   36.7540 H   0  0  0  0  0  0  0  0  0  0  0  0
   44.3720   20.9790   34.7250 H   0  0  0  0  0  0  0  0  0  0  0  0
   42.2740   20.7070   33.4010 H   0  0  0  0  0  0  0  0  0  0  0  0
   38.2870   27.0930   35.3270 S   0  0  0  0  0  0  0  0  0  0  0  0
   36.1630   29.3400   34.7850 Cl  0  0  0  0  0  0  0  0  0  0  0  0
   36.4840   28.0710   33.6040 C   0  0  0  0  0  0  0  0  0  0  0  0
   37.4040   27.0440   33.7670 C   0  0  0  0  0  0  0  0  0  0  0  0
   37.5460   26.1240   32.7630 C   0  0  0  0  0  0  0  0  0  0  0  0
   36.8200   26.1820   31.6180 C   0  0  0  0  0  0  0  0  0  0  0  0
   35.8900   27.1980   31.4220 C   0  0  0  0  0  0  0  0  0  0  0  0
   35.7340   28.1400   32.4320 C   0  0  0  0  0  0  0  0  0  0  0  0
   38.2840   25.3660   32.9850 H   0  0  0  0  0  0  0  0  0  0  0  0
   36.9940   25.4160   30.8760 H   0  0  0  0  0  0  0  0  0  0  0  0
   35.3360   27.2040   30.4950 H   0  0  0  0  0  0  0  0  0  0  0  0
   34.7360   29.2270   32.2150 C   0  0  0  0  0  0  0  0  0  0  0  0
   35.0380   30.3510   31.4800 C   0  0  0  0  0  0  0  0  0  0  0  0
   35.9420   30.6490   30.9680 H   0  0  0  0  0  0  0  0  0  0  0  0
   33.4680   31.3150   31.5520 S   0  0  0  0  0  0  0  0  0  0  0  0
   32.6550   29.9730   32.6030 C   0  0  0  0  0  0  0  0  0  0  0  0
   31.6340   29.9350   33.0160 H   0  0  0  0  0  0  0  0  0  0  0  0
   33.5140   29.2040   32.6970 N   0  0  0  0  0  0  0  0  0  0  0  0
  1  2  1  0  0  0  0
  2  7  2  0  0  0  0
  2  3  1  0  0  0  0
  3  4  2  0  0  0  0
  4  5  1  0  0  0  0
  4  8  1  0  0  0  0
  5  9  1  0  0  0  0
  6 10  1  0  0  0  0
  6  5  2  0  0  0  0
  7  6  1  0  0  0  0
 11 16  1  0  0  0  0
 11 17  1  0  0  0  0
 12 11  2  0  0  0  0
 13 14  2  0  0  0  0
 13 12  1  0  0  0  0
 14 15  1  0  0  0  0
 15  3  1  0  0  0  0
 15 16  2  0  0  0  0
 18 12  1  0  0  0  0
 19 13  1  0  0  0  0
 20  7  1  0  0  0  0
 22 23  1  0  0  0  0
 22 21  1  0  0  0  0
 23 20  1  0  0  0  0
 24 28  1  0  0  0  0
 24 23  2  0  0  0  0
 25 24  1  0  0  0  0
 26 25  2  0  0  0  0
 26 27  1  0  0  0  0
 27 22  2  0  0  0  0
 29 25  1  0  0  0  0
 30 26  1  0  0  0  0
 31 27  1  0  0  0  0
 31 37  1  0  0  0  0
 32 34  1  0  0  0  0
 32 31  2  0  0  0  0
 33 32  1  0  0  0  0
 34 35  1  0  0  0  0
 35 37  2  0  0  0  0
 35 36  1  0  0  0  0
M  END
>  <minimizedAffinity>
-5.36680698

$$$$

 OpenBabel03272505133D

 37 40  0  0  0  0  0  0  0  0999 V2000
   36.1220   29.3750   34.7510 Cl  0  0  0  0  0  0  0  0  0  0  0  0
   36.3640   28.1080   33.5840 C   0  0  0  0  0  0  0  0  0  0  0  0
   35.6620   28.1960   32.3970 C   0  0  0  0  0  0  0  0  0  0  0  0
   35.8450   27.1950   31.4660 C   0  0  0  0  0  0  0  0  0  0  0  0
   36.7040   26.1550   31.7330 C   0  0  0  0  0  0  0  0  0  0  0  0
   37.3850   26.1250   32.9540 C   0  0  0  0  0  0  0  0  0  0  0  0
   37.2460   27.0870   33.9190 C   0  0  0  0  0  0  0  0  0  0  0  0
   35.3140   27.2420   30.5420 H   0  0  0  0  0  0  0  0  0  0  0  0
   36.8450   25.3740   31.0000 H   0  0  0  0  0  0  0  0  0  0  0  0
   38.0520   25.2920   33.1280 H   0  0  0  0  0  0  0  0  0  0  0  0
   34.4550   31.4080   31.1700 C   0  0  0  0  0  0  0  0  0  0  0  0
   33.1230   31.4800   31.6470 C   0  0  0  0  0  0  0  0  0  0  0  0
   32.6600   30.3990   32.3970 C   0  0  0  0  0  0  0  0  0  0  0  0
   33.4990   29.3470   32.6270 N   0  0  0  0  0  0  0  0  0  0  0  0
   34.7510   29.3290   32.1520 C   0  0  0  0  0  0  0  0  0  0  0  0
   35.2110   30.3470   31.4380 N   0  0  0  0  0  0  0  0  0  0  0  0
   34.7800   32.2690   30.5910 H   0  0  0  0  0  0  0  0  0  0  0  0
   32.4320   32.2790   31.4940 H   0  0  0  0  0  0  0  0  0  0  0  0
   31.6650   30.3130   32.8270 H   0  0  0  0  0  0  0  0  0  0  0  0
   38.0880   27.0770   35.4630 S   0  0  0  0  0  0  0  0  0  0  0  0
   40.8670   25.8590   34.6570 Cl  0  0  0  0  0  0  0  0  0  0  0  0
   39.7030   24.9450   35.6150 C   0  0  0  0  0  0  0  0  0  0  0  0
   38.4560   25.4090   36.0110 C   0  0  0  0  0  0  0  0  0  0  0  0
   37.6540   24.5840   36.7540 C   0  0  0  0  0  0  0  0  0  0  0  0
   38.0360   23.3330   37.1130 C   0  0  0  0  0  0  0  0  0  0  0  0
   39.2780   22.8370   36.7330 C   0  0  0  0  0  0  0  0  0  0  0  0
   40.1050   23.6610   35.9790 C   0  0  0  0  0  0  0  0  0  0  0  0
   36.7070   25.0360   37.0120 H   0  0  0  0  0  0  0  0  0  0  0  0
   37.3420   22.7470   37.6990 H   0  0  0  0  0  0  0  0  0  0  0  0
   39.5390   21.8350   37.0430 H   0  0  0  0  0  0  0  0  0  0  0  0
   41.4360   23.1240   35.5760 C   0  0  0  0  0  0  0  0  0  0  0  0
   41.6040   22.4030   34.4150 C   0  0  0  0  0  0  0  0  0  0  0  0
   40.9020   22.1100   33.6470 H   0  0  0  0  0  0  0  0  0  0  0  0
   43.4060   22.0120   34.4400 S   0  0  0  0  0  0  0  0  0  0  0  0
   43.6140   22.9280   36.0780 C   0  0  0  0  0  0  0  0  0  0  0  0
   44.5250   23.0780   36.6810 H   0  0  0  0  0  0  0  0  0  0  0  0
   42.5340   23.2890   36.2780 N   0  0  0  0  0  0  0  0  0  0  0  0
  2  7  1  0  0  0  0
  2  1  1  0  0  0  0
  3  2  2  0  0  0  0
  4  5  2  0  0  0  0
  4  3  1  0  0  0  0
  5  6  1  0  0  0  0
  6 10  1  0  0  0  0
  6  7  2  0  0  0  0
  7 20  1  0  0  0  0
  8  4  1  0  0  0  0
  9  5  1  0  0  0  0
 11 16  2  0  0  0  0
 11 12  1  0  0  0  0
 12 13  2  0  0  0  0
 13 14  1  0  0  0  0
 13 19  1  0  0  0  0
 15  3  1  0  0  0  0
 15 14  2  0  0  0  0
 16 15  1  0  0  0  0
 17 11  1  0  0  0  0
 18 12  1  0  0  0  0
 20 23  1  0  0  0  0
 21 22  1  0  0  0  0
 22 27  2  0  0  0  0
 22 23  1  0  0  0  0
 23 24  2  0  0  0  0
 24 28  1  0  0  0  0
 24 25  1  0  0  0  0
 25 29  1  0  0  0  0
 26 30  1  0  0  0  0
 26 25  2  0  0  0  0
 27 26  1  0  0  0  0
 31 27  1  0  0  0  0
 31 37  1  0  0  0  0
 32 34  1  0  0  0  0
 32 31  2  0  0  0  0
 33 32  1  0  0  0  0
 34 35  1  0  0  0  0
 35 37  2  0  0  0  0
 35 36  1  0  0  0  0
M  END
>  <minimizedAffinity>
-5.33778381

$$$$

 OpenBabel03272505133D

 37 40  0  0  0  0  0  0  0  0999 V2000
   38.1950   23.6180   33.6060 Cl  0  0  0  0  0  0  0  0  0  0  0  0
   38.0100   25.2010   34.3040 C   0  0  0  0  0  0  0  0  0  0  0  0
   38.5740   25.4170   35.5480 C   0  0  0  0  0  0  0  0  0  0  0  0
   38.4310   26.6680   36.1100 C   0  0  0  0  0  0  0  0  0  0  0  0
   37.7470   27.6520   35.4370 C   0  0  0  0  0  0  0  0  0  0  0  0
   37.2000   27.3700   34.1810 C   0  0  0  0  0  0  0  0  0  0  0  0
   37.3070   26.1490   33.5690 C   0  0  0  0  0  0  0  0  0  0  0  0
   38.8580   26.8570   37.0690 H   0  0  0  0  0  0  0  0  0  0  0  0
   37.6390   28.6310   35.8810 H   0  0  0  0  0  0  0  0  0  0  0  0
   36.6690   28.1680   33.6810 H   0  0  0  0  0  0  0  0  0  0  0  0
   39.3070   22.7940   37.9680 C   0  0  0  0  0  0  0  0  0  0  0  0
   40.5780   22.3070   37.5740 C   0  0  0  0  0  0  0  0  0  0  0  0
   41.1670   22.9050   36.4590 C   0  0  0  0  0  0  0  0  0  0  0  0
   40.5000   23.9090   35.8200 N   0  0  0  0  0  0  0  0  0  0  0  0
   39.2990   24.3330   36.2350 C   0  0  0  0  0  0  0  0  0  0  0  0
   38.7220   23.7770   37.2920 N   0  0  0  0  0  0  0  0  0  0  0  0
   38.8820   22.3030   38.8400 H   0  0  0  0  0  0  0  0  0  0  0  0
   41.1370   21.5270   38.0410 H   0  0  0  0  0  0  0  0  0  0  0  0
   42.1340   22.6390   36.0420 H   0  0  0  0  0  0  0  0  0  0  0  0
   36.6310   25.7640   31.9910 S   0  0  0  0  0  0  0  0  0  0  0  0
   37.8840   28.4040   30.8470 Cl  0  0  0  0  0  0  0  0  0  0  0  0
   38.4080   26.8170   30.2870 C   0  0  0  0  0  0  0  0  0  0  0  0
   37.9060   25.6050   30.7400 C   0  0  0  0  0  0  0  0  0  0  0  0
   38.4090   24.4470   30.2110 C   0  0  0  0  0  0  0  0  0  0  0  0
   39.3780   24.4440   29.2610 C   0  0  0  0  0  0  0  0  0  0  0  0
   39.9040   25.6410   28.7860 C   0  0  0  0  0  0  0  0  0  0  0  0
   39.4050   26.8260   29.3120 C   0  0  0  0  0  0  0  0  0  0  0  0
   37.9540   23.5590   30.6270 H   0  0  0  0  0  0  0  0  0  0  0  0
   39.7190   23.4860   28.8970 H   0  0  0  0  0  0  0  0  0  0  0  0
   40.6750   25.5890   28.0300 H   0  0  0  0  0  0  0  0  0  0  0  0
   39.9730   28.1050   28.7990 C   0  0  0  0  0  0  0  0  0  0  0  0
   39.4960   28.7020   27.6540 C   0  0  0  0  0  0  0  0  0  0  0  0
   38.7100   28.4120   26.9710 H   0  0  0  0  0  0  0  0  0  0  0  0
   40.5480   30.2090   27.5150 S   0  0  0  0  0  0  0  0  0  0  0  0
   41.4790   29.7430   29.0900 C   0  0  0  0  0  0  0  0  0  0  0  0
   42.3040   30.2740   29.5950 H   0  0  0  0  0  0  0  0  0  0  0  0
   40.9540   28.7550   29.3830 N   0  0  0  0  0  0  0  0  0  0  0  0
  1  2  1  0  0  0  0
  2  3  1  0  0  0  0
  3  4  2  0  0  0  0
  3 15  1  0  0  0  0
  4  8  1  0  0  0  0
  5  9  1  0  0  0  0
  5  4  1  0  0  0  0
  6  5  2  0  0  0  0
  7  6  1  0  0  0  0
  7  2  2  0  0  0  0
 10  6  1  0  0  0  0
 11 17  1  0  0  0  0
 12 11  1  0  0  0  0
 12 18  1  0  0  0  0
 13 12  2  0  0  0  0
 14 15  2  0  0  0  0
 14 13  1  0  0  0  0
 15 16  1  0  0  0  0
 16 11  2  0  0  0  0
 19 13  1  0  0  0  0
 20  7  1  0  0  0  0
 22 23  1  0  0  0  0
 22 21  1  0  0  0  0
 23 20  1  0  0  0  0
 24 28  1  0  0  0  0
 24 23  2  0  0  0  0
 25 24  1  0  0  0  0
 26 25  2  0  0  0  0
 26 27  1  0  0  0  0
 27 22  2  0  0  0  0
 29 25  1  0  0  0  0
 30 26  1  0  0  0  0
 31 27  1  0  0  0  0
 31 37  1  0  0  0  0
 32 31  2  0  0  0  0
 33 32  1  0  0  0  0
 34 32  1  0  0  0  0
 34 35  1  0  0  0  0
 35 37  2  0  0  0  0
 35 36  1  0  0  0  0
M  END
>  <minimizedAffinity>
-5.31644773

$$$$

 OpenBabel03272505133D

 37 40  0  0  0  0  0  0  0  0999 V2000
   38.2460   24.2320   33.0180 Cl  0  0  0  0  0  0  0  0  0  0  0  0
   38.0550   25.6270   34.0400 C   0  0  0  0  0  0  0  0  0  0  0  0
   38.7210   25.6230   35.2510 C   0  0  0  0  0  0  0  0  0  0  0  0
   38.5760   26.7240   36.0690 C   0  0  0  0  0  0  0  0  0  0  0  0
   37.7880   27.7780   35.6710 C   0  0  0  0  0  0  0  0  0  0  0  0
   37.1410   27.7210   34.4320 C   0  0  0  0  0  0  0  0  0  0  0  0
   37.2450   26.6570   33.5760 C   0  0  0  0  0  0  0  0  0  0  0  0
   39.0810   26.7430   37.0090 H   0  0  0  0  0  0  0  0  0  0  0  0
   37.6780   28.6390   36.3140 H   0  0  0  0  0  0  0  0  0  0  0  0
   36.5310   28.5690   34.1530 H   0  0  0  0  0  0  0  0  0  0  0  0
   39.6820   22.4630   36.7910 C   0  0  0  0  0  0  0  0  0  0  0  0
   41.0340   22.2900   36.4060 C   0  0  0  0  0  0  0  0  0  0  0  0
   41.5980   23.2860   35.6080 C   0  0  0  0  0  0  0  0  0  0  0  0
   40.8310   24.3550   35.2470 N   0  0  0  0  0  0  0  0  0  0  0  0
   39.5550   24.4700   35.6380 C   0  0  0  0  0  0  0  0  0  0  0  0
   39.0000   23.5340   36.3970 N   0  0  0  0  0  0  0  0  0  0  0  0
   39.2780   21.6660   37.4110 H   0  0  0  0  0  0  0  0  0  0  0  0
   41.6730   21.4740   36.6640 H   0  0  0  0  0  0  0  0  0  0  0  0
   42.6200   23.2900   35.2380 H   0  0  0  0  0  0  0  0  0  0  0  0
   36.4440   26.5560   32.0130 S   0  0  0  0  0  0  0  0  0  0  0  0
   38.9270   26.2060   30.1250 Cl  0  0  0  0  0  0  0  0  0  0  0  0
   37.9880   27.6980   30.1460 C   0  0  0  0  0  0  0  0  0  0  0  0
   36.8800   27.9320   30.9500 C   0  0  0  0  0  0  0  0  0  0  0  0
   36.2490   29.1440   30.8600 C   0  0  0  0  0  0  0  0  0  0  0  0
   36.6690   30.1200   30.0160 C   0  0  0  0  0  0  0  0  0  0  0  0
   37.7740   29.9180   29.1970 C   0  0  0  0  0  0  0  0  0  0  0  0
   38.4270   28.6930   29.2750 C   0  0  0  0  0  0  0  0  0  0  0  0
   35.4010   29.2290   31.5240 H   0  0  0  0  0  0  0  0  0  0  0  0
   36.1140   31.0470   30.0080 H   0  0  0  0  0  0  0  0  0  0  0  0
   38.0710   30.7230   28.5400 H   0  0  0  0  0  0  0  0  0  0  0  0
   39.6110   28.4830   28.3930 C   0  0  0  0  0  0  0  0  0  0  0  0
   40.8640   28.9290   28.7460 C   0  0  0  0  0  0  0  0  0  0  0  0
   41.2150   29.4590   29.6210 H   0  0  0  0  0  0  0  0  0  0  0  0
   41.8990   28.4000   27.3150 S   0  0  0  0  0  0  0  0  0  0  0  0
   40.3930   27.6410   26.4650 C   0  0  0  0  0  0  0  0  0  0  0  0
   40.3280   27.1220   25.4950 H   0  0  0  0  0  0  0  0  0  0  0  0
   39.5580   27.8670   27.2340 N   0  0  0  0  0  0  0  0  0  0  0  0
  1  2  1  0  0  0  0
  2  3  1  0  0  0  0
  3 15  1  0  0  0  0
  3  4  2  0  0  0  0
  4  8  1  0  0  0  0
  5  4  1  0  0  0  0
  5  9  1  0  0  0  0
  6  5  2  0  0  0  0
  7  2  2  0  0  0  0
  7  6  1  0  0  0  0
 10  6  1  0  0  0  0
 11 17  1  0  0  0  0
 12 18  1  0  0  0  0
 12 11  1  0  0  0  0
 13 12  2  0  0  0  0
 14 13  1  0  0  0  0
 14 15  2  0  0  0  0
 15 16  1  0  0  0  0
 16 11  2  0  0  0  0
 19 13  1  0  0  0  0
 20  7  1  0  0  0  0
 21 22  1  0  0  0  0
 22 23  1  0  0  0  0
 23 20  1  0  0  0  0
 24 23  2  0  0  0  0
 24 28  1  0  0  0  0
 25 24  1  0  0  0  0
 26 27  1  0  0  0  0
 26 25  2  0  0  0  0
 27 22  2  0  0  0  0
 29 25  1  0  0  0  0
 30 26  1  0  0  0  0
 31 32  2  0  0  0  0
 31 27  1  0  0  0  0
 32 33  1  0  0  0  0
 34 32  1  0  0  0  0
 35 37  2  0  0  0  0
 35 34  1  0  0  0  0
 36 35  1  0  0  0  0
 37 31  1  0  0  0  0
M  END
>  <minimizedAffinity>
-5.30105019

$$$$
