
 OpenBabel03272507093D

 25 27  0  0  0  0  0  0  0  0999 V2000
   35.9780   29.5840   48.8450 C   0  0  0  0  0  0  0  0  0  0  0  0
   35.2670   30.3920   48.0180 C   0  0  0  0  0  0  0  0  0  0  0  0
   34.1010   29.7370   47.6610 C   0  0  0  0  0  0  0  0  0  0  0  0
   34.1680   28.5210   48.3140 C   0  0  0  0  0  0  0  0  0  0  0  0
   35.2770   28.4760   48.9910 O   0  0  0  0  0  0  0  0  0  0  0  0
   35.5390   31.3880   47.6750 H   0  0  0  0  0  0  0  0  0  0  0  0
   33.3550   30.1460   47.0150 H   0  0  0  0  0  0  0  0  0  0  0  0
   33.1130   27.5310   48.1920 C   0  0  0  0  0  0  0  0  0  0  0  0
   33.5070   26.3120   47.4970 C   0  0  0  0  0  0  0  0  0  0  0  0
   34.4000   25.8840   47.0100 H   0  0  0  0  0  0  0  0  0  0  0  0
   31.9390   25.2520   47.5080 S   0  0  0  0  0  0  0  0  0  0  0  0
   31.0680   26.6550   48.4430 C   0  0  0  0  0  0  0  0  0  0  0  0
   29.9770   27.0260   48.9670 H   0  0  0  0  0  0  0  0  0  0  0  0
   31.8590   27.4560   48.5610 N   0  0  0  0  0  0  0  0  0  0  0  0
   37.2570   29.9450   49.4160 C   0  0  0  0  0  0  0  0  0  0  0  0
   37.6820   29.3270   50.4090 O   0  0  0  0  0  0  0  0  0  0  0  0
   37.9830   31.0280   48.7820 C   0  0  0  0  0  0  0  0  0  0  0  0
   38.0920   32.2190   49.4990 C   0  0  0  0  0  0  0  0  0  0  0  0
   38.7840   33.2770   48.9140 C   0  0  0  0  0  0  0  0  0  0  0  0
   39.3190   33.0950   47.6740 N   0  0  0  0  0  0  0  0  0  0  0  0
   39.2030   31.9360   47.0000 C   0  0  0  0  0  0  0  0  0  0  0  0
   38.5330   30.9060   47.5600 N   0  0  0  0  0  0  0  0  0  0  0  0
   37.6640   32.3560   50.4810 H   0  0  0  0  0  0  0  0  0  0  0  0
   38.8760   34.2020   49.4550 H   0  0  0  0  0  0  0  0  0  0  0  0
   39.6350   31.8080   46.0130 H   0  0  0  0  0  0  0  0  0  0  0  0
  1  5  1  0  0  0  0
  1 15  1  0  0  0  0
  2  1  2  0  0  0  0
  3  2  1  0  0  0  0
  3  4  2  0  0  0  0
  4  5  1  0  0  0  0
  6  2  1  0  0  0  0
  7  3  1  0  0  0  0
  8  4  1  0  0  0  0
  8 14  1  0  0  0  0
  9 11  1  0  0  0  0
  9  8  2  0  0  0  0
 10  9  1  0  0  0  0
 11 12  1  0  0  0  0
 12 14  2  0  0  0  0
 12 13  1  0  0  0  0
 15 16  2  0  0  0  0
 17 15  1  0  0  0  0
 17 18  1  0  0  0  0
 18 23  1  0  0  0  0
 19 24  1  0  0  0  0
 19 18  2  0  0  0  0
 20 19  1  0  0  0  0
 21 22  1  0  0  0  0
 21 20  2  0  0  0  0
 22 17  2  0  0  0  0
 25 21  1  0  0  0  0
M  END
>  <minimizedAffinity>
-5.21161318

>  <minimizedRMSD>
1.32040715

$$$$
