
 OpenBabel03272510203D

 34 37  0  0  0  0  0  0  0  0999 V2000
   37.4580   29.1810   50.8270 Br  0  0  0  0  0  0  0  0  0  0  0  0
   36.0370   29.2890   49.5640 C   0  0  0  0  0  0  0  0  0  0  0  0
   36.0130   30.2920   48.6020 C   0  0  0  0  0  0  0  0  0  0  0  0
   34.9550   30.3050   47.7270 C   0  0  0  0  0  0  0  0  0  0  0  0
   33.9260   29.3820   47.7520 C   0  0  0  0  0  0  0  0  0  0  0  0
   33.9840   28.4030   48.7190 C   0  0  0  0  0  0  0  0  0  0  0  0
   35.0320   28.3650   49.6120 C   0  0  0  0  0  0  0  0  0  0  0  0
   34.8930   31.0650   46.9620 H   0  0  0  0  0  0  0  0  0  0  0  0
   33.2090   27.6460   48.7960 H   0  0  0  0  0  0  0  0  0  0  0  0
   35.0410   27.5770   50.3580 H   0  0  0  0  0  0  0  0  0  0  0  0
   38.0350   33.1980   49.4540 C   0  0  0  0  0  0  0  0  0  0  0  0
   39.0500   33.1920   48.4620 C   0  0  0  0  0  0  0  0  0  0  0  0
   39.0190   32.1910   47.5180 C   0  0  0  0  0  0  0  0  0  0  0  0
   38.0260   31.2630   47.5850 N   0  0  0  0  0  0  0  0  0  0  0  0
   37.0680   31.2820   48.5360 C   0  0  0  0  0  0  0  0  0  0  0  0
   37.0860   32.2610   49.4680 N   0  0  0  0  0  0  0  0  0  0  0  0
   38.1210   34.0120   50.1620 H   0  0  0  0  0  0  0  0  0  0  0  0
   39.8510   33.9010   48.3700 H   0  0  0  0  0  0  0  0  0  0  0  0
   39.6850   32.0180   46.7040 H   0  0  0  0  0  0  0  0  0  0  0  0
   32.8150   29.3940   46.8320 C   0  0  0  0  0  0  0  0  0  0  0  0
   31.8890   28.3730   46.6960 C   0  0  0  0  0  0  0  0  0  0  0  0
   30.8340   28.4120   45.8050 C   0  0  0  0  0  0  0  0  0  0  0  0
   30.6920   29.4990   45.0260 N   0  0  0  0  0  0  0  0  0  0  0  0
   31.5790   30.4990   45.1420 C   0  0  0  0  0  0  0  0  0  0  0  0
   32.5990   30.4350   46.0190 N   0  0  0  0  0  0  0  0  0  0  0  0
   32.0090   27.4900   47.3360 H   0  0  0  0  0  0  0  0  0  0  0  0
   30.1770   27.5620   45.7860 H   0  0  0  0  0  0  0  0  0  0  0  0
   31.3300   31.6290   44.2460 C   0  0  0  0  0  0  0  0  0  0  0  0
   31.6350   32.8710   44.9430 C   0  0  0  0  0  0  0  0  0  0  0  0
   31.9900   33.1810   45.9270 H   0  0  0  0  0  0  0  0  0  0  0  0
   31.2560   34.1890   43.6420 S   0  0  0  0  0  0  0  0  0  0  0  0
   30.7650   32.8080   42.4300 C   0  0  0  0  0  0  0  0  0  0  0  0
   30.3670   32.5510   41.3160 H   0  0  0  0  0  0  0  0  0  0  0  0
   30.9180   31.8650   43.0170 N   0  0  0  0  0  0  0  0  0  0  0  0
  2  7  1  0  0  0  0
  2  1  1  0  0  0  0
  3  2  2  0  0  0  0
  4  5  2  0  0  0  0
  4  3  1  0  0  0  0
  5  6  1  0  0  0  0
  6  9  1  0  0  0  0
  6  7  2  0  0  0  0
  7 10  1  0  0  0  0
  8  4  1  0  0  0  0
 11 16  1  0  0  0  0
 11 17  1  0  0  0  0
 12 11  2  0  0  0  0
 13 14  2  0  0  0  0
 13 12  1  0  0  0  0
 14 15  1  0  0  0  0
 15  3  1  0  0  0  0
 15 16  2  0  0  0  0
 18 12  1  0  0  0  0
 19 13  1  0  0  0  0
 20  5  1  0  0  0  0
 21 20  1  0  0  0  0
 21 26  1  0  0  0  0
 22 21  2  0  0  0  0
 23 24  2  0  0  0  0
 23 22  1  0  0  0  0
 24 25  1  0  0  0  0
 25 20  2  0  0  0  0
 27 22  1  0  0  0  0
 28 29  2  0  0  0  0
 28 24  1  0  0  0  0
 29 30  1  0  0  0  0
 31 29  1  0  0  0  0
 32 34  2  0  0  0  0
 32 31  1  0  0  0  0
 33 32  1  0  0  0  0
 34 28  1  0  0  0  0
M  END
>  <minimizedAffinity>
-6.30970287

>  <minimizedRMSD>
0.547450662

$$$$
