
 OpenBabel03272508543D

 36 39  0  0  1  0  0  0  0  0999 V2000
   38.3570   31.8930   44.5080 C   0  0  0  0  0  0  0  0  0  0  0  0
   37.2510   32.4580   44.4090 O   0  0  0  0  0  0  0  0  0  0  0  0
   38.9340   31.6100   45.8080 N   0  0  0  0  0  0  0  0  0  0  0  0
   39.9170   31.3140   45.9630 H   0  0  0  0  0  0  0  0  0  0  0  0
   39.1440   31.4790   43.3180 C   0  0  0  0  0  0  0  0  0  0  0  0
   40.1270   30.5370   43.4640 C   0  0  0  0  0  0  0  0  0  0  0  0
   40.8380   30.1990   42.3220 C   0  0  0  0  0  0  0  0  0  0  0  0
   40.5270   30.8110   41.1370 C   0  0  0  0  0  0  0  0  0  0  0  0
   39.5330   31.7610   40.9940 C   0  0  0  0  0  0  0  0  0  0  0  0
   38.8880   32.0410   42.1280 N   0  0  0  0  0  0  0  0  0  0  0  0
   40.3570   30.0660   44.4090 H   0  0  0  0  0  0  0  0  0  0  0  0
   41.6360   29.4670   42.3220 H   0  0  0  0  0  0  0  0  0  0  0  0
   41.0910   30.5430   40.2300 H   0  0  0  0  0  0  0  0  0  0  0  0
   39.1760   32.4300   39.7520 C   0  0  0  0  0  0  0  0  0  0  0  0
   39.6040   31.8480   38.5530 C   0  0  0  0  0  0  0  0  0  0  0  0
   40.1990   30.9300   38.2350 H   0  0  0  0  0  0  0  0  0  0  0  0
   38.9310   33.0250   37.2380 S   0  0  0  0  0  0  0  0  0  0  0  0
   38.1900   34.0880   38.6250 C   0  0  0  0  0  0  0  0  0  0  0  0
   37.5440   35.1040   38.7220 H   0  0  0  0  0  0  0  0  0  0  0  0
   38.4910   33.5330   39.5500 N   0  0  0  0  0  0  0  0  0  0  0  0
   38.4360   31.1210   48.1990 C   0  0  2  0  0  0  0  0  0  0  0  0
   38.6950   32.5670   48.1110 C   0  0  0  0  0  0  0  0  0  0  0  0
   38.0580   31.7570   46.9590 C   0  0  1  0  0  0  0  0  0  0  0  0
   39.3480   30.4940   48.2630 H   0  0  0  0  0  0  0  0  0  0  0  0
   39.7360   32.9110   47.9740 H   0  0  0  0  0  0  0  0  0  0  0  0
   38.0590   33.2990   48.6420 H   0  0  0  0  0  0  0  0  0  0  0  0
   37.0050   32.0760   46.7680 H   0  0  0  0  0  0  0  0  0  0  0  0
   35.0940   30.2180   49.5300 C   0  0  0  0  0  0  0  0  0  0  0  0
   35.4240   29.5380   50.7380 C   0  0  0  0  0  0  0  0  0  0  0  0
   36.8250   29.4130   51.0750 C   0  0  0  0  0  0  0  0  0  0  0  0
   37.7580   29.9420   50.2330 N   0  0  0  0  0  0  0  0  0  0  0  0
   37.3610   30.5780   49.0960 C   0  0  0  0  0  0  0  0  0  0  0  0
   36.0430   30.7330   48.7150 N   0  0  0  0  0  0  0  0  0  0  0  0
   34.0400   30.2850   49.3250 H   0  0  0  0  0  0  0  0  0  0  0  0
   34.6620   29.1380   51.3710 H   0  0  0  0  0  0  0  0  0  0  0  0
   37.0850   28.9010   51.9860 H   0  0  0  0  0  0  0  0  0  0  0  0
  1  3  1  0  0  0  0
  2  1  2  0  0  0  0
  3  4  1  0  0  0  0
  3 23  1  0  0  0  0
  5  6  1  0  0  0  0
  5  1  1  0  0  0  0
  6 11  1  0  0  0  0
  7 12  1  0  0  0  0
  7  6  2  0  0  0  0
  8  7  1  0  0  0  0
  9  8  2  0  0  0  0
  9 10  1  0  0  0  0
 10  5  2  0  0  0  0
 13  8  1  0  0  0  0
 14  9  1  0  0  0  0
 15 14  2  0  0  0  0
 16 15  1  0  0  0  0
 17 15  1  0  0  0  0
 17 18  1  0  0  0  0
 18 19  1  0  0  0  0
 18 20  2  0  0  0  0
 20 14  1  0  0  0  0
 21 24  1  6  0  0  0
 21 32  1  0  0  0  0
 22 21  1  0  0  0  0
 22 26  1  0  0  0  0
 23 27  1  6  0  0  0
 23 22  1  0  0  0  0
 23 21  1  0  0  0  0
 25 22  1  0  0  0  0
 28 29  1  0  0  0  0
 29 30  2  0  0  0  0
 29 35  1  0  0  0  0
 30 36  1  0  0  0  0
 31 30  1  0  0  0  0
 32 31  2  0  0  0  0
 33 32  1  0  0  0  0
 33 28  2  0  0  0  0
 34 28  1  0  0  0  0
M  END
>  <minimizedAffinity>
-5.16505766

>  <minimizedRMSD>
0.54215014

$$$$
