
 OpenBabel03272510073D

 28 30  0  0  0  0  0  0  0  0999 V2000
   38.1790   32.3410   47.4070 C   0  0  0  0  0  0  0  0  0  0  0  0
   37.9030   31.8390   46.1330 C   0  0  0  0  0  0  0  0  0  0  0  0
   36.9300   30.8480   46.0180 C   0  0  0  0  0  0  0  0  0  0  0  0
   36.2970   30.4170   47.1450 N   0  0  0  0  0  0  0  0  0  0  0  0
   36.5980   30.9340   48.3630 C   0  0  0  0  0  0  0  0  0  0  0  0
   37.5240   31.8840   48.5040 N   0  0  0  0  0  0  0  0  0  0  0  0
   35.8810   30.4190   49.5010 N   0  0  0  0  0  0  0  0  0  0  0  0
   34.4490   30.4950   49.6640 C   0  0  0  0  0  0  0  0  0  0  0  0
   34.1570   29.6160   50.8350 C   0  0  0  0  0  0  0  0  0  0  0  0
   35.4360   28.8770   51.1580 C   0  0  0  0  0  0  0  0  0  0  0  0
   36.5240   29.7510   50.6350 C   0  0  0  0  0  0  0  0  0  0  0  0
   38.9330   33.1140   47.5210 H   0  0  0  0  0  0  0  0  0  0  0  0
   36.6660   30.4150   45.0630 H   0  0  0  0  0  0  0  0  0  0  0  0
   34.2060   31.5460   49.9360 H   0  0  0  0  0  0  0  0  0  0  0  0
   33.8920   30.1390   48.7820 H   0  0  0  0  0  0  0  0  0  0  0  0
   33.8390   30.2020   51.7090 H   0  0  0  0  0  0  0  0  0  0  0  0
   33.3430   28.8830   50.5860 H   0  0  0  0  0  0  0  0  0  0  0  0
   35.4340   27.9170   50.6060 H   0  0  0  0  0  0  0  0  0  0  0  0
   35.5600   28.7520   52.2420 H   0  0  0  0  0  0  0  0  0  0  0  0
   36.8980   30.4860   51.3680 H   0  0  0  0  0  0  0  0  0  0  0  0
   37.3660   29.1680   50.2110 H   0  0  0  0  0  0  0  0  0  0  0  0
   38.6140   32.3360   44.9430 C   0  0  0  0  0  0  0  0  0  0  0  0
   38.2620   31.9000   43.6440 C   0  0  0  0  0  0  0  0  0  0  0  0
   37.4550   31.1710   43.3440 H   0  0  0  0  0  0  0  0  0  0  0  0
   39.4310   32.8060   42.5650 S   0  0  0  0  0  0  0  0  0  0  0  0
   40.2160   33.6390   44.0820 C   0  0  0  0  0  0  0  0  0  0  0  0
   41.0780   34.3980   44.2070 H   0  0  0  0  0  0  0  0  0  0  0  0
   39.6200   33.2080   44.9360 N   0  0  0  0  0  0  0  0  0  0  0  0
  1 12  1  0  0  0  0
  1  6  1  0  0  0  0
  2  1  2  0  0  0  0
  3  2  1  0  0  0  0
  3  4  2  0  0  0  0
  4  5  1  0  0  0  0
  5  6  2  0  0  0  0
  5  7  1  0  0  0  0
  7  8  1  0  0  0  0
  7 11  1  0  0  0  0
  8 14  1  0  0  0  0
  8  9  1  0  0  0  0
  9 10  1  0  0  0  0
  9 16  1  0  0  0  0
 10 19  1  0  0  0  0
 11 10  1  0  0  0  0
 11 20  1  0  0  0  0
 13  3  1  0  0  0  0
 15  8  1  0  0  0  0
 17  9  1  0  0  0  0
 18 10  1  0  0  0  0
 21 11  1  0  0  0  0
 22  2  1  0  0  0  0
 23 22  2  0  0  0  0
 24 23  1  0  0  0  0
 25 23  1  0  0  0  0
 25 26  1  0  0  0  0
 26 27  1  0  0  0  0
 26 28  2  0  0  0  0
 28 22  1  0  0  0  0
M  END
>  <minimizedAffinity>
-4.45240927

>  <minimizedRMSD>
3.19663596

$$$$
