
 OpenBabel03272510213D

 34 37  0  0  0  0  0  0  0  0999 V2000
   37.3900   29.2000   50.8750 Br  0  0  0  0  0  0  0  0  0  0  0  0
   35.9910   29.2610   49.5850 C   0  0  0  0  0  0  0  0  0  0  0  0
   35.9790   30.2350   48.5930 C   0  0  0  0  0  0  0  0  0  0  0  0
   34.9360   30.2140   47.6990 C   0  0  0  0  0  0  0  0  0  0  0  0
   33.9110   29.2880   47.7360 C   0  0  0  0  0  0  0  0  0  0  0  0
   33.9560   28.3390   48.7330 C   0  0  0  0  0  0  0  0  0  0  0  0
   34.9890   28.3350   49.6440 C   0  0  0  0  0  0  0  0  0  0  0  0
   34.8830   30.9510   46.9100 H   0  0  0  0  0  0  0  0  0  0  0  0
   33.1840   27.5820   48.8200 H   0  0  0  0  0  0  0  0  0  0  0  0
   34.9880   27.5700   50.4150 H   0  0  0  0  0  0  0  0  0  0  0  0
   37.9970   33.1520   49.4140 C   0  0  0  0  0  0  0  0  0  0  0  0
   39.0060   33.1430   48.4160 C   0  0  0  0  0  0  0  0  0  0  0  0
   38.9730   32.1350   47.4790 C   0  0  0  0  0  0  0  0  0  0  0  0
   37.9830   31.2040   47.5580 N   0  0  0  0  0  0  0  0  0  0  0  0
   37.0300   31.2270   48.5140 C   0  0  0  0  0  0  0  0  0  0  0  0
   37.0510   32.2120   49.4390 N   0  0  0  0  0  0  0  0  0  0  0  0
   38.0840   33.9710   50.1160 H   0  0  0  0  0  0  0  0  0  0  0  0
   39.8040   33.8530   48.3150 H   0  0  0  0  0  0  0  0  0  0  0  0
   39.6350   31.9590   46.6620 H   0  0  0  0  0  0  0  0  0  0  0  0
   32.8160   29.2670   46.7960 C   0  0  0  0  0  0  0  0  0  0  0  0
   32.0410   28.1540   46.5100 C   0  0  0  0  0  0  0  0  0  0  0  0
   30.9970   28.1630   45.6050 C   0  0  0  0  0  0  0  0  0  0  0  0
   30.7130   29.3120   44.9650 N   0  0  0  0  0  0  0  0  0  0  0  0
   31.4520   30.3990   45.2280 C   0  0  0  0  0  0  0  0  0  0  0  0
   32.4640   30.3640   46.1150 N   0  0  0  0  0  0  0  0  0  0  0  0
   32.2780   27.2210   47.0360 H   0  0  0  0  0  0  0  0  0  0  0  0
   30.4650   27.2410   45.4620 H   0  0  0  0  0  0  0  0  0  0  0  0
   31.0560   31.5900   44.4750 C   0  0  0  0  0  0  0  0  0  0  0  0
   31.8870   32.7140   44.8810 C   0  0  0  0  0  0  0  0  0  0  0  0
   32.7050   32.9060   45.5770 H   0  0  0  0  0  0  0  0  0  0  0  0
   31.2300   34.1310   43.8160 S   0  0  0  0  0  0  0  0  0  0  0  0
   29.9760   32.9290   43.0430 C   0  0  0  0  0  0  0  0  0  0  0  0
   29.0730   32.8020   42.2470 H   0  0  0  0  0  0  0  0  0  0  0  0
   30.1860   31.9530   43.5540 N   0  0  0  0  0  0  0  0  0  0  0  0
  2  7  1  0  0  0  0
  2  1  1  0  0  0  0
  3  2  2  0  0  0  0
  4  5  2  0  0  0  0
  4  3  1  0  0  0  0
  5  6  1  0  0  0  0
  6  9  1  0  0  0  0
  6  7  2  0  0  0  0
  7 10  1  0  0  0  0
  8  4  1  0  0  0  0
 11 16  1  0  0  0  0
 11 17  1  0  0  0  0
 12 11  2  0  0  0  0
 13 14  2  0  0  0  0
 13 12  1  0  0  0  0
 14 15  1  0  0  0  0
 15  3  1  0  0  0  0
 15 16  2  0  0  0  0
 18 12  1  0  0  0  0
 19 13  1  0  0  0  0
 20  5  1  0  0  0  0
 21 20  1  0  0  0  0
 21 26  1  0  0  0  0
 22 21  2  0  0  0  0
 23 24  2  0  0  0  0
 23 22  1  0  0  0  0
 24 25  1  0  0  0  0
 25 20  2  0  0  0  0
 27 22  1  0  0  0  0
 28 29  2  0  0  0  0
 28 24  1  0  0  0  0
 29 30  1  0  0  0  0
 31 29  1  0  0  0  0
 32 34  2  0  0  0  0
 32 31  1  0  0  0  0
 33 32  1  0  0  0  0
 34 28  1  0  0  0  0
M  END
>  <minimizedAffinity>
-6.32615232

>  <minimizedRMSD>
0.254835606

$$$$
