
 OpenBabel03272506473D

 40 43  0  0  1  0  0  0  0  0999 V2000
   32.1370   28.4350   47.4530 C   0  0  2  0  0  0  0  0  0  0  0  0
   33.3810   28.3340   48.2830 C   0  0  1  0  0  0  0  0  0  0  0  0
   33.8310   27.0510   48.2180 O   0  0  0  0  0  0  0  0  0  0  0  0
   33.1610   26.3830   47.1970 C   0  0  0  0  0  0  0  0  0  0  0  0
   32.5250   27.4340   46.3170 C   0  0  1  0  0  0  0  0  0  0  0  0
   31.2170   28.1180   47.9270 H   0  0  0  0  0  0  0  0  0  0  0  0
   33.1470   28.6900   49.3040 H   0  0  0  0  0  0  0  0  0  0  0  0
   32.4840   25.6900   47.6750 H   0  0  0  0  0  0  0  0  0  0  0  0
   33.9410   25.8520   46.5940 H   0  0  0  0  0  0  0  0  0  0  0  0
   33.2290   27.9700   45.6920 H   0  0  0  0  0  0  0  0  0  0  0  0
   32.0110   29.7270   46.9020 O   0  0  0  0  0  0  0  0  0  0  0  0
   32.4290   29.7900   46.0130 H   0  0  0  0  0  0  0  0  0  0  0  0
   34.6510   29.4240   47.5280 S   0  0  0  0  0  0  0  0  0  0  0  0
   37.1330   29.2800   50.6140 C   0  0  0  0  0  0  0  0  0  0  0  0
   37.6130   30.5860   50.7480 C   0  0  0  0  0  0  0  0  0  0  0  0
   37.1500   31.5530   49.8470 C   0  0  0  0  0  0  0  0  0  0  0  0
   36.2630   31.1710   48.8940 N   0  0  0  0  0  0  0  0  0  0  0  0
   35.8220   29.8990   48.7930 C   0  0  0  0  0  0  0  0  0  0  0  0
   36.2500   28.9370   49.6500 N   0  0  0  0  0  0  0  0  0  0  0  0
   37.5070   28.5540   51.3220 H   0  0  0  0  0  0  0  0  0  0  0  0
   38.3190   30.8840   51.5100 H   0  0  0  0  0  0  0  0  0  0  0  0
   37.4580   32.5890   49.8650 H   0  0  0  0  0  0  0  0  0  0  0  0
   31.4030   26.9030   45.7290 O   0  0  0  0  0  0  0  0  0  0  0  0
   29.9300   28.6790   43.9050 Cl  0  0  0  0  0  0  0  0  0  0  0  0
   29.3580   27.8960   45.3630 C   0  0  0  0  0  0  0  0  0  0  0  0
   30.1470   27.0710   46.1260 C   0  0  0  0  0  0  0  0  0  0  0  0
   29.5710   26.4740   47.2490 C   0  0  0  0  0  0  0  0  0  0  0  0
   28.2540   26.7110   47.5730 C   0  0  0  0  0  0  0  0  0  0  0  0
   27.4560   27.5390   46.8110 C   0  0  0  0  0  0  0  0  0  0  0  0
   28.0310   28.1420   45.6800 C   0  0  0  0  0  0  0  0  0  0  0  0
   30.0950   25.8080   47.9110 H   0  0  0  0  0  0  0  0  0  0  0  0
   27.7740   26.2690   48.4320 H   0  0  0  0  0  0  0  0  0  0  0  0
   26.4290   27.7180   47.0710 H   0  0  0  0  0  0  0  0  0  0  0  0
   27.2270   29.0310   44.8400 C   0  0  0  0  0  0  0  0  0  0  0  0
   26.4150   28.5220   43.8330 C   0  0  0  0  0  0  0  0  0  0  0  0
   26.2020   27.4530   43.4660 H   0  0  0  0  0  0  0  0  0  0  0  0
   25.6060   30.0410   43.0570 S   0  0  0  0  0  0  0  0  0  0  0  0
   26.5650   31.1040   44.2950 C   0  0  0  0  0  0  0  0  0  0  0  0
   26.7040   32.2910   44.5900 H   0  0  0  0  0  0  0  0  0  0  0  0
   27.1450   30.3440   44.8890 N   0  0  0  0  0  0  0  0  0  0  0  0
  1  6  1  1  0  0  0
  1  2  1  0  0  0  0
  2  7  1  1  0  0  0
  3  2  1  0  0  0  0
  4  8  1  0  0  0  0
  4  3  1  0  0  0  0
  5 10  1  6  0  0  0
  5  4  1  0  0  0  0
  5  1  1  0  0  0  0
  9  4  1  0  0  0  0
 11  1  1  0  0  0  0
 12 11  1  0  0  0  0
 13  2  1  0  0  0  0
 13 18  1  0  0  0  0
 14 15  1  0  0  0  0
 14 20  1  0  0  0  0
 15 21  1  0  0  0  0
 16 22  1  0  0  0  0
 16 15  2  0  0  0  0
 17 16  1  0  0  0  0
 18 17  2  0  0  0  0
 18 19  1  0  0  0  0
 19 14  2  0  0  0  0
 23 26  1  0  0  0  0
 23  5  1  0  0  0  0
 24 25  1  0  0  0  0
 25 30  2  0  0  0  0
 25 26  1  0  0  0  0
 26 27  2  0  0  0  0
 27 28  1  0  0  0  0
 27 31  1  0  0  0  0
 28 32  1  0  0  0  0
 29 33  1  0  0  0  0
 29 28  2  0  0  0  0
 30 29  1  0  0  0  0
 34 40  1  0  0  0  0
 34 30  1  0  0  0  0
 35 34  2  0  0  0  0
 36 35  1  0  0  0  0
 37 35  1  0  0  0  0
 37 38  1  0  0  0  0
 38 39  1  0  0  0  0
 38 40  2  0  0  0  0
M  END
>  <minimizedAffinity>
-5.04134607

>  <minimizedRMSD>
0.492536515

$$$$
