
 OpenBabel03272510073D

 28 30  0  0  0  0  0  0  0  0999 V2000
   34.9850   29.6730   49.2930 C   0  0  0  0  0  0  0  0  0  0  0  0
   35.6160   30.2940   48.2140 C   0  0  0  0  0  0  0  0  0  0  0  0
   35.1010   30.0700   46.9380 C   0  0  0  0  0  0  0  0  0  0  0  0
   34.0120   29.2610   46.8040 N   0  0  0  0  0  0  0  0  0  0  0  0
   33.4310   28.6780   47.8830 C   0  0  0  0  0  0  0  0  0  0  0  0
   33.9020   28.8750   49.1150 N   0  0  0  0  0  0  0  0  0  0  0  0
   32.2860   27.8360   47.6480 N   0  0  0  0  0  0  0  0  0  0  0  0
   31.0530   28.2880   47.0490 C   0  0  0  0  0  0  0  0  0  0  0  0
   30.2870   27.0350   46.7780 C   0  0  0  0  0  0  0  0  0  0  0  0
   31.2310   25.8810   47.0310 C   0  0  0  0  0  0  0  0  0  0  0  0
   32.2360   26.4140   47.9920 C   0  0  0  0  0  0  0  0  0  0  0  0
   35.3680   29.8340   50.2970 H   0  0  0  0  0  0  0  0  0  0  0  0
   35.5390   30.5190   46.0580 H   0  0  0  0  0  0  0  0  0  0  0  0
   30.5110   28.8790   47.8190 H   0  0  0  0  0  0  0  0  0  0  0  0
   31.2060   28.8420   46.1080 H   0  0  0  0  0  0  0  0  0  0  0  0
   29.4120   26.9480   47.4380 H   0  0  0  0  0  0  0  0  0  0  0  0
   29.9290   27.0120   45.7130 H   0  0  0  0  0  0  0  0  0  0  0  0
   31.7300   25.6240   46.0760 H   0  0  0  0  0  0  0  0  0  0  0  0
   30.7060   25.0310   47.4860 H   0  0  0  0  0  0  0  0  0  0  0  0
   31.9610   26.2710   49.0510 H   0  0  0  0  0  0  0  0  0  0  0  0
   33.2540   26.0170   47.8030 H   0  0  0  0  0  0  0  0  0  0  0  0
   36.7910   31.1610   48.4080 C   0  0  0  0  0  0  0  0  0  0  0  0
   37.0200   31.8180   49.6410 C   0  0  0  0  0  0  0  0  0  0  0  0
   36.3960   31.7820   50.5800 H   0  0  0  0  0  0  0  0  0  0  0  0
   38.5740   32.7390   49.3430 S   0  0  0  0  0  0  0  0  0  0  0  0
   38.6550   32.0680   47.5670 C   0  0  0  0  0  0  0  0  0  0  0  0
   39.4050   32.2170   46.7010 H   0  0  0  0  0  0  0  0  0  0  0  0
   37.7320   31.4230   47.5050 N   0  0  0  0  0  0  0  0  0  0  0  0
  1 12  1  0  0  0  0
  2 22  1  0  0  0  0
  2  1  2  0  0  0  0
  3  2  1  0  0  0  0
  4  3  2  0  0  0  0
  4  5  1  0  0  0  0
  5  6  2  0  0  0  0
  6  1  1  0  0  0  0
  7  5  1  0  0  0  0
  7 11  1  0  0  0  0
  8  7  1  0  0  0  0
  8 14  1  0  0  0  0
  9 10  1  0  0  0  0
  9  8  1  0  0  0  0
  9 16  1  0  0  0  0
 10 19  1  0  0  0  0
 10 11  1  0  0  0  0
 11 20  1  0  0  0  0
 13  3  1  0  0  0  0
 15  8  1  0  0  0  0
 17  9  1  0  0  0  0
 18 10  1  0  0  0  0
 21 11  1  0  0  0  0
 22 23  2  0  0  0  0
 23 24  1  0  0  0  0
 25 23  1  0  0  0  0
 26 25  1  0  0  0  0
 27 26  1  0  0  0  0
 28 26  2  0  0  0  0
 28 22  1  0  0  0  0
M  END
>  <minimizedAffinity>
-4.3219223

>  <minimizedRMSD>
4.48667049

$$$$
