
 OpenBabel03272507473D

 44 48  0  0  0  0  0  0  0  0999 V2000
   32.1110   28.1740   47.4290 N   0  0  0  0  0  0  0  0  0  0  0  0
   32.4070   27.8430   48.7800 C   0  0  0  0  0  0  0  0  0  0  0  0
   33.6420   28.4260   49.3540 C   0  0  0  0  0  0  0  0  0  0  0  0
   34.8020   28.5170   48.4660 C   0  0  0  0  0  0  0  0  0  0  0  0
   34.4010   28.8100   47.0100 C   0  0  0  0  0  0  0  0  0  0  0  0
   33.2690   27.8320   46.6500 C   0  0  0  0  0  0  0  0  0  0  0  0
   32.4640   26.7190   48.8490 H   0  0  0  0  0  0  0  0  0  0  0  0
   31.5300   28.1260   49.4040 H   0  0  0  0  0  0  0  0  0  0  0  0
   33.8570   27.9590   50.3270 H   0  0  0  0  0  0  0  0  0  0  0  0
   33.3170   29.4990   49.5630 H   0  0  0  0  0  0  0  0  0  0  0  0
   35.3840   27.5570   48.4000 H   0  0  0  0  0  0  0  0  0  0  0  0
   34.0000   29.8310   46.9850 H   0  0  0  0  0  0  0  0  0  0  0  0
   35.2830   28.6180   46.3990 H   0  0  0  0  0  0  0  0  0  0  0  0
   33.6240   26.7880   46.7950 H   0  0  0  0  0  0  0  0  0  0  0  0
   33.0500   28.0370   45.5730 H   0  0  0  0  0  0  0  0  0  0  0  0
   36.0590   29.7680   50.1600 C   0  0  0  0  0  0  0  0  0  0  0  0
   35.7730   29.5820   48.8170 C   0  0  0  0  0  0  0  0  0  0  0  0
   36.3120   30.3360   47.8070 C   0  0  0  0  0  0  0  0  0  0  0  0
   37.2010   31.3520   48.1600 C   0  0  0  0  0  0  0  0  0  0  0  0
   37.4870   31.5410   49.4940 C   0  0  0  0  0  0  0  0  0  0  0  0
   36.9400   30.7730   50.5190 C   0  0  0  0  0  0  0  0  0  0  0  0
   38.3900   32.5990   49.6470 O   0  0  0  0  0  0  0  0  0  0  0  0
   38.8940   32.8360   48.3400 C   0  0  0  0  0  0  0  0  0  0  0  0
   37.9380   32.3060   47.4600 O   0  0  0  0  0  0  0  0  0  0  0  0
   35.7090   29.2330   51.0300 H   0  0  0  0  0  0  0  0  0  0  0  0
   36.0740   30.1670   46.7850 H   0  0  0  0  0  0  0  0  0  0  0  0
   37.2150   30.9820   51.5620 H   0  0  0  0  0  0  0  0  0  0  0  0
   38.8330   33.9560   48.2080 H   0  0  0  0  0  0  0  0  0  0  0  0
   39.9180   32.4860   48.1890 H   0  0  0  0  0  0  0  0  0  0  0  0
   30.9050   28.7400   46.9050 C   0  0  0  0  0  0  0  0  0  0  0  0
   30.7700   29.4000   45.6890 C   0  0  0  0  0  0  0  0  0  0  0  0
   29.5120   29.8820   45.3520 C   0  0  0  0  0  0  0  0  0  0  0  0
   28.4840   29.6860   46.2170 N   0  0  0  0  0  0  0  0  0  0  0  0
   28.6440   29.0470   47.3810 C   0  0  0  0  0  0  0  0  0  0  0  0
   29.8420   28.5790   47.7210 N   0  0  0  0  0  0  0  0  0  0  0  0
   31.6720   29.4710   45.1240 H   0  0  0  0  0  0  0  0  0  0  0  0
   29.4380   30.3870   44.4080 H   0  0  0  0  0  0  0  0  0  0  0  0
   27.4450   28.8970   48.2400 C   0  0  0  0  0  0  0  0  0  0  0  0
   26.1270   29.1510   47.8240 C   0  0  0  0  0  0  0  0  0  0  0  0
   25.9010   29.4610   46.8860 H   0  0  0  0  0  0  0  0  0  0  0  0
   25.2070   28.7580   49.3850 S   0  0  0  0  0  0  0  0  0  0  0  0
   26.8240   28.3200   50.3050 C   0  0  0  0  0  0  0  0  0  0  0  0
   26.7300   28.0140   51.3280 H   0  0  0  0  0  0  0  0  0  0  0  0
   27.7990   28.4920   49.4470 N   0  0  0  0  0  0  0  0  0  0  0  0
  1  2  1  0  0  0  0
  2  7  1  0  0  0  0
  2  3  1  0  0  0  0
  2  8  1  0  0  0  0
  3 10  1  0  0  0  0
  3  9  1  0  0  0  0
  4 17  1  0  0  0  0
  4  3  1  0  0  0  0
  5  4  1  0  0  0  0
  6 14  1  0  0  0  0
  6  5  1  0  0  0  0
  6  1  1  0  0  0  0
 11  4  1  0  0  0  0
 12  5  1  0  0  0  0
 13  5  1  0  0  0  0
 15  6  1  0  0  0  0
 16 21  1  0  0  0  0
 16 25  1  0  0  0  0
 17 16  2  0  0  0  0
 18 19  2  0  0  0  0
 18 17  1  0  0  0  0
 19 20  1  0  0  0  0
 20 22  1  0  0  0  0
 20 21  2  0  0  0  0
 21 27  1  0  0  0  0
 23 22  1  0  0  0  0
 24 19  1  0  0  0  0
 24 23  1  0  0  0  0
 26 18  1  0  0  0  0
 28 23  1  0  0  0  0
 29 23  1  0  0  0  0
 30  1  1  0  0  0  0
 30 35  1  0  0  0  0
 31 30  2  0  0  0  0
 32 31  1  0  0  0  0
 32 33  2  0  0  0  0
 33 34  1  0  0  0  0
 34 35  2  0  0  0  0
 34 38  1  0  0  0  0
 36 31  1  0  0  0  0
 37 32  1  0  0  0  0
 38 44  1  0  0  0  0
 39 38  2  0  0  0  0
 39 41  1  0  0  0  0
 40 39  1  0  0  0  0
 41 42  1  0  0  0  0
 42 43  1  0  0  0  0
 44 42  2  0  0  0  0
M  END
>  <minimizedAffinity>
-7.341259

>  <minimizedRMSD>
1.18210065

$$$$
