
 OpenBabel03272509103D

 38 41  0  0  0  0  0  0  0  0999 V2000
   35.0970   29.2710   34.0820 C   0  0  0  0  0  0  0  0  0  0  0  0
   34.2370   28.6410   33.8690 H   0  0  0  0  0  0  0  0  0  0  0  0
   35.2970   29.8170   33.1030 H   0  0  0  0  0  0  0  0  0  0  0  0
   34.8570   30.3710   35.0510 C   0  0  0  0  0  0  0  0  0  0  0  0
   35.8770   31.2290   35.4630 C   0  0  0  0  0  0  0  0  0  0  0  0
   35.6630   32.2330   36.3620 C   0  0  0  0  0  0  0  0  0  0  0  0
   34.4100   32.4330   36.8990 C   0  0  0  0  0  0  0  0  0  0  0  0
   33.4210   31.6030   36.5010 C   0  0  0  0  0  0  0  0  0  0  0  0
   33.5970   30.5720   35.5900 C   0  0  0  0  0  0  0  0  0  0  0  0
   36.8480   31.0360   35.0160 H   0  0  0  0  0  0  0  0  0  0  0  0
   36.5250   32.8160   36.5930 H   0  0  0  0  0  0  0  0  0  0  0  0
   34.2980   33.2420   37.6060 H   0  0  0  0  0  0  0  0  0  0  0  0
   32.4730   31.8290   36.9680 H   0  0  0  0  0  0  0  0  0  0  0  0
   32.4570   29.7280   35.2170 C   0  0  0  0  0  0  0  0  0  0  0  0
   32.0300   28.6710   36.0510 C   0  0  0  0  0  0  0  0  0  0  0  0
   32.4750   28.3030   37.1170 H   0  0  0  0  0  0  0  0  0  0  0  0
   30.5860   27.9420   35.1280 S   0  0  0  0  0  0  0  0  0  0  0  0
   30.8270   29.2240   33.7530 C   0  0  0  0  0  0  0  0  0  0  0  0
   30.1650   29.2560   32.8480 H   0  0  0  0  0  0  0  0  0  0  0  0
   31.6950   29.7700   34.1670 N   0  0  0  0  0  0  0  0  0  0  0  0
   36.6900   27.4060   33.7130 C   0  0  0  0  0  3  0  0  0  0  0  0
   36.3330   28.5090   34.3280 C   0  0  0  0  0  3  0  0  0  0  0  0
   40.2120   26.4540   33.8350 C   0  0  0  0  0  0  0  0  0  0  0  0
   40.2210   25.5230   34.8920 C   0  0  0  0  0  0  0  0  0  0  0  0
   39.0010   25.2500   35.5380 C   0  0  0  0  0  0  0  0  0  0  0  0
   37.8720   25.9000   35.1080 N   0  0  0  0  0  0  0  0  0  0  0  0
   37.9430   26.7860   34.0790 C   0  0  0  0  0  0  0  0  0  0  0  0
   39.0890   27.0580   33.4560 N   0  0  0  0  0  0  0  0  0  0  0  0
   41.1920   26.6330   33.3640 H   0  0  0  0  0  0  0  0  0  0  0  0
   41.0960   24.9970   35.2510 H   0  0  0  0  0  0  0  0  0  0  0  0
   38.8760   24.2970   36.6510 C   0  0  0  0  0  0  0  0  0  0  0  0
   37.9090   24.4070   37.6170 C   0  0  0  0  0  0  0  0  0  0  0  0
   38.0910   23.3350   38.5060 C   0  0  0  0  0  0  0  0  0  0  0  0
   39.1590   22.6260   38.0370 N   0  0  0  0  0  0  0  0  0  0  0  0
   39.6140   23.2150   36.9290 N   0  0  0  0  0  0  0  0  0  0  0  0
   37.1080   25.1470   37.7560 H   0  0  0  0  0  0  0  0  0  0  0  0
   37.4840   23.1490   39.3730 H   0  0  0  0  0  0  0  0  0  0  0  0
   39.5050   21.7690   38.5250 H   0  0  0  0  0  0  0  0  0  0  0  0
  1 22  1  0  0  0  0
  1  4  1  0  0  0  0
  2  1  1  0  0  0  0
  3  1  1  0  0  0  0
  4  5  2  0  0  0  0
  4  9  1  0  0  0  0
  5  6  1  0  0  0  0
  6 11  1  0  0  0  0
  6  7  2  0  0  0  0
  7 12  1  0  0  0  0
  8  7  1  0  0  0  0
  8 13  1  0  0  0  0
  9  8  2  0  0  0  0
 10  5  1  0  0  0  0
 14  9  1  0  0  0  0
 14 15  2  0  0  0  0
 15 16  1  0  0  0  0
 17 15  1  0  0  0  0
 18 20  2  0  0  0  0
 18 17  1  0  0  0  0
 19 18  1  0  0  0  0
 20 14  1  0  0  0  0
 21 27  1  0  0  0  0
 21 22  2  0  0  0  0
 23 24  1  0  0  0  0
 24 30  1  0  0  0  0
 24 25  2  0  0  0  0
 25 31  1  0  0  0  0
 26 25  1  0  0  0  0
 27 26  2  0  0  0  0
 28 23  2  0  0  0  0
 28 27  1  0  0  0  0
 29 23  1  0  0  0  0
 31 35  2  0  0  0  0
 31 32  1  0  0  0  0
 32 36  1  0  0  0  0
 32 33  2  0  0  0  0
 33 37  1  0  0  0  0
 34 33  1  0  0  0  0
 34 38  1  0  0  0  0
 35 34  1  0  0  0  0
M  END
>  <minimizedAffinity>
-6.38068247

$$$$

 OpenBabel03272509103D

 38 41  0  0  0  0  0  0  0  0999 V2000
   36.0930   29.4600   34.6130 C   0  0  0  0  0  0  0  0  0  0  0  0
   36.9150   30.0730   34.9730 H   0  0  0  0  0  0  0  0  0  0  0  0
   35.3170   29.5090   35.4450 H   0  0  0  0  0  0  0  0  0  0  0  0
   35.3700   29.9940   33.4300 C   0  0  0  0  0  0  0  0  0  0  0  0
   36.0010   30.1820   32.2000 C   0  0  0  0  0  0  0  0  0  0  0  0
   35.3430   30.6840   31.1150 C   0  0  0  0  0  0  0  0  0  0  0  0
   34.0120   31.0250   31.2040 C   0  0  0  0  0  0  0  0  0  0  0  0
   33.3990   30.8430   32.3940 C   0  0  0  0  0  0  0  0  0  0  0  0
   34.0320   30.3360   33.5190 C   0  0  0  0  0  0  0  0  0  0  0  0
   37.0500   29.9010   32.1740 H   0  0  0  0  0  0  0  0  0  0  0  0
   35.9400   30.7790   30.2370 H   0  0  0  0  0  0  0  0  0  0  0  0
   33.5420   31.4180   30.3140 H   0  0  0  0  0  0  0  0  0  0  0  0
   32.3580   31.1340   32.3770 H   0  0  0  0  0  0  0  0  0  0  0  0
   33.2770   30.1710   34.7660 C   0  0  0  0  0  0  0  0  0  0  0  0
   33.1770   31.2230   35.7030 C   0  0  0  0  0  0  0  0  0  0  0  0
   33.6440   32.3420   35.6570 H   0  0  0  0  0  0  0  0  0  0  0  0
   32.1360   30.4990   37.0660 S   0  0  0  0  0  0  0  0  0  0  0  0
   32.0240   28.8690   36.1050 C   0  0  0  0  0  0  0  0  0  0  0  0
   31.4560   27.9860   36.4980 H   0  0  0  0  0  0  0  0  0  0  0  0
   32.6220   29.1430   35.2160 N   0  0  0  0  0  0  0  0  0  0  0  0
   37.4410   27.5200   33.8570 C   0  0  0  0  0  3  0  0  0  0  0  0
   36.4290   28.0290   34.5190 C   0  0  0  0  0  3  0  0  0  0  0  0
   37.6300   24.0120   32.8640 C   0  0  0  0  0  0  0  0  0  0  0  0
   38.0150   23.3930   34.0700 C   0  0  0  0  0  0  0  0  0  0  0  0
   38.2000   24.2120   35.1990 C   0  0  0  0  0  0  0  0  0  0  0  0
   37.9980   25.5630   35.0700 N   0  0  0  0  0  0  0  0  0  0  0  0
   37.6260   26.0870   33.8720 C   0  0  0  0  0  0  0  0  0  0  0  0
   37.4460   25.3270   32.7910 N   0  0  0  0  0  0  0  0  0  0  0  0
   37.4990   23.3280   32.0110 H   0  0  0  0  0  0  0  0  0  0  0  0
   38.1810   22.3320   34.1990 H   0  0  0  0  0  0  0  0  0  0  0  0
   38.5970   23.6890   36.5160 C   0  0  0  0  0  0  0  0  0  0  0  0
   38.0550   24.1460   37.6890 C   0  0  0  0  0  0  0  0  0  0  0  0
   38.6630   23.4270   38.7310 C   0  0  0  0  0  0  0  0  0  0  0  0
   39.5450   22.5680   38.1400 N   0  0  0  0  0  0  0  0  0  0  0  0
   39.4900   22.7400   36.8170 N   0  0  0  0  0  0  0  0  0  0  0  0
   37.2930   24.9150   37.8820 H   0  0  0  0  0  0  0  0  0  0  0  0
   38.4460   23.5600   39.7750 H   0  0  0  0  0  0  0  0  0  0  0  0
   40.1330   21.9120   38.7030 H   0  0  0  0  0  0  0  0  0  0  0  0
  1  2  1  0  0  0  0
  1  3  1  0  0  0  0
  4  9  1  0  0  0  0
  4  1  1  0  0  0  0
  5  4  2  0  0  0  0
  6  7  2  0  0  0  0
  6  5  1  0  0  0  0
  7  8  1  0  0  0  0
  8  9  2  0  0  0  0
  9 14  1  0  0  0  0
 10  5  1  0  0  0  0
 11  6  1  0  0  0  0
 12  7  1  0  0  0  0
 13  8  1  0  0  0  0
 14 20  1  0  0  0  0
 14 15  2  0  0  0  0
 15 17  1  0  0  0  0
 16 15  1  0  0  0  0
 18 19  1  0  0  0  0
 18 17  1  0  0  0  0
 20 18  2  0  0  0  0
 21 27  1  0  0  0  0
 21 22  2  0  0  0  0
 22  1  1  0  0  0  0
 23 24  1  0  0  0  0
 24 30  1  0  0  0  0
 24 25  2  0  0  0  0
 25 31  1  0  0  0  0
 26 25  1  0  0  0  0
 27 26  2  0  0  0  0
 28 23  2  0  0  0  0
 28 27  1  0  0  0  0
 29 23  1  0  0  0  0
 31 35  2  0  0  0  0
 31 32  1  0  0  0  0
 32 36  1  0  0  0  0
 32 33  2  0  0  0  0
 33 37  1  0  0  0  0
 34 38  1  0  0  0  0
 34 33  1  0  0  0  0
 35 34  1  0  0  0  0
M  END
>  <minimizedAffinity>
-5.85974789

$$$$

 OpenBabel03272509103D

 38 41  0  0  0  0  0  0  0  0999 V2000
   38.9340   26.5580   35.3520 C   0  0  0  0  0  0  0  0  0  0  0  0
   39.7770   27.0850   35.7900 H   0  0  0  0  0  0  0  0  0  0  0  0
   39.3310   26.1610   34.3610 H   0  0  0  0  0  0  0  0  0  0  0  0
   38.5070   25.3290   36.0720 C   0  0  0  0  0  0  0  0  0  0  0  0
   38.1390   25.3500   37.4170 C   0  0  0  0  0  0  0  0  0  0  0  0
   37.7580   24.2220   38.0840 C   0  0  0  0  0  0  0  0  0  0  0  0
   37.7260   23.0070   37.4360 C   0  0  0  0  0  0  0  0  0  0  0  0
   38.0810   22.9850   36.1330 C   0  0  0  0  0  0  0  0  0  0  0  0
   38.4730   24.1090   35.4190 C   0  0  0  0  0  0  0  0  0  0  0  0
   38.1790   26.3280   37.8890 H   0  0  0  0  0  0  0  0  0  0  0  0
   37.5030   24.3740   39.1070 H   0  0  0  0  0  0  0  0  0  0  0  0
   37.4170   22.1470   38.0130 H   0  0  0  0  0  0  0  0  0  0  0  0
   38.0270   21.9950   35.7010 H   0  0  0  0  0  0  0  0  0  0  0  0
   38.8360   23.9820   34.0040 C   0  0  0  0  0  0  0  0  0  0  0  0
   37.8450   23.9300   32.9990 C   0  0  0  0  0  0  0  0  0  0  0  0
   36.6380   23.9770   33.1050 H   0  0  0  0  0  0  0  0  0  0  0  0
   38.8270   23.7710   31.4240 S   0  0  0  0  0  0  0  0  0  0  0  0
   40.4320   23.8020   32.4310 C   0  0  0  0  0  0  0  0  0  0  0  0
   41.4400   23.7310   31.9440 H   0  0  0  0  0  0  0  0  0  0  0  0
   40.0060   23.8990   33.4460 N   0  0  0  0  0  0  0  0  0  0  0  0
   37.3000   27.5420   33.7670 C   0  0  0  0  0  3  0  0  0  0  0  0
   37.8240   27.4460   34.9660 C   0  0  0  0  0  3  0  0  0  0  0  0
   34.5410   29.4160   32.2820 C   0  0  0  0  0  0  0  0  0  0  0  0
   34.1790   30.2770   33.3360 C   0  0  0  0  0  0  0  0  0  0  0  0
   34.9040   30.1840   34.5390 C   0  0  0  0  0  0  0  0  0  0  0  0
   35.9190   29.2660   34.6240 N   0  0  0  0  0  0  0  0  0  0  0  0
   36.2100   28.4690   33.5610 C   0  0  0  0  0  0  0  0  0  0  0  0
   35.5350   28.5420   32.4150 N   0  0  0  0  0  0  0  0  0  0  0  0
   33.9440   29.5280   31.3630 H   0  0  0  0  0  0  0  0  0  0  0  0
   33.3840   31.0100   33.2970 H   0  0  0  0  0  0  0  0  0  0  0  0
   34.6280   31.0290   35.7120 C   0  0  0  0  0  0  0  0  0  0  0  0
   33.3640   31.2210   36.2060 C   0  0  0  0  0  0  0  0  0  0  0  0
   33.4810   32.0720   37.3170 C   0  0  0  0  0  0  0  0  0  0  0  0
   34.8100   32.3560   37.4430 N   0  0  0  0  0  0  0  0  0  0  0  0
   35.4780   31.7230   36.4760 N   0  0  0  0  0  0  0  0  0  0  0  0
   32.3900   30.8320   35.8730 H   0  0  0  0  0  0  0  0  0  0  0  0
   32.6570   32.4100   37.9200 H   0  0  0  0  0  0  0  0  0  0  0  0
   35.1680   32.9780   38.2030 H   0  0  0  0  0  0  0  0  0  0  0  0
  1  2  1  0  0  0  0
  1  4  1  0  0  0  0
  3  1  1  0  0  0  0
  4  5  1  0  0  0  0
  5 10  1  0  0  0  0
  5  6  2  0  0  0  0
  6 11  1  0  0  0  0
  7 12  1  0  0  0  0
  7  6  1  0  0  0  0
  8  7  2  0  0  0  0
  9  4  2  0  0  0  0
  9  8  1  0  0  0  0
 13  8  1  0  0  0  0
 14  9  1  0  0  0  0
 15 16  1  0  0  0  0
 15 14  2  0  0  0  0
 17 18  1  0  0  0  0
 17 15  1  0  0  0  0
 18 20  2  0  0  0  0
 19 18  1  0  0  0  0
 20 14  1  0  0  0  0
 21 22  2  0  0  0  0
 22  1  1  0  0  0  0
 23 28  2  0  0  0  0
 23 24  1  0  0  0  0
 24 25  2  0  0  0  0
 25 26  1  0  0  0  0
 25 31  1  0  0  0  0
 27 21  1  0  0  0  0
 27 26  2  0  0  0  0
 28 27  1  0  0  0  0
 29 23  1  0  0  0  0
 30 24  1  0  0  0  0
 31 32  1  0  0  0  0
 31 35  2  0  0  0  0
 32 33  2  0  0  0  0
 33 34  1  0  0  0  0
 33 37  1  0  0  0  0
 34 38  1  0  0  0  0
 35 34  1  0  0  0  0
 36 32  1  0  0  0  0
M  END
>  <minimizedAffinity>
-5.79895592

$$$$

 OpenBabel03272509103D

 38 41  0  0  0  0  0  0  0  0999 V2000
   36.1970   28.4280   34.6310 C   0  0  0  0  0  0  0  0  0  0  0  0
   36.0550   28.9420   35.5780 H   0  0  0  0  0  0  0  0  0  0  0  0
   35.4170   27.5980   34.6400 H   0  0  0  0  0  0  0  0  0  0  0  0
   35.8530   29.2160   33.4190 C   0  0  0  0  0  0  0  0  0  0  0  0
   36.2430   28.8150   32.1420 C   0  0  0  0  0  0  0  0  0  0  0  0
   35.9390   29.5430   31.0270 C   0  0  0  0  0  0  0  0  0  0  0  0
   35.2250   30.7150   31.1340 C   0  0  0  0  0  0  0  0  0  0  0  0
   34.8460   31.1050   32.3710 C   0  0  0  0  0  0  0  0  0  0  0  0
   35.1350   30.3940   33.5270 C   0  0  0  0  0  0  0  0  0  0  0  0
   36.8040   27.8850   32.1030 H   0  0  0  0  0  0  0  0  0  0  0  0
   36.2960   29.1270   30.1130 H   0  0  0  0  0  0  0  0  0  0  0  0
   35.0140   31.2500   30.2200 H   0  0  0  0  0  0  0  0  0  0  0  0
   34.2920   32.0320   32.3660 H   0  0  0  0  0  0  0  0  0  0  0  0
   34.6740   30.8990   34.8250 C   0  0  0  0  0  0  0  0  0  0  0  0
   33.3590   30.6530   35.2780 C   0  0  0  0  0  0  0  0  0  0  0  0
   32.4600   30.0430   34.7380 H   0  0  0  0  0  0  0  0  0  0  0  0
   33.3030   31.4940   36.9380 S   0  0  0  0  0  0  0  0  0  0  0  0
   35.1040   32.0380   36.7150 C   0  0  0  0  0  0  0  0  0  0  0  0
   35.6440   32.6390   37.4930 H   0  0  0  0  0  0  0  0  0  0  0  0
   35.3040   31.5950   35.7220 N   0  0  0  0  0  0  0  0  0  0  0  0
   37.6950   26.4700   34.9050 C   0  0  0  0  0  3  0  0  0  0  0  0
   37.4820   27.7130   34.5410 C   0  0  0  0  0  3  0  0  0  0  0  0
   41.1160   25.8730   33.7800 C   0  0  0  0  0  0  0  0  0  0  0  0
   41.4880   24.7660   34.5680 C   0  0  0  0  0  0  0  0  0  0  0  0
   40.5390   24.2540   35.4720 C   0  0  0  0  0  0  0  0  0  0  0  0
   39.3070   24.8560   35.5400 N   0  0  0  0  0  0  0  0  0  0  0  0
   39.0220   25.9220   34.7460 C   0  0  0  0  0  0  0  0  0  0  0  0
   39.9090   26.4200   33.8840 N   0  0  0  0  0  0  0  0  0  0  0  0
   41.8940   26.2350   33.0900 H   0  0  0  0  0  0  0  0  0  0  0  0
   42.4510   24.2730   34.5340 H   0  0  0  0  0  0  0  0  0  0  0  0
   40.8010   23.1010   36.3460 C   0  0  0  0  0  0  0  0  0  0  0  0
   41.8520   22.2440   36.1490 C   0  0  0  0  0  0  0  0  0  0  0  0
   41.7910   21.2760   37.1640 C   0  0  0  0  0  0  0  0  0  0  0  0
   40.7050   21.5910   37.9290 N   0  0  0  0  0  0  0  0  0  0  0  0
   40.1280   22.6840   37.4250 N   0  0  0  0  0  0  0  0  0  0  0  0
   42.6400   22.2310   35.3810 H   0  0  0  0  0  0  0  0  0  0  0  0
   42.4850   20.4620   37.2770 H   0  0  0  0  0  0  0  0  0  0  0  0
   40.4350   21.0180   38.7600 H   0  0  0  0  0  0  0  0  0  0  0  0
  1  3  1  0  0  0  0
  1  2  1  0  0  0  0
  4  9  1  0  0  0  0
  4  1  1  0  0  0  0
  5  4  2  0  0  0  0
  6  7  2  0  0  0  0
  6  5  1  0  0  0  0
  7  8  1  0  0  0  0
  8  9  2  0  0  0  0
  9 14  1  0  0  0  0
 10  5  1  0  0  0  0
 11  6  1  0  0  0  0
 12  7  1  0  0  0  0
 13  8  1  0  0  0  0
 14 15  2  0  0  0  0
 14 20  1  0  0  0  0
 15 17  1  0  0  0  0
 16 15  1  0  0  0  0
 18 17  1  0  0  0  0
 18 19  1  0  0  0  0
 20 18  2  0  0  0  0
 22  1  1  0  0  0  0
 22 21  2  0  0  0  0
 23 28  2  0  0  0  0
 23 24  1  0  0  0  0
 24 25  2  0  0  0  0
 25 26  1  0  0  0  0
 25 31  1  0  0  0  0
 27 21  1  0  0  0  0
 27 26  2  0  0  0  0
 28 27  1  0  0  0  0
 29 23  1  0  0  0  0
 30 24  1  0  0  0  0
 31 35  2  0  0  0  0
 32 31  1  0  0  0  0
 32 33  2  0  0  0  0
 33 37  1  0  0  0  0
 33 34  1  0  0  0  0
 34 38  1  0  0  0  0
 35 34  1  0  0  0  0
 36 32  1  0  0  0  0
M  END
>  <minimizedAffinity>
-5.77051067

$$$$

 OpenBabel03272509103D

 38 41  0  0  0  0  0  0  0  0999 V2000
   36.6960   22.7470   31.0840 C   0  0  0  0  0  0  0  0  0  0  0  0
   37.3840   22.8460   30.2490 H   0  0  0  0  0  0  0  0  0  0  0  0
   35.7450   23.2650   30.7310 H   0  0  0  0  0  0  0  0  0  0  0  0
   36.2480   21.3610   31.3800 C   0  0  0  0  0  0  0  0  0  0  0  0
   34.9940   21.0910   31.9280 C   0  0  0  0  0  0  0  0  0  0  0  0
   34.5840   19.8210   32.2120 C   0  0  0  0  0  0  0  0  0  0  0  0
   35.4110   18.7480   31.9610 C   0  0  0  0  0  0  0  0  0  0  0  0
   36.6250   19.0080   31.4290 C   0  0  0  0  0  0  0  0  0  0  0  0
   37.0790   20.2840   31.1260 C   0  0  0  0  0  0  0  0  0  0  0  0
   34.3740   21.9640   32.1110 H   0  0  0  0  0  0  0  0  0  0  0  0
   33.6050   19.7510   32.6280 H   0  0  0  0  0  0  0  0  0  0  0  0
   35.0350   17.7660   32.2060 H   0  0  0  0  0  0  0  0  0  0  0  0
   37.2090   18.1140   31.2630 H   0  0  0  0  0  0  0  0  0  0  0  0
   38.4140   20.4620   30.5450 C   0  0  0  0  0  0  0  0  0  0  0  0
   39.5640   20.5140   31.3640 C   0  0  0  0  0  0  0  0  0  0  0  0
   39.6550   20.4290   32.5710 H   0  0  0  0  0  0  0  0  0  0  0  0
   40.9560   20.7470   30.1500 S   0  0  0  0  0  0  0  0  0  0  0  0
   39.7060   20.7340   28.7260 C   0  0  0  0  0  0  0  0  0  0  0  0
   40.0230   20.8490   27.6560 H   0  0  0  0  0  0  0  0  0  0  0  0
   38.7750   20.5950   29.3050 N   0  0  0  0  0  0  0  0  0  0  0  0
   36.9940   24.8140   32.4210 C   0  0  0  0  0  3  0  0  0  0  0  0
   37.1040   23.5150   32.2730 C   0  0  0  0  0  3  0  0  0  0  0  0
   37.7990   27.2090   35.0560 C   0  0  0  0  0  0  0  0  0  0  0  0
   38.3440   26.3710   36.0490 C   0  0  0  0  0  0  0  0  0  0  0  0
   38.4170   24.9920   35.7770 C   0  0  0  0  0  0  0  0  0  0  0  0
   37.9580   24.5370   34.5680 N   0  0  0  0  0  0  0  0  0  0  0  0
   37.4450   25.4090   33.6590 C   0  0  0  0  0  0  0  0  0  0  0  0
   37.3670   26.7170   33.8990 N   0  0  0  0  0  0  0  0  0  0  0  0
   37.7640   28.2780   35.3180 H   0  0  0  0  0  0  0  0  0  0  0  0
   38.7140   26.7030   37.0100 H   0  0  0  0  0  0  0  0  0  0  0  0
   38.9680   24.0130   36.7270 C   0  0  0  0  0  0  0  0  0  0  0  0
   40.0860   23.2670   36.4590 C   0  0  0  0  0  0  0  0  0  0  0  0
   40.3160   22.4520   37.5780 C   0  0  0  0  0  0  0  0  0  0  0  0
   39.3270   22.7420   38.4730 N   0  0  0  0  0  0  0  0  0  0  0  0
   38.5320   23.6760   37.9470 N   0  0  0  0  0  0  0  0  0  0  0  0
   40.7420   23.2390   35.5760 H   0  0  0  0  0  0  0  0  0  0  0  0
   41.1260   21.7500   37.6700 H   0  0  0  0  0  0  0  0  0  0  0  0
   39.2690   22.2650   39.4010 H   0  0  0  0  0  0  0  0  0  0  0  0
  1  4  1  0  0  0  0
  1 22  1  0  0  0  0
  2  1  1  0  0  0  0
  3  1  1  0  0  0  0
  4  5  1  0  0  0  0
  5 10  1  0  0  0  0
  5  6  2  0  0  0  0
  6 11  1  0  0  0  0
  7 12  1  0  0  0  0
  7  6  1  0  0  0  0
  8  7  2  0  0  0  0
  9  4  2  0  0  0  0
  9  8  1  0  0  0  0
 13  8  1  0  0  0  0
 14  9  1  0  0  0  0
 14 15  2  0  0  0  0
 15 16  1  0  0  0  0
 17 15  1  0  0  0  0
 18 20  2  0  0  0  0
 18 17  1  0  0  0  0
 19 18  1  0  0  0  0
 20 14  1  0  0  0  0
 21 27  1  0  0  0  0
 22 21  2  0  0  0  0
 23 29  1  0  0  0  0
 23 24  1  0  0  0  0
 24 30  1  0  0  0  0
 25 24  2  0  0  0  0
 25 31  1  0  0  0  0
 26 25  1  0  0  0  0
 27 28  1  0  0  0  0
 27 26  2  0  0  0  0
 28 23  2  0  0  0  0
 31 35  2  0  0  0  0
 32 31  1  0  0  0  0
 32 33  2  0  0  0  0
 33 37  1  0  0  0  0
 33 34  1  0  0  0  0
 34 38  1  0  0  0  0
 35 34  1  0  0  0  0
 36 32  1  0  0  0  0
M  END
>  <minimizedAffinity>
-5.76274395

$$$$

 OpenBabel03272509103D

 38 41  0  0  0  0  0  0  0  0999 V2000
   37.5320   26.1840   33.5520 C   0  0  0  0  0  0  0  0  0  0  0  0
   37.2370   25.4890   32.7700 H   0  0  0  0  0  0  0  0  0  0  0  0
   37.1380   25.7150   34.5120 H   0  0  0  0  0  0  0  0  0  0  0  0
   38.9950   26.2900   33.7920 C   0  0  0  0  0  0  0  0  0  0  0  0
   39.7920   27.2080   33.1080 C   0  0  0  0  0  0  0  0  0  0  0  0
   41.1370   27.3000   33.3170 C   0  0  0  0  0  0  0  0  0  0  0  0
   41.7590   26.4730   34.2260 C   0  0  0  0  0  0  0  0  0  0  0  0
   40.9890   25.5830   34.8890 C   0  0  0  0  0  0  0  0  0  0  0  0
   39.6190   25.4590   34.7060 C   0  0  0  0  0  0  0  0  0  0  0  0
   39.2610   27.8400   32.4010 H   0  0  0  0  0  0  0  0  0  0  0  0
   41.6290   28.0420   32.7310 H   0  0  0  0  0  0  0  0  0  0  0  0
   42.8260   26.5890   34.3500 H   0  0  0  0  0  0  0  0  0  0  0  0
   41.5540   24.9760   35.5810 H   0  0  0  0  0  0  0  0  0  0  0  0
   38.8690   24.4640   35.4790 C   0  0  0  0  0  0  0  0  0  0  0  0
   38.2630   24.8020   36.7100 C   0  0  0  0  0  0  0  0  0  0  0  0
   38.2490   25.8640   37.2950 H   0  0  0  0  0  0  0  0  0  0  0  0
   37.4630   23.2110   37.2550 S   0  0  0  0  0  0  0  0  0  0  0  0
   38.1070   22.3590   35.6900 C   0  0  0  0  0  0  0  0  0  0  0  0
   37.9010   21.2780   35.4750 H   0  0  0  0  0  0  0  0  0  0  0  0
   38.6350   23.2120   35.2250 N   0  0  0  0  0  0  0  0  0  0  0  0
   36.2230   27.9600   32.4190 C   0  0  0  0  0  3  0  0  0  0  0  0
   36.8380   27.4810   33.4740 C   0  0  0  0  0  3  0  0  0  0  0  0
   34.6510   31.1510   31.5970 C   0  0  0  0  0  0  0  0  0  0  0  0
   34.4050   31.6870   32.8770 C   0  0  0  0  0  0  0  0  0  0  0  0
   34.7920   30.9250   33.9940 C   0  0  0  0  0  0  0  0  0  0  0  0
   35.3840   29.7050   33.7830 N   0  0  0  0  0  0  0  0  0  0  0  0
   35.5890   29.2550   32.5170 C   0  0  0  0  0  0  0  0  0  0  0  0
   35.2300   29.9630   31.4460 N   0  0  0  0  0  0  0  0  0  0  0  0
   34.3300   31.7860   30.7570 H   0  0  0  0  0  0  0  0  0  0  0  0
   33.9400   32.6450   33.0720 H   0  0  0  0  0  0  0  0  0  0  0  0
   34.5940   31.3730   35.3810 C   0  0  0  0  0  0  0  0  0  0  0  0
   33.3690   31.3680   35.9950 C   0  0  0  0  0  0  0  0  0  0  0  0
   33.5590   31.8550   37.2990 C   0  0  0  0  0  0  0  0  0  0  0  0
   34.8910   32.1330   37.4140 N   0  0  0  0  0  0  0  0  0  0  0  0
   35.4920   31.8380   36.2590 N   0  0  0  0  0  0  0  0  0  0  0  0
   32.3780   31.0630   35.6290 H   0  0  0  0  0  0  0  0  0  0  0  0
   32.7790   31.9700   38.0290 H   0  0  0  0  0  0  0  0  0  0  0  0
   35.2970   32.5130   38.2980 H   0  0  0  0  0  0  0  0  0  0  0  0
  1  4  1  0  0  0  0
  1  3  1  0  0  0  0
  2  1  1  0  0  0  0
  4  9  1  0  0  0  0
  5  6  1  0  0  0  0
  5  4  2  0  0  0  0
  6  7  2  0  0  0  0
  7 12  1  0  0  0  0
  7  8  1  0  0  0  0
  8 13  1  0  0  0  0
  9  8  2  0  0  0  0
  9 14  1  0  0  0  0
 10  5  1  0  0  0  0
 11  6  1  0  0  0  0
 14 15  2  0  0  0  0
 15 17  1  0  0  0  0
 15 16  1  0  0  0  0
 18 17  1  0  0  0  0
 19 18  1  0  0  0  0
 20 14  1  0  0  0  0
 20 18  2  0  0  0  0
 21 27  1  0  0  0  0
 21 22  2  0  0  0  0
 22  1  1  0  0  0  0
 23 24  1  0  0  0  0
 24 30  1  0  0  0  0
 24 25  2  0  0  0  0
 25 31  1  0  0  0  0
 26 25  1  0  0  0  0
 27 26  2  0  0  0  0
 28 23  2  0  0  0  0
 28 27  1  0  0  0  0
 29 23  1  0  0  0  0
 31 32  1  0  0  0  0
 31 35  2  0  0  0  0
 32 33  2  0  0  0  0
 33 34  1  0  0  0  0
 33 37  1  0  0  0  0
 34 38  1  0  0  0  0
 35 34  1  0  0  0  0
 36 32  1  0  0  0  0
M  END
>  <minimizedAffinity>
-5.73224974

$$$$

 OpenBabel03272509103D

 38 41  0  0  0  0  0  0  0  0999 V2000
   35.5270   29.7560   34.0090 C   0  0  0  0  0  0  0  0  0  0  0  0
   35.7770   30.2800   34.9280 H   0  0  0  0  0  0  0  0  0  0  0  0
   34.3950   29.6380   34.0490 H   0  0  0  0  0  0  0  0  0  0  0  0
   35.7520   30.5240   32.7560 C   0  0  0  0  0  0  0  0  0  0  0  0
   35.9730   29.8920   31.5320 C   0  0  0  0  0  0  0  0  0  0  0  0
   36.1920   30.5940   30.3820 C   0  0  0  0  0  0  0  0  0  0  0  0
   36.2010   31.9700   30.3960 C   0  0  0  0  0  0  0  0  0  0  0  0
   35.9860   32.5840   31.5810 C   0  0  0  0  0  0  0  0  0  0  0  0
   35.7600   31.9080   32.7710 C   0  0  0  0  0  0  0  0  0  0  0  0
   35.9590   28.8060   31.5660 H   0  0  0  0  0  0  0  0  0  0  0  0
   36.3480   29.9910   29.5160 H   0  0  0  0  0  0  0  0  0  0  0  0
   36.3800   32.4740   29.4570 H   0  0  0  0  0  0  0  0  0  0  0  0
   36.0090   33.6610   31.5040 H   0  0  0  0  0  0  0  0  0  0  0  0
   35.5320   32.6650   34.0060 C   0  0  0  0  0  0  0  0  0  0  0  0
   34.2240   32.9760   34.4400 C   0  0  0  0  0  0  0  0  0  0  0  0
   33.1580   32.7020   33.9300 H   0  0  0  0  0  0  0  0  0  0  0  0
   34.5000   33.9250   36.0190 S   0  0  0  0  0  0  0  0  0  0  0  0
   36.3720   33.7280   35.8000 C   0  0  0  0  0  0  0  0  0  0  0  0
   37.1040   34.1500   36.5380 H   0  0  0  0  0  0  0  0  0  0  0  0
   36.3840   33.1530   34.8560 N   0  0  0  0  0  0  0  0  0  0  0  0
   37.0390   27.9040   34.6660 C   0  0  0  0  0  3  0  0  0  0  0  0
   36.0330   28.3730   33.9680 C   0  0  0  0  0  3  0  0  0  0  0  0
   37.7260   24.6160   33.2360 C   0  0  0  0  0  0  0  0  0  0  0  0
   38.1190   23.8840   34.3740 C   0  0  0  0  0  0  0  0  0  0  0  0
   38.1360   24.5540   35.6120 C   0  0  0  0  0  0  0  0  0  0  0  0
   37.7720   25.8760   35.6470 N   0  0  0  0  0  0  0  0  0  0  0  0
   37.4030   26.5140   34.5050 C   0  0  0  0  0  0  0  0  0  0  0  0
   37.3820   25.8970   33.3240 N   0  0  0  0  0  0  0  0  0  0  0  0
   37.7310   24.0470   32.2930 H   0  0  0  0  0  0  0  0  0  0  0  0
   38.4110   22.8420   34.3750 H   0  0  0  0  0  0  0  0  0  0  0  0
   38.5220   23.9030   36.8730 C   0  0  0  0  0  0  0  0  0  0  0  0
   38.0380   24.3010   38.0920 C   0  0  0  0  0  0  0  0  0  0  0  0
   38.6150   23.4630   39.0590 C   0  0  0  0  0  0  0  0  0  0  0  0
   39.4220   22.5950   38.3810 N   0  0  0  0  0  0  0  0  0  0  0  0
   39.3530   22.8740   37.0780 N   0  0  0  0  0  0  0  0  0  0  0  0
   37.3350   25.1030   38.3640 H   0  0  0  0  0  0  0  0  0  0  0  0
   38.4290   23.5280   40.1160 H   0  0  0  0  0  0  0  0  0  0  0  0
   39.9740   21.8590   38.8760 H   0  0  0  0  0  0  0  0  0  0  0  0
  1  3  1  0  0  0  0
  1  2  1  0  0  0  0
  4  9  1  0  0  0  0
  4  1  1  0  0  0  0
  5 10  1  0  0  0  0
  5  4  2  0  0  0  0
  6  7  2  0  0  0  0
  6  5  1  0  0  0  0
  7  8  1  0  0  0  0
  8  9  2  0  0  0  0
  9 14  1  0  0  0  0
 11  6  1  0  0  0  0
 12  7  1  0  0  0  0
 13  8  1  0  0  0  0
 14 15  2  0  0  0  0
 14 20  1  0  0  0  0
 15 17  1  0  0  0  0
 16 15  1  0  0  0  0
 18 17  1  0  0  0  0
 18 19  1  0  0  0  0
 20 18  2  0  0  0  0
 22  1  1  0  0  0  0
 22 21  2  0  0  0  0
 23 28  2  0  0  0  0
 23 24  1  0  0  0  0
 24 30  1  0  0  0  0
 24 25  2  0  0  0  0
 25 26  1  0  0  0  0
 25 31  1  0  0  0  0
 27 21  1  0  0  0  0
 27 26  2  0  0  0  0
 28 27  1  0  0  0  0
 29 23  1  0  0  0  0
 31 35  2  0  0  0  0
 31 32  1  0  0  0  0
 32 36  1  0  0  0  0
 32 33  2  0  0  0  0
 33 37  1  0  0  0  0
 34 38  1  0  0  0  0
 34 33  1  0  0  0  0
 35 34  1  0  0  0  0
M  END
>  <minimizedAffinity>
-5.70493126

$$$$

 OpenBabel03272509103D

 38 41  0  0  0  0  0  0  0  0999 V2000
   38.9040   24.9400   34.2570 C   0  0  0  0  0  0  0  0  0  0  0  0
   39.8790   25.2700   33.9110 H   0  0  0  0  0  0  0  0  0  0  0  0
   38.6600   24.0410   33.6010 H   0  0  0  0  0  0  0  0  0  0  0  0
   38.8710   24.3840   35.6340 C   0  0  0  0  0  0  0  0  0  0  0  0
   37.9730   24.8450   36.5970 C   0  0  0  0  0  0  0  0  0  0  0  0
   37.9480   24.3450   37.8670 C   0  0  0  0  0  0  0  0  0  0  0  0
   38.8250   23.3520   38.2420 C   0  0  0  0  0  0  0  0  0  0  0  0
   39.6950   22.9030   37.3110 C   0  0  0  0  0  0  0  0  0  0  0  0
   39.7520   23.3840   36.0100 C   0  0  0  0  0  0  0  0  0  0  0  0
   37.3000   25.6290   36.2590 H   0  0  0  0  0  0  0  0  0  0  0  0
   37.2150   24.7840   38.5030 H   0  0  0  0  0  0  0  0  0  0  0  0
   38.7610   22.9940   39.2590 H   0  0  0  0  0  0  0  0  0  0  0  0
   40.3450   22.1250   37.6860 H   0  0  0  0  0  0  0  0  0  0  0  0
   40.7310   22.8280   35.0710 C   0  0  0  0  0  0  0  0  0  0  0  0
   42.0500   23.3280   35.0110 C   0  0  0  0  0  0  0  0  0  0  0  0
   42.5670   24.2150   35.6570 H   0  0  0  0  0  0  0  0  0  0  0  0
   42.8510   22.2950   33.6850 S   0  0  0  0  0  0  0  0  0  0  0  0
   41.2230   21.3560   33.4440 C   0  0  0  0  0  0  0  0  0  0  0  0
   41.1190   20.5310   32.6910 H   0  0  0  0  0  0  0  0  0  0  0  0
   40.6030   21.8730   34.2000 N   0  0  0  0  0  0  0  0  0  0  0  0
   37.9340   27.2070   33.9910 C   0  0  0  0  0  3  0  0  0  0  0  0
   37.8250   25.9000   33.9680 C   0  0  0  0  0  3  0  0  0  0  0  0
   35.0230   28.6290   32.3080 C   0  0  0  0  0  0  0  0  0  0  0  0
   34.5920   29.5900   33.2430 C   0  0  0  0  0  0  0  0  0  0  0  0
   35.3250   29.7190   34.4370 C   0  0  0  0  0  0  0  0  0  0  0  0
   36.4150   28.9080   34.6290 N   0  0  0  0  0  0  0  0  0  0  0  0
   36.7690   28.0030   33.6780 C   0  0  0  0  0  0  0  0  0  0  0  0
   36.0870   27.8660   32.5420 N   0  0  0  0  0  0  0  0  0  0  0  0
   34.4160   28.5670   31.3910 H   0  0  0  0  0  0  0  0  0  0  0  0
   33.7370   30.2420   33.1170 H   0  0  0  0  0  0  0  0  0  0  0  0
   34.9820   30.6870   35.4910 C   0  0  0  0  0  0  0  0  0  0  0  0
   33.6890   30.9540   35.8600 C   0  0  0  0  0  0  0  0  0  0  0  0
   33.7420   31.9150   36.8830 C   0  0  0  0  0  0  0  0  0  0  0  0
   35.0650   32.1850   37.0860 N   0  0  0  0  0  0  0  0  0  0  0  0
   35.7890   31.4420   36.2450 N   0  0  0  0  0  0  0  0  0  0  0  0
   32.7340   30.5510   35.4920 H   0  0  0  0  0  0  0  0  0  0  0  0
   32.8840   32.3290   37.3800 H   0  0  0  0  0  0  0  0  0  0  0  0
   35.3800   32.8760   37.8030 H   0  0  0  0  0  0  0  0  0  0  0  0
  1  4  1  0  0  0  0
  2  1  1  0  0  0  0
  3  1  1  0  0  0  0
  4  9  2  0  0  0  0
  4  5  1  0  0  0  0
  5  6  2  0  0  0  0
  6  7  1  0  0  0  0
  6 11  1  0  0  0  0
  7 12  1  0  0  0  0
  8 13  1  0  0  0  0
  8  7  2  0  0  0  0
  9  8  1  0  0  0  0
 10  5  1  0  0  0  0
 14  9  1  0  0  0  0
 15 14  2  0  0  0  0
 15 16  1  0  0  0  0
 17 15  1  0  0  0  0
 18 17  1  0  0  0  0
 18 20  2  0  0  0  0
 19 18  1  0  0  0  0
 20 14  1  0  0  0  0
 22 21  2  0  0  0  0
 22  1  1  0  0  0  0
 23 28  2  0  0  0  0
 23 24  1  0  0  0  0
 24 25  2  0  0  0  0
 25 26  1  0  0  0  0
 25 31  1  0  0  0  0
 27 21  1  0  0  0  0
 27 26  2  0  0  0  0
 28 27  1  0  0  0  0
 29 23  1  0  0  0  0
 30 24  1  0  0  0  0
 31 32  1  0  0  0  0
 31 35  2  0  0  0  0
 32 33  2  0  0  0  0
 33 34  1  0  0  0  0
 33 37  1  0  0  0  0
 34 38  1  0  0  0  0
 35 34  1  0  0  0  0
 36 32  1  0  0  0  0
M  END
>  <minimizedAffinity>
-5.6553936

$$$$

 OpenBabel03272509103D

 38 41  0  0  0  0  0  0  0  0999 V2000
   35.8580   27.0540   31.6310 C   0  0  0  0  0  0  0  0  0  0  0  0
   34.9550   27.0910   32.2340 H   0  0  0  0  0  0  0  0  0  0  0  0
   35.5820   26.3900   30.7480 H   0  0  0  0  0  0  0  0  0  0  0  0
   36.2510   28.3370   30.9920 C   0  0  0  0  0  0  0  0  0  0  0  0
   37.1510   28.3880   29.9280 C   0  0  0  0  0  0  0  0  0  0  0  0
   37.5230   29.5650   29.3470 C   0  0  0  0  0  0  0  0  0  0  0  0
   37.0110   30.7600   29.8020 C   0  0  0  0  0  0  0  0  0  0  0  0
   36.1390   30.7130   30.8330 C   0  0  0  0  0  0  0  0  0  0  0  0
   35.7350   29.5370   31.4500 C   0  0  0  0  0  0  0  0  0  0  0  0
   37.5300   27.4240   29.6000 H   0  0  0  0  0  0  0  0  0  0  0  0
   38.2170   29.4650   28.5440 H   0  0  0  0  0  0  0  0  0  0  0  0
   37.3410   31.6610   29.3050 H   0  0  0  0  0  0  0  0  0  0  0  0
   35.7860   31.6910   31.1270 H   0  0  0  0  0  0  0  0  0  0  0  0
   34.7780   29.5910   32.5600 C   0  0  0  0  0  0  0  0  0  0  0  0
   35.2050   29.8680   33.8780 C   0  0  0  0  0  0  0  0  0  0  0  0
   36.3210   30.0920   34.2950 H   0  0  0  0  0  0  0  0  0  0  0  0
   33.6290   29.8160   34.8690 S   0  0  0  0  0  0  0  0  0  0  0  0
   32.6580   29.4180   33.2900 C   0  0  0  0  0  0  0  0  0  0  0  0
   31.5470   29.2670   33.2980 H   0  0  0  0  0  0  0  0  0  0  0  0
   33.4910   29.4130   32.5630 N   0  0  0  0  0  0  0  0  0  0  0  0
   37.7860   26.8470   33.1770 C   0  0  0  0  0  3  0  0  0  0  0  0
   36.9690   26.3410   32.2850 C   0  0  0  0  0  3  0  0  0  0  0  0
   40.9250   25.0490   33.6680 C   0  0  0  0  0  0  0  0  0  0  0  0
   40.6800   24.3700   34.8780 C   0  0  0  0  0  0  0  0  0  0  0  0
   39.4290   24.5560   35.4940 C   0  0  0  0  0  0  0  0  0  0  0  0
   38.5160   25.3830   34.8900 N   0  0  0  0  0  0  0  0  0  0  0  0
   38.8260   26.0030   33.7200 C   0  0  0  0  0  0  0  0  0  0  0  0
   40.0060   25.8400   33.1220 N   0  0  0  0  0  0  0  0  0  0  0  0
   41.9180   24.8710   33.2270 H   0  0  0  0  0  0  0  0  0  0  0  0
   41.3810   23.7130   35.3760 H   0  0  0  0  0  0  0  0  0  0  0  0
   39.0480   23.9020   36.7560 C   0  0  0  0  0  0  0  0  0  0  0  0
   37.8790   24.1820   37.4130 C   0  0  0  0  0  0  0  0  0  0  0  0
   37.8510   23.3790   38.5650 C   0  0  0  0  0  0  0  0  0  0  0  0
   39.0050   22.6490   38.5510 N   0  0  0  0  0  0  0  0  0  0  0  0
   39.7060   22.9750   37.4630 N   0  0  0  0  0  0  0  0  0  0  0  0
   37.0620   24.8780   37.1710 H   0  0  0  0  0  0  0  0  0  0  0  0
   37.0560   23.3730   39.2890 H   0  0  0  0  0  0  0  0  0  0  0  0
   39.2300   21.9650   39.3090 H   0  0  0  0  0  0  0  0  0  0  0  0
  1  2  1  0  0  0  0
  1 22  1  0  0  0  0
  3  1  1  0  0  0  0
  4  9  1  0  0  0  0
  4  1  1  0  0  0  0
  5  4  2  0  0  0  0
  6  7  2  0  0  0  0
  6  5  1  0  0  0  0
  7  8  1  0  0  0  0
  8 13  1  0  0  0  0
  8  9  2  0  0  0  0
  9 14  1  0  0  0  0
 10  5  1  0  0  0  0
 11  6  1  0  0  0  0
 12  7  1  0  0  0  0
 14 20  1  0  0  0  0
 14 15  2  0  0  0  0
 15 16  1  0  0  0  0
 15 17  1  0  0  0  0
 18 19  1  0  0  0  0
 18 17  1  0  0  0  0
 20 18  2  0  0  0  0
 21 27  1  0  0  0  0
 22 21  2  0  0  0  0
 23 24  1  0  0  0  0
 24 30  1  0  0  0  0
 24 25  2  0  0  0  0
 25 31  1  0  0  0  0
 26 25  1  0  0  0  0
 27 26  2  0  0  0  0
 28 23  2  0  0  0  0
 28 27  1  0  0  0  0
 29 23  1  0  0  0  0
 31 32  1  0  0  0  0
 31 35  2  0  0  0  0
 32 33  2  0  0  0  0
 33 37  1  0  0  0  0
 34 33  1  0  0  0  0
 34 38  1  0  0  0  0
 35 34  1  0  0  0  0
 36 32  1  0  0  0  0
M  END
>  <minimizedAffinity>
-5.63127851

$$$$
