
 OpenBabel03272509343D

 39 43  0  0  1  0  0  0  0  0999 V2000
   37.5770   30.4300   43.7360 C   0  0  1  0  0  0  0  0  0  0  0  0
   38.8920   31.0140   44.0490 C   0  0  0  0  0  0  0  0  0  0  0  0
   38.8270   29.5330   43.9550 C   0  0  2  0  0  0  0  0  0  0  0  0
   37.2390   30.3570   42.7160 H   0  0  0  0  0  0  0  0  0  0  0  0
   38.9800   31.3930   45.1150 H   0  0  0  0  0  0  0  0  0  0  0  0
   39.2040   31.7440   43.3260 H   0  0  0  0  0  0  0  0  0  0  0  0
   38.5720   28.7440   44.6360 H   0  0  0  0  0  0  0  0  0  0  0  0
   39.5800   29.0510   42.7660 C   0  0  0  0  0  0  0  0  0  0  0  0
   40.6460   29.9100   42.4810 C   0  0  0  0  0  0  0  0  0  0  0  0
   41.5420   29.6250   41.4720 C   0  0  0  0  0  0  0  0  0  0  0  0
   41.4030   28.4680   40.7120 C   0  0  0  0  0  0  0  0  0  0  0  0
   40.3480   27.6370   41.0120 C   0  0  0  0  0  0  0  0  0  0  0  0
   40.0910   26.4650   40.3300 C   0  0  0  0  0  0  0  0  0  0  0  0
   39.0280   25.6300   40.6170 C   0  0  0  0  0  0  0  0  0  0  0  0
   38.1640   25.9730   41.6440 C   0  0  0  0  0  0  0  0  0  0  0  0
   38.4090   27.1400   42.3320 C   0  0  0  0  0  0  0  0  0  0  0  0
   39.4760   27.9400   42.0140 C   0  0  0  0  0  0  0  0  0  0  0  0
   41.0370   30.8300   42.8650 H   0  0  0  0  0  0  0  0  0  0  0  0
   42.4030   30.1700   41.1250 H   0  0  0  0  0  0  0  0  0  0  0  0
   42.0070   28.0950   39.8930 H   0  0  0  0  0  0  0  0  0  0  0  0
   40.7600   26.1780   39.5200 H   0  0  0  0  0  0  0  0  0  0  0  0
   38.8560   24.7130   40.0590 H   0  0  0  0  0  0  0  0  0  0  0  0
   37.3130   25.3690   41.9240 H   0  0  0  0  0  0  0  0  0  0  0  0
   37.7060   27.3920   43.1460 H   0  0  0  0  0  0  0  0  0  0  0  0
   34.3190   29.9440   45.5700 C   0  0  0  0  0  0  0  0  0  0  0  0
   35.2620   30.0440   44.5080 C   0  0  0  0  0  0  0  0  0  0  0  0
   36.5750   30.3070   44.8140 C   0  0  0  0  0  0  0  0  0  0  0  0
   36.8720   30.4510   46.1310 N   0  0  0  0  0  0  0  0  0  0  0  0
   35.9820   30.3560   47.1320 C   0  0  0  0  0  0  0  0  0  0  0  0
   34.6810   30.0970   46.8470 N   0  0  0  0  0  0  0  0  0  0  0  0
   33.2920   29.7350   45.3060 H   0  0  0  0  0  0  0  0  0  0  0  0
   34.9030   29.9090   43.4900 H   0  0  0  0  0  0  0  0  0  0  0  0
   36.5210   30.5480   48.4970 C   0  0  0  0  0  0  0  0  0  0  0  0
   37.7600   31.1250   48.4510 C   0  0  0  0  0  0  0  0  0  0  0  0
   38.4970   31.4980   47.7190 H   0  0  0  0  0  0  0  0  0  0  0  0
   38.2820   31.2930   50.2100 S   0  0  0  0  0  0  0  0  0  0  0  0
   36.6290   30.5040   50.7330 C   0  0  0  0  0  0  0  0  0  0  0  0
   35.8170   30.0900   51.6230 H   0  0  0  0  0  0  0  0  0  0  0  0
   36.1490   30.3240   49.7350 N   0  0  0  0  0  0  0  0  0  0  0  0
  1  4  1  6  0  0  0
  1  3  1  0  0  0  0
  1  2  1  0  0  0  0
  1 27  1  0  0  0  0
  2  5  1  0  0  0  0
  3  2  1  0  0  0  0
  3  7  1  1  0  0  0
  6  2  1  0  0  0  0
  8  3  1  0  0  0  0
  9  8  1  0  0  0  0
  9 18  1  0  0  0  0
 10  9  2  0  0  0  0
 11 12  2  0  0  0  0
 11 10  1  0  0  0  0
 12 17  1  0  0  0  0
 13 14  2  0  0  0  0
 13 12  1  0  0  0  0
 14 15  1  0  0  0  0
 15 23  1  0  0  0  0
 15 16  2  0  0  0  0
 16 24  1  0  0  0  0
 17 16  1  0  0  0  0
 17  8  2  0  0  0  0
 19 10  1  0  0  0  0
 20 11  1  0  0  0  0
 21 13  1  0  0  0  0
 22 14  1  0  0  0  0
 25 30  1  0  0  0  0
 26 27  1  0  0  0  0
 26 25  2  0  0  0  0
 27 28  2  0  0  0  0
 28 29  1  0  0  0  0
 29 33  1  0  0  0  0
 30 29  2  0  0  0  0
 31 25  1  0  0  0  0
 32 26  1  0  0  0  0
 33 39  1  0  0  0  0
 34 33  2  0  0  0  0
 34 36  1  0  0  0  0
 35 34  1  0  0  0  0
 36 37  1  0  0  0  0
 37 38  1  0  0  0  0
 39 37  2  0  0  0  0
M  END
>  <minimizedAffinity>
-4.91940737

>  <minimizedRMSD>
5.015872

$$$$
