
 OpenBabel03272506033D

 44 47  0  0  1  0  0  0  0  0999 V2000
   37.8730   26.1510   33.0990 C   0  0  2  0  0  0  0  0  0  0  0  0
   38.9550   25.3630   33.6730 C   0  0  0  0  0  0  0  0  0  0  0  0
   38.7920   25.1660   35.2170 C   0  0  2  0  0  0  0  0  0  0  0  0
   38.7180   26.3970   35.9660 C   0  0  0  0  0  0  0  0  0  0  0  0
   37.9570   27.5120   35.2340 C   0  0  0  0  0  0  0  0  0  0  0  0
   37.0790   26.9260   34.1630 C   0  0  0  0  0  0  0  0  0  0  0  0
   38.2740   26.9840   32.4480 H   0  0  0  0  0  0  0  0  0  0  0  0
   39.9230   25.9710   33.6150 H   0  0  0  0  0  0  0  0  0  0  0  0
   39.2250   24.3890   33.3270 H   0  0  0  0  0  0  0  0  0  0  0  0
   37.9370   24.5060   35.3390 H   0  0  0  0  0  0  0  0  0  0  0  0
   39.6740   26.8320   36.3230 H   0  0  0  0  0  0  0  0  0  0  0  0
   38.1060   26.2190   36.8970 H   0  0  0  0  0  0  0  0  0  0  0  0
   38.7120   28.1340   34.7080 H   0  0  0  0  0  0  0  0  0  0  0  0
   37.3170   28.0820   35.9030 H   0  0  0  0  0  0  0  0  0  0  0  0
   36.4150   26.1750   34.6420 H   0  0  0  0  0  0  0  0  0  0  0  0
   36.4860   27.7290   33.7290 H   0  0  0  0  0  0  0  0  0  0  0  0
   38.3650   22.9190   37.0760 Cl  0  0  0  0  0  0  0  0  0  0  0  0
   39.9510   23.3470   36.4730 C   0  0  0  0  0  0  0  0  0  0  0  0
   40.0190   24.3870   35.5790 C   0  0  0  0  0  0  0  0  0  0  0  0
   41.3070   24.6320   35.1250 C   0  0  0  0  0  0  0  0  0  0  0  0
   42.4020   23.8960   35.5430 C   0  0  0  0  0  0  0  0  0  0  0  0
   42.2470   22.8660   36.4480 C   0  0  0  0  0  0  0  0  0  0  0  0
   40.9790   22.5830   36.9280 C   0  0  0  0  0  0  0  0  0  0  0  0
   41.4040   25.4600   34.4030 H   0  0  0  0  0  0  0  0  0  0  0  0
   43.3750   24.1650   35.1300 H   0  0  0  0  0  0  0  0  0  0  0  0
   43.0990   22.2860   36.7810 H   0  0  0  0  0  0  0  0  0  0  0  0
   40.8140   21.5230   37.8630 N   0  0  0  0  0  0  0  0  0  0  0  0
   41.4570   21.3500   38.6560 H   0  0  0  0  0  0  0  0  0  0  0  0
   39.9600   20.9430   37.6470 H   0  0  0  0  0  0  0  0  0  0  0  0
   36.8960   25.4180   32.3050 C   0  0  0  0  0  0  0  0  0  0  0  0
   35.9540   26.2060   31.6670 C   0  0  0  0  0  0  0  0  0  0  0  0
   34.9970   25.5990   30.8620 C   0  0  0  0  0  0  0  0  0  0  0  0
   35.0270   24.2290   30.7360 N   0  0  0  0  0  0  0  0  0  0  0  0
   35.9510   23.4700   31.3650 C   0  0  0  0  0  0  0  0  0  0  0  0
   36.8510   24.1140   32.1290 N   0  0  0  0  0  0  0  0  0  0  0  0
   35.7000   27.2540   31.5890 H   0  0  0  0  0  0  0  0  0  0  0  0
   34.1830   25.9890   30.2780 H   0  0  0  0  0  0  0  0  0  0  0  0
   36.0450   22.0270   31.2750 C   0  0  0  0  0  0  0  0  0  0  0  0
   35.1350   21.6210   32.3390 C   0  0  0  0  0  0  0  0  0  0  0  0
   34.3470   21.8130   33.2490 H   0  0  0  0  0  0  0  0  0  0  0  0
   35.1730   19.7050   32.3210 S   0  0  0  0  0  0  0  0  0  0  0  0
   36.4080   19.8440   30.8860 C   0  0  0  0  0  0  0  0  0  0  0  0
   37.1670   19.3510   30.0120 H   0  0  0  0  0  0  0  0  0  0  0  0
   36.5290   20.9520   30.7280 N   0  0  0  0  0  0  0  0  0  0  0  0
  1  7  1  6  0  0  0
  1  2  1  0  0  0  0
  1  6  1  0  0  0  0
  2  3  1  0  0  0  0
  3 10  1  1  0  0  0
  3 19  1  0  0  0  0
  3  4  1  0  0  0  0
  4 11  1  0  0  0  0
  4 12  1  0  0  0  0
  5 14  1  0  0  0  0
  5  4  1  0  0  0  0
  6 15  1  0  0  0  0
  6  5  1  0  0  0  0
  8  2  1  0  0  0  0
  9  2  1  0  0  0  0
 13  5  1  0  0  0  0
 16  6  1  0  0  0  0
 18 23  1  0  0  0  0
 18 17  1  0  0  0  0
 19 18  2  0  0  0  0
 20 21  2  0  0  0  0
 20 19  1  0  0  0  0
 21 22  1  0  0  0  0
 22 26  1  0  0  0  0
 22 23  2  0  0  0  0
 23 27  1  0  0  0  0
 24 20  1  0  0  0  0
 25 21  1  0  0  0  0
 27 28  1  0  0  0  0
 29 27  1  0  0  0  0
 30  1  1  0  0  0  0
 31 30  2  0  0  0  0
 32 31  1  0  0  0  0
 33 32  2  0  0  0  0
 33 34  1  0  0  0  0
 34 35  2  0  0  0  0
 35 30  1  0  0  0  0
 36 31  1  0  0  0  0
 37 32  1  0  0  0  0
 38 34  1  0  0  0  0
 38 39  2  0  0  0  0
 39 40  1  0  0  0  0
 41 39  1  0  0  0  0
 42 41  1  0  0  0  0
 43 42  1  0  0  0  0
 44 42  2  0  0  0  0
 44 38  1  0  0  0  0
M  END
>  <minimizedAffinity>
-6.79037952

$$$$

 OpenBabel03272506033D

 44 47  0  0  1  0  0  0  0  0999 V2000
   36.8600   28.4980   33.4650 C   0  0  2  0  0  0  0  0  0  0  0  0
   35.9350   29.0480   34.4490 C   0  0  0  0  0  0  0  0  0  0  0  0
   34.5410   29.3910   33.8270 C   0  0  2  0  0  0  0  0  0  0  0  0
   34.5980   30.3240   32.7280 C   0  0  0  0  0  0  0  0  0  0  0  0
   35.8310   30.1370   31.8310 C   0  0  0  0  0  0  0  0  0  0  0  0
   36.4080   28.7620   32.0200 C   0  0  0  0  0  0  0  0  0  0  0  0
   37.8580   29.0270   33.5030 H   0  0  0  0  0  0  0  0  0  0  0  0
   36.3110   30.0800   34.7690 H   0  0  0  0  0  0  0  0  0  0  0  0
   35.6840   28.5560   35.3630 H   0  0  0  0  0  0  0  0  0  0  0  0
   34.0830   28.4340   33.5890 H   0  0  0  0  0  0  0  0  0  0  0  0
   34.5310   31.4040   32.9740 H   0  0  0  0  0  0  0  0  0  0  0  0
   33.7280   30.1230   32.0360 H   0  0  0  0  0  0  0  0  0  0  0  0
   36.6050   30.8490   32.1870 H   0  0  0  0  0  0  0  0  0  0  0  0
   35.5930   30.2480   30.7760 H   0  0  0  0  0  0  0  0  0  0  0  0
   35.5990   28.0250   31.8240 H   0  0  0  0  0  0  0  0  0  0  0  0
   37.2180   28.6300   31.3060 H   0  0  0  0  0  0  0  0  0  0  0  0
   35.8390   31.6870   35.1390 Cl  0  0  0  0  0  0  0  0  0  0  0  0
   34.3280   31.0140   35.7100 C   0  0  0  0  0  0  0  0  0  0  0  0
   33.7980   29.9720   34.9910 C   0  0  0  0  0  0  0  0  0  0  0  0
   32.5830   29.5260   35.4900 C   0  0  0  0  0  0  0  0  0  0  0  0
   31.9800   30.0860   36.6030 C   0  0  0  0  0  0  0  0  0  0  0  0
   32.5810   31.1330   37.2720 C   0  0  0  0  0  0  0  0  0  0  0  0
   33.7940   31.6120   36.8090 C   0  0  0  0  0  0  0  0  0  0  0  0
   32.1230   28.6890   34.9390 H   0  0  0  0  0  0  0  0  0  0  0  0
   31.0240   29.6670   36.9210 H   0  0  0  0  0  0  0  0  0  0  0  0
   32.1160   31.5750   38.1440 H   0  0  0  0  0  0  0  0  0  0  0  0
   34.4200   32.6900   37.4950 N   0  0  0  0  0  0  0  0  0  0  0  0
   34.4660   32.7660   38.5270 H   0  0  0  0  0  0  0  0  0  0  0  0
   34.8270   33.3950   36.8240 H   0  0  0  0  0  0  0  0  0  0  0  0
   37.1260   27.0700   33.5630 C   0  0  0  0  0  0  0  0  0  0  0  0
   37.0530   26.3800   32.3650 C   0  0  0  0  0  0  0  0  0  0  0  0
   37.3190   25.0160   32.3520 C   0  0  0  0  0  0  0  0  0  0  0  0
   37.6450   24.4050   33.5420 N   0  0  0  0  0  0  0  0  0  0  0  0
   37.7110   25.0890   34.7050 C   0  0  0  0  0  0  0  0  0  0  0  0
   37.4440   26.4050   34.6540 N   0  0  0  0  0  0  0  0  0  0  0  0
   36.8290   26.5890   31.3280 H   0  0  0  0  0  0  0  0  0  0  0  0
   37.3270   24.2820   31.5660 H   0  0  0  0  0  0  0  0  0  0  0  0
   38.0510   24.5130   35.9900 C   0  0  0  0  0  0  0  0  0  0  0  0
   39.1900   23.6770   35.6290 C   0  0  0  0  0  0  0  0  0  0  0  0
   40.0070   23.1990   34.8620 H   0  0  0  0  0  0  0  0  0  0  0  0
   39.7370   22.8490   37.2680 S   0  0  0  0  0  0  0  0  0  0  0  0
   38.3200   23.7960   38.1040 C   0  0  0  0  0  0  0  0  0  0  0  0
   37.6270   24.1210   39.1020 H   0  0  0  0  0  0  0  0  0  0  0  0
   37.8430   24.3800   37.2670 N   0  0  0  0  0  0  0  0  0  0  0  0
  1  7  1  1  0  0  0
  1 30  1  0  0  0  0
  1  2  1  0  0  0  0
  2  8  1  0  0  0  0
  2  9  1  0  0  0  0
  3 10  1  6  0  0  0
  3  2  1  0  0  0  0
  3 19  1  0  0  0  0
  4 11  1  0  0  0  0
  4  3  1  0  0  0  0
  5  6  1  0  0  0  0
  5 13  1  0  0  0  0
  5  4  1  0  0  0  0
  6  1  1  0  0  0  0
 12  4  1  0  0  0  0
 14  5  1  0  0  0  0
 15  6  1  0  0  0  0
 16  6  1  0  0  0  0
 17 18  1  0  0  0  0
 18 23  1  0  0  0  0
 19 20  1  0  0  0  0
 19 18  2  0  0  0  0
 20 21  2  0  0  0  0
 21 25  1  0  0  0  0
 21 22  1  0  0  0  0
 22 26  1  0  0  0  0
 23 22  2  0  0  0  0
 23 27  1  0  0  0  0
 24 20  1  0  0  0  0
 27 28  1  0  0  0  0
 29 27  1  0  0  0  0
 30 35  1  0  0  0  0
 31 30  2  0  0  0  0
 32 31  1  0  0  0  0
 32 33  2  0  0  0  0
 33 34  1  0  0  0  0
 34 38  1  0  0  0  0
 35 34  2  0  0  0  0
 36 31  1  0  0  0  0
 37 32  1  0  0  0  0
 38 44  1  0  0  0  0
 39 38  2  0  0  0  0
 39 41  1  0  0  0  0
 40 39  1  0  0  0  0
 41 42  1  0  0  0  0
 42 43  1  0  0  0  0
 44 42  2  0  0  0  0
M  END
>  <minimizedAffinity>
-6.46735096

$$$$

 OpenBabel03272506033D

 44 47  0  0  1  0  0  0  0  0999 V2000
   39.3640   25.7200   32.3440 C   0  0  2  0  0  0  0  0  0  0  0  0
   39.6370   24.7520   33.3990 C   0  0  0  0  0  0  0  0  0  0  0  0
   39.9990   25.4400   34.7570 C   0  0  2  0  0  0  0  0  0  0  0  0
   41.1360   26.3250   34.6860 C   0  0  0  0  0  0  0  0  0  0  0  0
   41.2230   27.1040   33.3650 C   0  0  0  0  0  0  0  0  0  0  0  0
   39.8820   27.1260   32.6850 C   0  0  0  0  0  0  0  0  0  0  0  0
   39.9430   25.4740   31.4040 H   0  0  0  0  0  0  0  0  0  0  0  0
   40.6080   24.2000   33.1490 H   0  0  0  0  0  0  0  0  0  0  0  0
   38.9540   23.9830   33.6860 H   0  0  0  0  0  0  0  0  0  0  0  0
   39.0800   25.9060   35.1030 H   0  0  0  0  0  0  0  0  0  0  0  0
   42.1370   25.8820   34.8720 H   0  0  0  0  0  0  0  0  0  0  0  0
   41.0180   27.1310   35.4680 H   0  0  0  0  0  0  0  0  0  0  0  0
   41.9010   26.5370   32.6940 H   0  0  0  0  0  0  0  0  0  0  0  0
   41.5270   28.1380   33.5160 H   0  0  0  0  0  0  0  0  0  0  0  0
   39.1440   27.5460   33.4030 H   0  0  0  0  0  0  0  0  0  0  0  0
   39.9550   27.7610   31.8060 H   0  0  0  0  0  0  0  0  0  0  0  0
   37.9350   24.8730   36.7820 Cl  0  0  0  0  0  0  0  0  0  0  0  0
   39.4110   23.9400   36.6630 C   0  0  0  0  0  0  0  0  0  0  0  0
   40.2790   24.2720   35.6510 C   0  0  0  0  0  0  0  0  0  0  0  0
   41.4010   23.4590   35.6070 C   0  0  0  0  0  0  0  0  0  0  0  0
   41.6130   22.4240   36.5010 C   0  0  0  0  0  0  0  0  0  0  0  0
   40.6900   22.1570   37.4930 C   0  0  0  0  0  0  0  0  0  0  0  0
   39.5520   22.9420   37.5750 C   0  0  0  0  0  0  0  0  0  0  0  0
   42.1230   23.6920   34.8070 H   0  0  0  0  0  0  0  0  0  0  0  0
   42.5270   21.8400   36.3870 H   0  0  0  0  0  0  0  0  0  0  0  0
   40.8480   21.3500   38.1970 H   0  0  0  0  0  0  0  0  0  0  0  0
   38.5990   22.6730   38.5960 N   0  0  0  0  0  0  0  0  0  0  0  0
   38.8510   22.4470   39.5740 H   0  0  0  0  0  0  0  0  0  0  0  0
   37.6100   22.7350   38.2320 H   0  0  0  0  0  0  0  0  0  0  0  0
   37.9680   25.8730   31.9590 C   0  0  0  0  0  0  0  0  0  0  0  0
   37.3820   24.7390   31.4260 C   0  0  0  0  0  0  0  0  0  0  0  0
   36.0430   24.7790   31.0550 C   0  0  0  0  0  0  0  0  0  0  0  0
   35.3530   25.9570   31.2350 N   0  0  0  0  0  0  0  0  0  0  0  0
   35.9370   27.0590   31.7540 C   0  0  0  0  0  0  0  0  0  0  0  0
   37.2330   26.9580   32.0940 N   0  0  0  0  0  0  0  0  0  0  0  0
   37.6660   23.7250   31.1800 H   0  0  0  0  0  0  0  0  0  0  0  0
   35.3820   24.0450   30.6300 H   0  0  0  0  0  0  0  0  0  0  0  0
   35.2730   28.3270   31.9750 C   0  0  0  0  0  0  0  0  0  0  0  0
   36.0090   29.1900   31.0590 C   0  0  0  0  0  0  0  0  0  0  0  0
   36.8580   29.4390   30.2210 H   0  0  0  0  0  0  0  0  0  0  0  0
   35.2140   30.9220   31.2610 S   0  0  0  0  0  0  0  0  0  0  0  0
   34.0540   30.1300   32.5380 C   0  0  0  0  0  0  0  0  0  0  0  0
   33.1130   30.1710   33.3720 H   0  0  0  0  0  0  0  0  0  0  0  0
   34.3720   29.0500   32.5710 N   0  0  0  0  0  0  0  0  0  0  0  0
  1  7  1  6  0  0  0
  1  6  1  0  0  0  0
  1  2  1  0  0  0  0
  2  9  1  0  0  0  0
  2  3  1  0  0  0  0
  3 10  1  1  0  0  0
  3 19  1  0  0  0  0
  4  3  1  0  0  0  0
  4 11  1  0  0  0  0
  4 12  1  0  0  0  0
  5 14  1  0  0  0  0
  5  4  1  0  0  0  0
  6  5  1  0  0  0  0
  6 15  1  0  0  0  0
  8  2  1  0  0  0  0
 13  5  1  0  0  0  0
 16  6  1  0  0  0  0
 18 17  1  0  0  0  0
 18 23  1  0  0  0  0
 19 18  2  0  0  0  0
 20 19  1  0  0  0  0
 20 21  2  0  0  0  0
 21 22  1  0  0  0  0
 22 23  2  0  0  0  0
 22 26  1  0  0  0  0
 23 27  1  0  0  0  0
 24 20  1  0  0  0  0
 25 21  1  0  0  0  0
 27 28  1  0  0  0  0
 29 27  1  0  0  0  0
 30 35  1  0  0  0  0
 30  1  1  0  0  0  0
 31 30  2  0  0  0  0
 32 33  2  0  0  0  0
 32 31  1  0  0  0  0
 33 34  1  0  0  0  0
 34 38  1  0  0  0  0
 34 35  2  0  0  0  0
 36 31  1  0  0  0  0
 37 32  1  0  0  0  0
 38 44  1  0  0  0  0
 39 41  1  0  0  0  0
 39 38  2  0  0  0  0
 40 39  1  0  0  0  0
 41 42  1  0  0  0  0
 42 44  2  0  0  0  0
 42 43  1  0  0  0  0
M  END
>  <minimizedAffinity>
-6.35164261

$$$$

 OpenBabel03272506033D

 44 47  0  0  1  0  0  0  0  0999 V2000
   36.8660   28.2720   32.1710 C   0  0  2  0  0  0  0  0  0  0  0  0
   36.3800   28.9600   33.3600 C   0  0  0  0  0  0  0  0  0  0  0  0
   35.0820   29.7880   33.0790 C   0  0  2  0  0  0  0  0  0  0  0  0
   35.2280   30.7810   32.0420 C   0  0  0  0  0  0  0  0  0  0  0  0
   36.1350   30.3300   30.8870 C   0  0  0  0  0  0  0  0  0  0  0  0
   36.2560   28.8310   30.8760 C   0  0  0  0  0  0  0  0  0  0  0  0
   37.9700   28.4570   32.0140 H   0  0  0  0  0  0  0  0  0  0  0  0
   37.1270   29.7810   33.6400 H   0  0  0  0  0  0  0  0  0  0  0  0
   36.1620   28.4660   34.2810 H   0  0  0  0  0  0  0  0  0  0  0  0
   34.3000   29.0550   32.9010 H   0  0  0  0  0  0  0  0  0  0  0  0
   35.5670   31.7910   32.3500 H   0  0  0  0  0  0  0  0  0  0  0  0
   34.2240   30.9410   31.5500 H   0  0  0  0  0  0  0  0  0  0  0  0
   37.1530   30.7200   31.0990 H   0  0  0  0  0  0  0  0  0  0  0  0
   35.7480   30.6320   29.9170 H   0  0  0  0  0  0  0  0  0  0  0  0
   35.2290   28.4090   30.8260 H   0  0  0  0  0  0  0  0  0  0  0  0
   36.8240   28.5410   29.9950 H   0  0  0  0  0  0  0  0  0  0  0  0
   32.3420   29.4490   34.1090 Cl  0  0  0  0  0  0  0  0  0  0  0  0
   33.5560   30.3770   34.9630 C   0  0  0  0  0  0  0  0  0  0  0  0
   34.8090   30.4280   34.4050 C   0  0  0  0  0  0  0  0  0  0  0  0
   35.7150   31.1520   35.1660 C   0  0  0  0  0  0  0  0  0  0  0  0
   35.3740   31.7570   36.3630 C   0  0  0  0  0  0  0  0  0  0  0  0
   34.0880   31.6590   36.8540 C   0  0  0  0  0  0  0  0  0  0  0  0
   33.1490   30.9450   36.1300 C   0  0  0  0  0  0  0  0  0  0  0  0
   36.7350   31.2160   34.7520 H   0  0  0  0  0  0  0  0  0  0  0  0
   36.1560   32.3050   36.8900 H   0  0  0  0  0  0  0  0  0  0  0  0
   33.8130   32.1300   37.7900 H   0  0  0  0  0  0  0  0  0  0  0  0
   31.8210   30.8420   36.6300 N   0  0  0  0  0  0  0  0  0  0  0  0
   31.3030   31.6320   37.0550 H   0  0  0  0  0  0  0  0  0  0  0  0
   31.4360   29.8660   36.5130 H   0  0  0  0  0  0  0  0  0  0  0  0
   36.6640   26.8300   32.1360 C   0  0  0  0  0  0  0  0  0  0  0  0
   35.6550   26.4030   31.2900 C   0  0  0  0  0  0  0  0  0  0  0  0
   35.4050   25.0410   31.1680 C   0  0  0  0  0  0  0  0  0  0  0  0
   36.1790   24.1690   31.9010 N   0  0  0  0  0  0  0  0  0  0  0  0
   37.1600   24.5990   32.7250 C   0  0  0  0  0  0  0  0  0  0  0  0
   37.3540   25.9260   32.8010 N   0  0  0  0  0  0  0  0  0  0  0  0
   34.9220   26.8400   30.6260 H   0  0  0  0  0  0  0  0  0  0  0  0
   34.6940   24.4800   30.5890 H   0  0  0  0  0  0  0  0  0  0  0  0
   38.0130   23.7400   33.5210 C   0  0  0  0  0  0  0  0  0  0  0  0
   38.1940   24.5560   34.7150 C   0  0  0  0  0  0  0  0  0  0  0  0
   38.0300   25.5430   35.4110 H   0  0  0  0  0  0  0  0  0  0  0  0
   39.3220   23.5160   35.8620 S   0  0  0  0  0  0  0  0  0  0  0  0
   39.3210   22.1950   34.4980 C   0  0  0  0  0  0  0  0  0  0  0  0
   39.6590   21.0830   34.0170 H   0  0  0  0  0  0  0  0  0  0  0  0
   38.6760   22.6350   33.6850 N   0  0  0  0  0  0  0  0  0  0  0  0
  1  7  1  6  0  0  0
  1  2  1  0  0  0  0
  2  8  1  0  0  0  0
  2  9  1  0  0  0  0
  3 10  1  6  0  0  0
  3  2  1  0  0  0  0
  3 19  1  0  0  0  0
  4 11  1  0  0  0  0
  4  3  1  0  0  0  0
  5 13  1  0  0  0  0
  5  4  1  0  0  0  0
  6  5  1  0  0  0  0
  6  1  1  0  0  0  0
 12  4  1  0  0  0  0
 14  5  1  0  0  0  0
 15  6  1  0  0  0  0
 16  6  1  0  0  0  0
 17 18  1  0  0  0  0
 18 23  1  0  0  0  0
 19 18  2  0  0  0  0
 19 20  1  0  0  0  0
 20 21  2  0  0  0  0
 21 22  1  0  0  0  0
 21 25  1  0  0  0  0
 22 26  1  0  0  0  0
 23 27  1  0  0  0  0
 23 22  2  0  0  0  0
 24 20  1  0  0  0  0
 27 28  1  0  0  0  0
 29 27  1  0  0  0  0
 30  1  1  0  0  0  0
 30 35  1  0  0  0  0
 31 30  2  0  0  0  0
 32 31  1  0  0  0  0
 32 33  2  0  0  0  0
 33 34  1  0  0  0  0
 34 35  2  0  0  0  0
 34 38  1  0  0  0  0
 36 31  1  0  0  0  0
 37 32  1  0  0  0  0
 38 44  1  0  0  0  0
 38 39  2  0  0  0  0
 39 40  1  0  0  0  0
 39 41  1  0  0  0  0
 42 41  1  0  0  0  0
 43 42  1  0  0  0  0
 44 42  2  0  0  0  0
M  END
>  <minimizedAffinity>
-6.06499243

$$$$

 OpenBabel03272506033D

 44 47  0  0  1  0  0  0  0  0999 V2000
   36.9290   28.1830   32.2170 C   0  0  2  0  0  0  0  0  0  0  0  0
   36.3800   28.8530   33.3890 C   0  0  0  0  0  0  0  0  0  0  0  0
   35.2410   29.8610   33.0180 C   0  0  2  0  0  0  0  0  0  0  0  0
   35.6430   30.8890   32.0880 C   0  0  0  0  0  0  0  0  0  0  0  0
   36.6310   30.3960   31.0210 C   0  0  0  0  0  0  0  0  0  0  0  0
   36.5670   28.8980   30.9050 C   0  0  0  0  0  0  0  0  0  0  0  0
   38.0590   28.2310   32.2110 H   0  0  0  0  0  0  0  0  0  0  0  0
   37.1790   29.5490   33.8220 H   0  0  0  0  0  0  0  0  0  0  0  0
   35.9840   28.3350   34.2340 H   0  0  0  0  0  0  0  0  0  0  0  0
   34.4050   29.2500   32.6880 H   0  0  0  0  0  0  0  0  0  0  0  0
   36.0600   31.8250   32.5140 H   0  0  0  0  0  0  0  0  0  0  0  0
   34.7400   31.2110   31.4910 H   0  0  0  0  0  0  0  0  0  0  0  0
   37.6520   30.6350   31.3850 H   0  0  0  0  0  0  0  0  0  0  0  0
   36.4140   30.8070   30.0370 H   0  0  0  0  0  0  0  0  0  0  0  0
   35.5110   28.6180   30.6980 H   0  0  0  0  0  0  0  0  0  0  0  0
   37.2060   28.5910   30.0810 H   0  0  0  0  0  0  0  0  0  0  0  0
   32.4770   29.3620   33.9080 Cl  0  0  0  0  0  0  0  0  0  0  0  0
   33.6040   30.3200   34.8440 C   0  0  0  0  0  0  0  0  0  0  0  0
   34.8780   30.4470   34.3470 C   0  0  0  0  0  0  0  0  0  0  0  0
   35.7130   31.1890   35.1700 C   0  0  0  0  0  0  0  0  0  0  0  0
   35.2890   31.7410   36.3660 C   0  0  0  0  0  0  0  0  0  0  0  0
   33.9880   31.5670   36.7940 C   0  0  0  0  0  0  0  0  0  0  0  0
   33.1180   30.8320   36.0060 C   0  0  0  0  0  0  0  0  0  0  0  0
   36.7460   31.3140   34.8060 H   0  0  0  0  0  0  0  0  0  0  0  0
   36.0190   32.3090   36.9440 H   0  0  0  0  0  0  0  0  0  0  0  0
   33.6480   31.9960   37.7280 H   0  0  0  0  0  0  0  0  0  0  0  0
   31.7750   30.6520   36.4410 N   0  0  0  0  0  0  0  0  0  0  0  0
   31.2010   31.4030   36.8620 H   0  0  0  0  0  0  0  0  0  0  0  0
   31.4430   29.6630   36.2780 H   0  0  0  0  0  0  0  0  0  0  0  0
   36.5580   26.7850   32.0440 C   0  0  0  0  0  0  0  0  0  0  0  0
   35.4650   26.5700   31.2230 C   0  0  0  0  0  0  0  0  0  0  0  0
   35.0510   25.2670   30.9740 C   0  0  0  0  0  0  0  0  0  0  0  0
   35.7530   24.2380   31.5620 N   0  0  0  0  0  0  0  0  0  0  0  0
   36.8170   24.4610   32.3630 C   0  0  0  0  0  0  0  0  0  0  0  0
   37.1690   25.7420   32.5660 N   0  0  0  0  0  0  0  0  0  0  0  0
   34.7550   27.1570   30.6560 H   0  0  0  0  0  0  0  0  0  0  0  0
   34.2510   24.8550   30.3860 H   0  0  0  0  0  0  0  0  0  0  0  0
   37.6020   23.4300   33.0100 C   0  0  0  0  0  0  0  0  0  0  0  0
   37.8500   22.5260   31.8930 C   0  0  0  0  0  0  0  0  0  0  0  0
   37.7690   22.1580   30.7340 H   0  0  0  0  0  0  0  0  0  0  0  0
   38.8940   21.0990   32.6310 S   0  0  0  0  0  0  0  0  0  0  0  0
   38.7820   22.0100   34.2930 C   0  0  0  0  0  0  0  0  0  0  0  0
   39.0280   22.1330   35.5200 H   0  0  0  0  0  0  0  0  0  0  0  0
   38.1750   22.9300   34.0650 N   0  0  0  0  0  0  0  0  0  0  0  0
  1  7  1  1  0  0  0
  1  2  1  0  0  0  0
  2  8  1  0  0  0  0
  2  9  1  0  0  0  0
  3 10  1  6  0  0  0
  3  2  1  0  0  0  0
  3 19  1  0  0  0  0
  4 11  1  0  0  0  0
  4  3  1  0  0  0  0
  5 13  1  0  0  0  0
  5  4  1  0  0  0  0
  6  5  1  0  0  0  0
  6  1  1  0  0  0  0
 12  4  1  0  0  0  0
 14  5  1  0  0  0  0
 15  6  1  0  0  0  0
 16  6  1  0  0  0  0
 17 18  1  0  0  0  0
 18 23  1  0  0  0  0
 19 18  2  0  0  0  0
 19 20  1  0  0  0  0
 20 21  2  0  0  0  0
 21 22  1  0  0  0  0
 21 25  1  0  0  0  0
 22 26  1  0  0  0  0
 23 27  1  0  0  0  0
 23 22  2  0  0  0  0
 24 20  1  0  0  0  0
 27 28  1  0  0  0  0
 29 27  1  0  0  0  0
 30  1  1  0  0  0  0
 30 35  1  0  0  0  0
 31 30  2  0  0  0  0
 32 31  1  0  0  0  0
 32 33  2  0  0  0  0
 33 34  1  0  0  0  0
 34 35  2  0  0  0  0
 34 38  1  0  0  0  0
 36 31  1  0  0  0  0
 37 32  1  0  0  0  0
 38 44  1  0  0  0  0
 39 41  1  0  0  0  0
 39 38  2  0  0  0  0
 40 39  1  0  0  0  0
 41 42  1  0  0  0  0
 42 43  1  0  0  0  0
 44 42  2  0  0  0  0
M  END
>  <minimizedAffinity>
-5.99427032

$$$$

 OpenBabel03272506033D

 44 47  0  0  1  0  0  0  0  0999 V2000
   38.8690   25.4150   34.3860 C   0  0  2  0  0  0  0  0  0  0  0  0
   37.9230   26.5230   34.3390 C   0  0  0  0  0  0  0  0  0  0  0  0
   37.6240   26.9870   32.8750 C   0  0  2  0  0  0  0  0  0  0  0  0
   38.7930   27.3950   32.1340 C   0  0  0  0  0  0  0  0  0  0  0  0
   40.0400   26.5560   32.4500 C   0  0  0  0  0  0  0  0  0  0  0  0
   39.6410   25.2440   33.0680 C   0  0  0  0  0  0  0  0  0  0  0  0
   39.7010   25.6190   35.1240 H   0  0  0  0  0  0  0  0  0  0  0  0
   38.4220   27.4510   34.7840 H   0  0  0  0  0  0  0  0  0  0  0  0
   36.9560   26.4920   34.7910 H   0  0  0  0  0  0  0  0  0  0  0  0
   37.0560   26.1790   32.4220 H   0  0  0  0  0  0  0  0  0  0  0  0
   39.0890   28.4620   32.2010 H   0  0  0  0  0  0  0  0  0  0  0  0
   38.6110   27.2050   31.0360 H   0  0  0  0  0  0  0  0  0  0  0  0
   40.6140   27.1020   33.2280 H   0  0  0  0  0  0  0  0  0  0  0  0
   40.6230   26.3320   31.5600 H   0  0  0  0  0  0  0  0  0  0  0  0
   38.9330   24.7440   32.3730 H   0  0  0  0  0  0  0  0  0  0  0  0
   40.5360   24.6390   33.1920 H   0  0  0  0  0  0  0  0  0  0  0  0
   36.5560   28.2090   30.4160 Cl  0  0  0  0  0  0  0  0  0  0  0  0
   36.1640   28.8160   32.0100 C   0  0  0  0  0  0  0  0  0  0  0  0
   36.6870   28.1380   33.0820 C   0  0  0  0  0  0  0  0  0  0  0  0
   36.2950   28.6630   34.3040 C   0  0  0  0  0  0  0  0  0  0  0  0
   35.4610   29.7620   34.4150 C   0  0  0  0  0  0  0  0  0  0  0  0
   34.9780   30.3900   33.2850 C   0  0  0  0  0  0  0  0  0  0  0  0
   35.3420   29.8990   32.0420 C   0  0  0  0  0  0  0  0  0  0  0  0
   36.6940   28.1450   35.1920 H   0  0  0  0  0  0  0  0  0  0  0  0
   35.2090   30.1020   35.4200 H   0  0  0  0  0  0  0  0  0  0  0  0
   34.3260   31.2500   33.3620 H   0  0  0  0  0  0  0  0  0  0  0  0
   34.8490   30.5430   30.8730 N   0  0  0  0  0  0  0  0  0  0  0  0
   34.7950   31.5710   30.7610 H   0  0  0  0  0  0  0  0  0  0  0  0
   34.5490   29.8450   30.1400 H   0  0  0  0  0  0  0  0  0  0  0  0
   38.3140   24.1090   34.7140 C   0  0  0  0  0  0  0  0  0  0  0  0
   38.1550   23.8680   36.0680 C   0  0  0  0  0  0  0  0  0  0  0  0
   37.6060   22.6590   36.4790 C   0  0  0  0  0  0  0  0  0  0  0  0
   37.2420   21.7470   35.5140 N   0  0  0  0  0  0  0  0  0  0  0  0
   37.4050   21.9940   34.1960 C   0  0  0  0  0  0  0  0  0  0  0  0
   37.9400   23.1800   33.8590 N   0  0  0  0  0  0  0  0  0  0  0  0
   38.3440   24.3740   37.0040 H   0  0  0  0  0  0  0  0  0  0  0  0
   37.3880   22.2500   37.4500 H   0  0  0  0  0  0  0  0  0  0  0  0
   37.0420   21.0850   33.1280 C   0  0  0  0  0  0  0  0  0  0  0  0
   35.6580   20.7860   33.4740 C   0  0  0  0  0  0  0  0  0  0  0  0
   34.6460   20.8740   34.1480 H   0  0  0  0  0  0  0  0  0  0  0  0
   35.0570   19.5740   32.1170 S   0  0  0  0  0  0  0  0  0  0  0  0
   36.7930   19.7150   31.3630 C   0  0  0  0  0  0  0  0  0  0  0  0
   37.6640   19.4370   30.4990 H   0  0  0  0  0  0  0  0  0  0  0  0
   37.3380   20.4240   32.0480 N   0  0  0  0  0  0  0  0  0  0  0  0
  1 30  1  0  0  0  0
  1  7  1  1  0  0  0
  2  1  1  0  0  0  0
  2  8  1  0  0  0  0
  2  9  1  0  0  0  0
  3 10  1  6  0  0  0
  3 19  1  0  0  0  0
  3  2  1  0  0  0  0
  4 11  1  0  0  0  0
  4  5  1  0  0  0  0
  4  3  1  0  0  0  0
  5  6  1  0  0  0  0
  5 13  1  0  0  0  0
  6 16  1  0  0  0  0
  6  1  1  0  0  0  0
 12  4  1  0  0  0  0
 14  5  1  0  0  0  0
 15  6  1  0  0  0  0
 17 18  1  0  0  0  0
 18 23  2  0  0  0  0
 18 19  1  0  0  0  0
 19 20  2  0  0  0  0
 20 21  1  0  0  0  0
 20 24  1  0  0  0  0
 21 25  1  0  0  0  0
 22 26  1  0  0  0  0
 22 21  2  0  0  0  0
 23 22  1  0  0  0  0
 27 23  1  0  0  0  0
 28 27  1  0  0  0  0
 29 27  1  0  0  0  0
 30 31  1  0  0  0  0
 31 32  2  0  0  0  0
 31 36  1  0  0  0  0
 32 37  1  0  0  0  0
 33 32  1  0  0  0  0
 34 33  2  0  0  0  0
 35 34  1  0  0  0  0
 35 30  2  0  0  0  0
 38 39  2  0  0  0  0
 38 34  1  0  0  0  0
 39 40  1  0  0  0  0
 41 39  1  0  0  0  0
 42 44  2  0  0  0  0
 42 41  1  0  0  0  0
 43 42  1  0  0  0  0
 44 38  1  0  0  0  0
M  END
>  <minimizedAffinity>
-5.95523691

$$$$

 OpenBabel03272506033D

 44 47  0  0  1  0  0  0  0  0999 V2000
   38.9470   25.8330   35.0980 C   0  0  2  0  0  0  0  0  0  0  0  0
   38.2310   26.5980   34.0860 C   0  0  0  0  0  0  0  0  0  0  0  0
   39.0210   26.6850   32.7380 C   0  0  2  0  0  0  0  0  0  0  0  0
   40.3360   27.2670   32.8600 C   0  0  0  0  0  0  0  0  0  0  0  0
   41.0520   26.8880   34.1650 C   0  0  0  0  0  0  0  0  0  0  0  0
   40.4350   25.6520   34.7580 C   0  0  0  0  0  0  0  0  0  0  0  0
   38.9940   26.3950   36.0780 H   0  0  0  0  0  0  0  0  0  0  0  0
   38.1970   27.6950   34.4100 H   0  0  0  0  0  0  0  0  0  0  0  0
   37.2340   26.3770   33.7740 H   0  0  0  0  0  0  0  0  0  0  0  0
   39.0040   25.6800   32.3230 H   0  0  0  0  0  0  0  0  0  0  0  0
   40.4170   28.3680   32.7480 H   0  0  0  0  0  0  0  0  0  0  0  0
   40.9990   26.8370   32.0540 H   0  0  0  0  0  0  0  0  0  0  0  0
   40.8640   27.7070   34.8910 H   0  0  0  0  0  0  0  0  0  0  0  0
   42.1090   26.6820   34.0100 H   0  0  0  0  0  0  0  0  0  0  0  0
   40.4660   24.8530   33.9850 H   0  0  0  0  0  0  0  0  0  0  0  0
   41.0220   25.3590   35.6250 H   0  0  0  0  0  0  0  0  0  0  0  0
   39.4430   26.4630   29.8300 Cl  0  0  0  0  0  0  0  0  0  0  0  0
   38.2650   27.5550   30.5250 C   0  0  0  0  0  0  0  0  0  0  0  0
   38.1290   27.5400   31.8910 C   0  0  0  0  0  0  0  0  0  0  0  0
   37.1500   28.4070   32.3510 C   0  0  0  0  0  0  0  0  0  0  0  0
   36.3960   29.2030   31.5060 C   0  0  0  0  0  0  0  0  0  0  0  0
   36.5970   29.1600   30.1420 C   0  0  0  0  0  0  0  0  0  0  0  0
   37.5630   28.3070   29.6350 C   0  0  0  0  0  0  0  0  0  0  0  0
   37.0080   28.4230   33.4450 H   0  0  0  0  0  0  0  0  0  0  0  0
   35.6490   29.8530   31.9630 H   0  0  0  0  0  0  0  0  0  0  0  0
   36.0120   29.7800   29.4740 H   0  0  0  0  0  0  0  0  0  0  0  0
   37.7770   28.2610   28.2290 N   0  0  0  0  0  0  0  0  0  0  0  0
   37.8000   29.0990   27.6220 H   0  0  0  0  0  0  0  0  0  0  0  0
   37.9080   27.2700   27.8880 H   0  0  0  0  0  0  0  0  0  0  0  0
   38.4240   24.5050   35.3900 C   0  0  0  0  0  0  0  0  0  0  0  0
   38.2210   24.2410   36.7330 C   0  0  0  0  0  0  0  0  0  0  0  0
   37.6960   23.0100   37.1090 C   0  0  0  0  0  0  0  0  0  0  0  0
   37.4010   22.0990   36.1190 N   0  0  0  0  0  0  0  0  0  0  0  0
   37.6060   22.3690   34.8110 C   0  0  0  0  0  0  0  0  0  0  0  0
   38.1140   23.5760   34.5100 N   0  0  0  0  0  0  0  0  0  0  0  0
   38.3560   24.7410   37.6820 H   0  0  0  0  0  0  0  0  0  0  0  0
   37.4550   22.5810   38.0650 H   0  0  0  0  0  0  0  0  0  0  0  0
   37.3150   21.4620   33.7200 C   0  0  0  0  0  0  0  0  0  0  0  0
   38.6060   21.4150   33.0450 C   0  0  0  0  0  0  0  0  0  0  0  0
   39.7790   21.7050   32.8880 H   0  0  0  0  0  0  0  0  0  0  0  0
   38.3480   20.2310   31.5600 S   0  0  0  0  0  0  0  0  0  0  0  0
   36.5540   20.0430   32.1510 C   0  0  0  0  0  0  0  0  0  0  0  0
   35.3900   19.5740   32.0630 H   0  0  0  0  0  0  0  0  0  0  0  0
   36.4920   20.6950   33.0670 N   0  0  0  0  0  0  0  0  0  0  0  0
  1 30  1  0  0  0  0
  1  7  1  1  0  0  0
  2  8  1  0  0  0  0
  2  1  1  0  0  0  0
  3 10  1  6  0  0  0
  3  4  1  0  0  0  0
  3  2  1  0  0  0  0
  4  5  1  0  0  0  0
  5  6  1  0  0  0  0
  5 13  1  0  0  0  0
  6  1  1  0  0  0  0
  6 16  1  0  0  0  0
  9  2  1  0  0  0  0
 11  4  1  0  0  0  0
 12  4  1  0  0  0  0
 14  5  1  0  0  0  0
 15  6  1  0  0  0  0
 17 18  1  0  0  0  0
 18 19  1  0  0  0  0
 19 20  2  0  0  0  0
 19  3  1  0  0  0  0
 20 24  1  0  0  0  0
 21 25  1  0  0  0  0
 21 20  1  0  0  0  0
 22 21  2  0  0  0  0
 23 22  1  0  0  0  0
 23 18  2  0  0  0  0
 26 22  1  0  0  0  0
 27 23  1  0  0  0  0
 28 27  1  0  0  0  0
 29 27  1  0  0  0  0
 30 31  1  0  0  0  0
 31 32  2  0  0  0  0
 31 36  1  0  0  0  0
 32 37  1  0  0  0  0
 33 32  1  0  0  0  0
 34 33  2  0  0  0  0
 35 34  1  0  0  0  0
 35 30  2  0  0  0  0
 38 34  1  0  0  0  0
 39 38  2  0  0  0  0
 40 39  1  0  0  0  0
 41 42  1  0  0  0  0
 41 39  1  0  0  0  0
 42 44  2  0  0  0  0
 43 42  1  0  0  0  0
 44 38  1  0  0  0  0
M  END
>  <minimizedAffinity>
-5.90754271

$$$$

 OpenBabel03272506033D

 44 47  0  0  1  0  0  0  0  0999 V2000
   37.3840   27.0260   31.5270 C   0  0  2  0  0  0  0  0  0  0  0  0
   37.3210   26.0420   32.6000 C   0  0  0  0  0  0  0  0  0  0  0  0
   38.5740   26.1010   33.5350 C   0  0  2  0  0  0  0  0  0  0  0  0
   39.8300   25.9070   32.8530 C   0  0  0  0  0  0  0  0  0  0  0  0
   39.8680   26.5360   31.4520 C   0  0  0  0  0  0  0  0  0  0  0  0
   38.8000   27.5870   31.3240 C   0  0  0  0  0  0  0  0  0  0  0  0
   37.1700   26.5510   30.5230 H   0  0  0  0  0  0  0  0  0  0  0  0
   37.4160   24.9960   32.1450 H   0  0  0  0  0  0  0  0  0  0  0  0
   36.5050   25.9660   33.2850 H   0  0  0  0  0  0  0  0  0  0  0  0
   38.4900   27.0400   34.0780 H   0  0  0  0  0  0  0  0  0  0  0  0
   40.2000   24.8660   32.7560 H   0  0  0  0  0  0  0  0  0  0  0  0
   40.6380   26.4580   33.4170 H   0  0  0  0  0  0  0  0  0  0  0  0
   39.6030   25.7370   30.7270 H   0  0  0  0  0  0  0  0  0  0  0  0
   40.8210   27.0140   31.2400 H   0  0  0  0  0  0  0  0  0  0  0  0
   38.9480   28.3210   32.1450 H   0  0  0  0  0  0  0  0  0  0  0  0
   38.9140   28.0750   30.3590 H   0  0  0  0  0  0  0  0  0  0  0  0
   38.3530   26.9160   36.3580 Cl  0  0  0  0  0  0  0  0  0  0  0  0
   38.2340   25.2450   35.8540 C   0  0  0  0  0  0  0  0  0  0  0  0
   38.3100   24.9920   34.5060 C   0  0  0  0  0  0  0  0  0  0  0  0
   38.1680   23.6490   34.1940 C   0  0  0  0  0  0  0  0  0  0  0  0
   37.9730   22.6720   35.1560 C   0  0  0  0  0  0  0  0  0  0  0  0
   37.9100   23.0100   36.4920 C   0  0  0  0  0  0  0  0  0  0  0  0
   38.0450   24.3400   36.8520 C   0  0  0  0  0  0  0  0  0  0  0  0
   38.2220   23.4040   33.1210 H   0  0  0  0  0  0  0  0  0  0  0  0
   37.8730   21.6420   34.8130 H   0  0  0  0  0  0  0  0  0  0  0  0
   37.7590   22.2530   37.2510 H   0  0  0  0  0  0  0  0  0  0  0  0
   37.9830   24.6950   38.2290 N   0  0  0  0  0  0  0  0  0  0  0  0
   38.4430   24.1550   38.9830 H   0  0  0  0  0  0  0  0  0  0  0  0
   37.4140   25.5710   38.3800 H   0  0  0  0  0  0  0  0  0  0  0  0
   36.4970   28.1740   31.6560 C   0  0  0  0  0  0  0  0  0  0  0  0
   36.6890   29.1680   30.7120 C   0  0  0  0  0  0  0  0  0  0  0  0
   35.8720   30.2910   30.7350 C   0  0  0  0  0  0  0  0  0  0  0  0
   34.8990   30.3680   31.7070 N   0  0  0  0  0  0  0  0  0  0  0  0
   34.7220   29.3920   32.6240 C   0  0  0  0  0  0  0  0  0  0  0  0
   35.5430   28.3300   32.5500 N   0  0  0  0  0  0  0  0  0  0  0  0
   37.3440   29.3680   29.8750 H   0  0  0  0  0  0  0  0  0  0  0  0
   35.8270   31.1740   30.1230 H   0  0  0  0  0  0  0  0  0  0  0  0
   33.7190   29.4040   33.6690 C   0  0  0  0  0  0  0  0  0  0  0  0
   32.4950   29.3090   32.8830 C   0  0  0  0  0  0  0  0  0  0  0  0
   31.8520   29.2240   31.8520 H   0  0  0  0  0  0  0  0  0  0  0  0
   31.0760   29.3170   34.1700 S   0  0  0  0  0  0  0  0  0  0  0  0
   32.4200   29.4480   35.5030 C   0  0  0  0  0  0  0  0  0  0  0  0
   32.8080   29.5300   36.6970 H   0  0  0  0  0  0  0  0  0  0  0  0
   33.3860   29.4580   34.9250 N   0  0  0  0  0  0  0  0  0  0  0  0
  1  7  1  6  0  0  0
  1 30  1  0  0  0  0
  1  2  1  0  0  0  0
  2  9  1  0  0  0  0
  2  3  1  0  0  0  0
  3 10  1  1  0  0  0
  3 19  1  0  0  0  0
  4 12  1  0  0  0  0
  4  3  1  0  0  0  0
  5  4  1  0  0  0  0
  6  5  1  0  0  0  0
  6  1  1  0  0  0  0
  6 15  1  0  0  0  0
  8  2  1  0  0  0  0
 11  4  1  0  0  0  0
 13  5  1  0  0  0  0
 14  5  1  0  0  0  0
 16  6  1  0  0  0  0
 18 17  1  0  0  0  0
 18 23  1  0  0  0  0
 19 18  2  0  0  0  0
 20 19  1  0  0  0  0
 20 21  2  0  0  0  0
 21 22  1  0  0  0  0
 22 23  2  0  0  0  0
 22 26  1  0  0  0  0
 23 27  1  0  0  0  0
 24 20  1  0  0  0  0
 25 21  1  0  0  0  0
 27 29  1  0  0  0  0
 27 28  1  0  0  0  0
 30 35  1  0  0  0  0
 31 32  1  0  0  0  0
 31 30  2  0  0  0  0
 32 33  2  0  0  0  0
 33 34  1  0  0  0  0
 34 38  1  0  0  0  0
 35 34  2  0  0  0  0
 36 31  1  0  0  0  0
 37 32  1  0  0  0  0
 38 44  1  0  0  0  0
 39 38  2  0  0  0  0
 39 41  1  0  0  0  0
 40 39  1  0  0  0  0
 41 42  1  0  0  0  0
 42 43  1  0  0  0  0
 44 42  2  0  0  0  0
M  END
>  <minimizedAffinity>
-5.84791088

$$$$

 OpenBabel03272506033D

 44 47  0  0  1  0  0  0  0  0999 V2000
   39.9980   26.0210   35.1590 C   0  0  2  0  0  0  0  0  0  0  0  0
   38.9810   26.6480   34.3240 C   0  0  0  0  0  0  0  0  0  0  0  0
   39.4220   26.7510   32.8260 C   0  0  2  0  0  0  0  0  0  0  0  0
   40.6500   27.4810   32.6220 C   0  0  0  0  0  0  0  0  0  0  0  0
   41.6880   27.2540   33.7310 C   0  0  0  0  0  0  0  0  0  0  0  0
   41.3780   25.9890   34.4820 C   0  0  0  0  0  0  0  0  0  0  0  0
   40.2010   26.6350   36.0860 H   0  0  0  0  0  0  0  0  0  0  0  0
   38.8900   27.7490   34.6200 H   0  0  0  0  0  0  0  0  0  0  0  0
   37.9730   26.3000   34.2610 H   0  0  0  0  0  0  0  0  0  0  0  0
   39.4310   25.7300   32.4530 H   0  0  0  0  0  0  0  0  0  0  0  0
   40.5690   28.5770   32.4670 H   0  0  0  0  0  0  0  0  0  0  0  0
   41.1560   27.0860   31.6930 H   0  0  0  0  0  0  0  0  0  0  0  0
   41.5750   28.0830   34.4600 H   0  0  0  0  0  0  0  0  0  0  0  0
   42.6970   27.1580   33.3370 H   0  0  0  0  0  0  0  0  0  0  0  0
   41.3260   25.1600   33.7440 H   0  0  0  0  0  0  0  0  0  0  0  0
   42.1800   25.8090   35.1950 H   0  0  0  0  0  0  0  0  0  0  0  0
   39.3700   26.7040   29.8810 Cl  0  0  0  0  0  0  0  0  0  0  0  0
   38.1570   27.5400   30.8260 C   0  0  0  0  0  0  0  0  0  0  0  0
   38.2630   27.4550   32.1920 C   0  0  0  0  0  0  0  0  0  0  0  0
   37.2410   28.1140   32.8600 C   0  0  0  0  0  0  0  0  0  0  0  0
   36.2260   28.7860   32.2010 C   0  0  0  0  0  0  0  0  0  0  0  0
   36.1940   28.8240   30.8220 C   0  0  0  0  0  0  0  0  0  0  0  0
   37.1920   28.1800   30.1120 C   0  0  0  0  0  0  0  0  0  0  0  0
   37.2890   28.0690   33.9600 H   0  0  0  0  0  0  0  0  0  0  0  0
   35.4670   29.2740   32.8130 H   0  0  0  0  0  0  0  0  0  0  0  0
   35.4040   29.3480   30.2990 H   0  0  0  0  0  0  0  0  0  0  0  0
   37.1660   28.2180   28.6900 N   0  0  0  0  0  0  0  0  0  0  0  0
   36.9380   29.0660   28.1410 H   0  0  0  0  0  0  0  0  0  0  0  0
   37.4070   27.2800   28.2710 H   0  0  0  0  0  0  0  0  0  0  0  0
   39.7200   24.6610   35.5980 C   0  0  0  0  0  0  0  0  0  0  0  0
   38.3780   24.3640   35.7630 C   0  0  0  0  0  0  0  0  0  0  0  0
   38.0100   23.0820   36.1520 C   0  0  0  0  0  0  0  0  0  0  0  0
   39.0070   22.1550   36.3610 N   0  0  0  0  0  0  0  0  0  0  0  0
   40.3140   22.4570   36.1990 C   0  0  0  0  0  0  0  0  0  0  0  0
   40.6060   23.7130   35.8210 N   0  0  0  0  0  0  0  0  0  0  0  0
   37.4250   24.8680   35.6760 H   0  0  0  0  0  0  0  0  0  0  0  0
   37.0570   22.6220   36.3410 H   0  0  0  0  0  0  0  0  0  0  0  0
   41.4120   21.5330   36.3970 C   0  0  0  0  0  0  0  0  0  0  0  0
   42.0030   21.5130   35.0650 C   0  0  0  0  0  0  0  0  0  0  0  0
   42.0920   21.8360   33.8930 H   0  0  0  0  0  0  0  0  0  0  0  0
   43.4870   20.3080   35.1980 S   0  0  0  0  0  0  0  0  0  0  0  0
   43.0060   20.0760   37.0200 C   0  0  0  0  0  0  0  0  0  0  0  0
   43.1610   19.5740   38.1620 H   0  0  0  0  0  0  0  0  0  0  0  0
   42.1050   20.7370   37.1560 N   0  0  0  0  0  0  0  0  0  0  0  0
  1 30  1  0  0  0  0
  1  7  1  1  0  0  0
  2  8  1  0  0  0  0
  2  1  1  0  0  0  0
  3 10  1  6  0  0  0
  3  2  1  0  0  0  0
  4  3  1  0  0  0  0
  4  5  1  0  0  0  0
  5 13  1  0  0  0  0
  5  6  1  0  0  0  0
  6  1  1  0  0  0  0
  6 16  1  0  0  0  0
  9  2  1  0  0  0  0
 11  4  1  0  0  0  0
 12  4  1  0  0  0  0
 14  5  1  0  0  0  0
 15  6  1  0  0  0  0
 17 18  1  0  0  0  0
 18 19  1  0  0  0  0
 19  3  1  0  0  0  0
 19 20  2  0  0  0  0
 20 24  1  0  0  0  0
 21 25  1  0  0  0  0
 21 20  1  0  0  0  0
 22 21  2  0  0  0  0
 23 22  1  0  0  0  0
 23 18  2  0  0  0  0
 26 22  1  0  0  0  0
 27 23  1  0  0  0  0
 28 27  1  0  0  0  0
 29 27  1  0  0  0  0
 30 31  2  0  0  0  0
 30 35  1  0  0  0  0
 31 32  1  0  0  0  0
 32 37  1  0  0  0  0
 32 33  2  0  0  0  0
 34 33  1  0  0  0  0
 34 38  1  0  0  0  0
 35 34  2  0  0  0  0
 36 31  1  0  0  0  0
 38 44  1  0  0  0  0
 39 41  1  0  0  0  0
 39 38  2  0  0  0  0
 40 39  1  0  0  0  0
 41 42  1  0  0  0  0
 42 44  2  0  0  0  0
 42 43  1  0  0  0  0
M  END
>  <minimizedAffinity>
-5.81233072

$$$$
