
 OpenBabel03272508123D

 32 34  0  0  0  0  0  0  0  0999 V2000
   36.6550   29.4590   44.0550 Cl  0  0  0  0  0  0  0  0  0  0  0  0
   38.3170   29.8250   43.5210 C   0  0  0  0  0  0  0  0  0  0  0  0
   39.3020   30.3030   44.3670 C   0  0  0  0  0  0  0  0  0  0  0  0
   40.5380   30.5390   43.8060 C   0  0  0  0  0  0  0  0  0  0  0  0
   40.7990   30.3190   42.4810 C   0  0  0  0  0  0  0  0  0  0  0  0
   39.8320   29.8510   41.6560 C   0  0  0  0  0  0  0  0  0  0  0  0
   38.5700   29.5950   42.1600 C   0  0  0  0  0  0  0  0  0  0  0  0
   41.2640   30.9110   44.5140 H   0  0  0  0  0  0  0  0  0  0  0  0
   41.8060   30.5410   42.1540 H   0  0  0  0  0  0  0  0  0  0  0  0
   40.0560   29.6840   40.6150 H   0  0  0  0  0  0  0  0  0  0  0  0
   37.4890   29.0810   41.2820 C   0  0  0  0  0  0  0  0  0  0  0  0
   37.3950   27.7180   41.0280 C   0  0  0  0  0  0  0  0  0  0  0  0
   37.9750   26.8370   41.3440 H   0  0  0  0  0  0  0  0  0  0  0  0
   35.8900   27.6170   39.8870 S   0  0  0  0  0  0  0  0  0  0  0  0
   35.7050   29.5000   40.0030 C   0  0  0  0  0  0  0  0  0  0  0  0
   34.9660   30.3300   39.5610 H   0  0  0  0  0  0  0  0  0  0  0  0
   36.5530   29.7980   40.6770 N   0  0  0  0  0  0  0  0  0  0  0  0
   38.8640   30.4620   45.6520 O   0  0  0  0  0  0  0  0  0  0  0  0
   39.4440   32.5060   47.1160 O   0  0  0  0  0  0  0  0  0  0  0  0
   38.3060   31.8410   46.4260 P   0  0  1  0  0  0  0  0  0  0  0  0
   37.7280   32.8440   45.1710 O   0  0  0  0  0  0  0  0  0  0  0  0
   38.5200   33.2970   44.7580 H   0  0  0  0  0  0  0  0  0  0  0  0
   37.0250   31.4250   47.4550 O   0  0  0  0  0  0  0  0  0  0  0  0
   37.6160   30.5260   50.9890 C   0  0  0  0  0  0  0  0  0  0  0  0
   37.7100   31.3060   49.8360 C   0  0  0  0  0  0  0  0  0  0  0  0
   37.0730   30.8490   48.6760 C   0  0  0  0  0  0  0  0  0  0  0  0
   36.3960   29.6650   48.7420 N   0  0  0  0  0  0  0  0  0  0  0  0
   36.3260   28.9380   49.8760 C   0  0  0  0  0  0  0  0  0  0  0  0
   36.9350   29.3690   50.9940 N   0  0  0  0  0  0  0  0  0  0  0  0
   38.1370   30.9700   51.8090 H   0  0  0  0  0  0  0  0  0  0  0  0
   38.2160   32.2330   49.7120 H   0  0  0  0  0  0  0  0  0  0  0  0
   35.7900   27.9990   49.9280 H   0  0  0  0  0  0  0  0  0  0  0  0
  2  1  1  0  0  0  0
  2  3  1  0  0  0  0
  3 18  1  0  0  0  0
  4  3  2  0  0  0  0
  4  8  1  0  0  0  0
  5  4  1  0  0  0  0
  6  7  1  0  0  0  0
  6  5  2  0  0  0  0
  7  2  2  0  0  0  0
  9  5  1  0  0  0  0
 10  6  1  0  0  0  0
 11  7  1  0  0  0  0
 12 11  2  0  0  0  0
 12 13  1  0  0  0  0
 14 15  1  0  0  0  0
 14 12  1  0  0  0  0
 15 17  2  0  0  0  0
 16 15  1  0  0  0  0
 17 11  1  0  0  0  0
 18 20  1  0  0  0  0
 20 19  2  1  0  0  0
 20 23  1  0  0  0  0
 21 20  1  0  0  0  0
 22 21  1  0  0  0  0
 23 26  1  0  0  0  0
 24 29  1  0  0  0  0
 24 30  1  0  0  0  0
 25 24  2  0  0  0  0
 26 27  2  0  0  0  0
 26 25  1  0  0  0  0
 27 28  1  0  0  0  0
 28 32  1  0  0  0  0
 28 29  2  0  0  0  0
 31 25  1  0  0  0  0
M  END
>  <minimizedAffinity>
-4.7912569

>  <minimizedRMSD>
0.201193303

$$$$
