
 OpenBabel03272500563D

 33 35  0  0  0  0  0  0  0  0999 V2000
   38.0990   31.8860   47.4250 C   0  0  0  0  0  0  0  0  0  0  0  0
   38.5600   32.8060   48.3280 C   0  0  0  0  0  0  0  0  0  0  0  0
   38.0560   32.8740   49.6240 C   0  0  0  0  0  0  0  0  0  0  0  0
   37.0180   31.9290   49.9910 C   0  0  0  0  0  0  0  0  0  0  0  0
   36.6070   31.0420   49.0470 C   0  0  0  0  0  0  0  0  0  0  0  0
   37.0930   30.9820   47.8000 C   0  0  0  0  0  0  0  0  0  0  0  0
   39.3440   33.5340   48.0820 H   0  0  0  0  0  0  0  0  0  0  0  0
   38.4500   33.6180   50.3030 H   0  0  0  0  0  0  0  0  0  0  0  0
   36.7300   32.0960   51.0070 H   0  0  0  0  0  0  0  0  0  0  0  0
   35.8650   30.4320   49.5370 H   0  0  0  0  0  0  0  0  0  0  0  0
   40.0080   31.2790   46.0130 C   0  0  0  0  0  0  0  0  0  0  0  0
   38.7430   31.9230   46.1280 C   0  0  0  0  0  0  0  0  0  0  0  0
   38.2770   32.5030   44.9740 C   0  0  0  0  0  0  0  0  0  0  0  0
   38.9900   32.4460   43.8380 N   0  0  0  0  0  0  0  0  0  0  0  0
   40.1750   31.8380   43.7490 C   0  0  0  0  0  0  0  0  0  0  0  0
   40.6690   31.2620   44.8400 N   0  0  0  0  0  0  0  0  0  0  0  0
   40.4310   30.7990   46.9030 H   0  0  0  0  0  0  0  0  0  0  0  0
   37.3170   32.9920   45.0600 H   0  0  0  0  0  0  0  0  0  0  0  0
   40.7720   31.7770   42.8460 H   0  0  0  0  0  0  0  0  0  0  0  0
   35.1310   30.0030   46.9520 C   0  0  0  0  0  0  0  0  0  0  0  0
   34.5080   30.6710   47.8630 O   0  0  0  0  0  0  0  0  0  0  0  0
   36.6120   30.0820   46.8830 N   0  0  0  0  0  0  0  0  0  0  0  0
   37.1150   29.4880   46.1940 H   0  0  0  0  0  0  0  0  0  0  0  0
   34.4930   29.1760   45.9800 O   0  0  0  0  0  0  0  0  0  0  0  0
   33.4080   29.6570   45.2720 C   0  0  0  0  0  0  0  0  0  0  0  0
   33.6890   30.5660   44.4320 O   0  0  0  0  0  0  0  0  0  0  0  0
   31.9720   29.2890   45.3380 C   0  0  0  0  0  0  0  0  0  0  0  0
   31.5500   28.2800   44.4720 C   0  0  0  0  0  0  0  0  0  0  0  0
   31.9360   27.6180   43.7020 H   0  0  0  0  0  0  0  0  0  0  0  0
   29.7740   28.1440   44.8770 S   0  0  0  0  0  0  0  0  0  0  0  0
   29.9050   29.5050   46.1790 C   0  0  0  0  0  0  0  0  0  0  0  0
   29.2290   30.0630   46.9330 H   0  0  0  0  0  0  0  0  0  0  0  0
   31.0210   29.7740   46.1040 N   0  0  0  0  0  0  0  0  0  0  0  0
  1  6  2  0  0  0  0
  1  2  1  0  0  0  0
  2  3  2  0  0  0  0
  3  4  1  0  0  0  0
  3  8  1  0  0  0  0
  4  9  1  0  0  0  0
  5 10  1  0  0  0  0
  5  4  2  0  0  0  0
  6  5  1  0  0  0  0
  7  2  1  0  0  0  0
 11 12  1  0  0  0  0
 11 17  1  0  0  0  0
 12  1  1  0  0  0  0
 13 18  1  0  0  0  0
 13 12  2  0  0  0  0
 14 13  1  0  0  0  0
 15 14  2  0  0  0  0
 15 16  1  0  0  0  0
 16 11  2  0  0  0  0
 19 15  1  0  0  0  0
 20 21  2  0  0  0  0
 22 20  1  0  0  0  0
 22  6  1  0  0  0  0
 23 22  1  0  0  0  0
 24 20  1  0  0  0  0
 25 27  1  0  0  0  0
 25 24  1  0  0  0  0
 26 25  2  0  0  0  0
 27 33  1  0  0  0  0
 28 30  1  0  0  0  0
 28 27  2  0  0  0  0
 29 28  1  0  0  0  0
 30 31  1  0  0  0  0
 31 32  1  0  0  0  0
 33 31  2  0  0  0  0
M  END
>  <minimizedAffinity>
-5.32166433

>  <minimizedRMSD>
0.252278179

$$$$
