
 OpenBabel03272508153D

 28 30  0  0  0  0  0  0  0  0999 V2000
   34.6600   30.6790   47.7220 Cl  0  0  0  0  0  0  0  0  0  0  0  0
   35.9520   30.5090   46.5800 C   0  0  0  0  0  0  0  0  0  0  0  0
   35.5680   29.9220   45.4050 C   0  0  0  0  0  0  0  0  0  0  0  0
   36.5460   29.7490   44.3960 C   0  0  0  0  0  0  0  0  0  0  0  0
   37.8330   30.1480   44.5730 C   0  0  0  0  0  0  0  0  0  0  0  0
   38.1830   30.7360   45.7720 C   0  0  0  0  0  0  0  0  0  0  0  0
   39.8290   31.2760   46.0220 Cl  0  0  0  0  0  0  0  0  0  0  0  0
   37.2440   30.9070   46.7560 C   0  0  0  0  0  0  0  0  0  0  0  0
   36.3380   29.2970   43.4350 H   0  0  0  0  0  0  0  0  0  0  0  0
   38.6010   30.0280   43.8160 H   0  0  0  0  0  0  0  0  0  0  0  0
   34.0070   28.0280   45.2280 C   0  0  0  0  0  0  0  0  0  0  0  0
   34.2560   29.4080   44.9870 C   0  0  0  0  0  0  0  0  0  0  0  0
   33.2690   30.1630   44.3900 C   0  0  0  0  0  0  0  0  0  0  0  0
   32.0990   29.5530   44.0550 N   0  0  0  0  0  0  0  0  0  0  0  0
   31.8910   28.2310   44.2990 C   0  0  0  0  0  0  0  0  0  0  0  0
   32.8420   27.4780   44.8810 N   0  0  0  0  0  0  0  0  0  0  0  0
   34.7270   27.3640   45.6930 H   0  0  0  0  0  0  0  0  0  0  0  0
   33.4750   31.2100   44.2150 H   0  0  0  0  0  0  0  0  0  0  0  0
   30.9000   27.9500   43.9570 H   0  0  0  0  0  0  0  0  0  0  0  0
   37.5830   31.5010   48.0470 C   0  0  0  0  0  0  0  0  0  0  0  0
   38.0040   32.6740   48.2690 O   0  0  0  0  0  0  0  0  0  0  0  0
   37.4230   30.6410   49.2460 C   0  0  0  0  0  0  0  0  0  0  0  0
   37.6000   31.3200   50.5620 C   0  0  0  0  0  0  0  0  0  0  0  0
   37.8110   32.2850   50.8980 H   0  0  0  0  0  0  0  0  0  0  0  0
   37.3530   29.9780   51.7420 S   0  0  0  0  0  0  0  0  0  0  0  0
   37.0540   28.7240   50.3460 C   0  0  0  0  0  0  0  0  0  0  0  0
   36.8180   27.6130   50.2080 H   0  0  0  0  0  0  0  0  0  0  0  0
   37.1560   29.3420   49.3740 N   0  0  0  0  0  0  0  0  0  0  0  0
  2  8  1  0  0  0  0
  2  1  1  0  0  0  0
  3  2  2  0  0  0  0
  4  5  2  0  0  0  0
  4  3  1  0  0  0  0
  5  6  1  0  0  0  0
  6  7  1  0  0  0  0
  6  8  2  0  0  0  0
  8 20  1  0  0  0  0
  9  4  1  0  0  0  0
 10  5  1  0  0  0  0
 11 17  1  0  0  0  0
 12 11  1  0  0  0  0
 12  3  1  0  0  0  0
 13 12  2  0  0  0  0
 14 15  2  0  0  0  0
 14 13  1  0  0  0  0
 15 16  1  0  0  0  0
 16 11  2  0  0  0  0
 18 13  1  0  0  0  0
 19 15  1  0  0  0  0
 20 21  2  0  0  0  0
 20 22  1  0  0  0  0
 22 28  1  0  0  0  0
 22 23  2  0  0  0  0
 23 24  1  0  0  0  0
 23 25  1  0  0  0  0
 26 25  1  0  0  0  0
 27 26  1  0  0  0  0
 28 26  2  0  0  0  0
M  END
>  <minimizedAffinity>
-4.0471344

>  <minimizedRMSD>
3.39553952

$$$$
