
 OpenBabel03262523563D

 36 38  0  0  1  0  0  0  0  0999 V2000
   37.7850   30.4320   47.8210 C   0  0  1  0  0  0  0  0  0  0  0  0
   37.0400   30.6020   46.5820 C   0  0  0  0  0  0  0  0  0  0  0  0
   38.0120   30.6260   45.4420 C   0  0  0  0  0  0  0  0  0  0  0  0
   39.1940   31.4620   45.7650 C   0  0  0  0  0  0  0  0  0  0  0  0
   39.0530   32.3850   46.9030 C   0  0  0  0  0  0  0  0  0  0  0  0
   38.4470   31.7700   48.1640 C   0  0  1  0  0  0  0  0  0  0  0  0
   38.6520   29.7410   47.6820 H   0  0  0  0  0  0  0  0  0  0  0  0
   36.5160   31.6010   46.5510 H   0  0  0  0  0  0  0  0  0  0  0  0
   36.2520   29.8140   46.4360 H   0  0  0  0  0  0  0  0  0  0  0  0
   37.5040   30.9290   44.5030 H   0  0  0  0  0  0  0  0  0  0  0  0
   38.3420   29.5630   45.2770 H   0  0  0  0  0  0  0  0  0  0  0  0
   39.4120   32.0750   44.8650 H   0  0  0  0  0  0  0  0  0  0  0  0
   40.0970   30.8290   45.9170 H   0  0  0  0  0  0  0  0  0  0  0  0
   40.0510   32.7710   47.1950 H   0  0  0  0  0  0  0  0  0  0  0  0
   38.4630   33.3130   46.6690 H   0  0  0  0  0  0  0  0  0  0  0  0
   39.2560   31.5400   48.8900 H   0  0  0  0  0  0  0  0  0  0  0  0
   37.0040   29.3500   51.2870 C   0  0  0  0  0  0  0  0  0  0  0  0
   37.7570   29.7410   50.1460 C   0  0  0  0  0  0  0  0  0  0  0  0
   37.0160   30.0460   49.0110 C   0  0  0  0  0  0  0  0  0  0  0  0
   35.6300   29.9640   49.0290 N   0  0  0  0  0  0  0  0  0  0  0  0
   34.9630   29.5900   50.1290 C   0  0  0  0  0  0  0  0  0  0  0  0
   35.6460   29.2780   51.2740 N   0  0  0  0  0  0  0  0  0  0  0  0
   37.5240   29.0970   52.2090 H   0  0  0  0  0  0  0  0  0  0  0  0
   38.8290   29.7880   50.1830 H   0  0  0  0  0  0  0  0  0  0  0  0
   33.8920   29.5670   50.0100 H   0  0  0  0  0  0  0  0  0  0  0  0
   37.7510   33.7550   49.7460 C   0  0  0  0  0  0  0  0  0  0  0  0
   38.9550   33.9140   50.0200 O   0  0  0  0  0  0  0  0  0  0  0  0
   37.5650   32.7070   48.8010 N   0  0  0  0  0  0  0  0  0  0  0  0
   36.5710   32.5270   48.4460 H   0  0  0  0  0  0  0  0  0  0  0  0
   36.6710   34.5410   50.3210 C   0  0  0  0  0  0  0  0  0  0  0  0
   35.8200   35.2430   49.4070 C   0  0  0  0  0  0  0  0  0  0  0  0
   35.8370   35.2930   48.3950 H   0  0  0  0  0  0  0  0  0  0  0  0
   34.6890   36.0340   50.5310 S   0  0  0  0  0  0  0  0  0  0  0  0
   35.5290   35.3010   52.0830 C   0  0  0  0  0  0  0  0  0  0  0  0
   35.2720   35.4330   53.1260 H   0  0  0  0  0  0  0  0  0  0  0  0
   36.4900   34.5980   51.6390 N   0  0  0  0  0  0  0  0  0  0  0  0
  1  7  1  6  0  0  0
  1  6  1  0  0  0  0
  1 19  1  0  0  0  0
  2  1  1  0  0  0  0
  3  4  1  0  0  0  0
  3  2  1  0  0  0  0
  4 13  1  0  0  0  0
  4  5  1  0  0  0  0
  5 14  1  0  0  0  0
  5  6  1  0  0  0  0
  6 28  1  0  0  0  0
  6 16  1  1  0  0  0
  8  2  1  0  0  0  0
  9  2  1  0  0  0  0
 10  3  1  0  0  0  0
 11  3  1  0  0  0  0
 12  4  1  0  0  0  0
 15  5  1  0  0  0  0
 17 23  1  0  0  0  0
 18 24  1  0  0  0  0
 18 17  2  0  0  0  0
 19 20  2  0  0  0  0
 19 18  1  0  0  0  0
 20 21  1  0  0  0  0
 21 22  2  0  0  0  0
 22 17  1  0  0  0  0
 25 21  1  0  0  0  0
 26 27  2  0  0  0  0
 26 30  1  0  0  0  0
 28 26  1  0  0  0  0
 29 28  1  0  0  0  0
 30 36  1  0  0  0  0
 31 30  2  0  0  0  0
 31 33  1  0  0  0  0
 32 31  1  0  0  0  0
 33 34  1  0  0  0  0
 34 35  1  0  0  0  0
 36 34  2  0  0  0  0
M  END
>  <minimizedAffinity>
4.53756094

>  <minimizedRMSD>
0.896295726

$$$$
