
 OpenBabel03272507413D

 39 42  0  0  0  0  0  0  0  0999 V2000
   36.6680   32.2390   49.2100 O   0  0  0  0  0  0  0  0  0  0  0  0
   38.1900   32.2150   47.2680 C   0  0  0  0  0  0  0  0  0  0  0  0
   37.7930   32.6450   48.5280 C   0  0  0  0  0  0  0  0  0  0  0  0
   38.5570   33.5670   49.2170 C   0  0  0  0  0  0  0  0  0  0  0  0
   39.7210   34.0650   48.6520 C   0  0  0  0  0  0  0  0  0  0  0  0
   40.1120   33.6350   47.3990 C   0  0  0  0  0  0  0  0  0  0  0  0
   39.3290   32.7170   46.7410 C   0  0  0  0  0  0  0  0  0  0  0  0
   38.3090   33.9460   50.2000 H   0  0  0  0  0  0  0  0  0  0  0  0
   40.3390   34.7770   49.1490 H   0  0  0  0  0  0  0  0  0  0  0  0
   41.0210   34.0230   46.9560 H   0  0  0  0  0  0  0  0  0  0  0  0
   39.7590   32.2610   45.3930 C   0  0  0  0  0  0  0  0  0  0  0  0
   40.5680   31.2100   45.0380 C   0  0  0  0  0  0  0  0  0  0  0  0
   40.6620   31.2100   43.6500 C   0  0  0  0  0  0  0  0  0  0  0  0
   39.8910   32.2810   43.2430 C   0  0  0  0  0  0  0  0  0  0  0  0
   39.3680   32.8870   44.2950 O   0  0  0  0  0  0  0  0  0  0  0  0
   41.0070   30.5520   45.7900 H   0  0  0  0  0  0  0  0  0  0  0  0
   41.2430   30.4810   43.0950 H   0  0  0  0  0  0  0  0  0  0  0  0
   39.7640   32.5480   42.2060 H   0  0  0  0  0  0  0  0  0  0  0  0
   36.6780   30.5040   46.0830 N   0  0  0  0  0  0  0  0  0  0  0  0
   37.3500   31.2640   46.6230 C   0  0  0  0  0  0  0  0  0  0  0  0
   36.6090   31.1840   50.0480 C   0  0  0  0  0  0  0  0  0  0  0  0
   35.5380   30.3340   49.7840 C   0  0  0  0  0  0  0  0  0  0  0  0
   35.3050   29.2040   50.5280 C   0  0  0  0  0  0  0  0  0  0  0  0
   36.1690   28.9400   51.5460 N   0  0  0  0  0  0  0  0  0  0  0  0
   37.2190   29.7770   51.8010 C   0  0  0  0  0  0  0  0  0  0  0  0
   37.4150   30.8590   51.0650 N   0  0  0  0  0  0  0  0  0  0  0  0
   34.4980   28.5040   50.3800 H   0  0  0  0  0  0  0  0  0  0  0  0
   37.9010   29.5590   52.6110 H   0  0  0  0  0  0  0  0  0  0  0  0
   34.2100   29.4320   47.9110 C   0  0  0  0  0  0  0  0  0  0  0  0
   34.7020   28.2240   47.7840 O   0  0  0  0  0  0  0  0  0  0  0  0
   34.5910   30.5060   48.7550 N   0  0  0  0  0  0  0  0  0  0  0  0
   34.1580   31.4390   48.6020 H   0  0  0  0  0  0  0  0  0  0  0  0
   33.0520   29.6920   47.0020 C   0  0  0  0  0  0  0  0  0  0  0  0
   32.1280   28.6970   46.9270 C   0  0  0  0  0  0  0  0  0  0  0  0
   31.8600   27.7030   47.2880 H   0  0  0  0  0  0  0  0  0  0  0  0
   30.8530   29.3210   45.7430 S   0  0  0  0  0  0  0  0  0  0  0  0
   31.8720   30.9320   45.5470 C   0  0  0  0  0  0  0  0  0  0  0  0
   32.0130   32.0830   45.0170 H   0  0  0  0  0  0  0  0  0  0  0  0
   32.7460   30.7180   46.2430 N   0  0  0  0  0  0  0  0  0  0  0  0
  1 21  1  0  0  0  0
  2  3  1  0  0  0  0
  3  1  1  0  0  0  0
  3  4  2  0  0  0  0
  4  8  1  0  0  0  0
  5  9  1  0  0  0  0
  5  4  1  0  0  0  0
  6  5  2  0  0  0  0
  7  2  2  0  0  0  0
  7  6  1  0  0  0  0
 10  6  1  0  0  0  0
 11  7  1  0  0  0  0
 12 11  2  0  0  0  0
 12 16  1  0  0  0  0
 13 12  1  0  0  0  0
 14 13  2  0  0  0  0
 14 15  1  0  0  0  0
 15 11  1  0  0  0  0
 17 13  1  0  0  0  0
 18 14  1  0  0  0  0
 19 20  3  0  0  0  0
 20  2  1  0  0  0  0
 21 26  1  0  0  0  0
 22 21  2  0  0  0  0
 22 23  1  0  0  0  0
 23 24  2  0  0  0  0
 24 25  1  0  0  0  0
 25 28  1  0  0  0  0
 26 25  2  0  0  0  0
 27 23  1  0  0  0  0
 29 31  1  0  0  0  0
 30 29  2  0  0  0  0
 31 22  1  0  0  0  0
 32 31  1  0  0  0  0
 33 29  1  0  0  0  0
 34 33  2  0  0  0  0
 34 35  1  0  0  0  0
 36 34  1  0  0  0  0
 37 36  1  0  0  0  0
 37 39  2  0  0  0  0
 38 37  1  0  0  0  0
 39 33  1  0  0  0  0
M  END
>  <minimizedAffinity>
-5.96563911

>  <minimizedRMSD>
0.414168656

$$$$
