
 OpenBabel03272507413D

 39 42  0  0  0  0  0  0  0  0999 V2000
   36.6440   32.1650   49.1440 O   0  0  0  0  0  0  0  0  0  0  0  0
   38.1660   32.1310   47.2030 C   0  0  0  0  0  0  0  0  0  0  0  0
   37.7650   32.5740   48.4560 C   0  0  0  0  0  0  0  0  0  0  0  0
   38.5180   33.5130   49.1330 C   0  0  0  0  0  0  0  0  0  0  0  0
   39.6770   34.0170   48.5610 C   0  0  0  0  0  0  0  0  0  0  0  0
   40.0730   33.5730   47.3130 C   0  0  0  0  0  0  0  0  0  0  0  0
   39.2990   32.6380   46.6680 C   0  0  0  0  0  0  0  0  0  0  0  0
   38.2660   33.9030   50.1100 H   0  0  0  0  0  0  0  0  0  0  0  0
   40.2870   34.7420   49.0480 H   0  0  0  0  0  0  0  0  0  0  0  0
   40.9770   33.9650   46.8650 H   0  0  0  0  0  0  0  0  0  0  0  0
   39.7340   32.1680   45.3260 C   0  0  0  0  0  0  0  0  0  0  0  0
   40.6050   31.1620   44.9880 C   0  0  0  0  0  0  0  0  0  0  0  0
   40.6740   31.1240   43.5990 C   0  0  0  0  0  0  0  0  0  0  0  0
   39.8250   32.1270   43.1740 C   0  0  0  0  0  0  0  0  0  0  0  0
   39.2820   32.7310   44.2180 O   0  0  0  0  0  0  0  0  0  0  0  0
   41.1010   30.5590   45.7510 H   0  0  0  0  0  0  0  0  0  0  0  0
   41.2920   30.4180   43.0550 H   0  0  0  0  0  0  0  0  0  0  0  0
   39.6610   32.3510   42.1320 H   0  0  0  0  0  0  0  0  0  0  0  0
   36.6720   30.3880   46.0410 N   0  0  0  0  0  0  0  0  0  0  0  0
   37.3360   31.1620   46.5700 C   0  0  0  0  0  0  0  0  0  0  0  0
   36.6110   31.1640   50.0470 C   0  0  0  0  0  0  0  0  0  0  0  0
   35.5500   30.2840   49.8520 C   0  0  0  0  0  0  0  0  0  0  0  0
   35.3440   29.2000   50.6670 C   0  0  0  0  0  0  0  0  0  0  0  0
   36.2250   29.0110   51.6870 N   0  0  0  0  0  0  0  0  0  0  0  0
   37.2660   29.8770   51.8750 C   0  0  0  0  0  0  0  0  0  0  0  0
   37.4360   30.9140   51.0700 N   0  0  0  0  0  0  0  0  0  0  0  0
   34.5460   28.4800   50.5740 H   0  0  0  0  0  0  0  0  0  0  0  0
   37.9610   29.7200   52.6880 H   0  0  0  0  0  0  0  0  0  0  0  0
   34.2090   29.2470   48.0590 C   0  0  0  0  0  0  0  0  0  0  0  0
   34.7150   28.0390   48.0030 O   0  0  0  0  0  0  0  0  0  0  0  0
   34.5880   30.3780   48.8270 N   0  0  0  0  0  0  0  0  0  0  0  0
   34.1400   31.2940   48.6200 H   0  0  0  0  0  0  0  0  0  0  0  0
   33.0360   29.4340   47.1520 C   0  0  0  0  0  0  0  0  0  0  0  0
   33.0660   30.5500   46.3740 C   0  0  0  0  0  0  0  0  0  0  0  0
   33.6430   31.4390   46.1180 H   0  0  0  0  0  0  0  0  0  0  0  0
   31.5030   30.4850   45.3890 S   0  0  0  0  0  0  0  0  0  0  0  0
   31.0560   28.8420   46.2700 C   0  0  0  0  0  0  0  0  0  0  0  0
   30.2480   27.8690   46.4320 H   0  0  0  0  0  0  0  0  0  0  0  0
   31.9570   28.7150   46.9540 N   0  0  0  0  0  0  0  0  0  0  0  0
  1 21  1  0  0  0  0
  2  3  1  0  0  0  0
  3  4  2  0  0  0  0
  3  1  1  0  0  0  0
  4  8  1  0  0  0  0
  5  9  1  0  0  0  0
  5  4  1  0  0  0  0
  6  5  2  0  0  0  0
  7  2  2  0  0  0  0
  7  6  1  0  0  0  0
 10  6  1  0  0  0  0
 11  7  1  0  0  0  0
 12 11  2  0  0  0  0
 12 16  1  0  0  0  0
 13 12  1  0  0  0  0
 14 13  2  0  0  0  0
 14 15  1  0  0  0  0
 15 11  1  0  0  0  0
 17 13  1  0  0  0  0
 18 14  1  0  0  0  0
 19 20  3  0  0  0  0
 20  2  1  0  0  0  0
 21 26  1  0  0  0  0
 22 21  2  0  0  0  0
 22 23  1  0  0  0  0
 23 24  2  0  0  0  0
 24 25  1  0  0  0  0
 25 28  1  0  0  0  0
 26 25  2  0  0  0  0
 27 23  1  0  0  0  0
 29 31  1  0  0  0  0
 30 29  2  0  0  0  0
 31 22  1  0  0  0  0
 32 31  1  0  0  0  0
 33 29  1  0  0  0  0
 34 33  2  0  0  0  0
 35 34  1  0  0  0  0
 36 37  1  0  0  0  0
 36 34  1  0  0  0  0
 37 38  1  0  0  0  0
 37 39  2  0  0  0  0
 39 33  1  0  0  0  0
M  END
>  <minimizedAffinity>
-5.83937168

>  <minimizedRMSD>
0.517227769

$$$$
