
 OpenBabel03272507413D

 39 42  0  0  0  0  0  0  0  0999 V2000
   36.7690   32.2030   49.0890 O   0  0  0  0  0  0  0  0  0  0  0  0
   38.2420   32.1620   47.1110 C   0  0  0  0  0  0  0  0  0  0  0  0
   37.8740   32.6060   48.3740 C   0  0  0  0  0  0  0  0  0  0  0  0
   38.6490   33.5410   49.0320 C   0  0  0  0  0  0  0  0  0  0  0  0
   39.7960   34.0380   48.4320 C   0  0  0  0  0  0  0  0  0  0  0  0
   40.1590   33.5930   47.1750 C   0  0  0  0  0  0  0  0  0  0  0  0
   39.3650   32.6620   46.5490 C   0  0  0  0  0  0  0  0  0  0  0  0
   38.4230   33.9320   50.0160 H   0  0  0  0  0  0  0  0  0  0  0  0
   40.4230   34.7610   48.9040 H   0  0  0  0  0  0  0  0  0  0  0  0
   41.0540   33.9810   46.7050 H   0  0  0  0  0  0  0  0  0  0  0  0
   39.7640   32.1910   45.1970 C   0  0  0  0  0  0  0  0  0  0  0  0
   40.6210   31.1800   44.8370 C   0  0  0  0  0  0  0  0  0  0  0  0
   40.6550   31.1410   43.4460 C   0  0  0  0  0  0  0  0  0  0  0  0
   39.8020   32.1500   43.0430 C   0  0  0  0  0  0  0  0  0  0  0  0
   39.2880   32.7560   44.1000 O   0  0  0  0  0  0  0  0  0  0  0  0
   41.1330   30.5740   45.5870 H   0  0  0  0  0  0  0  0  0  0  0  0
   41.2560   30.4320   42.8870 H   0  0  0  0  0  0  0  0  0  0  0  0
   39.6130   32.3750   42.0060 H   0  0  0  0  0  0  0  0  0  0  0  0
   36.7110   30.4270   45.9860 N   0  0  0  0  0  0  0  0  0  0  0  0
   37.3920   31.1970   46.4990 C   0  0  0  0  0  0  0  0  0  0  0  0
   36.7540   31.2040   49.9950 C   0  0  0  0  0  0  0  0  0  0  0  0
   35.7110   30.3020   49.8000 C   0  0  0  0  0  0  0  0  0  0  0  0
   35.5250   29.2170   50.6180 C   0  0  0  0  0  0  0  0  0  0  0  0
   36.4070   29.0490   51.6410 N   0  0  0  0  0  0  0  0  0  0  0  0
   37.4290   29.9360   51.8290 C   0  0  0  0  0  0  0  0  0  0  0  0
   37.5810   30.9740   51.0220 N   0  0  0  0  0  0  0  0  0  0  0  0
   34.7410   28.4810   50.5260 H   0  0  0  0  0  0  0  0  0  0  0  0
   38.1260   29.7960   52.6450 H   0  0  0  0  0  0  0  0  0  0  0  0
   34.2870   29.2090   48.1080 C   0  0  0  0  0  0  0  0  0  0  0  0
   34.7060   27.9690   48.1580 O   0  0  0  0  0  0  0  0  0  0  0  0
   34.7500   30.3730   48.7730 N   0  0  0  0  0  0  0  0  0  0  0  0
   34.3670   31.2970   48.4860 H   0  0  0  0  0  0  0  0  0  0  0  0
   33.1220   29.3980   47.1900 C   0  0  0  0  0  0  0  0  0  0  0  0
   33.1450   30.5300   46.4360 C   0  0  0  0  0  0  0  0  0  0  0  0
   33.7120   31.4340   46.2070 H   0  0  0  0  0  0  0  0  0  0  0  0
   31.5970   30.4630   45.4290 S   0  0  0  0  0  0  0  0  0  0  0  0
   31.1640   28.7950   46.2690 C   0  0  0  0  0  0  0  0  0  0  0  0
   30.3690   27.8080   46.4000 H   0  0  0  0  0  0  0  0  0  0  0  0
   32.0570   28.6670   46.9620 N   0  0  0  0  0  0  0  0  0  0  0  0
  1 21  1  0  0  0  0
  2  3  1  0  0  0  0
  3  4  2  0  0  0  0
  3  1  1  0  0  0  0
  4  8  1  0  0  0  0
  5  9  1  0  0  0  0
  5  4  1  0  0  0  0
  6  5  2  0  0  0  0
  7  2  2  0  0  0  0
  7  6  1  0  0  0  0
 10  6  1  0  0  0  0
 11  7  1  0  0  0  0
 12 11  2  0  0  0  0
 12 16  1  0  0  0  0
 13 12  1  0  0  0  0
 14 13  2  0  0  0  0
 14 15  1  0  0  0  0
 15 11  1  0  0  0  0
 17 13  1  0  0  0  0
 18 14  1  0  0  0  0
 19 20  3  0  0  0  0
 20  2  1  0  0  0  0
 21 26  1  0  0  0  0
 22 21  2  0  0  0  0
 22 23  1  0  0  0  0
 23 24  2  0  0  0  0
 24 25  1  0  0  0  0
 25 28  1  0  0  0  0
 26 25  2  0  0  0  0
 27 23  1  0  0  0  0
 29 30  2  0  0  0  0
 29 31  1  0  0  0  0
 31 22  1  0  0  0  0
 32 31  1  0  0  0  0
 33 29  1  0  0  0  0
 34 33  2  0  0  0  0
 35 34  1  0  0  0  0
 36 37  1  0  0  0  0
 36 34  1  0  0  0  0
 37 38  1  0  0  0  0
 37 39  2  0  0  0  0
 39 33  1  0  0  0  0
M  END
>  <minimizedAffinity>
-5.87507296

>  <minimizedRMSD>
0.551680803

$$$$
