
 OpenBabel03272507413D

 39 42  0  0  0  0  0  0  0  0999 V2000
   36.5910   32.0570   49.0200 O   0  0  0  0  0  0  0  0  0  0  0  0
   38.1280   32.0700   47.0910 C   0  0  0  0  0  0  0  0  0  0  0  0
   37.7210   32.4770   48.3540 C   0  0  0  0  0  0  0  0  0  0  0  0
   38.4770   33.3880   49.0660 C   0  0  0  0  0  0  0  0  0  0  0  0
   39.6450   33.8980   48.5190 C   0  0  0  0  0  0  0  0  0  0  0  0
   40.0470   33.4910   47.2610 C   0  0  0  0  0  0  0  0  0  0  0  0
   39.2700   32.5830   46.5810 C   0  0  0  0  0  0  0  0  0  0  0  0
   38.2210   33.7490   50.0530 H   0  0  0  0  0  0  0  0  0  0  0  0
   40.2580   34.6020   49.0330 H   0  0  0  0  0  0  0  0  0  0  0  0
   40.9580   33.8880   46.8330 H   0  0  0  0  0  0  0  0  0  0  0  0
   39.7120   32.1520   45.2290 C   0  0  0  0  0  0  0  0  0  0  0  0
   40.5960   31.1660   44.8660 C   0  0  0  0  0  0  0  0  0  0  0  0
   40.6650   31.1620   43.4760 C   0  0  0  0  0  0  0  0  0  0  0  0
   39.8040   32.1640   43.0760 C   0  0  0  0  0  0  0  0  0  0  0  0
   39.2520   32.7350   44.1340 O   0  0  0  0  0  0  0  0  0  0  0  0
   41.1000   30.5520   45.6150 H   0  0  0  0  0  0  0  0  0  0  0  0
   41.2930   30.4780   42.9160 H   0  0  0  0  0  0  0  0  0  0  0  0
   39.6370   32.4110   42.0400 H   0  0  0  0  0  0  0  0  0  0  0  0
   36.6280   30.3780   45.8630 N   0  0  0  0  0  0  0  0  0  0  0  0
   37.2950   31.1300   46.4220 C   0  0  0  0  0  0  0  0  0  0  0  0
   36.5620   31.1000   49.9700 C   0  0  0  0  0  0  0  0  0  0  0  0
   35.4630   30.2520   49.8610 C   0  0  0  0  0  0  0  0  0  0  0  0
   35.2550   29.2150   50.7350 C   0  0  0  0  0  0  0  0  0  0  0  0
   36.1720   29.0400   51.7250 N   0  0  0  0  0  0  0  0  0  0  0  0
   37.2500   29.8750   51.8280 C   0  0  0  0  0  0  0  0  0  0  0  0
   37.4220   30.8660   50.9690 N   0  0  0  0  0  0  0  0  0  0  0  0
   34.4280   28.5230   50.7100 H   0  0  0  0  0  0  0  0  0  0  0  0
   37.9740   29.7290   52.6180 H   0  0  0  0  0  0  0  0  0  0  0  0
   34.1730   29.2440   48.0170 C   0  0  0  0  0  0  0  0  0  0  0  0
   34.7970   28.1050   47.8380 O   0  0  0  0  0  0  0  0  0  0  0  0
   34.4610   30.3350   48.8750 N   0  0  0  0  0  0  0  0  0  0  0  0
   33.9160   31.2140   48.7640 H   0  0  0  0  0  0  0  0  0  0  0  0
   32.9550   29.3860   47.1610 C   0  0  0  0  0  0  0  0  0  0  0  0
   32.9470   30.4590   46.3240 C   0  0  0  0  0  0  0  0  0  0  0  0
   33.5110   31.3320   45.9930 H   0  0  0  0  0  0  0  0  0  0  0  0
   31.3360   30.3480   45.4250 S   0  0  0  0  0  0  0  0  0  0  0  0
   30.9340   28.7560   46.4120 C   0  0  0  0  0  0  0  0  0  0  0  0
   30.1340   27.7970   46.6660 H   0  0  0  0  0  0  0  0  0  0  0  0
   31.8670   28.6620   47.0560 N   0  0  0  0  0  0  0  0  0  0  0  0
  1 21  1  0  0  0  0
  2  3  1  0  0  0  0
  3  1  1  0  0  0  0
  3  4  2  0  0  0  0
  4  8  1  0  0  0  0
  5  9  1  0  0  0  0
  5  4  1  0  0  0  0
  6  5  2  0  0  0  0
  7  2  2  0  0  0  0
  7  6  1  0  0  0  0
 10  6  1  0  0  0  0
 11  7  1  0  0  0  0
 12 11  2  0  0  0  0
 12 16  1  0  0  0  0
 13 12  1  0  0  0  0
 14 13  2  0  0  0  0
 14 15  1  0  0  0  0
 15 11  1  0  0  0  0
 17 13  1  0  0  0  0
 18 14  1  0  0  0  0
 19 20  3  0  0  0  0
 20  2  1  0  0  0  0
 21 26  1  0  0  0  0
 22 21  2  0  0  0  0
 22 23  1  0  0  0  0
 23 24  2  0  0  0  0
 24 25  1  0  0  0  0
 25 28  1  0  0  0  0
 26 25  2  0  0  0  0
 27 23  1  0  0  0  0
 29 31  1  0  0  0  0
 30 29  2  0  0  0  0
 31 22  1  0  0  0  0
 32 31  1  0  0  0  0
 33 29  1  0  0  0  0
 34 33  2  0  0  0  0
 35 34  1  0  0  0  0
 36 34  1  0  0  0  0
 36 37  1  0  0  0  0
 37 38  1  0  0  0  0
 37 39  2  0  0  0  0
 39 33  1  0  0  0  0
M  END
>  <minimizedAffinity>
-5.78538179

>  <minimizedRMSD>
0.605252445

$$$$
