
 OpenBabel03272507413D

 39 42  0  0  0  0  0  0  0  0999 V2000
   36.6440   32.1650   49.1420 O   0  0  0  0  0  0  0  0  0  0  0  0
   38.1660   32.1310   47.2000 C   0  0  0  0  0  0  0  0  0  0  0  0
   37.7650   32.5730   48.4540 C   0  0  0  0  0  0  0  0  0  0  0  0
   38.5190   33.5120   49.1300 C   0  0  0  0  0  0  0  0  0  0  0  0
   39.6780   34.0150   48.5580 C   0  0  0  0  0  0  0  0  0  0  0  0
   40.0730   33.5720   47.3110 C   0  0  0  0  0  0  0  0  0  0  0  0
   39.2990   32.6370   46.6650 C   0  0  0  0  0  0  0  0  0  0  0  0
   38.2670   33.9020   50.1080 H   0  0  0  0  0  0  0  0  0  0  0  0
   40.2890   34.7400   49.0450 H   0  0  0  0  0  0  0  0  0  0  0  0
   40.9780   33.9630   46.8630 H   0  0  0  0  0  0  0  0  0  0  0  0
   39.7340   32.1670   45.3240 C   0  0  0  0  0  0  0  0  0  0  0  0
   40.6080   31.1640   44.9850 C   0  0  0  0  0  0  0  0  0  0  0  0
   40.6740   31.1240   43.5960 C   0  0  0  0  0  0  0  0  0  0  0  0
   39.8210   32.1240   43.1720 C   0  0  0  0  0  0  0  0  0  0  0  0
   39.2770   32.7270   44.2150 O   0  0  0  0  0  0  0  0  0  0  0  0
   41.1080   30.5640   45.7480 H   0  0  0  0  0  0  0  0  0  0  0  0
   41.2940   30.4200   43.0520 H   0  0  0  0  0  0  0  0  0  0  0  0
   39.6540   32.3460   42.1300 H   0  0  0  0  0  0  0  0  0  0  0  0
   36.6710   30.3880   46.0390 N   0  0  0  0  0  0  0  0  0  0  0  0
   37.3350   31.1620   46.5680 C   0  0  0  0  0  0  0  0  0  0  0  0
   36.6110   31.1640   50.0450 C   0  0  0  0  0  0  0  0  0  0  0  0
   35.5500   30.2840   49.8510 C   0  0  0  0  0  0  0  0  0  0  0  0
   35.3440   29.2010   50.6680 C   0  0  0  0  0  0  0  0  0  0  0  0
   36.2250   29.0130   51.6880 N   0  0  0  0  0  0  0  0  0  0  0  0
   37.2660   29.8790   51.8750 C   0  0  0  0  0  0  0  0  0  0  0  0
   37.4360   30.9150   51.0690 N   0  0  0  0  0  0  0  0  0  0  0  0
   34.5450   28.4820   50.5760 H   0  0  0  0  0  0  0  0  0  0  0  0
   37.9620   29.7220   52.6870 H   0  0  0  0  0  0  0  0  0  0  0  0
   34.2100   29.2480   48.0590 C   0  0  0  0  0  0  0  0  0  0  0  0
   34.7170   28.0410   48.0010 O   0  0  0  0  0  0  0  0  0  0  0  0
   34.5870   30.3780   48.8270 N   0  0  0  0  0  0  0  0  0  0  0  0
   34.1380   31.2940   48.6210 H   0  0  0  0  0  0  0  0  0  0  0  0
   33.0350   29.4340   47.1520 C   0  0  0  0  0  0  0  0  0  0  0  0
   33.0650   30.5490   46.3730 C   0  0  0  0  0  0  0  0  0  0  0  0
   33.6400   31.4390   46.1170 H   0  0  0  0  0  0  0  0  0  0  0  0
   31.5020   30.4830   45.3890 S   0  0  0  0  0  0  0  0  0  0  0  0
   31.0560   28.8400   46.2700 C   0  0  0  0  0  0  0  0  0  0  0  0
   30.2480   27.8690   46.4330 H   0  0  0  0  0  0  0  0  0  0  0  0
   31.9570   28.7150   46.9540 N   0  0  0  0  0  0  0  0  0  0  0  0
  1 21  1  0  0  0  0
  2  3  1  0  0  0  0
  3  4  2  0  0  0  0
  3  1  1  0  0  0  0
  4  8  1  0  0  0  0
  5  9  1  0  0  0  0
  5  4  1  0  0  0  0
  6  5  2  0  0  0  0
  7  2  2  0  0  0  0
  7  6  1  0  0  0  0
 10  6  1  0  0  0  0
 11  7  1  0  0  0  0
 12 11  2  0  0  0  0
 12 16  1  0  0  0  0
 13 12  1  0  0  0  0
 14 13  2  0  0  0  0
 14 15  1  0  0  0  0
 15 11  1  0  0  0  0
 17 13  1  0  0  0  0
 18 14  1  0  0  0  0
 19 20  3  0  0  0  0
 20  2  1  0  0  0  0
 21 26  1  0  0  0  0
 22 21  2  0  0  0  0
 22 23  1  0  0  0  0
 23 24  2  0  0  0  0
 24 25  1  0  0  0  0
 25 28  1  0  0  0  0
 26 25  2  0  0  0  0
 27 23  1  0  0  0  0
 29 31  1  0  0  0  0
 30 29  2  0  0  0  0
 31 22  1  0  0  0  0
 32 31  1  0  0  0  0
 33 29  1  0  0  0  0
 34 33  2  0  0  0  0
 35 34  1  0  0  0  0
 36 37  1  0  0  0  0
 36 34  1  0  0  0  0
 37 38  1  0  0  0  0
 37 39  2  0  0  0  0
 39 33  1  0  0  0  0
M  END
>  <minimizedAffinity>
-5.83672094

>  <minimizedRMSD>
0.461225331

$$$$
