
 OpenBabel03272507273D

 37 39  0  0  1  0  0  0  0  0999 V2000
   37.3580   30.6760   49.2260 C   0  0  0  0  0  0  0  0  0  0  0  0
   38.2720   31.2250   48.3030 C   0  0  0  0  0  0  0  0  0  0  0  0
   37.8760   31.2830   46.9570 C   0  0  0  0  0  0  0  0  0  0  0  0
   36.6650   30.8180   46.6290 N   0  0  0  0  0  0  0  0  0  0  0  0
   35.8110   30.2970   47.5400 C   0  0  0  0  0  0  0  0  0  0  0  0
   36.1660   30.2320   48.8230 N   0  0  0  0  0  0  0  0  0  0  0  0
   38.7380   31.8160   45.9890 N   0  0  0  0  0  0  0  0  0  0  0  0
   39.7510   32.8480   46.2200 C   0  0  0  0  0  0  0  0  0  0  0  0
   40.2830   33.2580   44.8900 C   0  0  0  0  0  0  0  0  0  0  0  0
   39.2320   32.7890   43.9670 C   0  0  0  0  0  0  0  0  0  0  0  0
   38.8280   31.4870   44.5960 C   0  0  2  0  0  0  0  0  0  0  0  0
   37.6720   30.6370   50.2530 H   0  0  0  0  0  0  0  0  0  0  0  0
   39.2380   31.5930   48.5820 H   0  0  0  0  0  0  0  0  0  0  0  0
   34.8380   29.9310   47.2360 H   0  0  0  0  0  0  0  0  0  0  0  0
   39.3080   33.6810   46.8050 H   0  0  0  0  0  0  0  0  0  0  0  0
   40.5610   32.3370   46.8120 H   0  0  0  0  0  0  0  0  0  0  0  0
   40.3480   34.3870   44.9160 H   0  0  0  0  0  0  0  0  0  0  0  0
   41.3020   32.9320   44.6510 H   0  0  0  0  0  0  0  0  0  0  0  0
   39.5650   32.6680   42.9140 H   0  0  0  0  0  0  0  0  0  0  0  0
   38.3630   33.4620   43.9800 H   0  0  0  0  0  0  0  0  0  0  0  0
   37.6510   30.8480   43.9600 C   0  0  0  0  0  0  0  0  0  0  0  0
   36.5540   31.6370   44.3010 F   0  0  0  0  0  0  0  0  0  0  0  0
   37.3690   29.5740   44.3220 F   0  0  0  0  0  0  0  0  0  0  0  0
   37.8140   31.0040   42.5950 F   0  0  0  0  0  0  0  0  0  0  0  0
   39.9740   30.5420   44.4770 C   0  0  0  0  0  0  0  0  0  0  0  0
   39.8190   29.8250   45.3330 H   0  0  0  0  0  0  0  0  0  0  0  0
   40.8880   31.1300   44.7970 H   0  0  0  0  0  0  0  0  0  0  0  0
   40.1350   30.2760   43.2860 O   0  0  0  0  0  0  0  0  0  0  0  0
   40.5390   29.2580   42.4980 C   0  0  0  0  0  0  0  0  0  0  0  0
   41.7320   29.5170   42.0840 O   0  0  0  0  0  0  0  0  0  0  0  0
   40.0720   27.9450   41.9530 C   0  0  0  0  0  0  0  0  0  0  0  0
   39.2730   27.2250   42.9050 C   0  0  0  0  0  0  0  0  0  0  0  0
   38.8410   27.2050   43.8820 H   0  0  0  0  0  0  0  0  0  0  0  0
   38.8650   25.7690   42.0210 S   0  0  0  0  0  0  0  0  0  0  0  0
   39.8060   26.2650   40.4620 C   0  0  0  0  0  0  0  0  0  0  0  0
   40.0950   25.9700   39.4240 H   0  0  0  0  0  0  0  0  0  0  0  0
   40.1960   27.2780   40.8300 N   0  0  0  0  0  0  0  0  0  0  0  0
  1 12  1  0  0  0  0
  2 13  1  0  0  0  0
  2  1  2  0  0  0  0
  3  2  1  0  0  0  0
  4  3  2  0  0  0  0
  4  5  1  0  0  0  0
  5  6  2  0  0  0  0
  6  1  1  0  0  0  0
  7  8  1  0  0  0  0
  7  3  1  0  0  0  0
  8 15  1  0  0  0  0
  8 16  1  0  0  0  0
  9 17  1  0  0  0  0
  9  8  1  0  0  0  0
 10 20  1  0  0  0  0
 10 11  1  0  0  0  0
 10  9  1  0  0  0  0
 11 21  1  6  0  0  0
 11  7  1  0  0  0  0
 14  5  1  0  0  0  0
 18  9  1  0  0  0  0
 19 10  1  0  0  0  0
 21 22  1  0  0  0  0
 21 23  1  0  0  0  0
 24 21  1  0  0  0  0
 25 11  1  0  0  0  0
 25 27  1  0  0  0  0
 25 26  1  0  0  0  0
 28 25  1  0  0  0  0
 29 28  1  0  0  0  0
 30 29  2  0  0  0  0
 31 29  1  0  0  0  0
 31 32  2  0  0  0  0
 32 33  1  0  0  0  0
 34 32  1  0  0  0  0
 35 37  2  0  0  0  0
 35 34  1  0  0  0  0
 36 35  1  0  0  0  0
 37 31  1  0  0  0  0
M  END
>  <minimizedAffinity>
-5.07607937

>  <minimizedRMSD>
1.67944086

$$$$
