
 OpenBabel03272507273D

 37 39  0  0  1  0  0  0  0  0999 V2000
   36.8560   26.4720   30.9540 C   0  0  0  0  0  0  0  0  0  0  0  0
   37.6210   25.2870   30.9720 C   0  0  0  0  0  0  0  0  0  0  0  0
   36.9250   24.0690   31.0010 C   0  0  0  0  0  0  0  0  0  0  0  0
   35.5870   24.0990   31.0090 N   0  0  0  0  0  0  0  0  0  0  0  0
   34.8830   25.2550   30.9910 C   0  0  0  0  0  0  0  0  0  0  0  0
   35.5230   26.4230   30.9640 N   0  0  0  0  0  0  0  0  0  0  0  0
   37.6250   22.8540   31.0210 N   0  0  0  0  0  0  0  0  0  0  0  0
   38.9480   22.6200   30.4380 C   0  0  0  0  0  0  0  0  0  0  0  0
   39.2120   21.1550   30.5050 C   0  0  0  0  0  0  0  0  0  0  0  0
   37.8590   20.5940   30.6830 C   0  0  0  0  0  0  0  0  0  0  0  0
   37.2250   21.6030   31.5950 C   0  0  2  0  0  0  0  0  0  0  0  0
   37.4000   27.3980   30.9320 H   0  0  0  0  0  0  0  0  0  0  0  0
   38.6920   25.2800   30.9650 H   0  0  0  0  0  0  0  0  0  0  0  0
   33.8000   25.2390   30.9980 H   0  0  0  0  0  0  0  0  0  0  0  0
   38.9820   23.0380   29.4110 H   0  0  0  0  0  0  0  0  0  0  0  0
   39.6660   23.1670   31.1120 H   0  0  0  0  0  0  0  0  0  0  0  0
   39.6570   20.8740   29.5040 H   0  0  0  0  0  0  0  0  0  0  0  0
   39.9600   20.8280   31.2370 H   0  0  0  0  0  0  0  0  0  0  0  0
   37.8390   19.5660   31.1050 H   0  0  0  0  0  0  0  0  0  0  0  0
   37.3040   20.5900   29.7350 H   0  0  0  0  0  0  0  0  0  0  0  0
   35.7780   21.3810   31.8280 C   0  0  0  0  0  0  0  0  0  0  0  0
   35.1710   21.4490   30.5750 F   0  0  0  0  0  0  0  0  0  0  0  0
   35.1410   22.2580   32.6400 F   0  0  0  0  0  0  0  0  0  0  0  0
   35.6470   20.0650   32.2370 F   0  0  0  0  0  0  0  0  0  0  0  0
   37.9110   21.5280   32.9160 C   0  0  0  0  0  0  0  0  0  0  0  0
   38.9330   21.1220   32.6640 H   0  0  0  0  0  0  0  0  0  0  0  0
   37.4210   20.6660   33.4650 H   0  0  0  0  0  0  0  0  0  0  0  0
   37.6360   22.5440   33.5540 O   0  0  0  0  0  0  0  0  0  0  0  0
   38.1130   23.2860   34.5750 C   0  0  0  0  0  0  0  0  0  0  0  0
   38.0930   24.5240   34.2160 O   0  0  0  0  0  0  0  0  0  0  0  0
   38.6470   23.1560   35.9660 C   0  0  0  0  0  0  0  0  0  0  0  0
   37.7180   23.6540   36.9430 C   0  0  0  0  0  0  0  0  0  0  0  0
   36.7680   24.1030   37.1320 H   0  0  0  0  0  0  0  0  0  0  0  0
   38.5760   23.3740   38.4450 S   0  0  0  0  0  0  0  0  0  0  0  0
   40.0950   22.6180   37.6190 C   0  0  0  0  0  0  0  0  0  0  0  0
   41.1050   22.1670   37.7760 H   0  0  0  0  0  0  0  0  0  0  0  0
   39.7390   22.6990   36.5320 N   0  0  0  0  0  0  0  0  0  0  0  0
  1  6  2  0  0  0  0
  1  2  1  0  0  0  0
  2  3  2  0  0  0  0
  3  4  1  0  0  0  0
  3  7  1  0  0  0  0
  5 14  1  0  0  0  0
  5  4  2  0  0  0  0
  6  5  1  0  0  0  0
  7 11  1  0  0  0  0
  8  9  1  0  0  0  0
  8  7  1  0  0  0  0
  8 16  1  0  0  0  0
  9 10  1  0  0  0  0
  9 18  1  0  0  0  0
 10 19  1  0  0  0  0
 10 11  1  0  0  0  0
 11 21  1  1  0  0  0
 11 25  1  0  0  0  0
 12  1  1  0  0  0  0
 13  2  1  0  0  0  0
 15  8  1  0  0  0  0
 17  9  1  0  0  0  0
 20 10  1  0  0  0  0
 21 24  1  0  0  0  0
 21 23  1  0  0  0  0
 22 21  1  0  0  0  0
 25 27  1  0  0  0  0
 25 28  1  0  0  0  0
 26 25  1  0  0  0  0
 28 29  1  0  0  0  0
 29 31  1  0  0  0  0
 30 29  2  0  0  0  0
 31 37  1  0  0  0  0
 31 32  2  0  0  0  0
 32 33  1  0  0  0  0
 32 34  1  0  0  0  0
 35 36  1  0  0  0  0
 35 34  1  0  0  0  0
 37 35  2  0  0  0  0
M  END
>  <minimizedAffinity>
-5.15991735

$$$$

 OpenBabel03272507273D

 37 39  0  0  1  0  0  0  0  0999 V2000
   42.5680   21.7660   36.0320 C   0  0  0  0  0  0  0  0  0  0  0  0
   42.1750   22.9520   35.3780 C   0  0  0  0  0  0  0  0  0  0  0  0
   41.0170   23.5940   35.8460 C   0  0  0  0  0  0  0  0  0  0  0  0
   40.3590   23.0510   36.8770 N   0  0  0  0  0  0  0  0  0  0  0  0
   40.7650   21.9110   37.4830 C   0  0  0  0  0  0  0  0  0  0  0  0
   41.8610   21.2840   37.0550 N   0  0  0  0  0  0  0  0  0  0  0  0
   40.5690   24.7760   35.2390 N   0  0  0  0  0  0  0  0  0  0  0  0
   41.4160   25.7690   34.5740 C   0  0  0  0  0  0  0  0  0  0  0  0
   40.5600   26.9490   34.2640 C   0  0  0  0  0  0  0  0  0  0  0  0
   39.4140   26.7600   35.1730 C   0  0  0  0  0  0  0  0  0  0  0  0
   39.2290   25.2720   35.1310 C   0  0  2  0  0  0  0  0  0  0  0  0
   43.4560   21.2840   35.6660 H   0  0  0  0  0  0  0  0  0  0  0  0
   42.7120   23.3740   34.5540 H   0  0  0  0  0  0  0  0  0  0  0  0
   40.2060   21.5010   38.3150 H   0  0  0  0  0  0  0  0  0  0  0  0
   42.2910   26.0020   35.2140 H   0  0  0  0  0  0  0  0  0  0  0  0
   41.7470   25.2780   33.6160 H   0  0  0  0  0  0  0  0  0  0  0  0
   41.1730   27.8580   34.5400 H   0  0  0  0  0  0  0  0  0  0  0  0
   40.3060   27.1020   33.2080 H   0  0  0  0  0  0  0  0  0  0  0  0
   38.4960   27.3120   34.8780 H   0  0  0  0  0  0  0  0  0  0  0  0
   39.6730   27.0460   36.2020 H   0  0  0  0  0  0  0  0  0  0  0  0
   38.2240   24.7600   36.0930 C   0  0  0  0  0  0  0  0  0  0  0  0
   37.1080   25.5840   35.9590 F   0  0  0  0  0  0  0  0  0  0  0  0
   38.5700   24.7490   37.4020 F   0  0  0  0  0  0  0  0  0  0  0  0
   37.8310   23.5190   35.6230 F   0  0  0  0  0  0  0  0  0  0  0  0
   38.7710   24.9020   33.7620 C   0  0  0  0  0  0  0  0  0  0  0  0
   38.8080   23.7750   33.7620 H   0  0  0  0  0  0  0  0  0  0  0  0
   39.6220   25.1870   33.0690 H   0  0  0  0  0  0  0  0  0  0  0  0
   37.8240   25.6290   33.4600 O   0  0  0  0  0  0  0  0  0  0  0  0
   37.1910   26.1040   32.3680 C   0  0  0  0  0  0  0  0  0  0  0  0
   36.5310   25.1360   31.8310 O   0  0  0  0  0  0  0  0  0  0  0  0
   36.9970   27.3640   31.5840 C   0  0  0  0  0  0  0  0  0  0  0  0
   36.5530   28.4470   32.4160 C   0  0  0  0  0  0  0  0  0  0  0  0
   36.2810   28.7750   33.3950 H   0  0  0  0  0  0  0  0  0  0  0  0
   36.4220   29.7650   31.2680 S   0  0  0  0  0  0  0  0  0  0  0  0
   36.9750   28.7360   29.7850 C   0  0  0  0  0  0  0  0  0  0  0  0
   37.1840   28.7330   28.6880 H   0  0  0  0  0  0  0  0  0  0  0  0
   37.1340   27.7420   30.3350 N   0  0  0  0  0  0  0  0  0  0  0  0
  1  6  1  0  0  0  0
  2  3  1  0  0  0  0
  2  1  2  0  0  0  0
  3  4  2  0  0  0  0
  4  5  1  0  0  0  0
  5 14  1  0  0  0  0
  6  5  2  0  0  0  0
  7  3  1  0  0  0  0
  8 15  1  0  0  0  0
  8  7  1  0  0  0  0
  9 17  1  0  0  0  0
  9  8  1  0  0  0  0
  9 10  1  0  0  0  0
 10 20  1  0  0  0  0
 11 25  1  6  0  0  0
 11 10  1  0  0  0  0
 11  7  1  0  0  0  0
 11 21  1  0  0  0  0
 12  1  1  0  0  0  0
 13  2  1  0  0  0  0
 16  8  1  0  0  0  0
 18  9  1  0  0  0  0
 19 10  1  0  0  0  0
 21 23  1  0  0  0  0
 22 21  1  0  0  0  0
 24 21  1  0  0  0  0
 26 25  1  0  0  0  0
 27 25  1  0  0  0  0
 28 25  1  0  0  0  0
 29 28  1  0  0  0  0
 30 29  2  0  0  0  0
 31 29  1  0  0  0  0
 31 32  2  0  0  0  0
 32 33  1  0  0  0  0
 34 32  1  0  0  0  0
 35 37  2  0  0  0  0
 35 34  1  0  0  0  0
 36 35  1  0  0  0  0
 37 31  1  0  0  0  0
M  END
>  <minimizedAffinity>
-5.09208918

$$$$

 OpenBabel03272507273D

 37 39  0  0  1  0  0  0  0  0999 V2000
   37.4600   27.1360   34.1920 C   0  0  0  0  0  0  0  0  0  0  0  0
   37.4700   26.1510   35.2010 C   0  0  0  0  0  0  0  0  0  0  0  0
   38.6380   25.3860   35.3450 C   0  0  0  0  0  0  0  0  0  0  0  0
   39.6670   25.6320   34.5250 N   0  0  0  0  0  0  0  0  0  0  0  0
   39.6240   26.5860   33.5670 C   0  0  0  0  0  0  0  0  0  0  0  0
   38.5250   27.3250   33.4110 N   0  0  0  0  0  0  0  0  0  0  0  0
   38.7140   24.3890   36.3280 N   0  0  0  0  0  0  0  0  0  0  0  0
   37.9990   24.3920   37.6070 C   0  0  0  0  0  0  0  0  0  0  0  0
   38.5310   23.2600   38.4180 C   0  0  0  0  0  0  0  0  0  0  0  0
   39.8200   22.9740   37.7600 C   0  0  0  0  0  0  0  0  0  0  0  0
   39.4800   23.1770   36.3130 C   0  0  2  0  0  0  0  0  0  0  0  0
   36.5600   27.7150   34.0910 H   0  0  0  0  0  0  0  0  0  0  0  0
   36.6380   25.9660   35.8490 H   0  0  0  0  0  0  0  0  0  0  0  0
   40.4770   26.7570   32.9220 H   0  0  0  0  0  0  0  0  0  0  0  0
   38.1070   25.3840   38.0910 H   0  0  0  0  0  0  0  0  0  0  0  0
   36.9220   24.1970   37.3410 H   0  0  0  0  0  0  0  0  0  0  0  0
   38.6710   23.6670   39.4630 H   0  0  0  0  0  0  0  0  0  0  0  0
   37.8640   22.4000   38.5480 H   0  0  0  0  0  0  0  0  0  0  0  0
   40.2250   21.9590   37.9650 H   0  0  0  0  0  0  0  0  0  0  0  0
   40.5820   23.7130   38.0420 H   0  0  0  0  0  0  0  0  0  0  0  0
   40.6480   23.1100   35.4030 C   0  0  0  0  0  0  0  0  0  0  0  0
   41.5410   24.0830   35.8490 F   0  0  0  0  0  0  0  0  0  0  0  0
   40.4210   23.3350   34.0870 F   0  0  0  0  0  0  0  0  0  0  0  0
   41.2640   21.8950   35.6490 F   0  0  0  0  0  0  0  0  0  0  0  0
   38.5290   22.1040   35.9070 C   0  0  0  0  0  0  0  0  0  0  0  0
   38.1590   21.6890   36.8880 H   0  0  0  0  0  0  0  0  0  0  0  0
   39.1730   21.2650   35.4990 H   0  0  0  0  0  0  0  0  0  0  0  0
   37.8610   22.5170   34.9580 O   0  0  0  0  0  0  0  0  0  0  0  0
   37.4240   22.1150   33.7470 C   0  0  0  0  0  0  0  0  0  0  0  0
   37.4700   23.1250   32.9470 O   0  0  0  0  0  0  0  0  0  0  0  0
   36.9150   20.9050   33.0290 C   0  0  0  0  0  0  0  0  0  0  0  0
   35.6040   20.5290   33.4810 C   0  0  0  0  0  0  0  0  0  0  0  0
   34.7870   20.7340   34.1370 H   0  0  0  0  0  0  0  0  0  0  0  0
   35.2610   19.1250   32.4900 S   0  0  0  0  0  0  0  0  0  0  0  0
   36.9060   19.1780   31.5670 C   0  0  0  0  0  0  0  0  0  0  0  0
   37.5430   18.7000   30.7840 H   0  0  0  0  0  0  0  0  0  0  0  0
   37.3480   20.0990   32.0890 N   0  0  0  0  0  0  0  0  0  0  0  0
  1  2  1  0  0  0  0
  2  3  2  0  0  0  0
  2 13  1  0  0  0  0
  3  7  1  0  0  0  0
  4  3  1  0  0  0  0
  5  4  2  0  0  0  0
  6  5  1  0  0  0  0
  6  1  2  0  0  0  0
  7  8  1  0  0  0  0
  8 15  1  0  0  0  0
  8  9  1  0  0  0  0
  9 18  1  0  0  0  0
  9 17  1  0  0  0  0
 10 19  1  0  0  0  0
 10 20  1  0  0  0  0
 10  9  1  0  0  0  0
 11 21  1  6  0  0  0
 11  7  1  0  0  0  0
 11 10  1  0  0  0  0
 12  1  1  0  0  0  0
 14  5  1  0  0  0  0
 16  8  1  0  0  0  0
 21 24  1  0  0  0  0
 21 22  1  0  0  0  0
 23 21  1  0  0  0  0
 25 11  1  0  0  0  0
 25 26  1  0  0  0  0
 27 25  1  0  0  0  0
 28 25  1  0  0  0  0
 29 28  1  0  0  0  0
 30 29  2  0  0  0  0
 31 32  2  0  0  0  0
 31 29  1  0  0  0  0
 32 33  1  0  0  0  0
 34 32  1  0  0  0  0
 35 37  2  0  0  0  0
 35 34  1  0  0  0  0
 36 35  1  0  0  0  0
 37 31  1  0  0  0  0
M  END
>  <minimizedAffinity>
-5.06234837

$$$$

 OpenBabel03272507273D

 37 39  0  0  1  0  0  0  0  0999 V2000
   38.2260   22.2320   35.6040 C   0  0  0  0  0  0  0  0  0  0  0  0
   38.5890   23.0040   34.4810 C   0  0  0  0  0  0  0  0  0  0  0  0
   38.4370   24.3960   34.5770 C   0  0  0  0  0  0  0  0  0  0  0  0
   37.9620   24.9080   35.7190 N   0  0  0  0  0  0  0  0  0  0  0  0
   37.6230   24.1380   36.7790 C   0  0  0  0  0  0  0  0  0  0  0  0
   37.7590   22.8140   36.7100 N   0  0  0  0  0  0  0  0  0  0  0  0
   38.7770   25.2220   33.4960 N   0  0  0  0  0  0  0  0  0  0  0  0
   39.8020   24.9340   32.4900 C   0  0  0  0  0  0  0  0  0  0  0  0
   39.9720   26.1620   31.6630 C   0  0  0  0  0  0  0  0  0  0  0  0
   39.3900   27.2090   32.5220 C   0  0  0  0  0  0  0  0  0  0  0  0
   38.2220   26.4930   33.1340 C   0  0  2  0  0  0  0  0  0  0  0  0
   38.3470   21.1680   35.5190 H   0  0  0  0  0  0  0  0  0  0  0  0
   38.9670   22.5790   33.5740 H   0  0  0  0  0  0  0  0  0  0  0  0
   37.2420   24.5900   37.6870 H   0  0  0  0  0  0  0  0  0  0  0  0
   40.7320   24.5960   32.9920 H   0  0  0  0  0  0  0  0  0  0  0  0
   39.3710   24.1070   31.8600 H   0  0  0  0  0  0  0  0  0  0  0  0
   41.0870   26.2950   31.5300 H   0  0  0  0  0  0  0  0  0  0  0  0
   39.5800   26.1160   30.6400 H   0  0  0  0  0  0  0  0  0  0  0  0
   39.0880   28.1320   31.9820 H   0  0  0  0  0  0  0  0  0  0  0  0
   40.0820   27.4910   33.3280 H   0  0  0  0  0  0  0  0  0  0  0  0
   37.5240   27.2670   34.1890 C   0  0  0  0  0  0  0  0  0  0  0  0
   38.5080   27.6560   35.0960 F   0  0  0  0  0  0  0  0  0  0  0  0
   36.5540   26.6280   34.8850 F   0  0  0  0  0  0  0  0  0  0  0  0
   37.0850   28.4340   33.5890 F   0  0  0  0  0  0  0  0  0  0  0  0
   37.2360   26.2100   32.0540 C   0  0  0  0  0  0  0  0  0  0  0  0
   37.8240   26.3700   31.1060 H   0  0  0  0  0  0  0  0  0  0  0  0
   36.5170   27.0860   32.0610 H   0  0  0  0  0  0  0  0  0  0  0  0
   36.5770   25.2220   32.3800 O   0  0  0  0  0  0  0  0  0  0  0  0
   35.9220   24.1840   31.8200 C   0  0  0  0  0  0  0  0  0  0  0  0
   34.9910   24.6560   31.0640 O   0  0  0  0  0  0  0  0  0  0  0  0
   35.9180   22.6880   31.7800 C   0  0  0  0  0  0  0  0  0  0  0  0
   37.0980   22.1670   31.1470 C   0  0  0  0  0  0  0  0  0  0  0  0
   38.0260   22.3800   30.6630 H   0  0  0  0  0  0  0  0  0  0  0  0
   36.8370   20.4380   31.2460 S   0  0  0  0  0  0  0  0  0  0  0  0
   35.1730   20.5790   32.1240 C   0  0  0  0  0  0  0  0  0  0  0  0
   34.3110   20.0250   32.5670 H   0  0  0  0  0  0  0  0  0  0  0  0
   35.1210   21.7240   32.1770 N   0  0  0  0  0  0  0  0  0  0  0  0
  1  6  1  0  0  0  0
  2  3  1  0  0  0  0
  2  1  2  0  0  0  0
  3  4  2  0  0  0  0
  4  5  1  0  0  0  0
  5 14  1  0  0  0  0
  6  5  2  0  0  0  0
  7  3  1  0  0  0  0
  8 15  1  0  0  0  0
  8  7  1  0  0  0  0
  9  8  1  0  0  0  0
  9 10  1  0  0  0  0
 10 11  1  0  0  0  0
 10 20  1  0  0  0  0
 11 25  1  6  0  0  0
 11  7  1  0  0  0  0
 11 21  1  0  0  0  0
 12  1  1  0  0  0  0
 13  2  1  0  0  0  0
 16  8  1  0  0  0  0
 17  9  1  0  0  0  0
 18  9  1  0  0  0  0
 19 10  1  0  0  0  0
 21 23  1  0  0  0  0
 21 22  1  0  0  0  0
 24 21  1  0  0  0  0
 25 27  1  0  0  0  0
 25 28  1  0  0  0  0
 26 25  1  0  0  0  0
 29 28  1  0  0  0  0
 30 29  2  0  0  0  0
 31 29  1  0  0  0  0
 31 37  1  0  0  0  0
 32 34  1  0  0  0  0
 32 31  2  0  0  0  0
 33 32  1  0  0  0  0
 34 35  1  0  0  0  0
 35 37  2  0  0  0  0
 35 36  1  0  0  0  0
M  END
>  <minimizedAffinity>
-5.05396223

$$$$

 OpenBabel03272507273D

 37 39  0  0  1  0  0  0  0  0999 V2000
   39.1590   22.5640   36.9240 C   0  0  0  0  0  0  0  0  0  0  0  0
   39.4180   23.2400   35.7140 C   0  0  0  0  0  0  0  0  0  0  0  0
   38.9960   24.5760   35.6160 C   0  0  0  0  0  0  0  0  0  0  0  0
   38.3780   25.1280   36.6670 N   0  0  0  0  0  0  0  0  0  0  0  0
   38.1450   24.4500   37.8150 C   0  0  0  0  0  0  0  0  0  0  0  0
   38.5360   23.1810   37.9300 N   0  0  0  0  0  0  0  0  0  0  0  0
   39.2220   25.3050   34.4400 N   0  0  0  0  0  0  0  0  0  0  0  0
   40.3300   25.0970   33.5040 C   0  0  0  0  0  0  0  0  0  0  0  0
   40.2990   26.2160   32.5210 C   0  0  0  0  0  0  0  0  0  0  0  0
   39.4860   27.2310   33.2170 C   0  0  0  0  0  0  0  0  0  0  0  0
   38.4510   26.3840   33.8970 C   0  0  2  0  0  0  0  0  0  0  0  0
   39.4860   21.5430   36.9880 H   0  0  0  0  0  0  0  0  0  0  0  0
   39.9140   22.7840   34.8820 H   0  0  0  0  0  0  0  0  0  0  0  0
   37.6410   24.9310   38.6450 H   0  0  0  0  0  0  0  0  0  0  0  0
   41.2830   25.0170   34.0670 H   0  0  0  0  0  0  0  0  0  0  0  0
   40.0960   24.1260   32.9840 H   0  0  0  0  0  0  0  0  0  0  0  0
   41.3730   26.5490   32.3950 H   0  0  0  0  0  0  0  0  0  0  0  0
   39.9720   25.9620   31.5050 H   0  0  0  0  0  0  0  0  0  0  0  0
   39.0380   27.9980   32.5500 H   0  0  0  0  0  0  0  0  0  0  0  0
   40.0720   27.7460   33.9910 H   0  0  0  0  0  0  0  0  0  0  0  0
   37.5670   27.1340   34.8210 C   0  0  0  0  0  0  0  0  0  0  0  0
   38.3820   27.5710   35.8630 F   0  0  0  0  0  0  0  0  0  0  0  0
   36.5280   26.4600   35.3680 F   0  0  0  0  0  0  0  0  0  0  0  0
   37.1790   28.2780   34.1450 F   0  0  0  0  0  0  0  0  0  0  0  0
   37.5890   25.7740   32.8450 C   0  0  0  0  0  0  0  0  0  0  0  0
   37.2770   24.7880   33.2930 H   0  0  0  0  0  0  0  0  0  0  0  0
   38.2960   25.4660   32.0140 H   0  0  0  0  0  0  0  0  0  0  0  0
   36.8690   26.6550   32.3750 O   0  0  0  0  0  0  0  0  0  0  0  0
   36.5420   27.2010   31.1850 C   0  0  0  0  0  0  0  0  0  0  0  0
   35.6010   26.4920   30.6620 O   0  0  0  0  0  0  0  0  0  0  0  0
   36.8990   28.3400   30.2830 C   0  0  0  0  0  0  0  0  0  0  0  0
   36.4580   29.5990   30.8130 C   0  0  0  0  0  0  0  0  0  0  0  0
   35.9590   30.1160   31.6030 H   0  0  0  0  0  0  0  0  0  0  0  0
   37.0040   30.7270   29.5890 S   0  0  0  0  0  0  0  0  0  0  0  0
   37.7710   29.4020   28.4850 C   0  0  0  0  0  0  0  0  0  0  0  0
   38.3210   29.1940   27.5360 H   0  0  0  0  0  0  0  0  0  0  0  0
   37.5170   28.4920   29.1350 N   0  0  0  0  0  0  0  0  0  0  0  0
  1 12  1  0  0  0  0
  1  6  1  0  0  0  0
  2  1  2  0  0  0  0
  3  2  1  0  0  0  0
  3  4  2  0  0  0  0
  4  5  1  0  0  0  0
  5  6  2  0  0  0  0
  5 14  1  0  0  0  0
  7  3  1  0  0  0  0
  8 15  1  0  0  0  0
  8  7  1  0  0  0  0
  9 10  1  0  0  0  0
  9  8  1  0  0  0  0
 10 11  1  0  0  0  0
 10 20  1  0  0  0  0
 11 25  1  6  0  0  0
 11  7  1  0  0  0  0
 11 21  1  0  0  0  0
 13  2  1  0  0  0  0
 16  8  1  0  0  0  0
 17  9  1  0  0  0  0
 18  9  1  0  0  0  0
 19 10  1  0  0  0  0
 21 23  1  0  0  0  0
 21 22  1  0  0  0  0
 24 21  1  0  0  0  0
 25 26  1  0  0  0  0
 27 25  1  0  0  0  0
 28 25  1  0  0  0  0
 29 28  1  0  0  0  0
 30 29  2  0  0  0  0
 31 32  2  0  0  0  0
 31 29  1  0  0  0  0
 32 33  1  0  0  0  0
 34 32  1  0  0  0  0
 35 37  2  0  0  0  0
 35 34  1  0  0  0  0
 36 35  1  0  0  0  0
 37 31  1  0  0  0  0
M  END
>  <minimizedAffinity>
-4.96397638

$$$$

 OpenBabel03272507273D

 37 39  0  0  1  0  0  0  0  0999 V2000
   35.7540   22.6490   31.3740 C   0  0  0  0  0  0  0  0  0  0  0  0
   35.7160   24.0570   31.4490 C   0  0  0  0  0  0  0  0  0  0  0  0
   36.9340   24.7430   31.3250 C   0  0  0  0  0  0  0  0  0  0  0  0
   38.0530   24.0310   31.1440 N   0  0  0  0  0  0  0  0  0  0  0  0
   38.0540   22.6790   31.0760 C   0  0  0  0  0  0  0  0  0  0  0  0
   36.9090   22.0060   31.1920 N   0  0  0  0  0  0  0  0  0  0  0  0
   36.9670   26.1430   31.3920 N   0  0  0  0  0  0  0  0  0  0  0  0
   35.8830   27.0440   30.9950 C   0  0  0  0  0  0  0  0  0  0  0  0
   36.4200   28.4340   31.0350 C   0  0  0  0  0  0  0  0  0  0  0  0
   37.8770   28.2140   30.9940 C   0  0  0  0  0  0  0  0  0  0  0  0
   38.0300   26.9910   31.8490 C   0  0  2  0  0  0  0  0  0  0  0  0
   34.8160   22.1340   31.4700 H   0  0  0  0  0  0  0  0  0  0  0  0
   34.8130   24.6120   31.5950 H   0  0  0  0  0  0  0  0  0  0  0  0
   38.9790   22.1370   30.9280 H   0  0  0  0  0  0  0  0  0  0  0  0
   35.4900   26.7400   30.0030 H   0  0  0  0  0  0  0  0  0  0  0  0
   35.0920   26.9190   31.7880 H   0  0  0  0  0  0  0  0  0  0  0  0
   36.0420   28.9400   30.0970 H   0  0  0  0  0  0  0  0  0  0  0  0
   36.0600   29.0710   31.8510 H   0  0  0  0  0  0  0  0  0  0  0  0
   38.4820   29.0700   31.3630 H   0  0  0  0  0  0  0  0  0  0  0  0
   38.2130   27.9680   29.9770 H   0  0  0  0  0  0  0  0  0  0  0  0
   39.4020   26.4300   31.8630 C   0  0  0  0  0  0  0  0  0  0  0  0
   39.7410   26.2080   30.5290 F   0  0  0  0  0  0  0  0  0  0  0  0
   39.5880   25.2680   32.5320 F   0  0  0  0  0  0  0  0  0  0  0  0
   40.2340   27.4480   32.2960 F   0  0  0  0  0  0  0  0  0  0  0  0
   37.6780   27.3590   33.2490 C   0  0  0  0  0  0  0  0  0  0  0  0
   36.7480   27.9860   33.1360 H   0  0  0  0  0  0  0  0  0  0  0  0
   38.4590   28.1150   33.5700 H   0  0  0  0  0  0  0  0  0  0  0  0
   37.8430   26.3700   33.9630 O   0  0  0  0  0  0  0  0  0  0  0  0
   38.0400   26.0490   35.2590 C   0  0  0  0  0  0  0  0  0  0  0  0
   37.9840   27.1330   35.9550 O   0  0  0  0  0  0  0  0  0  0  0  0
   38.2940   24.8730   36.1480 C   0  0  0  0  0  0  0  0  0  0  0  0
   39.4500   24.1290   35.7310 C   0  0  0  0  0  0  0  0  0  0  0  0
   40.2520   24.0320   35.0320 H   0  0  0  0  0  0  0  0  0  0  0  0
   39.5150   22.8480   36.9240 S   0  0  0  0  0  0  0  0  0  0  0  0
   37.9880   23.4320   37.8650 C   0  0  0  0  0  0  0  0  0  0  0  0
   37.3050   23.2430   38.7280 H   0  0  0  0  0  0  0  0  0  0  0  0
   37.7420   24.3440   37.2140 N   0  0  0  0  0  0  0  0  0  0  0  0
  1  2  1  0  0  0  0
  1 12  1  0  0  0  0
  2 13  1  0  0  0  0
  3  7  1  0  0  0  0
  3  2  2  0  0  0  0
  4  3  1  0  0  0  0
  5  4  2  0  0  0  0
  5  6  1  0  0  0  0
  6  1  2  0  0  0  0
  7 11  1  0  0  0  0
  8  9  1  0  0  0  0
  8  7  1  0  0  0  0
  8 16  1  0  0  0  0
  9 18  1  0  0  0  0
 10  9  1  0  0  0  0
 10 19  1  0  0  0  0
 10 11  1  0  0  0  0
 11 21  1  6  0  0  0
 11 25  1  0  0  0  0
 14  5  1  0  0  0  0
 15  8  1  0  0  0  0
 17  9  1  0  0  0  0
 20 10  1  0  0  0  0
 21 24  1  0  0  0  0
 21 23  1  0  0  0  0
 22 21  1  0  0  0  0
 25 27  1  0  0  0  0
 25 28  1  0  0  0  0
 26 25  1  0  0  0  0
 28 29  1  0  0  0  0
 29 30  2  0  0  0  0
 29 31  1  0  0  0  0
 31 37  1  0  0  0  0
 32 31  2  0  0  0  0
 32 34  1  0  0  0  0
 33 32  1  0  0  0  0
 34 35  1  0  0  0  0
 35 36  1  0  0  0  0
 37 35  2  0  0  0  0
M  END
>  <minimizedAffinity>
-4.90680075

$$$$

 OpenBabel03272507273D

 37 39  0  0  1  0  0  0  0  0999 V2000
   42.5130   21.8770   35.7160 C   0  0  0  0  0  0  0  0  0  0  0  0
   42.1080   23.0940   35.1280 C   0  0  0  0  0  0  0  0  0  0  0  0
   40.9590   23.7100   35.6460 C   0  0  0  0  0  0  0  0  0  0  0  0
   40.3190   23.1170   36.6610 N   0  0  0  0  0  0  0  0  0  0  0  0
   40.7350   21.9490   37.2020 C   0  0  0  0  0  0  0  0  0  0  0  0
   41.8230   21.3440   36.7260 N   0  0  0  0  0  0  0  0  0  0  0  0
   40.5010   24.9210   35.1070 N   0  0  0  0  0  0  0  0  0  0  0  0
   41.3350   25.9460   34.4760 C   0  0  0  0  0  0  0  0  0  0  0  0
   40.4740   27.1400   34.2400 C   0  0  0  0  0  0  0  0  0  0  0  0
   39.3440   26.9040   35.1580 C   0  0  0  0  0  0  0  0  0  0  0  0
   39.1580   25.4200   35.0460 C   0  0  2  0  0  0  0  0  0  0  0  0
   43.3940   21.4140   35.3110 H   0  0  0  0  0  0  0  0  0  0  0  0
   42.6320   23.5560   34.3160 H   0  0  0  0  0  0  0  0  0  0  0  0
   40.1900   21.4980   38.0230 H   0  0  0  0  0  0  0  0  0  0  0  0
   42.2210   26.1480   35.1130 H   0  0  0  0  0  0  0  0  0  0  0  0
   41.6500   25.5030   33.4900 H   0  0  0  0  0  0  0  0  0  0  0  0
   41.0920   28.0340   34.5500 H   0  0  0  0  0  0  0  0  0  0  0  0
   40.2020   27.3440   33.1980 H   0  0  0  0  0  0  0  0  0  0  0  0
   38.4210   27.4700   34.9060 H   0  0  0  0  0  0  0  0  0  0  0  0
   39.6210   27.1390   36.1960 H   0  0  0  0  0  0  0  0  0  0  0  0
   38.1700   24.8610   35.9990 C   0  0  0  0  0  0  0  0  0  0  0  0
   38.6090   25.2290   37.2700 F   0  0  0  0  0  0  0  0  0  0  0  0
   38.0020   23.5170   35.9980 F   0  0  0  0  0  0  0  0  0  0  0  0
   36.9930   25.5580   35.7930 F   0  0  0  0  0  0  0  0  0  0  0  0
   38.6770   25.1180   33.6690 C   0  0  0  0  0  0  0  0  0  0  0  0
   39.1290   25.9390   33.0410 H   0  0  0  0  0  0  0  0  0  0  0  0
   37.5730   25.3720   33.6690 H   0  0  0  0  0  0  0  0  0  0  0  0
   38.7500   23.9010   33.4910 O   0  0  0  0  0  0  0  0  0  0  0  0
   38.1530   22.9210   32.7810 C   0  0  0  0  0  0  0  0  0  0  0  0
   38.7960   22.7790   31.6720 O   0  0  0  0  0  0  0  0  0  0  0  0
   37.0130   21.9550   32.8500 C   0  0  0  0  0  0  0  0  0  0  0  0
   36.3780   21.7870   31.5730 C   0  0  0  0  0  0  0  0  0  0  0  0
   36.3490   22.0590   30.5410 H   0  0  0  0  0  0  0  0  0  0  0  0
   35.1180   20.6250   31.9380 S   0  0  0  0  0  0  0  0  0  0  0  0
   35.5650   20.4770   33.7650 C   0  0  0  0  0  0  0  0  0  0  0  0
   35.3200   19.9910   34.7410 H   0  0  0  0  0  0  0  0  0  0  0  0
   36.4440   21.2130   33.7710 N   0  0  0  0  0  0  0  0  0  0  0  0
  1  6  1  0  0  0  0
  2  3  1  0  0  0  0
  2  1  2  0  0  0  0
  3  4  2  0  0  0  0
  4  5  1  0  0  0  0
  5 14  1  0  0  0  0
  6  5  2  0  0  0  0
  7  3  1  0  0  0  0
  8  7  1  0  0  0  0
  8 15  1  0  0  0  0
  9  8  1  0  0  0  0
  9 17  1  0  0  0  0
  9 10  1  0  0  0  0
 10 20  1  0  0  0  0
 11 25  1  6  0  0  0
 11  7  1  0  0  0  0
 11 10  1  0  0  0  0
 11 21  1  0  0  0  0
 12  1  1  0  0  0  0
 13  2  1  0  0  0  0
 16  8  1  0  0  0  0
 18  9  1  0  0  0  0
 19 10  1  0  0  0  0
 21 22  1  0  0  0  0
 23 21  1  0  0  0  0
 24 21  1  0  0  0  0
 25 27  1  0  0  0  0
 26 25  1  0  0  0  0
 28 25  1  0  0  0  0
 29 31  1  0  0  0  0
 29 28  1  0  0  0  0
 30 29  2  0  0  0  0
 31 37  1  0  0  0  0
 32 34  1  0  0  0  0
 32 31  2  0  0  0  0
 33 32  1  0  0  0  0
 34 35  1  0  0  0  0
 35 37  2  0  0  0  0
 35 36  1  0  0  0  0
M  END
>  <minimizedAffinity>
-4.87182665

$$$$

 OpenBabel03272507273D

 37 39  0  0  1  0  0  0  0  0999 V2000
   35.0470   29.4890   31.9840 C   0  0  0  0  0  0  0  0  0  0  0  0
   35.6800   28.7230   32.9860 C   0  0  0  0  0  0  0  0  0  0  0  0
   36.9620   28.2260   32.7050 C   0  0  0  0  0  0  0  0  0  0  0  0
   37.5080   28.5040   31.5150 N   0  0  0  0  0  0  0  0  0  0  0  0
   36.8720   29.2430   30.5760 C   0  0  0  0  0  0  0  0  0  0  0  0
   35.6540   29.7250   30.8200 N   0  0  0  0  0  0  0  0  0  0  0  0
   37.6470   27.4560   33.6560 N   0  0  0  0  0  0  0  0  0  0  0  0
   37.4970   27.5610   35.1090 C   0  0  0  0  0  0  0  0  0  0  0  0
   38.5540   26.7140   35.7300 C   0  0  0  0  0  0  0  0  0  0  0  0
   39.5220   26.5550   34.6280 C   0  0  0  0  0  0  0  0  0  0  0  0
   38.6180   26.4240   33.4380 C   0  0  2  0  0  0  0  0  0  0  0  0
   34.0660   29.8640   32.2110 H   0  0  0  0  0  0  0  0  0  0  0  0
   35.2300   28.5090   33.9330 H   0  0  0  0  0  0  0  0  0  0  0  0
   37.3460   29.4470   29.6230 H   0  0  0  0  0  0  0  0  0  0  0  0
   37.5370   28.6270   35.4120 H   0  0  0  0  0  0  0  0  0  0  0  0
   36.4820   27.1250   35.3310 H   0  0  0  0  0  0  0  0  0  0  0  0
   38.9800   27.3230   36.5820 H   0  0  0  0  0  0  0  0  0  0  0  0
   38.2180   25.7830   36.2020 H   0  0  0  0  0  0  0  0  0  0  0  0
   40.2080   25.6870   34.7400 H   0  0  0  0  0  0  0  0  0  0  0  0
   40.1310   27.4610   34.5010 H   0  0  0  0  0  0  0  0  0  0  0  0
   39.3290   26.4090   32.1380 C   0  0  0  0  0  0  0  0  0  0  0  0
   40.0770   27.5840   32.0940 F   0  0  0  0  0  0  0  0  0  0  0  0
   38.5690   26.3650   31.0180 F   0  0  0  0  0  0  0  0  0  0  0  0
   40.2520   25.3800   32.2100 F   0  0  0  0  0  0  0  0  0  0  0  0
   37.8750   25.1390   33.5610 C   0  0  0  0  0  0  0  0  0  0  0  0
   37.7530   25.0060   34.6750 H   0  0  0  0  0  0  0  0  0  0  0  0
   38.6190   24.3290   33.2870 H   0  0  0  0  0  0  0  0  0  0  0  0
   37.0010   25.1110   32.6940 O   0  0  0  0  0  0  0  0  0  0  0  0
   36.2370   24.2250   32.0230 C   0  0  0  0  0  0  0  0  0  0  0  0
   35.3880   24.8850   31.3110 O   0  0  0  0  0  0  0  0  0  0  0  0
   36.0490   22.7540   31.8280 C   0  0  0  0  0  0  0  0  0  0  0  0
   37.1230   22.1740   31.0710 C   0  0  0  0  0  0  0  0  0  0  0  0
   38.0440   22.3310   30.5540 H   0  0  0  0  0  0  0  0  0  0  0  0
   36.6600   20.4860   31.0060 S   0  0  0  0  0  0  0  0  0  0  0  0
   35.0720   20.7200   31.9980 C   0  0  0  0  0  0  0  0  0  0  0  0
   34.1720   20.2220   32.4340 H   0  0  0  0  0  0  0  0  0  0  0  0
   35.1620   21.8500   32.1730 N   0  0  0  0  0  0  0  0  0  0  0  0
  1 12  1  0  0  0  0
  1  2  1  0  0  0  0
  2 13  1  0  0  0  0
  3  2  2  0  0  0  0
  3  7  1  0  0  0  0
  4  3  1  0  0  0  0
  5  6  1  0  0  0  0
  5  4  2  0  0  0  0
  6  1  2  0  0  0  0
  7  8  1  0  0  0  0
  8 16  1  0  0  0  0
  8 15  1  0  0  0  0
  8  9  1  0  0  0  0
  9 18  1  0  0  0  0
  9 17  1  0  0  0  0
 10 19  1  0  0  0  0
 10  9  1  0  0  0  0
 11 21  1  6  0  0  0
 11 25  1  0  0  0  0
 11  7  1  0  0  0  0
 11 10  1  0  0  0  0
 14  5  1  0  0  0  0
 20 10  1  0  0  0  0
 21 24  1  0  0  0  0
 22 21  1  0  0  0  0
 23 21  1  0  0  0  0
 25 26  1  0  0  0  0
 27 25  1  0  0  0  0
 28 25  1  0  0  0  0
 29 28  1  0  0  0  0
 30 29  2  0  0  0  0
 31 29  1  0  0  0  0
 31 37  1  0  0  0  0
 32 31  2  0  0  0  0
 33 32  1  0  0  0  0
 34 32  1  0  0  0  0
 34 35  1  0  0  0  0
 35 37  2  0  0  0  0
 35 36  1  0  0  0  0
M  END
>  <minimizedAffinity>
-4.86621141

$$$$

 OpenBabel03272507273D

 37 39  0  0  1  0  0  0  0  0999 V2000
   34.2810   29.9090   33.4880 C   0  0  0  0  0  0  0  0  0  0  0  0
   35.2260   29.1140   34.1710 C   0  0  0  0  0  0  0  0  0  0  0  0
   36.2990   28.6020   33.4240 C   0  0  0  0  0  0  0  0  0  0  0  0
   36.3650   28.8940   32.1200 N   0  0  0  0  0  0  0  0  0  0  0  0
   35.4410   29.6600   31.4950 C   0  0  0  0  0  0  0  0  0  0  0  0
   34.4140   30.1570   32.1840 N   0  0  0  0  0  0  0  0  0  0  0  0
   37.2730   27.8040   34.0420 N   0  0  0  0  0  0  0  0  0  0  0  0
   37.6790   27.8840   35.4470 C   0  0  0  0  0  0  0  0  0  0  0  0
   38.8740   27.0090   35.6160 C   0  0  0  0  0  0  0  0  0  0  0  0
   39.3560   26.8550   34.2310 C   0  0  0  0  0  0  0  0  0  0  0  0
   38.0690   26.7610   33.4650 C   0  0  2  0  0  0  0  0  0  0  0  0
   33.4640   30.2950   34.0690 H   0  0  0  0  0  0  0  0  0  0  0  0
   35.1580   28.8900   35.2150 H   0  0  0  0  0  0  0  0  0  0  0  0
   35.5290   29.8740   30.4370 H   0  0  0  0  0  0  0  0  0  0  0  0
   37.8530   28.9440   35.7250 H   0  0  0  0  0  0  0  0  0  0  0  0
   36.8120   27.4610   36.0270 H   0  0  0  0  0  0  0  0  0  0  0  0
   39.6000   27.5960   36.2540 H   0  0  0  0  0  0  0  0  0  0  0  0
   38.7180   26.0760   36.1700 H   0  0  0  0  0  0  0  0  0  0  0  0
   40.0140   25.9750   34.0680 H   0  0  0  0  0  0  0  0  0  0  0  0
   39.8920   27.7540   33.8960 H   0  0  0  0  0  0  0  0  0  0  0  0
   38.2420   26.7580   31.9920 C   0  0  0  0  0  0  0  0  0  0  0  0
   39.2650   25.8500   31.7260 F   0  0  0  0  0  0  0  0  0  0  0  0
   38.5740   27.9330   31.4060 F   0  0  0  0  0  0  0  0  0  0  0  0
   37.0930   26.1930   31.4670 F   0  0  0  0  0  0  0  0  0  0  0  0
   37.3990   25.4860   33.8430 C   0  0  0  0  0  0  0  0  0  0  0  0
   36.4690   25.4730   33.2050 H   0  0  0  0  0  0  0  0  0  0  0  0
   36.9920   25.6530   34.8870 H   0  0  0  0  0  0  0  0  0  0  0  0
   38.2590   24.6110   33.9450 O   0  0  0  0  0  0  0  0  0  0  0  0
   38.5220   23.4950   34.6570 C   0  0  0  0  0  0  0  0  0  0  0  0
   37.7880   22.5410   34.1960 O   0  0  0  0  0  0  0  0  0  0  0  0
   39.3720   23.0000   35.7850 C   0  0  0  0  0  0  0  0  0  0  0  0
   40.5450   22.3200   35.3100 C   0  0  0  0  0  0  0  0  0  0  0  0
   41.1120   21.9880   34.4690 H   0  0  0  0  0  0  0  0  0  0  0  0
   41.3400   21.8690   36.8050 S   0  0  0  0  0  0  0  0  0  0  0  0
   40.0240   22.6340   37.9200 C   0  0  0  0  0  0  0  0  0  0  0  0
   39.7010   22.8270   38.9720 H   0  0  0  0  0  0  0  0  0  0  0  0
   39.3320   23.0300   37.0960 N   0  0  0  0  0  0  0  0  0  0  0  0
  1 12  1  0  0  0  0
  1  2  1  0  0  0  0
  2 13  1  0  0  0  0
  3  7  1  0  0  0  0
  3  2  2  0  0  0  0
  4  3  1  0  0  0  0
  5  4  2  0  0  0  0
  5  6  1  0  0  0  0
  6  1  2  0  0  0  0
  7  8  1  0  0  0  0
  8  9  1  0  0  0  0
  8 15  1  0  0  0  0
  8 16  1  0  0  0  0
  9 18  1  0  0  0  0
  9 17  1  0  0  0  0
 10  9  1  0  0  0  0
 11 21  1  6  0  0  0
 11 25  1  0  0  0  0
 11  7  1  0  0  0  0
 11 10  1  0  0  0  0
 14  5  1  0  0  0  0
 19 10  1  0  0  0  0
 20 10  1  0  0  0  0
 22 21  1  0  0  0  0
 23 21  1  0  0  0  0
 24 21  1  0  0  0  0
 25 28  1  0  0  0  0
 25 27  1  0  0  0  0
 26 25  1  0  0  0  0
 28 29  1  0  0  0  0
 29 31  1  0  0  0  0
 30 29  2  0  0  0  0
 31 37  1  0  0  0  0
 32 31  2  0  0  0  0
 32 34  1  0  0  0  0
 33 32  1  0  0  0  0
 34 35  1  0  0  0  0
 35 36  1  0  0  0  0
 37 35  2  0  0  0  0
M  END
>  <minimizedAffinity>
-4.83000183

$$$$
