
 OpenBabel03272508523D

 27 29  0  0  1  0  0  0  0  0999 V2000
   36.0840   28.1430   32.8360 C   0  0  2  0  0  0  0  0  0  0  0  0
   35.7970   28.7980   34.1050 C   0  0  0  0  0  0  0  0  0  0  0  0
   37.0600   27.9390   33.9030 C   0  0  1  0  0  0  0  0  0  0  0  0
   35.5120   27.1980   32.5510 H   0  0  0  0  0  0  0  0  0  0  0  0
   35.9280   29.9060   34.2030 H   0  0  0  0  0  0  0  0  0  0  0  0
   35.0730   28.4000   34.8120 H   0  0  0  0  0  0  0  0  0  0  0  0
   37.9540   28.5390   34.1240 H   0  0  0  0  0  0  0  0  0  0  0  0
   36.8460   30.9280   30.5210 C   0  0  0  0  0  0  0  0  0  0  0  0
   37.2470   30.2500   29.3410 C   0  0  0  0  0  0  0  0  0  0  0  0
   37.2410   28.8140   29.3790 C   0  0  0  0  0  0  0  0  0  0  0  0
   36.8600   28.1850   30.5180 N   0  0  0  0  0  0  0  0  0  0  0  0
   36.4880   28.8990   31.6140 C   0  0  0  0  0  0  0  0  0  0  0  0
   36.4710   30.2510   31.6460 N   0  0  0  0  0  0  0  0  0  0  0  0
   36.8780   32.0040   30.4110 H   0  0  0  0  0  0  0  0  0  0  0  0
   37.5410   30.7690   28.4620 H   0  0  0  0  0  0  0  0  0  0  0  0
   37.5330   28.2510   28.5180 H   0  0  0  0  0  0  0  0  0  0  0  0
   38.0820   26.3740   35.5170 C   0  0  0  0  0  0  0  0  0  0  0  0
   38.9130   27.2660   35.8170 O   0  0  0  0  0  0  0  0  0  0  0  0
   37.0060   26.6540   34.6060 N   0  0  0  0  0  0  0  0  0  0  0  0
   36.2670   25.9470   34.4980 H   0  0  0  0  0  0  0  0  0  0  0  0
   38.1950   25.0140   36.0970 C   0  0  0  0  0  0  0  0  0  0  0  0
   38.5240   23.9390   35.1270 C   0  0  0  0  0  0  0  0  0  0  0  0
   38.6910   23.9370   34.1310 H   0  0  0  0  0  0  0  0  0  0  0  0
   38.5720   22.5180   36.1520 S   0  0  0  0  0  0  0  0  0  0  0  0
   38.1570   23.4870   37.7360 C   0  0  0  0  0  0  0  0  0  0  0  0
   38.0230   23.2280   38.7760 H   0  0  0  0  0  0  0  0  0  0  0  0
   38.0270   24.7290   37.3690 N   0  0  0  0  0  0  0  0  0  0  0  0
  1  4  1  6  0  0  0
  1  3  1  0  0  0  0
  1  2  1  0  0  0  0
  2  5  1  0  0  0  0
  2  6  1  0  0  0  0
  3  2  1  0  0  0  0
  3  7  1  6  0  0  0
  3 19  1  0  0  0  0
  8 13  1  0  0  0  0
  9 10  1  0  0  0  0
  9  8  2  0  0  0  0
 10 11  2  0  0  0  0
 11 12  1  0  0  0  0
 12 13  2  0  0  0  0
 12  1  1  0  0  0  0
 14  8  1  0  0  0  0
 15  9  1  0  0  0  0
 16 10  1  0  0  0  0
 17 18  2  0  0  0  0
 17 21  1  0  0  0  0
 19 17  1  0  0  0  0
 20 19  1  0  0  0  0
 21 27  1  0  0  0  0
 22 21  2  0  0  0  0
 22 24  1  0  0  0  0
 23 22  1  0  0  0  0
 24 25  1  0  0  0  0
 25 26  1  0  0  0  0
 27 25  2  0  0  0  0
M  END
>  <minimizedAffinity>
-4.30667019

$$$$

 OpenBabel03272508523D

 27 29  0  0  1  0  0  0  0  0999 V2000
   38.8760   26.2450   35.2300 C   0  0  2  0  0  0  0  0  0  0  0  0
   38.3470   27.2050   36.1890 C   0  0  0  0  0  0  0  0  0  0  0  0
   37.5000   26.6840   35.0130 C   0  0  1  0  0  0  0  0  0  0  0  0
   39.6030   26.5990   34.4250 H   0  0  0  0  0  0  0  0  0  0  0  0
   38.0730   26.8690   37.2220 H   0  0  0  0  0  0  0  0  0  0  0  0
   38.5980   28.2620   36.1490 H   0  0  0  0  0  0  0  0  0  0  0  0
   36.5770   26.2270   35.3960 H   0  0  0  0  0  0  0  0  0  0  0  0
   38.3830   22.7690   36.4010 C   0  0  0  0  0  0  0  0  0  0  0  0
   39.6650   22.1920   36.2080 C   0  0  0  0  0  0  0  0  0  0  0  0
   40.6890   23.0420   35.6670 C   0  0  0  0  0  0  0  0  0  0  0  0
   40.3900   24.3300   35.3700 N   0  0  0  0  0  0  0  0  0  0  0  0
   39.1380   24.8180   35.5810 C   0  0  0  0  0  0  0  0  0  0  0  0
   38.1280   24.0740   36.0870 N   0  0  0  0  0  0  0  0  0  0  0  0
   37.6710   22.0670   36.8120 H   0  0  0  0  0  0  0  0  0  0  0  0
   39.8710   21.1790   36.4490 H   0  0  0  0  0  0  0  0  0  0  0  0
   41.6740   22.6600   35.5000 H   0  0  0  0  0  0  0  0  0  0  0  0
   36.9540   27.1850   32.6570 C   0  0  0  0  0  0  0  0  0  0  0  0
   36.6850   25.9710   32.4880 O   0  0  0  0  0  0  0  0  0  0  0  0
   37.2880   27.6850   33.9620 N   0  0  0  0  0  0  0  0  0  0  0  0
   37.3580   28.7030   34.0870 H   0  0  0  0  0  0  0  0  0  0  0  0
   36.9320   28.1270   31.5120 C   0  0  0  0  0  0  0  0  0  0  0  0
   37.7160   27.6980   30.3260 C   0  0  0  0  0  0  0  0  0  0  0  0
   38.2750   26.8800   30.1280 H   0  0  0  0  0  0  0  0  0  0  0  0
   37.4580   29.0260   29.2120 S   0  0  0  0  0  0  0  0  0  0  0  0
   36.3540   29.9960   30.4210 C   0  0  0  0  0  0  0  0  0  0  0  0
   35.8290   30.9390   30.3860 H   0  0  0  0  0  0  0  0  0  0  0  0
   36.2820   29.2700   31.4980 N   0  0  0  0  0  0  0  0  0  0  0  0
  1  4  1  6  0  0  0
  1 12  1  0  0  0  0
  1  2  1  0  0  0  0
  2  5  1  0  0  0  0
  3  1  1  0  0  0  0
  3  7  1  1  0  0  0
  3  2  1  0  0  0  0
  6  2  1  0  0  0  0
  8 14  1  0  0  0  0
  9  8  1  0  0  0  0
  9 15  1  0  0  0  0
 10  9  2  0  0  0  0
 11 12  2  0  0  0  0
 11 10  1  0  0  0  0
 12 13  1  0  0  0  0
 13  8  2  0  0  0  0
 16 10  1  0  0  0  0
 17 19  1  0  0  0  0
 18 17  2  0  0  0  0
 19 20  1  0  0  0  0
 19  3  1  0  0  0  0
 21 17  1  0  0  0  0
 22 21  2  0  0  0  0
 23 22  1  0  0  0  0
 24 22  1  0  0  0  0
 24 25  1  0  0  0  0
 25 27  2  0  0  0  0
 26 25  1  0  0  0  0
 27 21  1  0  0  0  0
M  END
>  <minimizedAffinity>
-4.18406105

$$$$

 OpenBabel03272508523D

 27 29  0  0  1  0  0  0  0  0999 V2000
   38.8900   26.2500   35.2150 C   0  0  2  0  0  0  0  0  0  0  0  0
   38.3520   27.1990   36.1800 C   0  0  0  0  0  0  0  0  0  0  0  0
   37.5100   26.6780   35.0000 C   0  0  1  0  0  0  0  0  0  0  0  0
   39.6140   26.6160   34.4130 H   0  0  0  0  0  0  0  0  0  0  0  0
   38.0800   26.8530   37.2100 H   0  0  0  0  0  0  0  0  0  0  0  0
   38.5930   28.2590   36.1470 H   0  0  0  0  0  0  0  0  0  0  0  0
   36.5910   26.2100   35.3800 H   0  0  0  0  0  0  0  0  0  0  0  0
   40.6490   23.0290   35.6900 C   0  0  0  0  0  0  0  0  0  0  0  0
   39.6270   22.1910   36.2080 C   0  0  0  0  0  0  0  0  0  0  0  0
   38.3280   22.7770   36.3800 C   0  0  0  0  0  0  0  0  0  0  0  0
   38.1390   24.0780   36.0480 N   0  0  0  0  0  0  0  0  0  0  0  0
   39.1650   24.8240   35.5570 C   0  0  0  0  0  0  0  0  0  0  0  0
   40.4130   24.3350   35.3700 N   0  0  0  0  0  0  0  0  0  0  0  0
   41.5950   22.5140   35.5900 H   0  0  0  0  0  0  0  0  0  0  0  0
   39.8030   21.1750   36.4600 H   0  0  0  0  0  0  0  0  0  0  0  0
   37.5190   22.1920   36.7660 H   0  0  0  0  0  0  0  0  0  0  0  0
   36.9640   27.1890   32.6460 C   0  0  0  0  0  0  0  0  0  0  0  0
   36.7100   25.9720   32.4680 O   0  0  0  0  0  0  0  0  0  0  0  0
   37.2890   27.6830   33.9560 N   0  0  0  0  0  0  0  0  0  0  0  0
   37.3470   28.7010   34.0880 H   0  0  0  0  0  0  0  0  0  0  0  0
   36.9340   28.1380   31.5080 C   0  0  0  0  0  0  0  0  0  0  0  0
   37.7160   27.7210   30.3170 C   0  0  0  0  0  0  0  0  0  0  0  0
   38.2780   26.9070   30.1120 H   0  0  0  0  0  0  0  0  0  0  0  0
   37.4480   29.0550   29.2130 S   0  0  0  0  0  0  0  0  0  0  0  0
   36.3430   30.0120   30.4310 C   0  0  0  0  0  0  0  0  0  0  0  0
   35.8130   30.9530   30.4040 H   0  0  0  0  0  0  0  0  0  0  0  0
   36.2780   29.2780   31.5030 N   0  0  0  0  0  0  0  0  0  0  0  0
  1  4  1  6  0  0  0
  1 12  1  0  0  0  0
  1  2  1  0  0  0  0
  2  5  1  0  0  0  0
  3  1  1  0  0  0  0
  3  7  1  1  0  0  0
  3  2  1  0  0  0  0
  6  2  1  0  0  0  0
  8  9  1  0  0  0  0
  9 10  2  0  0  0  0
  9 15  1  0  0  0  0
 10 16  1  0  0  0  0
 11 10  1  0  0  0  0
 12 11  2  0  0  0  0
 13 12  1  0  0  0  0
 13  8  2  0  0  0  0
 14  8  1  0  0  0  0
 17 19  1  0  0  0  0
 18 17  2  0  0  0  0
 19 20  1  0  0  0  0
 19  3  1  0  0  0  0
 21 17  1  0  0  0  0
 22 21  2  0  0  0  0
 23 22  1  0  0  0  0
 24 22  1  0  0  0  0
 24 25  1  0  0  0  0
 25 27  2  0  0  0  0
 26 25  1  0  0  0  0
 27 21  1  0  0  0  0
M  END
>  <minimizedAffinity>
-4.17115688

$$$$

 OpenBabel03272508523D

 27 29  0  0  1  0  0  0  0  0999 V2000
   38.8460   26.2220   35.2090 C   0  0  2  0  0  0  0  0  0  0  0  0
   38.3310   27.1850   36.1730 C   0  0  0  0  0  0  0  0  0  0  0  0
   37.4720   26.6730   35.0010 C   0  0  1  0  0  0  0  0  0  0  0  0
   39.5710   26.5720   34.4010 H   0  0  0  0  0  0  0  0  0  0  0  0
   38.0590   26.8490   37.2070 H   0  0  0  0  0  0  0  0  0  0  0  0
   38.5890   28.2410   36.1330 H   0  0  0  0  0  0  0  0  0  0  0  0
   36.5480   26.2220   35.3890 H   0  0  0  0  0  0  0  0  0  0  0  0
   38.3180   22.7320   36.3200 C   0  0  0  0  0  0  0  0  0  0  0  0
   39.6110   22.1630   36.1780 C   0  0  0  0  0  0  0  0  0  0  0  0
   40.6530   23.0230   35.6930 C   0  0  0  0  0  0  0  0  0  0  0  0
   40.3620   24.3140   35.3970 N   0  0  0  0  0  0  0  0  0  0  0  0
   39.0990   24.7930   35.5560 C   0  0  0  0  0  0  0  0  0  0  0  0
   38.0710   24.0380   36.0080 N   0  0  0  0  0  0  0  0  0  0  0  0
   37.5920   22.0220   36.6890 H   0  0  0  0  0  0  0  0  0  0  0  0
   39.8110   21.1480   36.4170 H   0  0  0  0  0  0  0  0  0  0  0  0
   41.6470   22.6470   35.5670 H   0  0  0  0  0  0  0  0  0  0  0  0
   36.9320   27.1810   32.6450 C   0  0  0  0  0  0  0  0  0  0  0  0
   36.6660   25.9670   32.4710 O   0  0  0  0  0  0  0  0  0  0  0  0
   37.2620   27.6770   33.9530 N   0  0  0  0  0  0  0  0  0  0  0  0
   37.3300   28.6950   34.0820 H   0  0  0  0  0  0  0  0  0  0  0  0
   36.9120   28.1270   31.5040 C   0  0  0  0  0  0  0  0  0  0  0  0
   36.4350   29.4960   31.8260 C   0  0  0  0  0  0  0  0  0  0  0  0
   36.1140   29.9310   32.6780 H   0  0  0  0  0  0  0  0  0  0  0  0
   36.5500   30.3020   30.2730 S   0  0  0  0  0  0  0  0  0  0  0  0
   37.2080   28.7590   29.3750 C   0  0  0  0  0  0  0  0  0  0  0  0
   37.5040   28.5350   28.3610 H   0  0  0  0  0  0  0  0  0  0  0  0
   37.2800   27.8250   30.2780 N   0  0  0  0  0  0  0  0  0  0  0  0
  1  4  1  6  0  0  0
  1 12  1  0  0  0  0
  1  2  1  0  0  0  0
  2  5  1  0  0  0  0
  3  1  1  0  0  0  0
  3  7  1  1  0  0  0
  3  2  1  0  0  0  0
  6  2  1  0  0  0  0
  8 14  1  0  0  0  0
  9  8  1  0  0  0  0
  9 15  1  0  0  0  0
 10  9  2  0  0  0  0
 11 12  2  0  0  0  0
 11 10  1  0  0  0  0
 12 13  1  0  0  0  0
 13  8  2  0  0  0  0
 16 10  1  0  0  0  0
 17 19  1  0  0  0  0
 18 17  2  0  0  0  0
 19 20  1  0  0  0  0
 19  3  1  0  0  0  0
 21 22  2  0  0  0  0
 21 17  1  0  0  0  0
 22 23  1  0  0  0  0
 24 22  1  0  0  0  0
 25 24  1  0  0  0  0
 25 27  2  0  0  0  0
 26 25  1  0  0  0  0
 27 21  1  0  0  0  0
M  END
>  <minimizedAffinity>
-4.16611338

$$$$

 OpenBabel03272508523D

 27 29  0  0  1  0  0  0  0  0999 V2000
   38.8820   26.4400   35.0040 C   0  0  2  0  0  0  0  0  0  0  0  0
   38.0730   27.5150   35.5630 C   0  0  0  0  0  0  0  0  0  0  0  0
   37.6020   26.6930   34.3480 C   0  0  1  0  0  0  0  0  0  0  0  0
   39.7870   26.6970   34.3600 H   0  0  0  0  0  0  0  0  0  0  0  0
   37.5390   27.3630   36.5360 H   0  0  0  0  0  0  0  0  0  0  0  0
   38.2830   28.5630   35.3620 H   0  0  0  0  0  0  0  0  0  0  0  0
   36.6280   26.2330   34.5680 H   0  0  0  0  0  0  0  0  0  0  0  0
   40.3780   23.2310   36.0800 C   0  0  0  0  0  0  0  0  0  0  0  0
   39.4460   22.7610   37.0420 C   0  0  0  0  0  0  0  0  0  0  0  0
   38.2990   23.5860   37.2970 C   0  0  0  0  0  0  0  0  0  0  0  0
   38.1610   24.7530   36.6200 N   0  0  0  0  0  0  0  0  0  0  0  0
   39.0940   25.1430   35.7110 C   0  0  0  0  0  0  0  0  0  0  0  0
   40.1970   24.4140   35.4230 N   0  0  0  0  0  0  0  0  0  0  0  0
   41.2110   22.5540   35.9460 H   0  0  0  0  0  0  0  0  0  0  0  0
   39.5800   21.8420   37.5580 H   0  0  0  0  0  0  0  0  0  0  0  0
   37.5640   23.2820   38.0120 H   0  0  0  0  0  0  0  0  0  0  0  0
   37.8520   26.6740   31.8910 C   0  0  0  0  0  0  0  0  0  0  0  0
   37.8130   25.4190   31.9230 O   0  0  0  0  0  0  0  0  0  0  0  0
   37.6460   27.4420   33.0880 N   0  0  0  0  0  0  0  0  0  0  0  0
   37.5410   28.4610   32.9980 H   0  0  0  0  0  0  0  0  0  0  0  0
   38.1140   27.3860   30.6170 C   0  0  0  0  0  0  0  0  0  0  0  0
   37.1280   28.4420   30.2710 C   0  0  0  0  0  0  0  0  0  0  0  0
   36.2970   28.7860   30.7290 H   0  0  0  0  0  0  0  0  0  0  0  0
   37.7510   29.0420   28.7460 S   0  0  0  0  0  0  0  0  0  0  0  0
   39.2310   27.8460   28.7310 C   0  0  0  0  0  0  0  0  0  0  0  0
   40.0570   27.6610   28.0590 H   0  0  0  0  0  0  0  0  0  0  0  0
   39.1290   27.1400   29.8190 N   0  0  0  0  0  0  0  0  0  0  0  0
  1  4  1  6  0  0  0
  1  2  1  0  0  0  0
  1 12  1  0  0  0  0
  2  5  1  0  0  0  0
  3  7  1  1  0  0  0
  3  1  1  0  0  0  0
  3  2  1  0  0  0  0
  6  2  1  0  0  0  0
  8  9  1  0  0  0  0
  9 10  2  0  0  0  0
  9 15  1  0  0  0  0
 10 16  1  0  0  0  0
 11 10  1  0  0  0  0
 12 11  2  0  0  0  0
 13 12  1  0  0  0  0
 13  8  2  0  0  0  0
 14  8  1  0  0  0  0
 17 18  2  0  0  0  0
 17 19  1  0  0  0  0
 19  3  1  0  0  0  0
 20 19  1  0  0  0  0
 21 17  1  0  0  0  0
 22 21  2  0  0  0  0
 22 23  1  0  0  0  0
 24 22  1  0  0  0  0
 25 24  1  0  0  0  0
 25 27  2  0  0  0  0
 26 25  1  0  0  0  0
 27 21  1  0  0  0  0
M  END
>  <minimizedAffinity>
-4.06862879

$$$$

 OpenBabel03272508523D

 27 29  0  0  1  0  0  0  0  0999 V2000
   36.2830   28.4390   32.7260 C   0  0  2  0  0  0  0  0  0  0  0  0
   36.8670   28.8570   31.4590 C   0  0  0  0  0  0  0  0  0  0  0  0
   35.8920   27.6680   31.5480 C   0  0  1  0  0  0  0  0  0  0  0  0
   36.9190   27.8510   33.4680 H   0  0  0  0  0  0  0  0  0  0  0  0
   36.5060   29.7940   30.9610 H   0  0  0  0  0  0  0  0  0  0  0  0
   37.8860   28.6030   31.1780 H   0  0  0  0  0  0  0  0  0  0  0  0
   35.0360   27.8420   30.8820 H   0  0  0  0  0  0  0  0  0  0  0  0
   34.6830   30.7530   35.1300 C   0  0  0  0  0  0  0  0  0  0  0  0
   33.3220   30.7230   34.7290 C   0  0  0  0  0  0  0  0  0  0  0  0
   32.9880   29.8830   33.6150 C   0  0  0  0  0  0  0  0  0  0  0  0
   33.9680   29.1700   33.0060 N   0  0  0  0  0  0  0  0  0  0  0  0
   35.2540   29.2470   33.4430 C   0  0  0  0  0  0  0  0  0  0  0  0
   35.6370   30.0180   34.4860 N   0  0  0  0  0  0  0  0  0  0  0  0
   34.8520   31.4080   35.9740 H   0  0  0  0  0  0  0  0  0  0  0  0
   32.5740   31.2930   35.2240 H   0  0  0  0  0  0  0  0  0  0  0  0
   31.9760   29.8210   33.2700 H   0  0  0  0  0  0  0  0  0  0  0  0
   35.6840   25.2490   31.0970 C   0  0  0  0  0  0  0  0  0  0  0  0
   34.4650   25.4260   30.8530 O   0  0  0  0  0  0  0  0  0  0  0  0
   36.5450   26.3680   31.3680 N   0  0  0  0  0  0  0  0  0  0  0  0
   37.5580   26.1980   31.4190 H   0  0  0  0  0  0  0  0  0  0  0  0
   36.2580   23.8820   31.1110 C   0  0  0  0  0  0  0  0  0  0  0  0
   37.6730   23.7870   30.6690 C   0  0  0  0  0  0  0  0  0  0  0  0
   38.3440   24.4720   30.3530 H   0  0  0  0  0  0  0  0  0  0  0  0
   37.9910   22.0690   30.8180 S   0  0  0  0  0  0  0  0  0  0  0  0
   36.2390   21.6660   31.4410 C   0  0  0  0  0  0  0  0  0  0  0  0
   35.7230   20.7650   31.7380 H   0  0  0  0  0  0  0  0  0  0  0  0
   35.6050   22.8030   31.4800 N   0  0  0  0  0  0  0  0  0  0  0  0
  1 12  1  0  0  0  0
  1  4  1  1  0  0  0
  2  3  1  0  0  0  0
  2  1  1  0  0  0  0
  3  7  1  6  0  0  0
  3  1  1  0  0  0  0
  5  2  1  0  0  0  0
  6  2  1  0  0  0  0
  8 14  1  0  0  0  0
  9  8  1  0  0  0  0
  9 15  1  0  0  0  0
 10  9  2  0  0  0  0
 11 12  2  0  0  0  0
 11 10  1  0  0  0  0
 12 13  1  0  0  0  0
 13  8  2  0  0  0  0
 16 10  1  0  0  0  0
 17 21  1  0  0  0  0
 17 19  1  0  0  0  0
 18 17  2  0  0  0  0
 19 20  1  0  0  0  0
 19  3  1  0  0  0  0
 21 27  1  0  0  0  0
 22 24  1  0  0  0  0
 22 21  2  0  0  0  0
 23 22  1  0  0  0  0
 24 25  1  0  0  0  0
 25 27  2  0  0  0  0
 25 26  1  0  0  0  0
M  END
>  <minimizedAffinity>
-4.06543255

$$$$

 OpenBabel03272508523D

 27 29  0  0  1  0  0  0  0  0999 V2000
   37.9050   24.6390   34.6800 C   0  0  2  0  0  0  0  0  0  0  0  0
   38.5870   24.4210   33.4110 C   0  0  0  0  0  0  0  0  0  0  0  0
   38.5660   25.8020   34.0920 C   0  0  1  0  0  0  0  0  0  0  0  0
   36.7680   24.7180   34.6980 H   0  0  0  0  0  0  0  0  0  0  0  0
   39.5580   23.8630   33.3890 H   0  0  0  0  0  0  0  0  0  0  0  0
   38.0500   24.3590   32.4680 H   0  0  0  0  0  0  0  0  0  0  0  0
   39.5950   26.1480   34.2580 H   0  0  0  0  0  0  0  0  0  0  0  0
   38.1760   23.7950   38.2730 C   0  0  0  0  0  0  0  0  0  0  0  0
   39.3830   23.0500   38.3260 C   0  0  0  0  0  0  0  0  0  0  0  0
   40.0870   22.8580   37.0890 C   0  0  0  0  0  0  0  0  0  0  0  0
   39.5760   23.3850   35.9490 N   0  0  0  0  0  0  0  0  0  0  0  0
   38.4130   24.0890   35.9710 C   0  0  0  0  0  0  0  0  0  0  0  0
   37.7000   24.3070   37.1000 N   0  0  0  0  0  0  0  0  0  0  0  0
   37.7090   23.8950   39.2430 H   0  0  0  0  0  0  0  0  0  0  0  0
   39.7600   22.6480   39.2340 H   0  0  0  0  0  0  0  0  0  0  0  0
   41.0020   22.3040   37.0700 H   0  0  0  0  0  0  0  0  0  0  0  0
   37.1280   27.8060   34.2270 C   0  0  0  0  0  0  0  0  0  0  0  0
   37.4980   27.9590   35.4160 O   0  0  0  0  0  0  0  0  0  0  0  0
   37.7030   26.7720   33.4110 N   0  0  0  0  0  0  0  0  0  0  0  0
   37.4830   26.7700   32.4060 H   0  0  0  0  0  0  0  0  0  0  0  0
   36.0890   28.6870   33.6420 C   0  0  0  0  0  0  0  0  0  0  0  0
   36.3180   29.0810   32.2280 C   0  0  0  0  0  0  0  0  0  0  0  0
   37.0490   28.8720   31.5640 H   0  0  0  0  0  0  0  0  0  0  0  0
   34.9240   30.0910   31.8960 S   0  0  0  0  0  0  0  0  0  0  0  0
   34.1960   29.8850   33.6420 C   0  0  0  0  0  0  0  0  0  0  0  0
   33.3150   30.2500   34.1500 H   0  0  0  0  0  0  0  0  0  0  0  0
   35.0250   29.1140   34.2840 N   0  0  0  0  0  0  0  0  0  0  0  0
  1  4  1  6  0  0  0
  1 12  1  0  0  0  0
  2  3  1  0  0  0  0
  2  1  1  0  0  0  0
  3  7  1  1  0  0  0
  3  1  1  0  0  0  0
  5  2  1  0  0  0  0
  6  2  1  0  0  0  0
  8  9  1  0  0  0  0
  8 14  1  0  0  0  0
  9 15  1  0  0  0  0
 10  9  2  0  0  0  0
 11 12  2  0  0  0  0
 11 10  1  0  0  0  0
 12 13  1  0  0  0  0
 13  8  2  0  0  0  0
 16 10  1  0  0  0  0
 17 18  2  0  0  0  0
 19  3  1  0  0  0  0
 19 17  1  0  0  0  0
 20 19  1  0  0  0  0
 21 17  1  0  0  0  0
 21 27  1  0  0  0  0
 22 21  2  0  0  0  0
 23 22  1  0  0  0  0
 24 22  1  0  0  0  0
 24 25  1  0  0  0  0
 25 26  1  0  0  0  0
 25 27  2  0  0  0  0
M  END
>  <minimizedAffinity>
-4.03091431

$$$$

 OpenBabel03272508523D

 27 29  0  0  1  0  0  0  0  0999 V2000
   38.0460   26.4990   32.7730 C   0  0  2  0  0  0  0  0  0  0  0  0
   37.8190   25.4690   31.7680 C   0  0  0  0  0  0  0  0  0  0  0  0
   37.5390   25.2190   33.2620 C   0  0  1  0  0  0  0  0  0  0  0  0
   39.1120   26.7290   33.1080 H   0  0  0  0  0  0  0  0  0  0  0  0
   36.9400   25.5480   31.0770 H   0  0  0  0  0  0  0  0  0  0  0  0
   38.6310   24.8840   31.3430 H   0  0  0  0  0  0  0  0  0  0  0  0
   36.4920   24.9150   33.3970 H   0  0  0  0  0  0  0  0  0  0  0  0
   36.2500   29.6230   31.9290 C   0  0  0  0  0  0  0  0  0  0  0  0
   35.5900   29.9390   33.1440 C   0  0  0  0  0  0  0  0  0  0  0  0
   35.7900   29.0430   34.2480 C   0  0  0  0  0  0  0  0  0  0  0  0
   36.5850   27.9570   34.0830 N   0  0  0  0  0  0  0  0  0  0  0  0
   37.1870   27.7140   32.8880 C   0  0  0  0  0  0  0  0  0  0  0  0
   37.0410   28.5160   31.8080 N   0  0  0  0  0  0  0  0  0  0  0  0
   36.0490   30.3440   31.1490 H   0  0  0  0  0  0  0  0  0  0  0  0
   34.9720   30.7970   33.2460 H   0  0  0  0  0  0  0  0  0  0  0  0
   35.3170   29.2320   35.1890 H   0  0  0  0  0  0  0  0  0  0  0  0
   38.6010   24.3770   35.3270 C   0  0  0  0  0  0  0  0  0  0  0  0
   37.7570   25.0240   35.9940 O   0  0  0  0  0  0  0  0  0  0  0  0
   38.5150   24.3250   33.8930 N   0  0  0  0  0  0  0  0  0  0  0  0
   39.1320   23.6710   33.3940 H   0  0  0  0  0  0  0  0  0  0  0  0
   39.7050   23.6560   36.0060 C   0  0  0  0  0  0  0  0  0  0  0  0
   41.0560   23.8870   35.4350 C   0  0  0  0  0  0  0  0  0  0  0  0
   41.3920   24.4460   34.6650 H   0  0  0  0  0  0  0  0  0  0  0  0
   42.0680   22.8980   36.4700 S   0  0  0  0  0  0  0  0  0  0  0  0
   40.6110   22.2910   37.5330 C   0  0  0  0  0  0  0  0  0  0  0  0
   40.5090   21.6310   38.3830 H   0  0  0  0  0  0  0  0  0  0  0  0
   39.5500   22.8590   37.0400 N   0  0  0  0  0  0  0  0  0  0  0  0
  1 12  1  0  0  0  0
  1  4  1  1  0  0  0
  1  3  1  0  0  0  0
  2  1  1  0  0  0  0
  2  3  1  0  0  0  0
  3  7  1  1  0  0  0
  3 19  1  0  0  0  0
  5  2  1  0  0  0  0
  6  2  1  0  0  0  0
  8  9  1  0  0  0  0
  9 15  1  0  0  0  0
  9 10  2  0  0  0  0
 10 16  1  0  0  0  0
 11 10  1  0  0  0  0
 12 11  2  0  0  0  0
 13  8  2  0  0  0  0
 13 12  1  0  0  0  0
 14  8  1  0  0  0  0
 17 18  2  0  0  0  0
 17 21  1  0  0  0  0
 19 17  1  0  0  0  0
 20 19  1  0  0  0  0
 21 27  1  0  0  0  0
 22 21  2  0  0  0  0
 22 24  1  0  0  0  0
 23 22  1  0  0  0  0
 24 25  1  0  0  0  0
 25 26  1  0  0  0  0
 27 25  2  0  0  0  0
M  END
>  <minimizedAffinity>
-3.98149991

$$$$

 OpenBabel03272508523D

 27 29  0  0  1  0  0  0  0  0999 V2000
   39.2270   23.6450   36.5240 C   0  0  2  0  0  0  0  0  0  0  0  0
   37.9890   22.9130   36.2940 C   0  0  0  0  0  0  0  0  0  0  0  0
   38.5670   23.8790   35.2420 C   0  0  1  0  0  0  0  0  0  0  0  0
   39.2210   24.5520   37.2150 H   0  0  0  0  0  0  0  0  0  0  0  0
   38.0230   21.8160   36.0720 H   0  0  0  0  0  0  0  0  0  0  0  0
   37.0440   23.2200   36.7360 H   0  0  0  0  0  0  0  0  0  0  0  0
   38.7240   23.3430   34.2960 H   0  0  0  0  0  0  0  0  0  0  0  0
   41.9360   21.2300   37.2470 C   0  0  0  0  0  0  0  0  0  0  0  0
   43.0410   21.7850   36.5500 C   0  0  0  0  0  0  0  0  0  0  0  0
   42.8130   23.0090   35.8340 C   0  0  0  0  0  0  0  0  0  0  0  0
   41.5770   23.5670   35.8560 N   0  0  0  0  0  0  0  0  0  0  0  0
   40.5630   22.9800   36.5450 C   0  0  0  0  0  0  0  0  0  0  0  0
   40.7090   21.8280   37.2400 N   0  0  0  0  0  0  0  0  0  0  0  0
   42.1900   20.3120   37.7600 H   0  0  0  0  0  0  0  0  0  0  0  0
   43.9980   21.3260   36.5500 H   0  0  0  0  0  0  0  0  0  0  0  0
   43.6100   23.4720   35.2910 H   0  0  0  0  0  0  0  0  0  0  0  0
   37.5610   25.5950   33.7780 C   0  0  0  0  0  0  0  0  0  0  0  0
   37.8390   24.8750   32.7880 O   0  0  0  0  0  0  0  0  0  0  0  0
   37.8030   25.1230   35.1140 N   0  0  0  0  0  0  0  0  0  0  0  0
   37.4300   25.6760   35.8970 H   0  0  0  0  0  0  0  0  0  0  0  0
   36.9790   26.9450   33.5880 C   0  0  0  0  0  0  0  0  0  0  0  0
   36.8920   27.4020   32.1780 C   0  0  0  0  0  0  0  0  0  0  0  0
   37.1500   26.9780   31.2990 H   0  0  0  0  0  0  0  0  0  0  0  0
   36.1740   28.9920   32.3490 S   0  0  0  0  0  0  0  0  0  0  0  0
   36.0690   28.8840   34.2460 C   0  0  0  0  0  0  0  0  0  0  0  0
   35.7160   29.5380   35.0290 H   0  0  0  0  0  0  0  0  0  0  0  0
   36.5570   27.7200   34.5630 N   0  0  0  0  0  0  0  0  0  0  0  0
  1 12  1  0  0  0  0
  1  4  1  1  0  0  0
  2  1  1  0  0  0  0
  2  6  1  0  0  0  0
  3  7  1  6  0  0  0
  3  2  1  0  0  0  0
  3  1  1  0  0  0  0
  5  2  1  0  0  0  0
  8 14  1  0  0  0  0
  9  8  2  0  0  0  0
 10 11  2  0  0  0  0
 10  9  1  0  0  0  0
 11 12  1  0  0  0  0
 12 13  2  0  0  0  0
 13  8  1  0  0  0  0
 15  9  1  0  0  0  0
 16 10  1  0  0  0  0
 17 19  1  0  0  0  0
 18 17  2  0  0  0  0
 19  3  1  0  0  0  0
 19 20  1  0  0  0  0
 21 17  1  0  0  0  0
 21 27  1  0  0  0  0
 22 24  1  0  0  0  0
 22 21  2  0  0  0  0
 23 22  1  0  0  0  0
 24 25  1  0  0  0  0
 25 27  2  0  0  0  0
 25 26  1  0  0  0  0
M  END
>  <minimizedAffinity>
-3.95690989

$$$$
