
 OpenBabel03272509303D

 36 38  0  0  1  0  0  0  0  0999 V2000
   36.3250   30.6970   49.0070 C   0  0  2  0  0  0  0  0  0  0  0  0
   37.3540   31.4850   49.7630 C   0  0  0  0  0  0  0  0  0  0  0  0
   38.1780   30.6290   50.6990 C   0  0  0  0  0  0  0  0  0  0  0  0
   37.2690   29.8910   51.6830 C   0  0  0  0  0  0  0  0  0  0  0  0
   35.9760   29.4140   51.0780 C   0  0  0  0  0  0  0  0  0  0  0  0
   36.1670   29.3200   49.5530 C   0  0  1  0  0  0  0  0  0  0  0  0
   35.2970   31.1850   49.0080 H   0  0  0  0  0  0  0  0  0  0  0  0
   37.9590   32.1690   49.2010 H   0  0  0  0  0  0  0  0  0  0  0  0
   36.7360   32.1290   50.4770 H   0  0  0  0  0  0  0  0  0  0  0  0
   38.8230   31.3110   51.2610 H   0  0  0  0  0  0  0  0  0  0  0  0
   38.7730   29.8630   50.1900 H   0  0  0  0  0  0  0  0  0  0  0  0
   37.0260   30.6370   52.4730 H   0  0  0  0  0  0  0  0  0  0  0  0
   37.8630   29.0790   52.1530 H   0  0  0  0  0  0  0  0  0  0  0  0
   35.1240   30.0720   51.2520 H   0  0  0  0  0  0  0  0  0  0  0  0
   35.7870   28.3690   51.4020 H   0  0  0  0  0  0  0  0  0  0  0  0
   37.0830   28.7800   49.5130 H   0  0  0  0  0  0  0  0  0  0  0  0
   36.6730   30.6070   47.5650 C   0  0  0  0  0  0  0  0  0  0  0  0
   38.0350   30.7870   47.2560 C   0  0  0  0  0  0  0  0  0  0  0  0
   38.3880   30.7020   45.9040 C   0  0  0  0  0  0  0  0  0  0  0  0
   37.4020   30.4520   44.9750 N   0  0  0  0  0  0  0  0  0  0  0  0
   36.0900   30.2840   45.3310 C   0  0  0  0  0  0  0  0  0  0  0  0
   35.7480   30.3660   46.6330 N   0  0  0  0  0  0  0  0  0  0  0  0
   38.8930   30.9750   47.8720 H   0  0  0  0  0  0  0  0  0  0  0  0
   39.3870   30.8180   45.5190 H   0  0  0  0  0  0  0  0  0  0  0  0
   35.3680   30.0900   44.5510 H   0  0  0  0  0  0  0  0  0  0  0  0
   33.8120   28.4210   49.1330 C   0  0  0  0  0  0  0  0  0  0  0  0
   33.0780   29.1210   49.9310 O   0  0  0  0  0  0  0  0  0  0  0  0
   35.2020   28.5280   48.8800 N   0  0  0  0  0  0  0  0  0  0  0  0
   35.5520   27.9290   48.0640 H   0  0  0  0  0  0  0  0  0  0  0  0
   33.0340   27.3730   48.4070 C   0  0  0  0  0  0  0  0  0  0  0  0
   33.8680   26.5290   47.5290 C   0  0  0  0  0  0  0  0  0  0  0  0
   34.8640   26.3830   47.2060 H   0  0  0  0  0  0  0  0  0  0  0  0
   32.5470   25.3780   46.8210 S   0  0  0  0  0  0  0  0  0  0  0  0
   31.1950   26.2050   47.7900 C   0  0  0  0  0  0  0  0  0  0  0  0
   30.0450   26.2040   48.0180 H   0  0  0  0  0  0  0  0  0  0  0  0
   31.7270   27.1970   48.5200 N   0  0  0  0  0  0  0  0  0  0  0  0
  1  7  1  1  0  0  0
  1  6  1  0  0  0  0
  1  2  1  0  0  0  0
  2  9  1  0  0  0  0
  2  3  1  0  0  0  0
  3 10  1  0  0  0  0
  3  4  1  0  0  0  0
  4 13  1  0  0  0  0
  4 12  1  0  0  0  0
  5 14  1  0  0  0  0
  5 15  1  0  0  0  0
  5  4  1  0  0  0  0
  6 16  1  6  0  0  0
  6  5  1  0  0  0  0
  8  2  1  0  0  0  0
 11  3  1  0  0  0  0
 17  1  1  0  0  0  0
 18 17  1  0  0  0  0
 18 23  1  0  0  0  0
 19 18  2  0  0  0  0
 20 21  2  0  0  0  0
 20 19  1  0  0  0  0
 21 22  1  0  0  0  0
 22 17  2  0  0  0  0
 24 19  1  0  0  0  0
 25 21  1  0  0  0  0
 26 27  2  0  0  0  0
 28 26  1  0  0  0  0
 28  6  1  0  0  0  0
 29 28  1  0  0  0  0
 30 36  1  0  0  0  0
 30 26  1  0  0  0  0
 31 30  2  0  0  0  0
 32 31  1  0  0  0  0
 33 31  1  0  0  0  0
 33 34  1  0  0  0  0
 34 35  1  0  0  0  0
 34 36  2  0  0  0  0
M  END
>  <minimizedAffinity>
-5.70410633

>  <minimizedRMSD>
0.593502164

$$$$
