
 OpenBabel03272509303D

 36 38  0  0  1  0  0  0  0  0999 V2000
   36.3250   30.6970   49.0050 C   0  0  2  0  0  0  0  0  0  0  0  0
   37.3530   31.4850   49.7610 C   0  0  0  0  0  0  0  0  0  0  0  0
   38.1780   30.6290   50.6970 C   0  0  0  0  0  0  0  0  0  0  0  0
   37.2690   29.8920   51.6810 C   0  0  0  0  0  0  0  0  0  0  0  0
   35.9760   29.4140   51.0770 C   0  0  0  0  0  0  0  0  0  0  0  0
   36.1670   29.3200   49.5510 C   0  0  1  0  0  0  0  0  0  0  0  0
   35.2970   31.1850   49.0060 H   0  0  0  0  0  0  0  0  0  0  0  0
   37.9580   32.1690   49.1980 H   0  0  0  0  0  0  0  0  0  0  0  0
   36.7360   32.1300   50.4740 H   0  0  0  0  0  0  0  0  0  0  0  0
   38.8230   31.3120   51.2590 H   0  0  0  0  0  0  0  0  0  0  0  0
   38.7730   29.8640   50.1880 H   0  0  0  0  0  0  0  0  0  0  0  0
   37.0260   30.6380   52.4710 H   0  0  0  0  0  0  0  0  0  0  0  0
   37.8630   29.0800   52.1510 H   0  0  0  0  0  0  0  0  0  0  0  0
   35.1240   30.0720   51.2500 H   0  0  0  0  0  0  0  0  0  0  0  0
   35.7870   28.3700   51.4010 H   0  0  0  0  0  0  0  0  0  0  0  0
   37.0820   28.7800   49.5110 H   0  0  0  0  0  0  0  0  0  0  0  0
   36.6720   30.6060   47.5630 C   0  0  0  0  0  0  0  0  0  0  0  0
   38.0350   30.7860   47.2540 C   0  0  0  0  0  0  0  0  0  0  0  0
   38.3870   30.7010   45.9020 C   0  0  0  0  0  0  0  0  0  0  0  0
   37.4010   30.4510   44.9730 N   0  0  0  0  0  0  0  0  0  0  0  0
   36.0890   30.2840   45.3290 C   0  0  0  0  0  0  0  0  0  0  0  0
   35.7470   30.3660   46.6310 N   0  0  0  0  0  0  0  0  0  0  0  0
   38.8930   30.9740   47.8700 H   0  0  0  0  0  0  0  0  0  0  0  0
   39.3860   30.8160   45.5170 H   0  0  0  0  0  0  0  0  0  0  0  0
   35.3660   30.0900   44.5490 H   0  0  0  0  0  0  0  0  0  0  0  0
   33.8110   28.4200   49.1330 C   0  0  0  0  0  0  0  0  0  0  0  0
   33.0780   29.1190   49.9310 O   0  0  0  0  0  0  0  0  0  0  0  0
   35.2020   28.5280   48.8790 N   0  0  0  0  0  0  0  0  0  0  0  0
   35.5520   27.9290   48.0630 H   0  0  0  0  0  0  0  0  0  0  0  0
   33.0340   27.3720   48.4070 C   0  0  0  0  0  0  0  0  0  0  0  0
   33.8690   26.5280   47.5290 C   0  0  0  0  0  0  0  0  0  0  0  0
   34.8640   26.3810   47.2070 H   0  0  0  0  0  0  0  0  0  0  0  0
   32.5470   25.3760   46.8220 S   0  0  0  0  0  0  0  0  0  0  0  0
   31.1950   26.2040   47.7890 C   0  0  0  0  0  0  0  0  0  0  0  0
   30.0450   26.2030   48.0170 H   0  0  0  0  0  0  0  0  0  0  0  0
   31.7270   27.1960   48.5180 N   0  0  0  0  0  0  0  0  0  0  0  0
  1  7  1  1  0  0  0
  1  6  1  0  0  0  0
  1  2  1  0  0  0  0
  2  9  1  0  0  0  0
  2  3  1  0  0  0  0
  3 10  1  0  0  0  0
  3  4  1  0  0  0  0
  4 13  1  0  0  0  0
  4 12  1  0  0  0  0
  5 14  1  0  0  0  0
  5 15  1  0  0  0  0
  5  4  1  0  0  0  0
  6 16  1  6  0  0  0
  6  5  1  0  0  0  0
  8  2  1  0  0  0  0
 11  3  1  0  0  0  0
 17  1  1  0  0  0  0
 18 17  1  0  0  0  0
 18 23  1  0  0  0  0
 19 18  2  0  0  0  0
 20 21  2  0  0  0  0
 20 19  1  0  0  0  0
 21 22  1  0  0  0  0
 22 17  2  0  0  0  0
 24 19  1  0  0  0  0
 25 21  1  0  0  0  0
 26 27  2  0  0  0  0
 28 26  1  0  0  0  0
 28  6  1  0  0  0  0
 29 28  1  0  0  0  0
 30 36  1  0  0  0  0
 30 26  1  0  0  0  0
 31 30  2  0  0  0  0
 32 31  1  0  0  0  0
 33 31  1  0  0  0  0
 33 34  1  0  0  0  0
 34 35  1  0  0  0  0
 34 36  2  0  0  0  0
M  END
>  <minimizedAffinity>
-5.70501852

>  <minimizedRMSD>
0.665126145

$$$$
