
 OpenBabel03272509303D

 36 38  0  0  1  0  0  0  0  0999 V2000
   36.3250   30.6970   49.0060 C   0  0  2  0  0  0  0  0  0  0  0  0
   37.3530   31.4850   49.7620 C   0  0  0  0  0  0  0  0  0  0  0  0
   38.1780   30.6290   50.6990 C   0  0  0  0  0  0  0  0  0  0  0  0
   37.2680   29.8910   51.6820 C   0  0  0  0  0  0  0  0  0  0  0  0
   35.9760   29.4140   51.0770 C   0  0  0  0  0  0  0  0  0  0  0  0
   36.1670   29.3200   49.5510 C   0  0  1  0  0  0  0  0  0  0  0  0
   35.2970   31.1850   49.0070 H   0  0  0  0  0  0  0  0  0  0  0  0
   37.9580   32.1680   49.2000 H   0  0  0  0  0  0  0  0  0  0  0  0
   36.7360   32.1290   50.4760 H   0  0  0  0  0  0  0  0  0  0  0  0
   38.8230   31.3110   51.2600 H   0  0  0  0  0  0  0  0  0  0  0  0
   38.7730   29.8630   50.1900 H   0  0  0  0  0  0  0  0  0  0  0  0
   37.0250   30.6370   52.4720 H   0  0  0  0  0  0  0  0  0  0  0  0
   37.8620   29.0790   52.1520 H   0  0  0  0  0  0  0  0  0  0  0  0
   35.1240   30.0720   51.2510 H   0  0  0  0  0  0  0  0  0  0  0  0
   35.7870   28.3690   51.4010 H   0  0  0  0  0  0  0  0  0  0  0  0
   37.0820   28.7790   49.5120 H   0  0  0  0  0  0  0  0  0  0  0  0
   36.6730   30.6060   47.5640 C   0  0  0  0  0  0  0  0  0  0  0  0
   38.0360   30.7860   47.2560 C   0  0  0  0  0  0  0  0  0  0  0  0
   38.3880   30.7020   45.9040 C   0  0  0  0  0  0  0  0  0  0  0  0
   37.4030   30.4520   44.9750 N   0  0  0  0  0  0  0  0  0  0  0  0
   36.0910   30.2850   45.3300 C   0  0  0  0  0  0  0  0  0  0  0  0
   35.7480   30.3660   46.6310 N   0  0  0  0  0  0  0  0  0  0  0  0
   38.8930   30.9740   47.8720 H   0  0  0  0  0  0  0  0  0  0  0  0
   39.3880   30.8170   45.5190 H   0  0  0  0  0  0  0  0  0  0  0  0
   35.3680   30.0910   44.5500 H   0  0  0  0  0  0  0  0  0  0  0  0
   33.8110   28.4200   49.1330 C   0  0  0  0  0  0  0  0  0  0  0  0
   33.0780   29.1190   49.9310 O   0  0  0  0  0  0  0  0  0  0  0  0
   35.2020   28.5280   48.8790 N   0  0  0  0  0  0  0  0  0  0  0  0
   35.5520   27.9290   48.0630 H   0  0  0  0  0  0  0  0  0  0  0  0
   33.0340   27.3720   48.4060 C   0  0  0  0  0  0  0  0  0  0  0  0
   33.8690   26.5280   47.5300 C   0  0  0  0  0  0  0  0  0  0  0  0
   34.8630   26.3810   47.2080 H   0  0  0  0  0  0  0  0  0  0  0  0
   32.5470   25.3750   46.8230 S   0  0  0  0  0  0  0  0  0  0  0  0
   31.1950   26.2040   47.7890 C   0  0  0  0  0  0  0  0  0  0  0  0
   30.0450   26.2030   48.0180 H   0  0  0  0  0  0  0  0  0  0  0  0
   31.7260   27.1960   48.5190 N   0  0  0  0  0  0  0  0  0  0  0  0
  1  7  1  1  0  0  0
  1  6  1  0  0  0  0
  1  2  1  0  0  0  0
  2  9  1  0  0  0  0
  2  3  1  0  0  0  0
  3 10  1  0  0  0  0
  3  4  1  0  0  0  0
  4 13  1  0  0  0  0
  4 12  1  0  0  0  0
  5 14  1  0  0  0  0
  5 15  1  0  0  0  0
  5  4  1  0  0  0  0
  6 16  1  6  0  0  0
  6  5  1  0  0  0  0
  8  2  1  0  0  0  0
 11  3  1  0  0  0  0
 17  1  1  0  0  0  0
 18 17  1  0  0  0  0
 18 23  1  0  0  0  0
 19 18  2  0  0  0  0
 20 21  2  0  0  0  0
 20 19  1  0  0  0  0
 21 22  1  0  0  0  0
 22 17  2  0  0  0  0
 24 19  1  0  0  0  0
 25 21  1  0  0  0  0
 26 27  2  0  0  0  0
 28 26  1  0  0  0  0
 28  6  1  0  0  0  0
 29 28  1  0  0  0  0
 30 36  1  0  0  0  0
 30 26  1  0  0  0  0
 31 30  2  0  0  0  0
 32 31  1  0  0  0  0
 33 31  1  0  0  0  0
 33 34  1  0  0  0  0
 34 35  1  0  0  0  0
 34 36  2  0  0  0  0
M  END
>  <minimizedAffinity>
-5.70516968

>  <minimizedRMSD>
0.701059878

$$$$
