
 OpenBabel03272508513D

 27 29  0  0  1  0  0  0  0  0999 V2000
   39.4920   31.9370   46.5080 C   0  0  2  0  0  0  0  0  0  0  0  0
   40.0350   33.2670   46.2680 C   0  0  0  0  0  0  0  0  0  0  0  0
   39.1350   32.5620   45.2370 C   0  0  1  0  0  0  0  0  0  0  0  0
   40.1710   31.0270   46.3970 H   0  0  0  0  0  0  0  0  0  0  0  0
   39.6130   34.1490   46.8150 H   0  0  0  0  0  0  0  0  0  0  0  0
   41.0640   33.4260   45.9550 H   0  0  0  0  0  0  0  0  0  0  0  0
   38.2610   33.1910   45.0170 H   0  0  0  0  0  0  0  0  0  0  0  0
   36.3630   30.7370   48.0760 C   0  0  0  0  0  0  0  0  0  0  0  0
   36.4840   31.2080   49.4100 C   0  0  0  0  0  0  0  0  0  0  0  0
   37.6720   31.9450   49.7360 C   0  0  0  0  0  0  0  0  0  0  0  0
   38.6050   32.1550   48.7750 N   0  0  0  0  0  0  0  0  0  0  0  0
   38.4240   31.6740   47.5160 C   0  0  0  0  0  0  0  0  0  0  0  0
   37.3300   30.9720   47.1410 N   0  0  0  0  0  0  0  0  0  0  0  0
   35.4430   30.1930   47.9110 H   0  0  0  0  0  0  0  0  0  0  0  0
   35.7360   31.0290   50.1430 H   0  0  0  0  0  0  0  0  0  0  0  0
   37.8160   32.3240   50.7260 H   0  0  0  0  0  0  0  0  0  0  0  0
   39.2570   31.0350   43.2990 C   0  0  0  0  0  0  0  0  0  0  0  0
   38.0870   30.6580   43.5560 O   0  0  0  0  0  0  0  0  0  0  0  0
   39.8620   32.1000   44.0510 N   0  0  0  0  0  0  0  0  0  0  0  0
   40.7600   32.4770   43.7190 H   0  0  0  0  0  0  0  0  0  0  0  0
   40.0370   30.3860   42.2180 C   0  0  0  0  0  0  0  0  0  0  0  0
   40.2330   28.9220   42.3710 C   0  0  0  0  0  0  0  0  0  0  0  0
   39.9420   28.2580   43.0730 H   0  0  0  0  0  0  0  0  0  0  0  0
   41.1720   28.5250   40.9450 S   0  0  0  0  0  0  0  0  0  0  0  0
   41.2030   30.3160   40.3070 C   0  0  0  0  0  0  0  0  0  0  0  0
   41.6250   30.8120   39.4450 H   0  0  0  0  0  0  0  0  0  0  0  0
   40.5390   31.0170   41.1790 N   0  0  0  0  0  0  0  0  0  0  0  0
  1  4  1  6  0  0  0
  1 12  1  0  0  0  0
  2  1  1  0  0  0  0
  2  5  1  0  0  0  0
  3  7  1  6  0  0  0
  3  2  1  0  0  0  0
  3  1  1  0  0  0  0
  6  2  1  0  0  0  0
  8  9  1  0  0  0  0
  9 10  2  0  0  0  0
  9 15  1  0  0  0  0
 10 16  1  0  0  0  0
 11 10  1  0  0  0  0
 12 11  2  0  0  0  0
 13 12  1  0  0  0  0
 13  8  2  0  0  0  0
 14  8  1  0  0  0  0
 17 18  2  0  0  0  0
 17 19  1  0  0  0  0
 19  3  1  0  0  0  0
 20 19  1  0  0  0  0
 21 22  2  0  0  0  0
 21 17  1  0  0  0  0
 22 23  1  0  0  0  0
 24 22  1  0  0  0  0
 25 24  1  0  0  0  0
 25 27  2  0  0  0  0
 26 25  1  0  0  0  0
 27 21  1  0  0  0  0
M  END
>  <minimizedAffinity>
-4.55425167

>  <minimizedRMSD>
7.82747889

$$$$
