
 OpenBabel03272503063D

 30 32  0  0  0  0  0  0  0  0999 V2000
   40.1600   23.9100   34.7870 F   0  0  0  0  0  0  0  0  0  0  0  0
   39.6260   23.7560   36.0280 C   0  0  0  0  0  0  0  0  0  0  0  0
   40.3350   23.0910   36.9900 C   0  0  0  0  0  0  0  0  0  0  0  0
   39.7390   22.9710   38.2190 C   0  0  0  0  0  0  0  0  0  0  0  0
   38.4920   23.4860   38.5000 C   0  0  0  0  0  0  0  0  0  0  0  0
   37.8030   24.1510   37.5150 C   0  0  0  0  0  0  0  0  0  0  0  0
   38.3730   24.2920   36.2530 C   0  0  0  0  0  0  0  0  0  0  0  0
   40.2780   22.4500   38.9980 H   0  0  0  0  0  0  0  0  0  0  0  0
   38.0370   23.3790   39.4870 H   0  0  0  0  0  0  0  0  0  0  0  0
   36.8210   24.5690   37.6940 H   0  0  0  0  0  0  0  0  0  0  0  0
   44.0210   22.8240   36.1830 C   0  0  0  0  0  0  0  0  0  0  0  0
   42.7740   23.3600   36.5200 C   0  0  0  0  0  0  0  0  0  0  0  0
   41.6470   22.5670   36.6420 C   0  0  0  0  0  0  0  0  0  0  0  0
   41.8320   21.2310   36.4120 N   0  0  0  0  0  0  0  0  0  0  0  0
   43.0360   20.7240   36.0880 C   0  0  0  0  0  0  0  0  0  0  0  0
   44.0990   21.5040   35.9780 N   0  0  0  0  0  0  0  0  0  0  0  0
   44.9050   23.4460   36.0880 H   0  0  0  0  0  0  0  0  0  0  0  0
   42.6900   24.4280   36.6910 H   0  0  0  0  0  0  0  0  0  0  0  0
   42.9560   19.6400   35.9490 H   0  0  0  0  0  0  0  0  0  0  0  0
   37.8030   26.3970   35.2700 C   0  0  0  0  0  0  0  0  0  0  0  0
   38.4570   26.8340   36.2600 O   0  0  0  0  0  0  0  0  0  0  0  0
   37.6890   24.9800   35.1900 N   0  0  0  0  0  0  0  0  0  0  0  0
   37.1570   24.5630   34.4210 H   0  0  0  0  0  0  0  0  0  0  0  0
   37.2220   27.3180   34.3060 C   0  0  0  0  0  0  0  0  0  0  0  0
   37.6570   27.2790   32.9580 C   0  0  0  0  0  0  0  0  0  0  0  0
   38.4610   26.5660   32.5030 H   0  0  0  0  0  0  0  0  0  0  0  0
   36.6320   28.6340   32.1190 S   0  0  0  0  0  0  0  0  0  0  0  0
   35.8210   28.9770   33.7760 C   0  0  0  0  0  0  0  0  0  0  0  0
   34.9650   29.7230   34.3020 H   0  0  0  0  0  0  0  0  0  0  0  0
   36.3060   28.2410   34.4750 N   0  0  0  0  0  0  0  0  0  0  0  0
  1  2  1  0  0  0  0
  2  7  2  0  0  0  0
  2  3  1  0  0  0  0
  3  4  2  0  0  0  0
  4  5  1  0  0  0  0
  4  8  1  0  0  0  0
  5  9  1  0  0  0  0
  6 10  1  0  0  0  0
  6  5  2  0  0  0  0
  7  6  1  0  0  0  0
 11 12  1  0  0  0  0
 12 13  2  0  0  0  0
 12 18  1  0  0  0  0
 13  3  1  0  0  0  0
 14 13  1  0  0  0  0
 15 14  2  0  0  0  0
 16 15  1  0  0  0  0
 16 11  2  0  0  0  0
 17 11  1  0  0  0  0
 19 15  1  0  0  0  0
 20 21  2  0  0  0  0
 22 20  1  0  0  0  0
 22  7  1  0  0  0  0
 23 22  1  0  0  0  0
 24 30  1  0  0  0  0
 24 20  1  0  0  0  0
 25 24  2  0  0  0  0
 26 25  1  0  0  0  0
 27 25  1  0  0  0  0
 27 28  1  0  0  0  0
 28 29  1  0  0  0  0
 28 30  2  0  0  0  0
M  END
>  <minimizedAffinity>
-5.27648306

$$$$

 OpenBabel03272503063D

 30 32  0  0  0  0  0  0  0  0999 V2000
   35.9220   28.0770   34.6410 F   0  0  0  0  0  0  0  0  0  0  0  0
   36.0900   28.8200   33.5150 C   0  0  0  0  0  0  0  0  0  0  0  0
   35.6550   30.1160   33.4890 C   0  0  0  0  0  0  0  0  0  0  0  0
   35.8550   30.8080   32.3220 C   0  0  0  0  0  0  0  0  0  0  0  0
   36.4620   30.2520   31.2170 C   0  0  0  0  0  0  0  0  0  0  0  0
   36.8890   28.9480   31.2710 C   0  0  0  0  0  0  0  0  0  0  0  0
   36.7030   28.2110   32.4370 C   0  0  0  0  0  0  0  0  0  0  0  0
   35.5200   31.8350   32.2760 H   0  0  0  0  0  0  0  0  0  0  0  0
   36.6110   30.8230   30.2980 H   0  0  0  0  0  0  0  0  0  0  0  0
   37.3690   28.4730   30.4250 H   0  0  0  0  0  0  0  0  0  0  0  0
   35.0500   31.9310   36.7520 C   0  0  0  0  0  0  0  0  0  0  0  0
   35.6900   31.4290   35.6140 C   0  0  0  0  0  0  0  0  0  0  0  0
   35.0210   30.6540   34.6830 C   0  0  0  0  0  0  0  0  0  0  0  0
   33.7010   30.4130   34.9480 N   0  0  0  0  0  0  0  0  0  0  0  0
   33.0940   30.9000   36.0460 C   0  0  0  0  0  0  0  0  0  0  0  0
   33.7550   31.6390   36.9220 N   0  0  0  0  0  0  0  0  0  0  0  0
   35.5740   32.5390   37.4830 H   0  0  0  0  0  0  0  0  0  0  0  0
   36.7390   31.6550   35.4590 H   0  0  0  0  0  0  0  0  0  0  0  0
   32.0440   30.5860   36.0580 H   0  0  0  0  0  0  0  0  0  0  0  0
   36.2470   25.9220   31.9130 C   0  0  0  0  0  0  0  0  0  0  0  0
   35.2180   26.4340   31.3860 O   0  0  0  0  0  0  0  0  0  0  0  0
   37.1350   26.8420   32.5410 N   0  0  0  0  0  0  0  0  0  0  0  0
   37.9780   26.4890   33.0010 H   0  0  0  0  0  0  0  0  0  0  0  0
   36.4670   24.4860   31.8570 C   0  0  0  0  0  0  0  0  0  0  0  0
   37.6390   23.9380   32.4340 C   0  0  0  0  0  0  0  0  0  0  0  0
   38.4910   24.5230   32.9750 H   0  0  0  0  0  0  0  0  0  0  0  0
   37.4690   22.0790   32.1110 S   0  0  0  0  0  0  0  0  0  0  0  0
   35.8360   22.4270   31.2550 C   0  0  0  0  0  0  0  0  0  0  0  0
   34.9020   21.8360   30.6680 H   0  0  0  0  0  0  0  0  0  0  0  0
   35.7210   23.5440   31.3300 N   0  0  0  0  0  0  0  0  0  0  0  0
  2  1  1  0  0  0  0
  3  2  1  0  0  0  0
  3 13  1  0  0  0  0
  4  3  2  0  0  0  0
  5  6  2  0  0  0  0
  5  4  1  0  0  0  0
  6  7  1  0  0  0  0
  7 22  1  0  0  0  0
  7  2  2  0  0  0  0
  8  4  1  0  0  0  0
  9  5  1  0  0  0  0
 10  6  1  0  0  0  0
 11 16  1  0  0  0  0
 11 17  1  0  0  0  0
 12 11  2  0  0  0  0
 13 14  2  0  0  0  0
 13 12  1  0  0  0  0
 14 15  1  0  0  0  0
 15 19  1  0  0  0  0
 15 16  2  0  0  0  0
 18 12  1  0  0  0  0
 20 22  1  0  0  0  0
 21 20  2  0  0  0  0
 22 23  1  0  0  0  0
 24 20  1  0  0  0  0
 24 25  2  0  0  0  0
 25 26  1  0  0  0  0
 27 25  1  0  0  0  0
 28 30  2  0  0  0  0
 28 27  1  0  0  0  0
 29 28  1  0  0  0  0
 30 24  1  0  0  0  0
M  END
>  <minimizedAffinity>
-5.16692972

$$$$

 OpenBabel03272503063D

 30 32  0  0  0  0  0  0  0  0999 V2000
   35.1930   23.9210   31.5670 F   0  0  0  0  0  0  0  0  0  0  0  0
   36.5200   23.8800   31.2780 C   0  0  0  0  0  0  0  0  0  0  0  0
   37.2180   22.7200   31.4670 C   0  0  0  0  0  0  0  0  0  0  0  0
   38.5530   22.7470   31.1560 C   0  0  0  0  0  0  0  0  0  0  0  0
   39.1860   23.8720   30.6740 C   0  0  0  0  0  0  0  0  0  0  0  0
   38.4610   25.0250   30.4920 C   0  0  0  0  0  0  0  0  0  0  0  0
   37.1030   25.0380   30.7980 C   0  0  0  0  0  0  0  0  0  0  0  0
   39.1270   21.8420   31.2960 H   0  0  0  0  0  0  0  0  0  0  0  0
   40.2510   23.8710   30.4320 H   0  0  0  0  0  0  0  0  0  0  0  0
   38.9200   25.9300   30.1170 H   0  0  0  0  0  0  0  0  0  0  0  0
   35.3140   19.4580   31.6900 C   0  0  0  0  0  0  0  0  0  0  0  0
   35.9990   20.5590   31.1660 C   0  0  0  0  0  0  0  0  0  0  0  0
   36.5010   21.5610   31.9780 C   0  0  0  0  0  0  0  0  0  0  0  0
   36.2850   21.4030   33.3200 N   0  0  0  0  0  0  0  0  0  0  0  0
   35.6250   20.3400   33.8150 C   0  0  0  0  0  0  0  0  0  0  0  0
   35.1540   19.3950   33.0180 N   0  0  0  0  0  0  0  0  0  0  0  0
   34.9200   18.6730   31.0540 H   0  0  0  0  0  0  0  0  0  0  0  0
   36.1390   20.6280   30.0930 H   0  0  0  0  0  0  0  0  0  0  0  0
   35.5660   20.4160   34.9060 H   0  0  0  0  0  0  0  0  0  0  0  0
   36.3540   27.1050   31.7400 C   0  0  0  0  0  0  0  0  0  0  0  0
   37.0650   26.7140   32.7100 O   0  0  0  0  0  0  0  0  0  0  0  0
   36.3030   26.2210   30.6250 N   0  0  0  0  0  0  0  0  0  0  0  0
   35.7310   26.4710   29.8140 H   0  0  0  0  0  0  0  0  0  0  0  0
   35.6540   28.3780   31.8060 C   0  0  0  0  0  0  0  0  0  0  0  0
   36.0410   29.4300   30.9380 C   0  0  0  0  0  0  0  0  0  0  0  0
   36.8910   29.4010   30.1400 H   0  0  0  0  0  0  0  0  0  0  0  0
   34.8620   30.8410   31.3950 S   0  0  0  0  0  0  0  0  0  0  0  0
   34.0830   29.7100   32.6740 C   0  0  0  0  0  0  0  0  0  0  0  0
   33.1810   29.7010   33.5410 H   0  0  0  0  0  0  0  0  0  0  0  0
   34.6610   28.7490   32.5780 N   0  0  0  0  0  0  0  0  0  0  0  0
  2  3  1  0  0  0  0
  2  1  1  0  0  0  0
  3 13  1  0  0  0  0
  4  8  1  0  0  0  0
  4  3  2  0  0  0  0
  5  4  1  0  0  0  0
  6  5  2  0  0  0  0
  6  7  1  0  0  0  0
  7  2  2  0  0  0  0
  9  5  1  0  0  0  0
 10  6  1  0  0  0  0
 11 16  1  0  0  0  0
 12 11  2  0  0  0  0
 12 13  1  0  0  0  0
 13 14  2  0  0  0  0
 14 15  1  0  0  0  0
 15 19  1  0  0  0  0
 16 15  2  0  0  0  0
 17 11  1  0  0  0  0
 18 12  1  0  0  0  0
 20 24  1  0  0  0  0
 20 21  2  0  0  0  0
 22  7  1  0  0  0  0
 22 20  1  0  0  0  0
 23 22  1  0  0  0  0
 24 30  1  0  0  0  0
 25 27  1  0  0  0  0
 25 24  2  0  0  0  0
 26 25  1  0  0  0  0
 27 28  1  0  0  0  0
 28 29  1  0  0  0  0
 30 28  2  0  0  0  0
M  END
>  <minimizedAffinity>
-4.80650377

$$$$

 OpenBabel03272503063D

 30 32  0  0  0  0  0  0  0  0999 V2000
   36.3970   27.5370   35.2150 F   0  0  0  0  0  0  0  0  0  0  0  0
   36.5840   27.9340   33.9280 C   0  0  0  0  0  0  0  0  0  0  0  0
   36.0320   29.1080   33.4960 C   0  0  0  0  0  0  0  0  0  0  0  0
   36.2580   29.4490   32.1870 C   0  0  0  0  0  0  0  0  0  0  0  0
   37.0020   28.6680   31.3290 C   0  0  0  0  0  0  0  0  0  0  0  0
   37.5450   27.4930   31.7890 C   0  0  0  0  0  0  0  0  0  0  0  0
   37.3360   27.1110   33.1120 C   0  0  0  0  0  0  0  0  0  0  0  0
   35.8330   30.3730   31.8210 H   0  0  0  0  0  0  0  0  0  0  0  0
   37.1690   28.9590   30.2890 H   0  0  0  0  0  0  0  0  0  0  0  0
   38.1340   26.8510   31.1480 H   0  0  0  0  0  0  0  0  0  0  0  0
   35.0350   31.6120   36.1500 C   0  0  0  0  0  0  0  0  0  0  0  0
   35.8090   30.8740   35.2490 C   0  0  0  0  0  0  0  0  0  0  0  0
   35.2560   29.8950   34.4430 C   0  0  0  0  0  0  0  0  0  0  0  0
   33.9100   29.6980   34.5850 N   0  0  0  0  0  0  0  0  0  0  0  0
   33.1720   30.4140   35.4540 C   0  0  0  0  0  0  0  0  0  0  0  0
   33.7250   31.3450   36.2140 N   0  0  0  0  0  0  0  0  0  0  0  0
   35.4680   32.3800   36.7830 H   0  0  0  0  0  0  0  0  0  0  0  0
   36.8720   31.0760   35.1830 H   0  0  0  0  0  0  0  0  0  0  0  0
   32.1260   30.0930   35.4030 H   0  0  0  0  0  0  0  0  0  0  0  0
   39.1430   26.0700   34.2830 C   0  0  0  0  0  0  0  0  0  0  0  0
   39.5940   27.2510   34.2750 O   0  0  0  0  0  0  0  0  0  0  0  0
   37.8850   25.8910   33.6390 N   0  0  0  0  0  0  0  0  0  0  0  0
   37.4740   24.9540   33.5950 H   0  0  0  0  0  0  0  0  0  0  0  0
   39.8940   24.9980   34.9170 C   0  0  0  0  0  0  0  0  0  0  0  0
   41.2780   24.8610   34.6420 C   0  0  0  0  0  0  0  0  0  0  0  0
   41.9200   25.5330   33.9370 H   0  0  0  0  0  0  0  0  0  0  0  0
   41.7930   23.3620   35.6790 S   0  0  0  0  0  0  0  0  0  0  0  0
   40.0190   23.2270   36.2750 C   0  0  0  0  0  0  0  0  0  0  0  0
   39.2960   22.5300   37.0220 H   0  0  0  0  0  0  0  0  0  0  0  0
   39.4910   24.0740   35.7550 N   0  0  0  0  0  0  0  0  0  0  0  0
  2  1  1  0  0  0  0
  3  2  1  0  0  0  0
  3 13  1  0  0  0  0
  4  3  2  0  0  0  0
  5  6  2  0  0  0  0
  5  4  1  0  0  0  0
  6  7  1  0  0  0  0
  7 22  1  0  0  0  0
  7  2  2  0  0  0  0
  8  4  1  0  0  0  0
  9  5  1  0  0  0  0
 10  6  1  0  0  0  0
 11 16  1  0  0  0  0
 11 17  1  0  0  0  0
 12 11  2  0  0  0  0
 13 14  2  0  0  0  0
 13 12  1  0  0  0  0
 14 15  1  0  0  0  0
 15 16  2  0  0  0  0
 18 12  1  0  0  0  0
 19 15  1  0  0  0  0
 20 24  1  0  0  0  0
 21 20  2  0  0  0  0
 22 20  1  0  0  0  0
 23 22  1  0  0  0  0
 24 30  1  0  0  0  0
 25 24  2  0  0  0  0
 25 27  1  0  0  0  0
 26 25  1  0  0  0  0
 27 28  1  0  0  0  0
 28 29  1  0  0  0  0
 30 28  2  0  0  0  0
M  END
>  <minimizedAffinity>
-4.79597521

$$$$

 OpenBabel03272503063D

 30 32  0  0  0  0  0  0  0  0999 V2000
   36.5870   28.0250   34.9350 F   0  0  0  0  0  0  0  0  0  0  0  0
   37.1500   27.9070   33.7040 C   0  0  0  0  0  0  0  0  0  0  0  0
   36.5780   28.5400   32.6350 C   0  0  0  0  0  0  0  0  0  0  0  0
   37.1960   28.3790   31.4220 C   0  0  0  0  0  0  0  0  0  0  0  0
   38.3380   27.6250   31.2590 C   0  0  0  0  0  0  0  0  0  0  0  0
   38.8920   27.0000   32.3490 C   0  0  0  0  0  0  0  0  0  0  0  0
   38.2930   27.1380   33.5980 C   0  0  0  0  0  0  0  0  0  0  0  0
   36.7640   28.8700   30.5610 H   0  0  0  0  0  0  0  0  0  0  0  0
   38.8140   27.5110   30.2820 H   0  0  0  0  0  0  0  0  0  0  0  0
   39.7870   26.3980   32.2630 H   0  0  0  0  0  0  0  0  0  0  0  0
   34.2140   31.3640   33.5020 C   0  0  0  0  0  0  0  0  0  0  0  0
   35.3920   30.6380   33.2920 C   0  0  0  0  0  0  0  0  0  0  0  0
   35.3730   29.3230   32.8630 C   0  0  0  0  0  0  0  0  0  0  0  0
   34.1330   28.7830   32.6580 N   0  0  0  0  0  0  0  0  0  0  0  0
   33.0050   29.4880   32.8620 C   0  0  0  0  0  0  0  0  0  0  0  0
   33.0490   30.7450   33.2730 N   0  0  0  0  0  0  0  0  0  0  0  0
   34.2290   32.3950   33.8390 H   0  0  0  0  0  0  0  0  0  0  0  0
   36.3450   31.1230   33.4720 H   0  0  0  0  0  0  0  0  0  0  0  0
   32.1330   28.8640   32.6400 H   0  0  0  0  0  0  0  0  0  0  0  0
   38.4650   25.1330   34.8910 C   0  0  0  0  0  0  0  0  0  0  0  0
   37.7060   24.6930   33.9810 O   0  0  0  0  0  0  0  0  0  0  0  0
   38.8370   26.5020   34.7690 N   0  0  0  0  0  0  0  0  0  0  0  0
   39.4360   26.9240   35.4830 H   0  0  0  0  0  0  0  0  0  0  0  0
   38.9020   24.2630   35.9710 C   0  0  0  0  0  0  0  0  0  0  0  0
   40.0780   23.4900   35.8100 C   0  0  0  0  0  0  0  0  0  0  0  0
   40.7740   23.4630   34.8740 H   0  0  0  0  0  0  0  0  0  0  0  0
   40.2220   22.5470   37.4470 S   0  0  0  0  0  0  0  0  0  0  0  0
   38.6490   23.3970   38.0170 C   0  0  0  0  0  0  0  0  0  0  0  0
   37.8780   23.4540   39.0010 H   0  0  0  0  0  0  0  0  0  0  0  0
   38.3620   24.0520   37.1480 N   0  0  0  0  0  0  0  0  0  0  0  0
  2  1  1  0  0  0  0
  3 13  1  0  0  0  0
  3  2  2  0  0  0  0
  4  3  1  0  0  0  0
  5  4  2  0  0  0  0
  5  6  1  0  0  0  0
  6  7  2  0  0  0  0
  7  2  1  0  0  0  0
  7 22  1  0  0  0  0
  8  4  1  0  0  0  0
  9  5  1  0  0  0  0
 10  6  1  0  0  0  0
 11 17  1  0  0  0  0
 12 18  1  0  0  0  0
 12 11  1  0  0  0  0
 13 12  2  0  0  0  0
 14 15  2  0  0  0  0
 14 13  1  0  0  0  0
 15 16  1  0  0  0  0
 16 11  2  0  0  0  0
 19 15  1  0  0  0  0
 20 24  1  0  0  0  0
 21 20  2  0  0  0  0
 22 20  1  0  0  0  0
 22 23  1  0  0  0  0
 24 30  1  0  0  0  0
 25 24  2  0  0  0  0
 25 27  1  0  0  0  0
 26 25  1  0  0  0  0
 27 28  1  0  0  0  0
 28 29  1  0  0  0  0
 30 28  2  0  0  0  0
M  END
>  <minimizedAffinity>
-4.78936911

$$$$

 OpenBabel03272503063D

 30 32  0  0  0  0  0  0  0  0999 V2000
   36.5220   27.7320   34.9490 F   0  0  0  0  0  0  0  0  0  0  0  0
   36.5870   28.2230   33.6840 C   0  0  0  0  0  0  0  0  0  0  0  0
   35.9310   29.3810   33.3740 C   0  0  0  0  0  0  0  0  0  0  0  0
   36.0370   29.8210   32.0790 C   0  0  0  0  0  0  0  0  0  0  0  0
   36.7630   29.1510   31.1190 C   0  0  0  0  0  0  0  0  0  0  0  0
   37.4130   27.9890   31.4570 C   0  0  0  0  0  0  0  0  0  0  0  0
   37.3290   27.5090   32.7620 C   0  0  0  0  0  0  0  0  0  0  0  0
   35.5270   30.7350   31.8080 H   0  0  0  0  0  0  0  0  0  0  0  0
   36.8340   29.5200   30.0930 H   0  0  0  0  0  0  0  0  0  0  0  0
   37.9930   27.4320   30.7330 H   0  0  0  0  0  0  0  0  0  0  0  0
   33.1350   30.5030   35.6620 C   0  0  0  0  0  0  0  0  0  0  0  0
   33.8280   29.8430   34.6420 C   0  0  0  0  0  0  0  0  0  0  0  0
   35.1790   30.0500   34.4250 C   0  0  0  0  0  0  0  0  0  0  0  0
   35.7880   30.9370   35.2700 N   0  0  0  0  0  0  0  0  0  0  0  0
   35.1130   31.5670   36.2490 C   0  0  0  0  0  0  0  0  0  0  0  0
   33.8210   31.3520   36.4370 N   0  0  0  0  0  0  0  0  0  0  0  0
   32.0760   30.3410   35.8330 H   0  0  0  0  0  0  0  0  0  0  0  0
   33.2890   29.1510   34.0050 H   0  0  0  0  0  0  0  0  0  0  0  0
   35.7920   32.2270   36.8000 H   0  0  0  0  0  0  0  0  0  0  0  0
   37.2920   25.1180   32.7820 C   0  0  0  0  0  0  0  0  0  0  0  0
   36.1970   25.3070   32.1780 O   0  0  0  0  0  0  0  0  0  0  0  0
   37.9920   26.2970   33.1630 N   0  0  0  0  0  0  0  0  0  0  0  0
   38.8770   26.2120   33.6710 H   0  0  0  0  0  0  0  0  0  0  0  0
   37.7610   23.7680   33.0490 C   0  0  0  0  0  0  0  0  0  0  0  0
   38.0850   22.9160   31.9630 C   0  0  0  0  0  0  0  0  0  0  0  0
   38.0180   23.1750   30.8270 H   0  0  0  0  0  0  0  0  0  0  0  0
   38.6330   21.3090   32.8030 S   0  0  0  0  0  0  0  0  0  0  0  0
   38.3100   22.1240   34.4620 C   0  0  0  0  0  0  0  0  0  0  0  0
   38.3670   21.8860   35.6890 H   0  0  0  0  0  0  0  0  0  0  0  0
   37.9520   23.1570   34.1940 N   0  0  0  0  0  0  0  0  0  0  0  0
  2  1  1  0  0  0  0
  3  2  1  0  0  0  0
  3 13  1  0  0  0  0
  4  3  2  0  0  0  0
  5  6  2  0  0  0  0
  5  4  1  0  0  0  0
  6  7  1  0  0  0  0
  7 22  1  0  0  0  0
  7  2  2  0  0  0  0
  8  4  1  0  0  0  0
  9  5  1  0  0  0  0
 10  6  1  0  0  0  0
 11 17  1  0  0  0  0
 11 16  1  0  0  0  0
 12 11  2  0  0  0  0
 13 12  1  0  0  0  0
 13 14  2  0  0  0  0
 14 15  1  0  0  0  0
 15 16  2  0  0  0  0
 15 19  1  0  0  0  0
 18 12  1  0  0  0  0
 20 24  1  0  0  0  0
 20 22  1  0  0  0  0
 21 20  2  0  0  0  0
 22 23  1  0  0  0  0
 24 30  1  0  0  0  0
 25 27  1  0  0  0  0
 25 24  2  0  0  0  0
 26 25  1  0  0  0  0
 27 28  1  0  0  0  0
 28 29  1  0  0  0  0
 30 28  2  0  0  0  0
M  END
>  <minimizedAffinity>
-4.78565073

$$$$

 OpenBabel03272503063D

 30 32  0  0  0  0  0  0  0  0999 V2000
   38.7500   25.7100   34.5220 F   0  0  0  0  0  0  0  0  0  0  0  0
   38.3810   24.5950   33.8400 C   0  0  0  0  0  0  0  0  0  0  0  0
   38.2440   23.4080   34.5070 C   0  0  0  0  0  0  0  0  0  0  0  0
   37.8700   22.3220   33.7590 C   0  0  0  0  0  0  0  0  0  0  0  0
   37.6350   22.3930   32.4030 C   0  0  0  0  0  0  0  0  0  0  0  0
   37.7790   23.5970   31.7580 C   0  0  0  0  0  0  0  0  0  0  0  0
   38.1590   24.7230   32.4820 C   0  0  0  0  0  0  0  0  0  0  0  0
   37.7550   21.3720   34.2620 H   0  0  0  0  0  0  0  0  0  0  0  0
   37.3370   21.5130   31.8260 H   0  0  0  0  0  0  0  0  0  0  0  0
   37.6050   23.6940   30.6940 H   0  0  0  0  0  0  0  0  0  0  0  0
   39.8620   22.8350   37.8780 C   0  0  0  0  0  0  0  0  0  0  0  0
   39.6440   22.8380   36.4960 C   0  0  0  0  0  0  0  0  0  0  0  0
   38.5040   23.3890   35.9390 C   0  0  0  0  0  0  0  0  0  0  0  0
   37.6110   23.9290   36.8230 N   0  0  0  0  0  0  0  0  0  0  0  0
   37.8290   23.9230   38.1500 C   0  0  0  0  0  0  0  0  0  0  0  0
   38.9280   23.3890   38.6600 N   0  0  0  0  0  0  0  0  0  0  0  0
   40.7560   22.4030   38.3160 H   0  0  0  0  0  0  0  0  0  0  0  0
   40.3900   22.3940   35.8470 H   0  0  0  0  0  0  0  0  0  0  0  0
   36.9910   24.4040   38.6660 H   0  0  0  0  0  0  0  0  0  0  0  0
   37.0890   26.6690   31.5950 C   0  0  0  0  0  0  0  0  0  0  0  0
   36.0490   26.0340   31.9340 O   0  0  0  0  0  0  0  0  0  0  0  0
   38.3220   26.0060   31.8500 N   0  0  0  0  0  0  0  0  0  0  0  0
   39.2000   26.4590   31.5830 H   0  0  0  0  0  0  0  0  0  0  0  0
   36.9810   27.9860   30.9870 C   0  0  0  0  0  0  0  0  0  0  0  0
   36.4050   29.0490   31.7250 C   0  0  0  0  0  0  0  0  0  0  0  0
   35.9860   28.9980   32.8130 H   0  0  0  0  0  0  0  0  0  0  0  0
   36.4890   30.5190   30.5330 S   0  0  0  0  0  0  0  0  0  0  0  0
   37.2920   29.3860   29.2710 C   0  0  0  0  0  0  0  0  0  0  0  0
   37.7510   29.3990   28.1070 H   0  0  0  0  0  0  0  0  0  0  0  0
   37.3480   28.3900   29.7940 N   0  0  0  0  0  0  0  0  0  0  0  0
  2  3  1  0  0  0  0
  2  1  1  0  0  0  0
  3 13  1  0  0  0  0
  4  8  1  0  0  0  0
  4  3  2  0  0  0  0
  5  4  1  0  0  0  0
  6  5  2  0  0  0  0
  6  7  1  0  0  0  0
  7  2  2  0  0  0  0
  9  5  1  0  0  0  0
 10  6  1  0  0  0  0
 11 17  1  0  0  0  0
 11 16  1  0  0  0  0
 12 11  2  0  0  0  0
 13 12  1  0  0  0  0
 13 14  2  0  0  0  0
 14 15  1  0  0  0  0
 15 16  2  0  0  0  0
 15 19  1  0  0  0  0
 18 12  1  0  0  0  0
 20 22  1  0  0  0  0
 20 21  2  0  0  0  0
 22  7  1  0  0  0  0
 23 22  1  0  0  0  0
 24 20  1  0  0  0  0
 24 25  2  0  0  0  0
 25 26  1  0  0  0  0
 27 25  1  0  0  0  0
 28 30  2  0  0  0  0
 28 27  1  0  0  0  0
 29 28  1  0  0  0  0
 30 24  1  0  0  0  0
M  END
>  <minimizedAffinity>
-4.75403976

$$$$

 OpenBabel03272503063D

 30 32  0  0  0  0  0  0  0  0999 V2000
   38.5160   26.3770   32.5570 F   0  0  0  0  0  0  0  0  0  0  0  0
   37.5600   25.4800   32.1990 C   0  0  0  0  0  0  0  0  0  0  0  0
   36.4190   25.9180   31.5840 C   0  0  0  0  0  0  0  0  0  0  0  0
   35.4950   24.9620   31.2500 C   0  0  0  0  0  0  0  0  0  0  0  0
   35.6800   23.6200   31.5060 C   0  0  0  0  0  0  0  0  0  0  0  0
   36.8350   23.2080   32.1240 C   0  0  0  0  0  0  0  0  0  0  0  0
   37.7980   24.1490   32.4810 C   0  0  0  0  0  0  0  0  0  0  0  0
   34.5850   25.2820   30.7630 H   0  0  0  0  0  0  0  0  0  0  0  0
   34.9300   22.8760   31.2310 H   0  0  0  0  0  0  0  0  0  0  0  0
   37.0190   22.1650   32.3440 H   0  0  0  0  0  0  0  0  0  0  0  0
   35.4180   29.5540   31.8840 C   0  0  0  0  0  0  0  0  0  0  0  0
   35.5380   28.1860   32.1510 C   0  0  0  0  0  0  0  0  0  0  0  0
   36.2740   27.3450   31.3360 C   0  0  0  0  0  0  0  0  0  0  0  0
   36.8740   27.9360   30.2580 N   0  0  0  0  0  0  0  0  0  0  0  0
   36.7540   29.2530   30.0090 C   0  0  0  0  0  0  0  0  0  0  0  0
   36.0440   30.0370   30.8040 N   0  0  0  0  0  0  0  0  0  0  0  0
   34.8410   30.2140   32.5220 H   0  0  0  0  0  0  0  0  0  0  0  0
   35.0380   27.7760   33.0220 H   0  0  0  0  0  0  0  0  0  0  0  0
   37.3120   29.5100   29.1020 H   0  0  0  0  0  0  0  0  0  0  0  0
   38.9280   23.7490   34.5500 C   0  0  0  0  0  0  0  0  0  0  0  0
   37.8070   24.0920   35.0240 O   0  0  0  0  0  0  0  0  0  0  0  0
   39.0230   23.7640   33.1300 N   0  0  0  0  0  0  0  0  0  0  0  0
   39.9100   23.5140   32.6840 H   0  0  0  0  0  0  0  0  0  0  0  0
   40.0180   23.3740   35.4370 C   0  0  0  0  0  0  0  0  0  0  0  0
   41.3500   23.6990   35.0790 C   0  0  0  0  0  0  0  0  0  0  0  0
   41.6990   24.2570   34.1150 H   0  0  0  0  0  0  0  0  0  0  0  0
   42.3790   23.0190   36.5160 S   0  0  0  0  0  0  0  0  0  0  0  0
   40.7850   22.4300   37.3130 C   0  0  0  0  0  0  0  0  0  0  0  0
   40.3710   21.8350   38.3330 H   0  0  0  0  0  0  0  0  0  0  0  0
   39.9840   22.7460   36.5870 N   0  0  0  0  0  0  0  0  0  0  0  0
  2  7  1  0  0  0  0
  2  1  1  0  0  0  0
  3  2  2  0  0  0  0
  4  5  2  0  0  0  0
  4  3  1  0  0  0  0
  5  6  1  0  0  0  0
  6 10  1  0  0  0  0
  6  7  2  0  0  0  0
  7 22  1  0  0  0  0
  8  4  1  0  0  0  0
  9  5  1  0  0  0  0
 11 12  1  0  0  0  0
 11 17  1  0  0  0  0
 12 18  1  0  0  0  0
 13  3  1  0  0  0  0
 13 12  2  0  0  0  0
 14 13  1  0  0  0  0
 15 14  2  0  0  0  0
 15 16  1  0  0  0  0
 16 11  2  0  0  0  0
 19 15  1  0  0  0  0
 20 21  2  0  0  0  0
 20 24  1  0  0  0  0
 22 20  1  0  0  0  0
 23 22  1  0  0  0  0
 24 30  1  0  0  0  0
 25 24  2  0  0  0  0
 25 27  1  0  0  0  0
 26 25  1  0  0  0  0
 27 28  1  0  0  0  0
 28 29  1  0  0  0  0
 30 28  2  0  0  0  0
M  END
>  <minimizedAffinity>
-4.7421813

$$$$

 OpenBabel03272503063D

 30 32  0  0  0  0  0  0  0  0999 V2000
   38.7960   25.3860   34.3350 F   0  0  0  0  0  0  0  0  0  0  0  0
   38.3250   24.2570   33.7430 C   0  0  0  0  0  0  0  0  0  0  0  0
   38.1340   23.1300   34.4930 C   0  0  0  0  0  0  0  0  0  0  0  0
   37.6570   22.0260   33.8340 C   0  0  0  0  0  0  0  0  0  0  0  0
   37.3750   22.0240   32.4850 C   0  0  0  0  0  0  0  0  0  0  0  0
   37.5760   23.1700   31.7560 C   0  0  0  0  0  0  0  0  0  0  0  0
   38.0600   24.3120   32.3880 C   0  0  0  0  0  0  0  0  0  0  0  0
   37.4970   21.1220   34.4050 H   0  0  0  0  0  0  0  0  0  0  0  0
   36.9950   21.1330   31.9810 H   0  0  0  0  0  0  0  0  0  0  0  0
   37.3680   23.2100   30.6950 H   0  0  0  0  0  0  0  0  0  0  0  0
   37.9180   23.7440   38.2200 C   0  0  0  0  0  0  0  0  0  0  0  0
   37.5850   23.7050   36.8620 C   0  0  0  0  0  0  0  0  0  0  0  0
   38.4480   23.1860   35.9130 C   0  0  0  0  0  0  0  0  0  0  0  0
   39.6410   22.7160   36.3890 N   0  0  0  0  0  0  0  0  0  0  0  0
   39.9530   22.7570   37.6970 C   0  0  0  0  0  0  0  0  0  0  0  0
   39.1100   23.2590   38.5860 N   0  0  0  0  0  0  0  0  0  0  0  0
   37.2410   24.1510   38.9640 H   0  0  0  0  0  0  0  0  0  0  0  0
   36.6230   24.0930   36.5460 H   0  0  0  0  0  0  0  0  0  0  0  0
   40.9500   22.3310   37.8540 H   0  0  0  0  0  0  0  0  0  0  0  0
   37.1190   26.3440   31.5460 C   0  0  0  0  0  0  0  0  0  0  0  0
   36.0710   25.8640   32.0650 O   0  0  0  0  0  0  0  0  0  0  0  0
   38.2860   25.5360   31.6660 N   0  0  0  0  0  0  0  0  0  0  0  0
   39.1640   25.8600   31.2510 H   0  0  0  0  0  0  0  0  0  0  0  0
   37.0870   27.6370   30.8830 C   0  0  0  0  0  0  0  0  0  0  0  0
   38.0590   27.9380   29.8960 C   0  0  0  0  0  0  0  0  0  0  0  0
   38.9240   27.2440   29.5320 H   0  0  0  0  0  0  0  0  0  0  0  0
   37.6070   29.6920   29.3430 S   0  0  0  0  0  0  0  0  0  0  0  0
   36.1860   29.6590   30.5690 C   0  0  0  0  0  0  0  0  0  0  0  0
   35.2470   30.3730   30.9860 H   0  0  0  0  0  0  0  0  0  0  0  0
   36.2620   28.6430   31.0470 N   0  0  0  0  0  0  0  0  0  0  0  0
  2  1  1  0  0  0  0
  2  3  1  0  0  0  0
  3 13  1  0  0  0  0
  4  8  1  0  0  0  0
  4  3  2  0  0  0  0
  5  4  1  0  0  0  0
  6  7  1  0  0  0  0
  6  5  2  0  0  0  0
  7  2  2  0  0  0  0
  9  5  1  0  0  0  0
 10  6  1  0  0  0  0
 11 16  1  0  0  0  0
 11 17  1  0  0  0  0
 12 11  2  0  0  0  0
 13 14  2  0  0  0  0
 13 12  1  0  0  0  0
 14 15  1  0  0  0  0
 15 19  1  0  0  0  0
 15 16  2  0  0  0  0
 18 12  1  0  0  0  0
 20 22  1  0  0  0  0
 20 21  2  0  0  0  0
 22  7  1  0  0  0  0
 23 22  1  0  0  0  0
 24 30  1  0  0  0  0
 24 20  1  0  0  0  0
 25 24  2  0  0  0  0
 26 25  1  0  0  0  0
 27 25  1  0  0  0  0
 27 28  1  0  0  0  0
 28 29  1  0  0  0  0
 28 30  2  0  0  0  0
M  END
>  <minimizedAffinity>
-4.73331928

$$$$
