
 OpenBabel03272509303D

 36 38  0  0  1  0  0  0  0  0999 V2000
   36.8630   31.1020   48.3310 C   0  0  2  0  0  0  0  0  0  0  0  0
   37.8120   31.8990   49.1760 C   0  0  0  0  0  0  0  0  0  0  0  0
   38.4250   31.0880   50.2960 C   0  0  0  0  0  0  0  0  0  0  0  0
   37.3280   30.4880   51.1780 C   0  0  0  0  0  0  0  0  0  0  0  0
   36.1160   30.0270   50.4160 C   0  0  0  0  0  0  0  0  0  0  0  0
   36.5340   29.7880   48.9520 C   0  0  1  0  0  0  0  0  0  0  0  0
   35.8810   31.6400   48.1290 H   0  0  0  0  0  0  0  0  0  0  0  0
   38.5400   32.4980   48.6640 H   0  0  0  0  0  0  0  0  0  0  0  0
   37.1350   32.6360   49.7280 H   0  0  0  0  0  0  0  0  0  0  0  0
   39.0180   31.7830   50.8970 H   0  0  0  0  0  0  0  0  0  0  0  0
   39.0400   30.2500   49.9510 H   0  0  0  0  0  0  0  0  0  0  0  0
   37.0150   31.3140   51.8580 H   0  0  0  0  0  0  0  0  0  0  0  0
   37.7880   29.6920   51.8000 H   0  0  0  0  0  0  0  0  0  0  0  0
   35.2920   30.7410   50.3980 H   0  0  0  0  0  0  0  0  0  0  0  0
   35.8120   29.0270   50.7870 H   0  0  0  0  0  0  0  0  0  0  0  0
   37.4070   29.2000   49.1010 H   0  0  0  0  0  0  0  0  0  0  0  0
   37.4220   30.8650   46.9740 C   0  0  0  0  0  0  0  0  0  0  0  0
   38.8260   30.9400   46.8740 C   0  0  0  0  0  0  0  0  0  0  0  0
   39.3760   30.7180   45.6070 C   0  0  0  0  0  0  0  0  0  0  0  0
   38.5310   30.4430   44.5540 N   0  0  0  0  0  0  0  0  0  0  0  0
   37.1710   30.3820   44.7070 C   0  0  0  0  0  0  0  0  0  0  0  0
   36.6380   30.5960   45.9270 N   0  0  0  0  0  0  0  0  0  0  0  0
   39.5890   31.1330   47.6030 H   0  0  0  0  0  0  0  0  0  0  0  0
   40.4280   30.7420   45.3790 H   0  0  0  0  0  0  0  0  0  0  0  0
   36.5660   30.1610   43.8390 H   0  0  0  0  0  0  0  0  0  0  0  0
   34.3170   29.3000   47.7760 C   0  0  0  0  0  0  0  0  0  0  0  0
   33.6870   30.4230   47.8490 O   0  0  0  0  0  0  0  0  0  0  0  0
   35.6340   28.9910   48.2000 N   0  0  0  0  0  0  0  0  0  0  0  0
   35.9830   28.0250   47.8960 H   0  0  0  0  0  0  0  0  0  0  0  0
   33.4970   28.2190   47.1530 C   0  0  0  0  0  0  0  0  0  0  0  0
   33.8350   26.8700   47.6480 C   0  0  0  0  0  0  0  0  0  0  0  0
   34.4750   26.3590   48.3150 H   0  0  0  0  0  0  0  0  0  0  0  0
   32.6140   25.8330   46.6450 S   0  0  0  0  0  0  0  0  0  0  0  0
   31.9180   27.3310   45.7950 C   0  0  0  0  0  0  0  0  0  0  0  0
   31.1320   27.7040   45.0100 H   0  0  0  0  0  0  0  0  0  0  0  0
   32.5540   28.4210   46.2450 N   0  0  0  0  0  0  0  0  0  0  0  0
  1  7  1  6  0  0  0
  1  6  1  0  0  0  0
  1  2  1  0  0  0  0
  2  9  1  0  0  0  0
  2  3  1  0  0  0  0
  3 10  1  0  0  0  0
  3  4  1  0  0  0  0
  4 13  1  0  0  0  0
  4 12  1  0  0  0  0
  5 15  1  0  0  0  0
  5  4  1  0  0  0  0
  6 16  1  1  0  0  0
  6  5  1  0  0  0  0
  8  2  1  0  0  0  0
 11  3  1  0  0  0  0
 14  5  1  0  0  0  0
 17  1  1  0  0  0  0
 18 17  1  0  0  0  0
 18 23  1  0  0  0  0
 19 18  2  0  0  0  0
 20 21  2  0  0  0  0
 20 19  1  0  0  0  0
 21 22  1  0  0  0  0
 22 17  2  0  0  0  0
 24 19  1  0  0  0  0
 25 21  1  0  0  0  0
 26 27  2  0  0  0  0
 26 28  1  0  0  0  0
 28  6  1  0  0  0  0
 29 28  1  0  0  0  0
 30 31  2  0  0  0  0
 30 26  1  0  0  0  0
 31 32  1  0  0  0  0
 33 31  1  0  0  0  0
 34 36  2  0  0  0  0
 34 33  1  0  0  0  0
 35 34  1  0  0  0  0
 36 30  1  0  0  0  0
M  END
>  <minimizedAffinity>
-5.19161558

>  <minimizedRMSD>
1.59526098

$$$$
