
 OpenBabel03272502283D

 43 47  0  0  0  0  0  0  0  0999 V2000
   35.8800   29.4840   30.3720 N   0  0  0  0  0  0  0  0  0  0  0  0
   36.8520   28.5540   30.4040 C   0  0  0  0  0  0  0  0  0  0  0  0
   37.2600   28.0200   31.6090 C   0  0  0  0  0  0  0  0  0  0  0  0
   36.6420   28.4680   32.7720 C   0  0  0  0  0  0  0  0  0  0  0  0
   36.8510   28.1220   33.9690 O   0  0  0  0  0  0  0  0  0  0  0  0
   35.6650   29.4090   32.6890 N   0  0  0  0  0  0  0  0  0  0  0  0
   35.2900   29.9120   31.4940 C   0  0  0  0  0  0  0  0  0  0  0  0
   34.3840   30.7900   31.3650 O   0  0  0  0  0  0  0  0  0  0  0  0
   35.6370   29.8300   29.4250 H   0  0  0  0  0  0  0  0  0  0  0  0
   37.3820   28.1530   29.5540 H   0  0  0  0  0  0  0  0  0  0  0  0
   35.6780   30.9550   34.4060 C   0  0  0  0  0  3  0  0  0  0  0  0
   34.9680   29.9370   33.8130 C   0  0  0  0  0  0  0  0  0  0  0  0
   33.7440   29.5490   34.3170 C   0  0  0  0  0  0  0  0  0  0  0  0
   33.2790   28.7590   33.7910 H   0  0  0  0  0  0  0  0  0  0  0  0
   33.2740   30.2200   35.4260 C   0  0  0  0  0  0  0  0  0  0  0  0
   32.1220   30.0320   36.0990 N   0  0  0  0  0  0  0  0  0  0  0  0
   32.0670   30.9080   37.1190 C   0  0  0  0  0  0  0  0  0  0  0  0
   31.2590   30.9930   37.8340 H   0  0  0  0  0  0  0  0  0  0  0  0
   33.2100   31.6460   37.0660 N   0  0  0  0  0  0  0  0  0  0  0  0
   33.9800   31.2530   36.0380 C   0  0  0  0  0  0  0  0  0  0  0  0
   35.2040   31.6350   35.5270 C   0  0  0  0  0  3  0  0  0  0  0  0
   31.3800   29.3430   35.8980 H   0  0  0  0  0  0  0  0  0  0  0  0
   38.2250   27.0700   31.8680 O   0  0  0  0  0  0  0  0  0  0  0  0
   36.7560   23.7780   31.6660 C   0  0  0  0  0  0  0  0  0  0  0  0
   37.2800   23.1670   32.8180 C   0  0  0  0  0  0  0  0  0  0  0  0
   38.1170   23.9260   33.6090 C   0  0  0  0  0  0  0  0  0  0  0  0
   38.3710   25.1900   33.2230 N   0  0  0  0  0  0  0  0  0  0  0  0
   37.8620   25.7580   32.1200 C   0  0  0  0  0  0  0  0  0  0  0  0
   37.0440   25.0370   31.3330 N   0  0  0  0  0  0  0  0  0  0  0  0
   36.1070   23.1700   31.0640 H   0  0  0  0  0  0  0  0  0  0  0  0
   37.0570   22.1430   33.1040 H   0  0  0  0  0  0  0  0  0  0  0  0
   38.7180   23.4260   34.8260 C   0  0  0  0  0  0  0  0  0  0  0  0
   39.8110   22.5680   34.7800 C   0  0  0  0  0  0  0  0  0  0  0  0
   40.4160   22.0710   35.9030 C   0  0  0  0  0  0  0  0  0  0  0  0
   39.9400   22.4230   37.1260 N   0  0  0  0  0  0  0  0  0  0  0  0
   38.8840   23.2520   37.1430 C   0  0  0  0  0  0  0  0  0  0  0  0
   38.2770   23.7490   36.0580 N   0  0  0  0  0  0  0  0  0  0  0  0
   40.1850   22.2930   33.8020 H   0  0  0  0  0  0  0  0  0  0  0  0
   41.2650   21.4080   35.8010 H   0  0  0  0  0  0  0  0  0  0  0  0
   38.3390   23.6560   38.4660 C   0  0  0  0  0  0  0  0  0  0  0  0
   37.9010   24.9920   38.3390 F   0  0  0  0  0  0  0  0  0  0  0  0
   37.3430   22.8270   38.8800 F   0  0  0  0  0  0  0  0  0  0  0  0
   39.3340   23.7200   39.4280 F   0  0  0  0  0  0  0  0  0  0  0  0
  1  2  1  0  0  0  0
  1  7  1  0  0  0  0
  2  3  2  0  0  0  0
  3 23  1  0  0  0  0
  3  4  1  0  0  0  0
  4  5  2  0  0  0  0
  6  4  1  0  0  0  0
  6 12  1  0  0  0  0
  7  6  1  0  0  0  0
  8  7  2  0  0  0  0
  9  1  1  0  0  0  0
 10  2  1  0  0  0  0
 11 21  1  0  0  0  0
 12 13  1  0  0  0  0
 12 11  2  0  0  0  0
 13 15  2  0  0  0  0
 14 13  1  0  0  0  0
 15 20  1  0  0  0  0
 15 16  1  0  0  0  0
 16 17  1  0  0  0  0
 17 18  1  0  0  0  0
 19 17  2  0  0  0  0
 20 19  1  0  0  0  0
 21 20  2  0  0  0  0
 22 16  1  0  0  0  0
 23 28  1  0  0  0  0
 24 25  1  0  0  0  0
 25 31  1  0  0  0  0
 25 26  2  0  0  0  0
 26 32  1  0  0  0  0
 27 26  1  0  0  0  0
 28 27  2  0  0  0  0
 29 24  2  0  0  0  0
 29 28  1  0  0  0  0
 30 24  1  0  0  0  0
 32 37  1  0  0  0  0
 33 32  2  0  0  0  0
 33 34  1  0  0  0  0
 34 35  2  0  0  0  0
 35 36  1  0  0  0  0
 36 40  1  0  0  0  0
 37 36  2  0  0  0  0
 38 33  1  0  0  0  0
 39 34  1  0  0  0  0
 40 42  1  0  0  0  0
 40 43  1  0  0  0  0
 41 40  1  0  0  0  0
M  END
>  <minimizedAffinity>
-7.48677158

$$$$

 OpenBabel03272502283D

 43 47  0  0  0  0  0  0  0  0999 V2000
   39.2060   25.5500   30.5910 N   0  0  0  0  0  0  0  0  0  0  0  0
   38.5830   24.3600   30.5110 C   0  0  0  0  0  0  0  0  0  0  0  0
   37.2320   24.2660   30.7720 C   0  0  0  0  0  0  0  0  0  0  0  0
   36.5440   25.4260   31.1150 C   0  0  0  0  0  0  0  0  0  0  0  0
   35.3200   25.5740   31.3900 O   0  0  0  0  0  0  0  0  0  0  0  0
   37.2160   26.6050   31.1820 N   0  0  0  0  0  0  0  0  0  0  0  0
   38.5390   26.6630   30.9220 C   0  0  0  0  0  0  0  0  0  0  0  0
   39.2090   27.7380   30.9710 O   0  0  0  0  0  0  0  0  0  0  0  0
   40.2210   25.5290   30.3790 H   0  0  0  0  0  0  0  0  0  0  0  0
   39.0390   23.4160   30.2540 H   0  0  0  0  0  0  0  0  0  0  0  0
   36.4980   27.9910   32.8860 C   0  0  0  0  0  3  0  0  0  0  0  0
   36.6120   27.8490   31.5230 C   0  0  0  0  0  0  0  0  0  0  0  0
   36.1690   28.8430   30.6740 C   0  0  0  0  0  0  0  0  0  0  0  0
   36.3010   28.6380   29.6460 H   0  0  0  0  0  0  0  0  0  0  0  0
   35.6140   29.9670   31.2490 C   0  0  0  0  0  0  0  0  0  0  0  0
   35.1130   31.0620   30.6460 N   0  0  0  0  0  0  0  0  0  0  0  0
   34.6750   31.9150   31.5900 C   0  0  0  0  0  0  0  0  0  0  0  0
   34.2220   32.8800   31.4050 H   0  0  0  0  0  0  0  0  0  0  0  0
   34.9140   31.3270   32.7940 N   0  0  0  0  0  0  0  0  0  0  0  0
   35.4910   30.1260   32.6270 C   0  0  0  0  0  0  0  0  0  0  0  0
   35.9380   29.1270   33.4690 C   0  0  0  0  0  3  0  0  0  0  0  0
   35.0580   31.2530   29.6330 H   0  0  0  0  0  0  0  0  0  0  0  0
   36.4070   23.1620   30.7500 O   0  0  0  0  0  0  0  0  0  0  0  0
   35.3080   20.6920   33.1450 C   0  0  0  0  0  0  0  0  0  0  0  0
   36.2040   20.9120   34.2040 C   0  0  0  0  0  0  0  0  0  0  0  0
   37.1470   21.9050   34.0370 C   0  0  0  0  0  0  0  0  0  0  0  0
   37.1400   22.5890   32.8780 N   0  0  0  0  0  0  0  0  0  0  0  0
   36.2760   22.3670   31.8770 C   0  0  0  0  0  0  0  0  0  0  0  0
   35.3490   21.4030   32.0160 N   0  0  0  0  0  0  0  0  0  0  0  0
   34.5820   19.9140   33.2940 H   0  0  0  0  0  0  0  0  0  0  0  0
   36.1860   20.3420   35.1290 H   0  0  0  0  0  0  0  0  0  0  0  0
   38.1230   22.2420   35.0490 C   0  0  0  0  0  0  0  0  0  0  0  0
   39.4830   22.0720   34.8120 C   0  0  0  0  0  0  0  0  0  0  0  0
   40.4450   22.3800   35.7360 C   0  0  0  0  0  0  0  0  0  0  0  0
   40.0720   22.8750   36.9450 N   0  0  0  0  0  0  0  0  0  0  0  0
   38.7530   23.0300   37.1490 C   0  0  0  0  0  0  0  0  0  0  0  0
   37.7960   22.7350   36.2600 N   0  0  0  0  0  0  0  0  0  0  0  0
   39.7720   21.6780   33.8460 H   0  0  0  0  0  0  0  0  0  0  0  0
   41.4870   22.2260   35.4910 H   0  0  0  0  0  0  0  0  0  0  0  0
   38.3120   23.5700   38.4610 C   0  0  0  0  0  0  0  0  0  0  0  0
   37.9120   24.9060   38.2430 F   0  0  0  0  0  0  0  0  0  0  0  0
   37.3180   22.8210   39.0110 F   0  0  0  0  0  0  0  0  0  0  0  0
   39.3700   23.6780   39.3490 F   0  0  0  0  0  0  0  0  0  0  0  0
  1  7  1  0  0  0  0
  2  1  1  0  0  0  0
  2  3  2  0  0  0  0
  3  4  1  0  0  0  0
  4  6  1  0  0  0  0
  4  5  2  0  0  0  0
  6 12  1  0  0  0  0
  7  8  2  0  0  0  0
  7  6  1  0  0  0  0
  9  1  1  0  0  0  0
 10  2  1  0  0  0  0
 11 21  1  0  0  0  0
 12 11  2  0  0  0  0
 13 15  2  0  0  0  0
 13 12  1  0  0  0  0
 14 13  1  0  0  0  0
 15 20  1  0  0  0  0
 16 15  1  0  0  0  0
 16 17  1  0  0  0  0
 17 19  2  0  0  0  0
 18 17  1  0  0  0  0
 20 19  1  0  0  0  0
 20 21  2  0  0  0  0
 22 16  1  0  0  0  0
 23  3  1  0  0  0  0
 23 28  1  0  0  0  0
 24 30  1  0  0  0  0
 24 25  1  0  0  0  0
 25 31  1  0  0  0  0
 26 25  2  0  0  0  0
 26 32  1  0  0  0  0
 27 26  1  0  0  0  0
 28 29  1  0  0  0  0
 28 27  2  0  0  0  0
 29 24  2  0  0  0  0
 32 37  1  0  0  0  0
 33 32  2  0  0  0  0
 33 34  1  0  0  0  0
 34 35  2  0  0  0  0
 35 36  1  0  0  0  0
 36 40  1  0  0  0  0
 37 36  2  0  0  0  0
 38 33  1  0  0  0  0
 39 34  1  0  0  0  0
 40 42  1  0  0  0  0
 40 43  1  0  0  0  0
 41 40  1  0  0  0  0
M  END
>  <minimizedAffinity>
-7.46810102

$$$$

 OpenBabel03272502283D

 43 47  0  0  0  0  0  0  0  0999 V2000
   36.0260   29.5760   30.3250 N   0  0  0  0  0  0  0  0  0  0  0  0
   36.7370   28.4330   30.3030 C   0  0  0  0  0  0  0  0  0  0  0  0
   36.8970   27.6950   31.4580 C   0  0  0  0  0  0  0  0  0  0  0  0
   36.3070   28.1650   32.6270 C   0  0  0  0  0  0  0  0  0  0  0  0
   36.3220   27.6580   33.7850 O   0  0  0  0  0  0  0  0  0  0  0  0
   35.5990   29.3240   32.6000 N   0  0  0  0  0  0  0  0  0  0  0  0
   35.4620   30.0230   31.4530 C   0  0  0  0  0  0  0  0  0  0  0  0
   34.8120   31.1090   31.3770 O   0  0  0  0  0  0  0  0  0  0  0  0
   35.9570   30.0660   29.4130 H   0  0  0  0  0  0  0  0  0  0  0  0
   37.2240   28.0000   29.4430 H   0  0  0  0  0  0  0  0  0  0  0  0
   35.8000   30.7480   34.4080 C   0  0  0  0  0  3  0  0  0  0  0  0
   34.9570   29.8940   33.7360 C   0  0  0  0  0  0  0  0  0  0  0  0
   33.6690   29.6830   34.1830 C   0  0  0  0  0  0  0  0  0  0  0  0
   33.1030   29.0100   33.5970 H   0  0  0  0  0  0  0  0  0  0  0  0
   33.2740   30.3570   35.3190 C   0  0  0  0  0  0  0  0  0  0  0  0
   32.0840   30.3210   35.9490 N   0  0  0  0  0  0  0  0  0  0  0  0
   32.1350   31.1360   37.0190 C   0  0  0  0  0  0  0  0  0  0  0  0
   31.3260   31.3110   37.7160 H   0  0  0  0  0  0  0  0  0  0  0  0
   33.3830   31.6790   37.0420 N   0  0  0  0  0  0  0  0  0  0  0  0
   34.1150   31.2250   36.0120 C   0  0  0  0  0  0  0  0  0  0  0  0
   35.4020   31.4310   35.5570 C   0  0  0  0  0  3  0  0  0  0  0  0
   31.2480   29.7750   35.6860 H   0  0  0  0  0  0  0  0  0  0  0  0
   37.5760   26.5130   31.6570 O   0  0  0  0  0  0  0  0  0  0  0  0
   40.9780   27.1970   32.6590 C   0  0  0  0  0  0  0  0  0  0  0  0
   41.1190   26.3460   33.7670 C   0  0  0  0  0  0  0  0  0  0  0  0
   40.0280   25.5760   34.1150 C   0  0  0  0  0  0  0  0  0  0  0  0
   38.9140   25.6940   33.3710 N   0  0  0  0  0  0  0  0  0  0  0  0
   38.7960   26.5120   32.3150 C   0  0  0  0  0  0  0  0  0  0  0  0
   39.8450   27.2730   31.9570 N   0  0  0  0  0  0  0  0  0  0  0  0
   41.8380   27.7880   32.4050 H   0  0  0  0  0  0  0  0  0  0  0  0
   42.0330   26.2720   34.3500 H   0  0  0  0  0  0  0  0  0  0  0  0
   40.0400   24.6510   35.2270 C   0  0  0  0  0  0  0  0  0  0  0  0
   41.1020   23.7730   35.4120 C   0  0  0  0  0  0  0  0  0  0  0  0
   41.1600   22.8830   36.4500 C   0  0  0  0  0  0  0  0  0  0  0  0
   40.1440   22.8430   37.3510 N   0  0  0  0  0  0  0  0  0  0  0  0
   39.1310   23.7020   37.1500 C   0  0  0  0  0  0  0  0  0  0  0  0
   39.0530   24.5790   36.1420 N   0  0  0  0  0  0  0  0  0  0  0  0
   41.9080   23.8110   34.6900 H   0  0  0  0  0  0  0  0  0  0  0  0
   42.0150   22.2250   36.5400 H   0  0  0  0  0  0  0  0  0  0  0  0
   38.0030   23.6840   38.1180 C   0  0  0  0  0  0  0  0  0  0  0  0
   36.8120   23.6620   37.3620 F   0  0  0  0  0  0  0  0  0  0  0  0
   38.0860   22.6310   38.9760 F   0  0  0  0  0  0  0  0  0  0  0  0
   37.9260   24.8700   38.8310 F   0  0  0  0  0  0  0  0  0  0  0  0
  1  7  1  0  0  0  0
  2  1  1  0  0  0  0
  2  3  2  0  0  0  0
  3 23  1  0  0  0  0
  3  4  1  0  0  0  0
  4  5  2  0  0  0  0
  6  4  1  0  0  0  0
  6 12  1  0  0  0  0
  7  6  1  0  0  0  0
  8  7  2  0  0  0  0
  9  1  1  0  0  0  0
 10  2  1  0  0  0  0
 11 21  1  0  0  0  0
 12 13  1  0  0  0  0
 12 11  2  0  0  0  0
 13 15  2  0  0  0  0
 14 13  1  0  0  0  0
 15 16  1  0  0  0  0
 15 20  1  0  0  0  0
 16 17  1  0  0  0  0
 17 19  2  0  0  0  0
 17 18  1  0  0  0  0
 20 19  1  0  0  0  0
 21 20  2  0  0  0  0
 22 16  1  0  0  0  0
 23 28  1  0  0  0  0
 24 25  1  0  0  0  0
 25 26  2  0  0  0  0
 25 31  1  0  0  0  0
 26 32  1  0  0  0  0
 27 26  1  0  0  0  0
 28 27  2  0  0  0  0
 29 28  1  0  0  0  0
 29 24  2  0  0  0  0
 30 24  1  0  0  0  0
 32 33  2  0  0  0  0
 32 37  1  0  0  0  0
 33 34  1  0  0  0  0
 34 39  1  0  0  0  0
 34 35  2  0  0  0  0
 36 35  1  0  0  0  0
 36 40  1  0  0  0  0
 37 36  2  0  0  0  0
 38 33  1  0  0  0  0
 40 43  1  0  0  0  0
 40 42  1  0  0  0  0
 41 40  1  0  0  0  0
M  END
>  <minimizedAffinity>
-7.05814886

$$$$

 OpenBabel03272502283D

 43 47  0  0  0  0  0  0  0  0999 V2000
   38.5700   25.3660   32.9770 N   0  0  0  0  0  0  0  0  0  0  0  0
   37.7650   26.3780   32.6060 C   0  0  0  0  0  0  0  0  0  0  0  0
   36.5320   26.1120   32.0450 C   0  0  0  0  0  0  0  0  0  0  0  0
   36.1560   24.7830   31.8800 C   0  0  0  0  0  0  0  0  0  0  0  0
   35.0870   24.3130   31.3970 O   0  0  0  0  0  0  0  0  0  0  0  0
   37.0020   23.7950   32.2710 N   0  0  0  0  0  0  0  0  0  0  0  0
   38.2020   24.0890   32.8150 C   0  0  0  0  0  0  0  0  0  0  0  0
   39.0260   23.2030   33.1950 O   0  0  0  0  0  0  0  0  0  0  0  0
   39.4770   25.6560   33.3890 H   0  0  0  0  0  0  0  0  0  0  0  0
   37.9790   27.4310   32.6980 H   0  0  0  0  0  0  0  0  0  0  0  0
   37.1970   21.9020   30.9600 C   0  0  0  0  0  3  0  0  0  0  0  0
   36.7180   22.4050   32.1480 C   0  0  0  0  0  0  0  0  0  0  0  0
   36.0600   21.5870   33.0420 C   0  0  0  0  0  0  0  0  0  0  0  0
   35.7320   22.0690   33.9240 H   0  0  0  0  0  0  0  0  0  0  0  0
   35.9070   20.2610   32.6940 C   0  0  0  0  0  0  0  0  0  0  0  0
   35.3080   19.2730   33.3850 N   0  0  0  0  0  0  0  0  0  0  0  0
   35.3880   18.1340   32.6720 C   0  0  0  0  0  0  0  0  0  0  0  0
   34.9950   17.1730   32.9740 H   0  0  0  0  0  0  0  0  0  0  0  0
   36.0490   18.4360   31.5210 N   0  0  0  0  0  0  0  0  0  0  0  0
   36.3850   19.7360   31.4960 C   0  0  0  0  0  0  0  0  0  0  0  0
   37.0430   20.5620   30.6060 C   0  0  0  0  0  3  0  0  0  0  0  0
   34.8550   19.3360   34.3110 H   0  0  0  0  0  0  0  0  0  0  0  0
   35.5630   26.9860   31.5990 O   0  0  0  0  0  0  0  0  0  0  0  0
   36.4260   30.4380   30.9880 C   0  0  0  0  0  0  0  0  0  0  0  0
   36.0130   31.0460   32.1860 C   0  0  0  0  0  0  0  0  0  0  0  0
   35.4540   30.2290   33.1470 C   0  0  0  0  0  0  0  0  0  0  0  0
   35.3470   28.9170   32.8710 N   0  0  0  0  0  0  0  0  0  0  0  0
   35.7470   28.3530   31.7220 C   0  0  0  0  0  0  0  0  0  0  0  0
   36.2940   29.1290   30.7700 N   0  0  0  0  0  0  0  0  0  0  0  0
   36.8580   31.0910   30.2530 H   0  0  0  0  0  0  0  0  0  0  0  0
   36.1120   32.1100   32.3800 H   0  0  0  0  0  0  0  0  0  0  0  0
   34.9950   30.7210   34.4270 C   0  0  0  0  0  0  0  0  0  0  0  0
   35.8020   31.5430   35.2060 C   0  0  0  0  0  0  0  0  0  0  0  0
   35.4110   32.0360   36.4210 C   0  0  0  0  0  0  0  0  0  0  0  0
   34.1820   31.7200   36.9030 N   0  0  0  0  0  0  0  0  0  0  0  0
   33.4210   30.9250   36.1330 C   0  0  0  0  0  0  0  0  0  0  0  0
   33.7840   30.4310   34.9420 N   0  0  0  0  0  0  0  0  0  0  0  0
   36.7810   31.7910   34.8140 H   0  0  0  0  0  0  0  0  0  0  0  0
   36.0860   32.6720   36.9790 H   0  0  0  0  0  0  0  0  0  0  0  0
   32.0690   30.5600   36.6320 C   0  0  0  0  0  0  0  0  0  0  0  0
   31.4540   31.7550   37.0640 F   0  0  0  0  0  0  0  0  0  0  0  0
   31.3340   29.9190   35.6830 F   0  0  0  0  0  0  0  0  0  0  0  0
   32.1420   29.7870   37.7780 F   0  0  0  0  0  0  0  0  0  0  0  0
  1  9  1  0  0  0  0
  2 10  1  0  0  0  0
  2  1  1  0  0  0  0
  3  2  2  0  0  0  0
  4  3  1  0  0  0  0
  4  6  1  0  0  0  0
  5  4  2  0  0  0  0
  6  7  1  0  0  0  0
  7  1  1  0  0  0  0
  7  8  2  0  0  0  0
 11 12  1  0  0  0  0
 12  6  1  0  0  0  0
 12 13  2  0  0  0  0
 13 14  1  0  0  0  0
 15 13  1  0  0  0  0
 15 16  1  0  0  0  0
 16 22  1  0  0  0  0
 17 18  1  0  0  0  0
 17 16  1  0  0  0  0
 19 17  2  0  0  0  0
 20 19  1  0  0  0  0
 20 15  2  0  0  0  0
 21 11  2  0  0  0  0
 21 20  1  0  0  0  0
 23 28  1  0  0  0  0
 23  3  1  0  0  0  0
 24 25  1  0  0  0  0
 25 31  1  0  0  0  0
 25 26  2  0  0  0  0
 26 32  1  0  0  0  0
 27 26  1  0  0  0  0
 28 27  2  0  0  0  0
 29 24  2  0  0  0  0
 29 28  1  0  0  0  0
 30 24  1  0  0  0  0
 32 37  2  0  0  0  0
 32 33  1  0  0  0  0
 33 34  2  0  0  0  0
 34 35  1  0  0  0  0
 34 39  1  0  0  0  0
 36 40  1  0  0  0  0
 36 35  2  0  0  0  0
 37 36  1  0  0  0  0
 38 33  1  0  0  0  0
 40 41  1  0  0  0  0
 40 43  1  0  0  0  0
 42 40  1  0  0  0  0
M  END
>  <minimizedAffinity>
-7.00418091

$$$$

 OpenBabel03272502283D

 43 47  0  0  0  0  0  0  0  0999 V2000
   35.8970   29.3610   30.4370 N   0  0  0  0  0  0  0  0  0  0  0  0
   36.9020   28.4710   30.5300 C   0  0  0  0  0  0  0  0  0  0  0  0
   37.3090   28.0110   31.7660 C   0  0  0  0  0  0  0  0  0  0  0  0
   36.6530   28.4910   32.8960 C   0  0  0  0  0  0  0  0  0  0  0  0
   36.8540   28.2100   34.1110 O   0  0  0  0  0  0  0  0  0  0  0  0
   35.6430   29.3890   32.7520 N   0  0  0  0  0  0  0  0  0  0  0  0
   35.2710   29.8190   31.5280 C   0  0  0  0  0  0  0  0  0  0  0  0
   34.3360   30.6550   31.3430 O   0  0  0  0  0  0  0  0  0  0  0  0
   35.6580   29.6530   29.4710 H   0  0  0  0  0  0  0  0  0  0  0  0
   37.4610   28.0510   29.7080 H   0  0  0  0  0  0  0  0  0  0  0  0
   33.7100   29.2890   34.0120 C   0  0  0  0  0  3  0  0  0  0  0  0
   34.9070   29.9430   33.8380 C   0  0  0  0  0  0  0  0  0  0  0  0
   35.2620   30.9900   34.6620 C   0  0  0  0  0  0  0  0  0  0  0  0
   36.2010   31.4250   34.4460 H   0  0  0  0  0  0  0  0  0  0  0  0
   34.3720   31.3460   35.6540 C   0  0  0  0  0  0  0  0  0  0  0  0
   34.4830   32.3220   36.5750 N   0  0  0  0  0  0  0  0  0  0  0  0
   33.3810   32.3180   37.3470 C   0  0  0  0  0  0  0  0  0  0  0  0
   33.1870   32.9900   38.1720 H   0  0  0  0  0  0  0  0  0  0  0  0
   32.5810   31.3170   36.8860 N   0  0  0  0  0  0  0  0  0  0  0  0
   33.1550   30.6950   35.8440 C   0  0  0  0  0  0  0  0  0  0  0  0
   32.8090   29.6470   35.0140 C   0  0  0  0  0  3  0  0  0  0  0  0
   35.2660   32.9830   36.7020 H   0  0  0  0  0  0  0  0  0  0  0  0
   38.3040   27.1130   32.0850 O   0  0  0  0  0  0  0  0  0  0  0  0
   37.0520   23.7290   31.9270 C   0  0  0  0  0  0  0  0  0  0  0  0
   37.4720   23.2180   33.1660 C   0  0  0  0  0  0  0  0  0  0  0  0
   38.1700   24.0700   33.9970 C   0  0  0  0  0  0  0  0  0  0  0  0
   38.3960   25.3240   33.5630 N   0  0  0  0  0  0  0  0  0  0  0  0
   37.9870   25.7960   32.3770 C   0  0  0  0  0  0  0  0  0  0  0  0
   37.3060   24.9840   31.5500 N   0  0  0  0  0  0  0  0  0  0  0  0
   36.5100   23.0500   31.2950 H   0  0  0  0  0  0  0  0  0  0  0  0
   37.2750   22.1990   33.4890 H   0  0  0  0  0  0  0  0  0  0  0  0
   38.6530   23.6770   35.3020 C   0  0  0  0  0  0  0  0  0  0  0  0
   37.8980   23.9220   36.4440 C   0  0  0  0  0  0  0  0  0  0  0  0
   38.3100   23.5660   37.7000 C   0  0  0  0  0  0  0  0  0  0  0  0
   39.5070   22.9430   37.8560 N   0  0  0  0  0  0  0  0  0  0  0  0
   40.2160   22.7170   36.7380 C   0  0  0  0  0  0  0  0  0  0  0  0
   39.8330   23.0580   35.5010 N   0  0  0  0  0  0  0  0  0  0  0  0
   36.9450   24.4180   36.3110 H   0  0  0  0  0  0  0  0  0  0  0  0
   37.6770   23.7830   38.5490 H   0  0  0  0  0  0  0  0  0  0  0  0
   41.5310   22.0370   36.8740 C   0  0  0  0  0  0  0  0  0  0  0  0
   42.5060   23.0480   37.0060 F   0  0  0  0  0  0  0  0  0  0  0  0
   41.5470   21.1680   37.9210 F   0  0  0  0  0  0  0  0  0  0  0  0
   41.8860   21.3790   35.7080 F   0  0  0  0  0  0  0  0  0  0  0  0
  1  2  1  0  0  0  0
  1  7  1  0  0  0  0
  2  3  2  0  0  0  0
  3 23  1  0  0  0  0
  3  4  1  0  0  0  0
  4  5  2  0  0  0  0
  6  4  1  0  0  0  0
  6 12  1  0  0  0  0
  7  6  1  0  0  0  0
  8  7  2  0  0  0  0
  9  1  1  0  0  0  0
 10  2  1  0  0  0  0
 11 21  1  0  0  0  0
 12 11  2  0  0  0  0
 12 13  1  0  0  0  0
 13 15  2  0  0  0  0
 14 13  1  0  0  0  0
 15 20  1  0  0  0  0
 15 16  1  0  0  0  0
 16 22  1  0  0  0  0
 16 17  1  0  0  0  0
 17 18  1  0  0  0  0
 19 17  2  0  0  0  0
 20 19  1  0  0  0  0
 21 20  2  0  0  0  0
 23 28  1  0  0  0  0
 24 25  1  0  0  0  0
 25 31  1  0  0  0  0
 25 26  2  0  0  0  0
 26 32  1  0  0  0  0
 27 26  1  0  0  0  0
 28 27  2  0  0  0  0
 29 24  2  0  0  0  0
 29 28  1  0  0  0  0
 30 24  1  0  0  0  0
 32 37  2  0  0  0  0
 32 33  1  0  0  0  0
 33 34  2  0  0  0  0
 34 35  1  0  0  0  0
 34 39  1  0  0  0  0
 36 40  1  0  0  0  0
 36 35  2  0  0  0  0
 37 36  1  0  0  0  0
 38 33  1  0  0  0  0
 40 41  1  0  0  0  0
 40 42  1  0  0  0  0
 43 40  1  0  0  0  0
M  END
>  <minimizedAffinity>
-6.93493462

$$$$

 OpenBabel03272502283D

 43 47  0  0  0  0  0  0  0  0999 V2000
   39.7890   25.3530   31.1650 N   0  0  0  0  0  0  0  0  0  0  0  0
   39.2300   24.1350   31.0400 C   0  0  0  0  0  0  0  0  0  0  0  0
   37.8700   23.9770   31.2160 C   0  0  0  0  0  0  0  0  0  0  0  0
   37.1090   25.1010   31.5210 C   0  0  0  0  0  0  0  0  0  0  0  0
   35.8640   25.1890   31.7200 O   0  0  0  0  0  0  0  0  0  0  0  0
   37.7190   26.3090   31.6370 N   0  0  0  0  0  0  0  0  0  0  0  0
   39.0520   26.4300   31.4600 C   0  0  0  0  0  0  0  0  0  0  0  0
   39.6660   27.5350   31.5570 O   0  0  0  0  0  0  0  0  0  0  0  0
   40.8160   25.3800   31.0170 H   0  0  0  0  0  0  0  0  0  0  0  0
   39.7440   23.2160   30.8070 H   0  0  0  0  0  0  0  0  0  0  0  0
   36.7300   28.2240   30.8040 C   0  0  0  0  0  3  0  0  0  0  0  0
   37.0380   27.5210   31.9450 C   0  0  0  0  0  0  0  0  0  0  0  0
   36.6880   28.0110   33.1870 C   0  0  0  0  0  0  0  0  0  0  0  0
   36.9700   27.3960   34.0000 H   0  0  0  0  0  0  0  0  0  0  0  0
   36.0260   29.2200   33.2280 C   0  0  0  0  0  0  0  0  0  0  0  0
   35.5840   29.9010   34.3020 N   0  0  0  0  0  0  0  0  0  0  0  0
   34.9920   31.0350   33.8820 C   0  0  0  0  0  0  0  0  0  0  0  0
   34.5420   31.7840   34.5200 H   0  0  0  0  0  0  0  0  0  0  0  0
   35.0760   31.0440   32.5240 N   0  0  0  0  0  0  0  0  0  0  0  0
   35.7070   29.9440   32.0820 C   0  0  0  0  0  0  0  0  0  0  0  0
   36.0600   29.4460   30.8430 C   0  0  0  0  0  3  0  0  0  0  0  0
   35.6630   29.6330   35.2950 H   0  0  0  0  0  0  0  0  0  0  0  0
   37.1010   22.8350   31.1360 O   0  0  0  0  0  0  0  0  0  0  0  0
   35.4830   20.6510   33.5120 C   0  0  0  0  0  0  0  0  0  0  0  0
   36.2060   20.9280   34.6840 C   0  0  0  0  0  0  0  0  0  0  0  0
   37.2210   21.8580   34.5940 C   0  0  0  0  0  0  0  0  0  0  0  0
   37.4430   22.4310   33.3970 N   0  0  0  0  0  0  0  0  0  0  0  0
   36.7420   22.1550   32.2880 C   0  0  0  0  0  0  0  0  0  0  0  0
   35.7490   21.2510   32.3510 N   0  0  0  0  0  0  0  0  0  0  0  0
   34.6970   19.9240   33.6030 H   0  0  0  0  0  0  0  0  0  0  0  0
   36.0040   20.4480   35.6380 H   0  0  0  0  0  0  0  0  0  0  0  0
   38.0380   22.2430   35.7240 C   0  0  0  0  0  0  0  0  0  0  0  0
   37.4980   22.9730   36.7770 C   0  0  0  0  0  0  0  0  0  0  0  0
   38.2280   23.3580   37.8690 C   0  0  0  0  0  0  0  0  0  0  0  0
   39.5410   23.0190   37.9430 N   0  0  0  0  0  0  0  0  0  0  0  0
   40.0390   22.3140   36.9140 C   0  0  0  0  0  0  0  0  0  0  0  0
   39.3430   21.9290   35.8370 N   0  0  0  0  0  0  0  0  0  0  0  0
   36.4500   23.2380   36.7110 H   0  0  0  0  0  0  0  0  0  0  0  0
   37.7500   23.9240   38.6570 H   0  0  0  0  0  0  0  0  0  0  0  0
   41.4730   21.9280   36.9650 C   0  0  0  0  0  0  0  0  0  0  0  0
   42.2210   23.1240   36.9890 F   0  0  0  0  0  0  0  0  0  0  0  0
   41.7470   21.1300   38.0330 F   0  0  0  0  0  0  0  0  0  0  0  0
   41.8740   21.3060   35.7940 F   0  0  0  0  0  0  0  0  0  0  0  0
  1  7  1  0  0  0  0
  2  1  1  0  0  0  0
  2  3  2  0  0  0  0
  3  4  1  0  0  0  0
  4  6  1  0  0  0  0
  4  5  2  0  0  0  0
  6 12  1  0  0  0  0
  7  8  2  0  0  0  0
  7  6  1  0  0  0  0
  9  1  1  0  0  0  0
 10  2  1  0  0  0  0
 11 21  2  0  0  0  0
 11 12  1  0  0  0  0
 12 13  2  0  0  0  0
 13 15  1  0  0  0  0
 13 14  1  0  0  0  0
 15 16  1  0  0  0  0
 16 22  1  0  0  0  0
 17 16  1  0  0  0  0
 17 18  1  0  0  0  0
 19 17  2  0  0  0  0
 20 19  1  0  0  0  0
 20 15  2  0  0  0  0
 21 20  1  0  0  0  0
 23  3  1  0  0  0  0
 23 28  1  0  0  0  0
 24 30  1  0  0  0  0
 24 25  1  0  0  0  0
 25 31  1  0  0  0  0
 26 25  2  0  0  0  0
 26 32  1  0  0  0  0
 27 26  1  0  0  0  0
 28 29  1  0  0  0  0
 28 27  2  0  0  0  0
 29 24  2  0  0  0  0
 32 37  2  0  0  0  0
 32 33  1  0  0  0  0
 33 34  2  0  0  0  0
 34 35  1  0  0  0  0
 34 39  1  0  0  0  0
 36 40  1  0  0  0  0
 36 35  2  0  0  0  0
 37 36  1  0  0  0  0
 38 33  1  0  0  0  0
 40 41  1  0  0  0  0
 40 42  1  0  0  0  0
 43 40  1  0  0  0  0
M  END
>  <minimizedAffinity>
-6.93360949

$$$$

 OpenBabel03272502283D

 43 47  0  0  0  0  0  0  0  0999 V2000
   35.8830   26.9030   31.3740 N   0  0  0  0  0  0  0  0  0  0  0  0
   35.5910   25.5970   31.2370 C   0  0  0  0  0  0  0  0  0  0  0  0
   36.5940   24.6890   30.9650 C   0  0  0  0  0  0  0  0  0  0  0  0
   37.8960   25.1630   30.8400 C   0  0  0  0  0  0  0  0  0  0  0  0
   38.9570   24.5190   30.5980 O   0  0  0  0  0  0  0  0  0  0  0  0
   38.1420   26.4900   30.9870 N   0  0  0  0  0  0  0  0  0  0  0  0
   37.1370   27.3530   31.2520 C   0  0  0  0  0  0  0  0  0  0  0  0
   37.3150   28.6000   31.3980 O   0  0  0  0  0  0  0  0  0  0  0  0
   35.0690   27.5150   31.5770 H   0  0  0  0  0  0  0  0  0  0  0  0
   34.6130   25.1480   31.3170 H   0  0  0  0  0  0  0  0  0  0  0  0
   39.6920   27.4810   29.5900 C   0  0  0  0  0  3  0  0  0  0  0  0
   39.4330   27.0810   30.8800 C   0  0  0  0  0  0  0  0  0  0  0  0
   40.3700   27.2710   31.8750 C   0  0  0  0  0  0  0  0  0  0  0  0
   40.0750   26.9290   32.8300 H   0  0  0  0  0  0  0  0  0  0  0  0
   41.5590   27.8710   31.5190 C   0  0  0  0  0  0  0  0  0  0  0  0
   42.6200   28.1630   32.2960 N   0  0  0  0  0  0  0  0  0  0  0  0
   43.5650   28.7470   31.5360 C   0  0  0  0  0  0  0  0  0  0  0  0
   44.5290   29.0920   31.8860 H   0  0  0  0  0  0  0  0  0  0  0  0
   43.0700   28.8120   30.2700 N   0  0  0  0  0  0  0  0  0  0  0  0
   41.8360   28.2830   30.2180 C   0  0  0  0  0  0  0  0  0  0  0  0
   40.8930   28.0890   29.2280 C   0  0  0  0  0  3  0  0  0  0  0  0
   42.7280   27.9870   33.3070 H   0  0  0  0  0  0  0  0  0  0  0  0
   36.5190   23.3240   30.7870 O   0  0  0  0  0  0  0  0  0  0  0  0
   35.4080   20.7520   33.0660 C   0  0  0  0  0  0  0  0  0  0  0  0
   36.2820   20.9420   34.1490 C   0  0  0  0  0  0  0  0  0  0  0  0
   37.2150   21.9520   34.0370 C   0  0  0  0  0  0  0  0  0  0  0  0
   37.2210   22.6800   32.9050 N   0  0  0  0  0  0  0  0  0  0  0  0
   36.3780   22.4850   31.8800 C   0  0  0  0  0  0  0  0  0  0  0  0
   35.4600   21.5060   31.9660 N   0  0  0  0  0  0  0  0  0  0  0  0
   34.6890   19.9610   33.1720 H   0  0  0  0  0  0  0  0  0  0  0  0
   36.2550   20.3380   35.0510 H   0  0  0  0  0  0  0  0  0  0  0  0
   38.1690   22.2620   35.0790 C   0  0  0  0  0  0  0  0  0  0  0  0
   39.5310   22.0600   34.8810 C   0  0  0  0  0  0  0  0  0  0  0  0
   40.4720   22.3410   35.8350 C   0  0  0  0  0  0  0  0  0  0  0  0
   40.0760   22.8410   37.0340 N   0  0  0  0  0  0  0  0  0  0  0  0
   38.7560   23.0270   37.2000 C   0  0  0  0  0  0  0  0  0  0  0  0
   37.8190   22.7580   36.2820 N   0  0  0  0  0  0  0  0  0  0  0  0
   39.8390   21.6620   33.9220 H   0  0  0  0  0  0  0  0  0  0  0  0
   41.5170   22.1630   35.6200 H   0  0  0  0  0  0  0  0  0  0  0  0
   38.2890   23.5730   38.5010 C   0  0  0  0  0  0  0  0  0  0  0  0
   37.8770   24.9020   38.2650 F   0  0  0  0  0  0  0  0  0  0  0  0
   37.2960   22.8170   39.0430 F   0  0  0  0  0  0  0  0  0  0  0  0
   39.3330   23.7010   39.4030 F   0  0  0  0  0  0  0  0  0  0  0  0
  1  9  1  0  0  0  0
  2 10  1  0  0  0  0
  2  1  1  0  0  0  0
  3  2  2  0  0  0  0
  4  3  1  0  0  0  0
  4  6  1  0  0  0  0
  5  4  2  0  0  0  0
  6  7  1  0  0  0  0
  7  1  1  0  0  0  0
  7  8  2  0  0  0  0
 11 12  1  0  0  0  0
 12  6  1  0  0  0  0
 12 13  2  0  0  0  0
 13 14  1  0  0  0  0
 15 13  1  0  0  0  0
 15 16  1  0  0  0  0
 16 22  1  0  0  0  0
 17 18  1  0  0  0  0
 17 16  1  0  0  0  0
 19 17  2  0  0  0  0
 20 19  1  0  0  0  0
 20 15  2  0  0  0  0
 21 11  2  0  0  0  0
 21 20  1  0  0  0  0
 23  3  1  0  0  0  0
 23 28  1  0  0  0  0
 24 30  1  0  0  0  0
 24 25  1  0  0  0  0
 25 31  1  0  0  0  0
 26 25  2  0  0  0  0
 26 32  1  0  0  0  0
 27 26  1  0  0  0  0
 28 29  1  0  0  0  0
 28 27  2  0  0  0  0
 29 24  2  0  0  0  0
 32 37  1  0  0  0  0
 33 32  2  0  0  0  0
 33 34  1  0  0  0  0
 34 35  2  0  0  0  0
 35 36  1  0  0  0  0
 36 40  1  0  0  0  0
 37 36  2  0  0  0  0
 38 33  1  0  0  0  0
 39 34  1  0  0  0  0
 40 42  1  0  0  0  0
 40 43  1  0  0  0  0
 41 40  1  0  0  0  0
M  END
>  <minimizedAffinity>
-6.89202642

$$$$

 OpenBabel03272502283D

 43 47  0  0  0  0  0  0  0  0999 V2000
   35.9400   28.7440   30.7790 N   0  0  0  0  0  0  0  0  0  0  0  0
   36.7460   27.6820   30.9620 C   0  0  0  0  0  0  0  0  0  0  0  0
   37.0660   27.2670   32.2390 C   0  0  0  0  0  0  0  0  0  0  0  0
   36.5350   27.9740   33.3140 C   0  0  0  0  0  0  0  0  0  0  0  0
   36.6900   27.7740   34.5520 O   0  0  0  0  0  0  0  0  0  0  0  0
   35.7260   29.0400   33.0790 N   0  0  0  0  0  0  0  0  0  0  0  0
   35.4330   29.4200   31.8170 C   0  0  0  0  0  0  0  0  0  0  0  0
   34.6840   30.4070   31.5470 O   0  0  0  0  0  0  0  0  0  0  0  0
   35.7530   28.9860   29.7880 H   0  0  0  0  0  0  0  0  0  0  0  0
   37.1980   27.0820   30.1880 H   0  0  0  0  0  0  0  0  0  0  0  0
   33.8370   29.4350   34.3490 C   0  0  0  0  0  3  0  0  0  0  0  0
   35.1310   29.8310   34.1020 C   0  0  0  0  0  0  0  0  0  0  0  0
   35.6930   30.8740   34.8100 C   0  0  0  0  0  0  0  0  0  0  0  0
   36.6910   31.1000   34.5450 H   0  0  0  0  0  0  0  0  0  0  0  0
   34.9070   31.4900   35.7610 C   0  0  0  0  0  0  0  0  0  0  0  0
   35.2190   32.5180   36.5730 N   0  0  0  0  0  0  0  0  0  0  0  0
   34.1540   32.8000   37.3450 C   0  0  0  0  0  0  0  0  0  0  0  0
   34.1070   33.5780   38.0950 H   0  0  0  0  0  0  0  0  0  0  0  0
   33.1720   31.9240   36.9960 N   0  0  0  0  0  0  0  0  0  0  0  0
   33.5960   31.1010   36.0230 C   0  0  0  0  0  0  0  0  0  0  0  0
   33.0420   30.0560   35.3110 C   0  0  0  0  0  3  0  0  0  0  0  0
   36.1140   33.0310   36.6260 H   0  0  0  0  0  0  0  0  0  0  0  0
   37.8620   26.2200   32.6480 O   0  0  0  0  0  0  0  0  0  0  0  0
   41.2630   27.3680   32.2500 C   0  0  0  0  0  0  0  0  0  0  0  0
   41.9420   26.5560   33.1730 C   0  0  0  0  0  0  0  0  0  0  0  0
   41.1880   25.6490   33.8890 C   0  0  0  0  0  0  0  0  0  0  0  0
   39.8650   25.6070   33.6540 N   0  0  0  0  0  0  0  0  0  0  0  0
   39.2320   26.3910   32.7680 C   0  0  0  0  0  0  0  0  0  0  0  0
   39.9450   27.2830   32.0590 N   0  0  0  0  0  0  0  0  0  0  0  0
   41.8670   28.0680   31.7020 H   0  0  0  0  0  0  0  0  0  0  0  0
   43.0140   26.6120   33.3420 H   0  0  0  0  0  0  0  0  0  0  0  0
   41.7610   24.7460   34.8640 C   0  0  0  0  0  0  0  0  0  0  0  0
   43.1350   24.7060   35.0770 C   0  0  0  0  0  0  0  0  0  0  0  0
   43.7230   23.8730   35.9890 C   0  0  0  0  0  0  0  0  0  0  0  0
   42.9450   23.0410   36.7300 N   0  0  0  0  0  0  0  0  0  0  0  0
   41.6210   23.0990   36.5050 C   0  0  0  0  0  0  0  0  0  0  0  0
   41.0260   23.9050   35.6180 N   0  0  0  0  0  0  0  0  0  0  0  0
   43.7480   25.3720   34.4830 H   0  0  0  0  0  0  0  0  0  0  0  0
   44.7980   23.8890   36.1090 H   0  0  0  0  0  0  0  0  0  0  0  0
   40.7420   22.2030   37.3000 C   0  0  0  0  0  0  0  0  0  0  0  0
   40.1830   22.9840   38.3330 F   0  0  0  0  0  0  0  0  0  0  0  0
   39.7880   21.6130   36.5290 F   0  0  0  0  0  0  0  0  0  0  0  0
   41.4730   21.2350   37.9690 F   0  0  0  0  0  0  0  0  0  0  0  0
  1  2  1  0  0  0  0
  1  7  1  0  0  0  0
  2  3  2  0  0  0  0
  3 23  1  0  0  0  0
  3  4  1  0  0  0  0
  4  5  2  0  0  0  0
  6  4  1  0  0  0  0
  6 12  1  0  0  0  0
  7  6  1  0  0  0  0
  8  7  2  0  0  0  0
  9  1  1  0  0  0  0
 10  2  1  0  0  0  0
 11 21  1  0  0  0  0
 12 11  2  0  0  0  0
 12 13  1  0  0  0  0
 13 15  2  0  0  0  0
 14 13  1  0  0  0  0
 15 20  1  0  0  0  0
 15 16  1  0  0  0  0
 16 22  1  0  0  0  0
 16 17  1  0  0  0  0
 17 18  1  0  0  0  0
 19 17  2  0  0  0  0
 20 19  1  0  0  0  0
 21 20  2  0  0  0  0
 23 28  1  0  0  0  0
 24 25  1  0  0  0  0
 25 31  1  0  0  0  0
 25 26  2  0  0  0  0
 26 32  1  0  0  0  0
 27 26  1  0  0  0  0
 28 27  2  0  0  0  0
 29 24  2  0  0  0  0
 29 28  1  0  0  0  0
 30 24  1  0  0  0  0
 32 33  2  0  0  0  0
 32 37  1  0  0  0  0
 33 34  1  0  0  0  0
 34 39  1  0  0  0  0
 34 35  2  0  0  0  0
 36 35  1  0  0  0  0
 36 40  1  0  0  0  0
 37 36  2  0  0  0  0
 38 33  1  0  0  0  0
 40 43  1  0  0  0  0
 40 41  1  0  0  0  0
 42 40  1  0  0  0  0
M  END
>  <minimizedAffinity>
-6.88225746

$$$$

 OpenBabel03272502283D

 43 47  0  0  0  0  0  0  0  0999 V2000
   35.7870   29.0200   30.7640 N   0  0  0  0  0  0  0  0  0  0  0  0
   36.5650   27.9300   30.8920 C   0  0  0  0  0  0  0  0  0  0  0  0
   36.8860   27.4510   32.1460 C   0  0  0  0  0  0  0  0  0  0  0  0
   36.3840   28.1230   33.2560 C   0  0  0  0  0  0  0  0  0  0  0  0
   36.5450   27.8640   34.4830 O   0  0  0  0  0  0  0  0  0  0  0  0
   35.6020   29.2190   33.0770 N   0  0  0  0  0  0  0  0  0  0  0  0
   35.3080   29.6620   31.8360 C   0  0  0  0  0  0  0  0  0  0  0  0
   34.5830   30.6790   31.6170 O   0  0  0  0  0  0  0  0  0  0  0  0
   35.5970   29.3100   29.7860 H   0  0  0  0  0  0  0  0  0  0  0  0
   36.9940   27.3520   30.0880 H   0  0  0  0  0  0  0  0  0  0  0  0
   33.7790   29.5290   34.4610 C   0  0  0  0  0  3  0  0  0  0  0  0
   35.0380   29.9800   34.1400 C   0  0  0  0  0  0  0  0  0  0  0  0
   35.5980   31.0410   34.8200 C   0  0  0  0  0  0  0  0  0  0  0  0
   36.5680   31.3100   34.4980 H   0  0  0  0  0  0  0  0  0  0  0  0
   34.8470   31.6200   35.8210 C   0  0  0  0  0  0  0  0  0  0  0  0
   35.1650   32.6560   36.6210 N   0  0  0  0  0  0  0  0  0  0  0  0
   34.1370   32.8890   37.4580 C   0  0  0  0  0  0  0  0  0  0  0  0
   34.1040   33.6610   38.2150 H   0  0  0  0  0  0  0  0  0  0  0  0
   33.1720   31.9760   37.1620 N   0  0  0  0  0  0  0  0  0  0  0  0
   33.5700   31.1760   36.1590 C   0  0  0  0  0  0  0  0  0  0  0  0
   33.0170   30.1130   35.4730 C   0  0  0  0  0  3  0  0  0  0  0  0
   36.0390   33.2050   36.6250 H   0  0  0  0  0  0  0  0  0  0  0  0
   37.6580   26.3660   32.5010 O   0  0  0  0  0  0  0  0  0  0  0  0
   39.4670   25.0350   29.6730 C   0  0  0  0  0  0  0  0  0  0  0  0
   39.0670   23.6880   29.6950 C   0  0  0  0  0  0  0  0  0  0  0  0
   38.1900   23.3060   30.6880 C   0  0  0  0  0  0  0  0  0  0  0  0
   37.7820   24.2460   31.5610 N   0  0  0  0  0  0  0  0  0  0  0  0
   38.1730   25.5280   31.5260 C   0  0  0  0  0  0  0  0  0  0  0  0
   39.0280   25.9230   30.5670 N   0  0  0  0  0  0  0  0  0  0  0  0
   40.1500   25.3120   28.8920 H   0  0  0  0  0  0  0  0  0  0  0  0
   39.4140   22.9510   28.9760 H   0  0  0  0  0  0  0  0  0  0  0  0
   37.6900   21.9550   30.8210 C   0  0  0  0  0  0  0  0  0  0  0  0
   38.2600   20.9120   30.0990 C   0  0  0  0  0  0  0  0  0  0  0  0
   37.8260   19.6170   30.1930 C   0  0  0  0  0  0  0  0  0  0  0  0
   36.7940   19.3200   31.0250 N   0  0  0  0  0  0  0  0  0  0  0  0
   36.2620   20.3450   31.7110 C   0  0  0  0  0  0  0  0  0  0  0  0
   36.6700   21.6180   31.6330 N   0  0  0  0  0  0  0  0  0  0  0  0
   39.0820   21.1570   29.4390 H   0  0  0  0  0  0  0  0  0  0  0  0
   38.3110   18.8490   29.6050 H   0  0  0  0  0  0  0  0  0  0  0  0
   35.1310   20.0530   32.6300 C   0  0  0  0  0  0  0  0  0  0  0  0
   35.1780   21.0180   33.6590 F   0  0  0  0  0  0  0  0  0  0  0  0
   33.9350   20.0540   31.9810 F   0  0  0  0  0  0  0  0  0  0  0  0
   35.3100   18.8490   33.2910 F   0  0  0  0  0  0  0  0  0  0  0  0
  1  2  1  0  0  0  0
  1  7  1  0  0  0  0
  2  3  2  0  0  0  0
  3 23  1  0  0  0  0
  3  4  1  0  0  0  0
  4  5  2  0  0  0  0
  6  4  1  0  0  0  0
  6 12  1  0  0  0  0
  7  6  1  0  0  0  0
  8  7  2  0  0  0  0
  9  1  1  0  0  0  0
 10  2  1  0  0  0  0
 11 21  1  0  0  0  0
 12 11  2  0  0  0  0
 12 13  1  0  0  0  0
 13 15  2  0  0  0  0
 14 13  1  0  0  0  0
 15 20  1  0  0  0  0
 15 16  1  0  0  0  0
 16 22  1  0  0  0  0
 16 17  1  0  0  0  0
 17 18  1  0  0  0  0
 19 17  2  0  0  0  0
 20 19  1  0  0  0  0
 21 20  2  0  0  0  0
 24 25  2  0  0  0  0
 24 29  1  0  0  0  0
 25 26  1  0  0  0  0
 26 32  1  0  0  0  0
 26 27  2  0  0  0  0
 28 27  1  0  0  0  0
 28 23  1  0  0  0  0
 29 28  2  0  0  0  0
 30 24  1  0  0  0  0
 31 25  1  0  0  0  0
 32 37  1  0  0  0  0
 33 34  1  0  0  0  0
 33 32  2  0  0  0  0
 34 35  2  0  0  0  0
 35 36  1  0  0  0  0
 36 40  1  0  0  0  0
 37 36  2  0  0  0  0
 38 33  1  0  0  0  0
 39 34  1  0  0  0  0
 40 43  1  0  0  0  0
 40 41  1  0  0  0  0
 42 40  1  0  0  0  0
M  END
>  <minimizedAffinity>
-6.84863567

$$$$
