
 OpenBabel03272506393D

 40 43  0  0  1  0  0  0  0  0999 V2000
   34.7570   28.2620   49.7480 O   0  0  0  0  0  0  0  0  0  0  0  0
   34.5120   28.8610   48.6860 C   0  0  0  0  0  0  0  0  0  0  0  0
   35.2430   30.0530   48.3000 C   0  0  2  0  0  0  0  0  0  0  0  0
   34.7100   30.2660   46.8480 C   0  0  0  0  0  0  0  0  0  0  0  0
   33.3560   29.6340   46.8830 C   0  0  0  0  0  0  0  0  0  0  0  0
   33.5120   28.4680   47.7390 N   0  0  0  0  0  0  0  0  0  0  0  0
   35.0120   30.9940   48.7950 H   0  0  0  0  0  0  0  0  0  0  0  0
   35.3770   29.6970   46.1820 H   0  0  0  0  0  0  0  0  0  0  0  0
   34.6820   31.3480   46.6130 H   0  0  0  0  0  0  0  0  0  0  0  0
   32.5880   30.2600   47.3430 H   0  0  0  0  0  0  0  0  0  0  0  0
   33.0240   29.2770   45.8850 H   0  0  0  0  0  0  0  0  0  0  0  0
   32.7950   27.2090   47.6290 C   0  0  0  0  0  0  0  0  0  0  0  0
   31.7980   27.3920   47.1930 H   0  0  0  0  0  0  0  0  0  0  0  0
   32.6250   26.8430   48.6640 H   0  0  0  0  0  0  0  0  0  0  0  0
   33.8110   25.0090   47.4320 C   0  0  0  0  0  3  0  0  0  0  0  0
   33.5230   26.2210   46.8020 C   0  0  0  0  0  0  0  0  0  0  0  0
   33.9030   26.4550   45.4960 C   0  0  0  0  0  0  0  0  0  0  0  0
   33.6700   27.3930   45.0350 H   0  0  0  0  0  0  0  0  0  0  0  0
   34.5800   25.4640   44.8130 C   0  0  0  0  0  0  0  0  0  0  0  0
   35.0780   25.3780   43.5600 N   0  0  0  0  0  0  0  0  0  0  0  0
   35.6470   24.1590   43.4340 C   0  0  0  0  0  0  0  0  0  0  0  0
   36.1500   23.7180   42.5830 H   0  0  0  0  0  0  0  0  0  0  0  0
   35.5110   23.4780   44.5990 N   0  0  0  0  0  0  0  0  0  0  0  0
   34.8530   24.2630   45.4700 C   0  0  0  0  0  0  0  0  0  0  0  0
   34.4810   24.0120   46.7730 C   0  0  0  0  0  3  0  0  0  0  0  0
   35.0340   26.1140   42.8220 H   0  0  0  0  0  0  0  0  0  0  0  0
   36.6540   29.8490   48.1650 O   0  0  0  0  0  0  0  0  0  0  0  0
   37.4710   30.9750   48.2350 C   0  0  0  0  0  0  0  0  0  0  0  0
   37.6200   31.5510   49.4840 C   0  0  0  0  0  0  0  0  0  0  0  0
   38.4290   32.6770   49.5890 C   0  0  0  0  0  0  0  0  0  0  0  0
   39.0310   33.1610   48.4780 N   0  0  0  0  0  0  0  0  0  0  0  0
   38.8760   32.5860   47.2640 C   0  0  0  0  0  0  0  0  0  0  0  0
   38.1030   31.5130   47.1700 N   0  0  0  0  0  0  0  0  0  0  0  0
   40.4000   32.1860   45.4960 C   0  0  0  0  0  0  0  0  0  0  0  0
   40.6500   30.9950   45.8440 O   0  0  0  0  0  0  0  0  0  0  0  0
   39.5220   33.1210   46.1140 N   0  0  0  0  0  0  0  0  0  0  0  0
   37.1240   31.1370   50.3460 H   0  0  0  0  0  0  0  0  0  0  0  0
   38.5410   33.1160   50.5520 H   0  0  0  0  0  0  0  0  0  0  0  0
   40.9650   32.4520   44.6040 H   0  0  0  0  0  0  0  0  0  0  0  0
   39.3850   34.0850   45.7480 H   0  0  0  0  0  0  0  0  0  0  0  0
  2  1  2  0  0  0  0
  3  2  1  0  0  0  0
  3  7  1  1  0  0  0
  4  5  1  0  0  0  0
  4  3  1  0  0  0  0
  5 10  1  0  0  0  0
  5  6  1  0  0  0  0
  6  2  1  0  0  0  0
  8  4  1  0  0  0  0
  9  4  1  0  0  0  0
 11  5  1  0  0  0  0
 12  6  1  0  0  0  0
 12 14  1  0  0  0  0
 13 12  1  0  0  0  0
 16 15  1  0  0  0  0
 16 12  1  0  0  0  0
 17 16  2  0  0  0  0
 18 17  1  0  0  0  0
 19 24  2  0  0  0  0
 19 17  1  0  0  0  0
 20 19  1  0  0  0  0
 21 20  1  0  0  0  0
 21 23  2  0  0  0  0
 22 21  1  0  0  0  0
 23 24  1  0  0  0  0
 24 25  1  0  0  0  0
 25 15  2  0  0  0  0
 26 20  1  0  0  0  0
 27 28  1  0  0  0  0
 27  3  1  0  0  0  0
 28 29  1  0  0  0  0
 29 30  2  0  0  0  0
 29 37  1  0  0  0  0
 30 38  1  0  0  0  0
 31 30  1  0  0  0  0
 32 31  2  0  0  0  0
 33 32  1  0  0  0  0
 33 28  2  0  0  0  0
 34 35  2  0  0  0  0
 34 36  1  0  0  0  0
 36 32  1  0  0  0  0
 39 34  1  0  0  0  0
 40 36  1  0  0  0  0
M  END
>  <minimizedAffinity>
-5.76440859

>  <minimizedRMSD>
1.0794065

$$$$
