
 OpenBabel03272509573D

 49 53  0  0  0  0  0  0  0  0999 V2000
   33.5540   27.5290   47.7160 C   0  0  0  0  0  0  0  0  0  0  0  0
   33.7800   27.2210   46.6560 H   0  0  0  0  0  0  0  0  0  0  0  0
   33.7350   26.6460   48.3270 H   0  0  0  0  0  0  0  0  0  0  0  0
   32.1130   27.8890   47.7840 C   0  0  0  0  0  0  0  0  0  0  0  0
   31.3960   27.4920   48.9010 C   0  0  0  0  0  0  0  0  0  0  0  0
   30.0600   27.7840   49.0410 C   0  0  0  0  0  0  0  0  0  0  0  0
   29.4330   28.4670   48.0820 N   0  0  0  0  0  0  0  0  0  0  0  0
   30.1470   28.8540   46.9860 C   0  0  0  0  0  0  0  0  0  0  0  0
   31.4540   28.5770   46.8330 N   0  0  0  0  0  0  0  0  0  0  0  0
   31.8990   26.9370   49.6810 H   0  0  0  0  0  0  0  0  0  0  0  0
   29.4690   27.4910   49.8990 H   0  0  0  0  0  0  0  0  0  0  0  0
   29.4260   29.6160   45.9270 C   0  0  0  0  0  0  0  0  0  0  0  0
   30.1860   30.2370   45.4080 H   0  0  0  0  0  0  0  0  0  0  0  0
   28.6690   30.3010   46.3580 H   0  0  0  0  0  0  0  0  0  0  0  0
   27.8550   29.0410   44.0060 C   0  0  0  0  0  3  0  0  0  0  0  0
   28.8270   28.6830   44.9350 C   0  0  0  0  0  0  0  0  0  0  0  0
   29.2680   27.3590   44.9340 C   0  0  0  0  0  0  0  0  0  0  0  0
   30.0350   27.0710   45.6650 H   0  0  0  0  0  0  0  0  0  0  0  0
   28.7810   26.4170   44.0610 C   0  0  0  0  0  0  0  0  0  0  0  0
   29.0200   25.1220   43.8510 N   0  0  0  0  0  0  0  0  0  0  0  0
   28.2700   24.6330   42.8560 C   0  0  0  0  0  0  0  0  0  0  0  0
   28.3080   23.5960   42.5200 H   0  0  0  0  0  0  0  0  0  0  0  0
   27.5080   25.6680   42.4010 N   0  0  0  0  0  0  0  0  0  0  0  0
   27.8060   26.7670   43.1250 C   0  0  0  0  0  0  0  0  0  0  0  0
   27.3870   28.0820   43.1480 C   0  0  0  0  0  3  0  0  0  0  0  0
   29.7290   24.6090   44.4360 H   0  0  0  0  0  0  0  0  0  0  0  0
   34.4500   28.6510   48.1620 C   0  0  0  0  0  0  0  0  0  0  0  0
   33.9790   29.6430   48.1470 H   0  0  0  0  0  0  0  0  0  0  0  0
   35.2920   28.6990   47.4410 H   0  0  0  0  0  0  0  0  0  0  0  0
   35.0330   28.3610   49.4230 O   0  0  0  0  0  0  0  0  0  0  0  0
   37.4120   30.1860   51.4370 C   0  0  0  0  0  0  0  0  0  0  0  0
   38.1180   30.8590   50.4170 C   0  0  0  0  0  0  0  0  0  0  0  0
   37.7390   30.6480   49.1050 C   0  0  0  0  0  0  0  0  0  0  0  0
   36.6920   29.7890   48.9120 N   0  0  0  0  0  0  0  0  0  0  0  0
   36.0290   29.1560   49.8830 C   0  0  0  0  0  0  0  0  0  0  0  0
   36.4020   29.3640   51.1560 N   0  0  0  0  0  0  0  0  0  0  0  0
   37.7340   30.3740   52.4490 H   0  0  0  0  0  0  0  0  0  0  0  0
   38.9350   31.5300   50.5660 H   0  0  0  0  0  0  0  0  0  0  0  0
   38.9830   33.2480   48.8880 F   0  0  0  0  0  0  0  0  0  0  0  0
   38.9310   32.4540   47.8190 C   0  0  0  0  0  0  0  0  0  0  0  0
   38.3490   31.2530   47.9420 C   0  0  0  0  0  0  0  0  0  0  0  0
   38.3490   30.5040   46.7660 C   0  0  0  0  0  0  0  0  0  0  0  0
   38.8920   30.9520   45.5960 C   0  0  0  0  0  0  0  0  0  0  0  0
   39.4770   32.1980   45.5270 C   0  0  0  0  0  0  0  0  0  0  0  0
   39.4890   32.9480   46.6650 C   0  0  0  0  0  0  0  0  0  0  0  0
   37.9130   29.4970   46.6940 H   0  0  0  0  0  0  0  0  0  0  0  0
   38.8930   30.3700   44.6770 H   0  0  0  0  0  0  0  0  0  0  0  0
   39.9110   32.5580   44.5930 H   0  0  0  0  0  0  0  0  0  0  0  0
   39.9460   33.9290   46.6260 H   0  0  0  0  0  0  0  0  0  0  0  0
  1  4  1  0  0  0  0
  1 27  1  0  0  0  0
  1  3  1  0  0  0  0
  2  1  1  0  0  0  0
  4  5  1  0  0  0  0
  5  6  2  0  0  0  0
  5 10  1  0  0  0  0
  6 11  1  0  0  0  0
  7  6  1  0  0  0  0
  8  7  2  0  0  0  0
  9  8  1  0  0  0  0
  9  4  2  0  0  0  0
 12 14  1  0  0  0  0
 12  8  1  0  0  0  0
 13 12  1  0  0  0  0
 15 16  1  0  0  0  0
 16 12  1  0  0  0  0
 17 16  2  0  0  0  0
 17 18  1  0  0  0  0
 19 17  1  0  0  0  0
 20 19  1  0  0  0  0
 20 26  1  0  0  0  0
 21 20  1  0  0  0  0
 22 21  1  0  0  0  0
 23 21  2  0  0  0  0
 23 24  1  0  0  0  0
 24 25  1  0  0  0  0
 24 19  2  0  0  0  0
 25 15  2  0  0  0  0
 27 30  1  0  0  0  0
 28 27  1  0  0  0  0
 29 27  1  0  0  0  0
 30 35  1  0  0  0  0
 31 37  1  0  0  0  0
 32 38  1  0  0  0  0
 32 31  2  0  0  0  0
 33 32  1  0  0  0  0
 34 33  2  0  0  0  0
 34 35  1  0  0  0  0
 35 36  2  0  0  0  0
 36 31  1  0  0  0  0
 40 41  1  0  0  0  0
 40 39  1  0  0  0  0
 41 33  1  0  0  0  0
 42 41  2  0  0  0  0
 43 42  1  0  0  0  0
 44 43  2  0  0  0  0
 44 45  1  0  0  0  0
 45 40  2  0  0  0  0
 46 42  1  0  0  0  0
 47 43  1  0  0  0  0
 48 44  1  0  0  0  0
 49 45  1  0  0  0  0
M  END
>  <minimizedAffinity>
-6.40044832

>  <minimizedRMSD>
0.142134741

$$$$
