
 OpenBabel03272507523D

 35 38  0  0  0  0  0  0  0  0999 V2000
   36.9280   31.4810   48.7690 N   0  0  0  0  0  0  0  0  0  0  0  0
   37.3450   32.4370   49.5910 C   0  0  0  0  0  0  0  0  0  0  0  0
   38.3980   33.2690   49.2020 C   0  0  0  0  0  0  0  0  0  0  0  0
   38.9160   33.0070   47.9660 C   0  0  0  0  0  0  0  0  0  0  0  0
   39.8710   33.7830   47.6470 O   0  0  0  0  0  0  0  0  0  0  0  0
   38.5280   32.0640   47.1190 N   0  0  0  0  0  0  0  0  0  0  0  0
   37.5060   31.2860   47.5430 C   0  0  0  0  0  0  0  0  0  0  0  0
   37.1220   30.3770   46.7410 O   0  0  0  0  0  0  0  0  0  0  0  0
   36.8130   32.4910   50.5260 H   0  0  0  0  0  0  0  0  0  0  0  0
   38.7060   34.0230   49.8830 H   0  0  0  0  0  0  0  0  0  0  0  0
   40.2740   31.1800   45.5010 C   0  0  0  0  0  3  0  0  0  0  0  0
   39.1290   31.8580   45.8370 C   0  0  0  0  0  0  0  0  0  0  0  0
   38.3650   32.4770   44.8440 C   0  0  0  0  0  0  0  0  0  0  0  0
   37.4440   33.0410   44.9810 H   0  0  0  0  0  0  0  0  0  0  0  0
   38.7510   32.4140   43.5120 C   0  0  0  0  0  0  0  0  0  0  0  0
   38.2530   32.8880   42.3380 N   0  0  0  0  0  0  0  0  0  0  0  0
   39.0680   32.5090   41.3270 C   0  0  0  0  0  0  0  0  0  0  0  0
   38.8540   32.7850   40.3010 H   0  0  0  0  0  0  0  0  0  0  0  0
   40.0950   31.7870   41.8630 N   0  0  0  0  0  0  0  0  0  0  0  0
   39.9020   31.7290   43.1870 C   0  0  0  0  0  0  0  0  0  0  0  0
   40.6510   31.1220   44.1750 C   0  0  0  0  0  3  0  0  0  0  0  0
   37.3610   33.4610   42.2750 H   0  0  0  0  0  0  0  0  0  0  0  0
   35.8730   29.9920   50.3760 C   0  0  0  0  0  0  0  0  0  0  0  0
   35.8570   30.5820   49.0960 C   0  0  0  0  0  0  0  0  0  0  0  0
   34.8120   30.2680   48.2110 C   0  0  0  0  0  0  0  0  0  0  0  0
   33.8670   29.4030   48.6460 N   0  0  0  0  0  0  0  0  0  0  0  0
   33.8810   28.8480   49.8470 C   0  0  0  0  0  0  0  0  0  0  0  0
   34.8770   29.1420   50.7040 N   0  0  0  0  0  0  0  0  0  0  0  0
   34.8280   30.7350   47.2410 H   0  0  0  0  0  0  0  0  0  0  0  0
   33.1300   28.1560   50.2020 H   0  0  0  0  0  0  0  0  0  0  0  0
   37.9080   29.4320   51.9120 C   0  0  0  0  0  0  0  0  0  0  0  0
   38.1110   28.2630   51.5230 O   0  0  0  0  0  0  0  0  0  0  0  0
   36.8700   30.2520   51.3400 N   0  0  0  0  0  0  0  0  0  0  0  0
   38.5550   29.7810   52.6990 H   0  0  0  0  0  0  0  0  0  0  0  0
   36.9110   31.2290   51.7550 H   0  0  0  0  0  0  0  0  0  0  0  0
  1 24  1  0  0  0  0
  1  2  1  0  0  0  0
  2  9  1  0  0  0  0
  3  2  2  0  0  0  0
  3 10  1  0  0  0  0
  4  3  1  0  0  0  0
  5  4  2  0  0  0  0
  6  7  1  0  0  0  0
  6  4  1  0  0  0  0
  7  1  1  0  0  0  0
  8  7  2  0  0  0  0
 11 12  1  0  0  0  0
 12  6  1  0  0  0  0
 13 14  1  0  0  0  0
 13 12  2  0  0  0  0
 15 13  1  0  0  0  0
 16 15  1  0  0  0  0
 17 19  2  0  0  0  0
 17 16  1  0  0  0  0
 18 17  1  0  0  0  0
 19 20  1  0  0  0  0
 20 15  2  0  0  0  0
 20 21  1  0  0  0  0
 21 11  2  0  0  0  0
 22 16  1  0  0  0  0
 23 28  1  0  0  0  0
 23 33  1  0  0  0  0
 24 23  2  0  0  0  0
 25 26  2  0  0  0  0
 25 24  1  0  0  0  0
 26 27  1  0  0  0  0
 27 30  1  0  0  0  0
 27 28  2  0  0  0  0
 29 25  1  0  0  0  0
 31 34  1  0  0  0  0
 32 31  2  0  0  0  0
 33 35  1  0  0  0  0
 33 31  1  0  0  0  0
M  END
>  <minimizedAffinity>
-6.42638731

>  <minimizedRMSD>
1.99770427

$$$$
