
 OpenBabel03272508023D

 31 34  0  0  0  0  0  0  0  0999 V2000
   38.8060   30.7860   45.6840 C   0  0  0  0  0  0  0  0  0  0  0  0
   40.0110   31.4330   45.8610 C   0  0  0  0  0  0  0  0  0  0  0  0
   40.7920   31.2830   44.7100 C   0  0  0  0  0  0  0  0  0  0  0  0
   40.0090   30.5350   43.8700 N   0  0  0  0  0  0  0  0  0  0  0  0
   38.8580   30.2520   44.4450 N   0  0  0  0  0  0  0  0  0  0  0  0
   40.2660   31.9640   46.7710 H   0  0  0  0  0  0  0  0  0  0  0  0
   41.7670   31.7140   44.6480 H   0  0  0  0  0  0  0  0  0  0  0  0
   41.3700   29.1470   42.3550 C   0  0  0  0  0  0  0  0  0  0  0  0
   40.5330   30.2080   42.5940 C   0  0  0  0  0  0  0  0  0  0  0  0
   40.1230   31.0660   41.5830 C   0  0  0  0  0  0  0  0  0  0  0  0
   39.4690   31.9150   41.7040 H   0  0  0  0  0  0  0  0  0  0  0  0
   40.5560   30.8730   40.2670 C   0  0  0  0  0  0  0  0  0  0  0  0
   40.3380   31.5180   39.0990 N   0  0  0  0  0  0  0  0  0  0  0  0
   41.0390   30.8580   38.1380 C   0  0  0  0  0  0  0  0  0  0  0  0
   41.0110   31.2070   37.0950 H   0  0  0  0  0  0  0  0  0  0  0  0
   41.6820   29.8180   38.7050 N   0  0  0  0  0  0  0  0  0  0  0  0
   41.4040   29.7990   40.0240 C   0  0  0  0  0  0  0  0  0  0  0  0
   41.7890   28.9670   41.0600 C   0  0  0  0  0  0  0  0  0  0  0  0
   39.7420   32.3620   38.9760 H   0  0  0  0  0  0  0  0  0  0  0  0
   37.6970   30.6920   46.6350 C   0  0  0  0  0  0  0  0  0  0  0  0
   38.0000   30.9550   48.0080 C   0  0  0  0  0  0  0  0  0  0  0  0
   36.9350   30.8650   48.9200 C   0  0  0  0  0  0  0  0  0  0  0  0
   35.7090   30.5360   48.4400 N   0  0  0  0  0  0  0  0  0  0  0  0
   35.4650   30.2940   47.1360 C   0  0  0  0  0  0  0  0  0  0  0  0
   36.4720   30.3770   46.2520 N   0  0  0  0  0  0  0  0  0  0  0  0
   39.0100   31.2110   48.3010 H   0  0  0  0  0  0  0  0  0  0  0  0
   34.4570   30.0380   46.8360 H   0  0  0  0  0  0  0  0  0  0  0  0
   37.2050   31.1310   50.3550 C   0  0  0  0  0  0  0  0  0  0  0  0
   36.6950   32.3920   50.6080 F   0  0  0  0  0  0  0  0  0  0  0  0
   36.5820   30.2370   51.1930 F   0  0  0  0  0  0  0  0  0  0  0  0
   38.5710   31.1680   50.6260 F   0  0  0  0  0  0  0  0  0  0  0  0
  1  2  1  0  0  0  0
  1 20  1  0  0  0  0
  2  6  1  0  0  0  0
  3  2  2  0  0  0  0
  4  5  1  0  0  0  0
  4  3  1  0  0  0  0
  5  1  2  0  0  0  0
  7  3  1  0  0  0  0
  8  9  1  0  0  0  0
  9  4  1  0  0  0  0
 10 11  1  0  0  0  0
 10  9  2  0  0  0  0
 12 10  1  0  0  0  0
 13 12  1  0  0  0  0
 14 16  2  0  0  0  0
 14 13  1  0  0  0  0
 15 14  1  0  0  0  0
 16 17  1  0  0  0  0
 17 12  2  0  0  0  0
 17 18  1  0  0  0  0
 18  8  2  0  0  0  0
 19 13  1  0  0  0  0
 20 21  1  0  0  0  0
 21 26  1  0  0  0  0
 21 22  2  0  0  0  0
 22 28  1  0  0  0  0
 23 22  1  0  0  0  0
 24 23  2  0  0  0  0
 25 20  2  0  0  0  0
 25 24  1  0  0  0  0
 27 24  1  0  0  0  0
 28 29  1  0  0  0  0
 28 31  1  0  0  0  0
 28 30  1  0  0  0  0
M  END
>  <minimizedAffinity>
-6.43952227

>  <minimizedRMSD>
1.37303555

$$$$
