
 OpenBabel03272509583D

 49 53  0  0  0  0  0  0  0  0999 V2000
   33.5450   27.5620   47.6570 C   0  0  0  0  0  0  0  0  0  0  0  0
   33.7430   27.3320   46.5720 H   0  0  0  0  0  0  0  0  0  0  0  0
   33.7770   26.6460   48.2020 H   0  0  0  0  0  0  0  0  0  0  0  0
   32.0960   27.8640   47.7980 C   0  0  0  0  0  0  0  0  0  0  0  0
   31.4430   27.4030   48.9290 C   0  0  0  0  0  0  0  0  0  0  0  0
   30.1040   27.6400   49.1350 C   0  0  0  0  0  0  0  0  0  0  0  0
   29.4130   28.3300   48.2270 N   0  0  0  0  0  0  0  0  0  0  0  0
   30.0640   28.7800   47.1160 C   0  0  0  0  0  0  0  0  0  0  0  0
   31.3720   28.5580   46.9000 N   0  0  0  0  0  0  0  0  0  0  0  0
   31.9980   26.8430   49.6680 H   0  0  0  0  0  0  0  0  0  0  0  0
   29.5610   27.2970   50.0060 H   0  0  0  0  0  0  0  0  0  0  0  0
   29.2710   29.5490   46.1160 C   0  0  0  0  0  0  0  0  0  0  0  0
   29.9990   30.1230   45.5040 H   0  0  0  0  0  0  0  0  0  0  0  0
   28.5920   30.2780   46.6010 H   0  0  0  0  0  0  0  0  0  0  0  0
   29.1400   27.6860   44.3820 C   0  0  0  0  0  3  0  0  0  0  0  0
   28.5340   28.6210   45.2160 C   0  0  0  0  0  0  0  0  0  0  0  0
   27.1400   28.6910   45.2050 C   0  0  0  0  0  0  0  0  0  0  0  0
   26.6560   29.4260   45.8610 H   0  0  0  0  0  0  0  0  0  0  0  0
   26.3650   27.8800   44.4140 C   0  0  0  0  0  0  0  0  0  0  0  0
   25.0520   27.7420   44.2150 N   0  0  0  0  0  0  0  0  0  0  0  0
   24.7840   26.7880   43.3170 C   0  0  0  0  0  0  0  0  0  0  0  0
   23.7750   26.5120   43.0070 H   0  0  0  0  0  0  0  0  0  0  0  0
   25.9850   26.2850   42.9140 N   0  0  0  0  0  0  0  0  0  0  0  0
   26.9640   26.9390   43.5740 C   0  0  0  0  0  0  0  0  0  0  0  0
   28.3430   26.8920   43.6040 C   0  0  0  0  0  3  0  0  0  0  0  0
   24.3670   28.3460   44.7380 H   0  0  0  0  0  0  0  0  0  0  0  0
   34.4180   28.6820   48.1470 C   0  0  0  0  0  0  0  0  0  0  0  0
   33.9350   29.6680   48.1500 H   0  0  0  0  0  0  0  0  0  0  0  0
   35.2720   28.7600   47.4420 H   0  0  0  0  0  0  0  0  0  0  0  0
   34.9830   28.3680   49.4110 O   0  0  0  0  0  0  0  0  0  0  0  0
   37.3200   30.1650   51.4970 C   0  0  0  0  0  0  0  0  0  0  0  0
   38.0510   30.8460   50.5020 C   0  0  0  0  0  0  0  0  0  0  0  0
   37.7020   30.6500   49.1790 C   0  0  0  0  0  0  0  0  0  0  0  0
   36.6580   29.7960   48.9530 N   0  0  0  0  0  0  0  0  0  0  0  0
   35.9710   29.1560   49.9010 C   0  0  0  0  0  0  0  0  0  0  0  0
   36.3140   29.3500   51.1850 N   0  0  0  0  0  0  0  0  0  0  0  0
   37.6190   30.3420   52.5190 H   0  0  0  0  0  0  0  0  0  0  0  0
   38.8670   31.5130   50.6750 H   0  0  0  0  0  0  0  0  0  0  0  0
   38.9250   33.2630   49.0070 F   0  0  0  0  0  0  0  0  0  0  0  0
   38.9140   32.4720   47.9350 C   0  0  0  0  0  0  0  0  0  0  0  0
   38.3410   31.2650   48.0370 C   0  0  0  0  0  0  0  0  0  0  0  0
   38.3840   30.5200   46.8590 C   0  0  0  0  0  0  0  0  0  0  0  0
   38.9570   30.9770   45.7070 C   0  0  0  0  0  0  0  0  0  0  0  0
   39.5310   32.2290   45.6590 C   0  0  0  0  0  0  0  0  0  0  0  0
   39.5010   32.9750   46.7990 C   0  0  0  0  0  0  0  0  0  0  0  0
   37.9610   29.5080   46.7710 H   0  0  0  0  0  0  0  0  0  0  0  0
   38.9910   30.3980   44.7870 H   0  0  0  0  0  0  0  0  0  0  0  0
   39.9890   32.5960   44.7390 H   0  0  0  0  0  0  0  0  0  0  0  0
   39.9490   33.9610   46.7770 H   0  0  0  0  0  0  0  0  0  0  0  0
  1  4  1  0  0  0  0
  1 27  1  0  0  0  0
  1  3  1  0  0  0  0
  2  1  1  0  0  0  0
  4  5  1  0  0  0  0
  5  6  2  0  0  0  0
  5 10  1  0  0  0  0
  6 11  1  0  0  0  0
  7  6  1  0  0  0  0
  8  7  2  0  0  0  0
  9  8  1  0  0  0  0
  9  4  2  0  0  0  0
 12 14  1  0  0  0  0
 12  8  1  0  0  0  0
 13 12  1  0  0  0  0
 15 16  1  0  0  0  0
 16 12  1  0  0  0  0
 17 16  2  0  0  0  0
 17 18  1  0  0  0  0
 19 17  1  0  0  0  0
 20 19  1  0  0  0  0
 20 26  1  0  0  0  0
 21 20  1  0  0  0  0
 22 21  1  0  0  0  0
 23 21  2  0  0  0  0
 23 24  1  0  0  0  0
 24 25  1  0  0  0  0
 24 19  2  0  0  0  0
 25 15  2  0  0  0  0
 27 28  1  0  0  0  0
 27 30  1  0  0  0  0
 29 27  1  0  0  0  0
 30 35  1  0  0  0  0
 31 37  1  0  0  0  0
 32 38  1  0  0  0  0
 32 31  2  0  0  0  0
 33 32  1  0  0  0  0
 34 33  2  0  0  0  0
 34 35  1  0  0  0  0
 35 36  2  0  0  0  0
 36 31  1  0  0  0  0
 40 41  1  0  0  0  0
 40 39  1  0  0  0  0
 41 33  1  0  0  0  0
 42 41  2  0  0  0  0
 43 42  1  0  0  0  0
 44 43  2  0  0  0  0
 44 45  1  0  0  0  0
 45 40  2  0  0  0  0
 46 42  1  0  0  0  0
 47 43  1  0  0  0  0
 48 44  1  0  0  0  0
 49 45  1  0  0  0  0
M  END
>  <minimizedAffinity>
-7.00931883

>  <minimizedRMSD>
0.503601789

$$$$
