
 OpenBabel03272510123D

 38 42  0  0  0  0  0  0  0  0999 V2000
   37.5370   26.8700   31.6490 O   0  0  0  0  0  0  0  0  0  0  0  0
   36.3780   22.8250   31.9080 C   0  0  0  0  0  0  0  0  0  0  0  0
   35.5310   23.7690   31.4440 C   0  0  0  0  0  0  0  0  0  0  0  0
   35.8400   25.1070   31.3310 C   0  0  0  0  0  0  0  0  0  0  0  0
   37.0640   25.5580   31.6970 C   0  0  0  0  0  0  0  0  0  0  0  0
   37.9500   24.5860   32.1800 C   0  0  0  0  0  0  0  0  0  0  0  0
   37.6020   23.2870   32.2720 N   0  0  0  0  0  0  0  0  0  0  0  0
   34.5320   23.4980   31.1290 H   0  0  0  0  0  0  0  0  0  0  0  0
   35.1490   25.8520   30.9560 H   0  0  0  0  0  0  0  0  0  0  0  0
   38.9520   24.8510   32.4980 H   0  0  0  0  0  0  0  0  0  0  0  0
   35.6620   20.8140   33.2260 C   0  0  0  0  0  0  0  0  0  0  0  0
   36.0660   21.4280   32.0290 C   0  0  0  0  0  0  0  0  0  0  0  0
   36.1500   20.5950   30.9460 C   0  0  0  0  0  0  0  0  0  0  0  0
   35.8590   19.2700   31.0340 N   0  0  0  0  0  0  0  0  0  0  0  0
   35.4730   18.7470   32.2330 C   0  0  0  0  0  0  0  0  0  0  0  0
   35.3700   19.5150   33.3430 N   0  0  0  0  0  0  0  0  0  0  0  0
   35.5800   21.4280   34.1120 H   0  0  0  0  0  0  0  0  0  0  0  0
   36.4570   21.0270   30.0070 H   0  0  0  0  0  0  0  0  0  0  0  0
   35.2280   17.7020   32.3700 H   0  0  0  0  0  0  0  0  0  0  0  0
   36.8250   27.9190   32.2080 C   0  0  0  0  0  0  0  0  0  0  0  0
   36.3700   28.8550   31.2740 C   0  0  0  0  0  0  0  0  0  0  0  0
   35.6740   29.8540   31.9510 C   0  0  0  0  0  0  0  0  0  0  0  0
   35.7340   29.4910   33.2400 N   0  0  0  0  0  0  0  0  0  0  0  0
   36.3960   28.3730   33.4020 N   0  0  0  0  0  0  0  0  0  0  0  0
   36.4420   28.9630   30.1790 H   0  0  0  0  0  0  0  0  0  0  0  0
   35.1730   30.7450   31.5950 H   0  0  0  0  0  0  0  0  0  0  0  0
   35.9450   30.8790   35.2430 C   0  0  0  0  0  3  0  0  0  0  0  0
   35.1520   30.2170   34.3240 C   0  0  0  0  0  0  0  0  0  0  0  0
   33.7560   30.2410   34.4320 C   0  0  0  0  0  0  0  0  0  0  0  0
   33.0960   29.7380   33.7380 H   0  0  0  0  0  0  0  0  0  0  0  0
   33.2350   30.9650   35.5120 C   0  0  0  0  0  0  0  0  0  0  0  0
   31.9460   31.1520   35.8520 N   0  0  0  0  0  0  0  0  0  0  0  0
   31.9740   31.9150   36.9570 C   0  0  0  0  0  0  0  0  0  0  0  0
   31.1590   32.3090   37.5720 H   0  0  0  0  0  0  0  0  0  0  0  0
   33.2180   32.2170   37.3280 N   0  0  0  0  0  0  0  0  0  0  0  0
   34.0370   31.6220   36.4210 C   0  0  0  0  0  0  0  0  0  0  0  0
   35.4030   31.5860   36.2970 C   0  0  0  0  0  3  0  0  0  0  0  0
   31.0630   30.8150   35.4080 H   0  0  0  0  0  0  0  0  0  0  0  0
  1  5  1  0  0  0  0
  1 20  1  0  0  0  0
  2 12  1  0  0  0  0
  2  7  1  0  0  0  0
  3  2  2  0  0  0  0
  4  3  1  0  0  0  0
  4  5  2  0  0  0  0
  5  6  1  0  0  0  0
  6  7  2  0  0  0  0
  6 10  1  0  0  0  0
  8  3  1  0  0  0  0
  9  4  1  0  0  0  0
 11 16  1  0  0  0  0
 11 17  1  0  0  0  0
 12 11  2  0  0  0  0
 13 14  2  0  0  0  0
 13 12  1  0  0  0  0
 14 15  1  0  0  0  0
 15 19  1  0  0  0  0
 15 16  2  0  0  0  0
 18 13  1  0  0  0  0
 20 24  2  0  0  0  0
 21 22  2  0  0  0  0
 21 20  1  0  0  0  0
 22 23  1  0  0  0  0
 23 24  1  0  0  0  0
 23 28  1  0  0  0  0
 25 21  1  0  0  0  0
 26 22  1  0  0  0  0
 27 37  1  0  0  0  0
 28 29  1  0  0  0  0
 28 27  2  0  0  0  0
 29 31  2  0  0  0  0
 30 29  1  0  0  0  0
 31 32  1  0  0  0  0
 31 36  1  0  0  0  0
 32 33  1  0  0  0  0
 33 35  2  0  0  0  0
 33 34  1  0  0  0  0
 36 35  1  0  0  0  0
 37 36  2  0  0  0  0
 38 32  1  0  0  0  0
M  END
>  <minimizedAffinity>
-6.27925587

$$$$

 OpenBabel03272510123D

 38 42  0  0  0  0  0  0  0  0999 V2000
   37.2580   27.2140   31.4670 O   0  0  0  0  0  0  0  0  0  0  0  0
   35.5260   29.9030   34.2140 C   0  0  0  0  0  0  0  0  0  0  0  0
   35.5400   30.1650   32.8890 C   0  0  0  0  0  0  0  0  0  0  0  0
   36.0860   29.3350   31.9350 C   0  0  0  0  0  0  0  0  0  0  0  0
   36.6620   28.1630   32.2980 C   0  0  0  0  0  0  0  0  0  0  0  0
   36.6520   27.8820   33.6710 C   0  0  0  0  0  0  0  0  0  0  0  0
   36.1050   28.7270   34.5670 N   0  0  0  0  0  0  0  0  0  0  0  0
   35.1020   31.0790   32.5090 H   0  0  0  0  0  0  0  0  0  0  0  0
   36.0890   29.5600   30.8750 H   0  0  0  0  0  0  0  0  0  0  0  0
   37.0900   26.9690   34.0580 H   0  0  0  0  0  0  0  0  0  0  0  0
   35.6950   31.7010   35.9550 C   0  0  0  0  0  0  0  0  0  0  0  0
   34.9580   30.7610   35.2160 C   0  0  0  0  0  0  0  0  0  0  0  0
   33.6220   30.7040   35.5120 C   0  0  0  0  0  0  0  0  0  0  0  0
   33.0600   31.5060   36.4550 N   0  0  0  0  0  0  0  0  0  0  0  0
   33.8440   32.3950   37.1320 C   0  0  0  0  0  0  0  0  0  0  0  0
   35.1710   32.5020   36.8880 N   0  0  0  0  0  0  0  0  0  0  0  0
   36.7550   31.7850   35.7600 H   0  0  0  0  0  0  0  0  0  0  0  0
   33.0200   29.9950   34.9660 H   0  0  0  0  0  0  0  0  0  0  0  0
   33.4580   33.0600   37.8930 H   0  0  0  0  0  0  0  0  0  0  0  0
   36.8120   25.9020   31.4270 C   0  0  0  0  0  0  0  0  0  0  0  0
   35.4930   25.7680   30.9810 C   0  0  0  0  0  0  0  0  0  0  0  0
   35.1590   24.4150   30.9840 C   0  0  0  0  0  0  0  0  0  0  0  0
   36.2660   23.7980   31.4230 N   0  0  0  0  0  0  0  0  0  0  0  0
   37.2280   24.6470   31.6820 N   0  0  0  0  0  0  0  0  0  0  0  0
   34.7080   26.4660   30.6470 H   0  0  0  0  0  0  0  0  0  0  0  0
   34.2470   23.9010   30.7120 H   0  0  0  0  0  0  0  0  0  0  0  0
   37.6510   21.7900   31.6000 C   0  0  0  0  0  3  0  0  0  0  0  0
   36.4040   22.3860   31.5940 C   0  0  0  0  0  0  0  0  0  0  0  0
   35.2420   21.6210   31.7550 C   0  0  0  0  0  0  0  0  0  0  0  0
   34.2470   22.0440   31.7560 H   0  0  0  0  0  0  0  0  0  0  0  0
   35.4310   20.2430   31.9180 C   0  0  0  0  0  0  0  0  0  0  0  0
   34.5010   19.2850   32.0890 N   0  0  0  0  0  0  0  0  0  0  0  0
   35.1880   18.1350   32.1970 C   0  0  0  0  0  0  0  0  0  0  0  0
   34.8390   17.1080   32.3450 H   0  0  0  0  0  0  0  0  0  0  0  0
   36.5030   18.3250   32.1000 N   0  0  0  0  0  0  0  0  0  0  0  0
   36.6800   19.6600   31.9230 C   0  0  0  0  0  0  0  0  0  0  0  0
   37.8060   20.4270   31.7640 C   0  0  0  0  0  3  0  0  0  0  0  0
   33.4590   19.3400   32.1400 H   0  0  0  0  0  0  0  0  0  0  0  0
  1  5  1  0  0  0  0
  2  7  1  0  0  0  0
  2 12  1  0  0  0  0
  3  2  2  0  0  0  0
  4  5  2  0  0  0  0
  4  3  1  0  0  0  0
  5  6  1  0  0  0  0
  6 10  1  0  0  0  0
  6  7  2  0  0  0  0
  8  3  1  0  0  0  0
  9  4  1  0  0  0  0
 11 16  1  0  0  0  0
 12 13  1  0  0  0  0
 12 11  2  0  0  0  0
 13 14  2  0  0  0  0
 14 15  1  0  0  0  0
 15 19  1  0  0  0  0
 16 15  2  0  0  0  0
 17 11  1  0  0  0  0
 18 13  1  0  0  0  0
 20  1  1  0  0  0  0
 20 24  2  0  0  0  0
 21 22  2  0  0  0  0
 21 20  1  0  0  0  0
 22 23  1  0  0  0  0
 23 28  1  0  0  0  0
 23 24  1  0  0  0  0
 25 21  1  0  0  0  0
 26 22  1  0  0  0  0
 27 37  1  0  0  0  0
 28 27  2  0  0  0  0
 28 29  1  0  0  0  0
 29 30  1  0  0  0  0
 29 31  2  0  0  0  0
 31 36  1  0  0  0  0
 31 32  1  0  0  0  0
 32 38  1  0  0  0  0
 32 33  1  0  0  0  0
 33 34  1  0  0  0  0
 35 33  2  0  0  0  0
 36 35  1  0  0  0  0
 37 36  2  0  0  0  0
M  END
>  <minimizedAffinity>
-6.25106764

$$$$

 OpenBabel03272510123D

 38 42  0  0  0  0  0  0  0  0999 V2000
   36.4390   26.9140   31.0580 O   0  0  0  0  0  0  0  0  0  0  0  0
   36.2640   22.7040   31.2060 C   0  0  0  0  0  0  0  0  0  0  0  0
   37.4170   23.3480   30.9270 C   0  0  0  0  0  0  0  0  0  0  0  0
   37.5500   24.7180   30.8620 C   0  0  0  0  0  0  0  0  0  0  0  0
   36.4790   25.5190   31.0850 C   0  0  0  0  0  0  0  0  0  0  0  0
   35.2780   24.8590   31.3750 C   0  0  0  0  0  0  0  0  0  0  0  0
   35.1980   23.5150   31.4270 N   0  0  0  0  0  0  0  0  0  0  0  0
   38.3230   22.7880   30.7360 H   0  0  0  0  0  0  0  0  0  0  0  0
   38.4830   25.2200   30.6380 H   0  0  0  0  0  0  0  0  0  0  0  0
   34.3670   25.4150   31.5670 H   0  0  0  0  0  0  0  0  0  0  0  0
   36.9610   20.3660   30.6210 C   0  0  0  0  0  0  0  0  0  0  0  0
   36.1160   21.2770   31.2770 C   0  0  0  0  0  0  0  0  0  0  0  0
   35.1090   20.7130   32.0120 C   0  0  0  0  0  0  0  0  0  0  0  0
   34.9480   19.3650   32.0960 N   0  0  0  0  0  0  0  0  0  0  0  0
   35.8100   18.5450   31.4290 C   0  0  0  0  0  0  0  0  0  0  0  0
   36.8270   19.0370   30.6840 N   0  0  0  0  0  0  0  0  0  0  0  0
   37.7720   20.7600   30.0260 H   0  0  0  0  0  0  0  0  0  0  0  0
   34.4380   21.3780   32.5320 H   0  0  0  0  0  0  0  0  0  0  0  0
   35.7370   17.4650   31.4560 H   0  0  0  0  0  0  0  0  0  0  0  0
   36.1640   27.6540   32.1970 C   0  0  0  0  0  0  0  0  0  0  0  0
   37.0580   27.4250   33.2480 C   0  0  0  0  0  0  0  0  0  0  0  0
   36.6810   28.2190   34.3300 C   0  0  0  0  0  0  0  0  0  0  0  0
   35.5980   28.8820   33.8990 N   0  0  0  0  0  0  0  0  0  0  0  0
   35.2900   28.5640   32.6670 N   0  0  0  0  0  0  0  0  0  0  0  0
   37.9450   26.7880   33.3930 H   0  0  0  0  0  0  0  0  0  0  0  0
   37.1080   28.3330   35.3170 H   0  0  0  0  0  0  0  0  0  0  0  0
   33.4810   29.7280   34.7830 C   0  0  0  0  0  3  0  0  0  0  0  0
   34.8550   29.8270   34.6710 C   0  0  0  0  0  0  0  0  0  0  0  0
   35.5550   30.8560   35.3120 C   0  0  0  0  0  0  0  0  0  0  0  0
   36.6280   30.9730   35.2530 H   0  0  0  0  0  0  0  0  0  0  0  0
   34.7810   31.7560   36.0550 C   0  0  0  0  0  0  0  0  0  0  0  0
   35.1890   32.8260   36.7620 N   0  0  0  0  0  0  0  0  0  0  0  0
   34.0710   33.3550   37.2880 C   0  0  0  0  0  0  0  0  0  0  0  0
   33.9300   34.2310   37.9300 H   0  0  0  0  0  0  0  0  0  0  0  0
   32.9810   32.6690   36.9440 N   0  0  0  0  0  0  0  0  0  0  0  0
   33.4110   31.6470   36.1590 C   0  0  0  0  0  0  0  0  0  0  0  0
   32.7430   30.6310   35.5240 C   0  0  0  0  0  3  0  0  0  0  0  0
   36.1420   33.2230   36.9200 H   0  0  0  0  0  0  0  0  0  0  0  0
  1  5  1  0  0  0  0
  1 20  1  0  0  0  0
  2 12  1  0  0  0  0
  2  7  1  0  0  0  0
  3  2  2  0  0  0  0
  4  3  1  0  0  0  0
  4  5  2  0  0  0  0
  5  6  1  0  0  0  0
  6  7  2  0  0  0  0
  6 10  1  0  0  0  0
  8  3  1  0  0  0  0
  9  4  1  0  0  0  0
 11 16  2  0  0  0  0
 11 12  1  0  0  0  0
 12 13  2  0  0  0  0
 13 14  1  0  0  0  0
 13 18  1  0  0  0  0
 15 19  1  0  0  0  0
 15 14  2  0  0  0  0
 16 15  1  0  0  0  0
 17 11  1  0  0  0  0
 20 24  2  0  0  0  0
 20 21  1  0  0  0  0
 21 25  1  0  0  0  0
 21 22  2  0  0  0  0
 22 26  1  0  0  0  0
 23 22  1  0  0  0  0
 23 28  1  0  0  0  0
 24 23  1  0  0  0  0
 27 37  1  0  0  0  0
 28 27  2  0  0  0  0
 28 29  1  0  0  0  0
 29 31  2  0  0  0  0
 30 29  1  0  0  0  0
 31 36  1  0  0  0  0
 31 32  1  0  0  0  0
 32 38  1  0  0  0  0
 32 33  1  0  0  0  0
 33 34  1  0  0  0  0
 35 33  2  0  0  0  0
 36 35  1  0  0  0  0
 37 36  2  0  0  0  0
M  END
>  <minimizedAffinity>
-6.01896524

$$$$

 OpenBabel03272510123D

 38 42  0  0  0  0  0  0  0  0999 V2000
   35.7460   28.5290   33.3770 O   0  0  0  0  0  0  0  0  0  0  0  0
   34.3160   31.6970   35.7630 C   0  0  0  0  0  0  0  0  0  0  0  0
   35.6020   31.2920   35.8320 C   0  0  0  0  0  0  0  0  0  0  0  0
   36.1390   30.2670   35.0840 C   0  0  0  0  0  0  0  0  0  0  0  0
   35.3650   29.5860   34.2050 C   0  0  0  0  0  0  0  0  0  0  0  0
   34.0290   29.9990   34.1260 C   0  0  0  0  0  0  0  0  0  0  0  0
   33.5490   31.0080   34.8790 N   0  0  0  0  0  0  0  0  0  0  0  0
   36.2920   31.7800   36.5080 H   0  0  0  0  0  0  0  0  0  0  0  0
   37.1740   29.9540   35.1510 H   0  0  0  0  0  0  0  0  0  0  0  0
   33.3320   29.5130   33.4510 H   0  0  0  0  0  0  0  0  0  0  0  0
   34.4900   33.6010   37.3870 C   0  0  0  0  0  0  0  0  0  0  0  0
   33.7470   32.7640   36.5370 C   0  0  0  0  0  0  0  0  0  0  0  0
   32.4050   33.0290   36.4860 C   0  0  0  0  0  0  0  0  0  0  0  0
   31.8420   34.0340   37.2080 N   0  0  0  0  0  0  0  0  0  0  0  0
   32.6310   34.8050   38.0120 C   0  0  0  0  0  0  0  0  0  0  0  0
   33.9650   34.5960   38.1090 N   0  0  0  0  0  0  0  0  0  0  0  0
   35.5550   33.4340   37.4640 H   0  0  0  0  0  0  0  0  0  0  0  0
   31.7980   32.4090   35.8460 H   0  0  0  0  0  0  0  0  0  0  0  0
   32.2460   35.6190   38.6110 H   0  0  0  0  0  0  0  0  0  0  0  0
   36.6910   27.5980   33.7770 C   0  0  0  0  0  0  0  0  0  0  0  0
   37.7830   27.4930   32.9090 C   0  0  0  0  0  0  0  0  0  0  0  0
   38.6590   26.5330   33.4130 C   0  0  0  0  0  0  0  0  0  0  0  0
   38.0750   26.1050   34.5420 N   0  0  0  0  0  0  0  0  0  0  0  0
   36.9370   26.7140   34.7630 N   0  0  0  0  0  0  0  0  0  0  0  0
   38.0790   27.9800   31.9660 H   0  0  0  0  0  0  0  0  0  0  0  0
   39.6060   26.1630   33.0440 H   0  0  0  0  0  0  0  0  0  0  0  0
   37.9520   24.7570   36.5780 C   0  0  0  0  0  3  0  0  0  0  0  0
   38.6100   25.1090   35.4150 C   0  0  0  0  0  0  0  0  0  0  0  0
   39.8190   24.4980   35.0610 C   0  0  0  0  0  0  0  0  0  0  0  0
   40.3680   24.7410   34.1620 H   0  0  0  0  0  0  0  0  0  0  0  0
   40.3010   23.5290   35.9500 C   0  0  0  0  0  0  0  0  0  0  0  0
   41.4260   22.7950   35.8590 N   0  0  0  0  0  0  0  0  0  0  0  0
   41.4340   22.0160   36.9530 C   0  0  0  0  0  0  0  0  0  0  0  0
   42.1580   21.2650   37.2890 H   0  0  0  0  0  0  0  0  0  0  0  0
   40.3700   22.2260   37.7280 N   0  0  0  0  0  0  0  0  0  0  0  0
   39.6360   23.1860   37.1070 C   0  0  0  0  0  0  0  0  0  0  0  0
   38.4520   23.7960   37.4360 C   0  0  0  0  0  3  0  0  0  0  0  0
   42.1750   22.7730   35.1310 H   0  0  0  0  0  0  0  0  0  0  0  0
  1 20  1  0  0  0  0
  1  5  1  0  0  0  0
  2  3  1  0  0  0  0
  2 12  1  0  0  0  0
  3  8  1  0  0  0  0
  4  9  1  0  0  0  0
  4  3  2  0  0  0  0
  5  4  1  0  0  0  0
  6  5  2  0  0  0  0
  6  7  1  0  0  0  0
  7  2  2  0  0  0  0
 10  6  1  0  0  0  0
 11 17  1  0  0  0  0
 11 16  1  0  0  0  0
 12 11  2  0  0  0  0
 13 12  1  0  0  0  0
 13 14  2  0  0  0  0
 14 15  1  0  0  0  0
 15 16  2  0  0  0  0
 15 19  1  0  0  0  0
 18 13  1  0  0  0  0
 20 24  2  0  0  0  0
 21 22  2  0  0  0  0
 21 20  1  0  0  0  0
 22 23  1  0  0  0  0
 23 24  1  0  0  0  0
 23 28  1  0  0  0  0
 25 21  1  0  0  0  0
 26 22  1  0  0  0  0
 27 37  1  0  0  0  0
 28 27  2  0  0  0  0
 29 28  1  0  0  0  0
 29 31  2  0  0  0  0
 30 29  1  0  0  0  0
 31 36  1  0  0  0  0
 32 31  1  0  0  0  0
 32 33  1  0  0  0  0
 33 34  1  0  0  0  0
 33 35  2  0  0  0  0
 36 37  2  0  0  0  0
 36 35  1  0  0  0  0
 38 32  1  0  0  0  0
M  END
>  <minimizedAffinity>
-5.9754467

$$$$

 OpenBabel03272510123D

 38 42  0  0  0  0  0  0  0  0999 V2000
   37.0490   26.7550   35.2840 O   0  0  0  0  0  0  0  0  0  0  0  0
   39.9430   23.7400   35.8400 C   0  0  0  0  0  0  0  0  0  0  0  0
   40.1940   24.8190   35.0670 C   0  0  0  0  0  0  0  0  0  0  0  0
   39.2980   25.8420   34.8410 C   0  0  0  0  0  0  0  0  0  0  0  0
   38.0690   25.8100   35.4090 C   0  0  0  0  0  0  0  0  0  0  0  0
   37.8000   24.6940   36.2130 C   0  0  0  0  0  0  0  0  0  0  0  0
   38.7090   23.7180   36.4040 N   0  0  0  0  0  0  0  0  0  0  0  0
   41.1510   24.9270   34.5740 H   0  0  0  0  0  0  0  0  0  0  0  0
   39.5150   26.7010   34.2180 H   0  0  0  0  0  0  0  0  0  0  0  0
   36.8420   24.5800   36.7080 H   0  0  0  0  0  0  0  0  0  0  0  0
   41.0510   22.0550   37.3330 C   0  0  0  0  0  0  0  0  0  0  0  0
   40.8700   22.6700   36.0820 C   0  0  0  0  0  0  0  0  0  0  0  0
   41.6520   22.1780   35.0720 C   0  0  0  0  0  0  0  0  0  0  0  0
   42.5360   21.1650   35.2760 N   0  0  0  0  0  0  0  0  0  0  0  0
   42.6540   20.6190   36.5200 C   0  0  0  0  0  0  0  0  0  0  0  0
   41.9110   21.0590   37.5630 N   0  0  0  0  0  0  0  0  0  0  0  0
   40.4570   22.4080   38.1650 H   0  0  0  0  0  0  0  0  0  0  0  0
   41.5440   22.6220   34.0960 H   0  0  0  0  0  0  0  0  0  0  0  0
   43.3380   19.8110   36.7480 H   0  0  0  0  0  0  0  0  0  0  0  0
   36.9240   27.5420   34.1510 C   0  0  0  0  0  0  0  0  0  0  0  0
   35.9340   28.5250   34.2510 C   0  0  0  0  0  0  0  0  0  0  0  0
   35.9030   29.2460   33.0600 C   0  0  0  0  0  0  0  0  0  0  0  0
   36.8550   28.6830   32.3010 N   0  0  0  0  0  0  0  0  0  0  0  0
   37.4520   27.6970   32.9210 N   0  0  0  0  0  0  0  0  0  0  0  0
   35.2160   28.8320   35.0290 H   0  0  0  0  0  0  0  0  0  0  0  0
   35.2890   30.0780   32.7410 H   0  0  0  0  0  0  0  0  0  0  0  0
   37.9950   28.3020   30.1720 C   0  0  0  0  0  3  0  0  0  0  0  0
   37.1950   29.0920   30.9750 C   0  0  0  0  0  0  0  0  0  0  0  0
   36.6980   30.3160   30.5110 C   0  0  0  0  0  0  0  0  0  0  0  0
   36.0690   30.9670   31.1040 H   0  0  0  0  0  0  0  0  0  0  0  0
   37.0610   30.6720   29.2060 C   0  0  0  0  0  0  0  0  0  0  0  0
   36.7280   31.7790   28.5170 N   0  0  0  0  0  0  0  0  0  0  0  0
   37.3220   31.6470   27.3190 C   0  0  0  0  0  0  0  0  0  0  0  0
   37.3230   32.3090   26.4460 H   0  0  0  0  0  0  0  0  0  0  0  0
   38.0120   30.5110   27.2230 N   0  0  0  0  0  0  0  0  0  0  0  0
   37.8590   29.8750   28.4140 C   0  0  0  0  0  0  0  0  0  0  0  0
   38.3360   28.6790   28.8870 C   0  0  0  0  0  3  0  0  0  0  0  0
   36.1420   32.6030   28.7800 H   0  0  0  0  0  0  0  0  0  0  0  0
  1  5  1  0  0  0  0
  2 12  1  0  0  0  0
  2  7  1  0  0  0  0
  3  2  2  0  0  0  0
  4  3  1  0  0  0  0
  4  5  2  0  0  0  0
  5  6  1  0  0  0  0
  6  7  2  0  0  0  0
  6 10  1  0  0  0  0
  8  3  1  0  0  0  0
  9  4  1  0  0  0  0
 11 16  1  0  0  0  0
 11 17  1  0  0  0  0
 12 11  2  0  0  0  0
 13 14  2  0  0  0  0
 13 12  1  0  0  0  0
 14 15  1  0  0  0  0
 15 19  1  0  0  0  0
 15 16  2  0  0  0  0
 18 13  1  0  0  0  0
 20 21  1  0  0  0  0
 20  1  1  0  0  0  0
 21 25  1  0  0  0  0
 22 21  2  0  0  0  0
 23 24  1  0  0  0  0
 23 22  1  0  0  0  0
 24 20  2  0  0  0  0
 26 22  1  0  0  0  0
 27 28  1  0  0  0  0
 28 23  1  0  0  0  0
 29 28  2  0  0  0  0
 29 30  1  0  0  0  0
 31 29  1  0  0  0  0
 32 38  1  0  0  0  0
 32 31  1  0  0  0  0
 33 32  1  0  0  0  0
 34 33  1  0  0  0  0
 35 33  2  0  0  0  0
 35 36  1  0  0  0  0
 36 37  1  0  0  0  0
 36 31  2  0  0  0  0
 37 27  2  0  0  0  0
M  END
>  <minimizedAffinity>
-5.6943922

$$$$

 OpenBabel03272510123D

 38 42  0  0  0  0  0  0  0  0999 V2000
   36.2870   27.1510   32.6410 O   0  0  0  0  0  0  0  0  0  0  0  0
   37.8800   29.0760   29.2460 C   0  0  0  0  0  0  0  0  0  0  0  0
   38.4060   27.9220   29.7090 C   0  0  0  0  0  0  0  0  0  0  0  0
   37.9390   27.2380   30.8100 C   0  0  0  0  0  0  0  0  0  0  0  0
   36.8810   27.7130   31.5110 C   0  0  0  0  0  0  0  0  0  0  0  0
   36.3290   28.9100   31.0380 C   0  0  0  0  0  0  0  0  0  0  0  0
   36.8210   29.5440   29.9550 N   0  0  0  0  0  0  0  0  0  0  0  0
   39.2540   27.4700   29.2100 H   0  0  0  0  0  0  0  0  0  0  0  0
   38.3730   26.3120   31.1690 H   0  0  0  0  0  0  0  0  0  0  0  0
   35.4800   29.3690   31.5340 H   0  0  0  0  0  0  0  0  0  0  0  0
   39.4750   29.4100   27.3380 C   0  0  0  0  0  0  0  0  0  0  0  0
   38.3590   29.7960   28.0990 C   0  0  0  0  0  0  0  0  0  0  0  0
   37.7310   30.9370   27.6760 C   0  0  0  0  0  0  0  0  0  0  0  0
   38.1640   31.6360   26.5930 N   0  0  0  0  0  0  0  0  0  0  0  0
   39.2570   31.1960   25.9040 C   0  0  0  0  0  0  0  0  0  0  0  0
   39.9240   30.0770   26.2700 N   0  0  0  0  0  0  0  0  0  0  0  0
   40.0070   28.5160   27.6320 H   0  0  0  0  0  0  0  0  0  0  0  0
   36.8700   31.2680   28.2320 H   0  0  0  0  0  0  0  0  0  0  0  0
   39.6510   31.7070   25.0350 H   0  0  0  0  0  0  0  0  0  0  0  0
   37.0460   26.6370   33.6800 C   0  0  0  0  0  0  0  0  0  0  0  0
   37.3640   27.5770   34.6660 C   0  0  0  0  0  0  0  0  0  0  0  0
   38.1240   26.9490   35.6500 C   0  0  0  0  0  0  0  0  0  0  0  0
   38.2340   25.6800   35.2300 N   0  0  0  0  0  0  0  0  0  0  0  0
   37.6150   25.4880   34.0920 N   0  0  0  0  0  0  0  0  0  0  0  0
   37.1520   28.6480   34.8200 H   0  0  0  0  0  0  0  0  0  0  0  0
   38.5600   27.3220   36.5670 H   0  0  0  0  0  0  0  0  0  0  0  0
   38.4390   24.1160   37.0990 C   0  0  0  0  0  3  0  0  0  0  0  0
   38.9350   24.6450   35.9220 C   0  0  0  0  0  0  0  0  0  0  0  0
   40.1380   24.1810   35.3780 C   0  0  0  0  0  0  0  0  0  0  0  0
   40.5640   24.5650   34.4610 H   0  0  0  0  0  0  0  0  0  0  0  0
   40.7860   23.1670   36.0940 C   0  0  0  0  0  0  0  0  0  0  0  0
   41.9440   22.5450   35.8040 N   0  0  0  0  0  0  0  0  0  0  0  0
   42.1330   21.6580   36.7950 C   0  0  0  0  0  0  0  0  0  0  0  0
   42.9420   20.9400   36.9650 H   0  0  0  0  0  0  0  0  0  0  0  0
   41.1490   21.6930   37.6940 N   0  0  0  0  0  0  0  0  0  0  0  0
   40.2820   22.6470   37.2660 C   0  0  0  0  0  0  0  0  0  0  0  0
   39.1000   23.1160   37.7840 C   0  0  0  0  0  3  0  0  0  0  0  0
   42.6080   22.6650   35.0060 H   0  0  0  0  0  0  0  0  0  0  0  0
  1 20  1  0  0  0  0
  2  3  2  0  0  0  0
  2  7  1  0  0  0  0
  3  4  1  0  0  0  0
  4  9  1  0  0  0  0
  4  5  2  0  0  0  0
  5  1  1  0  0  0  0
  6  5  1  0  0  0  0
  6 10  1  0  0  0  0
  7  6  2  0  0  0  0
  8  3  1  0  0  0  0
 11 17  1  0  0  0  0
 11 12  1  0  0  0  0
 12  2  1  0  0  0  0
 13 12  2  0  0  0  0
 13 18  1  0  0  0  0
 14 13  1  0  0  0  0
 15 16  1  0  0  0  0
 15 14  2  0  0  0  0
 16 11  2  0  0  0  0
 19 15  1  0  0  0  0
 20 24  2  0  0  0  0
 20 21  1  0  0  0  0
 21 25  1  0  0  0  0
 21 22  2  0  0  0  0
 22 26  1  0  0  0  0
 23 22  1  0  0  0  0
 23 28  1  0  0  0  0
 24 23  1  0  0  0  0
 27 37  1  0  0  0  0
 28 27  2  0  0  0  0
 29 28  1  0  0  0  0
 29 31  2  0  0  0  0
 30 29  1  0  0  0  0
 31 36  1  0  0  0  0
 32 31  1  0  0  0  0
 32 33  1  0  0  0  0
 33 34  1  0  0  0  0
 33 35  2  0  0  0  0
 36 35  1  0  0  0  0
 36 37  2  0  0  0  0
 38 32  1  0  0  0  0
M  END
>  <minimizedAffinity>
-5.67160225

$$$$

 OpenBabel03272510123D

 38 42  0  0  0  0  0  0  0  0999 V2000
   37.4990   26.8950   32.2100 O   0  0  0  0  0  0  0  0  0  0  0  0
   39.8190   24.4150   34.7090 C   0  0  0  0  0  0  0  0  0  0  0  0
   40.2950   25.5940   34.2540 C   0  0  0  0  0  0  0  0  0  0  0  0
   39.5960   26.4550   33.4360 C   0  0  0  0  0  0  0  0  0  0  0  0
   38.3400   26.1430   33.0320 C   0  0  0  0  0  0  0  0  0  0  0  0
   37.8380   24.9220   33.5000 C   0  0  0  0  0  0  0  0  0  0  0  0
   38.5610   24.1130   34.2990 N   0  0  0  0  0  0  0  0  0  0  0  0
   41.2900   25.9220   34.5260 H   0  0  0  0  0  0  0  0  0  0  0  0
   39.9920   27.3980   33.0790 H   0  0  0  0  0  0  0  0  0  0  0  0
   36.8420   24.5860   33.2290 H   0  0  0  0  0  0  0  0  0  0  0  0
   39.9290   22.6470   36.4860 C   0  0  0  0  0  0  0  0  0  0  0  0
   40.5400   23.5120   35.5620 C   0  0  0  0  0  0  0  0  0  0  0  0
   41.9070   23.4460   35.5170 C   0  0  0  0  0  0  0  0  0  0  0  0
   42.6120   22.5990   36.3130 N   0  0  0  0  0  0  0  0  0  0  0  0
   41.9460   21.7890   37.1860 C   0  0  0  0  0  0  0  0  0  0  0  0
   40.5960   21.8040   37.2810 N   0  0  0  0  0  0  0  0  0  0  0  0
   38.8510   22.6600   36.5600 H   0  0  0  0  0  0  0  0  0  0  0  0
   42.4150   24.0940   34.8210 H   0  0  0  0  0  0  0  0  0  0  0  0
   42.4480   21.0930   37.8460 H   0  0  0  0  0  0  0  0  0  0  0  0
   36.8330   28.0140   32.6840 C   0  0  0  0  0  0  0  0  0  0  0  0
   36.6390   29.0070   31.7180 C   0  0  0  0  0  0  0  0  0  0  0  0
   35.9650   30.0740   32.3080 C   0  0  0  0  0  0  0  0  0  0  0  0
   35.7820   29.6920   33.5800 N   0  0  0  0  0  0  0  0  0  0  0  0
   36.2790   28.5030   33.8100 N   0  0  0  0  0  0  0  0  0  0  0  0
   36.8920   29.1170   30.6510 H   0  0  0  0  0  0  0  0  0  0  0  0
   35.6310   31.0210   31.9060 H   0  0  0  0  0  0  0  0  0  0  0  0
   35.8480   31.1120   35.5710 C   0  0  0  0  0  3  0  0  0  0  0  0
   35.1250   30.4710   34.5830 C   0  0  0  0  0  0  0  0  0  0  0  0
   33.7290   30.5660   34.5390 C   0  0  0  0  0  0  0  0  0  0  0  0
   33.1220   30.0810   33.7860 H   0  0  0  0  0  0  0  0  0  0  0  0
   33.1330   31.3390   35.5440 C   0  0  0  0  0  0  0  0  0  0  0  0
   31.8270   31.5960   35.7390 N   0  0  0  0  0  0  0  0  0  0  0  0
   31.7750   32.3820   36.8280 C   0  0  0  0  0  0  0  0  0  0  0  0
   30.9190   32.8290   37.3440 H   0  0  0  0  0  0  0  0  0  0  0  0
   32.9860   32.6290   37.3260 N   0  0  0  0  0  0  0  0  0  0  0  0
   33.8650   31.9750   36.5230 C   0  0  0  0  0  0  0  0  0  0  0  0
   35.2330   31.8690   36.5490 C   0  0  0  0  0  3  0  0  0  0  0  0
   30.9800   31.2930   35.2080 H   0  0  0  0  0  0  0  0  0  0  0  0
  1 20  1  0  0  0  0
  1  5  1  0  0  0  0
  2 12  1  0  0  0  0
  3  8  1  0  0  0  0
  3  2  2  0  0  0  0
  4  3  1  0  0  0  0
  5  4  2  0  0  0  0
  5  6  1  0  0  0  0
  6  7  2  0  0  0  0
  7  2  1  0  0  0  0
  9  4  1  0  0  0  0
 10  6  1  0  0  0  0
 11 17  1  0  0  0  0
 11 16  1  0  0  0  0
 12 11  2  0  0  0  0
 13 12  1  0  0  0  0
 13 14  2  0  0  0  0
 14 15  1  0  0  0  0
 15 16  2  0  0  0  0
 15 19  1  0  0  0  0
 18 13  1  0  0  0  0
 20 24  2  0  0  0  0
 21 22  2  0  0  0  0
 21 20  1  0  0  0  0
 22 23  1  0  0  0  0
 23 24  1  0  0  0  0
 23 28  1  0  0  0  0
 25 21  1  0  0  0  0
 26 22  1  0  0  0  0
 27 37  1  0  0  0  0
 28 27  2  0  0  0  0
 29 28  1  0  0  0  0
 29 31  2  0  0  0  0
 30 29  1  0  0  0  0
 31 32  1  0  0  0  0
 31 36  1  0  0  0  0
 32 33  1  0  0  0  0
 33 35  2  0  0  0  0
 33 34  1  0  0  0  0
 36 37  2  0  0  0  0
 36 35  1  0  0  0  0
 38 32  1  0  0  0  0
M  END
>  <minimizedAffinity>
-5.64763927

$$$$

 OpenBabel03272510123D

 38 42  0  0  0  0  0  0  0  0999 V2000
   36.1390   27.7010   31.8710 O   0  0  0  0  0  0  0  0  0  0  0  0
   35.4530   31.1380   34.2160 C   0  0  0  0  0  0  0  0  0  0  0  0
   35.7580   31.2330   32.9040 C   0  0  0  0  0  0  0  0  0  0  0  0
   35.9950   30.1570   32.0770 C   0  0  0  0  0  0  0  0  0  0  0  0
   35.9290   28.8940   32.5650 C   0  0  0  0  0  0  0  0  0  0  0  0
   35.6130   28.7850   33.9250 C   0  0  0  0  0  0  0  0  0  0  0  0
   35.3900   29.8690   34.6940 N   0  0  0  0  0  0  0  0  0  0  0  0
   35.8320   32.2040   32.4300 H   0  0  0  0  0  0  0  0  0  0  0  0
   36.2380   30.2500   31.0250 H   0  0  0  0  0  0  0  0  0  0  0  0
   35.5390   27.8160   34.4060 H   0  0  0  0  0  0  0  0  0  0  0  0
   34.9420   32.1350   36.4610 C   0  0  0  0  0  0  0  0  0  0  0  0
   35.2050   32.2530   35.0850 C   0  0  0  0  0  0  0  0  0  0  0  0
   35.2110   33.5340   34.6010 C   0  0  0  0  0  0  0  0  0  0  0  0
   34.9790   34.6070   35.4030 N   0  0  0  0  0  0  0  0  0  0  0  0
   34.7320   34.4100   36.7310 C   0  0  0  0  0  0  0  0  0  0  0  0
   34.7110   33.1700   37.2740 N   0  0  0  0  0  0  0  0  0  0  0  0
   34.9260   31.1440   36.8930 H   0  0  0  0  0  0  0  0  0  0  0  0
   35.4080   33.6690   33.5500 H   0  0  0  0  0  0  0  0  0  0  0  0
   34.5400   35.2210   37.4220 H   0  0  0  0  0  0  0  0  0  0  0  0
   36.8500   26.6520   32.4320 C   0  0  0  0  0  0  0  0  0  0  0  0
   36.4460   25.3910   31.9800 C   0  0  0  0  0  0  0  0  0  0  0  0
   37.2260   24.4240   32.6110 C   0  0  0  0  0  0  0  0  0  0  0  0
   38.0530   25.1230   33.4020 N   0  0  0  0  0  0  0  0  0  0  0  0
   37.8450   26.4120   33.3070 N   0  0  0  0  0  0  0  0  0  0  0  0
   35.6860   25.0230   31.2720 H   0  0  0  0  0  0  0  0  0  0  0  0
   37.2290   23.3450   32.5350 H   0  0  0  0  0  0  0  0  0  0  0  0
   40.3720   24.9430   34.1580 C   0  0  0  0  0  3  0  0  0  0  0  0
   39.0490   24.5530   34.2530 C   0  0  0  0  0  0  0  0  0  0  0  0
   38.6510   23.5880   35.1860 C   0  0  0  0  0  0  0  0  0  0  0  0
   37.6290   23.2510   35.2950 H   0  0  0  0  0  0  0  0  0  0  0  0
   39.6650   23.0600   35.9950 C   0  0  0  0  0  0  0  0  0  0  0  0
   39.5650   22.1290   36.9630 N   0  0  0  0  0  0  0  0  0  0  0  0
   40.8120   21.9700   37.4370 C   0  0  0  0  0  0  0  0  0  0  0  0
   41.1970   21.3170   38.2270 H   0  0  0  0  0  0  0  0  0  0  0  0
   41.6900   22.7550   36.8130 N   0  0  0  0  0  0  0  0  0  0  0  0
   40.9800   23.4580   35.8920 C   0  0  0  0  0  0  0  0  0  0  0  0
   41.3500   24.4050   34.9710 C   0  0  0  0  0  3  0  0  0  0  0  0
   38.7400   21.6010   37.3260 H   0  0  0  0  0  0  0  0  0  0  0  0
  1 20  1  0  0  0  0
  1  5  1  0  0  0  0
  2  7  1  0  0  0  0
  2 12  1  0  0  0  0
  3  2  2  0  0  0  0
  4  5  2  0  0  0  0
  4  3  1  0  0  0  0
  5  6  1  0  0  0  0
  6 10  1  0  0  0  0
  6  7  2  0  0  0  0
  8  3  1  0  0  0  0
  9  4  1  0  0  0  0
 11 17  1  0  0  0  0
 11 16  1  0  0  0  0
 12 11  2  0  0  0  0
 13 12  1  0  0  0  0
 13 14  2  0  0  0  0
 14 15  1  0  0  0  0
 15 16  2  0  0  0  0
 15 19  1  0  0  0  0
 18 13  1  0  0  0  0
 20 24  2  0  0  0  0
 21 20  1  0  0  0  0
 21 22  2  0  0  0  0
 22 23  1  0  0  0  0
 23 28  1  0  0  0  0
 24 23  1  0  0  0  0
 25 21  1  0  0  0  0
 26 22  1  0  0  0  0
 27 28  2  0  0  0  0
 27 37  1  0  0  0  0
 28 29  1  0  0  0  0
 29 30  1  0  0  0  0
 29 31  2  0  0  0  0
 31 32  1  0  0  0  0
 32 38  1  0  0  0  0
 32 33  1  0  0  0  0
 33 34  1  0  0  0  0
 35 33  2  0  0  0  0
 36 31  1  0  0  0  0
 36 35  1  0  0  0  0
 37 36  2  0  0  0  0
M  END
>  <minimizedAffinity>
-5.64316511

$$$$

 OpenBabel03272510123D

 38 42  0  0  0  0  0  0  0  0999 V2000
   35.9190   29.1620   32.5440 O   0  0  0  0  0  0  0  0  0  0  0  0
   34.8380   32.2770   35.1710 C   0  0  0  0  0  0  0  0  0  0  0  0
   34.4930   30.9960   35.4230 C   0  0  0  0  0  0  0  0  0  0  0  0
   34.8110   29.9280   34.6120 C   0  0  0  0  0  0  0  0  0  0  0  0
   35.5170   30.1240   33.4720 C   0  0  0  0  0  0  0  0  0  0  0  0
   35.8790   31.4500   33.2020 C   0  0  0  0  0  0  0  0  0  0  0  0
   35.5450   32.4620   34.0270 N   0  0  0  0  0  0  0  0  0  0  0  0
   33.9270   30.7470   36.3120 H   0  0  0  0  0  0  0  0  0  0  0  0
   34.5260   28.9050   34.8280 H   0  0  0  0  0  0  0  0  0  0  0  0
   36.4450   31.7050   32.3130 H   0  0  0  0  0  0  0  0  0  0  0  0
   34.1290   33.2830   37.3570 C   0  0  0  0  0  0  0  0  0  0  0  0
   34.5120   33.3960   36.0100 C   0  0  0  0  0  0  0  0  0  0  0  0
   34.5580   34.6740   35.5230 C   0  0  0  0  0  0  0  0  0  0  0  0
   34.2550   35.7500   36.2970 N   0  0  0  0  0  0  0  0  0  0  0  0
   33.8920   35.5590   37.5980 C   0  0  0  0  0  0  0  0  0  0  0  0
   33.8250   34.3210   38.1420 N   0  0  0  0  0  0  0  0  0  0  0  0
   34.0760   32.2940   37.7910 H   0  0  0  0  0  0  0  0  0  0  0  0
   34.8480   34.8050   34.4930 H   0  0  0  0  0  0  0  0  0  0  0  0
   33.6390   36.3720   38.2650 H   0  0  0  0  0  0  0  0  0  0  0  0
   36.4690   27.9540   32.9430 C   0  0  0  0  0  0  0  0  0  0  0  0
   36.4420   26.9660   31.9540 C   0  0  0  0  0  0  0  0  0  0  0  0
   37.0170   25.8070   32.4700 C   0  0  0  0  0  0  0  0  0  0  0  0
   37.3630   26.1330   33.7230 N   0  0  0  0  0  0  0  0  0  0  0  0
   37.0520   27.3720   34.0090 N   0  0  0  0  0  0  0  0  0  0  0  0
   36.0810   26.9140   30.9140 H   0  0  0  0  0  0  0  0  0  0  0  0
   37.1850   24.8330   32.0290 H   0  0  0  0  0  0  0  0  0  0  0  0
   38.9700   24.3620   34.2390 C   0  0  0  0  0  3  0  0  0  0  0  0
   37.9980   25.2530   34.6540 C   0  0  0  0  0  0  0  0  0  0  0  0
   37.6080   25.3160   35.9970 C   0  0  0  0  0  0  0  0  0  0  0  0
   36.8520   25.9960   36.3670 H   0  0  0  0  0  0  0  0  0  0  0  0
   38.2580   24.4330   36.8680 C   0  0  0  0  0  0  0  0  0  0  0  0
   38.0810   24.2820   38.1940 N   0  0  0  0  0  0  0  0  0  0  0  0
   38.9380   23.3140   38.5620 C   0  0  0  0  0  0  0  0  0  0  0  0
   39.1330   22.8700   39.5430 H   0  0  0  0  0  0  0  0  0  0  0  0
   39.6440   22.8500   37.5310 N   0  0  0  0  0  0  0  0  0  0  0  0
   39.2270   23.5490   36.4430 C   0  0  0  0  0  0  0  0  0  0  0  0
   39.5950   23.5030   35.1220 C   0  0  0  0  0  3  0  0  0  0  0  0
   37.4430   24.7680   38.8620 H   0  0  0  0  0  0  0  0  0  0  0  0
  1 20  1  0  0  0  0
  1  5  1  0  0  0  0
  2  3  1  0  0  0  0
  2 12  1  0  0  0  0
  3  8  1  0  0  0  0
  4  9  1  0  0  0  0
  4  3  2  0  0  0  0
  5  4  1  0  0  0  0
  6  5  2  0  0  0  0
  6  7  1  0  0  0  0
  7  2  2  0  0  0  0
 10  6  1  0  0  0  0
 11 17  1  0  0  0  0
 11 16  1  0  0  0  0
 12 11  2  0  0  0  0
 13 12  1  0  0  0  0
 13 14  2  0  0  0  0
 14 15  1  0  0  0  0
 15 16  2  0  0  0  0
 15 19  1  0  0  0  0
 18 13  1  0  0  0  0
 20 24  2  0  0  0  0
 21 22  2  0  0  0  0
 21 20  1  0  0  0  0
 22 23  1  0  0  0  0
 23 24  1  0  0  0  0
 23 28  1  0  0  0  0
 25 21  1  0  0  0  0
 26 22  1  0  0  0  0
 27 28  2  0  0  0  0
 27 37  1  0  0  0  0
 28 29  1  0  0  0  0
 29 30  1  0  0  0  0
 29 31  2  0  0  0  0
 31 32  1  0  0  0  0
 32 33  1  0  0  0  0
 32 38  1  0  0  0  0
 33 34  1  0  0  0  0
 35 33  2  0  0  0  0
 36 31  1  0  0  0  0
 36 35  1  0  0  0  0
 37 36  2  0  0  0  0
M  END
>  <minimizedAffinity>
-5.6261611

$$$$
