
 OpenBabel03272506393D

 40 43  0  0  1  0  0  0  0  0999 V2000
   34.6720   28.1190   49.6290 O   0  0  0  0  0  0  0  0  0  0  0  0
   34.4380   28.7760   48.5980 C   0  0  0  0  0  0  0  0  0  0  0  0
   35.1740   29.9840   48.2830 C   0  0  2  0  0  0  0  0  0  0  0  0
   34.6550   30.2760   46.8410 C   0  0  0  0  0  0  0  0  0  0  0  0
   33.2990   29.6460   46.8290 C   0  0  0  0  0  0  0  0  0  0  0  0
   33.4450   28.4360   47.6230 N   0  0  0  0  0  0  0  0  0  0  0  0
   34.9410   30.8980   48.8260 H   0  0  0  0  0  0  0  0  0  0  0  0
   35.3260   29.7420   46.1510 H   0  0  0  0  0  0  0  0  0  0  0  0
   34.6310   31.3690   46.6640 H   0  0  0  0  0  0  0  0  0  0  0  0
   32.5280   30.2490   47.3160 H   0  0  0  0  0  0  0  0  0  0  0  0
   32.9750   29.3450   45.8120 H   0  0  0  0  0  0  0  0  0  0  0  0
   32.7260   27.1870   47.4400 C   0  0  0  0  0  0  0  0  0  0  0  0
   31.7930   27.3780   46.8830 H   0  0  0  0  0  0  0  0  0  0  0  0
   32.4250   26.8360   48.4500 H   0  0  0  0  0  0  0  0  0  0  0  0
   33.8360   26.4910   45.3920 C   0  0  0  0  0  3  0  0  0  0  0  0
   33.5340   26.1780   46.7180 C   0  0  0  0  0  0  0  0  0  0  0  0
   33.9710   25.0020   47.2920 C   0  0  0  0  0  0  0  0  0  0  0  0
   33.7260   24.7840   48.3110 H   0  0  0  0  0  0  0  0  0  0  0  0
   34.7200   24.1280   46.5280 C   0  0  0  0  0  0  0  0  0  0  0  0
   35.2860   22.9280   46.7810 N   0  0  0  0  0  0  0  0  0  0  0  0
   35.9080   22.5270   45.6490 C   0  0  0  0  0  0  0  0  0  0  0  0
   36.4700   21.6220   45.4570 H   0  0  0  0  0  0  0  0  0  0  0  0
   35.7380   23.4670   44.6880 N   0  0  0  0  0  0  0  0  0  0  0  0
   35.0060   24.4700   45.2040 C   0  0  0  0  0  0  0  0  0  0  0  0
   34.5780   25.6390   44.6160 C   0  0  0  0  0  3  0  0  0  0  0  0
   35.2500   22.4010   47.6820 H   0  0  0  0  0  0  0  0  0  0  0  0
   36.5860   29.7840   48.1500 O   0  0  0  0  0  0  0  0  0  0  0  0
   37.4020   30.9090   48.2460 C   0  0  0  0  0  0  0  0  0  0  0  0
   37.5480   31.4580   49.5070 C   0  0  0  0  0  0  0  0  0  0  0  0
   38.3550   32.5830   49.6380 C   0  0  0  0  0  0  0  0  0  0  0  0
   38.9590   33.0910   48.5390 N   0  0  0  0  0  0  0  0  0  0  0  0
   38.8070   32.5420   47.3130 C   0  0  0  0  0  0  0  0  0  0  0  0
   38.0360   31.4710   47.1940 N   0  0  0  0  0  0  0  0  0  0  0  0
   40.3360   32.1810   45.5400 C   0  0  0  0  0  0  0  0  0  0  0  0
   40.5860   30.9840   45.8630 O   0  0  0  0  0  0  0  0  0  0  0  0
   39.4560   33.1030   46.1770 N   0  0  0  0  0  0  0  0  0  0  0  0
   37.0500   31.0260   50.3600 H   0  0  0  0  0  0  0  0  0  0  0  0
   38.4640   33.0010   50.6110 H   0  0  0  0  0  0  0  0  0  0  0  0
   40.9030   32.4670   44.6560 H   0  0  0  0  0  0  0  0  0  0  0  0
   39.3180   34.0740   45.8300 H   0  0  0  0  0  0  0  0  0  0  0  0
  2  1  2  0  0  0  0
  3  2  1  0  0  0  0
  3  7  1  1  0  0  0
  4  3  1  0  0  0  0
  5  4  1  0  0  0  0
  5 10  1  0  0  0  0
  5  6  1  0  0  0  0
  6  2  1  0  0  0  0
  8  4  1  0  0  0  0
  9  4  1  0  0  0  0
 11  5  1  0  0  0  0
 12  6  1  0  0  0  0
 12 14  1  0  0  0  0
 13 12  1  0  0  0  0
 15 16  1  0  0  0  0
 16 17  2  0  0  0  0
 16 12  1  0  0  0  0
 17 18  1  0  0  0  0
 19 20  1  0  0  0  0
 19 17  1  0  0  0  0
 20 26  1  0  0  0  0
 21 20  1  0  0  0  0
 22 21  1  0  0  0  0
 23 24  1  0  0  0  0
 23 21  2  0  0  0  0
 24 19  2  0  0  0  0
 25 24  1  0  0  0  0
 25 15  2  0  0  0  0
 27 28  1  0  0  0  0
 27  3  1  0  0  0  0
 28 29  1  0  0  0  0
 29 30  2  0  0  0  0
 29 37  1  0  0  0  0
 30 38  1  0  0  0  0
 31 30  1  0  0  0  0
 32 31  2  0  0  0  0
 33 32  1  0  0  0  0
 33 28  2  0  0  0  0
 34 35  2  0  0  0  0
 34 36  1  0  0  0  0
 36 32  1  0  0  0  0
 39 34  1  0  0  0  0
 40 36  1  0  0  0  0
M  END
>  <minimizedAffinity>
-5.73534489

>  <minimizedRMSD>
1.04441798

$$$$
