
 OpenBabel03272503303D

 37 40  0  0  1  0  0  0  0  0999 V2000
   34.6210   29.2460   48.0520 C   0  0  0  0  0  0  0  0  0  0  0  0
   34.2360   30.1720   47.0740 C   0  0  0  0  0  0  0  0  0  0  0  0
   33.0290   29.9330   46.4300 C   0  0  0  0  0  0  0  0  0  0  0  0
   32.3200   28.8230   46.7980 N   0  0  0  0  0  0  0  0  0  0  0  0
   32.7090   27.9640   47.7270 C   0  0  0  0  0  0  0  0  0  0  0  0
   33.8830   28.1850   48.3630 N   0  0  0  0  0  0  0  0  0  0  0  0
   34.7930   31.0360   46.7900 H   0  0  0  0  0  0  0  0  0  0  0  0
   32.6200   30.5570   45.6690 H   0  0  0  0  0  0  0  0  0  0  0  0
   35.8690   29.4860   48.7250 N   0  0  0  0  0  0  0  0  0  0  0  0
   37.0000   30.2130   48.2160 C   0  0  0  0  0  0  0  0  0  0  0  0
   37.6420   30.7510   49.4950 C   0  0  2  0  0  0  0  0  0  0  0  0
   36.7250   30.3480   50.6320 C   0  0  0  0  0  0  0  0  0  0  0  0
   36.2250   29.0350   50.0480 C   0  0  0  0  0  0  0  0  0  0  0  0
   37.6870   29.5020   47.7380 H   0  0  0  0  0  0  0  0  0  0  0  0
   36.7100   31.0360   47.5400 H   0  0  0  0  0  0  0  0  0  0  0  0
   38.6030   30.2260   49.6770 H   0  0  0  0  0  0  0  0  0  0  0  0
   37.2840   30.1090   51.5380 H   0  0  0  0  0  0  0  0  0  0  0  0
   35.8880   31.0580   50.7920 H   0  0  0  0  0  0  0  0  0  0  0  0
   35.3200   28.7610   50.6260 H   0  0  0  0  0  0  0  0  0  0  0  0
   37.0230   28.2980   50.0950 H   0  0  0  0  0  0  0  0  0  0  0  0
   37.8750   32.2340   49.4570 C   0  0  0  0  0  0  0  0  0  0  0  0
   36.7740   32.8260   50.0380 F   0  0  0  0  0  0  0  0  0  0  0  0
   37.8570   32.6200   48.1240 F   0  0  0  0  0  0  0  0  0  0  0  0
   39.0450   32.6280   50.0370 F   0  0  0  0  0  0  0  0  0  0  0  0
   31.7330   26.5400   48.1560 S   0  0  0  0  0  0  0  0  0  0  0  0
   29.0770   26.5270   47.0670 C   0  0  0  0  0  3  0  0  0  0  0  0
   30.0000   27.0000   47.9720 C   0  0  0  0  0  0  0  0  0  0  0  0
   29.6320   27.9600   48.9030 C   0  0  0  0  0  0  0  0  0  0  0  0
   30.2700   28.4130   49.6710 H   0  0  0  0  0  0  0  0  0  0  0  0
   28.3300   28.4680   48.9460 C   0  0  0  0  0  0  0  0  0  0  0  0
   27.6860   29.3840   49.7150 N   0  0  0  0  0  0  0  0  0  0  0  0
   26.4100   29.4750   49.3020 C   0  0  0  0  0  0  0  0  0  0  0  0
   25.6800   30.1490   49.7630 H   0  0  0  0  0  0  0  0  0  0  0  0
   26.2510   28.6120   48.2660 N   0  0  0  0  0  0  0  0  0  0  0  0
   27.4200   27.9810   48.0310 C   0  0  0  0  0  0  0  0  0  0  0  0
   27.8010   27.0340   47.1200 C   0  0  0  0  0  3  0  0  0  0  0  0
   28.1370   29.9210   50.5030 H   0  0  0  0  0  0  0  0  0  0  0  0
  1  6  1  0  0  0  0
  1  9  1  0  0  0  0
  2  1  2  0  0  0  0
  3  4  2  0  0  0  0
  3  2  1  0  0  0  0
  4  5  1  0  0  0  0
  5 25  1  0  0  0  0
  5  6  2  0  0  0  0
  7  2  1  0  0  0  0
  8  3  1  0  0  0  0
  9 13  1  0  0  0  0
 10  9  1  0  0  0  0
 10 11  1  0  0  0  0
 11 16  1  1  0  0  0
 11 12  1  0  0  0  0
 12 18  1  0  0  0  0
 12 17  1  0  0  0  0
 13 20  1  0  0  0  0
 13 19  1  0  0  0  0
 13 12  1  0  0  0  0
 14 10  1  0  0  0  0
 15 10  1  0  0  0  0
 21 11  1  0  0  0  0
 21 24  1  0  0  0  0
 21 22  1  0  0  0  0
 23 21  1  0  0  0  0
 26 36  2  0  0  0  0
 26 27  1  0  0  0  0
 27 25  1  0  0  0  0
 27 28  2  0  0  0  0
 28 30  1  0  0  0  0
 28 29  1  0  0  0  0
 30 31  1  0  0  0  0
 31 37  1  0  0  0  0
 32 31  1  0  0  0  0
 32 33  1  0  0  0  0
 34 32  2  0  0  0  0
 35 34  1  0  0  0  0
 35 30  2  0  0  0  0
 36 35  1  0  0  0  0
M  END
>  <minimizedAffinity>
-6.93057156

>  <minimizedRMSD>
1.88883364

$$$$
