
 OpenBabel03262520133D

 45 48  0  0  0  0  0  0  0  0999 V2000
   34.3220   29.6580   49.8940 C   0  0  0  0  0  0  0  0  0  0  0  0
   33.3470   29.9280   49.5400 H   0  0  0  0  0  0  0  0  0  0  0  0
   34.2360   29.8070   51.0290 H   0  0  0  0  0  0  0  0  0  0  0  0
   35.3930   30.6120   49.5100 C   0  0  0  0  0  0  0  0  0  0  0  0
   36.2890   30.3790   50.1380 H   0  0  0  0  0  0  0  0  0  0  0  0
   35.0920   31.6350   49.8240 H   0  0  0  0  0  0  0  0  0  0  0  0
   38.2610   31.8080   48.9250 Br  0  0  0  0  0  0  0  0  0  0  0  0
   37.0230   31.0700   47.6540 C   0  0  0  0  0  0  0  0  0  0  0  0
   37.3480   31.0230   46.3250 C   0  0  0  0  0  0  0  0  0  0  0  0
   36.4230   30.4950   45.4580 C   0  0  0  0  0  0  0  0  0  0  0  0
   35.1910   30.0170   45.8800 C   0  0  0  0  0  0  0  0  0  0  0  0
   34.9010   30.0850   47.2500 C   0  0  0  0  0  0  0  0  0  0  0  0
   35.8200   30.6100   48.1150 C   0  0  0  0  0  0  0  0  0  0  0  0
   36.7370   30.4810   44.4020 H   0  0  0  0  0  0  0  0  0  0  0  0
   34.5990   29.6450   45.0850 H   0  0  0  0  0  0  0  0  0  0  0  0
   33.9220   29.6890   47.3640 H   0  0  0  0  0  0  0  0  0  0  0  0
   39.8050   33.2740   44.8420 C   0  0  0  0  0  0  0  0  0  0  0  0
   41.0210   32.5170   44.8850 C   0  0  0  0  0  0  0  0  0  0  0  0
   40.9510   31.2600   45.4220 C   0  0  0  0  0  0  0  0  0  0  0  0
   39.7550   30.7690   45.8930 N   0  0  0  0  0  0  0  0  0  0  0  0
   38.6360   31.5190   45.8320 C   0  0  0  0  0  0  0  0  0  0  0  0
   38.6790   32.7550   45.3090 N   0  0  0  0  0  0  0  0  0  0  0  0
   39.7620   34.2770   44.4360 H   0  0  0  0  0  0  0  0  0  0  0  0
   41.9130   32.9700   44.4970 H   0  0  0  0  0  0  0  0  0  0  0  0
   41.8510   30.6580   45.4710 H   0  0  0  0  0  0  0  0  0  0  0  0
   34.8090   28.3340   49.7600 N   0  0  0  0  0  0  0  0  0  0  0  0
   35.8270   28.2980   49.5300 H   0  0  0  0  0  0  0  0  0  0  0  0
   34.0700   27.4420   48.9450 C   0  0  0  0  0  0  0  0  0  0  0  0
   34.4460   27.3850   47.8900 H   0  0  0  0  0  0  0  0  0  0  0  0
   34.1680   26.4270   49.3550 H   0  0  0  0  0  0  0  0  0  0  0  0
   32.6600   27.9250   48.8670 C   0  0  0  0  0  0  0  0  0  0  0  0
   32.0890   27.7600   49.8100 H   0  0  0  0  0  0  0  0  0  0  0  0
   32.4430   28.8590   48.3770 H   0  0  0  0  0  0  0  0  0  0  0  0
   32.7360   25.9410   47.2500 C   0  0  0  0  0  0  0  0  0  0  0  0
   31.9910   26.9150   47.9240 C   0  0  0  0  0  0  0  0  0  0  0  0
   30.6050   26.9640   47.7310 C   0  0  0  0  0  0  0  0  0  0  0  0
   30.0470   27.7330   48.2660 H   0  0  0  0  0  0  0  0  0  0  0  0
   29.9740   26.0710   46.8900 C   0  0  0  0  0  0  0  0  0  0  0  0
   28.6910   25.9300   46.5580 N   0  0  0  0  0  0  0  0  0  0  0  0
   28.5940   24.8860   45.6850 C   0  0  0  0  0  0  0  0  0  0  0  0
   27.7440   24.4520   45.1840 H   0  0  0  0  0  0  0  0  0  0  0  0
   29.8430   24.3810   45.4810 N   0  0  0  0  0  0  0  0  0  0  0  0
   30.7170   25.1140   46.2290 C   0  0  0  0  0  0  0  0  0  0  0  0
   32.0830   25.0590   46.4160 C   0  0  0  0  0  0  0  0  0  0  0  0
   27.8610   26.4590   46.8510 H   0  0  0  0  0  0  0  0  0  0  0  0
  1  3  1  0  0  0  0
  2  1  1  0  0  0  0
  4  6  1  0  0  0  0
  4  1  1  0  0  0  0
  4  5  1  0  0  0  0
  8 13  1  0  0  0  0
  8  7  1  0  0  0  0
  9  8  2  0  0  0  0
 10 11  2  0  0  0  0
 10  9  1  0  0  0  0
 11 12  1  0  0  0  0
 12 16  1  0  0  0  0
 12 13  2  0  0  0  0
 13  4  1  0  0  0  0
 14 10  1  0  0  0  0
 15 11  1  0  0  0  0
 17 18  2  0  0  0  0
 17 22  1  0  0  0  0
 18 19  1  0  0  0  0
 19 25  1  0  0  0  0
 19 20  2  0  0  0  0
 21 20  1  0  0  0  0
 21  9  1  0  0  0  0
 22 21  2  0  0  0  0
 23 17  1  0  0  0  0
 24 18  1  0  0  0  0
 26  1  1  0  0  0  0
 27 26  1  0  0  0  0
 28 30  1  0  0  0  0
 28 26  1  0  0  0  0
 29 28  1  0  0  0  0
 31 28  1  0  0  0  0
 31 32  1  0  0  0  0
 33 31  1  0  0  0  0
 34 35  1  0  0  0  0
 35 31  1  0  0  0  0
 36 35  2  0  0  0  0
 36 37  1  0  0  0  0
 38 36  1  0  0  0  0
 39 45  1  0  0  0  0
 39 38  1  0  0  0  0
 40 39  1  0  0  0  0
 41 40  1  0  0  0  0
 42 40  2  0  0  0  0
 42 43  1  0  0  0  0
 43 44  1  0  0  0  0
 43 38  2  0  0  0  0
 44 34  2  0  0  0  0
M  END
>  <minimizedAffinity>
-5.66527891

>  <minimizedRMSD>
0.747727513

$$$$
