
 OpenBabel03272502583D

 37 40  0  0  1  0  0  0  0  0999 V2000
   35.6980   29.6140   48.7700 N   0  0  0  0  0  0  0  0  0  0  0  0
   36.5800   28.8470   49.6230 C   0  0  0  0  0  0  0  0  0  0  0  0
   37.1460   29.5090   50.7940 C   0  0  0  0  0  0  0  0  0  0  0  0
   37.2880   30.9780   50.7800 C   0  0  0  0  0  0  0  0  0  0  0  0
   36.3880   31.6740   49.8060 C   0  0  0  0  0  0  0  0  0  0  0  0
   36.3380   30.8920   48.4870 C   0  0  1  0  0  0  0  0  0  0  0  0
   36.0130   27.9310   49.9090 H   0  0  0  0  0  0  0  0  0  0  0  0
   37.4010   28.4850   48.9410 H   0  0  0  0  0  0  0  0  0  0  0  0
   36.5320   29.2220   51.6920 H   0  0  0  0  0  0  0  0  0  0  0  0
   38.1600   29.0650   51.0050 H   0  0  0  0  0  0  0  0  0  0  0  0
   37.0620   31.4120   51.7890 H   0  0  0  0  0  0  0  0  0  0  0  0
   38.3410   31.2800   50.5860 H   0  0  0  0  0  0  0  0  0  0  0  0
   36.6890   32.7170   49.6560 H   0  0  0  0  0  0  0  0  0  0  0  0
   35.3500   31.6430   50.2010 H   0  0  0  0  0  0  0  0  0  0  0  0
   35.7860   31.4820   47.7510 H   0  0  0  0  0  0  0  0  0  0  0  0
   34.4300   29.1810   48.2980 C   0  0  0  0  0  0  0  0  0  0  0  0
   33.8480   29.5990   47.1040 C   0  0  0  0  0  0  0  0  0  0  0  0
   32.6050   29.1080   46.7470 C   0  0  0  0  0  0  0  0  0  0  0  0
   32.0090   28.2290   47.6000 N   0  0  0  0  0  0  0  0  0  0  0  0
   32.5950   27.8450   48.7430 C   0  0  0  0  0  0  0  0  0  0  0  0
   33.8000   28.3240   49.0840 N   0  0  0  0  0  0  0  0  0  0  0  0
   34.3960   30.3000   46.4910 H   0  0  0  0  0  0  0  0  0  0  0  0
   32.1750   29.4510   45.8110 H   0  0  0  0  0  0  0  0  0  0  0  0
   32.0610   27.1300   49.3890 H   0  0  0  0  0  0  0  0  0  0  0  0
   37.6730   30.7190   48.1300 O   0  0  0  0  0  0  0  0  0  0  0  0
   37.0760   30.8370   45.9320 C   0  0  0  0  0  3  0  0  0  0  0  0
   38.1320   30.7540   46.8470 C   0  0  0  0  0  0  0  0  0  0  0  0
   39.4030   30.7220   46.3190 C   0  0  0  0  0  0  0  0  0  0  0  0
   40.1710   30.6570   47.0680 H   0  0  0  0  0  0  0  0  0  0  0  0
   39.6430   30.7690   44.9810 C   0  0  0  0  0  0  0  0  0  0  0  0
   40.7960   30.7490   44.2880 N   0  0  0  0  0  0  0  0  0  0  0  0
   40.4950   30.8180   42.9780 C   0  0  0  0  0  0  0  0  0  0  0  0
   41.2710   30.8170   42.2220 H   0  0  0  0  0  0  0  0  0  0  0  0
   39.1570   30.8810   42.8460 N   0  0  0  0  0  0  0  0  0  0  0  0
   38.6120   30.8510   44.0800 C   0  0  0  0  0  0  0  0  0  0  0  0
   37.3020   30.8860   44.5610 C   0  0  0  0  0  3  0  0  0  0  0  0
   41.7510   30.6910   44.7080 H   0  0  0  0  0  0  0  0  0  0  0  0
  1  2  1  0  0  0  0
  2  7  1  0  0  0  0
  2  3  1  0  0  0  0
  3 10  1  0  0  0  0
  3  9  1  0  0  0  0
  4  3  1  0  0  0  0
  4 11  1  0  0  0  0
  5 14  1  0  0  0  0
  5  4  1  0  0  0  0
  6 15  1  6  0  0  0
  6  1  1  0  0  0  0
  6  5  1  0  0  0  0
  8  2  1  0  0  0  0
 12  4  1  0  0  0  0
 13  5  1  0  0  0  0
 16  1  1  0  0  0  0
 16 21  1  0  0  0  0
 17 16  2  0  0  0  0
 18 17  1  0  0  0  0
 18 19  2  0  0  0  0
 19 20  1  0  0  0  0
 20 21  2  0  0  0  0
 20 24  1  0  0  0  0
 22 17  1  0  0  0  0
 23 18  1  0  0  0  0
 25  6  1  0  0  0  0
 26 27  1  0  0  0  0
 27 25  1  0  0  0  0
 28 27  2  0  0  0  0
 28 29  1  0  0  0  0
 30 28  1  0  0  0  0
 31 37  1  0  0  0  0
 31 30  1  0  0  0  0
 32 31  1  0  0  0  0
 33 32  1  0  0  0  0
 34 32  2  0  0  0  0
 34 35  1  0  0  0  0
 35 36  1  0  0  0  0
 35 30  2  0  0  0  0
 36 26  2  0  0  0  0
M  END
>  <minimizedAffinity>
-6.16820478

>  <minimizedRMSD>
1.23255205

$$$$
