
 OpenBabel03262522193D

 27 29  0  0  0  0  0  0  0  0999 V2000
   36.6580   32.0310   49.9140 O   0  0  0  0  0  0  0  0  0  0  0  0
   37.8320   31.2020   49.4230 P   0  0  1  0  0  0  0  0  0  0  0  0
   38.7610   30.7690   50.7870 O   0  0  0  0  0  0  0  0  0  0  0  0
   38.7080   31.5370   51.4400 H   0  0  0  0  0  0  0  0  0  0  0  0
   37.2030   29.7540   48.8200 O   0  0  0  0  0  0  0  0  0  0  0  0
   35.2050   28.5590   49.3840 C   0  0  0  0  0  0  0  0  0  0  0  0
   35.8900   29.4680   48.5480 C   0  0  0  0  0  0  0  0  0  0  0  0
   35.1700   30.0250   47.4820 C   0  0  0  0  0  0  0  0  0  0  0  0
   33.8700   29.6570   47.3230 N   0  0  0  0  0  0  0  0  0  0  0  0
   33.2490   28.7900   48.1370 C   0  0  0  0  0  0  0  0  0  0  0  0
   33.9260   28.2380   49.1750 N   0  0  0  0  0  0  0  0  0  0  0  0
   35.6940   28.0920   50.2230 H   0  0  0  0  0  0  0  0  0  0  0  0
   35.7130   30.7080   46.8670 H   0  0  0  0  0  0  0  0  0  0  0  0
   32.2260   28.5580   47.9370 H   0  0  0  0  0  0  0  0  0  0  0  0
   38.6920   32.1130   48.3380 O   0  0  0  0  0  0  0  0  0  0  0  0
   38.7670   30.6040   46.5690 C   0  0  0  0  0  0  0  0  0  0  0  0
   38.8770   31.9130   46.9990 C   0  0  0  0  0  0  0  0  0  0  0  0
   39.1620   32.8770   46.0260 C   0  0  0  0  0  0  0  0  0  0  0  0
   39.2400   33.8760   46.3860 H   0  0  0  0  0  0  0  0  0  0  0  0
   39.3190   32.4820   44.6930 C   0  0  0  0  0  0  0  0  0  0  0  0
   39.5930   33.2600   43.6290 N   0  0  0  0  0  0  0  0  0  0  0  0
   39.6400   32.4000   42.5940 C   0  0  0  0  0  0  0  0  0  0  0  0
   39.8320   32.5860   41.5390 H   0  0  0  0  0  0  0  0  0  0  0  0
   39.4080   31.1250   42.9600 N   0  0  0  0  0  0  0  0  0  0  0  0
   39.2030   31.1610   44.2920 C   0  0  0  0  0  0  0  0  0  0  0  0
   38.9250   30.2150   45.2360 C   0  0  0  0  0  0  0  0  0  0  0  0
   39.7430   34.2850   43.5600 H   0  0  0  0  0  0  0  0  0  0  0  0
  2  1  2  1  0  0  0
  2  3  1  0  0  0  0
  3  4  1  0  0  0  0
  5  2  1  0  0  0  0
  6 12  1  0  0  0  0
  7  5  1  0  0  0  0
  7  6  2  0  0  0  0
  8  7  1  0  0  0  0
  9  8  2  0  0  0  0
  9 10  1  0  0  0  0
 10 11  2  0  0  0  0
 11  6  1  0  0  0  0
 13  8  1  0  0  0  0
 14 10  1  0  0  0  0
 15  2  1  0  0  0  0
 16 17  1  0  0  0  0
 17 15  1  0  0  0  0
 18 19  1  0  0  0  0
 18 17  2  0  0  0  0
 20 18  1  0  0  0  0
 21 20  1  0  0  0  0
 22 24  2  0  0  0  0
 22 21  1  0  0  0  0
 23 22  1  0  0  0  0
 24 25  1  0  0  0  0
 25 20  2  0  0  0  0
 25 26  1  0  0  0  0
 26 16  2  0  0  0  0
 27 21  1  0  0  0  0
M  END
>  <minimizedAffinity>
-5.44220495

>  <minimizedRMSD>
2.79585719

$$$$
