
 OpenBabel03272508023D

 31 34  0  0  0  0  0  0  0  0999 V2000
   37.3030   30.5720   45.0570 C   0  0  0  0  0  0  0  0  0  0  0  0
   38.0560   31.7100   44.8560 C   0  0  0  0  0  0  0  0  0  0  0  0
   39.0280   31.4580   43.8810 C   0  0  0  0  0  0  0  0  0  0  0  0
   38.8170   30.1510   43.5280 N   0  0  0  0  0  0  0  0  0  0  0  0
   37.8120   29.6460   44.2160 N   0  0  0  0  0  0  0  0  0  0  0  0
   37.8820   32.6340   45.3950 H   0  0  0  0  0  0  0  0  0  0  0  0
   39.7160   32.2180   43.5820 H   0  0  0  0  0  0  0  0  0  0  0  0
   40.9780   29.9330   42.3630 C   0  0  0  0  0  3  0  0  0  0  0  0
   39.6610   29.5880   42.5390 C   0  0  0  0  0  0  0  0  0  0  0  0
   39.0350   28.6390   41.7420 C   0  0  0  0  0  0  0  0  0  0  0  0
   38.0070   28.3250   41.8270 H   0  0  0  0  0  0  0  0  0  0  0  0
   39.7370   27.9930   40.7200 C   0  0  0  0  0  0  0  0  0  0  0  0
   39.4170   27.0530   39.8030 N   0  0  0  0  0  0  0  0  0  0  0  0
   40.5310   26.8150   39.0620 C   0  0  0  0  0  0  0  0  0  0  0  0
   40.5070   26.0780   38.2460 H   0  0  0  0  0  0  0  0  0  0  0  0
   41.5310   27.5990   39.5140 N   0  0  0  0  0  0  0  0  0  0  0  0
   41.0720   28.3420   40.5420 C   0  0  0  0  0  0  0  0  0  0  0  0
   41.6580   29.2940   41.3580 C   0  0  0  0  0  3  0  0  0  0  0  0
   38.4840   26.6050   39.6990 H   0  0  0  0  0  0  0  0  0  0  0  0
   36.1850   30.3960   45.9840 C   0  0  0  0  0  0  0  0  0  0  0  0
   36.4750   30.5330   47.3780 C   0  0  0  0  0  0  0  0  0  0  0  0
   35.4000   30.3640   48.2680 C   0  0  0  0  0  0  0  0  0  0  0  0
   34.1780   30.0830   47.7480 N   0  0  0  0  0  0  0  0  0  0  0  0
   33.9460   29.9620   46.4250 C   0  0  0  0  0  0  0  0  0  0  0  0
   34.9630   30.1200   45.5610 N   0  0  0  0  0  0  0  0  0  0  0  0
   37.4820   30.7590   47.7030 H   0  0  0  0  0  0  0  0  0  0  0  0
   32.9410   29.7360   46.0930 H   0  0  0  0  0  0  0  0  0  0  0  0
   35.6560   30.4990   49.7240 C   0  0  0  0  0  0  0  0  0  0  0  0
   34.4320   30.3170   50.3410 F   0  0  0  0  0  0  0  0  0  0  0  0
   36.5280   29.5510   50.2050 F   0  0  0  0  0  0  0  0  0  0  0  0
   36.1080   31.7750   50.0530 F   0  0  0  0  0  0  0  0  0  0  0  0
  1 20  1  0  0  0  0
  2  1  1  0  0  0  0
  2  6  1  0  0  0  0
  3  2  2  0  0  0  0
  4  3  1  0  0  0  0
  4  5  1  0  0  0  0
  5  1  2  0  0  0  0
  7  3  1  0  0  0  0
  8  9  1  0  0  0  0
  9  4  1  0  0  0  0
 10 11  1  0  0  0  0
 10  9  2  0  0  0  0
 12 10  1  0  0  0  0
 13 12  1  0  0  0  0
 14 16  2  0  0  0  0
 14 13  1  0  0  0  0
 15 14  1  0  0  0  0
 16 17  1  0  0  0  0
 17 12  2  0  0  0  0
 17 18  1  0  0  0  0
 18  8  2  0  0  0  0
 19 13  1  0  0  0  0
 20 21  1  0  0  0  0
 21 26  1  0  0  0  0
 21 22  2  0  0  0  0
 22 28  1  0  0  0  0
 23 22  1  0  0  0  0
 24 23  2  0  0  0  0
 25 20  2  0  0  0  0
 25 24  1  0  0  0  0
 27 24  1  0  0  0  0
 28 31  1  0  0  0  0
 28 30  1  0  0  0  0
 28 29  1  0  0  0  0
M  END
>  <minimizedAffinity>
-5.21252537

>  <minimizedRMSD>
2.42788386

$$$$
