
 OpenBabel03272500193D

 37 40  0  0  0  0  0  0  0  0999 V2000
   35.2420   29.2460   50.5820 C   0  0  0  0  0  0  0  0  0  0  0  0
   36.3730   29.9090   50.0550 C   0  0  0  0  0  0  0  0  0  0  0  0
   36.5220   29.9700   48.6780 C   0  0  0  0  0  0  0  0  0  0  0  0
   35.5520   29.3800   47.9120 N   0  0  0  0  0  0  0  0  0  0  0  0
   34.4990   28.7630   48.4230 C   0  0  0  0  0  0  0  0  0  0  0  0
   34.3400   28.6930   49.7450 N   0  0  0  0  0  0  0  0  0  0  0  0
   35.1510   29.2120   51.6490 H   0  0  0  0  0  0  0  0  0  0  0  0
   37.6460   31.9880   48.2420 C   0  0  0  0  0  3  0  0  0  0  0  0
   37.5530   30.6230   47.9170 C   0  0  0  0  0  0  0  0  0  0  0  0
   38.4320   30.2590   46.9310 C   0  0  0  0  0  0  0  0  0  0  0  0
   38.3900   29.2540   46.6150 H   0  0  0  0  0  0  0  0  0  0  0  0
   39.3080   31.1300   46.3300 C   0  0  0  0  0  0  0  0  0  0  0  0
   40.2110   30.8900   45.3630 N   0  0  0  0  0  0  0  0  0  0  0  0
   40.8290   32.0500   45.1060 C   0  0  0  0  0  0  0  0  0  0  0  0
   41.6200   32.1750   44.3610 H   0  0  0  0  0  0  0  0  0  0  0  0
   40.3240   32.9920   45.8950 N   0  0  0  0  0  0  0  0  0  0  0  0
   39.3710   32.4610   46.6760 C   0  0  0  0  0  0  0  0  0  0  0  0
   38.5100   32.8910   47.6610 C   0  0  0  0  0  3  0  0  0  0  0  0
   40.4110   29.9670   44.8800 H   0  0  0  0  0  0  0  0  0  0  0  0
   33.0190   30.6730   46.6010 Cl  0  0  0  0  0  0  0  0  0  0  0  0
   32.7800   28.9320   46.6330 C   0  0  0  0  0  0  0  0  0  0  0  0
   33.5210   28.1540   47.5150 C   0  0  0  0  0  0  0  0  0  0  0  0
   33.3710   26.7590   47.5790 C   0  0  0  0  0  0  0  0  0  0  0  0
   32.4360   26.2030   46.7050 C   0  0  0  0  0  0  0  0  0  0  0  0
   31.7000   26.9480   45.8330 C   0  0  0  0  0  0  0  0  0  0  0  0
   30.5620   26.1340   44.7900 Cl  0  0  0  0  0  0  0  0  0  0  0  0
   31.8800   28.3260   45.8030 C   0  0  0  0  0  0  0  0  0  0  0  0
   33.9530   26.1610   48.2710 H   0  0  0  0  0  0  0  0  0  0  0  0
   32.3080   25.1210   46.7420 H   0  0  0  0  0  0  0  0  0  0  0  0
   31.0860   29.1520   44.8590 C   0  0  0  0  0  0  0  0  0  0  0  0
   30.0790   28.3800   44.2710 F   0  0  0  0  0  0  0  0  0  0  0  0
   31.8510   29.7550   43.9140 F   0  0  0  0  0  0  0  0  0  0  0  0
   30.4150   30.1450   45.5750 F   0  0  0  0  0  0  0  0  0  0  0  0
   37.3480   30.5390   50.9830 C   0  0  0  0  0  0  0  0  0  0  0  0
   38.6520   30.3210   50.5780 F   0  0  0  0  0  0  0  0  0  0  0  0
   37.1080   31.9050   51.0320 F   0  0  0  0  0  0  0  0  0  0  0  0
   37.2200   30.0620   52.2760 F   0  0  0  0  0  0  0  0  0  0  0  0
  1  7  1  0  0  0  0
  2  1  1  0  0  0  0
  2 34  1  0  0  0  0
  3  2  2  0  0  0  0
  4  5  2  0  0  0  0
  4  3  1  0  0  0  0
  5  6  1  0  0  0  0
  6  1  2  0  0  0  0
  9  8  1  0  0  0  0
  9  3  1  0  0  0  0
 10  9  2  0  0  0  0
 11 10  1  0  0  0  0
 12 17  2  0  0  0  0
 12 10  1  0  0  0  0
 13 12  1  0  0  0  0
 14 13  1  0  0  0  0
 14 16  2  0  0  0  0
 15 14  1  0  0  0  0
 16 17  1  0  0  0  0
 17 18  1  0  0  0  0
 18  8  2  0  0  0  0
 19 13  1  0  0  0  0
 20 21  1  0  0  0  0
 21 22  1  0  0  0  0
 22 23  2  0  0  0  0
 22  5  1  0  0  0  0
 23 28  1  0  0  0  0
 24 29  1  0  0  0  0
 24 23  1  0  0  0  0
 25 24  2  0  0  0  0
 26 25  1  0  0  0  0
 27 25  1  0  0  0  0
 27 21  2  0  0  0  0
 30 33  1  0  0  0  0
 30 27  1  0  0  0  0
 31 30  1  0  0  0  0
 32 30  1  0  0  0  0
 34 36  1  0  0  0  0
 34 37  1  0  0  0  0
 35 34  1  0  0  0  0
M  END
>  <minimizedAffinity>
-7.17874813

>  <minimizedRMSD>
1.01997256

$$$$
