
 OpenBabel03262521463D

 33 35  0  0  0  0  0  0  0  0999 V2000
   34.6700   30.6770   49.2740 O   0  0  0  0  0  0  0  0  0  0  0  0
   34.4480   29.4560   50.1480 P   0  0  2  0  0  0  0  0  0  0  0  0
   32.9480   29.6680   50.8810 O   0  0  0  0  0  0  0  0  0  0  0  0
   33.0710   29.4290   51.8320 H   0  0  0  0  0  0  0  0  0  0  0  0
   35.6890   29.4140   51.3110 O   0  0  0  0  0  0  0  0  0  0  0  0
   36.9390   29.2290   50.7110 C   0  0  0  0  0  0  0  0  0  0  0  0
   36.7580   29.0150   49.6520 H   0  0  0  0  0  0  0  0  0  0  0  0
   37.4280   28.3310   51.1410 H   0  0  0  0  0  0  0  0  0  0  0  0
   37.7140   30.4950   50.8680 C   0  0  0  0  0  0  0  0  0  0  0  0
   37.2390   31.2430   51.5490 H   0  0  0  0  0  0  0  0  0  0  0  0
   38.6840   30.2100   51.3700 H   0  0  0  0  0  0  0  0  0  0  0  0
   38.0840   31.1600   49.6190 C   0  0  0  0  0  0  0  0  0  0  0  0
   38.5410   32.4630   49.5720 C   0  0  0  0  0  0  0  0  0  0  0  0
   38.8670   32.9990   48.3090 C   0  0  0  0  0  0  0  0  0  0  0  0
   38.7160   32.2060   47.2020 N   0  0  0  0  0  0  0  0  0  0  0  0
   38.2590   30.9210   47.3060 C   0  0  0  0  0  0  0  0  0  0  0  0
   37.9460   30.4100   48.5220 N   0  0  0  0  0  0  0  0  0  0  0  0
   38.6290   33.0160   50.4980 H   0  0  0  0  0  0  0  0  0  0  0  0
   39.2230   34.0080   48.2580 H   0  0  0  0  0  0  0  0  0  0  0  0
   38.1650   30.3540   46.3900 H   0  0  0  0  0  0  0  0  0  0  0  0
   34.4260   28.0500   49.2480 O   0  0  0  0  0  0  0  0  0  0  0  0
   34.2630   28.7940   46.8750 C   0  0  0  0  0  3  0  0  0  0  0  0
   34.1850   27.8930   47.9070 C   0  0  0  0  0  0  0  0  0  0  0  0
   33.8010   26.5780   47.6170 C   0  0  0  0  0  0  0  0  0  0  0  0
   33.6970   25.7590   48.3410 H   0  0  0  0  0  0  0  0  0  0  0  0
   33.5030   26.1880   46.3070 C   0  0  0  0  0  0  0  0  0  0  0  0
   33.1190   25.0440   45.7150 N   0  0  0  0  0  0  0  0  0  0  0  0
   32.9780   25.2740   44.3820 C   0  0  0  0  0  0  0  0  0  0  0  0
   32.6720   24.5030   43.6680 H   0  0  0  0  0  0  0  0  0  0  0  0
   33.2780   26.5780   44.1280 N   0  0  0  0  0  0  0  0  0  0  0  0
   33.5980   27.1350   45.3060 C   0  0  0  0  0  0  0  0  0  0  0  0
   33.9770   28.4380   45.5830 C   0  0  0  0  0  3  0  0  0  0  0  0
   32.9690   24.1680   46.2330 H   0  0  0  0  0  0  0  0  0  0  0  0
  2  1  2  6  0  0  0
  2  3  1  0  0  0  0
  2  5  1  0  0  0  0
  3  4  1  0  0  0  0
  6  9  1  0  0  0  0
  6  8  1  0  0  0  0
  6  5  1  0  0  0  0
  7  6  1  0  0  0  0
  9 11  1  0  0  0  0
  9 10  1  0  0  0  0
 12  9  1  0  0  0  0
 13 12  1  0  0  0  0
 13 18  1  0  0  0  0
 14 13  2  0  0  0  0
 15 16  2  0  0  0  0
 15 14  1  0  0  0  0
 16 17  1  0  0  0  0
 17 12  2  0  0  0  0
 19 14  1  0  0  0  0
 20 16  1  0  0  0  0
 21  2  1  0  0  0  0
 22 23  1  0  0  0  0
 23 21  1  0  0  0  0
 24 23  2  0  0  0  0
 24 25  1  0  0  0  0
 26 24  1  0  0  0  0
 27 33  1  0  0  0  0
 27 26  1  0  0  0  0
 28 27  1  0  0  0  0
 29 28  1  0  0  0  0
 30 28  2  0  0  0  0
 30 31  1  0  0  0  0
 31 32  1  0  0  0  0
 31 26  2  0  0  0  0
 32 22  2  0  0  0  0
M  END
>  <minimizedAffinity>
-5.3142271

>  <minimizedRMSD>
0.813327134

$$$$
