
 OpenBabel03272508193D

 34 37  0  0  0  0  0  0  0  0999 V2000
   38.2570   27.1490   35.5920 C   0  0  0  0  0  0  0  0  0  0  0  0
   37.9560   27.0310   36.6920 H   0  0  0  0  0  0  0  0  0  0  0  0
   38.7820   28.1330   35.6020 H   0  0  0  0  0  0  0  0  0  0  0  0
   39.1370   24.8130   35.8330 C   0  0  0  0  0  0  0  0  0  0  0  0
   39.2600   26.1280   35.3630 C   0  0  0  0  0  0  0  0  0  0  0  0
   40.4350   26.3990   34.7150 C   0  0  0  0  0  0  0  0  0  0  0  0
   41.3950   25.4470   34.5500 N   0  0  0  0  0  0  0  0  0  0  0  0
   41.2400   24.1840   35.0210 C   0  0  0  0  0  0  0  0  0  0  0  0
   40.1200   23.8680   35.6570 N   0  0  0  0  0  0  0  0  0  0  0  0
   40.7570   27.3020   34.3050 H   0  0  0  0  0  0  0  0  0  0  0  0
   41.9870   23.4120   34.9030 H   0  0  0  0  0  0  0  0  0  0  0  0
   37.8140   24.4420   36.4940 C   0  0  0  0  0  0  0  0  0  0  0  0
   37.6140   23.1780   37.1010 C   0  0  0  0  0  0  0  0  0  0  0  0
   38.0650   24.2870   38.0340 C   0  0  0  0  0  0  0  0  0  0  0  0
   37.0160   25.2200   36.4230 H   0  0  0  0  0  0  0  0  0  0  0  0
   38.3050   22.3160   37.0060 H   0  0  0  0  0  0  0  0  0  0  0  0
   36.5540   22.8130   37.2110 H   0  0  0  0  0  0  0  0  0  0  0  0
   37.3420   24.6900   38.7330 H   0  0  0  0  0  0  0  0  0  0  0  0
   39.0850   24.2530   38.3970 H   0  0  0  0  0  0  0  0  0  0  0  0
   37.0000   27.1340   34.8500 C   0  0  0  0  0  0  0  0  0  0  0  0
   36.6450   26.0570   34.8400 H   0  0  0  0  0  0  0  0  0  0  0  0
   36.1390   27.6190   35.4230 H   0  0  0  0  0  0  0  0  0  0  0  0
   36.2480   28.8100   33.3440 C   0  0  0  0  0  3  0  0  0  0  0  0
   37.0150   27.6280   33.4580 C   0  0  0  0  0  0  0  0  0  0  0  0
   37.5780   27.2890   32.2520 C   0  0  0  0  0  0  0  0  0  0  0  0
   38.1730   26.4180   32.3200 H   0  0  0  0  0  0  0  0  0  0  0  0
   37.4180   28.0000   31.0910 C   0  0  0  0  0  0  0  0  0  0  0  0
   37.9550   27.6900   29.8980 N   0  0  0  0  0  0  0  0  0  0  0  0
   37.5450   28.6450   29.0440 C   0  0  0  0  0  0  0  0  0  0  0  0
   37.7420   28.7830   27.9910 H   0  0  0  0  0  0  0  0  0  0  0  0
   36.7750   29.5030   29.7360 N   0  0  0  0  0  0  0  0  0  0  0  0
   36.6600   29.1480   31.0230 C   0  0  0  0  0  0  0  0  0  0  0  0
   36.0630   29.5560   32.1890 C   0  0  0  0  0  3  0  0  0  0  0  0
   38.5680   26.8960   29.6210 H   0  0  0  0  0  0  0  0  0  0  0  0
  1  3  1  0  0  0  0
  1  2  1  0  0  0  0
  4 12  1  0  0  0  0
  5  1  1  0  0  0  0
  5  4  2  0  0  0  0
  6  5  1  0  0  0  0
  7  6  2  0  0  0  0
  7  8  1  0  0  0  0
  8  9  2  0  0  0  0
  9  4  1  0  0  0  0
 10  6  1  0  0  0  0
 11  8  1  0  0  0  0
 12 13  1  0  0  0  0
 12 14  1  0  0  0  0
 13 17  1  0  0  0  0
 13 14  1  0  0  0  0
 14 19  1  0  0  0  0
 14 18  1  0  0  0  0
 15 12  1  0  0  0  0
 16 13  1  0  0  0  0
 20 22  1  0  0  0  0
 20  1  1  0  0  0  0
 21 20  1  0  0  0  0
 23 24  1  0  0  0  0
 24 20  1  0  0  0  0
 25 26  1  0  0  0  0
 25 24  2  0  0  0  0
 27 25  1  0  0  0  0
 28 27  1  0  0  0  0
 29 31  2  0  0  0  0
 29 28  1  0  0  0  0
 30 29  1  0  0  0  0
 31 32  1  0  0  0  0
 32 27  2  0  0  0  0
 32 33  1  0  0  0  0
 33 23  2  0  0  0  0
 34 28  1  0  0  0  0
M  END
>  <minimizedAffinity>
-5.29845238

$$$$

 OpenBabel03272508193D

 34 37  0  0  0  0  0  0  0  0999 V2000
   38.6820   25.8430   35.3760 C   0  0  0  0  0  0  0  0  0  0  0  0
   39.1060   25.8160   36.4420 H   0  0  0  0  0  0  0  0  0  0  0  0
   39.5980   26.0330   34.7700 H   0  0  0  0  0  0  0  0  0  0  0  0
   38.0190   23.5380   36.1110 C   0  0  0  0  0  0  0  0  0  0  0  0
   38.2580   24.4840   35.1040 C   0  0  0  0  0  0  0  0  0  0  0  0
   38.1170   24.0110   33.8270 C   0  0  0  0  0  0  0  0  0  0  0  0
   37.7690   22.7180   33.5790 N   0  0  0  0  0  0  0  0  0  0  0  0
   37.5470   21.8310   34.5820 C   0  0  0  0  0  0  0  0  0  0  0  0
   37.6710   22.2360   35.8380 N   0  0  0  0  0  0  0  0  0  0  0  0
   38.2640   24.5170   32.9280 H   0  0  0  0  0  0  0  0  0  0  0  0
   37.2720   20.8000   34.4110 H   0  0  0  0  0  0  0  0  0  0  0  0
   38.0900   24.0370   37.5510 C   0  0  0  0  0  0  0  0  0  0  0  0
   37.7890   23.1920   38.6470 C   0  0  0  0  0  0  0  0  0  0  0  0
   39.2580   23.2800   38.2720 C   0  0  0  0  0  0  0  0  0  0  0  0
   38.3520   25.1160   37.6640 H   0  0  0  0  0  0  0  0  0  0  0  0
   37.3290   22.1870   38.5610 H   0  0  0  0  0  0  0  0  0  0  0  0
   37.4750   23.6790   39.6120 H   0  0  0  0  0  0  0  0  0  0  0  0
   39.9190   23.8290   38.9320 H   0  0  0  0  0  0  0  0  0  0  0  0
   39.7030   22.4200   37.7870 H   0  0  0  0  0  0  0  0  0  0  0  0
   37.7140   26.9360   35.3810 C   0  0  0  0  0  0  0  0  0  0  0  0
   36.7640   26.5220   35.8410 H   0  0  0  0  0  0  0  0  0  0  0  0
   37.9630   27.7490   36.1440 H   0  0  0  0  0  0  0  0  0  0  0  0
   36.2830   28.4480   34.2390 C   0  0  0  0  0  3  0  0  0  0  0  0
   37.3680   27.5550   34.0860 C   0  0  0  0  0  0  0  0  0  0  0  0
   37.8100   27.5370   32.7850 C   0  0  0  0  0  0  0  0  0  0  0  0
   38.6360   26.8900   32.6540 H   0  0  0  0  0  0  0  0  0  0  0  0
   37.2720   28.2830   31.7690 C   0  0  0  0  0  0  0  0  0  0  0  0
   37.6840   28.2830   30.4890 N   0  0  0  0  0  0  0  0  0  0  0  0
   36.8860   29.1500   29.8410 C   0  0  0  0  0  0  0  0  0  0  0  0
   36.8680   29.4530   28.8030 H   0  0  0  0  0  0  0  0  0  0  0  0
   36.0180   29.6500   30.7370 N   0  0  0  0  0  0  0  0  0  0  0  0
   36.2130   29.1420   31.9610 C   0  0  0  0  0  0  0  0  0  0  0  0
   35.7120   29.2200   33.2360 C   0  0  0  0  0  3  0  0  0  0  0  0
   38.4490   27.7510   30.0280 H   0  0  0  0  0  0  0  0  0  0  0  0
  1 20  1  0  0  0  0
  1  2  1  0  0  0  0
  3  1  1  0  0  0  0
  4 12  1  0  0  0  0
  5  1  1  0  0  0  0
  5  4  2  0  0  0  0
  6  5  1  0  0  0  0
  7  6  2  0  0  0  0
  7  8  1  0  0  0  0
  8  9  2  0  0  0  0
  9  4  1  0  0  0  0
 10  6  1  0  0  0  0
 11  8  1  0  0  0  0
 12 15  1  0  0  0  0
 12 14  1  0  0  0  0
 12 13  1  0  0  0  0
 13 17  1  0  0  0  0
 14 13  1  0  0  0  0
 14 18  1  0  0  0  0
 16 13  1  0  0  0  0
 19 14  1  0  0  0  0
 20 21  1  0  0  0  0
 20 22  1  0  0  0  0
 24 23  1  0  0  0  0
 24 20  1  0  0  0  0
 25 24  2  0  0  0  0
 26 25  1  0  0  0  0
 27 32  2  0  0  0  0
 27 25  1  0  0  0  0
 28 27  1  0  0  0  0
 29 28  1  0  0  0  0
 29 31  2  0  0  0  0
 30 29  1  0  0  0  0
 31 32  1  0  0  0  0
 32 33  1  0  0  0  0
 33 23  2  0  0  0  0
 34 28  1  0  0  0  0
M  END
>  <minimizedAffinity>
-5.22838831

$$$$

 OpenBabel03272508193D

 34 37  0  0  0  0  0  0  0  0999 V2000
   37.9950   26.6430   34.0460 C   0  0  0  0  0  0  0  0  0  0  0  0
   39.0460   26.2920   33.7480 H   0  0  0  0  0  0  0  0  0  0  0  0
   38.0930   27.7510   33.9720 H   0  0  0  0  0  0  0  0  0  0  0  0
   36.3430   27.0970   32.2140 C   0  0  0  0  0  0  0  0  0  0  0  0
   37.1320   26.2130   32.9630 C   0  0  0  0  0  0  0  0  0  0  0  0
   36.9850   24.8920   32.6350 C   0  0  0  0  0  0  0  0  0  0  0  0
   36.1330   24.4920   31.6510 N   0  0  0  0  0  0  0  0  0  0  0  0
   35.3840   25.3780   30.9480 C   0  0  0  0  0  0  0  0  0  0  0  0
   35.4870   26.6700   31.2260 N   0  0  0  0  0  0  0  0  0  0  0  0
   37.4450   24.0620   33.0650 H   0  0  0  0  0  0  0  0  0  0  0  0
   34.7000   25.0850   30.1650 H   0  0  0  0  0  0  0  0  0  0  0  0
   36.5280   28.5850   32.4910 C   0  0  0  0  0  0  0  0  0  0  0  0
   35.6330   29.5550   31.9780 C   0  0  0  0  0  0  0  0  0  0  0  0
   35.3320   29.0670   33.3840 C   0  0  0  0  0  0  0  0  0  0  0  0
   37.4360   28.8450   33.0860 H   0  0  0  0  0  0  0  0  0  0  0  0
   34.8490   29.3520   31.2200 H   0  0  0  0  0  0  0  0  0  0  0  0
   36.0110   30.6100   31.8700 H   0  0  0  0  0  0  0  0  0  0  0  0
   35.5250   29.7440   34.2080 H   0  0  0  0  0  0  0  0  0  0  0  0
   34.4800   28.4120   33.5160 H   0  0  0  0  0  0  0  0  0  0  0  0
   37.7950   26.1360   35.4010 C   0  0  0  0  0  0  0  0  0  0  0  0
   37.9300   27.0200   36.0980 H   0  0  0  0  0  0  0  0  0  0  0  0
   36.7050   25.8760   35.6220 H   0  0  0  0  0  0  0  0  0  0  0  0
   38.1770   24.4840   37.0630 C   0  0  0  0  0  3  0  0  0  0  0  0
   38.6730   25.0430   35.8640 C   0  0  0  0  0  0  0  0  0  0  0  0
   39.8140   24.3960   35.4550 C   0  0  0  0  0  0  0  0  0  0  0  0
   40.1900   24.7870   34.5480 H   0  0  0  0  0  0  0  0  0  0  0  0
   40.3970   23.3490   36.1200 C   0  0  0  0  0  0  0  0  0  0  0  0
   41.5120   22.7000   35.7440 N   0  0  0  0  0  0  0  0  0  0  0  0
   41.7240   21.7520   36.6750 C   0  0  0  0  0  0  0  0  0  0  0  0
   42.5050   21.0100   36.7610 H   0  0  0  0  0  0  0  0  0  0  0  0
   40.7400   21.8510   37.5850 N   0  0  0  0  0  0  0  0  0  0  0  0
   39.8800   22.8340   37.2890 C   0  0  0  0  0  0  0  0  0  0  0  0
   38.7360   23.4250   37.7650 C   0  0  0  0  0  3  0  0  0  0  0  0
   42.1300   22.8450   34.9200 H   0  0  0  0  0  0  0  0  0  0  0  0
  1 20  1  0  0  0  0
  2  1  1  0  0  0  0
  3  1  1  0  0  0  0
  4 12  1  0  0  0  0
  4  5  1  0  0  0  0
  5  1  1  0  0  0  0
  6  5  2  0  0  0  0
  6 10  1  0  0  0  0
  7  6  1  0  0  0  0
  8  9  1  0  0  0  0
  8  7  2  0  0  0  0
  9  4  2  0  0  0  0
 11  8  1  0  0  0  0
 12 15  1  0  0  0  0
 12 14  1  0  0  0  0
 13 12  1  0  0  0  0
 13 14  1  0  0  0  0
 14 19  1  0  0  0  0
 14 18  1  0  0  0  0
 16 13  1  0  0  0  0
 17 13  1  0  0  0  0
 20 22  1  0  0  0  0
 20 24  1  0  0  0  0
 20 21  1  0  0  0  0
 23 33  1  0  0  0  0
 24 23  2  0  0  0  0
 25 24  1  0  0  0  0
 25 27  2  0  0  0  0
 26 25  1  0  0  0  0
 27 32  1  0  0  0  0
 28 27  1  0  0  0  0
 28 29  1  0  0  0  0
 29 30  1  0  0  0  0
 29 31  2  0  0  0  0
 32 31  1  0  0  0  0
 32 33  2  0  0  0  0
 34 28  1  0  0  0  0
M  END
>  <minimizedAffinity>
-5.18636751

$$$$

 OpenBabel03272508193D

 34 37  0  0  0  0  0  0  0  0999 V2000
   36.0920   28.7220   33.7110 C   0  0  0  0  0  0  0  0  0  0  0  0
   36.9040   29.4020   34.1510 H   0  0  0  0  0  0  0  0  0  0  0  0
   35.9310   27.9920   34.5390 H   0  0  0  0  0  0  0  0  0  0  0  0
   34.6930   30.6650   34.4570 C   0  0  0  0  0  0  0  0  0  0  0  0
   34.9060   29.5520   33.6310 C   0  0  0  0  0  0  0  0  0  0  0  0
   33.8790   29.2660   32.7740 C   0  0  0  0  0  0  0  0  0  0  0  0
   32.7450   30.0210   32.7420 N   0  0  0  0  0  0  0  0  0  0  0  0
   32.5740   31.0910   33.5580 C   0  0  0  0  0  0  0  0  0  0  0  0
   33.5390   31.4120   34.4090 N   0  0  0  0  0  0  0  0  0  0  0  0
   33.8020   28.4830   32.0910 H   0  0  0  0  0  0  0  0  0  0  0  0
   31.6840   31.7040   33.5520 H   0  0  0  0  0  0  0  0  0  0  0  0
   35.8410   31.0680   35.3760 C   0  0  0  0  0  0  0  0  0  0  0  0
   36.1930   32.4260   35.5750 C   0  0  0  0  0  0  0  0  0  0  0  0
   35.2370   31.8410   36.5990 C   0  0  0  0  0  0  0  0  0  0  0  0
   36.3970   30.2170   35.8370 H   0  0  0  0  0  0  0  0  0  0  0  0
   35.8010   33.2730   34.9770 H   0  0  0  0  0  0  0  0  0  0  0  0
   37.2420   32.6480   35.9190 H   0  0  0  0  0  0  0  0  0  0  0  0
   35.6180   31.6410   37.5940 H   0  0  0  0  0  0  0  0  0  0  0  0
   34.2030   32.1600   36.5580 H   0  0  0  0  0  0  0  0  0  0  0  0
   36.6840   28.1550   32.5030 C   0  0  0  0  0  0  0  0  0  0  0  0
   36.2100   28.6980   31.6270 H   0  0  0  0  0  0  0  0  0  0  0  0
   37.7750   28.4600   32.3560 H   0  0  0  0  0  0  0  0  0  0  0  0
   35.5270   26.4490   31.3240 C   0  0  0  0  0  3  0  0  0  0  0  0
   36.5370   26.7020   32.2790 C   0  0  0  0  0  0  0  0  0  0  0  0
   37.1130   25.5310   32.7090 C   0  0  0  0  0  0  0  0  0  0  0  0
   37.8860   25.7010   33.4100 H   0  0  0  0  0  0  0  0  0  0  0  0
   36.7570   24.2820   32.2710 C   0  0  0  0  0  0  0  0  0  0  0  0
   37.3020   23.1220   32.6750 N   0  0  0  0  0  0  0  0  0  0  0  0
   36.6600   22.1520   31.9980 C   0  0  0  0  0  0  0  0  0  0  0  0
   36.7820   21.0790   32.0180 H   0  0  0  0  0  0  0  0  0  0  0  0
   35.7500   22.7460   31.2080 N   0  0  0  0  0  0  0  0  0  0  0  0
   35.7650   24.0790   31.3370 C   0  0  0  0  0  0  0  0  0  0  0  0
   35.1390   25.2010   30.8560 C   0  0  0  0  0  3  0  0  0  0  0  0
   38.0620   22.9370   33.3620 H   0  0  0  0  0  0  0  0  0  0  0  0
  1  2  1  0  0  0  0
  1  3  1  0  0  0  0
  4 12  1  0  0  0  0
  5  1  1  0  0  0  0
  5  4  2  0  0  0  0
  6  5  1  0  0  0  0
  7  6  2  0  0  0  0
  7  8  1  0  0  0  0
  8  9  2  0  0  0  0
  9  4  1  0  0  0  0
 10  6  1  0  0  0  0
 11  8  1  0  0  0  0
 12 13  1  0  0  0  0
 12 15  1  0  0  0  0
 12 14  1  0  0  0  0
 13 17  1  0  0  0  0
 13 14  1  0  0  0  0
 14 18  1  0  0  0  0
 16 13  1  0  0  0  0
 19 14  1  0  0  0  0
 20  1  1  0  0  0  0
 21 20  1  0  0  0  0
 22 20  1  0  0  0  0
 23 24  1  0  0  0  0
 24 20  1  0  0  0  0
 24 25  2  0  0  0  0
 25 26  1  0  0  0  0
 27 28  1  0  0  0  0
 27 25  1  0  0  0  0
 28 34  1  0  0  0  0
 29 30  1  0  0  0  0
 29 28  1  0  0  0  0
 31 32  1  0  0  0  0
 31 29  2  0  0  0  0
 32 27  2  0  0  0  0
 33 23  2  0  0  0  0
 33 32  1  0  0  0  0
M  END
>  <minimizedAffinity>
-5.17833185

$$$$

 OpenBabel03272508193D

 34 37  0  0  0  0  0  0  0  0999 V2000
   36.4190   28.4380   32.9310 C   0  0  0  0  0  0  0  0  0  0  0  0
   36.9510   28.7640   33.8940 H   0  0  0  0  0  0  0  0  0  0  0  0
   37.0070   28.9770   32.1510 H   0  0  0  0  0  0  0  0  0  0  0  0
   37.3020   26.2640   33.8150 C   0  0  0  0  0  0  0  0  0  0  0  0
   36.7140   27.0260   32.7950 C   0  0  0  0  0  0  0  0  0  0  0  0
   36.4890   26.3470   31.6280 C   0  0  0  0  0  0  0  0  0  0  0  0
   36.8180   25.0330   31.4920 N   0  0  0  0  0  0  0  0  0  0  0  0
   37.3880   24.3280   32.5020 C   0  0  0  0  0  0  0  0  0  0  0  0
   37.6290   24.9380   33.6550 N   0  0  0  0  0  0  0  0  0  0  0  0
   36.0890   26.7070   30.7360 H   0  0  0  0  0  0  0  0  0  0  0  0
   37.6590   23.2860   32.4180 H   0  0  0  0  0  0  0  0  0  0  0  0
   37.5030   26.9550   35.1590 C   0  0  0  0  0  0  0  0  0  0  0  0
   38.2080   26.3340   36.2180 C   0  0  0  0  0  0  0  0  0  0  0  0
   39.0330   27.2490   35.3320 C   0  0  0  0  0  0  0  0  0  0  0  0
   37.0190   27.9570   35.2510 H   0  0  0  0  0  0  0  0  0  0  0  0
   38.5170   25.2690   36.2310 H   0  0  0  0  0  0  0  0  0  0  0  0
   37.9950   26.6870   37.2660 H   0  0  0  0  0  0  0  0  0  0  0  0
   39.3480   28.2030   35.7400 H   0  0  0  0  0  0  0  0  0  0  0  0
   39.7360   26.7870   34.6500 H   0  0  0  0  0  0  0  0  0  0  0  0
   35.0410   28.8970   33.0830 C   0  0  0  0  0  0  0  0  0  0  0  0
   34.7580   29.3950   32.1050 H   0  0  0  0  0  0  0  0  0  0  0  0
   34.2850   28.0410   33.0940 H   0  0  0  0  0  0  0  0  0  0  0  0
   35.9440   30.3470   34.7320 C   0  0  0  0  0  3  0  0  0  0  0  0
   34.7460   29.8380   34.1830 C   0  0  0  0  0  0  0  0  0  0  0  0
   33.6490   30.3810   34.8070 C   0  0  0  0  0  0  0  0  0  0  0  0
   32.7420   30.0270   34.3960 H   0  0  0  0  0  0  0  0  0  0  0  0
   33.7060   31.2940   35.8280 C   0  0  0  0  0  0  0  0  0  0  0  0
   32.6500   31.8390   36.4560 N   0  0  0  0  0  0  0  0  0  0  0  0
   33.1570   32.6730   37.3820 C   0  0  0  0  0  0  0  0  0  0  0  0
   32.6640   33.3100   38.1030 H   0  0  0  0  0  0  0  0  0  0  0  0
   34.4960   32.6130   37.2910 N   0  0  0  0  0  0  0  0  0  0  0  0
   34.8970   31.7640   36.3350 C   0  0  0  0  0  0  0  0  0  0  0  0
   36.0430   31.2710   35.7630 C   0  0  0  0  0  3  0  0  0  0  0  0
   31.6310   31.6930   36.3100 H   0  0  0  0  0  0  0  0  0  0  0  0
  1 20  1  0  0  0  0
  1  2  1  0  0  0  0
  3  1  1  0  0  0  0
  4 12  1  0  0  0  0
  5  1  1  0  0  0  0
  5  4  2  0  0  0  0
  6  5  1  0  0  0  0
  7  6  2  0  0  0  0
  7  8  1  0  0  0  0
  8  9  2  0  0  0  0
  9  4  1  0  0  0  0
 10  6  1  0  0  0  0
 11  8  1  0  0  0  0
 12 15  1  0  0  0  0
 12 14  1  0  0  0  0
 12 13  1  0  0  0  0
 13 16  1  0  0  0  0
 13 17  1  0  0  0  0
 14 18  1  0  0  0  0
 14 13  1  0  0  0  0
 19 14  1  0  0  0  0
 20 22  1  0  0  0  0
 20 24  1  0  0  0  0
 21 20  1  0  0  0  0
 23 33  1  0  0  0  0
 24 23  2  0  0  0  0
 24 25  1  0  0  0  0
 25 27  2  0  0  0  0
 26 25  1  0  0  0  0
 27 32  1  0  0  0  0
 27 28  1  0  0  0  0
 28 29  1  0  0  0  0
 29 30  1  0  0  0  0
 31 29  2  0  0  0  0
 32 31  1  0  0  0  0
 33 32  2  0  0  0  0
 34 28  1  0  0  0  0
M  END
>  <minimizedAffinity>
-5.1198144

$$$$

 OpenBabel03272508193D

 34 37  0  0  0  0  0  0  0  0999 V2000
   38.8340   24.2120   31.9050 C   0  0  0  0  0  0  0  0  0  0  0  0
   38.6960   23.1300   32.2620 H   0  0  0  0  0  0  0  0  0  0  0  0
   39.3540   24.0670   30.9300 H   0  0  0  0  0  0  0  0  0  0  0  0
   36.3560   23.8770   31.7120 C   0  0  0  0  0  0  0  0  0  0  0  0
   37.4960   24.6880   31.6160 C   0  0  0  0  0  0  0  0  0  0  0  0
   37.2610   25.9590   31.1670 C   0  0  0  0  0  0  0  0  0  0  0  0
   36.0060   26.3820   30.8470 N   0  0  0  0  0  0  0  0  0  0  0  0
   34.9270   25.5670   30.9520 C   0  0  0  0  0  0  0  0  0  0  0  0
   35.0990   24.3250   31.3810 N   0  0  0  0  0  0  0  0  0  0  0  0
   37.9480   26.7240   30.9950 H   0  0  0  0  0  0  0  0  0  0  0  0
   33.9230   25.8800   30.7030 H   0  0  0  0  0  0  0  0  0  0  0  0
   36.5570   22.4760   32.2800 C   0  0  0  0  0  0  0  0  0  0  0  0
   35.4930   21.5450   32.3560 C   0  0  0  0  0  0  0  0  0  0  0  0
   36.3610   21.4460   31.1140 C   0  0  0  0  0  0  0  0  0  0  0  0
   37.5840   22.2650   32.6630 H   0  0  0  0  0  0  0  0  0  0  0  0
   34.4260   21.7900   32.1790 H   0  0  0  0  0  0  0  0  0  0  0  0
   35.5790   20.7130   33.1100 H   0  0  0  0  0  0  0  0  0  0  0  0
   37.0360   20.6020   31.0320 H   0  0  0  0  0  0  0  0  0  0  0  0
   35.9370   21.7890   30.1780 H   0  0  0  0  0  0  0  0  0  0  0  0
   39.6420   24.8530   32.9400 C   0  0  0  0  0  0  0  0  0  0  0  0
   40.7050   24.4860   32.7900 H   0  0  0  0  0  0  0  0  0  0  0  0
   39.7930   25.9700   32.7580 H   0  0  0  0  0  0  0  0  0  0  0  0
   38.6460   25.7690   34.8900 C   0  0  0  0  0  3  0  0  0  0  0  0
   39.2670   24.6210   34.3490 C   0  0  0  0  0  0  0  0  0  0  0  0
   39.3210   23.6080   35.2750 C   0  0  0  0  0  0  0  0  0  0  0  0
   39.7640   22.7320   34.8830 H   0  0  0  0  0  0  0  0  0  0  0  0
   38.8390   23.6970   36.5550 C   0  0  0  0  0  0  0  0  0  0  0  0
   38.8800   22.7230   37.4810 N   0  0  0  0  0  0  0  0  0  0  0  0
   38.3030   23.2320   38.5850 C   0  0  0  0  0  0  0  0  0  0  0  0
   38.1270   22.7930   39.5560 H   0  0  0  0  0  0  0  0  0  0  0  0
   37.9300   24.4920   38.3010 N   0  0  0  0  0  0  0  0  0  0  0  0
   38.2410   24.8370   37.0440 C   0  0  0  0  0  0  0  0  0  0  0  0
   38.1460   25.8970   36.1790 C   0  0  0  0  0  3  0  0  0  0  0  0
   39.2620   21.7570   37.4260 H   0  0  0  0  0  0  0  0  0  0  0  0
  1  2  1  0  0  0  0
  1 20  1  0  0  0  0
  3  1  1  0  0  0  0
  4 12  1  0  0  0  0
  5  4  1  0  0  0  0
  5  1  1  0  0  0  0
  6  5  2  0  0  0  0
  7  8  2  0  0  0  0
  7  6  1  0  0  0  0
  8  9  1  0  0  0  0
  9  4  2  0  0  0  0
 10  6  1  0  0  0  0
 11  8  1  0  0  0  0
 12 13  1  0  0  0  0
 12 15  1  0  0  0  0
 13 17  1  0  0  0  0
 14 12  1  0  0  0  0
 14 13  1  0  0  0  0
 16 13  1  0  0  0  0
 18 14  1  0  0  0  0
 19 14  1  0  0  0  0
 20 24  1  0  0  0  0
 21 20  1  0  0  0  0
 22 20  1  0  0  0  0
 23 33  1  0  0  0  0
 24 23  2  0  0  0  0
 24 25  1  0  0  0  0
 25 27  2  0  0  0  0
 26 25  1  0  0  0  0
 27 32  1  0  0  0  0
 27 28  1  0  0  0  0
 28 29  1  0  0  0  0
 29 30  1  0  0  0  0
 31 29  2  0  0  0  0
 32 31  1  0  0  0  0
 33 32  2  0  0  0  0
 34 28  1  0  0  0  0
M  END
>  <minimizedAffinity>
-5.11428165

$$$$

 OpenBabel03272508193D

 34 37  0  0  0  0  0  0  0  0999 V2000
   37.9130   27.4720   35.4310 C   0  0  0  0  0  0  0  0  0  0  0  0
   37.5860   27.7620   36.4920 H   0  0  0  0  0  0  0  0  0  0  0  0
   38.6650   28.2620   35.1990 H   0  0  0  0  0  0  0  0  0  0  0  0
   39.8760   25.9750   34.9870 C   0  0  0  0  0  0  0  0  0  0  0  0
   38.6330   26.2230   35.5870 C   0  0  0  0  0  0  0  0  0  0  0  0
   38.1130   25.1700   36.2900 C   0  0  0  0  0  0  0  0  0  0  0  0
   38.7730   23.9820   36.3870 N   0  0  0  0  0  0  0  0  0  0  0  0
   39.9750   23.7790   35.7910 C   0  0  0  0  0  0  0  0  0  0  0  0
   40.5230   24.7670   35.0970 N   0  0  0  0  0  0  0  0  0  0  0  0
   37.2030   25.1130   36.7940 H   0  0  0  0  0  0  0  0  0  0  0  0
   40.5160   22.8460   35.8530 H   0  0  0  0  0  0  0  0  0  0  0  0
   40.5310   27.1420   34.2570 C   0  0  0  0  0  0  0  0  0  0  0  0
   41.8670   27.0740   33.7920 C   0  0  0  0  0  0  0  0  0  0  0  0
   40.8020   26.7010   32.7770 C   0  0  0  0  0  0  0  0  0  0  0  0
   39.8950   28.0540   34.1590 H   0  0  0  0  0  0  0  0  0  0  0  0
   42.5860   26.2720   34.0540 H   0  0  0  0  0  0  0  0  0  0  0  0
   42.4140   28.0450   33.6300 H   0  0  0  0  0  0  0  0  0  0  0  0
   40.6020   27.3970   31.9700 H   0  0  0  0  0  0  0  0  0  0  0  0
   40.7030   25.6540   32.5160 H   0  0  0  0  0  0  0  0  0  0  0  0
   36.6950   27.5310   34.6280 C   0  0  0  0  0  0  0  0  0  0  0  0
   36.2530   26.4870   34.6360 H   0  0  0  0  0  0  0  0  0  0  0  0
   35.8510   28.1050   35.1410 H   0  0  0  0  0  0  0  0  0  0  0  0
   36.1960   29.2280   33.0440 C   0  0  0  0  0  3  0  0  0  0  0  0
   36.8160   27.9710   33.2240 C   0  0  0  0  0  0  0  0  0  0  0  0
   37.3790   27.5270   32.0510 C   0  0  0  0  0  0  0  0  0  0  0  0
   37.8660   26.5970   32.1700 H   0  0  0  0  0  0  0  0  0  0  0  0
   37.3430   28.2100   30.8630 C   0  0  0  0  0  0  0  0  0  0  0  0
   37.8830   27.7990   29.7030 N   0  0  0  0  0  0  0  0  0  0  0  0
   37.6160   28.7650   28.8050 C   0  0  0  0  0  0  0  0  0  0  0  0
   37.8650   28.8410   27.7560 H   0  0  0  0  0  0  0  0  0  0  0  0
   36.9270   29.7290   29.4390 N   0  0  0  0  0  0  0  0  0  0  0  0
   36.7260   29.4350   30.7310 C   0  0  0  0  0  0  0  0  0  0  0  0
   36.1400   29.9500   31.8590 C   0  0  0  0  0  3  0  0  0  0  0  0
   38.4090   26.9310   29.4740 H   0  0  0  0  0  0  0  0  0  0  0  0
  1  5  1  0  0  0  0
  1  2  1  0  0  0  0
  3  1  1  0  0  0  0
  4  9  2  0  0  0  0
  4  5  1  0  0  0  0
  5  6  2  0  0  0  0
  6  7  1  0  0  0  0
  6 10  1  0  0  0  0
  8 11  1  0  0  0  0
  8  7  2  0  0  0  0
  9  8  1  0  0  0  0
 12  4  1  0  0  0  0
 13 16  1  0  0  0  0
 13 12  1  0  0  0  0
 14 13  1  0  0  0  0
 14 12  1  0  0  0  0
 15 12  1  0  0  0  0
 17 13  1  0  0  0  0
 18 14  1  0  0  0  0
 19 14  1  0  0  0  0
 20 21  1  0  0  0  0
 20 22  1  0  0  0  0
 20  1  1  0  0  0  0
 23 24  1  0  0  0  0
 24 20  1  0  0  0  0
 25 26  1  0  0  0  0
 25 24  2  0  0  0  0
 27 25  1  0  0  0  0
 28 27  1  0  0  0  0
 29 31  2  0  0  0  0
 29 28  1  0  0  0  0
 30 29  1  0  0  0  0
 31 32  1  0  0  0  0
 32 27  2  0  0  0  0
 32 33  1  0  0  0  0
 33 23  2  0  0  0  0
 34 28  1  0  0  0  0
M  END
>  <minimizedAffinity>
-5.10140848

$$$$

 OpenBabel03272508193D

 34 37  0  0  0  0  0  0  0  0999 V2000
   35.8520   30.8610   35.2810 C   0  0  0  0  0  0  0  0  0  0  0  0
   36.8790   31.1920   34.8910 H   0  0  0  0  0  0  0  0  0  0  0  0
   36.1330   30.1210   36.0660 H   0  0  0  0  0  0  0  0  0  0  0  0
   35.7920   33.3240   35.7480 C   0  0  0  0  0  0  0  0  0  0  0  0
   35.3120   32.0240   35.9570 C   0  0  0  0  0  0  0  0  0  0  0  0
   34.3230   31.9200   36.8980 C   0  0  0  0  0  0  0  0  0  0  0  0
   33.8570   33.0110   37.5660 N   0  0  0  0  0  0  0  0  0  0  0  0
   34.3480   34.2550   37.3380 C   0  0  0  0  0  0  0  0  0  0  0  0
   35.3080   34.4120   36.4370 N   0  0  0  0  0  0  0  0  0  0  0  0
   33.8350   31.0630   37.2340 H   0  0  0  0  0  0  0  0  0  0  0  0
   33.9960   35.1350   37.8560 H   0  0  0  0  0  0  0  0  0  0  0  0
   36.8400   33.5010   34.6550 C   0  0  0  0  0  0  0  0  0  0  0  0
   37.2320   34.7840   34.2000 C   0  0  0  0  0  0  0  0  0  0  0  0
   38.0990   34.1850   35.2930 C   0  0  0  0  0  0  0  0  0  0  0  0
   37.2350   32.5510   34.2210 H   0  0  0  0  0  0  0  0  0  0  0  0
   36.7150   35.7300   34.4600 H   0  0  0  0  0  0  0  0  0  0  0  0
   37.6820   34.8590   33.1710 H   0  0  0  0  0  0  0  0  0  0  0  0
   39.0880   33.8340   35.0220 H   0  0  0  0  0  0  0  0  0  0  0  0
   38.0170   34.6080   36.2870 H   0  0  0  0  0  0  0  0  0  0  0  0
   35.1710   30.2920   34.1210 C   0  0  0  0  0  0  0  0  0  0  0  0
   34.1090   30.0690   34.4500 H   0  0  0  0  0  0  0  0  0  0  0  0
   34.9650   31.0630   33.3040 H   0  0  0  0  0  0  0  0  0  0  0  0
   36.4320   28.3160   34.4960 C   0  0  0  0  0  3  0  0  0  0  0  0
   35.7370   29.0670   33.5220 C   0  0  0  0  0  0  0  0  0  0  0  0
   35.7600   28.4340   32.3020 C   0  0  0  0  0  0  0  0  0  0  0  0
   35.2270   28.9710   31.5640 H   0  0  0  0  0  0  0  0  0  0  0  0
   36.3760   27.2340   32.0600 C   0  0  0  0  0  0  0  0  0  0  0  0
   36.4160   26.5930   30.8790 N   0  0  0  0  0  0  0  0  0  0  0  0
   37.1170   25.4640   31.0900 C   0  0  0  0  0  0  0  0  0  0  0  0
   37.3860   24.6650   30.4140 H   0  0  0  0  0  0  0  0  0  0  0  0
   37.4810   25.4500   32.3830 N   0  0  0  0  0  0  0  0  0  0  0  0
   37.0450   26.5330   33.0400 C   0  0  0  0  0  0  0  0  0  0  0  0
   37.0670   27.0990   34.2900 C   0  0  0  0  0  3  0  0  0  0  0  0
   36.0130   26.8560   29.9570 H   0  0  0  0  0  0  0  0  0  0  0  0
  1  5  1  0  0  0  0
  1  3  1  0  0  0  0
  2  1  1  0  0  0  0
  4  5  2  0  0  0  0
  4  9  1  0  0  0  0
  5  6  1  0  0  0  0
  6 10  1  0  0  0  0
  6  7  2  0  0  0  0
  8  7  1  0  0  0  0
  8 11  1  0  0  0  0
  9  8  2  0  0  0  0
 12 14  1  0  0  0  0
 12  4  1  0  0  0  0
 13 16  1  0  0  0  0
 13 12  1  0  0  0  0
 13 14  1  0  0  0  0
 14 19  1  0  0  0  0
 15 12  1  0  0  0  0
 17 13  1  0  0  0  0
 18 14  1  0  0  0  0
 20 21  1  0  0  0  0
 20  1  1  0  0  0  0
 22 20  1  0  0  0  0
 24 20  1  0  0  0  0
 24 23  2  0  0  0  0
 25 24  1  0  0  0  0
 26 25  1  0  0  0  0
 27 25  2  0  0  0  0
 27 32  1  0  0  0  0
 28 29  1  0  0  0  0
 28 27  1  0  0  0  0
 29 31  2  0  0  0  0
 30 29  1  0  0  0  0
 31 32  1  0  0  0  0
 32 33  2  0  0  0  0
 33 23  1  0  0  0  0
 34 28  1  0  0  0  0
M  END
>  <minimizedAffinity>
-5.09008074

$$$$

 OpenBabel03272508193D

 34 37  0  0  0  0  0  0  0  0999 V2000
   38.1760   26.8800   35.0810 C   0  0  0  0  0  0  0  0  0  0  0  0
   39.1230   26.6080   34.4940 H   0  0  0  0  0  0  0  0  0  0  0  0
   38.5540   27.6670   35.7740 H   0  0  0  0  0  0  0  0  0  0  0  0
   37.4790   27.4150   32.7330 C   0  0  0  0  0  0  0  0  0  0  0  0
   37.3090   27.5310   34.1190 C   0  0  0  0  0  0  0  0  0  0  0  0
   36.2920   28.3610   34.5070 C   0  0  0  0  0  0  0  0  0  0  0  0
   35.5150   29.0110   33.5960 N   0  0  0  0  0  0  0  0  0  0  0  0
   35.7100   28.8730   32.2600 C   0  0  0  0  0  0  0  0  0  0  0  0
   36.6840   28.0830   31.8310 N   0  0  0  0  0  0  0  0  0  0  0  0
   35.9960   28.6170   35.4720 H   0  0  0  0  0  0  0  0  0  0  0  0
   35.1090   29.3790   31.5190 H   0  0  0  0  0  0  0  0  0  0  0  0
   38.5500   26.4430   32.2510 C   0  0  0  0  0  0  0  0  0  0  0  0
   38.9520   26.3900   30.8940 C   0  0  0  0  0  0  0  0  0  0  0  0
   39.7940   27.2790   31.7900 C   0  0  0  0  0  0  0  0  0  0  0  0
   38.9550   25.7600   33.0360 H   0  0  0  0  0  0  0  0  0  0  0  0
   38.4290   26.9020   30.0610 H   0  0  0  0  0  0  0  0  0  0  0  0
   39.4240   25.4360   30.5260 H   0  0  0  0  0  0  0  0  0  0  0  0
   40.7890   26.9390   32.0530 H   0  0  0  0  0  0  0  0  0  0  0  0
   39.6910   28.3510   31.6730 H   0  0  0  0  0  0  0  0  0  0  0  0
   37.7630   25.6390   35.7310 C   0  0  0  0  0  0  0  0  0  0  0  0
   37.2710   25.9360   36.7090 H   0  0  0  0  0  0  0  0  0  0  0  0
   36.8790   25.1370   35.2110 H   0  0  0  0  0  0  0  0  0  0  0  0
   39.9260   24.8250   35.1850 C   0  0  0  0  0  3  0  0  0  0  0  0
   38.8060   24.6360   36.0260 C   0  0  0  0  0  0  0  0  0  0  0  0
   39.0140   23.5920   36.8960 C   0  0  0  0  0  0  0  0  0  0  0  0
   38.1950   23.4470   37.5480 H   0  0  0  0  0  0  0  0  0  0  0  0
   40.1550   22.8340   36.9420 C   0  0  0  0  0  0  0  0  0  0  0  0
   40.3840   21.8080   37.7800 N   0  0  0  0  0  0  0  0  0  0  0  0
   41.6150   21.3520   37.4850 C   0  0  0  0  0  0  0  0  0  0  0  0
   42.1890   20.5440   37.9140 H   0  0  0  0  0  0  0  0  0  0  0  0
   42.0960   22.1080   36.4830 N   0  0  0  0  0  0  0  0  0  0  0  0
   41.2240   23.0520   36.1030 C   0  0  0  0  0  0  0  0  0  0  0  0
   41.0960   24.0800   35.2030 C   0  0  0  0  0  3  0  0  0  0  0  0
   39.7830   21.3980   38.5240 H   0  0  0  0  0  0  0  0  0  0  0  0
  1 20  1  0  0  0  0
  1  3  1  0  0  0  0
  2  1  1  0  0  0  0
  4  5  1  0  0  0  0
  5  6  2  0  0  0  0
  5  1  1  0  0  0  0
  6 10  1  0  0  0  0
  7  6  1  0  0  0  0
  8  7  2  0  0  0  0
  9  8  1  0  0  0  0
  9  4  2  0  0  0  0
 11  8  1  0  0  0  0
 12  4  1  0  0  0  0
 12 15  1  0  0  0  0
 13 14  1  0  0  0  0
 13 12  1  0  0  0  0
 14 18  1  0  0  0  0
 14 12  1  0  0  0  0
 16 13  1  0  0  0  0
 17 13  1  0  0  0  0
 19 14  1  0  0  0  0
 20 24  1  0  0  0  0
 20 21  1  0  0  0  0
 22 20  1  0  0  0  0
 23 33  2  0  0  0  0
 23 24  1  0  0  0  0
 24 25  2  0  0  0  0
 25 27  1  0  0  0  0
 25 26  1  0  0  0  0
 27 28  1  0  0  0  0
 28 34  1  0  0  0  0
 29 28  1  0  0  0  0
 29 30  1  0  0  0  0
 31 29  2  0  0  0  0
 32 31  1  0  0  0  0
 32 27  2  0  0  0  0
 33 32  1  0  0  0  0
M  END
>  <minimizedAffinity>
-5.08525133

$$$$
