
 OpenBabel03272500383D

 39 42  0  0  1  0  0  0  0  0999 V2000
   37.2580   30.5590   49.2430 C   0  0  0  0  0  0  0  0  0  0  0  0
   37.3020   31.7490   49.9720 C   0  0  0  0  0  0  0  0  0  0  0  0
   37.8870   32.8700   49.3660 C   0  0  0  0  0  0  0  0  0  0  0  0
   38.3690   32.7090   48.0990 N   0  0  0  0  0  0  0  0  0  0  0  0
   38.3070   31.5370   47.4230 C   0  0  0  0  0  0  0  0  0  0  0  0
   37.7490   30.4750   48.0100 N   0  0  0  0  0  0  0  0  0  0  0  0
   38.8500   31.5000   46.1020 N   0  0  0  0  0  0  0  0  0  0  0  0
   40.2450   31.1580   45.9380 C   0  0  0  0  0  0  0  0  0  0  0  0
   40.7780   32.1630   44.9230 C   0  0  0  0  0  0  0  0  0  0  0  0
   40.1120   31.7870   43.6170 C   0  0  0  0  0  0  0  0  0  0  0  0
   38.6670   32.1560   43.7280 C   0  0  0  0  0  0  0  0  0  0  0  0
   38.0010   31.7970   45.0120 C   0  0  1  0  0  0  0  0  0  0  0  0
   36.9140   31.8340   50.9610 H   0  0  0  0  0  0  0  0  0  0  0  0
   37.9600   33.8270   49.8650 H   0  0  0  0  0  0  0  0  0  0  0  0
   40.3540   30.1620   45.4780 H   0  0  0  0  0  0  0  0  0  0  0  0
   40.8130   31.2130   46.8900 H   0  0  0  0  0  0  0  0  0  0  0  0
   40.3910   33.1510   45.2190 H   0  0  0  0  0  0  0  0  0  0  0  0
   41.8850   32.1200   44.8610 H   0  0  0  0  0  0  0  0  0  0  0  0
   40.5420   32.3490   42.7630 H   0  0  0  0  0  0  0  0  0  0  0  0
   40.2610   30.6950   43.4910 H   0  0  0  0  0  0  0  0  0  0  0  0
   38.1440   31.6610   42.8690 H   0  0  0  0  0  0  0  0  0  0  0  0
   38.6010   33.2390   43.4850 H   0  0  0  0  0  0  0  0  0  0  0  0
   37.4070   32.7080   45.3230 H   0  0  0  0  0  0  0  0  0  0  0  0
   37.1060   29.7920   43.7780 C   0  0  0  0  0  0  0  0  0  0  0  0
   36.9770   30.7420   44.7730 C   0  0  0  0  0  0  0  0  0  0  0  0
   35.8200   30.6460   45.5400 C   0  0  0  0  0  0  0  0  0  0  0  0
   35.6540   31.3620   46.3410 H   0  0  0  0  0  0  0  0  0  0  0  0
   34.8680   29.6720   45.3240 C   0  0  0  0  0  0  0  0  0  0  0  0
   33.6880   29.4140   45.9540 N   0  0  0  0  0  0  0  0  0  0  0  0
   33.1670   28.3340   45.3190 C   0  0  0  0  0  0  0  0  0  0  0  0
   32.2120   27.9020   45.6170 H   0  0  0  0  0  0  0  0  0  0  0  0
   33.9760   27.9230   44.3300 N   0  0  0  0  0  0  0  0  0  0  0  0
   35.0340   28.7420   44.3190 C   0  0  0  0  0  0  0  0  0  0  0  0
   36.1700   28.8070   43.5390 C   0  0  0  0  0  0  0  0  0  0  0  0
   33.2700   29.9350   46.7560 H   0  0  0  0  0  0  0  0  0  0  0  0
   36.6340   29.3540   49.8840 C   0  0  0  0  0  0  0  0  0  0  0  0
   35.7980   29.7550   50.9260 F   0  0  0  0  0  0  0  0  0  0  0  0
   36.0030   28.6260   48.9260 F   0  0  0  0  0  0  0  0  0  0  0  0
   37.6580   28.6290   50.4770 F   0  0  0  0  0  0  0  0  0  0  0  0
  1 36  1  0  0  0  0
  1  2  1  0  0  0  0
  2 13  1  0  0  0  0
  3 14  1  0  0  0  0
  3  2  2  0  0  0  0
  4  3  1  0  0  0  0
  5  6  1  0  0  0  0
  5  4  2  0  0  0  0
  6  1  2  0  0  0  0
  7  5  1  0  0  0  0
  8  7  1  0  0  0  0
  8 16  1  0  0  0  0
  9 17  1  0  0  0  0
  9  8  1  0  0  0  0
 10 11  1  0  0  0  0
 10  9  1  0  0  0  0
 11 12  1  0  0  0  0
 12 23  1  1  0  0  0
 12  7  1  0  0  0  0
 15  8  1  0  0  0  0
 18  9  1  0  0  0  0
 19 10  1  0  0  0  0
 20 10  1  0  0  0  0
 21 11  1  0  0  0  0
 22 11  1  0  0  0  0
 24 25  1  0  0  0  0
 25 12  1  0  0  0  0
 25 26  2  0  0  0  0
 26 27  1  0  0  0  0
 28 26  1  0  0  0  0
 28 29  1  0  0  0  0
 29 35  1  0  0  0  0
 30 31  1  0  0  0  0
 30 29  1  0  0  0  0
 32 30  2  0  0  0  0
 33 32  1  0  0  0  0
 33 28  2  0  0  0  0
 34 24  2  0  0  0  0
 34 33  1  0  0  0  0
 36 39  1  0  0  0  0
 36 37  1  0  0  0  0
 38 36  1  0  0  0  0
M  END
>  <minimizedAffinity>
-6.75047112

>  <minimizedRMSD>
1.21898663

$$$$
