
 OpenBabel03272503073D

 35 38  0  0  0  0  0  0  0  0999 V2000
   40.1120   23.7880   34.7930 F   0  0  0  0  0  0  0  0  0  0  0  0
   39.5770   23.7000   36.0450 C   0  0  0  0  0  0  0  0  0  0  0  0
   40.2780   23.0590   37.0290 C   0  0  0  0  0  0  0  0  0  0  0  0
   39.6810   23.0090   38.2610 C   0  0  0  0  0  0  0  0  0  0  0  0
   38.4530   23.5600   38.5300 C   0  0  0  0  0  0  0  0  0  0  0  0
   37.7740   24.2000   37.5090 C   0  0  0  0  0  0  0  0  0  0  0  0
   38.3430   24.2710   36.2540 C   0  0  0  0  0  0  0  0  0  0  0  0
   40.2430   22.4940   39.0550 H   0  0  0  0  0  0  0  0  0  0  0  0
   38.0670   23.4660   39.5410 H   0  0  0  0  0  0  0  0  0  0  0  0
   36.8090   24.6310   37.7230 H   0  0  0  0  0  0  0  0  0  0  0  0
   43.9260   22.6870   36.1060 C   0  0  0  0  0  0  0  0  0  0  0  0
   42.6810   23.2690   36.4190 C   0  0  0  0  0  0  0  0  0  0  0  0
   41.5810   22.4880   36.7000 C   0  0  0  0  0  0  0  0  0  0  0  0
   41.7570   21.1360   36.6590 N   0  0  0  0  0  0  0  0  0  0  0  0
   42.9450   20.5820   36.3590 C   0  0  0  0  0  0  0  0  0  0  0  0
   44.0040   21.3440   36.0890 N   0  0  0  0  0  0  0  0  0  0  0  0
   44.7590   23.3590   35.8920 H   0  0  0  0  0  0  0  0  0  0  0  0
   42.5050   24.3330   36.4610 H   0  0  0  0  0  0  0  0  0  0  0  0
   42.9860   19.5000   36.3510 H   0  0  0  0  0  0  0  0  0  0  0  0
   37.9250   26.3270   35.0940 C   0  0  0  0  0  0  0  0  0  0  0  0
   38.7000   26.7850   35.9840 O   0  0  0  0  0  0  0  0  0  0  0  0
   37.6670   24.9260   35.1740 N   0  0  0  0  0  0  0  0  0  0  0  0
   37.0400   24.5120   34.4750 H   0  0  0  0  0  0  0  0  0  0  0  0
   36.4370   28.1260   34.5450 C   0  0  0  0  0  3  0  0  0  0  0  0
   37.3800   27.2210   34.1000 C   0  0  0  0  0  0  0  0  0  0  0  0
   37.7940   27.1550   32.7860 C   0  0  0  0  0  0  0  0  0  0  0  0
   38.5320   26.4460   32.4370 H   0  0  0  0  0  0  0  0  0  0  0  0
   37.2470   28.0290   31.8630 C   0  0  0  0  0  0  0  0  0  0  0  0
   37.4480   28.1980   30.5450 N   0  0  0  0  0  0  0  0  0  0  0  0
   36.6490   29.1940   30.1510 C   0  0  0  0  0  0  0  0  0  0  0  0
   36.6210   29.5280   29.1200 H   0  0  0  0  0  0  0  0  0  0  0  0
   35.9510   29.6500   31.2010 N   0  0  0  0  0  0  0  0  0  0  0  0
   36.3040   28.9350   32.3060 C   0  0  0  0  0  0  0  0  0  0  0  0
   35.8780   29.0140   33.6200 C   0  0  0  0  0  3  0  0  0  0  0  0
   38.1180   27.6270   29.9830 H   0  0  0  0  0  0  0  0  0  0  0  0
  1  2  1  0  0  0  0
  2  7  2  0  0  0  0
  2  3  1  0  0  0  0
  3  4  2  0  0  0  0
  4  5  1  0  0  0  0
  4  8  1  0  0  0  0
  5  9  1  0  0  0  0
  6 10  1  0  0  0  0
  6  5  2  0  0  0  0
  7  6  1  0  0  0  0
 11 12  1  0  0  0  0
 12 18  1  0  0  0  0
 12 13  2  0  0  0  0
 13  3  1  0  0  0  0
 14 13  1  0  0  0  0
 15 14  2  0  0  0  0
 16 11  2  0  0  0  0
 16 15  1  0  0  0  0
 17 11  1  0  0  0  0
 19 15  1  0  0  0  0
 20 22  1  0  0  0  0
 20 21  2  0  0  0  0
 22  7  1  0  0  0  0
 23 22  1  0  0  0  0
 25 24  1  0  0  0  0
 25 20  1  0  0  0  0
 26 25  2  0  0  0  0
 27 26  1  0  0  0  0
 28 33  2  0  0  0  0
 28 26  1  0  0  0  0
 29 28  1  0  0  0  0
 30 29  1  0  0  0  0
 30 32  2  0  0  0  0
 31 30  1  0  0  0  0
 32 33  1  0  0  0  0
 33 34  1  0  0  0  0
 34 24  2  0  0  0  0
 35 29  1  0  0  0  0
M  END
>  <minimizedAffinity>
-6.35480976

$$$$

 OpenBabel03272503073D

 35 38  0  0  0  0  0  0  0  0999 V2000
   36.4990   27.5370   35.2790 F   0  0  0  0  0  0  0  0  0  0  0  0
   36.6440   27.8870   33.9690 C   0  0  0  0  0  0  0  0  0  0  0  0
   36.0440   29.0270   33.5090 C   0  0  0  0  0  0  0  0  0  0  0  0
   36.2320   29.3170   32.1850 C   0  0  0  0  0  0  0  0  0  0  0  0
   36.9730   28.5340   31.3360 C   0  0  0  0  0  0  0  0  0  0  0  0
   37.5650   27.3880   31.8360 C   0  0  0  0  0  0  0  0  0  0  0  0
   37.3990   27.0620   33.1670 C   0  0  0  0  0  0  0  0  0  0  0  0
   35.7500   30.2340   31.8120 H   0  0  0  0  0  0  0  0  0  0  0  0
   37.0610   28.8520   30.3010 H   0  0  0  0  0  0  0  0  0  0  0  0
   38.1470   26.7740   31.1680 H   0  0  0  0  0  0  0  0  0  0  0  0
   35.0550   31.5720   36.1270 C   0  0  0  0  0  0  0  0  0  0  0  0
   35.8350   30.8100   35.2320 C   0  0  0  0  0  0  0  0  0  0  0  0
   35.2650   29.8320   34.4460 C   0  0  0  0  0  0  0  0  0  0  0  0
   33.9210   29.6400   34.5770 N   0  0  0  0  0  0  0  0  0  0  0  0
   33.1780   30.3660   35.4310 C   0  0  0  0  0  0  0  0  0  0  0  0
   33.7360   31.3100   36.1870 N   0  0  0  0  0  0  0  0  0  0  0  0
   35.5640   32.3310   36.7220 H   0  0  0  0  0  0  0  0  0  0  0  0
   36.8990   30.9350   35.1020 H   0  0  0  0  0  0  0  0  0  0  0  0
   32.1200   30.1390   35.4650 H   0  0  0  0  0  0  0  0  0  0  0  0
   39.2740   26.1060   34.3160 C   0  0  0  0  0  0  0  0  0  0  0  0
   39.6910   27.3010   34.2670 O   0  0  0  0  0  0  0  0  0  0  0  0
   37.9970   25.8830   33.7190 N   0  0  0  0  0  0  0  0  0  0  0  0
   37.6210   24.9280   33.7300 H   0  0  0  0  0  0  0  0  0  0  0  0
   41.4450   25.1730   34.7180 C   0  0  0  0  0  3  0  0  0  0  0  0
   40.0870   25.0960   34.9500 C   0  0  0  0  0  0  0  0  0  0  0  0
   39.5150   24.1180   35.7370 C   0  0  0  0  0  0  0  0  0  0  0  0
   38.4500   24.0570   35.9180 H   0  0  0  0  0  0  0  0  0  0  0  0
   40.3290   23.1680   36.3260 C   0  0  0  0  0  0  0  0  0  0  0  0
   40.0670   22.1190   37.1260 N   0  0  0  0  0  0  0  0  0  0  0  0
   41.2350   21.5350   37.4030 C   0  0  0  0  0  0  0  0  0  0  0  0
   41.2970   20.6560   38.0350 H   0  0  0  0  0  0  0  0  0  0  0  0
   42.2250   22.2000   36.7900 N   0  0  0  0  0  0  0  0  0  0  0  0
   41.6890   23.2430   36.0970 C   0  0  0  0  0  0  0  0  0  0  0  0
   42.2770   24.2170   35.3100 C   0  0  0  0  0  3  0  0  0  0  0  0
   39.1060   21.8570   37.4400 H   0  0  0  0  0  0  0  0  0  0  0  0
  2  1  1  0  0  0  0
  3  2  1  0  0  0  0
  3 13  1  0  0  0  0
  4  3  2  0  0  0  0
  5  6  2  0  0  0  0
  5  4  1  0  0  0  0
  6  7  1  0  0  0  0
  7 22  1  0  0  0  0
  7  2  2  0  0  0  0
  8  4  1  0  0  0  0
  9  5  1  0  0  0  0
 10  6  1  0  0  0  0
 11 16  1  0  0  0  0
 11 17  1  0  0  0  0
 12 11  2  0  0  0  0
 13 14  2  0  0  0  0
 13 12  1  0  0  0  0
 14 15  1  0  0  0  0
 15 19  1  0  0  0  0
 15 16  2  0  0  0  0
 18 12  1  0  0  0  0
 20 25  1  0  0  0  0
 21 20  2  0  0  0  0
 22 23  1  0  0  0  0
 22 20  1  0  0  0  0
 24 25  2  0  0  0  0
 24 34  1  0  0  0  0
 25 26  1  0  0  0  0
 26 27  1  0  0  0  0
 26 28  2  0  0  0  0
 28 29  1  0  0  0  0
 29 30  1  0  0  0  0
 29 35  1  0  0  0  0
 30 31  1  0  0  0  0
 32 30  2  0  0  0  0
 33 28  1  0  0  0  0
 33 32  1  0  0  0  0
 34 33  2  0  0  0  0
M  END
>  <minimizedAffinity>
-6.07850266

$$$$

 OpenBabel03272503073D

 35 38  0  0  0  0  0  0  0  0999 V2000
   35.9780   28.1900   34.6740 F   0  0  0  0  0  0  0  0  0  0  0  0
   36.0700   28.9540   33.5470 C   0  0  0  0  0  0  0  0  0  0  0  0
   35.5480   30.2180   33.5490 C   0  0  0  0  0  0  0  0  0  0  0  0
   35.6770   30.9270   32.3850 C   0  0  0  0  0  0  0  0  0  0  0  0
   36.2890   30.4310   31.2610 C   0  0  0  0  0  0  0  0  0  0  0  0
   36.8050   29.1490   31.2960 C   0  0  0  0  0  0  0  0  0  0  0  0
   36.6950   28.4030   32.4520 C   0  0  0  0  0  0  0  0  0  0  0  0
   35.2570   31.9440   32.3830 H   0  0  0  0  0  0  0  0  0  0  0  0
   36.3390   31.0750   30.3870 H   0  0  0  0  0  0  0  0  0  0  0  0
   37.2850   28.7610   30.4120 H   0  0  0  0  0  0  0  0  0  0  0  0
   34.9170   31.9460   36.8530 C   0  0  0  0  0  0  0  0  0  0  0  0
   35.5660   31.4900   35.6870 C   0  0  0  0  0  0  0  0  0  0  0  0
   34.9060   30.7060   34.7660 C   0  0  0  0  0  0  0  0  0  0  0  0
   33.6050   30.3960   35.0380 N   0  0  0  0  0  0  0  0  0  0  0  0
   32.9880   30.8310   36.1510 C   0  0  0  0  0  0  0  0  0  0  0  0
   33.6330   31.5900   37.0360 N   0  0  0  0  0  0  0  0  0  0  0  0
   35.4930   32.5630   37.5440 H   0  0  0  0  0  0  0  0  0  0  0  0
   36.5920   31.7150   35.4400 H   0  0  0  0  0  0  0  0  0  0  0  0
   31.9550   30.5330   36.2790 H   0  0  0  0  0  0  0  0  0  0  0  0
   36.3860   26.0880   31.9090 C   0  0  0  0  0  0  0  0  0  0  0  0
   35.3140   26.5290   31.4010 O   0  0  0  0  0  0  0  0  0  0  0  0
   37.2180   27.0710   32.5230 N   0  0  0  0  0  0  0  0  0  0  0  0
   38.0960   26.7580   32.9540 H   0  0  0  0  0  0  0  0  0  0  0  0
   37.9640   24.3010   32.1660 C   0  0  0  0  0  3  0  0  0  0  0  0
   36.6790   24.6760   31.8330 C   0  0  0  0  0  0  0  0  0  0  0  0
   35.7110   23.7730   31.4450 C   0  0  0  0  0  0  0  0  0  0  0  0
   34.7030   24.0670   31.1830 H   0  0  0  0  0  0  0  0  0  0  0  0
   36.0310   22.4290   31.3830 C   0  0  0  0  0  0  0  0  0  0  0  0
   35.3170   21.3400   31.0480 N   0  0  0  0  0  0  0  0  0  0  0  0
   36.1290   20.2860   31.1650 C   0  0  0  0  0  0  0  0  0  0  0  0
   35.7900   19.2790   30.9480 H   0  0  0  0  0  0  0  0  0  0  0  0
   37.3400   20.6960   31.5670 N   0  0  0  0  0  0  0  0  0  0  0  0
   37.3170   22.0510   31.7170 C   0  0  0  0  0  0  0  0  0  0  0  0
   38.2980   22.9440   32.1080 C   0  0  0  0  0  3  0  0  0  0  0  0
   34.3140   21.3730   30.7580 H   0  0  0  0  0  0  0  0  0  0  0  0
  2  3  1  0  0  0  0
  2  1  1  0  0  0  0
  3 13  1  0  0  0  0
  4  3  2  0  0  0  0
  5  6  2  0  0  0  0
  5  4  1  0  0  0  0
  6  7  1  0  0  0  0
  7 22  1  0  0  0  0
  7  2  2  0  0  0  0
  8  4  1  0  0  0  0
  9  5  1  0  0  0  0
 10  6  1  0  0  0  0
 11 16  1  0  0  0  0
 11 17  1  0  0  0  0
 12 11  2  0  0  0  0
 13 14  2  0  0  0  0
 13 12  1  0  0  0  0
 14 15  1  0  0  0  0
 15 19  1  0  0  0  0
 15 16  2  0  0  0  0
 18 12  1  0  0  0  0
 20 22  1  0  0  0  0
 21 20  2  0  0  0  0
 22 23  1  0  0  0  0
 25 20  1  0  0  0  0
 25 24  2  0  0  0  0
 26 25  1  0  0  0  0
 27 26  1  0  0  0  0
 28 26  2  0  0  0  0
 28 33  1  0  0  0  0
 29 30  1  0  0  0  0
 29 28  1  0  0  0  0
 30 32  2  0  0  0  0
 31 30  1  0  0  0  0
 32 33  1  0  0  0  0
 33 34  2  0  0  0  0
 34 24  1  0  0  0  0
 35 29  1  0  0  0  0
M  END
>  <minimizedAffinity>
-6.0210371

$$$$

 OpenBabel03272503073D

 35 38  0  0  0  0  0  0  0  0999 V2000
   35.9640   28.0940   34.6580 F   0  0  0  0  0  0  0  0  0  0  0  0
   36.1030   28.8430   33.5260 C   0  0  0  0  0  0  0  0  0  0  0  0
   35.6290   30.1260   33.5100 C   0  0  0  0  0  0  0  0  0  0  0  0
   35.8020   30.8190   32.3410 C   0  0  0  0  0  0  0  0  0  0  0  0
   36.4110   30.2900   31.2310 C   0  0  0  0  0  0  0  0  0  0  0  0
   36.8770   28.9890   31.2840 C   0  0  0  0  0  0  0  0  0  0  0  0
   36.7210   28.2590   32.4450 C   0  0  0  0  0  0  0  0  0  0  0  0
   35.4210   31.8520   32.3250 H   0  0  0  0  0  0  0  0  0  0  0  0
   36.4990   30.9230   30.3520 H   0  0  0  0  0  0  0  0  0  0  0  0
   37.3550   28.5760   30.4110 H   0  0  0  0  0  0  0  0  0  0  0  0
   35.0100   31.9290   36.7760 C   0  0  0  0  0  0  0  0  0  0  0  0
   35.6570   31.4390   35.6230 C   0  0  0  0  0  0  0  0  0  0  0  0
   34.9880   30.6490   34.7130 C   0  0  0  0  0  0  0  0  0  0  0  0
   33.6800   30.3690   34.9810 N   0  0  0  0  0  0  0  0  0  0  0  0
   33.0640   30.8370   36.0820 C   0  0  0  0  0  0  0  0  0  0  0  0
   33.7180   31.6000   36.9570 N   0  0  0  0  0  0  0  0  0  0  0  0
   35.5930   32.5490   37.4590 H   0  0  0  0  0  0  0  0  0  0  0  0
   36.6890   31.6400   35.3780 H   0  0  0  0  0  0  0  0  0  0  0  0
   32.0250   30.5610   36.2080 H   0  0  0  0  0  0  0  0  0  0  0  0
   36.3230   25.9500   31.9340 C   0  0  0  0  0  0  0  0  0  0  0  0
   35.2700   26.4260   31.4170 O   0  0  0  0  0  0  0  0  0  0  0  0
   37.1920   26.9080   32.5360 N   0  0  0  0  0  0  0  0  0  0  0  0
   38.0570   26.5670   32.9720 H   0  0  0  0  0  0  0  0  0  0  0  0
   35.5580   23.7630   31.3170 C   0  0  0  0  0  3  0  0  0  0  0  0
   36.5610   24.5270   31.8770 C   0  0  0  0  0  0  0  0  0  0  0  0
   37.7320   23.9850   32.3650 C   0  0  0  0  0  0  0  0  0  0  0  0
   38.5180   24.5840   32.8050 H   0  0  0  0  0  0  0  0  0  0  0  0
   37.9220   22.6170   32.2930 C   0  0  0  0  0  0  0  0  0  0  0  0
   38.9350   21.8200   32.6750 N   0  0  0  0  0  0  0  0  0  0  0  0
   38.5880   20.5680   32.3640 C   0  0  0  0  0  0  0  0  0  0  0  0
   39.2410   19.7280   32.5730 H   0  0  0  0  0  0  0  0  0  0  0  0
   37.3750   20.5680   31.7940 N   0  0  0  0  0  0  0  0  0  0  0  0
   36.9190   21.8510   31.7310 C   0  0  0  0  0  0  0  0  0  0  0  0
   35.7390   22.3790   31.2390 C   0  0  0  0  0  3  0  0  0  0  0  0
   39.8080   22.1710   33.1270 H   0  0  0  0  0  0  0  0  0  0  0  0
  2  1  1  0  0  0  0
  3  2  1  0  0  0  0
  3 13  1  0  0  0  0
  4  3  2  0  0  0  0
  5  6  2  0  0  0  0
  5  4  1  0  0  0  0
  6  7  1  0  0  0  0
  7 22  1  0  0  0  0
  7  2  2  0  0  0  0
  8  4  1  0  0  0  0
  9  5  1  0  0  0  0
 10  6  1  0  0  0  0
 11 16  1  0  0  0  0
 11 17  1  0  0  0  0
 12 11  2  0  0  0  0
 13 14  2  0  0  0  0
 13 12  1  0  0  0  0
 14 15  1  0  0  0  0
 15 19  1  0  0  0  0
 15 16  2  0  0  0  0
 18 12  1  0  0  0  0
 20 22  1  0  0  0  0
 21 20  2  0  0  0  0
 22 23  1  0  0  0  0
 24 25  1  0  0  0  0
 25 20  1  0  0  0  0
 25 26  2  0  0  0  0
 26 27  1  0  0  0  0
 28 26  1  0  0  0  0
 28 29  1  0  0  0  0
 29 35  1  0  0  0  0
 30 31  1  0  0  0  0
 30 29  1  0  0  0  0
 32 30  2  0  0  0  0
 33 32  1  0  0  0  0
 33 28  2  0  0  0  0
 34 24  2  0  0  0  0
 34 33  1  0  0  0  0
M  END
>  <minimizedAffinity>
-6.00579262

$$$$

 OpenBabel03272503073D

 35 38  0  0  0  0  0  0  0  0999 V2000
   36.2300   27.2030   35.1220 F   0  0  0  0  0  0  0  0  0  0  0  0
   36.6490   27.5700   33.8760 C   0  0  0  0  0  0  0  0  0  0  0  0
   36.2240   28.7580   33.3490 C   0  0  0  0  0  0  0  0  0  0  0  0
   36.6840   29.0620   32.0960 C   0  0  0  0  0  0  0  0  0  0  0  0
   37.5250   28.2470   31.3800 C   0  0  0  0  0  0  0  0  0  0  0  0
   37.9340   27.0530   31.9460 C   0  0  0  0  0  0  0  0  0  0  0  0
   37.4910   26.7120   33.2070 C   0  0  0  0  0  0  0  0  0  0  0  0
   36.3440   30.0170   31.6690 H   0  0  0  0  0  0  0  0  0  0  0  0
   37.8340   28.5800   30.3930 H   0  0  0  0  0  0  0  0  0  0  0  0
   38.5940   26.4140   31.3820 H   0  0  0  0  0  0  0  0  0  0  0  0
   34.9060   31.3800   35.7350 C   0  0  0  0  0  0  0  0  0  0  0  0
   35.7950   30.5880   34.9800 C   0  0  0  0  0  0  0  0  0  0  0  0
   35.3310   29.5950   34.1440 C   0  0  0  0  0  0  0  0  0  0  0  0
   33.9780   29.4200   34.0850 N   0  0  0  0  0  0  0  0  0  0  0  0
   33.1310   30.1760   34.8070 C   0  0  0  0  0  0  0  0  0  0  0  0
   33.5890   31.1330   35.6120 N   0  0  0  0  0  0  0  0  0  0  0  0
   35.3350   32.1490   36.3780 H   0  0  0  0  0  0  0  0  0  0  0  0
   36.8680   30.6980   35.0010 H   0  0  0  0  0  0  0  0  0  0  0  0
   32.0760   29.9610   34.6940 H   0  0  0  0  0  0  0  0  0  0  0  0
   38.9840   25.6210   34.7350 C   0  0  0  0  0  0  0  0  0  0  0  0
   39.4360   26.7980   34.8610 O   0  0  0  0  0  0  0  0  0  0  0  0
   37.8940   25.4820   33.8240 N   0  0  0  0  0  0  0  0  0  0  0  0
   37.4990   24.5450   33.6860 H   0  0  0  0  0  0  0  0  0  0  0  0
   38.8280   24.0520   36.5410 C   0  0  0  0  0  3  0  0  0  0  0  0
   39.5790   24.5480   35.4950 C   0  0  0  0  0  0  0  0  0  0  0  0
   40.8300   24.0630   35.1750 C   0  0  0  0  0  0  0  0  0  0  0  0
   41.4190   24.4530   34.3550 H   0  0  0  0  0  0  0  0  0  0  0  0
   41.3660   23.0340   35.9270 C   0  0  0  0  0  0  0  0  0  0  0  0
   42.5330   22.3710   35.8560 N   0  0  0  0  0  0  0  0  0  0  0  0
   42.5310   21.4660   36.8380 C   0  0  0  0  0  0  0  0  0  0  0  0
   43.3690   20.7970   36.9980 H   0  0  0  0  0  0  0  0  0  0  0  0
   41.3820   21.5510   37.5230 N   0  0  0  0  0  0  0  0  0  0  0  0
   40.6160   22.5360   36.9740 C   0  0  0  0  0  0  0  0  0  0  0  0
   39.3610   23.0110   37.3080 C   0  0  0  0  0  3  0  0  0  0  0  0
   43.2700   22.5700   35.1430 H   0  0  0  0  0  0  0  0  0  0  0  0
  2  1  1  0  0  0  0
  3  2  1  0  0  0  0
  3 13  1  0  0  0  0
  4  3  2  0  0  0  0
  5  6  2  0  0  0  0
  5  4  1  0  0  0  0
  6  7  1  0  0  0  0
  7 22  1  0  0  0  0
  7  2  2  0  0  0  0
  8  4  1  0  0  0  0
  9  5  1  0  0  0  0
 10  6  1  0  0  0  0
 11 17  1  0  0  0  0
 12 18  1  0  0  0  0
 12 11  2  0  0  0  0
 13 12  1  0  0  0  0
 14 13  2  0  0  0  0
 14 15  1  0  0  0  0
 15 16  2  0  0  0  0
 16 11  1  0  0  0  0
 19 15  1  0  0  0  0
 20 21  2  0  0  0  0
 20 25  1  0  0  0  0
 22 20  1  0  0  0  0
 23 22  1  0  0  0  0
 24 34  1  0  0  0  0
 25 24  2  0  0  0  0
 26 25  1  0  0  0  0
 26 28  2  0  0  0  0
 27 26  1  0  0  0  0
 28 33  1  0  0  0  0
 29 28  1  0  0  0  0
 29 30  1  0  0  0  0
 30 31  1  0  0  0  0
 30 32  2  0  0  0  0
 33 34  2  0  0  0  0
 33 32  1  0  0  0  0
 35 29  1  0  0  0  0
M  END
>  <minimizedAffinity>
-5.87885332

$$$$

 OpenBabel03272503073D

 35 38  0  0  0  0  0  0  0  0999 V2000
   35.4610   23.8560   31.7460 F   0  0  0  0  0  0  0  0  0  0  0  0
   36.7220   23.6860   31.2550 C   0  0  0  0  0  0  0  0  0  0  0  0
   37.3020   22.4480   31.3100 C   0  0  0  0  0  0  0  0  0  0  0  0
   38.5680   22.3510   30.7990 C   0  0  0  0  0  0  0  0  0  0  0  0
   39.2480   23.4110   30.2540 C   0  0  0  0  0  0  0  0  0  0  0  0
   38.6300   24.6480   30.2150 C   0  0  0  0  0  0  0  0  0  0  0  0
   37.3530   24.7860   30.7210 C   0  0  0  0  0  0  0  0  0  0  0  0
   39.0370   21.3560   30.8420 H   0  0  0  0  0  0  0  0  0  0  0  0
   40.2500   23.2290   29.8750 H   0  0  0  0  0  0  0  0  0  0  0  0
   39.1660   25.4800   29.7870 H   0  0  0  0  0  0  0  0  0  0  0  0
   35.2840   19.2780   31.7370 C   0  0  0  0  0  0  0  0  0  0  0  0
   36.0120   20.3280   31.1390 C   0  0  0  0  0  0  0  0  0  0  0  0
   36.5430   21.3480   31.8980 C   0  0  0  0  0  0  0  0  0  0  0  0
   36.3320   21.2910   33.2450 N   0  0  0  0  0  0  0  0  0  0  0  0
   35.6370   20.2900   33.8140 C   0  0  0  0  0  0  0  0  0  0  0  0
   35.1260   19.3070   33.0730 N   0  0  0  0  0  0  0  0  0  0  0  0
   34.8880   18.5000   31.0830 H   0  0  0  0  0  0  0  0  0  0  0  0
   36.1990   20.4050   30.0790 H   0  0  0  0  0  0  0  0  0  0  0  0
   35.5210   20.3320   34.8890 H   0  0  0  0  0  0  0  0  0  0  0  0
   36.8780   26.8330   31.8750 C   0  0  0  0  0  0  0  0  0  0  0  0
   37.6030   26.2970   32.7640 O   0  0  0  0  0  0  0  0  0  0  0  0
   36.6830   26.0520   30.6970 N   0  0  0  0  0  0  0  0  0  0  0  0
   36.0970   26.4450   29.9510 H   0  0  0  0  0  0  0  0  0  0  0  0
   36.1330   28.5020   33.4280 C   0  0  0  0  0  3  0  0  0  0  0  0
   36.3240   28.1450   32.1080 C   0  0  0  0  0  0  0  0  0  0  0  0
   36.0100   28.9780   31.0540 C   0  0  0  0  0  0  0  0  0  0  0  0
   36.1580   28.6990   30.0200 H   0  0  0  0  0  0  0  0  0  0  0  0
   35.4800   30.2280   31.3190 C   0  0  0  0  0  0  0  0  0  0  0  0
   35.0860   31.2340   30.5190 N   0  0  0  0  0  0  0  0  0  0  0  0
   34.6510   32.2180   31.3110 C   0  0  0  0  0  0  0  0  0  0  0  0
   34.2740   33.1500   30.9060 H   0  0  0  0  0  0  0  0  0  0  0  0
   34.7660   31.8450   32.5940 N   0  0  0  0  0  0  0  0  0  0  0  0
   35.2890   30.5870   32.6390 C   0  0  0  0  0  0  0  0  0  0  0  0
   35.5990   29.7630   33.7060 C   0  0  0  0  0  3  0  0  0  0  0  0
   35.1340   31.1980   29.4770 H   0  0  0  0  0  0  0  0  0  0  0  0
  2  3  1  0  0  0  0
  2  1  1  0  0  0  0
  3 13  1  0  0  0  0
  4  8  1  0  0  0  0
  4  3  2  0  0  0  0
  5  4  1  0  0  0  0
  6  5  2  0  0  0  0
  6  7  1  0  0  0  0
  7  2  2  0  0  0  0
  9  5  1  0  0  0  0
 10  6  1  0  0  0  0
 11 16  1  0  0  0  0
 12 11  2  0  0  0  0
 12 13  1  0  0  0  0
 13 14  2  0  0  0  0
 14 15  1  0  0  0  0
 15 19  1  0  0  0  0
 16 15  2  0  0  0  0
 17 11  1  0  0  0  0
 18 12  1  0  0  0  0
 20 25  1  0  0  0  0
 20 21  2  0  0  0  0
 22  7  1  0  0  0  0
 22 20  1  0  0  0  0
 23 22  1  0  0  0  0
 24 34  1  0  0  0  0
 25 24  2  0  0  0  0
 26 28  2  0  0  0  0
 26 25  1  0  0  0  0
 27 26  1  0  0  0  0
 28 33  1  0  0  0  0
 29 30  1  0  0  0  0
 29 28  1  0  0  0  0
 30 32  2  0  0  0  0
 31 30  1  0  0  0  0
 32 33  1  0  0  0  0
 33 34  2  0  0  0  0
 35 29  1  0  0  0  0
M  END
>  <minimizedAffinity>
-5.64996052

$$$$

 OpenBabel03272503073D

 35 38  0  0  0  0  0  0  0  0999 V2000
   35.6950   28.3880   34.1100 F   0  0  0  0  0  0  0  0  0  0  0  0
   36.1700   28.3570   32.8320 C   0  0  0  0  0  0  0  0  0  0  0  0
   35.9640   29.4330   32.0140 C   0  0  0  0  0  0  0  0  0  0  0  0
   36.4680   29.3330   30.7450 C   0  0  0  0  0  0  0  0  0  0  0  0
   37.1470   28.2320   30.2850 C   0  0  0  0  0  0  0  0  0  0  0  0
   37.3360   27.1630   31.1410 C   0  0  0  0  0  0  0  0  0  0  0  0
   36.8430   27.2260   32.4280 C   0  0  0  0  0  0  0  0  0  0  0  0
   36.3040   30.1980   30.0840 H   0  0  0  0  0  0  0  0  0  0  0  0
   37.5080   28.2520   29.2600 H   0  0  0  0  0  0  0  0  0  0  0  0
   37.8700   26.2990   30.7780 H   0  0  0  0  0  0  0  0  0  0  0  0
   35.1460   32.8060   33.5150 C   0  0  0  0  0  0  0  0  0  0  0  0
   35.8770   31.7110   33.0110 C   0  0  0  0  0  0  0  0  0  0  0  0
   35.2380   30.5840   32.5430 C   0  0  0  0  0  0  0  0  0  0  0  0
   33.8740   30.5810   32.5940 N   0  0  0  0  0  0  0  0  0  0  0  0
   33.1780   31.6260   33.0760 C   0  0  0  0  0  0  0  0  0  0  0  0
   33.8040   32.7130   33.5260 N   0  0  0  0  0  0  0  0  0  0  0  0
   35.7100   33.6700   33.8710 H   0  0  0  0  0  0  0  0  0  0  0  0
   36.9540   31.6790   32.9550 H   0  0  0  0  0  0  0  0  0  0  0  0
   32.1000   31.5310   33.0760 H   0  0  0  0  0  0  0  0  0  0  0  0
   38.2270   26.2060   34.0990 C   0  0  0  0  0  0  0  0  0  0  0  0
   38.9630   27.2070   33.8510 O   0  0  0  0  0  0  0  0  0  0  0  0
   37.0200   26.1370   33.3420 N   0  0  0  0  0  0  0  0  0  0  0  0
   36.3950   25.3390   33.5050 H   0  0  0  0  0  0  0  0  0  0  0  0
   37.8470   25.1370   36.2110 C   0  0  0  0  0  3  0  0  0  0  0  0
   38.6470   25.2460   35.0910 C   0  0  0  0  0  0  0  0  0  0  0  0
   39.7870   24.4910   34.9090 C   0  0  0  0  0  0  0  0  0  0  0  0
   40.4150   24.5770   34.0320 H   0  0  0  0  0  0  0  0  0  0  0  0
   40.1560   23.5820   35.8840 C   0  0  0  0  0  0  0  0  0  0  0  0
   41.1890   22.7280   35.9830 N   0  0  0  0  0  0  0  0  0  0  0  0
   41.0550   22.0830   37.1450 C   0  0  0  0  0  0  0  0  0  0  0  0
   41.7690   21.3320   37.4660 H   0  0  0  0  0  0  0  0  0  0  0  0
   39.9550   22.5190   37.7750 N   0  0  0  0  0  0  0  0  0  0  0  0
   39.3570   23.4710   37.0050 C   0  0  0  0  0  0  0  0  0  0  0  0
   38.2110   24.2200   37.2020 C   0  0  0  0  0  3  0  0  0  0  0  0
   41.9320   22.6300   35.2550 H   0  0  0  0  0  0  0  0  0  0  0  0
  2  1  1  0  0  0  0
  3 13  1  0  0  0  0
  3  2  2  0  0  0  0
  4  3  1  0  0  0  0
  5  4  2  0  0  0  0
  5  6  1  0  0  0  0
  6  7  2  0  0  0  0
  7  2  1  0  0  0  0
  7 22  1  0  0  0  0
  8  4  1  0  0  0  0
  9  5  1  0  0  0  0
 10  6  1  0  0  0  0
 11 16  1  0  0  0  0
 11 17  1  0  0  0  0
 12 11  2  0  0  0  0
 13 14  2  0  0  0  0
 13 12  1  0  0  0  0
 14 15  1  0  0  0  0
 15 19  1  0  0  0  0
 15 16  2  0  0  0  0
 18 12  1  0  0  0  0
 20 25  1  0  0  0  0
 21 20  2  0  0  0  0
 22 23  1  0  0  0  0
 22 20  1  0  0  0  0
 24 34  1  0  0  0  0
 25 24  2  0  0  0  0
 26 25  1  0  0  0  0
 26 28  2  0  0  0  0
 27 26  1  0  0  0  0
 28 29  1  0  0  0  0
 28 33  1  0  0  0  0
 29 30  1  0  0  0  0
 30 31  1  0  0  0  0
 30 32  2  0  0  0  0
 33 34  2  0  0  0  0
 33 32  1  0  0  0  0
 35 29  1  0  0  0  0
M  END
>  <minimizedAffinity>
-5.60191107

$$$$

 OpenBabel03272503073D

 35 38  0  0  0  0  0  0  0  0999 V2000
   38.8700   25.3080   34.1140 F   0  0  0  0  0  0  0  0  0  0  0  0
   38.3160   24.2000   33.5430 C   0  0  0  0  0  0  0  0  0  0  0  0
   38.1080   23.0860   34.3080 C   0  0  0  0  0  0  0  0  0  0  0  0
   37.5480   22.0110   33.6710 C   0  0  0  0  0  0  0  0  0  0  0  0
   37.2010   22.0150   32.3430 C   0  0  0  0  0  0  0  0  0  0  0  0
   37.4260   23.1600   31.6010 C   0  0  0  0  0  0  0  0  0  0  0  0
   37.9890   24.2640   32.2080 C   0  0  0  0  0  0  0  0  0  0  0  0
   37.3800   21.1130   34.2840 H   0  0  0  0  0  0  0  0  0  0  0  0
   36.7630   21.1100   31.9310 H   0  0  0  0  0  0  0  0  0  0  0  0
   37.1530   23.1610   30.5580 H   0  0  0  0  0  0  0  0  0  0  0  0
   40.0260   22.6640   37.5400 C   0  0  0  0  0  0  0  0  0  0  0  0
   39.6850   22.6110   36.1730 C   0  0  0  0  0  0  0  0  0  0  0  0
   38.4910   23.1240   35.7170 C   0  0  0  0  0  0  0  0  0  0  0  0
   37.6630   23.6830   36.6470 N   0  0  0  0  0  0  0  0  0  0  0  0
   37.9890   23.7320   37.9510 C   0  0  0  0  0  0  0  0  0  0  0  0
   39.1460   23.2330   38.3840 N   0  0  0  0  0  0  0  0  0  0  0  0
   40.9860   22.2400   37.8400 H   0  0  0  0  0  0  0  0  0  0  0  0
   40.3150   22.1780   35.4110 H   0  0  0  0  0  0  0  0  0  0  0  0
   37.2670   24.1940   38.6120 H   0  0  0  0  0  0  0  0  0  0  0  0
   37.1260   26.3620   31.4320 C   0  0  0  0  0  0  0  0  0  0  0  0
   36.0910   25.9650   32.0440 O   0  0  0  0  0  0  0  0  0  0  0  0
   38.2370   25.4670   31.4700 N   0  0  0  0  0  0  0  0  0  0  0  0
   39.0960   25.7460   30.9820 H   0  0  0  0  0  0  0  0  0  0  0  0
   36.4340   28.6580   31.4140 C   0  0  0  0  0  3  0  0  0  0  0  0
   37.1080   27.6430   30.7660 C   0  0  0  0  0  0  0  0  0  0  0  0
   37.7370   27.8180   29.5510 C   0  0  0  0  0  0  0  0  0  0  0  0
   38.2650   27.0220   29.0420 H   0  0  0  0  0  0  0  0  0  0  0  0
   37.6970   29.0600   28.9450 C   0  0  0  0  0  0  0  0  0  0  0  0
   38.2040   29.5230   27.7890 N   0  0  0  0  0  0  0  0  0  0  0  0
   37.8620   30.8110   27.6970 C   0  0  0  0  0  0  0  0  0  0  0  0
   38.1520   31.4180   26.8470 H   0  0  0  0  0  0  0  0  0  0  0  0
   37.1480   31.1620   28.7760 N   0  0  0  0  0  0  0  0  0  0  0  0
   37.0230   30.0780   29.5920 C   0  0  0  0  0  0  0  0  0  0  0  0
   36.3870   29.9180   30.8100 C   0  0  0  0  0  3  0  0  0  0  0  0
   38.7560   28.9370   27.1240 H   0  0  0  0  0  0  0  0  0  0  0  0
  2  1  1  0  0  0  0
  2  3  1  0  0  0  0
  3 13  1  0  0  0  0
  4  8  1  0  0  0  0
  4  3  2  0  0  0  0
  5  4  1  0  0  0  0
  6  7  1  0  0  0  0
  6  5  2  0  0  0  0
  7  2  2  0  0  0  0
  9  5  1  0  0  0  0
 10  6  1  0  0  0  0
 11 17  1  0  0  0  0
 11 16  1  0  0  0  0
 12 11  2  0  0  0  0
 13 12  1  0  0  0  0
 13 14  2  0  0  0  0
 14 15  1  0  0  0  0
 15 16  2  0  0  0  0
 15 19  1  0  0  0  0
 18 12  1  0  0  0  0
 20 22  1  0  0  0  0
 20 21  2  0  0  0  0
 22  7  1  0  0  0  0
 23 22  1  0  0  0  0
 25 24  2  0  0  0  0
 25 20  1  0  0  0  0
 26 25  1  0  0  0  0
 27 26  1  0  0  0  0
 28 26  2  0  0  0  0
 28 33  1  0  0  0  0
 29 28  1  0  0  0  0
 30 29  1  0  0  0  0
 30 32  2  0  0  0  0
 31 30  1  0  0  0  0
 32 33  1  0  0  0  0
 33 34  2  0  0  0  0
 34 24  1  0  0  0  0
 35 29  1  0  0  0  0
M  END
>  <minimizedAffinity>
-5.5724225

$$$$

 OpenBabel03272503073D

 35 38  0  0  0  0  0  0  0  0999 V2000
   39.0230   25.2830   34.3190 F   0  0  0  0  0  0  0  0  0  0  0  0
   38.4120   24.2020   33.7540 C   0  0  0  0  0  0  0  0  0  0  0  0
   38.1100   23.1200   34.5350 C   0  0  0  0  0  0  0  0  0  0  0  0
   37.4970   22.0720   33.9030 C   0  0  0  0  0  0  0  0  0  0  0  0
   37.1870   22.0700   32.5660 C   0  0  0  0  0  0  0  0  0  0  0  0
   37.5080   23.1820   31.8080 C   0  0  0  0  0  0  0  0  0  0  0  0
   38.1270   24.2590   32.4090 C   0  0  0  0  0  0  0  0  0  0  0  0
   37.2520   21.2000   34.5280 H   0  0  0  0  0  0  0  0  0  0  0  0
   36.7010   21.1880   32.1600 H   0  0  0  0  0  0  0  0  0  0  0  0
   37.2650   23.1790   30.7580 H   0  0  0  0  0  0  0  0  0  0  0  0
   37.9680   23.7050   38.2680 C   0  0  0  0  0  0  0  0  0  0  0  0
   37.6040   23.6780   36.9060 C   0  0  0  0  0  0  0  0  0  0  0  0
   38.4560   23.1640   35.9530 C   0  0  0  0  0  0  0  0  0  0  0  0
   39.6570   22.6870   36.3900 N   0  0  0  0  0  0  0  0  0  0  0  0
   40.0030   22.7140   37.6890 C   0  0  0  0  0  0  0  0  0  0  0  0
   39.1740   23.2130   38.6050 N   0  0  0  0  0  0  0  0  0  0  0  0
   37.2510   24.1250   38.9750 H   0  0  0  0  0  0  0  0  0  0  0  0
   36.6640   24.0450   36.5250 H   0  0  0  0  0  0  0  0  0  0  0  0
   40.9770   22.3140   37.9390 H   0  0  0  0  0  0  0  0  0  0  0  0
   37.4490   26.4190   31.6200 C   0  0  0  0  0  0  0  0  0  0  0  0
   36.3900   26.1250   32.2480 O   0  0  0  0  0  0  0  0  0  0  0  0
   38.4740   25.4270   31.6550 N   0  0  0  0  0  0  0  0  0  0  0  0
   39.3490   25.6210   31.1550 H   0  0  0  0  0  0  0  0  0  0  0  0
   38.6910   27.9100   30.2100 C   0  0  0  0  0  3  0  0  0  0  0  0
   37.5410   27.6900   30.9400 C   0  0  0  0  0  0  0  0  0  0  0  0
   36.5230   28.6170   31.0320 C   0  0  0  0  0  0  0  0  0  0  0  0
   35.6220   28.4450   31.6060 H   0  0  0  0  0  0  0  0  0  0  0  0
   36.6490   29.8230   30.3670 C   0  0  0  0  0  0  0  0  0  0  0  0
   35.8430   30.8940   30.2720 N   0  0  0  0  0  0  0  0  0  0  0  0
   36.4650   31.7850   29.4950 C   0  0  0  0  0  0  0  0  0  0  0  0
   36.0200   32.7460   29.2610 H   0  0  0  0  0  0  0  0  0  0  0  0
   37.6460   31.2890   29.1010 N   0  0  0  0  0  0  0  0  0  0  0  0
   37.7990   30.0440   29.6350 C   0  0  0  0  0  0  0  0  0  0  0  0
   38.8280   29.1250   29.5330 C   0  0  0  0  0  3  0  0  0  0  0  0
   34.9130   30.9630   30.7420 H   0  0  0  0  0  0  0  0  0  0  0  0
  2  1  1  0  0  0  0
  2  3  1  0  0  0  0
  3 13  1  0  0  0  0
  4  8  1  0  0  0  0
  4  3  2  0  0  0  0
  5  4  1  0  0  0  0
  6  7  1  0  0  0  0
  6  5  2  0  0  0  0
  7  2  2  0  0  0  0
  9  5  1  0  0  0  0
 10  6  1  0  0  0  0
 11 16  1  0  0  0  0
 11 17  1  0  0  0  0
 12 11  2  0  0  0  0
 13 14  2  0  0  0  0
 13 12  1  0  0  0  0
 14 15  1  0  0  0  0
 15 19  1  0  0  0  0
 15 16  2  0  0  0  0
 18 12  1  0  0  0  0
 20 22  1  0  0  0  0
 20 21  2  0  0  0  0
 22  7  1  0  0  0  0
 23 22  1  0  0  0  0
 24 25  1  0  0  0  0
 25 26  2  0  0  0  0
 25 20  1  0  0  0  0
 26 27  1  0  0  0  0
 28 26  1  0  0  0  0
 29 28  1  0  0  0  0
 29 35  1  0  0  0  0
 30 29  1  0  0  0  0
 31 30  1  0  0  0  0
 32 30  2  0  0  0  0
 32 33  1  0  0  0  0
 33 28  2  0  0  0  0
 34 33  1  0  0  0  0
 34 24  2  0  0  0  0
M  END
>  <minimizedAffinity>
-5.50790548

$$$$
