
 OpenBabel03272509253D

 27 29  0  0  0  0  0  0  0  0999 V2000
   38.5240   31.8270   47.7640 C   0  0  0  0  0  0  0  0  0  0  0  0
   37.8210   32.5250   48.2220 H   0  0  0  0  0  0  0  0  0  0  0  0
   39.5290   31.8000   48.2320 H   0  0  0  0  0  0  0  0  0  0  0  0
   39.9280   32.8530   45.9910 C   0  0  0  0  0  3  0  0  0  0  0  0
   38.7170   32.2490   46.3380 C   0  0  0  0  0  0  0  0  0  0  0  0
   37.8070   32.1020   45.3120 C   0  0  0  0  0  0  0  0  0  0  0  0
   36.8720   31.6360   45.5810 H   0  0  0  0  0  0  0  0  0  0  0  0
   38.1190   32.5360   44.0510 C   0  0  0  0  0  0  0  0  0  0  0  0
   37.4080   32.5050   42.8980 N   0  0  0  0  0  0  0  0  0  0  0  0
   38.1550   33.0620   41.9050 C   0  0  0  0  0  0  0  0  0  0  0  0
   37.8860   33.1950   40.8590 H   0  0  0  0  0  0  0  0  0  0  0  0
   39.3380   33.4460   42.4270 N   0  0  0  0  0  0  0  0  0  0  0  0
   39.3240   33.1290   43.7390 C   0  0  0  0  0  0  0  0  0  0  0  0
   40.2670   33.2990   44.7300 C   0  0  0  0  0  3  0  0  0  0  0  0
   36.4380   32.1180   42.7720 H   0  0  0  0  0  0  0  0  0  0  0  0
   37.8960   30.4400   47.7470 C   0  0  0  0  0  0  0  0  0  0  0  0
   38.7000   29.6800   47.5440 H   0  0  0  0  0  0  0  0  0  0  0  0
   37.1020   30.4110   46.9950 H   0  0  0  0  0  0  0  0  0  0  0  0
   37.2950   30.1320   51.4900 C   0  0  0  0  0  0  0  0  0  0  0  0
   37.9000   30.4630   50.2780 C   0  0  0  0  0  0  0  0  0  0  0  0
   37.3100   30.1210   49.0730 C   0  0  0  0  0  0  0  0  0  0  0  0
   36.1270   29.4580   49.1440 N   0  0  0  0  0  0  0  0  0  0  0  0
   35.5440   29.1400   50.3240 C   0  0  0  0  0  0  0  0  0  0  0  0
   36.1300   29.4790   51.4930 N   0  0  0  0  0  0  0  0  0  0  0  0
   37.8240   30.4370   52.3950 H   0  0  0  0  0  0  0  0  0  0  0  0
   38.8420   30.9900   50.2790 H   0  0  0  0  0  0  0  0  0  0  0  0
   34.5980   28.6090   50.3040 H   0  0  0  0  0  0  0  0  0  0  0  0
  1  2  1  0  0  0  0
  1  3  1  0  0  0  0
  4  5  1  0  0  0  0
  5  1  1  0  0  0  0
  6  7  1  0  0  0  0
  6  5  2  0  0  0  0
  8  6  1  0  0  0  0
  9  8  1  0  0  0  0
 10 12  2  0  0  0  0
 10  9  1  0  0  0  0
 11 10  1  0  0  0  0
 12 13  1  0  0  0  0
 13  8  2  0  0  0  0
 13 14  1  0  0  0  0
 14  4  2  0  0  0  0
 15  9  1  0  0  0  0
 16  1  1  0  0  0  0
 16 21  1  0  0  0  0
 17 16  1  0  0  0  0
 18 16  1  0  0  0  0
 19 24  1  0  0  0  0
 19 25  1  0  0  0  0
 20 26  1  0  0  0  0
 20 19  2  0  0  0  0
 21 22  2  0  0  0  0
 21 20  1  0  0  0  0
 22 23  1  0  0  0  0
 23 24  2  0  0  0  0
 27 23  1  0  0  0  0
M  END
>  <minimizedAffinity>
-5.74369287

>  <minimizedRMSD>
1.83612049

$$$$
