
 OpenBabel03272503003D

 37 40  0  0  1  0  0  0  0  0999 V2000
   39.1720   24.3690   35.9010 N   0  0  0  0  0  0  0  0  0  0  0  0
   38.0770   24.8920   36.6900 C   0  0  0  0  0  0  0  0  0  0  0  0
   38.0440   24.5710   38.1130 C   0  0  0  0  0  0  0  0  0  0  0  0
   38.7200   23.3450   38.5800 C   0  0  0  0  0  0  0  0  0  0  0  0
   39.7840   22.8380   37.6540 C   0  0  0  0  0  0  0  0  0  0  0  0
   39.3090   22.9500   36.1990 C   0  0  1  0  0  0  0  0  0  0  0  0
   38.0750   25.9940   36.5220 H   0  0  0  0  0  0  0  0  0  0  0  0
   37.1460   24.5150   36.1790 H   0  0  0  0  0  0  0  0  0  0  0  0
   38.4650   25.4450   38.6810 H   0  0  0  0  0  0  0  0  0  0  0  0
   36.9690   24.5220   38.4470 H   0  0  0  0  0  0  0  0  0  0  0  0
   39.2160   23.5130   39.5720 H   0  0  0  0  0  0  0  0  0  0  0  0
   37.9890   22.5300   38.7780 H   0  0  0  0  0  0  0  0  0  0  0  0
   40.0870   21.8170   37.9120 H   0  0  0  0  0  0  0  0  0  0  0  0
   40.6630   23.5130   37.7250 H   0  0  0  0  0  0  0  0  0  0  0  0
   40.0400   22.4560   35.5540 H   0  0  0  0  0  0  0  0  0  0  0  0
   39.9660   25.1230   34.9950 C   0  0  0  0  0  0  0  0  0  0  0  0
   40.0130   26.5140   34.9580 C   0  0  0  0  0  0  0  0  0  0  0  0
   40.8250   27.1400   34.0290 C   0  0  0  0  0  0  0  0  0  0  0  0
   41.5450   26.3470   33.1890 N   0  0  0  0  0  0  0  0  0  0  0  0
   41.4790   25.0090   33.2500 C   0  0  0  0  0  0  0  0  0  0  0  0
   40.6900   24.4080   34.1520 N   0  0  0  0  0  0  0  0  0  0  0  0
   39.4070   27.0610   35.6650 H   0  0  0  0  0  0  0  0  0  0  0  0
   40.8420   28.2260   34.0230 H   0  0  0  0  0  0  0  0  0  0  0  0
   42.0870   24.4240   32.5420 H   0  0  0  0  0  0  0  0  0  0  0  0
   38.0730   22.3090   36.1820 O   0  0  0  0  0  0  0  0  0  0  0  0
   36.3140   21.1110   35.3610 C   0  0  0  0  0  3  0  0  0  0  0  0
   37.4760   21.8300   35.0550 C   0  0  0  0  0  0  0  0  0  0  0  0
   37.8040   21.9290   33.7210 C   0  0  0  0  0  0  0  0  0  0  0  0
   38.7030   22.4930   33.5480 H   0  0  0  0  0  0  0  0  0  0  0  0
   37.0530   21.3650   32.7380 C   0  0  0  0  0  0  0  0  0  0  0  0
   37.2110   21.3540   31.4010 N   0  0  0  0  0  0  0  0  0  0  0  0
   36.1930   20.6540   30.8680 C   0  0  0  0  0  0  0  0  0  0  0  0
   36.1090   20.5100   29.7980 H   0  0  0  0  0  0  0  0  0  0  0  0
   35.3960   20.2260   31.8640 N   0  0  0  0  0  0  0  0  0  0  0  0
   35.9160   20.6590   33.0330 C   0  0  0  0  0  0  0  0  0  0  0  0
   35.5350   20.5270   34.3690 C   0  0  0  0  0  3  0  0  0  0  0  0
   37.9940   21.8120   30.8820 H   0  0  0  0  0  0  0  0  0  0  0  0
  1  6  1  0  0  0  0
  1  2  1  0  0  0  0
  2  3  1  0  0  0  0
  3 10  1  0  0  0  0
  3  4  1  0  0  0  0
  3  9  1  0  0  0  0
  4 12  1  0  0  0  0
  4 11  1  0  0  0  0
  5 14  1  0  0  0  0
  5 13  1  0  0  0  0
  5  4  1  0  0  0  0
  6 15  1  6  0  0  0
  6  5  1  0  0  0  0
  7  2  1  0  0  0  0
  8  2  1  0  0  0  0
 16  1  1  0  0  0  0
 17 16  1  0  0  0  0
 17 22  1  0  0  0  0
 18 17  2  0  0  0  0
 19 20  2  0  0  0  0
 19 18  1  0  0  0  0
 20 21  1  0  0  0  0
 21 16  2  0  0  0  0
 23 18  1  0  0  0  0
 24 20  1  0  0  0  0
 25  6  1  0  0  0  0
 27 26  1  0  0  0  0
 27 25  1  0  0  0  0
 28 27  2  0  0  0  0
 29 28  1  0  0  0  0
 30 35  2  0  0  0  0
 30 28  1  0  0  0  0
 31 30  1  0  0  0  0
 32 31  1  0  0  0  0
 32 34  2  0  0  0  0
 33 32  1  0  0  0  0
 34 35  1  0  0  0  0
 35 36  1  0  0  0  0
 36 26  2  0  0  0  0
 37 31  1  0  0  0  0
M  END
>  <minimizedAffinity>
-5.75395393

$$$$

 OpenBabel03272503003D

 37 40  0  0  1  0  0  0  0  0999 V2000
   37.3550   27.5190   33.4700 N   0  0  0  0  0  0  0  0  0  0  0  0
   37.2550   27.4410   34.9120 C   0  0  0  0  0  0  0  0  0  0  0  0
   38.4930   27.4010   35.6830 C   0  0  0  0  0  0  0  0  0  0  0  0
   39.7150   26.8830   35.0370 C   0  0  0  0  0  0  0  0  0  0  0  0
   39.6880   26.9320   33.5400 C   0  0  0  0  0  0  0  0  0  0  0  0
   38.3060   26.5090   33.0260 C   0  0  1  0  0  0  0  0  0  0  0  0
   36.6110   28.2960   35.2220 H   0  0  0  0  0  0  0  0  0  0  0  0
   36.6370   26.5200   35.1100 H   0  0  0  0  0  0  0  0  0  0  0  0
   38.7060   28.4380   36.0620 H   0  0  0  0  0  0  0  0  0  0  0  0
   38.3150   26.8000   36.6200 H   0  0  0  0  0  0  0  0  0  0  0  0
   40.6170   27.4660   35.3590 H   0  0  0  0  0  0  0  0  0  0  0  0
   39.9360   25.8430   35.3650 H   0  0  0  0  0  0  0  0  0  0  0  0
   40.4930   26.3300   33.1050 H   0  0  0  0  0  0  0  0  0  0  0  0
   39.8050   27.9900   33.2210 H   0  0  0  0  0  0  0  0  0  0  0  0
   38.3490   26.4240   31.9370 H   0  0  0  0  0  0  0  0  0  0  0  0
   36.6420   28.4290   32.6440 C   0  0  0  0  0  0  0  0  0  0  0  0
   36.9960   28.7530   31.3380 C   0  0  0  0  0  0  0  0  0  0  0  0
   36.2230   29.6550   30.6290 C   0  0  0  0  0  0  0  0  0  0  0  0
   35.1410   30.1870   31.2620 N   0  0  0  0  0  0  0  0  0  0  0  0
   34.8260   29.8550   32.5220 C   0  0  0  0  0  0  0  0  0  0  0  0
   35.5780   28.9800   33.2040 N   0  0  0  0  0  0  0  0  0  0  0  0
   37.8720   28.2800   30.9180 H   0  0  0  0  0  0  0  0  0  0  0  0
   36.5230   29.8890   29.6110 H   0  0  0  0  0  0  0  0  0  0  0  0
   33.9370   30.3210   32.9770 H   0  0  0  0  0  0  0  0  0  0  0  0
   38.0630   25.2830   33.6410 O   0  0  0  0  0  0  0  0  0  0  0  0
   36.6110   24.6240   32.0100 C   0  0  0  0  0  3  0  0  0  0  0  0
   37.4960   24.2140   33.0150 C   0  0  0  0  0  0  0  0  0  0  0  0
   37.6380   22.8550   33.1920 C   0  0  0  0  0  0  0  0  0  0  0  0
   38.3290   22.6020   33.9750 H   0  0  0  0  0  0  0  0  0  0  0  0
   36.9630   21.9430   32.4420 C   0  0  0  0  0  0  0  0  0  0  0  0
   36.9720   20.5980   32.4680 N   0  0  0  0  0  0  0  0  0  0  0  0
   36.1250   20.1580   31.5180 C   0  0  0  0  0  0  0  0  0  0  0  0
   35.9660   19.1000   31.3520 H   0  0  0  0  0  0  0  0  0  0  0  0
   35.5860   21.2230   30.8960 N   0  0  0  0  0  0  0  0  0  0  0  0
   36.0960   22.3400   31.4580 C   0  0  0  0  0  0  0  0  0  0  0  0
   35.9130   23.7060   31.2340 C   0  0  0  0  0  3  0  0  0  0  0  0
   37.5410   20.0100   33.1180 H   0  0  0  0  0  0  0  0  0  0  0  0
  1  2  1  0  0  0  0
  2  8  1  0  0  0  0
  2  7  1  0  0  0  0
  2  3  1  0  0  0  0
  3  9  1  0  0  0  0
  3 10  1  0  0  0  0
  4 11  1  0  0  0  0
  4 12  1  0  0  0  0
  4  3  1  0  0  0  0
  5  4  1  0  0  0  0
  6 15  1  6  0  0  0
  6  1  1  0  0  0  0
  6  5  1  0  0  0  0
  6 25  1  0  0  0  0
 13  5  1  0  0  0  0
 14  5  1  0  0  0  0
 16 21  1  0  0  0  0
 16  1  1  0  0  0  0
 17 16  2  0  0  0  0
 18 19  2  0  0  0  0
 18 17  1  0  0  0  0
 19 20  1  0  0  0  0
 20 24  1  0  0  0  0
 20 21  2  0  0  0  0
 22 17  1  0  0  0  0
 23 18  1  0  0  0  0
 26 27  1  0  0  0  0
 27 28  2  0  0  0  0
 27 25  1  0  0  0  0
 28 29  1  0  0  0  0
 30 31  1  0  0  0  0
 30 28  1  0  0  0  0
 31 37  1  0  0  0  0
 32 31  1  0  0  0  0
 33 32  1  0  0  0  0
 34 35  1  0  0  0  0
 34 32  2  0  0  0  0
 35 30  2  0  0  0  0
 36 35  1  0  0  0  0
 36 26  2  0  0  0  0
M  END
>  <minimizedAffinity>
-5.45172596

$$$$

 OpenBabel03272503003D

 37 40  0  0  1  0  0  0  0  0999 V2000
   38.1680   22.7950   35.9350 N   0  0  0  0  0  0  0  0  0  0  0  0
   39.5650   22.5740   36.2430 C   0  0  0  0  0  0  0  0  0  0  0  0
   39.9840   22.6830   37.6370 C   0  0  0  0  0  0  0  0  0  0  0  0
   39.1880   23.5240   38.5530 C   0  0  0  0  0  0  0  0  0  0  0  0
   37.7780   23.7590   38.1040 C   0  0  0  0  0  0  0  0  0  0  0  0
   37.7460   24.0240   36.5930 C   0  0  1  0  0  0  0  0  0  0  0  0
   39.8200   21.5750   35.8200 H   0  0  0  0  0  0  0  0  0  0  0  0
   40.1230   23.3160   35.6050 H   0  0  0  0  0  0  0  0  0  0  0  0
   40.0430   21.6470   38.0690 H   0  0  0  0  0  0  0  0  0  0  0  0
   41.0480   23.0520   37.6660 H   0  0  0  0  0  0  0  0  0  0  0  0
   39.1250   23.0580   39.5710 H   0  0  0  0  0  0  0  0  0  0  0  0
   39.6830   24.5040   38.7350 H   0  0  0  0  0  0  0  0  0  0  0  0
   37.3060   24.5670   38.6750 H   0  0  0  0  0  0  0  0  0  0  0  0
   37.2020   22.8210   38.2480 H   0  0  0  0  0  0  0  0  0  0  0  0
   36.7330   24.3220   36.3120 H   0  0  0  0  0  0  0  0  0  0  0  0
   37.3620   21.9490   35.1260 C   0  0  0  0  0  0  0  0  0  0  0  0
   36.2740   21.2160   35.5920 C   0  0  0  0  0  0  0  0  0  0  0  0
   35.5620   20.4240   34.7090 C   0  0  0  0  0  0  0  0  0  0  0  0
   35.9730   20.4060   33.4110 N   0  0  0  0  0  0  0  0  0  0  0  0
   37.0250   21.1230   32.9920 C   0  0  0  0  0  0  0  0  0  0  0  0
   37.7120   21.8890   33.8520 N   0  0  0  0  0  0  0  0  0  0  0  0
   36.0210   21.2930   36.6390 H   0  0  0  0  0  0  0  0  0  0  0  0
   34.7180   19.8630   35.1000 H   0  0  0  0  0  0  0  0  0  0  0  0
   37.3070   21.0650   31.9290 H   0  0  0  0  0  0  0  0  0  0  0  0
   38.6710   25.0450   36.3950 O   0  0  0  0  0  0  0  0  0  0  0  0
   40.1810   26.1880   35.1230 C   0  0  0  0  0  3  0  0  0  0  0  0
   38.8870   25.6590   35.1980 C   0  0  0  0  0  0  0  0  0  0  0  0
   38.0840   25.8400   34.0940 C   0  0  0  0  0  0  0  0  0  0  0  0
   37.1040   25.4130   34.2090 H   0  0  0  0  0  0  0  0  0  0  0  0
   38.5060   26.4960   32.9790 C   0  0  0  0  0  0  0  0  0  0  0  0
   37.8770   26.7670   31.8210 N   0  0  0  0  0  0  0  0  0  0  0  0
   38.7310   27.4450   31.0320 C   0  0  0  0  0  0  0  0  0  0  0  0
   38.4420   27.7730   30.0420 H   0  0  0  0  0  0  0  0  0  0  0  0
   39.8950   27.5990   31.6910 N   0  0  0  0  0  0  0  0  0  0  0  0
   39.7720   27.0160   32.9020 C   0  0  0  0  0  0  0  0  0  0  0  0
   40.6300   26.8610   33.9930 C   0  0  0  0  0  3  0  0  0  0  0  0
   36.8950   26.4940   31.5900 H   0  0  0  0  0  0  0  0  0  0  0  0
  1  2  1  0  0  0  0
  1  6  1  0  0  0  0
  2  3  1  0  0  0  0
  3 10  1  0  0  0  0
  3  9  1  0  0  0  0
  3  4  1  0  0  0  0
  4 12  1  0  0  0  0
  4 11  1  0  0  0  0
  5 14  1  0  0  0  0
  5  4  1  0  0  0  0
  5 13  1  0  0  0  0
  6 15  1  6  0  0  0
  6  5  1  0  0  0  0
  7  2  1  0  0  0  0
  8  2  1  0  0  0  0
 16 17  1  0  0  0  0
 16  1  1  0  0  0  0
 17 22  1  0  0  0  0
 18 23  1  0  0  0  0
 18 17  2  0  0  0  0
 19 18  1  0  0  0  0
 20 19  2  0  0  0  0
 20 21  1  0  0  0  0
 21 16  2  0  0  0  0
 24 20  1  0  0  0  0
 25  6  1  0  0  0  0
 26 27  1  0  0  0  0
 27 25  1  0  0  0  0
 28 29  1  0  0  0  0
 28 27  2  0  0  0  0
 30 28  1  0  0  0  0
 31 30  1  0  0  0  0
 32 34  2  0  0  0  0
 32 31  1  0  0  0  0
 33 32  1  0  0  0  0
 34 35  1  0  0  0  0
 35 30  2  0  0  0  0
 35 36  1  0  0  0  0
 36 26  2  0  0  0  0
 37 31  1  0  0  0  0
M  END
>  <minimizedAffinity>
-5.38289022

$$$$

 OpenBabel03272503003D

 37 40  0  0  1  0  0  0  0  0999 V2000
   39.2230   24.9420   34.6630 N   0  0  0  0  0  0  0  0  0  0  0  0
   39.6440   24.2950   33.4370 C   0  0  0  0  0  0  0  0  0  0  0  0
   40.6380   24.9740   32.6130 C   0  0  0  0  0  0  0  0  0  0  0  0
   40.7550   26.4430   32.7050 C   0  0  0  0  0  0  0  0  0  0  0  0
   40.2180   27.0230   33.9780 C   0  0  0  0  0  0  0  0  0  0  0  0
   38.9030   26.3290   34.3570 C   0  0  1  0  0  0  0  0  0  0  0  0
   39.9870   23.2750   33.7290 H   0  0  0  0  0  0  0  0  0  0  0  0
   38.6940   24.1310   32.8550 H   0  0  0  0  0  0  0  0  0  0  0  0
   41.6450   24.5250   32.8330 H   0  0  0  0  0  0  0  0  0  0  0  0
   40.4530   24.7090   31.5330 H   0  0  0  0  0  0  0  0  0  0  0  0
   41.8270   26.7640   32.6360 H   0  0  0  0  0  0  0  0  0  0  0  0
   40.2660   26.9420   31.8400 H   0  0  0  0  0  0  0  0  0  0  0  0
   40.1050   28.1110   33.9050 H   0  0  0  0  0  0  0  0  0  0  0  0
   40.9220   26.7800   34.8010 H   0  0  0  0  0  0  0  0  0  0  0  0
   38.4630   26.8550   35.2080 H   0  0  0  0  0  0  0  0  0  0  0  0
   39.1410   24.3160   35.9350 C   0  0  0  0  0  0  0  0  0  0  0  0
   39.9990   23.3130   36.3780 C   0  0  0  0  0  0  0  0  0  0  0  0
   39.8210   22.7770   37.6410 C   0  0  0  0  0  0  0  0  0  0  0  0
   38.7980   23.2690   38.3920 N   0  0  0  0  0  0  0  0  0  0  0  0
   37.9880   24.2350   37.9390 C   0  0  0  0  0  0  0  0  0  0  0  0
   38.1650   24.7510   36.7140 N   0  0  0  0  0  0  0  0  0  0  0  0
   40.7830   22.9860   35.7110 H   0  0  0  0  0  0  0  0  0  0  0  0
   40.5050   21.9960   37.9600 H   0  0  0  0  0  0  0  0  0  0  0  0
   37.1790   24.5900   38.5970 H   0  0  0  0  0  0  0  0  0  0  0  0
   38.1130   26.4240   33.2130 O   0  0  0  0  0  0  0  0  0  0  0  0
   36.6790   27.9450   34.1250 C   0  0  0  0  0  3  0  0  0  0  0  0
   37.2700   27.4620   32.9510 C   0  0  0  0  0  0  0  0  0  0  0  0
   36.9160   28.0930   31.7790 C   0  0  0  0  0  0  0  0  0  0  0  0
   37.4010   27.6800   30.9140 H   0  0  0  0  0  0  0  0  0  0  0  0
   36.0380   29.1320   31.7420 C   0  0  0  0  0  0  0  0  0  0  0  0
   35.5770   29.8630   30.7110 N   0  0  0  0  0  0  0  0  0  0  0  0
   34.7220   30.7790   31.2000 C   0  0  0  0  0  0  0  0  0  0  0  0
   34.2220   31.4860   30.5500 H   0  0  0  0  0  0  0  0  0  0  0  0
   34.6450   30.6270   32.5360 N   0  0  0  0  0  0  0  0  0  0  0  0
   35.4560   29.6070   32.8890 C   0  0  0  0  0  0  0  0  0  0  0  0
   35.7800   29.0050   34.1060 C   0  0  0  0  0  3  0  0  0  0  0  0
   35.8450   29.7300   29.7100 H   0  0  0  0  0  0  0  0  0  0  0  0
  1 16  1  0  0  0  0
  2  7  1  0  0  0  0
  2  1  1  0  0  0  0
  3  4  1  0  0  0  0
  3  9  1  0  0  0  0
  3  2  1  0  0  0  0
  4  5  1  0  0  0  0
  5  6  1  0  0  0  0
  5 14  1  0  0  0  0
  6  1  1  0  0  0  0
  6 15  1  1  0  0  0
  8  2  1  0  0  0  0
 10  3  1  0  0  0  0
 11  4  1  0  0  0  0
 12  4  1  0  0  0  0
 13  5  1  0  0  0  0
 16 17  2  0  0  0  0
 16 21  1  0  0  0  0
 17 18  1  0  0  0  0
 18 23  1  0  0  0  0
 18 19  2  0  0  0  0
 20 19  1  0  0  0  0
 20 24  1  0  0  0  0
 21 20  2  0  0  0  0
 22 17  1  0  0  0  0
 25  6  1  0  0  0  0
 27 25  1  0  0  0  0
 27 26  2  0  0  0  0
 28 27  1  0  0  0  0
 29 28  1  0  0  0  0
 30 28  2  0  0  0  0
 30 35  1  0  0  0  0
 31 32  1  0  0  0  0
 31 30  1  0  0  0  0
 32 34  2  0  0  0  0
 33 32  1  0  0  0  0
 34 35  1  0  0  0  0
 35 36  2  0  0  0  0
 36 26  1  0  0  0  0
 37 31  1  0  0  0  0
M  END
>  <minimizedAffinity>
-5.34980536

$$$$

 OpenBabel03272503003D

 37 40  0  0  1  0  0  0  0  0999 V2000
   37.6660   26.3990   31.3800 N   0  0  0  0  0  0  0  0  0  0  0  0
   38.9190   26.0420   30.7500 C   0  0  0  0  0  0  0  0  0  0  0  0
   38.9700   24.8020   29.9820 C   0  0  0  0  0  0  0  0  0  0  0  0
   38.0200   23.7210   30.3140 C   0  0  0  0  0  0  0  0  0  0  0  0
   36.7920   24.1830   31.0380 C   0  0  0  0  0  0  0  0  0  0  0  0
   37.1680   25.2310   32.0940 C   0  0  1  0  0  0  0  0  0  0  0  0
   39.2110   26.9180   30.1250 H   0  0  0  0  0  0  0  0  0  0  0  0
   39.6700   26.0160   31.5900 H   0  0  0  0  0  0  0  0  0  0  0  0
   38.8490   25.0560   28.8930 H   0  0  0  0  0  0  0  0  0  0  0  0
   40.0120   24.3790   30.0480 H   0  0  0  0  0  0  0  0  0  0  0  0
   37.6670   23.1990   29.3870 H   0  0  0  0  0  0  0  0  0  0  0  0
   38.5130   22.9180   30.9050 H   0  0  0  0  0  0  0  0  0  0  0  0
   36.2410   23.3400   31.4700 H   0  0  0  0  0  0  0  0  0  0  0  0
   36.1390   24.7190   30.3160 H   0  0  0  0  0  0  0  0  0  0  0  0
   36.2830   25.4540   32.6950 H   0  0  0  0  0  0  0  0  0  0  0  0
   37.0440   27.6740   31.3070 C   0  0  0  0  0  0  0  0  0  0  0  0
   36.3150   28.2560   32.3410 C   0  0  0  0  0  0  0  0  0  0  0  0
   35.7530   29.5060   32.1540 C   0  0  0  0  0  0  0  0  0  0  0  0
   35.9460   30.1060   30.9470 N   0  0  0  0  0  0  0  0  0  0  0  0
   36.6520   29.5200   29.9710 C   0  0  0  0  0  0  0  0  0  0  0  0
   37.1950   28.3090   30.1570 N   0  0  0  0  0  0  0  0  0  0  0  0
   36.2160   27.7050   33.2640 H   0  0  0  0  0  0  0  0  0  0  0  0
   35.1900   29.9360   32.9770 H   0  0  0  0  0  0  0  0  0  0  0  0
   36.7720   30.0590   29.0170 H   0  0  0  0  0  0  0  0  0  0  0  0
   38.1770   24.6290   32.8420 O   0  0  0  0  0  0  0  0  0  0  0  0
   38.0720   25.7740   34.8120 C   0  0  0  0  0  3  0  0  0  0  0  0
   38.1570   24.5180   34.2000 C   0  0  0  0  0  0  0  0  0  0  0  0
   38.2030   23.4270   35.0400 C   0  0  0  0  0  0  0  0  0  0  0  0
   38.2670   22.4920   34.5140 H   0  0  0  0  0  0  0  0  0  0  0  0
   38.1690   23.5430   36.3950 C   0  0  0  0  0  0  0  0  0  0  0  0
   38.2040   22.6080   37.3630 N   0  0  0  0  0  0  0  0  0  0  0  0
   38.1450   23.2380   38.5510 C   0  0  0  0  0  0  0  0  0  0  0  0
   38.1580   22.6850   39.4820 H   0  0  0  0  0  0  0  0  0  0  0  0
   38.0720   24.5640   38.3320 N   0  0  0  0  0  0  0  0  0  0  0  0
   38.0870   24.7700   36.9980 C   0  0  0  0  0  0  0  0  0  0  0  0
   38.0370   25.9120   36.1950 C   0  0  0  0  0  3  0  0  0  0  0  0
   38.2670   21.5780   37.2040 H   0  0  0  0  0  0  0  0  0  0  0  0
  1  6  1  0  0  0  0
  2  1  1  0  0  0  0
  2  8  1  0  0  0  0
  3 10  1  0  0  0  0
  3  4  1  0  0  0  0
  3  2  1  0  0  0  0
  4 12  1  0  0  0  0
  4  5  1  0  0  0  0
  5 13  1  0  0  0  0
  5  6  1  0  0  0  0
  6 15  1  1  0  0  0
  6 25  1  0  0  0  0
  7  2  1  0  0  0  0
  9  3  1  0  0  0  0
 11  4  1  0  0  0  0
 14  5  1  0  0  0  0
 16  1  1  0  0  0  0
 16 17  1  0  0  0  0
 17 22  1  0  0  0  0
 18 17  2  0  0  0  0
 18 23  1  0  0  0  0
 19 18  1  0  0  0  0
 20 21  1  0  0  0  0
 20 19  2  0  0  0  0
 21 16  2  0  0  0  0
 24 20  1  0  0  0  0
 25 27  1  0  0  0  0
 26 36  1  0  0  0  0
 27 26  2  0  0  0  0
 27 28  1  0  0  0  0
 28 30  2  0  0  0  0
 29 28  1  0  0  0  0
 30 35  1  0  0  0  0
 30 31  1  0  0  0  0
 31 32  1  0  0  0  0
 32 33  1  0  0  0  0
 34 32  2  0  0  0  0
 35 34  1  0  0  0  0
 36 35  2  0  0  0  0
 37 31  1  0  0  0  0
M  END
>  <minimizedAffinity>
-5.32407904

$$$$

 OpenBabel03272503003D

 37 40  0  0  1  0  0  0  0  0999 V2000
   37.8520   25.5060   33.8420 N   0  0  0  0  0  0  0  0  0  0  0  0
   37.6460   26.3700   34.9860 C   0  0  0  0  0  0  0  0  0  0  0  0
   38.7440   27.2390   35.3930 C   0  0  0  0  0  0  0  0  0  0  0  0
   40.1260   26.8440   35.0540 C   0  0  0  0  0  0  0  0  0  0  0  0
   40.2270   25.8850   33.9080 C   0  0  0  0  0  0  0  0  0  0  0  0
   39.1260   24.8220   34.0150 C   0  0  1  0  0  0  0  0  0  0  0  0
   36.7240   26.9570   34.7660 H   0  0  0  0  0  0  0  0  0  0  0  0
   37.3600   25.6750   35.8260 H   0  0  0  0  0  0  0  0  0  0  0  0
   38.5570   28.2650   34.9730 H   0  0  0  0  0  0  0  0  0  0  0  0
   38.6920   27.3880   36.5090 H   0  0  0  0  0  0  0  0  0  0  0  0
   40.7420   27.7400   34.7760 H   0  0  0  0  0  0  0  0  0  0  0  0
   40.6530   26.4180   35.9360 H   0  0  0  0  0  0  0  0  0  0  0  0
   41.2270   25.4400   33.8450 H   0  0  0  0  0  0  0  0  0  0  0  0
   40.0090   26.4350   32.9680 H   0  0  0  0  0  0  0  0  0  0  0  0
   39.2990   24.0610   33.2490 H   0  0  0  0  0  0  0  0  0  0  0  0
   36.9550   25.3610   32.7500 C   0  0  0  0  0  0  0  0  0  0  0  0
   36.3400   26.4200   32.0890 C   0  0  0  0  0  0  0  0  0  0  0  0
   35.4830   26.1570   31.0350 C   0  0  0  0  0  0  0  0  0  0  0  0
   35.2850   24.8520   30.7000 N   0  0  0  0  0  0  0  0  0  0  0  0
   35.8920   23.8530   31.3560 C   0  0  0  0  0  0  0  0  0  0  0  0
   36.7220   24.1140   32.3760 N   0  0  0  0  0  0  0  0  0  0  0  0
   36.5580   27.4230   32.4260 H   0  0  0  0  0  0  0  0  0  0  0  0
   35.0170   27.0020   30.5380 H   0  0  0  0  0  0  0  0  0  0  0  0
   35.6900   22.8190   31.0350 H   0  0  0  0  0  0  0  0  0  0  0  0
   39.2550   24.3110   35.3040 O   0  0  0  0  0  0  0  0  0  0  0  0
   40.0270   23.0130   37.0130 C   0  0  0  0  0  3  0  0  0  0  0  0
   40.1200   23.3170   35.6490 C   0  0  0  0  0  0  0  0  0  0  0  0
   41.0320   22.5890   34.9170 C   0  0  0  0  0  0  0  0  0  0  0  0
   41.0580   22.8660   33.8790 H   0  0  0  0  0  0  0  0  0  0  0  0
   41.8120   21.6220   35.4710 C   0  0  0  0  0  0  0  0  0  0  0  0
   42.7440   20.8180   34.9260 N   0  0  0  0  0  0  0  0  0  0  0  0
   43.2330   20.0290   35.9000 C   0  0  0  0  0  0  0  0  0  0  0  0
   44.0010   19.2940   35.6960 H   0  0  0  0  0  0  0  0  0  0  0  0
   42.6100   20.3330   37.0540 N   0  0  0  0  0  0  0  0  0  0  0  0
   41.7250   21.3210   36.8050 C   0  0  0  0  0  0  0  0  0  0  0  0
   40.8160   22.0280   37.5960 C   0  0  0  0  0  3  0  0  0  0  0  0
   43.0280   20.8200   33.9210 H   0  0  0  0  0  0  0  0  0  0  0  0
  1  6  1  0  0  0  0
  1  2  1  0  0  0  0
  2  3  1  0  0  0  0
  2  8  1  0  0  0  0
  3 10  1  0  0  0  0
  4  3  1  0  0  0  0
  4 12  1  0  0  0  0
  5  6  1  0  0  0  0
  5  4  1  0  0  0  0
  6 15  1  6  0  0  0
  6 25  1  0  0  0  0
  7  2  1  0  0  0  0
  9  3  1  0  0  0  0
 11  4  1  0  0  0  0
 13  5  1  0  0  0  0
 14  5  1  0  0  0  0
 16  1  1  0  0  0  0
 17 22  1  0  0  0  0
 17 16  2  0  0  0  0
 18 17  1  0  0  0  0
 19 18  2  0  0  0  0
 19 20  1  0  0  0  0
 20 21  2  0  0  0  0
 21 16  1  0  0  0  0
 23 18  1  0  0  0  0
 24 20  1  0  0  0  0
 25 27  1  0  0  0  0
 26 36  1  0  0  0  0
 27 26  2  0  0  0  0
 28 30  2  0  0  0  0
 28 27  1  0  0  0  0
 29 28  1  0  0  0  0
 30 35  1  0  0  0  0
 31 30  1  0  0  0  0
 31 32  1  0  0  0  0
 32 34  2  0  0  0  0
 33 32  1  0  0  0  0
 35 34  1  0  0  0  0
 35 36  2  0  0  0  0
 37 31  1  0  0  0  0
M  END
>  <minimizedAffinity>
-5.28189182

$$$$

 OpenBabel03272503003D

 37 40  0  0  1  0  0  0  0  0999 V2000
   36.9360   22.8700   31.5550 N   0  0  0  0  0  0  0  0  0  0  0  0
   37.9780   22.1450   30.8590 C   0  0  0  0  0  0  0  0  0  0  0  0
   37.6690   20.8060   30.3680 C   0  0  0  0  0  0  0  0  0  0  0  0
   36.6040   20.0320   31.0370 C   0  0  0  0  0  0  0  0  0  0  0  0
   35.6220   20.8690   31.7980 C   0  0  0  0  0  0  0  0  0  0  0  0
   36.3560   21.9830   32.5550 C   0  0  1  0  0  0  0  0  0  0  0  0
   38.3180   22.8120   30.0330 H   0  0  0  0  0  0  0  0  0  0  0  0
   38.8400   22.1100   31.5840 H   0  0  0  0  0  0  0  0  0  0  0  0
   37.4170   20.8810   29.2740 H   0  0  0  0  0  0  0  0  0  0  0  0
   38.6110   20.1880   30.3890 H   0  0  0  0  0  0  0  0  0  0  0  0
   36.0100   19.4400   30.2920 H   0  0  0  0  0  0  0  0  0  0  0  0
   37.0310   19.2610   31.7160 H   0  0  0  0  0  0  0  0  0  0  0  0
   35.0040   20.2550   32.4630 H   0  0  0  0  0  0  0  0  0  0  0  0
   34.9680   21.3940   31.0690 H   0  0  0  0  0  0  0  0  0  0  0  0
   35.6410   22.4950   33.2040 H   0  0  0  0  0  0  0  0  0  0  0  0
   36.5570   24.2150   31.2960 C   0  0  0  0  0  0  0  0  0  0  0  0
   35.2450   24.6430   31.1160 C   0  0  0  0  0  0  0  0  0  0  0  0
   34.9970   25.9820   30.8690 C   0  0  0  0  0  0  0  0  0  0  0  0
   36.0700   26.8190   30.8130 N   0  0  0  0  0  0  0  0  0  0  0  0
   37.3220   26.3750   30.9910 C   0  0  0  0  0  0  0  0  0  0  0  0
   37.5570   25.0770   31.2300 N   0  0  0  0  0  0  0  0  0  0  0  0
   34.4570   23.9070   31.1790 H   0  0  0  0  0  0  0  0  0  0  0  0
   33.9640   26.2880   30.7330 H   0  0  0  0  0  0  0  0  0  0  0  0
   38.1470   27.1040   30.9340 H   0  0  0  0  0  0  0  0  0  0  0  0
   37.3460   21.3230   33.2780 O   0  0  0  0  0  0  0  0  0  0  0  0
   39.2590   21.9670   34.3400 C   0  0  0  0  0  3  0  0  0  0  0  0
   37.8750   21.7850   34.4460 C   0  0  0  0  0  0  0  0  0  0  0  0
   37.3060   22.0930   35.6610 C   0  0  0  0  0  0  0  0  0  0  0  0
   36.2430   21.9340   35.6830 H   0  0  0  0  0  0  0  0  0  0  0  0
   38.0320   22.5500   36.7160 C   0  0  0  0  0  0  0  0  0  0  0  0
   37.6590   22.8980   37.9620 N   0  0  0  0  0  0  0  0  0  0  0  0
   38.7600   23.2870   38.6320 C   0  0  0  0  0  0  0  0  0  0  0  0
   38.7050   23.6150   39.6620 H   0  0  0  0  0  0  0  0  0  0  0  0
   39.8220   23.1860   37.8120 N   0  0  0  0  0  0  0  0  0  0  0  0
   39.3870   22.7290   36.6180 C   0  0  0  0  0  0  0  0  0  0  0  0
   40.0180   22.4330   35.4070 C   0  0  0  0  0  3  0  0  0  0  0  0
   36.6820   22.8650   38.3300 H   0  0  0  0  0  0  0  0  0  0  0  0
  1  6  1  0  0  0  0
  2  1  1  0  0  0  0
  2  8  1  0  0  0  0
  3 10  1  0  0  0  0
  3  2  1  0  0  0  0
  3  4  1  0  0  0  0
  4 12  1  0  0  0  0
  4  5  1  0  0  0  0
  5 13  1  0  0  0  0
  5  6  1  0  0  0  0
  6 15  1  1  0  0  0
  6 25  1  0  0  0  0
  7  2  1  0  0  0  0
  9  3  1  0  0  0  0
 11  4  1  0  0  0  0
 14  5  1  0  0  0  0
 16  1  1  0  0  0  0
 17 22  1  0  0  0  0
 17 16  2  0  0  0  0
 18 17  1  0  0  0  0
 19 18  2  0  0  0  0
 19 20  1  0  0  0  0
 20 21  2  0  0  0  0
 21 16  1  0  0  0  0
 23 18  1  0  0  0  0
 24 20  1  0  0  0  0
 25 27  1  0  0  0  0
 26 27  2  0  0  0  0
 26 36  1  0  0  0  0
 27 28  1  0  0  0  0
 28 29  1  0  0  0  0
 28 30  2  0  0  0  0
 30 31  1  0  0  0  0
 31 37  1  0  0  0  0
 31 32  1  0  0  0  0
 32 33  1  0  0  0  0
 34 32  2  0  0  0  0
 35 30  1  0  0  0  0
 35 34  1  0  0  0  0
 36 35  2  0  0  0  0
M  END
>  <minimizedAffinity>
-5.26496029

$$$$

 OpenBabel03272503003D

 37 40  0  0  1  0  0  0  0  0999 V2000
   38.9010   24.8440   34.7810 N   0  0  0  0  0  0  0  0  0  0  0  0
   40.1050   25.1430   34.0350 C   0  0  0  0  0  0  0  0  0  0  0  0
   40.1890   26.4340   33.3600 C   0  0  0  0  0  0  0  0  0  0  0  0
   38.9380   27.1150   32.9720 C   0  0  0  0  0  0  0  0  0  0  0  0
   37.7330   26.6770   33.7480 C   0  0  0  0  0  0  0  0  0  0  0  0
   37.7550   25.1550   33.9360 C   0  0  1  0  0  0  0  0  0  0  0  0
   40.9510   25.0020   34.7470 H   0  0  0  0  0  0  0  0  0  0  0  0
   40.2020   24.3020   33.2910 H   0  0  0  0  0  0  0  0  0  0  0  0
   40.7850   27.1330   34.0090 H   0  0  0  0  0  0  0  0  0  0  0  0
   40.8200   26.3170   32.4340 H   0  0  0  0  0  0  0  0  0  0  0  0
   39.0240   28.2240   33.1160 H   0  0  0  0  0  0  0  0  0  0  0  0
   38.7350   26.9990   31.8850 H   0  0  0  0  0  0  0  0  0  0  0  0
   36.8060   27.0220   33.2760 H   0  0  0  0  0  0  0  0  0  0  0  0
   37.8030   27.0980   34.7740 H   0  0  0  0  0  0  0  0  0  0  0  0
   36.8080   24.8440   34.3850 H   0  0  0  0  0  0  0  0  0  0  0  0
   38.8600   24.3340   36.1060 C   0  0  0  0  0  0  0  0  0  0  0  0
   37.9590   24.7480   37.0830 C   0  0  0  0  0  0  0  0  0  0  0  0
   38.0150   24.1780   38.3420 C   0  0  0  0  0  0  0  0  0  0  0  0
   38.9670   23.2290   38.5590 N   0  0  0  0  0  0  0  0  0  0  0  0
   39.8210   22.8510   37.5980 C   0  0  0  0  0  0  0  0  0  0  0  0
   39.7620   23.4070   36.3790 N   0  0  0  0  0  0  0  0  0  0  0  0
   37.2380   25.5070   36.8180 H   0  0  0  0  0  0  0  0  0  0  0  0
   37.2990   24.5200   39.0840 H   0  0  0  0  0  0  0  0  0  0  0  0
   40.5680   22.0770   37.8380 H   0  0  0  0  0  0  0  0  0  0  0  0
   37.9230   24.6450   32.6510 O   0  0  0  0  0  0  0  0  0  0  0  0
   36.2500   23.4370   31.6780 C   0  0  0  0  0  3  0  0  0  0  0  0
   37.5210   23.4010   32.2650 C   0  0  0  0  0  0  0  0  0  0  0  0
   38.1250   22.1660   32.3480 C   0  0  0  0  0  0  0  0  0  0  0  0
   39.0970   22.2010   32.8050 H   0  0  0  0  0  0  0  0  0  0  0  0
   37.5350   21.0290   31.8900 C   0  0  0  0  0  0  0  0  0  0  0  0
   37.9630   19.7530   31.8840 N   0  0  0  0  0  0  0  0  0  0  0  0
   37.0040   18.9970   31.3160 C   0  0  0  0  0  0  0  0  0  0  0  0
   37.1270   17.9270   31.2010 H   0  0  0  0  0  0  0  0  0  0  0  0
   35.9780   19.7940   30.9660 N   0  0  0  0  0  0  0  0  0  0  0  0
   36.2910   21.0600   31.3160 C   0  0  0  0  0  0  0  0  0  0  0  0
   35.6320   22.2850   31.2060 C   0  0  0  0  0  3  0  0  0  0  0  0
   38.8800   19.4220   32.2580 H   0  0  0  0  0  0  0  0  0  0  0  0
  1 16  1  0  0  0  0
  2  7  1  0  0  0  0
  2  1  1  0  0  0  0
  3  9  1  0  0  0  0
  3  2  1  0  0  0  0
  4 11  1  0  0  0  0
  4  3  1  0  0  0  0
  4  5  1  0  0  0  0
  5  6  1  0  0  0  0
  5 14  1  0  0  0  0
  6 15  1  1  0  0  0
  6  1  1  0  0  0  0
  8  2  1  0  0  0  0
 10  3  1  0  0  0  0
 12  4  1  0  0  0  0
 13  5  1  0  0  0  0
 16 21  2  0  0  0  0
 16 17  1  0  0  0  0
 17 18  2  0  0  0  0
 18 19  1  0  0  0  0
 18 23  1  0  0  0  0
 20 24  1  0  0  0  0
 20 19  2  0  0  0  0
 21 20  1  0  0  0  0
 22 17  1  0  0  0  0
 25  6  1  0  0  0  0
 26 27  1  0  0  0  0
 27 28  2  0  0  0  0
 27 25  1  0  0  0  0
 28 29  1  0  0  0  0
 30 28  1  0  0  0  0
 31 30  1  0  0  0  0
 31 37  1  0  0  0  0
 32 31  1  0  0  0  0
 33 32  1  0  0  0  0
 34 32  2  0  0  0  0
 34 35  1  0  0  0  0
 35 30  2  0  0  0  0
 36 35  1  0  0  0  0
 36 26  2  0  0  0  0
M  END
>  <minimizedAffinity>
-5.25907135

$$$$

 OpenBabel03272503003D

 37 40  0  0  1  0  0  0  0  0999 V2000
   38.2890   26.8350   32.9950 N   0  0  0  0  0  0  0  0  0  0  0  0
   37.1380   27.0490   33.8460 C   0  0  0  0  0  0  0  0  0  0  0  0
   37.3660   27.5860   35.1840 C   0  0  0  0  0  0  0  0  0  0  0  0
   38.6790   27.3650   35.8230 C   0  0  0  0  0  0  0  0  0  0  0  0
   39.7900   27.0720   34.8610 C   0  0  0  0  0  0  0  0  0  0  0  0
   39.2970   26.1190   33.7650 C   0  0  1  0  0  0  0  0  0  0  0  0
   36.4390   27.6940   33.2640 H   0  0  0  0  0  0  0  0  0  0  0  0
   36.6310   26.0440   33.9060 H   0  0  0  0  0  0  0  0  0  0  0  0
   37.1670   28.6920   35.1580 H   0  0  0  0  0  0  0  0  0  0  0  0
   36.5730   27.1820   35.8750 H   0  0  0  0  0  0  0  0  0  0  0  0
   38.9950   28.2670   36.4100 H   0  0  0  0  0  0  0  0  0  0  0  0
   38.6280   26.5540   36.5810 H   0  0  0  0  0  0  0  0  0  0  0  0
   40.6750   26.6850   35.3780 H   0  0  0  0  0  0  0  0  0  0  0  0
   40.0540   28.0120   34.3310 H   0  0  0  0  0  0  0  0  0  0  0  0
   40.1510   25.8150   33.1550 H   0  0  0  0  0  0  0  0  0  0  0  0
   38.4000   27.2570   31.6420 C   0  0  0  0  0  0  0  0  0  0  0  0
   39.5190   27.0480   30.8410 C   0  0  0  0  0  0  0  0  0  0  0  0
   39.5120   27.5060   29.5350 C   0  0  0  0  0  0  0  0  0  0  0  0
   38.3930   28.1470   29.1010 N   0  0  0  0  0  0  0  0  0  0  0  0
   37.3310   28.3340   29.8970 C   0  0  0  0  0  0  0  0  0  0  0  0
   37.3420   27.8880   31.1620 N   0  0  0  0  0  0  0  0  0  0  0  0
   40.3620   26.5280   31.2720 H   0  0  0  0  0  0  0  0  0  0  0  0
   40.3980   27.3280   28.9330 H   0  0  0  0  0  0  0  0  0  0  0  0
   36.4550   28.8600   29.4850 H   0  0  0  0  0  0  0  0  0  0  0  0
   38.7350   25.0480   34.4570 O   0  0  0  0  0  0  0  0  0  0  0  0
   38.8400   23.8490   36.3940 C   0  0  0  0  0  3  0  0  0  0  0  0
   39.4560   24.1380   35.1700 C   0  0  0  0  0  0  0  0  0  0  0  0
   40.6370   23.4810   34.9060 C   0  0  0  0  0  0  0  0  0  0  0  0
   41.0620   23.7420   33.9540 H   0  0  0  0  0  0  0  0  0  0  0  0
   41.1920   22.5930   35.7740 C   0  0  0  0  0  0  0  0  0  0  0  0
   42.3210   21.8650   35.6910 N   0  0  0  0  0  0  0  0  0  0  0  0
   42.4290   21.1360   36.8180 C   0  0  0  0  0  0  0  0  0  0  0  0
   43.2650   20.4670   36.9780 H   0  0  0  0  0  0  0  0  0  0  0  0
   41.3710   21.4030   37.6060 N   0  0  0  0  0  0  0  0  0  0  0  0
   40.5930   22.3070   36.9730 C   0  0  0  0  0  0  0  0  0  0  0  0
   39.3940   22.9450   37.2940 C   0  0  0  0  0  3  0  0  0  0  0  0
   42.9880   21.8750   34.8880 H   0  0  0  0  0  0  0  0  0  0  0  0
  1  6  1  0  0  0  0
  1  2  1  0  0  0  0
  2  8  1  0  0  0  0
  2  3  1  0  0  0  0
  3  4  1  0  0  0  0
  3 10  1  0  0  0  0
  4 11  1  0  0  0  0
  4 12  1  0  0  0  0
  5 13  1  0  0  0  0
  5  4  1  0  0  0  0
  6 15  1  6  0  0  0
  6 25  1  0  0  0  0
  6  5  1  0  0  0  0
  7  2  1  0  0  0  0
  9  3  1  0  0  0  0
 14  5  1  0  0  0  0
 16  1  1  0  0  0  0
 17 22  1  0  0  0  0
 17 16  2  0  0  0  0
 18 17  1  0  0  0  0
 19 18  2  0  0  0  0
 19 20  1  0  0  0  0
 20 21  2  0  0  0  0
 21 16  1  0  0  0  0
 23 18  1  0  0  0  0
 24 20  1  0  0  0  0
 25 27  1  0  0  0  0
 26 36  1  0  0  0  0
 27 26  2  0  0  0  0
 28 27  1  0  0  0  0
 28 30  2  0  0  0  0
 29 28  1  0  0  0  0
 30 35  1  0  0  0  0
 31 30  1  0  0  0  0
 31 32  1  0  0  0  0
 32 33  1  0  0  0  0
 32 34  2  0  0  0  0
 35 36  2  0  0  0  0
 35 34  1  0  0  0  0
 37 31  1  0  0  0  0
M  END
>  <minimizedAffinity>
-5.23903894

$$$$
