
 OpenBabel03272503053D

 35 38  0  0  0  0  0  0  0  0999 V2000
   38.1160   30.1470   47.4940 F   0  0  0  0  0  0  0  0  0  0  0  0
   38.3750   31.3950   47.9800 C   0  0  0  0  0  0  0  0  0  0  0  0
   37.7120   31.8320   49.0940 C   0  0  0  0  0  0  0  0  0  0  0  0
   38.0220   33.0940   49.5250 C   0  0  0  0  0  0  0  0  0  0  0  0
   38.9390   33.9030   48.9030 C   0  0  0  0  0  0  0  0  0  0  0  0
   39.5900   33.4270   47.7780 C   0  0  0  0  0  0  0  0  0  0  0  0
   39.3040   32.1600   47.3130 C   0  0  0  0  0  0  0  0  0  0  0  0
   37.4900   33.4480   50.4210 H   0  0  0  0  0  0  0  0  0  0  0  0
   39.1130   34.8890   49.3250 H   0  0  0  0  0  0  0  0  0  0  0  0
   40.3090   34.0650   47.2910 H   0  0  0  0  0  0  0  0  0  0  0  0
   36.0820   29.3610   51.4470 C   0  0  0  0  0  0  0  0  0  0  0  0
   37.0380   30.2150   50.8610 C   0  0  0  0  0  0  0  0  0  0  0  0
   36.7450   30.9390   49.7250 C   0  0  0  0  0  0  0  0  0  0  0  0
   35.4930   30.7880   49.2030 N   0  0  0  0  0  0  0  0  0  0  0  0
   34.5820   29.9730   49.7630 C   0  0  0  0  0  0  0  0  0  0  0  0
   34.8730   29.2770   50.8610 N   0  0  0  0  0  0  0  0  0  0  0  0
   36.3740   28.8140   52.3450 H   0  0  0  0  0  0  0  0  0  0  0  0
   38.0360   30.3590   51.2460 H   0  0  0  0  0  0  0  0  0  0  0  0
   33.6170   29.9190   49.2760 H   0  0  0  0  0  0  0  0  0  0  0  0
   39.2730   31.9030   44.9290 C   0  0  0  0  0  0  0  0  0  0  0  0
   38.1930   32.5540   45.0470 O   0  0  0  0  0  0  0  0  0  0  0  0
   39.9590   31.6350   46.1510 N   0  0  0  0  0  0  0  0  0  0  0  0
   40.8370   31.1060   46.1040 H   0  0  0  0  0  0  0  0  0  0  0  0
   39.1960   32.2040   42.5520 C   0  0  0  0  0  3  0  0  0  0  0  0
   39.7160   31.4970   43.6170 C   0  0  0  0  0  0  0  0  0  0  0  0
   40.6090   30.4570   43.4610 C   0  0  0  0  0  0  0  0  0  0  0  0
   41.0180   29.9040   44.2960 H   0  0  0  0  0  0  0  0  0  0  0  0
   41.0090   30.0980   42.1860 C   0  0  0  0  0  0  0  0  0  0  0  0
   41.8480   29.1500   41.7320 N   0  0  0  0  0  0  0  0  0  0  0  0
   41.8640   29.2470   40.4010 C   0  0  0  0  0  0  0  0  0  0  0  0
   42.4690   28.5880   39.7890 H   0  0  0  0  0  0  0  0  0  0  0  0
   41.0510   30.2400   40.0130 N   0  0  0  0  0  0  0  0  0  0  0  0
   40.4900   30.8040   41.1190 C   0  0  0  0  0  0  0  0  0  0  0  0
   39.5940   31.8490   41.2580 C   0  0  0  0  0  3  0  0  0  0  0  0
   42.3640   28.4870   42.3540 H   0  0  0  0  0  0  0  0  0  0  0  0
  1  2  1  0  0  0  0
  2  3  1  0  0  0  0
  3  4  2  0  0  0  0
  3 13  1  0  0  0  0
  4  8  1  0  0  0  0
  5  9  1  0  0  0  0
  5  4  1  0  0  0  0
  6  5  2  0  0  0  0
  7  6  1  0  0  0  0
  7  2  2  0  0  0  0
 10  6  1  0  0  0  0
 11 17  1  0  0  0  0
 12 18  1  0  0  0  0
 12 11  1  0  0  0  0
 13 12  2  0  0  0  0
 14 13  1  0  0  0  0
 14 15  2  0  0  0  0
 15 16  1  0  0  0  0
 16 11  2  0  0  0  0
 19 15  1  0  0  0  0
 20 21  2  0  0  0  0
 20 22  1  0  0  0  0
 22  7  1  0  0  0  0
 23 22  1  0  0  0  0
 24 25  1  0  0  0  0
 25 20  1  0  0  0  0
 26 25  2  0  0  0  0
 26 27  1  0  0  0  0
 28 26  1  0  0  0  0
 29 28  1  0  0  0  0
 29 35  1  0  0  0  0
 30 29  1  0  0  0  0
 31 30  1  0  0  0  0
 32 30  2  0  0  0  0
 32 33  1  0  0  0  0
 33 34  1  0  0  0  0
 33 28  2  0  0  0  0
 34 24  2  0  0  0  0
M  END
>  <minimizedAffinity>
-7.36139631

>  <minimizedRMSD>
0.816765308

$$$$
