
 OpenBabel03272504223D

 42 45  0  0  1  0  0  0  0  0999 V2000
   38.8720   32.4070   47.8610 C   0  0  2  0  0  0  0  0  0  0  0  0
   38.1930   31.3900   48.7630 C   0  0  1  0  0  0  0  0  0  0  0  0
   38.7020   31.9250   50.1130 C   0  0  0  0  0  0  0  0  0  0  0  0
   38.3780   33.2690   49.9950 O   0  0  0  0  0  0  0  0  0  0  0  0
   38.6810   33.6550   48.7110 C   0  0  0  0  0  0  0  0  0  0  0  0
   39.9400   32.1220   47.7950 H   0  0  0  0  0  0  0  0  0  0  0  0
   38.5110   30.3620   48.5920 H   0  0  0  0  0  0  0  0  0  0  0  0
   39.8020   31.8220   50.0980 H   0  0  0  0  0  0  0  0  0  0  0  0
   38.2080   31.4470   50.9580 H   0  0  0  0  0  0  0  0  0  0  0  0
   39.5770   34.2940   48.7210 H   0  0  0  0  0  0  0  0  0  0  0  0
   37.8270   34.2280   48.2550 H   0  0  0  0  0  0  0  0  0  0  0  0
   36.8380   31.6020   48.6580 O   0  0  0  0  0  0  0  0  0  0  0  0
   35.9350   29.8480   46.9600 O   0  0  0  0  0  0  0  0  0  0  0  0
   35.9790   30.1710   48.4230 P   0  0  1  0  0  0  0  0  0  0  0  0
   36.7620   28.8750   49.2310 O   0  0  0  0  0  0  0  0  0  0  0  0
   37.5360   28.5670   48.7050 H   0  0  0  0  0  0  0  0  0  0  0  0
   34.4030   30.3380   49.0460 O   0  0  0  0  0  0  0  0  0  0  0  0
   34.1370   29.2050   49.7880 C   0  0  0  0  0  0  0  0  0  0  0  0
   33.5770   29.5600   50.6950 H   0  0  0  0  0  0  0  0  0  0  0  0
   35.0670   28.7510   50.1710 H   0  0  0  0  0  0  0  0  0  0  0  0
   33.2760   28.2320   49.0810 C   0  0  0  0  0  0  0  0  0  0  0  0
   33.9050   27.3400   48.2460 C   0  0  0  0  0  0  0  0  0  0  0  0
   33.1480   26.3960   47.5490 C   0  0  0  0  0  0  0  0  0  0  0  0
   31.7980   26.4190   47.7460 N   0  0  0  0  0  0  0  0  0  0  0  0
   31.2030   27.3050   48.5720 C   0  0  0  0  0  0  0  0  0  0  0  0
   31.9400   28.2160   49.2430 N   0  0  0  0  0  0  0  0  0  0  0  0
   34.9500   27.2450   48.0280 H   0  0  0  0  0  0  0  0  0  0  0  0
   33.5510   25.6540   46.8710 H   0  0  0  0  0  0  0  0  0  0  0  0
   30.1230   27.3000   48.7090 H   0  0  0  0  0  0  0  0  0  0  0  0
   38.1950   32.4340   46.6700 O   0  0  0  0  0  0  0  0  0  0  0  0
   39.8880   31.5630   45.3510 C   0  0  0  0  0  3  0  0  0  0  0  0
   38.6580   32.2100   45.3950 C   0  0  0  0  0  0  0  0  0  0  0  0
   38.0570   32.5430   44.1890 C   0  0  0  0  0  0  0  0  0  0  0  0
   37.1030   33.0440   44.3100 H   0  0  0  0  0  0  0  0  0  0  0  0
   38.6760   32.2360   42.9910 C   0  0  0  0  0  0  0  0  0  0  0  0
   38.2520   32.4770   41.7350 N   0  0  0  0  0  0  0  0  0  0  0  0
   39.2180   31.9810   40.9410 C   0  0  0  0  0  0  0  0  0  0  0  0
   39.1320   32.0430   39.8490 H   0  0  0  0  0  0  0  0  0  0  0  0
   40.2050   31.4510   41.6870 N   0  0  0  0  0  0  0  0  0  0  0  0
   39.8970   31.5930   43.0020 C   0  0  0  0  0  0  0  0  0  0  0  0
   40.5290   31.2430   44.1720 C   0  0  0  0  0  3  0  0  0  0  0  0
   37.3710   32.9460   41.4410 H   0  0  0  0  0  0  0  0  0  0  0  0
  1  6  1  6  0  0  0
  1  5  1  0  0  0  0
  1  2  1  0  0  0  0
  2  7  1  6  0  0  0
  2  3  1  0  0  0  0
  3  9  1  0  0  0  0
  4  3  1  0  0  0  0
  5 10  1  0  0  0  0
  5  4  1  0  0  0  0
  8  3  1  0  0  0  0
 11  5  1  0  0  0  0
 12  2  1  0  0  0  0
 14 13  2  6  0  0  0
 14 12  1  0  0  0  0
 14 17  1  0  0  0  0
 14 15  1  0  0  0  0
 16 15  1  0  0  0  0
 17 18  1  0  0  0  0
 18 20  1  0  0  0  0
 18 19  1  0  0  0  0
 21 26  1  0  0  0  0
 21 18  1  0  0  0  0
 22 21  2  0  0  0  0
 23 24  2  0  0  0  0
 23 22  1  0  0  0  0
 24 25  1  0  0  0  0
 25 29  1  0  0  0  0
 25 26  2  0  0  0  0
 27 22  1  0  0  0  0
 28 23  1  0  0  0  0
 30  1  1  0  0  0  0
 31 32  1  0  0  0  0
 32 30  1  0  0  0  0
 33 34  1  0  0  0  0
 33 32  2  0  0  0  0
 35 40  2  0  0  0  0
 35 33  1  0  0  0  0
 36 35  1  0  0  0  0
 37 39  2  0  0  0  0
 37 36  1  0  0  0  0
 38 37  1  0  0  0  0
 39 40  1  0  0  0  0
 40 41  1  0  0  0  0
 41 31  2  0  0  0  0
 42 36  1  0  0  0  0
M  END
>  <minimizedAffinity>
-5.27553034

>  <minimizedRMSD>
0.343448669

$$$$
