
 OpenBabel03272508523D

 32 35  0  0  1  0  0  0  0  0999 V2000
   36.1960   23.0890   31.2360 C   0  0  2  0  0  0  0  0  0  0  0  0
   37.5010   23.5310   30.7590 C   0  0  0  0  0  0  0  0  0  0  0  0
   36.9010   24.0570   32.0720 C   0  0  1  0  0  0  0  0  0  0  0  0
   35.2090   23.4950   30.8350 H   0  0  0  0  0  0  0  0  0  0  0  0
   37.5930   24.2810   29.9770 H   0  0  0  0  0  0  0  0  0  0  0  0
   38.3100   22.7740   30.8080 H   0  0  0  0  0  0  0  0  0  0  0  0
   37.6320   23.8600   32.8770 H   0  0  0  0  0  0  0  0  0  0  0  0
   35.6880   19.4150   31.3790 C   0  0  0  0  0  0  0  0  0  0  0  0
   35.5170   19.2070   32.7690 C   0  0  0  0  0  0  0  0  0  0  0  0
   35.5780   20.3290   33.6570 C   0  0  0  0  0  0  0  0  0  0  0  0
   35.8000   21.5510   33.1070 N   0  0  0  0  0  0  0  0  0  0  0  0
   35.9590   21.7070   31.7650 C   0  0  0  0  0  0  0  0  0  0  0  0
   35.9090   20.6800   30.8950 N   0  0  0  0  0  0  0  0  0  0  0  0
   35.6250   18.5120   30.7930 H   0  0  0  0  0  0  0  0  0  0  0  0
   35.3430   18.2150   33.1630 H   0  0  0  0  0  0  0  0  0  0  0  0
   35.4520   20.1950   34.7190 H   0  0  0  0  0  0  0  0  0  0  0  0
   37.0290   26.3710   32.9210 C   0  0  0  0  0  0  0  0  0  0  0  0
   37.9950   26.0270   33.6450 O   0  0  0  0  0  0  0  0  0  0  0  0
   36.4400   25.4480   31.9890 N   0  0  0  0  0  0  0  0  0  0  0  0
   35.7260   25.6940   31.2790 H   0  0  0  0  0  0  0  0  0  0  0  0
   36.1920   28.4290   34.1530 C   0  0  0  0  0  3  0  0  0  0  0  0
   36.4750   27.7200   33.0040 C   0  0  0  0  0  0  0  0  0  0  0  0
   36.1890   28.3970   31.8200 C   0  0  0  0  0  0  0  0  0  0  0  0
   36.3910   27.8870   30.8890 H   0  0  0  0  0  0  0  0  0  0  0  0
   35.6660   29.6690   31.7290 C   0  0  0  0  0  0  0  0  0  0  0  0
   35.3390   30.4470   30.6880 N   0  0  0  0  0  0  0  0  0  0  0  0
   34.8680   31.6010   31.2190 C   0  0  0  0  0  0  0  0  0  0  0  0
   34.5140   32.4530   30.6380 H   0  0  0  0  0  0  0  0  0  0  0  0
   34.9020   31.5400   32.5830 N   0  0  0  0  0  0  0  0  0  0  0  0
   35.3990   30.3370   32.9050 C   0  0  0  0  0  0  0  0  0  0  0  0
   35.6680   29.7030   34.1020 C   0  0  0  0  0  3  0  0  0  0  0  0
   35.4240   30.2220   29.6740 H   0  0  0  0  0  0  0  0  0  0  0  0
  1  4  1  6  0  0  0
  1 12  1  0  0  0  0
  1  3  1  0  0  0  0
  2  6  1  0  0  0  0
  2  1  1  0  0  0  0
  2  3  1  0  0  0  0
  3  7  1  1  0  0  0
  5  2  1  0  0  0  0
  8  9  1  0  0  0  0
  9 15  1  0  0  0  0
  9 10  2  0  0  0  0
 10 16  1  0  0  0  0
 11 10  1  0  0  0  0
 12 11  2  0  0  0  0
 13  8  2  0  0  0  0
 13 12  1  0  0  0  0
 14  8  1  0  0  0  0
 17 22  1  0  0  0  0
 17 18  2  0  0  0  0
 19  3  1  0  0  0  0
 19 17  1  0  0  0  0
 20 19  1  0  0  0  0
 22 21  2  0  0  0  0
 23 22  1  0  0  0  0
 24 23  1  0  0  0  0
 25 23  2  0  0  0  0
 25 30  1  0  0  0  0
 26 27  1  0  0  0  0
 26 25  1  0  0  0  0
 27 29  2  0  0  0  0
 28 27  1  0  0  0  0
 29 30  1  0  0  0  0
 30 31  2  0  0  0  0
 31 21  1  0  0  0  0
 32 26  1  0  0  0  0
M  END
>  <minimizedAffinity>
-5.21753597

$$$$

 OpenBabel03272508523D

 32 35  0  0  1  0  0  0  0  0999 V2000
   37.3220   27.4450   33.3140 C   0  0  2  0  0  0  0  0  0  0  0  0
   38.2940   27.1820   34.3700 C   0  0  0  0  0  0  0  0  0  0  0  0
   36.8630   27.6490   34.6850 C   0  0  1  0  0  0  0  0  0  0  0  0
   37.3050   28.4050   32.7000 H   0  0  0  0  0  0  0  0  0  0  0  0
   39.0650   27.9060   34.6200 H   0  0  0  0  0  0  0  0  0  0  0  0
   38.5530   26.1160   34.5260 H   0  0  0  0  0  0  0  0  0  0  0  0
   36.4140   26.9080   35.3720 H   0  0  0  0  0  0  0  0  0  0  0  0
   35.1660   25.6590   30.8770 C   0  0  0  0  0  0  0  0  0  0  0  0
   35.6110   24.3230   31.0310 C   0  0  0  0  0  0  0  0  0  0  0  0
   36.6530   24.0380   31.9710 C   0  0  0  0  0  0  0  0  0  0  0  0
   37.1650   25.0810   32.6740 N   0  0  0  0  0  0  0  0  0  0  0  0
   36.7080   26.3500   32.4960 C   0  0  0  0  0  0  0  0  0  0  0  0
   35.7310   26.6620   31.6230 N   0  0  0  0  0  0  0  0  0  0  0  0
   34.3800   25.7740   30.1490 H   0  0  0  0  0  0  0  0  0  0  0  0
   35.1740   23.5240   30.4490 H   0  0  0  0  0  0  0  0  0  0  0  0
   37.0090   23.0290   32.1050 H   0  0  0  0  0  0  0  0  0  0  0  0
   35.5820   29.7530   34.8350 C   0  0  0  0  0  0  0  0  0  0  0  0
   34.5930   29.1590   34.3380 O   0  0  0  0  0  0  0  0  0  0  0  0
   36.7900   29.0400   35.1480 N   0  0  0  0  0  0  0  0  0  0  0  0
   37.5960   29.4340   35.6680 H   0  0  0  0  0  0  0  0  0  0  0  0
   36.0100   32.2000   34.3050 C   0  0  0  0  0  3  0  0  0  0  0  0
   35.5320   31.1860   35.1090 C   0  0  0  0  0  0  0  0  0  0  0  0
   34.9470   31.6160   36.2990 C   0  0  0  0  0  0  0  0  0  0  0  0
   34.5550   30.8630   36.9670 H   0  0  0  0  0  0  0  0  0  0  0  0
   34.8220   32.9290   36.7030 C   0  0  0  0  0  0  0  0  0  0  0  0
   34.2960   33.4990   37.7960 N   0  0  0  0  0  0  0  0  0  0  0  0
   34.4640   34.8340   37.6360 C   0  0  0  0  0  0  0  0  0  0  0  0
   34.1430   35.5900   38.3530 H   0  0  0  0  0  0  0  0  0  0  0  0
   35.0900   35.0910   36.4510 N   0  0  0  0  0  0  0  0  0  0  0  0
   35.3150   33.9060   35.8660 C   0  0  0  0  0  0  0  0  0  0  0  0
   35.9030   33.5240   34.6760 C   0  0  0  0  0  3  0  0  0  0  0  0
   33.8480   33.0240   38.6080 H   0  0  0  0  0  0  0  0  0  0  0  0
  1  4  1  6  0  0  0
  1  2  1  0  0  0  0
  1  3  1  0  0  0  0
  2  6  1  0  0  0  0
  2  5  1  0  0  0  0
  2  3  1  0  0  0  0
  3 19  1  0  0  0  0
  3  7  1  1  0  0  0
  8  9  2  0  0  0  0
  8 13  1  0  0  0  0
  9 10  1  0  0  0  0
 10 16  1  0  0  0  0
 10 11  2  0  0  0  0
 12 11  1  0  0  0  0
 12  1  1  0  0  0  0
 13 12  2  0  0  0  0
 14  8  1  0  0  0  0
 15  9  1  0  0  0  0
 17 22  1  0  0  0  0
 17 19  1  0  0  0  0
 18 17  2  0  0  0  0
 19 20  1  0  0  0  0
 21 31  2  0  0  0  0
 21 22  1  0  0  0  0
 22 23  2  0  0  0  0
 23 25  1  0  0  0  0
 23 24  1  0  0  0  0
 25 26  1  0  0  0  0
 26 32  1  0  0  0  0
 27 26  1  0  0  0  0
 27 28  1  0  0  0  0
 29 27  2  0  0  0  0
 30 29  1  0  0  0  0
 30 25  2  0  0  0  0
 31 30  1  0  0  0  0
M  END
>  <minimizedAffinity>
-5.09868956

$$$$

 OpenBabel03272508523D

 32 35  0  0  1  0  0  0  0  0999 V2000
   36.7880   27.9060   32.1140 C   0  0  2  0  0  0  0  0  0  0  0  0
   37.7420   28.1800   31.0450 C   0  0  0  0  0  0  0  0  0  0  0  0
   36.5540   27.2260   30.8420 C   0  0  1  0  0  0  0  0  0  0  0  0
   36.9920   27.1780   32.9670 H   0  0  0  0  0  0  0  0  0  0  0  0
   38.7140   27.6950   31.0170 H   0  0  0  0  0  0  0  0  0  0  0  0
   37.6900   29.1970   30.6070 H   0  0  0  0  0  0  0  0  0  0  0  0
   35.9790   27.5880   29.9700 H   0  0  0  0  0  0  0  0  0  0  0  0
   34.2850   30.6460   32.1120 C   0  0  0  0  0  0  0  0  0  0  0  0
   34.0040   30.7740   33.4940 C   0  0  0  0  0  0  0  0  0  0  0  0
   34.6740   29.9170   34.4260 C   0  0  0  0  0  0  0  0  0  0  0  0
   35.5570   29.0150   33.9240 N   0  0  0  0  0  0  0  0  0  0  0  0
   35.7970   28.9250   32.5880 C   0  0  0  0  0  0  0  0  0  0  0  0
   35.1890   29.7100   31.6780 N   0  0  0  0  0  0  0  0  0  0  0  0
   33.7330   31.3330   31.4910 H   0  0  0  0  0  0  0  0  0  0  0  0
   33.2930   31.5070   33.8490 H   0  0  0  0  0  0  0  0  0  0  0  0
   34.4770   29.9950   35.4830 H   0  0  0  0  0  0  0  0  0  0  0  0
   35.8960   24.8530   31.0040 C   0  0  0  0  0  0  0  0  0  0  0  0
   34.6970   25.2150   31.0890 O   0  0  0  0  0  0  0  0  0  0  0  0
   36.9420   25.8120   30.7770 N   0  0  0  0  0  0  0  0  0  0  0  0
   37.9320   25.5780   30.5760 H   0  0  0  0  0  0  0  0  0  0  0  0
   37.5030   22.8880   30.8990 C   0  0  0  0  0  3  0  0  0  0  0  0
   36.2630   23.4460   31.1320 C   0  0  0  0  0  0  0  0  0  0  0  0
   35.2850   22.5360   31.5310 C   0  0  0  0  0  0  0  0  0  0  0  0
   34.2930   22.9190   31.7270 H   0  0  0  0  0  0  0  0  0  0  0  0
   35.4700   21.1800   31.6990 C   0  0  0  0  0  0  0  0  0  0  0  0
   34.6480   20.1880   32.0690 N   0  0  0  0  0  0  0  0  0  0  0  0
   35.3980   19.0590   32.0540 C   0  0  0  0  0  0  0  0  0  0  0  0
   35.0280   18.0650   32.3080 H   0  0  0  0  0  0  0  0  0  0  0  0
   36.6770   19.3490   31.6760 N   0  0  0  0  0  0  0  0  0  0  0  0
   36.7260   20.6710   31.4540 C   0  0  0  0  0  0  0  0  0  0  0  0
   37.7260   21.5360   31.0570 C   0  0  0  0  0  3  0  0  0  0  0  0
   33.6390   20.2580   32.3210 H   0  0  0  0  0  0  0  0  0  0  0  0
  1 12  1  0  0  0  0
  1  4  1  1  0  0  0
  2  1  1  0  0  0  0
  3  7  1  6  0  0  0
  3  2  1  0  0  0  0
  3  1  1  0  0  0  0
  5  2  1  0  0  0  0
  6  2  1  0  0  0  0
  8  9  1  0  0  0  0
  9 15  1  0  0  0  0
  9 10  2  0  0  0  0
 10 16  1  0  0  0  0
 11 10  1  0  0  0  0
 12 11  2  0  0  0  0
 13  8  2  0  0  0  0
 13 12  1  0  0  0  0
 14  8  1  0  0  0  0
 17 18  2  0  0  0  0
 17 22  1  0  0  0  0
 19  3  1  0  0  0  0
 19 17  1  0  0  0  0
 20 19  1  0  0  0  0
 21 31  2  0  0  0  0
 21 22  1  0  0  0  0
 22 23  2  0  0  0  0
 23 25  1  0  0  0  0
 23 24  1  0  0  0  0
 25 26  1  0  0  0  0
 26 32  1  0  0  0  0
 27 26  1  0  0  0  0
 27 28  1  0  0  0  0
 29 27  2  0  0  0  0
 30 29  1  0  0  0  0
 30 25  2  0  0  0  0
 31 30  1  0  0  0  0
M  END
>  <minimizedAffinity>
-5.09553862

$$$$

 OpenBabel03272508523D

 32 35  0  0  1  0  0  0  0  0999 V2000
   35.9110   27.1250   31.4100 C   0  0  2  0  0  0  0  0  0  0  0  0
   36.6350   27.9020   30.4100 C   0  0  0  0  0  0  0  0  0  0  0  0
   36.8610   28.1120   31.9160 C   0  0  1  0  0  0  0  0  0  0  0  0
   34.8390   27.3490   31.7240 H   0  0  0  0  0  0  0  0  0  0  0  0
   36.1720   28.7450   29.9050 H   0  0  0  0  0  0  0  0  0  0  0  0
   37.3970   27.3420   29.8300 H   0  0  0  0  0  0  0  0  0  0  0  0
   37.9410   27.9820   32.1140 H   0  0  0  0  0  0  0  0  0  0  0  0
   37.4500   23.9880   32.6620 C   0  0  0  0  0  0  0  0  0  0  0  0
   36.6370   23.0070   32.0420 C   0  0  0  0  0  0  0  0  0  0  0  0
   35.5590   23.4250   31.1960 C   0  0  0  0  0  0  0  0  0  0  0  0
   35.3750   24.7600   31.0310 N   0  0  0  0  0  0  0  0  0  0  0  0
   36.1790   25.6690   31.6450 C   0  0  0  0  0  0  0  0  0  0  0  0
   37.2020   25.3200   32.4490 N   0  0  0  0  0  0  0  0  0  0  0  0
   38.2330   23.5770   33.2780 H   0  0  0  0  0  0  0  0  0  0  0  0
   36.8210   21.9530   32.2030 H   0  0  0  0  0  0  0  0  0  0  0  0
   34.9270   22.6970   30.7140 H   0  0  0  0  0  0  0  0  0  0  0  0
   35.9290   29.3830   33.8150 C   0  0  0  0  0  0  0  0  0  0  0  0
   36.2390   28.4320   34.5740 O   0  0  0  0  0  0  0  0  0  0  0  0
   36.2910   29.3650   32.4240 N   0  0  0  0  0  0  0  0  0  0  0  0
   36.1770   30.1610   31.7690 H   0  0  0  0  0  0  0  0  0  0  0  0
   34.2900   31.3150   33.6300 C   0  0  0  0  0  3  0  0  0  0  0  0
   35.1920   30.5350   34.3250 C   0  0  0  0  0  0  0  0  0  0  0  0
   35.3910   30.9210   35.6490 C   0  0  0  0  0  0  0  0  0  0  0  0
   36.0880   30.3450   36.2410 H   0  0  0  0  0  0  0  0  0  0  0  0
   34.7740   31.9810   36.2780 C   0  0  0  0  0  0  0  0  0  0  0  0
   34.8550   32.4750   37.5210 N   0  0  0  0  0  0  0  0  0  0  0  0
   34.0100   33.5340   37.5570 C   0  0  0  0  0  0  0  0  0  0  0  0
   33.8390   34.1620   38.4320 H   0  0  0  0  0  0  0  0  0  0  0  0
   33.4080   33.6970   36.3430 N   0  0  0  0  0  0  0  0  0  0  0  0
   33.8820   32.7310   35.5420 C   0  0  0  0  0  0  0  0  0  0  0  0
   33.6530   32.3830   34.2250 C   0  0  0  0  0  3  0  0  0  0  0  0
   35.4420   32.1260   38.3080 H   0  0  0  0  0  0  0  0  0  0  0  0
  1 12  1  0  0  0  0
  1  4  1  1  0  0  0
  1  3  1  0  0  0  0
  2  1  1  0  0  0  0
  2  3  1  0  0  0  0
  3  7  1  1  0  0  0
  3 19  1  0  0  0  0
  5  2  1  0  0  0  0
  6  2  1  0  0  0  0
  8 14  1  0  0  0  0
  9 15  1  0  0  0  0
  9  8  2  0  0  0  0
 10  9  1  0  0  0  0
 11 10  2  0  0  0  0
 11 12  1  0  0  0  0
 12 13  2  0  0  0  0
 13  8  1  0  0  0  0
 16 10  1  0  0  0  0
 17 22  1  0  0  0  0
 17 18  2  0  0  0  0
 19 17  1  0  0  0  0
 20 19  1  0  0  0  0
 21 31  2  0  0  0  0
 21 22  1  0  0  0  0
 22 23  2  0  0  0  0
 23 24  1  0  0  0  0
 23 25  1  0  0  0  0
 25 26  1  0  0  0  0
 26 27  1  0  0  0  0
 26 32  1  0  0  0  0
 27 28  1  0  0  0  0
 29 27  2  0  0  0  0
 30 25  2  0  0  0  0
 30 29  1  0  0  0  0
 31 30  1  0  0  0  0
M  END
>  <minimizedAffinity>
-5.09346199

$$$$

 OpenBabel03272508523D

 32 35  0  0  1  0  0  0  0  0999 V2000
   38.1580   24.5500   34.6850 C   0  0  2  0  0  0  0  0  0  0  0  0
   39.0190   24.2400   33.5480 C   0  0  0  0  0  0  0  0  0  0  0  0
   38.9270   25.6600   34.1300 C   0  0  1  0  0  0  0  0  0  0  0  0
   37.0330   24.7100   34.5960 H   0  0  0  0  0  0  0  0  0  0  0  0
   38.6160   24.1420   32.5440 H   0  0  0  0  0  0  0  0  0  0  0  0
   39.9130   23.6270   33.7800 H   0  0  0  0  0  0  0  0  0  0  0  0
   39.9520   25.9810   34.3940 H   0  0  0  0  0  0  0  0  0  0  0  0
   37.9410   24.0480   38.3560 C   0  0  0  0  0  0  0  0  0  0  0  0
   39.0500   23.2000   38.5920 C   0  0  0  0  0  0  0  0  0  0  0  0
   39.8710   22.7990   37.4880 C   0  0  0  0  0  0  0  0  0  0  0  0
   39.5350   23.2640   36.2570 N   0  0  0  0  0  0  0  0  0  0  0  0
   38.4600   24.0770   36.0740 C   0  0  0  0  0  0  0  0  0  0  0  0
   37.6620   24.4780   37.0830 N   0  0  0  0  0  0  0  0  0  0  0  0
   37.3850   24.2950   39.2460 H   0  0  0  0  0  0  0  0  0  0  0  0
   39.2800   22.8540   39.5900 H   0  0  0  0  0  0  0  0  0  0  0  0
   40.7200   22.1540   37.6430 H   0  0  0  0  0  0  0  0  0  0  0  0
   37.4370   27.6190   33.9450 C   0  0  0  0  0  0  0  0  0  0  0  0
   37.5380   27.7840   35.1850 O   0  0  0  0  0  0  0  0  0  0  0  0
   38.1930   26.5980   33.2720 N   0  0  0  0  0  0  0  0  0  0  0  0
   38.2540   26.4820   32.2430 H   0  0  0  0  0  0  0  0  0  0  0  0
   36.7070   28.8170   31.8270 C   0  0  0  0  0  3  0  0  0  0  0  0
   36.5460   28.4580   33.1490 C   0  0  0  0  0  0  0  0  0  0  0  0
   35.4000   28.9730   33.7530 C   0  0  0  0  0  0  0  0  0  0  0  0
   35.2240   28.7250   34.7900 H   0  0  0  0  0  0  0  0  0  0  0  0
   34.4620   29.7780   33.1420 C   0  0  0  0  0  0  0  0  0  0  0  0
   33.3280   30.3460   33.5750 N   0  0  0  0  0  0  0  0  0  0  0  0
   32.8280   31.0300   32.5180 C   0  0  0  0  0  0  0  0  0  0  0  0
   31.9040   31.6090   32.5340 H   0  0  0  0  0  0  0  0  0  0  0  0
   33.6460   30.8880   31.4350 N   0  0  0  0  0  0  0  0  0  0  0  0
   34.6680   30.1080   31.8200 C   0  0  0  0  0  0  0  0  0  0  0  0
   35.7900   29.6190   31.1810 C   0  0  0  0  0  3  0  0  0  0  0  0
   32.9070   30.2810   34.5250 H   0  0  0  0  0  0  0  0  0  0  0  0
  1  4  1  6  0  0  0
  1 12  1  0  0  0  0
  2  6  1  0  0  0  0
  2  3  1  0  0  0  0
  2  1  1  0  0  0  0
  3  7  1  1  0  0  0
  3  1  1  0  0  0  0
  5  2  1  0  0  0  0
  8  9  1  0  0  0  0
  8 14  1  0  0  0  0
  9 15  1  0  0  0  0
 10 16  1  0  0  0  0
 10  9  2  0  0  0  0
 11 10  1  0  0  0  0
 12 11  2  0  0  0  0
 12 13  1  0  0  0  0
 13  8  2  0  0  0  0
 17 18  2  0  0  0  0
 19 17  1  0  0  0  0
 19  3  1  0  0  0  0
 20 19  1  0  0  0  0
 21 22  1  0  0  0  0
 22 23  2  0  0  0  0
 22 17  1  0  0  0  0
 23 24  1  0  0  0  0
 25 26  1  0  0  0  0
 25 23  1  0  0  0  0
 26 32  1  0  0  0  0
 27 28  1  0  0  0  0
 27 26  1  0  0  0  0
 29 30  1  0  0  0  0
 29 27  2  0  0  0  0
 30 25  2  0  0  0  0
 31 30  1  0  0  0  0
 31 21  2  0  0  0  0
M  END
>  <minimizedAffinity>
-5.02597094

$$$$

 OpenBabel03272508523D

 32 35  0  0  1  0  0  0  0  0999 V2000
   37.2630   27.1610   32.2200 C   0  0  2  0  0  0  0  0  0  0  0  0
   36.4230   25.9970   31.9570 C   0  0  0  0  0  0  0  0  0  0  0  0
   37.0600   26.2390   33.3350 C   0  0  1  0  0  0  0  0  0  0  0  0
   38.3560   27.2310   31.9050 H   0  0  0  0  0  0  0  0  0  0  0  0
   36.8100   25.1280   31.4310 H   0  0  0  0  0  0  0  0  0  0  0  0
   35.3420   26.2080   31.8250 H   0  0  0  0  0  0  0  0  0  0  0  0
   36.2470   26.2410   34.0840 H   0  0  0  0  0  0  0  0  0  0  0  0
   36.4200   30.6770   31.3850 C   0  0  0  0  0  0  0  0  0  0  0  0
   35.6820   31.0710   32.5280 C   0  0  0  0  0  0  0  0  0  0  0  0
   35.4730   30.1260   33.5840 C   0  0  0  0  0  0  0  0  0  0  0  0
   36.0040   28.8860   33.4290 N   0  0  0  0  0  0  0  0  0  0  0  0
   36.7070   28.5490   32.3140 C   0  0  0  0  0  0  0  0  0  0  0  0
   36.9260   29.4050   31.2970 N   0  0  0  0  0  0  0  0  0  0  0  0
   36.5240   31.4550   30.6460 H   0  0  0  0  0  0  0  0  0  0  0  0
   35.2780   32.0700   32.6080 H   0  0  0  0  0  0  0  0  0  0  0  0
   34.9140   30.4030   34.4630 H   0  0  0  0  0  0  0  0  0  0  0  0
   38.4580   25.1090   35.0270 C   0  0  0  0  0  0  0  0  0  0  0  0
   37.6950   25.5540   35.9200 O   0  0  0  0  0  0  0  0  0  0  0  0
   38.1690   25.3250   33.6350 N   0  0  0  0  0  0  0  0  0  0  0  0
   38.6810   24.8890   32.8460 H   0  0  0  0  0  0  0  0  0  0  0  0
   40.9250   24.5310   34.8540 C   0  0  0  0  0  3  0  0  0  0  0  0
   39.6600   24.3590   35.3770 C   0  0  0  0  0  0  0  0  0  0  0  0
   39.5630   23.3540   36.3370 C   0  0  0  0  0  0  0  0  0  0  0  0
   38.5940   23.1750   36.7800 H   0  0  0  0  0  0  0  0  0  0  0  0
   40.6010   22.5590   36.7760 C   0  0  0  0  0  0  0  0  0  0  0  0
   40.6700   21.5670   37.6750 N   0  0  0  0  0  0  0  0  0  0  0  0
   41.9630   21.1610   37.6800 C   0  0  0  0  0  0  0  0  0  0  0  0
   42.3610   20.3620   38.3070 H   0  0  0  0  0  0  0  0  0  0  0  0
   42.6920   21.8960   36.7900 N   0  0  0  0  0  0  0  0  0  0  0  0
   41.8450   22.7690   36.2240 C   0  0  0  0  0  0  0  0  0  0  0  0
   41.9880   23.7570   35.2690 C   0  0  0  0  0  3  0  0  0  0  0  0
   39.8980   21.1790   38.2560 H   0  0  0  0  0  0  0  0  0  0  0  0
  1  4  1  6  0  0  0
  1 12  1  0  0  0  0
  1  3  1  0  0  0  0
  2  1  1  0  0  0  0
  2  3  1  0  0  0  0
  3 19  1  0  0  0  0
  3  7  1  1  0  0  0
  5  2  1  0  0  0  0
  6  2  1  0  0  0  0
  8  9  1  0  0  0  0
  9 15  1  0  0  0  0
  9 10  2  0  0  0  0
 10 16  1  0  0  0  0
 11 10  1  0  0  0  0
 12 11  2  0  0  0  0
 13  8  2  0  0  0  0
 13 12  1  0  0  0  0
 14  8  1  0  0  0  0
 17 22  1  0  0  0  0
 17 18  2  0  0  0  0
 19 17  1  0  0  0  0
 20 19  1  0  0  0  0
 21 31  2  0  0  0  0
 21 22  1  0  0  0  0
 22 23  2  0  0  0  0
 23 25  1  0  0  0  0
 23 24  1  0  0  0  0
 25 26  1  0  0  0  0
 26 27  1  0  0  0  0
 26 32  1  0  0  0  0
 27 28  1  0  0  0  0
 29 27  2  0  0  0  0
 30 25  2  0  0  0  0
 30 29  1  0  0  0  0
 31 30  1  0  0  0  0
M  END
>  <minimizedAffinity>
-4.99313164

$$$$

 OpenBabel03272508523D

 32 35  0  0  1  0  0  0  0  0999 V2000
   37.2200   26.4580   31.1540 C   0  0  2  0  0  0  0  0  0  0  0  0
   35.8760   25.9720   31.4450 C   0  0  0  0  0  0  0  0  0  0  0  0
   36.8010   26.5050   32.5520 C   0  0  1  0  0  0  0  0  0  0  0  0
   38.1150   25.7710   30.9890 H   0  0  0  0  0  0  0  0  0  0  0  0
   35.6620   24.9090   31.5150 H   0  0  0  0  0  0  0  0  0  0  0  0
   35.0470   26.6160   31.0880 H   0  0  0  0  0  0  0  0  0  0  0  0
   36.2630   27.3150   33.0770 H   0  0  0  0  0  0  0  0  0  0  0  0
   38.7960   29.0230   28.9820 C   0  0  0  0  0  0  0  0  0  0  0  0
   37.8920   30.1050   29.1220 C   0  0  0  0  0  0  0  0  0  0  0  0
   36.7410   29.9510   29.9600 C   0  0  0  0  0  0  0  0  0  0  0  0
   36.5780   28.7570   30.5860 N   0  0  0  0  0  0  0  0  0  0  0  0
   37.4700   27.7430   30.4250 C   0  0  0  0  0  0  0  0  0  0  0  0
   38.5650   27.8440   29.6460 N   0  0  0  0  0  0  0  0  0  0  0  0
   39.6290   29.2330   28.3320 H   0  0  0  0  0  0  0  0  0  0  0  0
   38.0630   31.0380   28.6030 H   0  0  0  0  0  0  0  0  0  0  0  0
   36.0400   30.7600   30.0810 H   0  0  0  0  0  0  0  0  0  0  0  0
   37.5340   25.8130   34.8050 C   0  0  0  0  0  0  0  0  0  0  0  0
   37.1250   26.9130   35.2500 O   0  0  0  0  0  0  0  0  0  0  0  0
   37.3320   25.4530   33.4280 N   0  0  0  0  0  0  0  0  0  0  0  0
   37.5320   24.5210   33.0200 H   0  0  0  0  0  0  0  0  0  0  0  0
   37.8590   24.4870   36.9470 C   0  0  0  0  0  3  0  0  0  0  0  0
   38.2290   24.8670   35.6730 C   0  0  0  0  0  0  0  0  0  0  0  0
   39.3930   24.2620   35.2030 C   0  0  0  0  0  0  0  0  0  0  0  0
   39.7290   24.5250   34.2100 H   0  0  0  0  0  0  0  0  0  0  0  0
   40.1610   23.3520   35.8970 C   0  0  0  0  0  0  0  0  0  0  0  0
   41.2870   22.6910   35.5930 N   0  0  0  0  0  0  0  0  0  0  0  0
   41.5760   21.9300   36.6760 C   0  0  0  0  0  0  0  0  0  0  0  0
   42.4370   21.2660   36.7560 H   0  0  0  0  0  0  0  0  0  0  0  0
   40.6350   22.1170   37.6470 N   0  0  0  0  0  0  0  0  0  0  0  0
   39.7510   23.0040   37.1650 C   0  0  0  0  0  0  0  0  0  0  0  0
   38.6020   23.5780   37.6710 C   0  0  0  0  0  3  0  0  0  0  0  0
   41.8360   22.7430   34.7090 H   0  0  0  0  0  0  0  0  0  0  0  0
  1  4  1  6  0  0  0
  1  2  1  0  0  0  0
  1  3  1  0  0  0  0
  2  5  1  0  0  0  0
  2  3  1  0  0  0  0
  3  7  1  1  0  0  0
  3 19  1  0  0  0  0
  6  2  1  0  0  0  0
  8  9  2  0  0  0  0
  8 13  1  0  0  0  0
  9 10  1  0  0  0  0
 10 16  1  0  0  0  0
 10 11  2  0  0  0  0
 12 11  1  0  0  0  0
 12  1  1  0  0  0  0
 13 12  2  0  0  0  0
 14  8  1  0  0  0  0
 15  9  1  0  0  0  0
 17 18  2  0  0  0  0
 17 22  1  0  0  0  0
 19 17  1  0  0  0  0
 20 19  1  0  0  0  0
 21 31  1  0  0  0  0
 22 21  2  0  0  0  0
 23 22  1  0  0  0  0
 23 25  2  0  0  0  0
 24 23  1  0  0  0  0
 25 30  1  0  0  0  0
 26 25  1  0  0  0  0
 26 27  1  0  0  0  0
 27 28  1  0  0  0  0
 27 29  2  0  0  0  0
 30 29  1  0  0  0  0
 30 31  2  0  0  0  0
 32 26  1  0  0  0  0
M  END
>  <minimizedAffinity>
-4.98187447

$$$$

 OpenBabel03272508523D

 32 35  0  0  1  0  0  0  0  0999 V2000
   36.1670   29.1060   32.6820 C   0  0  2  0  0  0  0  0  0  0  0  0
   37.0670   28.7010   31.6090 C   0  0  0  0  0  0  0  0  0  0  0  0
   36.3500   27.6690   32.4950 C   0  0  1  0  0  0  0  0  0  0  0  0
   36.5260   29.4630   33.7030 H   0  0  0  0  0  0  0  0  0  0  0  0
   38.1460   28.7260   31.7360 H   0  0  0  0  0  0  0  0  0  0  0  0
   36.6920   28.8720   30.5790 H   0  0  0  0  0  0  0  0  0  0  0  0
   35.7860   26.9900   31.8290 H   0  0  0  0  0  0  0  0  0  0  0  0
   33.4890   31.2520   31.2690 C   0  0  0  0  0  0  0  0  0  0  0  0
   32.3510   30.7850   31.9710 C   0  0  0  0  0  0  0  0  0  0  0  0
   32.5050   29.7320   32.9300 C   0  0  0  0  0  0  0  0  0  0  0  0
   33.7540   29.2320   33.1140 N   0  0  0  0  0  0  0  0  0  0  0  0
   34.8210   29.7090   32.4180 C   0  0  0  0  0  0  0  0  0  0  0  0
   34.7210   30.6970   31.5080 N   0  0  0  0  0  0  0  0  0  0  0  0
   33.2730   32.0450   30.5710 H   0  0  0  0  0  0  0  0  0  0  0  0
   31.3750   31.2140   31.7910 H   0  0  0  0  0  0  0  0  0  0  0  0
   31.6540   29.3600   33.4760 H   0  0  0  0  0  0  0  0  0  0  0  0
   37.3490   25.5680   33.3180 C   0  0  0  0  0  0  0  0  0  0  0  0
   36.8340   24.9680   32.3430 O   0  0  0  0  0  0  0  0  0  0  0  0
   37.2400   26.9960   33.4470 N   0  0  0  0  0  0  0  0  0  0  0  0
   37.7380   27.5690   34.1540 H   0  0  0  0  0  0  0  0  0  0  0  0
   39.1920   24.0440   34.1750 C   0  0  0  0  0  3  0  0  0  0  0  0
   38.0720   24.8320   34.3500 C   0  0  0  0  0  0  0  0  0  0  0  0
   37.6160   24.9060   35.6650 C   0  0  0  0  0  0  0  0  0  0  0  0
   36.7410   25.5090   35.8600 H   0  0  0  0  0  0  0  0  0  0  0  0
   38.1860   24.2720   36.7490 C   0  0  0  0  0  0  0  0  0  0  0  0
   37.8740   24.2410   38.0520 N   0  0  0  0  0  0  0  0  0  0  0  0
   38.8010   23.4440   38.6370 C   0  0  0  0  0  0  0  0  0  0  0  0
   38.8350   23.2090   39.7010 H   0  0  0  0  0  0  0  0  0  0  0  0
   39.6830   22.9830   37.7030 N   0  0  0  0  0  0  0  0  0  0  0  0
   39.3020   23.4970   36.5240 C   0  0  0  0  0  0  0  0  0  0  0  0
   39.7890   23.3960   35.2350 C   0  0  0  0  0  3  0  0  0  0  0  0
   37.0850   24.7260   38.5300 H   0  0  0  0  0  0  0  0  0  0  0  0
  1  4  1  1  0  0  0
  2  5  1  0  0  0  0
  2  3  1  0  0  0  0
  2  1  1  0  0  0  0
  3  7  1  6  0  0  0
  3  1  1  0  0  0  0
  3 19  1  0  0  0  0
  6  2  1  0  0  0  0
  8 13  2  0  0  0  0
  8  9  1  0  0  0  0
  9 10  2  0  0  0  0
 10 11  1  0  0  0  0
 10 16  1  0  0  0  0
 12  1  1  0  0  0  0
 12 11  2  0  0  0  0
 13 12  1  0  0  0  0
 14  8  1  0  0  0  0
 15  9  1  0  0  0  0
 17 19  1  0  0  0  0
 17 22  1  0  0  0  0
 18 17  2  0  0  0  0
 19 20  1  0  0  0  0
 21 22  2  0  0  0  0
 21 31  1  0  0  0  0
 22 23  1  0  0  0  0
 23 24  1  0  0  0  0
 23 25  2  0  0  0  0
 25 26  1  0  0  0  0
 26 32  1  0  0  0  0
 26 27  1  0  0  0  0
 27 28  1  0  0  0  0
 29 27  2  0  0  0  0
 30 25  1  0  0  0  0
 30 29  1  0  0  0  0
 31 30  2  0  0  0  0
M  END
>  <minimizedAffinity>
-4.98023891

$$$$

 OpenBabel03272508523D

 32 35  0  0  1  0  0  0  0  0999 V2000
   38.3160   26.3170   34.8510 C   0  0  2  0  0  0  0  0  0  0  0  0
   38.0620   27.4890   35.6820 C   0  0  0  0  0  0  0  0  0  0  0  0
   37.1460   27.1180   34.5040 C   0  0  1  0  0  0  0  0  0  0  0  0
   39.0930   26.2940   34.0170 H   0  0  0  0  0  0  0  0  0  0  0  0
   38.6180   28.4120   35.5420 H   0  0  0  0  0  0  0  0  0  0  0  0
   37.7150   27.2770   36.7130 H   0  0  0  0  0  0  0  0  0  0  0  0
   36.1160   27.0290   34.8970 H   0  0  0  0  0  0  0  0  0  0  0  0
   37.7890   23.4390   37.1340 C   0  0  0  0  0  0  0  0  0  0  0  0
   37.7690   22.3550   36.2230 C   0  0  0  0  0  0  0  0  0  0  0  0
   37.9350   22.6140   34.8240 C   0  0  0  0  0  0  0  0  0  0  0  0
   38.1060   23.9060   34.4440 N   0  0  0  0  0  0  0  0  0  0  0  0
   38.1190   24.9190   35.3520 C   0  0  0  0  0  0  0  0  0  0  0  0
   37.9660   24.7200   36.6750 N   0  0  0  0  0  0  0  0  0  0  0  0
   37.6560   23.1450   38.1630 H   0  0  0  0  0  0  0  0  0  0  0  0
   37.6290   21.3410   36.5730 H   0  0  0  0  0  0  0  0  0  0  0  0
   37.9230   21.8050   34.1120 H   0  0  0  0  0  0  0  0  0  0  0  0
   36.9650   27.4510   32.0650 C   0  0  0  0  0  0  0  0  0  0  0  0
   36.4410   26.3140   31.9720 O   0  0  0  0  0  0  0  0  0  0  0  0
   37.2870   28.0130   33.3490 N   0  0  0  0  0  0  0  0  0  0  0  0
   37.6060   28.9860   33.5100 H   0  0  0  0  0  0  0  0  0  0  0  0
   38.0910   27.8750   29.8280 C   0  0  0  0  0  3  0  0  0  0  0  0
   37.2630   28.2360   30.8710 C   0  0  0  0  0  0  0  0  0  0  0  0
   36.6680   29.4890   30.7320 C   0  0  0  0  0  0  0  0  0  0  0  0
   36.0100   29.8230   31.5210 H   0  0  0  0  0  0  0  0  0  0  0  0
   36.8460   30.3480   29.6680 C   0  0  0  0  0  0  0  0  0  0  0  0
   36.3570   31.5640   29.3890 N   0  0  0  0  0  0  0  0  0  0  0  0
   36.8910   31.9140   28.1940 C   0  0  0  0  0  0  0  0  0  0  0  0
   36.6940   32.8540   27.6770 H   0  0  0  0  0  0  0  0  0  0  0  0
   37.7070   30.9220   27.7340 N   0  0  0  0  0  0  0  0  0  0  0  0
   37.6820   29.9430   28.6510 C   0  0  0  0  0  0  0  0  0  0  0  0
   38.2920   28.7080   28.7470 C   0  0  0  0  0  3  0  0  0  0  0  0
   35.7000   32.1340   29.9630 H   0  0  0  0  0  0  0  0  0  0  0  0
  1  4  1  6  0  0  0
  1 12  1  0  0  0  0
  1  2  1  0  0  0  0
  2  6  1  0  0  0  0
  3  1  1  0  0  0  0
  3  7  1  1  0  0  0
  3  2  1  0  0  0  0
  5  2  1  0  0  0  0
  8 14  1  0  0  0  0
  9 15  1  0  0  0  0
  9  8  2  0  0  0  0
 10  9  1  0  0  0  0
 11 10  2  0  0  0  0
 11 12  1  0  0  0  0
 12 13  2  0  0  0  0
 13  8  1  0  0  0  0
 16 10  1  0  0  0  0
 17 19  1  0  0  0  0
 18 17  2  0  0  0  0
 19 20  1  0  0  0  0
 19  3  1  0  0  0  0
 21 22  1  0  0  0  0
 22 17  1  0  0  0  0
 23 22  2  0  0  0  0
 23 24  1  0  0  0  0
 25 23  1  0  0  0  0
 26 25  1  0  0  0  0
 26 32  1  0  0  0  0
 27 26  1  0  0  0  0
 28 27  1  0  0  0  0
 29 27  2  0  0  0  0
 29 30  1  0  0  0  0
 30 31  1  0  0  0  0
 30 25  2  0  0  0  0
 31 21  2  0  0  0  0
M  END
>  <minimizedAffinity>
-4.95859385

$$$$
