
 OpenBabel03272500383D

 39 42  0  0  1  0  0  0  0  0999 V2000
   37.2060   30.5420   49.2120 C   0  0  0  0  0  0  0  0  0  0  0  0
   37.2500   31.7220   49.9550 C   0  0  0  0  0  0  0  0  0  0  0  0
   37.8470   32.8470   49.3680 C   0  0  0  0  0  0  0  0  0  0  0  0
   38.3420   32.6990   48.1050 N   0  0  0  0  0  0  0  0  0  0  0  0
   38.2790   31.5350   47.4150 C   0  0  0  0  0  0  0  0  0  0  0  0
   37.7090   30.4690   47.9830 N   0  0  0  0  0  0  0  0  0  0  0  0
   38.8360   31.5100   46.0980 N   0  0  0  0  0  0  0  0  0  0  0  0
   40.2300   31.1620   45.9450 C   0  0  0  0  0  0  0  0  0  0  0  0
   40.7800   32.1760   44.9470 C   0  0  0  0  0  0  0  0  0  0  0  0
   40.1250   31.8190   43.6310 C   0  0  0  0  0  0  0  0  0  0  0  0
   38.6820   32.1960   43.7300 C   0  0  0  0  0  0  0  0  0  0  0  0
   38.0000   31.8250   45.0030 C   0  0  1  0  0  0  0  0  0  0  0  0
   36.8520   31.7980   50.9410 H   0  0  0  0  0  0  0  0  0  0  0  0
   37.9210   33.7980   49.8800 H   0  0  0  0  0  0  0  0  0  0  0  0
   40.3390   30.1700   45.4740 H   0  0  0  0  0  0  0  0  0  0  0  0
   40.7890   31.2020   46.9030 H   0  0  0  0  0  0  0  0  0  0  0  0
   40.3960   33.1620   45.2510 H   0  0  0  0  0  0  0  0  0  0  0  0
   41.8870   32.1270   44.8960 H   0  0  0  0  0  0  0  0  0  0  0  0
   40.5680   32.3890   42.7870 H   0  0  0  0  0  0  0  0  0  0  0  0
   40.2690   30.7270   43.4930 H   0  0  0  0  0  0  0  0  0  0  0  0
   38.1650   31.7140   42.8610 H   0  0  0  0  0  0  0  0  0  0  0  0
   38.6250   33.2820   43.5010 H   0  0  0  0  0  0  0  0  0  0  0  0
   37.4090   32.7360   45.3190 H   0  0  0  0  0  0  0  0  0  0  0  0
   35.7440   30.7670   45.3730 C   0  0  0  0  0  3  0  0  0  0  0  0
   36.9730   30.7800   44.7410 C   0  0  0  0  0  0  0  0  0  0  0  0
   37.1880   29.7420   43.8370 C   0  0  0  0  0  0  0  0  0  0  0  0
   38.1330   29.6910   43.3040 H   0  0  0  0  0  0  0  0  0  0  0  0
   36.2400   28.7700   43.5880 C   0  0  0  0  0  0  0  0  0  0  0  0
   36.2580   27.6940   42.7570 N   0  0  0  0  0  0  0  0  0  0  0  0
   35.0540   27.0880   42.9220 C   0  0  0  0  0  0  0  0  0  0  0  0
   34.7870   26.1860   42.3720 H   0  0  0  0  0  0  0  0  0  0  0  0
   34.3040   27.7500   43.8190 N   0  0  0  0  0  0  0  0  0  0  0  0
   35.0250   28.7950   44.2400 C   0  0  0  0  0  0  0  0  0  0  0  0
   34.7800   29.8090   45.1430 C   0  0  0  0  0  3  0  0  0  0  0  0
   37.0300   27.3920   42.1230 H   0  0  0  0  0  0  0  0  0  0  0  0
   36.5680   29.3330   49.8310 C   0  0  0  0  0  0  0  0  0  0  0  0
   35.7400   29.7250   50.8840 F   0  0  0  0  0  0  0  0  0  0  0  0
   35.9250   28.6310   48.8620 F   0  0  0  0  0  0  0  0  0  0  0  0
   37.5850   28.5840   50.4070 F   0  0  0  0  0  0  0  0  0  0  0  0
  1 36  1  0  0  0  0
  1  2  1  0  0  0  0
  2 13  1  0  0  0  0
  3 14  1  0  0  0  0
  3  2  2  0  0  0  0
  4  3  1  0  0  0  0
  5  6  1  0  0  0  0
  5  4  2  0  0  0  0
  6  1  2  0  0  0  0
  7  5  1  0  0  0  0
  8  7  1  0  0  0  0
  8 16  1  0  0  0  0
  9 17  1  0  0  0  0
  9  8  1  0  0  0  0
 10 11  1  0  0  0  0
 10  9  1  0  0  0  0
 11 12  1  0  0  0  0
 12 23  1  1  0  0  0
 12  7  1  0  0  0  0
 15  8  1  0  0  0  0
 18  9  1  0  0  0  0
 19 10  1  0  0  0  0
 20 10  1  0  0  0  0
 21 11  1  0  0  0  0
 22 11  1  0  0  0  0
 25 12  1  0  0  0  0
 25 24  2  0  0  0  0
 26 25  1  0  0  0  0
 27 26  1  0  0  0  0
 28 26  2  0  0  0  0
 28 33  1  0  0  0  0
 29 30  1  0  0  0  0
 29 28  1  0  0  0  0
 30 32  2  0  0  0  0
 31 30  1  0  0  0  0
 32 33  1  0  0  0  0
 33 34  2  0  0  0  0
 34 24  1  0  0  0  0
 35 29  1  0  0  0  0
 36 39  1  0  0  0  0
 36 37  1  0  0  0  0
 38 36  1  0  0  0  0
M  END
>  <minimizedAffinity>
-6.52381802

>  <minimizedRMSD>
1.28297246

$$$$
