
 OpenBabel03272509193D

 36 39  0  0  0  0  0  0  0  0999 V2000
   36.0940   29.0660   33.4270 C   0  0  0  0  0  0  0  0  0  0  0  0
   35.5000   30.3070   33.5580 C   0  0  0  0  0  0  0  0  0  0  0  0
   35.5190   31.0720   32.3790 C   0  0  0  0  0  0  0  0  0  0  0  0
   36.0940   30.5950   31.1910 C   0  0  0  0  0  0  0  0  0  0  0  0
   36.6730   29.3110   31.1740 C   0  0  0  0  0  0  0  0  0  0  0  0
   36.6640   28.5410   32.3290 C   0  0  0  0  0  0  0  0  0  0  0  0
   35.0760   32.0530   32.3950 H   0  0  0  0  0  0  0  0  0  0  0  0
   36.0850   31.2190   30.3100 H   0  0  0  0  0  0  0  0  0  0  0  0
   37.1120   28.9630   30.2460 H   0  0  0  0  0  0  0  0  0  0  0  0
   35.6770   31.5530   35.6470 C   0  0  0  0  0  0  0  0  0  0  0  0
   34.9140   30.7960   34.7580 C   0  0  0  0  0  0  0  0  0  0  0  0
   33.5790   30.5480   35.0970 C   0  0  0  0  0  0  0  0  0  0  0  0
   33.1010   31.0510   36.2600 N   0  0  0  0  0  0  0  0  0  0  0  0
   33.8830   31.7860   37.1000 C   0  0  0  0  0  0  0  0  0  0  0  0
   35.1590   32.0320   36.7900 N   0  0  0  0  0  0  0  0  0  0  0  0
   36.7150   31.7600   35.4090 H   0  0  0  0  0  0  0  0  0  0  0  0
   33.4070   32.1440   38.0050 H   0  0  0  0  0  0  0  0  0  0  0  0
   32.7190   29.7470   34.1880 C   0  0  0  0  0  0  0  0  0  0  0  0
   32.8380   30.0860   33.1260 H   0  0  0  0  0  0  0  0  0  0  0  0
   33.1220   28.7060   34.2090 H   0  0  0  0  0  0  0  0  0  0  0  0
   31.6790   29.8170   34.5200 H   0  0  0  0  0  0  0  0  0  0  0  0
   36.1250   28.2250   34.5520 O   0  0  0  0  0  0  0  0  0  0  0  0
   36.3810   28.5720   35.4710 H   0  0  0  0  0  0  0  0  0  0  0  0
   37.2460   27.3010   32.2340 O   0  0  0  0  0  0  0  0  0  0  0  0
   35.5270   25.8490   31.1410 C   0  0  0  0  0  3  0  0  0  0  0  0
   36.6450   26.1210   31.9000 C   0  0  0  0  0  0  0  0  0  0  0  0
   37.3420   25.0440   32.4620 C   0  0  0  0  0  0  0  0  0  0  0  0
   38.2330   25.0900   33.0810 H   0  0  0  0  0  0  0  0  0  0  0  0
   36.9210   23.7230   32.2640 C   0  0  0  0  0  0  0  0  0  0  0  0
   37.3540   22.5110   32.6530 N   0  0  0  0  0  0  0  0  0  0  0  0
   36.5560   21.5470   32.1660 C   0  0  0  0  0  0  0  0  0  0  0  0
   36.6690   20.4780   32.3210 H   0  0  0  0  0  0  0  0  0  0  0  0
   35.5880   22.1710   31.4460 N   0  0  0  0  0  0  0  0  0  0  0  0
   35.7970   23.5070   31.4960 C   0  0  0  0  0  0  0  0  0  0  0  0
   35.0970   24.5540   30.9330 C   0  0  0  0  0  3  0  0  0  0  0  0
   38.1970   22.3440   33.2520 H   0  0  0  0  0  0  0  0  0  0  0  0
  1  2  1  0  0  0  0
  1 22  1  0  0  0  0
  2 11  1  0  0  0  0
  3  7  1  0  0  0  0
  3  2  2  0  0  0  0
  4  3  1  0  0  0  0
  5  4  2  0  0  0  0
  5  6  1  0  0  0  0
  6  1  2  0  0  0  0
  8  4  1  0  0  0  0
  9  5  1  0  0  0  0
 10 15  1  0  0  0  0
 11 12  1  0  0  0  0
 11 10  2  0  0  0  0
 12 13  2  0  0  0  0
 13 14  1  0  0  0  0
 14 17  1  0  0  0  0
 15 14  2  0  0  0  0
 16 10  1  0  0  0  0
 18 20  1  0  0  0  0
 18 21  1  0  0  0  0
 18 12  1  0  0  0  0
 19 18  1  0  0  0  0
 22 23  1  0  0  0  0
 24  6  1  0  0  0  0
 25 26  1  0  0  0  0
 26 24  1  0  0  0  0
 26 27  2  0  0  0  0
 27 28  1  0  0  0  0
 29 27  1  0  0  0  0
 29 30  1  0  0  0  0
 30 36  1  0  0  0  0
 31 32  1  0  0  0  0
 31 30  1  0  0  0  0
 33 34  1  0  0  0  0
 33 31  2  0  0  0  0
 34 29  2  0  0  0  0
 35 25  2  0  0  0  0
 35 34  1  0  0  0  0
M  END
>  <minimizedAffinity>
-5.89981174

$$$$

 OpenBabel03272509193D

 36 39  0  0  0  0  0  0  0  0999 V2000
   37.6600   26.3090   31.9340 C   0  0  0  0  0  0  0  0  0  0  0  0
   36.6310   26.9710   31.2910 C   0  0  0  0  0  0  0  0  0  0  0  0
   35.5370   26.1470   30.9730 C   0  0  0  0  0  0  0  0  0  0  0  0
   35.5170   24.7810   31.2910 C   0  0  0  0  0  0  0  0  0  0  0  0
   36.6240   24.2110   31.9480 C   0  0  0  0  0  0  0  0  0  0  0  0
   37.7140   25.0090   32.2700 C   0  0  0  0  0  0  0  0  0  0  0  0
   34.6930   26.5860   30.4700 H   0  0  0  0  0  0  0  0  0  0  0  0
   34.6540   24.1880   31.0260 H   0  0  0  0  0  0  0  0  0  0  0  0
   36.5880   23.1540   32.1840 H   0  0  0  0  0  0  0  0  0  0  0  0
   37.0610   28.7710   29.7010 C   0  0  0  0  0  0  0  0  0  0  0  0
   36.6450   28.3560   30.9660 C   0  0  0  0  0  0  0  0  0  0  0  0
   36.2520   29.3440   31.8770 C   0  0  0  0  0  0  0  0  0  0  0  0
   36.2960   30.6400   31.4850 N   0  0  0  0  0  0  0  0  0  0  0  0
   36.7100   31.0000   30.2390 C   0  0  0  0  0  0  0  0  0  0  0  0
   37.0880   30.0690   29.3590 N   0  0  0  0  0  0  0  0  0  0  0  0
   37.3710   28.0250   28.9770 H   0  0  0  0  0  0  0  0  0  0  0  0
   36.7090   32.0620   30.0240 H   0  0  0  0  0  0  0  0  0  0  0  0
   35.7990   28.9600   33.2390 C   0  0  0  0  0  0  0  0  0  0  0  0
   35.0750   28.1050   33.1920 H   0  0  0  0  0  0  0  0  0  0  0  0
   36.6960   28.5550   33.7670 H   0  0  0  0  0  0  0  0  0  0  0  0
   35.3620   29.8320   33.7330 H   0  0  0  0  0  0  0  0  0  0  0  0
   38.7990   27.0460   32.2940 O   0  0  0  0  0  0  0  0  0  0  0  0
   39.2350   27.7030   31.6540 H   0  0  0  0  0  0  0  0  0  0  0  0
   38.7550   24.3820   32.9110 O   0  0  0  0  0  0  0  0  0  0  0  0
   39.0480   22.5600   34.6010 C   0  0  0  0  0  3  0  0  0  0  0  0
   38.7550   23.8340   34.1620 C   0  0  0  0  0  0  0  0  0  0  0  0
   38.3830   24.7920   35.1130 C   0  0  0  0  0  0  0  0  0  0  0  0
   38.1220   25.8310   34.9310 H   0  0  0  0  0  0  0  0  0  0  0  0
   38.3080   24.4740   36.4740 C   0  0  0  0  0  0  0  0  0  0  0  0
   37.9920   25.1430   37.5980 N   0  0  0  0  0  0  0  0  0  0  0  0
   38.0850   24.3350   38.6670 C   0  0  0  0  0  0  0  0  0  0  0  0
   37.8890   24.6090   39.6990 H   0  0  0  0  0  0  0  0  0  0  0  0
   38.4700   23.1180   38.2030 N   0  0  0  0  0  0  0  0  0  0  0  0
   38.6110   23.1850   36.8590 C   0  0  0  0  0  0  0  0  0  0  0  0
   38.9800   22.2270   35.9380 C   0  0  0  0  0  3  0  0  0  0  0  0
   37.7160   26.1520   37.6320 H   0  0  0  0  0  0  0  0  0  0  0  0
  1  6  1  0  0  0  0
  1 22  1  0  0  0  0
  2  1  2  0  0  0  0
  3  2  1  0  0  0  0
  3  4  2  0  0  0  0
  4  5  1  0  0  0  0
  5  9  1  0  0  0  0
  5  6  2  0  0  0  0
  6 24  1  0  0  0  0
  7  3  1  0  0  0  0
  8  4  1  0  0  0  0
 10 11  1  0  0  0  0
 11  2  1  0  0  0  0
 11 12  2  0  0  0  0
 12 18  1  0  0  0  0
 13 12  1  0  0  0  0
 14 13  2  0  0  0  0
 15 10  2  0  0  0  0
 15 14  1  0  0  0  0
 16 10  1  0  0  0  0
 17 14  1  0  0  0  0
 18 21  1  0  0  0  0
 18 20  1  0  0  0  0
 19 18  1  0  0  0  0
 23 22  1  0  0  0  0
 24 26  1  0  0  0  0
 25 35  1  0  0  0  0
 26 25  2  0  0  0  0
 26 27  1  0  0  0  0
 27 29  2  0  0  0  0
 28 27  1  0  0  0  0
 29 34  1  0  0  0  0
 29 30  1  0  0  0  0
 30 36  1  0  0  0  0
 30 31  1  0  0  0  0
 31 32  1  0  0  0  0
 33 31  2  0  0  0  0
 34 33  1  0  0  0  0
 35 34  2  0  0  0  0
M  END
>  <minimizedAffinity>
-5.68092394

$$$$

 OpenBabel03272509193D

 36 39  0  0  0  0  0  0  0  0999 V2000
   38.0420   25.5110   34.1580 C   0  0  0  0  0  0  0  0  0  0  0  0
   38.8160   25.3480   35.2910 C   0  0  0  0  0  0  0  0  0  0  0  0
   38.7940   26.4540   36.1580 C   0  0  0  0  0  0  0  0  0  0  0  0
   38.0450   27.6060   35.8750 C   0  0  0  0  0  0  0  0  0  0  0  0
   37.2920   27.6620   34.6870 C   0  0  0  0  0  0  0  0  0  0  0  0
   37.3020   26.5800   33.8180 C   0  0  0  0  0  0  0  0  0  0  0  0
   39.3710   26.4080   37.0660 H   0  0  0  0  0  0  0  0  0  0  0  0
   38.0590   28.4310   36.5710 H   0  0  0  0  0  0  0  0  0  0  0  0
   36.7210   28.5620   34.4870 H   0  0  0  0  0  0  0  0  0  0  0  0
   40.8930   24.0770   35.1360 C   0  0  0  0  0  0  0  0  0  0  0  0
   39.5770   24.1820   35.5850 C   0  0  0  0  0  0  0  0  0  0  0  0
   39.0550   23.1100   36.3190 C   0  0  0  0  0  0  0  0  0  0  0  0
   39.8480   22.0380   36.5540 N   0  0  0  0  0  0  0  0  0  0  0  0
   41.1290   21.9780   36.0950 C   0  0  0  0  0  0  0  0  0  0  0  0
   41.6410   22.9920   35.3930 N   0  0  0  0  0  0  0  0  0  0  0  0
   41.3220   24.8930   34.5640 H   0  0  0  0  0  0  0  0  0  0  0  0
   41.6810   21.0770   36.3360 H   0  0  0  0  0  0  0  0  0  0  0  0
   37.6580   23.1670   36.8240 C   0  0  0  0  0  0  0  0  0  0  0  0
   37.4460   24.1590   37.3000 H   0  0  0  0  0  0  0  0  0  0  0  0
   36.9970   23.1270   35.9240 H   0  0  0  0  0  0  0  0  0  0  0  0
   37.4920   22.3410   37.5210 H   0  0  0  0  0  0  0  0  0  0  0  0
   37.9990   24.4590   33.2280 O   0  0  0  0  0  0  0  0  0  0  0  0
   38.8390   23.9700   32.9360 H   0  0  0  0  0  0  0  0  0  0  0  0
   36.5430   26.7090   32.6810 O   0  0  0  0  0  0  0  0  0  0  0  0
   36.0630   28.8410   31.4630 C   0  0  0  0  0  3  0  0  0  0  0  0
   36.6850   27.6310   31.6830 C   0  0  0  0  0  0  0  0  0  0  0  0
   37.6480   27.2040   30.7590 C   0  0  0  0  0  0  0  0  0  0  0  0
   38.2220   26.2830   30.7890 H   0  0  0  0  0  0  0  0  0  0  0  0
   37.9750   27.9790   29.6400 C   0  0  0  0  0  0  0  0  0  0  0  0
   38.8230   27.8540   28.6040 N   0  0  0  0  0  0  0  0  0  0  0  0
   38.7340   28.9210   27.7920 C   0  0  0  0  0  0  0  0  0  0  0  0
   39.3030   29.0860   26.8820 H   0  0  0  0  0  0  0  0  0  0  0  0
   37.7990   29.7450   28.3340 N   0  0  0  0  0  0  0  0  0  0  0  0
   37.3230   29.1810   29.4690 C   0  0  0  0  0  0  0  0  0  0  0  0
   36.3720   29.6200   30.3670 C   0  0  0  0  0  3  0  0  0  0  0  0
   39.4630   27.0400   28.4540 H   0  0  0  0  0  0  0  0  0  0  0  0
  1  2  1  0  0  0  0
  2 11  1  0  0  0  0
  2  3  2  0  0  0  0
  3  7  1  0  0  0  0
  4  3  1  0  0  0  0
  4  8  1  0  0  0  0
  5  4  2  0  0  0  0
  6  1  2  0  0  0  0
  6  5  1  0  0  0  0
  9  5  1  0  0  0  0
 10 15  2  0  0  0  0
 10 11  1  0  0  0  0
 11 12  2  0  0  0  0
 12 13  1  0  0  0  0
 12 18  1  0  0  0  0
 14 17  1  0  0  0  0
 14 13  2  0  0  0  0
 15 14  1  0  0  0  0
 16 10  1  0  0  0  0
 18 19  1  0  0  0  0
 18 21  1  0  0  0  0
 20 18  1  0  0  0  0
 22  1  1  0  0  0  0
 23 22  1  0  0  0  0
 24  6  1  0  0  0  0
 25 26  1  0  0  0  0
 26 24  1  0  0  0  0
 27 28  1  0  0  0  0
 27 26  2  0  0  0  0
 29 27  1  0  0  0  0
 30 29  1  0  0  0  0
 31 33  2  0  0  0  0
 31 30  1  0  0  0  0
 32 31  1  0  0  0  0
 33 34  1  0  0  0  0
 34 29  2  0  0  0  0
 34 35  1  0  0  0  0
 35 25  2  0  0  0  0
 36 30  1  0  0  0  0
M  END
>  <minimizedAffinity>
-5.62936211

$$$$

 OpenBabel03272509193D

 36 39  0  0  0  0  0  0  0  0999 V2000
   37.9420   25.5300   34.0130 C   0  0  0  0  0  0  0  0  0  0  0  0
   37.7910   26.8880   33.8060 C   0  0  0  0  0  0  0  0  0  0  0  0
   37.9660   27.6630   34.9650 C   0  0  0  0  0  0  0  0  0  0  0  0
   38.2680   27.0850   36.2070 C   0  0  0  0  0  0  0  0  0  0  0  0
   38.3990   25.6860   36.3020 C   0  0  0  0  0  0  0  0  0  0  0  0
   38.2280   24.9050   35.1680 C   0  0  0  0  0  0  0  0  0  0  0  0
   37.8660   28.7320   34.8890 H   0  0  0  0  0  0  0  0  0  0  0  0
   38.3930   27.7210   37.0710 H   0  0  0  0  0  0  0  0  0  0  0  0
   38.6310   25.2610   37.2720 H   0  0  0  0  0  0  0  0  0  0  0  0
   36.1810   27.8800   32.2640 C   0  0  0  0  0  0  0  0  0  0  0  0
   37.4860   27.4800   32.5480 C   0  0  0  0  0  0  0  0  0  0  0  0
   38.4570   27.6840   31.5600 C   0  0  0  0  0  0  0  0  0  0  0  0
   38.0810   28.2550   30.3910 N   0  0  0  0  0  0  0  0  0  0  0  0
   36.7930   28.6300   30.1570 C   0  0  0  0  0  0  0  0  0  0  0  0
   35.8560   28.4430   31.0890 N   0  0  0  0  0  0  0  0  0  0  0  0
   35.4100   27.7330   33.0130 H   0  0  0  0  0  0  0  0  0  0  0  0
   36.5940   29.0780   29.1900 H   0  0  0  0  0  0  0  0  0  0  0  0
   39.8650   27.2780   31.8070 C   0  0  0  0  0  0  0  0  0  0  0  0
   40.2050   27.6140   32.8210 H   0  0  0  0  0  0  0  0  0  0  0  0
   39.8670   26.1620   31.8540 H   0  0  0  0  0  0  0  0  0  0  0  0
   40.5010   27.6800   31.0140 H   0  0  0  0  0  0  0  0  0  0  0  0
   37.7860   24.6700   32.9140 O   0  0  0  0  0  0  0  0  0  0  0  0
   37.0200   24.7780   32.2560 H   0  0  0  0  0  0  0  0  0  0  0  0
   38.3720   23.5490   35.3390 O   0  0  0  0  0  0  0  0  0  0  0  0
   40.3560   22.4860   34.2480 C   0  0  0  0  0  3  0  0  0  0  0  0
   39.5270   22.8210   35.2970 C   0  0  0  0  0  0  0  0  0  0  0  0
   39.8640   22.3680   36.5780 C   0  0  0  0  0  0  0  0  0  0  0  0
   39.3190   22.5430   37.5010 H   0  0  0  0  0  0  0  0  0  0  0  0
   41.0110   21.5950   36.7980 C   0  0  0  0  0  0  0  0  0  0  0  0
   41.5920   21.0250   37.8680 N   0  0  0  0  0  0  0  0  0  0  0  0
   42.7120   20.3780   37.5080 C   0  0  0  0  0  0  0  0  0  0  0  0
   43.3790   19.8310   38.1660 H   0  0  0  0  0  0  0  0  0  0  0  0
   42.8420   20.5450   36.1650 N   0  0  0  0  0  0  0  0  0  0  0  0
   41.8060   21.2900   35.7130 C   0  0  0  0  0  0  0  0  0  0  0  0
   41.4920   21.7260   34.4430 C   0  0  0  0  0  3  0  0  0  0  0  0
   41.2210   21.0810   38.8460 H   0  0  0  0  0  0  0  0  0  0  0  0
  1  6  1  0  0  0  0
  2  1  2  0  0  0  0
  2  3  1  0  0  0  0
  3  4  2  0  0  0  0
  4  5  1  0  0  0  0
  4  8  1  0  0  0  0
  5  9  1  0  0  0  0
  6 24  1  0  0  0  0
  6  5  2  0  0  0  0
  7  3  1  0  0  0  0
 10 11  1  0  0  0  0
 10 16  1  0  0  0  0
 11  2  1  0  0  0  0
 12 18  1  0  0  0  0
 12 11  2  0  0  0  0
 13 12  1  0  0  0  0
 14 13  2  0  0  0  0
 14 15  1  0  0  0  0
 15 10  2  0  0  0  0
 17 14  1  0  0  0  0
 18 20  1  0  0  0  0
 18 19  1  0  0  0  0
 21 18  1  0  0  0  0
 22  1  1  0  0  0  0
 23 22  1  0  0  0  0
 25 35  2  0  0  0  0
 25 26  1  0  0  0  0
 26 24  1  0  0  0  0
 26 27  2  0  0  0  0
 27 29  1  0  0  0  0
 27 28  1  0  0  0  0
 29 30  1  0  0  0  0
 30 36  1  0  0  0  0
 31 30  1  0  0  0  0
 31 32  1  0  0  0  0
 33 31  2  0  0  0  0
 34 33  1  0  0  0  0
 34 29  2  0  0  0  0
 35 34  1  0  0  0  0
M  END
>  <minimizedAffinity>
-5.62708807

$$$$

 OpenBabel03272509193D

 36 39  0  0  0  0  0  0  0  0999 V2000
   36.4070   26.9300   31.2440 C   0  0  0  0  0  0  0  0  0  0  0  0
   36.4560   28.0620   32.0350 C   0  0  0  0  0  0  0  0  0  0  0  0
   36.9020   27.8200   33.3460 C   0  0  0  0  0  0  0  0  0  0  0  0
   37.2590   26.5360   33.7850 C   0  0  0  0  0  0  0  0  0  0  0  0
   37.1690   25.4530   32.8900 C   0  0  0  0  0  0  0  0  0  0  0  0
   36.7300   25.6730   31.5920 C   0  0  0  0  0  0  0  0  0  0  0  0
   36.9700   28.6500   34.0270 H   0  0  0  0  0  0  0  0  0  0  0  0
   37.5970   26.3990   34.8020 H   0  0  0  0  0  0  0  0  0  0  0  0
   37.4490   24.4690   33.2500 H   0  0  0  0  0  0  0  0  0  0  0  0
   36.9860   30.1110   30.8210 C   0  0  0  0  0  0  0  0  0  0  0  0
   36.0960   29.3670   31.5960 C   0  0  0  0  0  0  0  0  0  0  0  0
   34.8650   29.9520   31.9120 C   0  0  0  0  0  0  0  0  0  0  0  0
   34.6030   31.1990   31.4530 N   0  0  0  0  0  0  0  0  0  0  0  0
   35.5030   31.8900   30.6990 C   0  0  0  0  0  0  0  0  0  0  0  0
   36.6810   31.3450   30.3890 N   0  0  0  0  0  0  0  0  0  0  0  0
   37.9470   29.6810   30.5630 H   0  0  0  0  0  0  0  0  0  0  0  0
   35.1980   32.8800   30.3810 H   0  0  0  0  0  0  0  0  0  0  0  0
   33.8770   29.2050   32.7340 C   0  0  0  0  0  0  0  0  0  0  0  0
   33.7720   28.1500   32.3710 H   0  0  0  0  0  0  0  0  0  0  0  0
   34.3190   29.1190   33.7560 H   0  0  0  0  0  0  0  0  0  0  0  0
   32.9210   29.7350   32.7180 H   0  0  0  0  0  0  0  0  0  0  0  0
   35.9730   27.0680   29.9160 O   0  0  0  0  0  0  0  0  0  0  0  0
   35.1580   27.6240   29.6750 H   0  0  0  0  0  0  0  0  0  0  0  0
   36.6690   24.5680   30.7780 O   0  0  0  0  0  0  0  0  0  0  0  0
   38.0120   22.5170   31.2760 C   0  0  0  0  0  3  0  0  0  0  0  0
   36.8620   23.2620   31.1290 C   0  0  0  0  0  0  0  0  0  0  0  0
   35.6320   22.6340   31.3650 C   0  0  0  0  0  0  0  0  0  0  0  0
   34.6440   23.0790   31.2920 H   0  0  0  0  0  0  0  0  0  0  0  0
   35.5640   21.2870   31.7410 C   0  0  0  0  0  0  0  0  0  0  0  0
   34.5750   20.4220   32.0290 N   0  0  0  0  0  0  0  0  0  0  0  0
   35.0800   19.2160   32.3370 C   0  0  0  0  0  0  0  0  0  0  0  0
   34.5120   18.3320   32.6100 H   0  0  0  0  0  0  0  0  0  0  0  0
   36.4310   19.3230   32.2390 N   0  0  0  0  0  0  0  0  0  0  0  0
   36.7450   20.5890   31.8740 C   0  0  0  0  0  0  0  0  0  0  0  0
   37.9660   21.1880   31.6460 C   0  0  0  0  0  3  0  0  0  0  0  0
   33.5550   20.6590   32.0160 H   0  0  0  0  0  0  0  0  0  0  0  0
  1  6  2  0  0  0  0
  1  2  1  0  0  0  0
  2  3  2  0  0  0  0
  3  4  1  0  0  0  0
  3  7  1  0  0  0  0
  4  8  1  0  0  0  0
  5  9  1  0  0  0  0
  5  4  2  0  0  0  0
  6  5  1  0  0  0  0
 10 11  1  0  0  0  0
 11 12  2  0  0  0  0
 11  2  1  0  0  0  0
 12 18  1  0  0  0  0
 13 12  1  0  0  0  0
 14 13  2  0  0  0  0
 15 14  1  0  0  0  0
 15 10  2  0  0  0  0
 16 10  1  0  0  0  0
 17 14  1  0  0  0  0
 18 20  1  0  0  0  0
 19 18  1  0  0  0  0
 21 18  1  0  0  0  0
 22  1  1  0  0  0  0
 23 22  1  0  0  0  0
 24 26  1  0  0  0  0
 24  6  1  0  0  0  0
 25 35  1  0  0  0  0
 26 25  2  0  0  0  0
 26 27  1  0  0  0  0
 27 29  2  0  0  0  0
 28 27  1  0  0  0  0
 29 34  1  0  0  0  0
 29 30  1  0  0  0  0
 30 31  1  0  0  0  0
 31 32  1  0  0  0  0
 33 31  2  0  0  0  0
 34 33  1  0  0  0  0
 35 34  2  0  0  0  0
 36 30  1  0  0  0  0
M  END
>  <minimizedAffinity>
-5.60307121

$$$$

 OpenBabel03272509193D

 36 39  0  0  0  0  0  0  0  0999 V2000
   38.5630   25.0730   33.9500 C   0  0  0  0  0  0  0  0  0  0  0  0
   38.5670   23.7520   34.3550 C   0  0  0  0  0  0  0  0  0  0  0  0
   37.7700   22.9110   33.5600 C   0  0  0  0  0  0  0  0  0  0  0  0
   37.0460   23.3950   32.4600 C   0  0  0  0  0  0  0  0  0  0  0  0
   37.1150   24.7640   32.1380 C   0  0  0  0  0  0  0  0  0  0  0  0
   37.8970   25.6090   32.9130 C   0  0  0  0  0  0  0  0  0  0  0  0
   37.7190   21.8650   33.8080 H   0  0  0  0  0  0  0  0  0  0  0  0
   36.4460   22.7100   31.8780 H   0  0  0  0  0  0  0  0  0  0  0  0
   36.5470   25.1160   31.2850 H   0  0  0  0  0  0  0  0  0  0  0  0
   40.5240   22.6170   35.2690 C   0  0  0  0  0  0  0  0  0  0  0  0
   39.3000   23.2550   35.4690 C   0  0  0  0  0  0  0  0  0  0  0  0
   38.8400   23.3770   36.7850 C   0  0  0  0  0  0  0  0  0  0  0  0
   39.6010   22.8760   37.7870 N   0  0  0  0  0  0  0  0  0  0  0  0
   40.7910   22.2600   37.5450 C   0  0  0  0  0  0  0  0  0  0  0  0
   41.2440   22.1350   36.2950 N   0  0  0  0  0  0  0  0  0  0  0  0
   40.9040   22.5080   34.2580 H   0  0  0  0  0  0  0  0  0  0  0  0
   41.3240   21.8920   38.4140 H   0  0  0  0  0  0  0  0  0  0  0  0
   37.5420   24.0480   37.0580 C   0  0  0  0  0  0  0  0  0  0  0  0
   37.4590   25.0060   36.4820 H   0  0  0  0  0  0  0  0  0  0  0  0
   36.7490   23.3830   36.6370 H   0  0  0  0  0  0  0  0  0  0  0  0
   37.4410   24.2140   38.1340 H   0  0  0  0  0  0  0  0  0  0  0  0
   39.3310   25.9930   34.6820 O   0  0  0  0  0  0  0  0  0  0  0  0
   39.3290   26.0030   35.6970 H   0  0  0  0  0  0  0  0  0  0  0  0
   37.9150   26.9310   32.5370 O   0  0  0  0  0  0  0  0  0  0  0  0
   36.3960   28.2590   34.0160 C   0  0  0  0  0  3  0  0  0  0  0  0
   36.9900   27.8930   32.8270 C   0  0  0  0  0  0  0  0  0  0  0  0
   36.6290   28.5870   31.6650 C   0  0  0  0  0  0  0  0  0  0  0  0
   37.0020   28.4200   30.6590 H   0  0  0  0  0  0  0  0  0  0  0  0
   35.6920   29.6260   31.7010 C   0  0  0  0  0  0  0  0  0  0  0  0
   35.1490   30.4580   30.7950 N   0  0  0  0  0  0  0  0  0  0  0  0
   34.2740   31.2900   31.3840 C   0  0  0  0  0  0  0  0  0  0  0  0
   33.6920   32.0640   30.8940 H   0  0  0  0  0  0  0  0  0  0  0  0
   34.2640   30.9720   32.7050 N   0  0  0  0  0  0  0  0  0  0  0  0
   35.1290   29.9520   32.9170 C   0  0  0  0  0  0  0  0  0  0  0  0
   35.4710   29.2810   34.0730 C   0  0  0  0  0  3  0  0  0  0  0  0
   35.3790   30.4570   29.7740 H   0  0  0  0  0  0  0  0  0  0  0  0
  1  2  1  0  0  0  0
  1 22  1  0  0  0  0
  2 11  1  0  0  0  0
  3  7  1  0  0  0  0
  3  2  2  0  0  0  0
  4  3  1  0  0  0  0
  5  4  2  0  0  0  0
  5  6  1  0  0  0  0
  6  1  2  0  0  0  0
  8  4  1  0  0  0  0
  9  5  1  0  0  0  0
 10 11  2  0  0  0  0
 10 15  1  0  0  0  0
 11 12  1  0  0  0  0
 12 18  1  0  0  0  0
 12 13  2  0  0  0  0
 14 13  1  0  0  0  0
 14 17  1  0  0  0  0
 15 14  2  0  0  0  0
 16 10  1  0  0  0  0
 18 21  1  0  0  0  0
 19 18  1  0  0  0  0
 20 18  1  0  0  0  0
 22 23  1  0  0  0  0
 24 26  1  0  0  0  0
 24  6  1  0  0  0  0
 25 35  1  0  0  0  0
 26 25  2  0  0  0  0
 27 29  2  0  0  0  0
 27 26  1  0  0  0  0
 28 27  1  0  0  0  0
 29 34  1  0  0  0  0
 30 31  1  0  0  0  0
 30 29  1  0  0  0  0
 31 33  2  0  0  0  0
 32 31  1  0  0  0  0
 33 34  1  0  0  0  0
 34 35  2  0  0  0  0
 36 30  1  0  0  0  0
M  END
>  <minimizedAffinity>
-5.58515072

$$$$

 OpenBabel03272509193D

 36 39  0  0  0  0  0  0  0  0999 V2000
   36.6270   27.7700   32.8000 C   0  0  0  0  0  0  0  0  0  0  0  0
   36.8010   27.2880   31.5160 C   0  0  0  0  0  0  0  0  0  0  0  0
   36.5410   28.2370   30.5130 C   0  0  0  0  0  0  0  0  0  0  0  0
   36.1430   29.5480   30.8140 C   0  0  0  0  0  0  0  0  0  0  0  0
   35.9970   29.9300   32.1610 C   0  0  0  0  0  0  0  0  0  0  0  0
   36.2490   29.0060   33.1660 C   0  0  0  0  0  0  0  0  0  0  0  0
   36.6530   27.9410   29.4840 H   0  0  0  0  0  0  0  0  0  0  0  0
   35.9540   30.2420   30.0090 H   0  0  0  0  0  0  0  0  0  0  0  0
   35.6880   30.9480   32.3720 H   0  0  0  0  0  0  0  0  0  0  0  0
   38.5610   25.6490   31.1060 C   0  0  0  0  0  0  0  0  0  0  0  0
   37.2050   25.9590   31.2040 C   0  0  0  0  0  0  0  0  0  0  0  0
   36.2850   24.9270   30.9840 C   0  0  0  0  0  0  0  0  0  0  0  0
   36.7560   23.6910   30.6920 N   0  0  0  0  0  0  0  0  0  0  0  0
   38.0900   23.4330   30.6060 C   0  0  0  0  0  0  0  0  0  0  0  0
   38.9800   24.4070   30.8130 N   0  0  0  0  0  0  0  0  0  0  0  0
   39.2940   26.4310   31.2710 H   0  0  0  0  0  0  0  0  0  0  0  0
   38.3650   22.4120   30.3660 H   0  0  0  0  0  0  0  0  0  0  0  0
   34.8270   25.2000   31.0760 C   0  0  0  0  0  0  0  0  0  0  0  0
   34.5900   25.8000   31.9930 H   0  0  0  0  0  0  0  0  0  0  0  0
   34.5770   25.8690   30.2160 H   0  0  0  0  0  0  0  0  0  0  0  0
   34.2810   24.2530   31.0610 H   0  0  0  0  0  0  0  0  0  0  0  0
   36.8630   26.8960   33.8730 O   0  0  0  0  0  0  0  0  0  0  0  0
   36.5130   25.9430   33.8740 H   0  0  0  0  0  0  0  0  0  0  0  0
   36.0860   29.4530   34.4550 O   0  0  0  0  0  0  0  0  0  0  0  0
   33.6750   30.0460   34.7670 C   0  0  0  0  0  3  0  0  0  0  0  0
   35.0350   30.1600   34.9650 C   0  0  0  0  0  0  0  0  0  0  0  0
   35.4950   31.1590   35.8320 C   0  0  0  0  0  0  0  0  0  0  0  0
   36.5270   31.3790   36.0910 H   0  0  0  0  0  0  0  0  0  0  0  0
   34.6070   32.0230   36.4840 C   0  0  0  0  0  0  0  0  0  0  0  0
   34.7260   33.0480   37.3460 N   0  0  0  0  0  0  0  0  0  0  0  0
   33.5170   33.5390   37.6640 C   0  0  0  0  0  0  0  0  0  0  0  0
   33.3140   34.3650   38.3380 H   0  0  0  0  0  0  0  0  0  0  0  0
   32.6050   32.7990   36.9800 N   0  0  0  0  0  0  0  0  0  0  0  0
   33.2570   31.8640   36.2510 C   0  0  0  0  0  0  0  0  0  0  0  0
   32.7830   30.8860   35.4010 C   0  0  0  0  0  3  0  0  0  0  0  0
   35.6350   33.4110   37.7170 H   0  0  0  0  0  0  0  0  0  0  0  0
  1  6  1  0  0  0  0
  1 22  1  0  0  0  0
  2  1  2  0  0  0  0
  3  4  2  0  0  0  0
  3  2  1  0  0  0  0
  4  5  1  0  0  0  0
  5  9  1  0  0  0  0
  5  6  2  0  0  0  0
  6 24  1  0  0  0  0
  7  3  1  0  0  0  0
  8  4  1  0  0  0  0
 10 11  1  0  0  0  0
 10 16  1  0  0  0  0
 11  2  1  0  0  0  0
 12 18  1  0  0  0  0
 12 11  2  0  0  0  0
 13 12  1  0  0  0  0
 14 13  2  0  0  0  0
 14 15  1  0  0  0  0
 15 10  2  0  0  0  0
 17 14  1  0  0  0  0
 18 19  1  0  0  0  0
 20 18  1  0  0  0  0
 21 18  1  0  0  0  0
 22 23  1  0  0  0  0
 24 26  1  0  0  0  0
 25 26  2  0  0  0  0
 25 35  1  0  0  0  0
 26 27  1  0  0  0  0
 27 28  1  0  0  0  0
 27 29  2  0  0  0  0
 29 30  1  0  0  0  0
 30 31  1  0  0  0  0
 30 36  1  0  0  0  0
 31 32  1  0  0  0  0
 33 31  2  0  0  0  0
 34 29  1  0  0  0  0
 34 33  1  0  0  0  0
 35 34  2  0  0  0  0
M  END
>  <minimizedAffinity>
-5.55358791

$$$$

 OpenBabel03272509193D

 36 39  0  0  0  0  0  0  0  0999 V2000
   36.5810   26.3570   31.3370 C   0  0  0  0  0  0  0  0  0  0  0  0
   36.6920   27.5310   32.0580 C   0  0  0  0  0  0  0  0  0  0  0  0
   37.6760   27.4900   33.0610 C   0  0  0  0  0  0  0  0  0  0  0  0
   38.4600   26.3490   33.2880 C   0  0  0  0  0  0  0  0  0  0  0  0
   38.2600   25.2060   32.4900 C   0  0  0  0  0  0  0  0  0  0  0  0
   37.2920   25.2280   31.4950 C   0  0  0  0  0  0  0  0  0  0  0  0
   37.8270   28.3650   33.6690 H   0  0  0  0  0  0  0  0  0  0  0  0
   39.2040   26.3650   34.0700 H   0  0  0  0  0  0  0  0  0  0  0  0
   38.8760   24.3350   32.6830 H   0  0  0  0  0  0  0  0  0  0  0  0
   34.7260   28.8860   32.5590 C   0  0  0  0  0  0  0  0  0  0  0  0
   35.9010   28.6920   31.8330 C   0  0  0  0  0  0  0  0  0  0  0  0
   36.2530   29.6690   30.8940 C   0  0  0  0  0  0  0  0  0  0  0  0
   35.4420   30.7440   30.7430 N   0  0  0  0  0  0  0  0  0  0  0  0
   34.3030   30.8920   31.4750 C   0  0  0  0  0  0  0  0  0  0  0  0
   33.9540   29.9690   32.3740 N   0  0  0  0  0  0  0  0  0  0  0  0
   34.4310   28.1430   33.2920 H   0  0  0  0  0  0  0  0  0  0  0  0
   33.7230   31.7870   31.2790 H   0  0  0  0  0  0  0  0  0  0  0  0
   37.4940   29.5150   30.0920 C   0  0  0  0  0  0  0  0  0  0  0  0
   38.3550   29.2130   30.7420 H   0  0  0  0  0  0  0  0  0  0  0  0
   37.3230   28.6460   29.4110 H   0  0  0  0  0  0  0  0  0  0  0  0
   37.6980   30.4480   29.5600 H   0  0  0  0  0  0  0  0  0  0  0  0
   35.6240   26.2980   30.3110 O   0  0  0  0  0  0  0  0  0  0  0  0
   34.6800   26.6480   30.4400 H   0  0  0  0  0  0  0  0  0  0  0  0
   37.1550   24.0760   30.7590 O   0  0  0  0  0  0  0  0  0  0  0  0
   35.4470   22.5800   31.8080 C   0  0  0  0  0  3  0  0  0  0  0  0
   36.6280   22.8840   31.1660 C   0  0  0  0  0  0  0  0  0  0  0  0
   37.4940   21.8320   30.8400 C   0  0  0  0  0  0  0  0  0  0  0  0
   38.4540   21.9050   30.3390 H   0  0  0  0  0  0  0  0  0  0  0  0
   37.1770   20.5050   31.1550 C   0  0  0  0  0  0  0  0  0  0  0  0
   37.7730   19.3120   30.9850 N   0  0  0  0  0  0  0  0  0  0  0  0
   37.0090   18.3290   31.4900 C   0  0  0  0  0  0  0  0  0  0  0  0
   37.2430   17.2690   31.4900 H   0  0  0  0  0  0  0  0  0  0  0  0
   35.8950   18.9210   31.9950 N   0  0  0  0  0  0  0  0  0  0  0  0
   35.9820   20.2580   31.7970 C   0  0  0  0  0  0  0  0  0  0  0  0
   35.1150   21.2790   32.1270 C   0  0  0  0  0  3  0  0  0  0  0  0
   38.7010   19.1710   30.5230 H   0  0  0  0  0  0  0  0  0  0  0  0
  1  6  2  0  0  0  0
  1  2  1  0  0  0  0
  2  3  2  0  0  0  0
  3  4  1  0  0  0  0
  3  7  1  0  0  0  0
  4  8  1  0  0  0  0
  5  9  1  0  0  0  0
  5  4  2  0  0  0  0
  6  5  1  0  0  0  0
 10 16  1  0  0  0  0
 11  2  1  0  0  0  0
 11 10  2  0  0  0  0
 12 11  1  0  0  0  0
 13 12  2  0  0  0  0
 13 14  1  0  0  0  0
 14 15  2  0  0  0  0
 15 10  1  0  0  0  0
 17 14  1  0  0  0  0
 18 19  1  0  0  0  0
 18 12  1  0  0  0  0
 20 18  1  0  0  0  0
 21 18  1  0  0  0  0
 22 23  1  0  0  0  0
 22  1  1  0  0  0  0
 24 26  1  0  0  0  0
 24  6  1  0  0  0  0
 25 35  1  0  0  0  0
 26 25  2  0  0  0  0
 27 29  2  0  0  0  0
 27 26  1  0  0  0  0
 28 27  1  0  0  0  0
 29 34  1  0  0  0  0
 30 29  1  0  0  0  0
 30 31  1  0  0  0  0
 31 32  1  0  0  0  0
 31 33  2  0  0  0  0
 34 33  1  0  0  0  0
 34 35  2  0  0  0  0
 36 30  1  0  0  0  0
M  END
>  <minimizedAffinity>
-5.49999332

$$$$

 OpenBabel03272509193D

 36 39  0  0  0  0  0  0  0  0999 V2000
   37.3610   26.3910   33.5240 C   0  0  0  0  0  0  0  0  0  0  0  0
   36.7420   26.6690   32.3200 C   0  0  0  0  0  0  0  0  0  0  0  0
   36.4720   25.5290   31.5440 C   0  0  0  0  0  0  0  0  0  0  0  0
   36.8100   24.2380   31.9760 C   0  0  0  0  0  0  0  0  0  0  0  0
   37.4400   24.0730   33.2240 C   0  0  0  0  0  0  0  0  0  0  0  0
   37.7150   25.1870   34.0040 C   0  0  0  0  0  0  0  0  0  0  0  0
   35.9900   25.6590   30.5900 H   0  0  0  0  0  0  0  0  0  0  0  0
   36.5820   23.3920   31.3440 H   0  0  0  0  0  0  0  0  0  0  0  0
   37.6930   23.0660   33.5380 H   0  0  0  0  0  0  0  0  0  0  0  0
   35.2030   28.5630   32.3000 C   0  0  0  0  0  0  0  0  0  0  0  0
   36.3960   27.9770   31.8770 C   0  0  0  0  0  0  0  0  0  0  0  0
   37.2140   28.7180   31.0170 C   0  0  0  0  0  0  0  0  0  0  0  0
   36.8080   29.9560   30.6430 N   0  0  0  0  0  0  0  0  0  0  0  0
   35.6340   30.4890   31.0810 C   0  0  0  0  0  0  0  0  0  0  0  0
   34.8430   29.7940   31.9020 N   0  0  0  0  0  0  0  0  0  0  0  0
   34.5510   28.0090   32.9670 H   0  0  0  0  0  0  0  0  0  0  0  0
   35.4000   31.4850   30.7250 H   0  0  0  0  0  0  0  0  0  0  0  0
   38.4970   28.1440   30.5340 C   0  0  0  0  0  0  0  0  0  0  0  0
   39.0690   27.6810   31.3790 H   0  0  0  0  0  0  0  0  0  0  0  0
   38.2280   27.2940   29.8610 H   0  0  0  0  0  0  0  0  0  0  0  0
   39.0770   28.9260   30.0350 H   0  0  0  0  0  0  0  0  0  0  0  0
   37.6730   27.4660   34.3730 O   0  0  0  0  0  0  0  0  0  0  0  0
   38.0960   28.3190   34.0210 H   0  0  0  0  0  0  0  0  0  0  0  0
   38.3310   24.9460   35.2080 O   0  0  0  0  0  0  0  0  0  0  0  0
   40.7730   24.5320   34.8560 C   0  0  0  0  0  3  0  0  0  0  0  0
   39.5320   24.3320   35.4230 C   0  0  0  0  0  0  0  0  0  0  0  0
   39.4030   23.3380   36.4010 C   0  0  0  0  0  0  0  0  0  0  0  0
   38.5020   23.0590   36.9370 H   0  0  0  0  0  0  0  0  0  0  0  0
   40.4990   22.5630   36.7990 C   0  0  0  0  0  0  0  0  0  0  0  0
   40.6990   21.5660   37.6780 N   0  0  0  0  0  0  0  0  0  0  0  0
   41.9820   21.1720   37.6600 C   0  0  0  0  0  0  0  0  0  0  0  0
   42.4230   20.3870   38.2670 H   0  0  0  0  0  0  0  0  0  0  0  0
   42.6140   21.9450   36.7390 N   0  0  0  0  0  0  0  0  0  0  0  0
   41.7180   22.8050   36.2000 C   0  0  0  0  0  0  0  0  0  0  0  0
   41.8660   23.7790   35.2350 C   0  0  0  0  0  3  0  0  0  0  0  0
   39.9560   21.1560   38.2920 H   0  0  0  0  0  0  0  0  0  0  0  0
  1  6  1  0  0  0  0
  1 22  1  0  0  0  0
  2  1  2  0  0  0  0
  3  4  2  0  0  0  0
  3  2  1  0  0  0  0
  4  5  1  0  0  0  0
  5  9  1  0  0  0  0
  5  6  2  0  0  0  0
  6 24  1  0  0  0  0
  7  3  1  0  0  0  0
  8  4  1  0  0  0  0
 10 16  1  0  0  0  0
 11 10  2  0  0  0  0
 11  2  1  0  0  0  0
 12 11  1  0  0  0  0
 13 12  2  0  0  0  0
 13 14  1  0  0  0  0
 14 15  2  0  0  0  0
 15 10  1  0  0  0  0
 17 14  1  0  0  0  0
 18 12  1  0  0  0  0
 18 19  1  0  0  0  0
 20 18  1  0  0  0  0
 21 18  1  0  0  0  0
 23 22  1  0  0  0  0
 24 26  1  0  0  0  0
 25 35  2  0  0  0  0
 25 26  1  0  0  0  0
 26 27  2  0  0  0  0
 27 29  1  0  0  0  0
 27 28  1  0  0  0  0
 29 30  1  0  0  0  0
 30 36  1  0  0  0  0
 31 30  1  0  0  0  0
 31 32  1  0  0  0  0
 33 31  2  0  0  0  0
 34 33  1  0  0  0  0
 34 29  2  0  0  0  0
 35 34  1  0  0  0  0
M  END
>  <minimizedAffinity>
-5.45742321

$$$$
