
 OpenBabel03272507523D

 35 38  0  0  0  0  0  0  0  0999 V2000
   36.9280   31.4810   48.7690 N   0  0  0  0  0  0  0  0  0  0  0  0
   37.3450   32.4370   49.5900 C   0  0  0  0  0  0  0  0  0  0  0  0
   38.3970   33.2690   49.2020 C   0  0  0  0  0  0  0  0  0  0  0  0
   38.9160   33.0070   47.9650 C   0  0  0  0  0  0  0  0  0  0  0  0
   39.8710   33.7830   47.6470 O   0  0  0  0  0  0  0  0  0  0  0  0
   38.5280   32.0630   47.1180 N   0  0  0  0  0  0  0  0  0  0  0  0
   37.5060   31.2860   47.5430 C   0  0  0  0  0  0  0  0  0  0  0  0
   37.1220   30.3770   46.7400 O   0  0  0  0  0  0  0  0  0  0  0  0
   36.8130   32.4910   50.5260 H   0  0  0  0  0  0  0  0  0  0  0  0
   38.7060   34.0230   49.8830 H   0  0  0  0  0  0  0  0  0  0  0  0
   40.2730   31.1790   45.5000 C   0  0  0  0  0  3  0  0  0  0  0  0
   39.1290   31.8580   45.8370 C   0  0  0  0  0  0  0  0  0  0  0  0
   38.3640   32.4760   44.8440 C   0  0  0  0  0  0  0  0  0  0  0  0
   37.4440   33.0400   44.9800 H   0  0  0  0  0  0  0  0  0  0  0  0
   38.7510   32.4130   43.5110 C   0  0  0  0  0  0  0  0  0  0  0  0
   38.2520   32.8860   42.3370 N   0  0  0  0  0  0  0  0  0  0  0  0
   39.0680   32.5080   41.3270 C   0  0  0  0  0  0  0  0  0  0  0  0
   38.8540   32.7820   40.2990 H   0  0  0  0  0  0  0  0  0  0  0  0
   40.0960   31.7850   41.8620 N   0  0  0  0  0  0  0  0  0  0  0  0
   39.9030   31.7290   43.1860 C   0  0  0  0  0  0  0  0  0  0  0  0
   40.6510   31.1210   44.1740 C   0  0  0  0  0  3  0  0  0  0  0  0
   37.3600   33.4590   42.2740 H   0  0  0  0  0  0  0  0  0  0  0  0
   35.8730   29.9920   50.3760 C   0  0  0  0  0  0  0  0  0  0  0  0
   35.8560   30.5820   49.0950 C   0  0  0  0  0  0  0  0  0  0  0  0
   34.8120   30.2670   48.2110 C   0  0  0  0  0  0  0  0  0  0  0  0
   33.8670   29.4030   48.6460 N   0  0  0  0  0  0  0  0  0  0  0  0
   33.8810   28.8480   49.8460 C   0  0  0  0  0  0  0  0  0  0  0  0
   34.8770   29.1420   50.7030 N   0  0  0  0  0  0  0  0  0  0  0  0
   34.8280   30.7340   47.2410 H   0  0  0  0  0  0  0  0  0  0  0  0
   33.1300   28.1560   50.2020 H   0  0  0  0  0  0  0  0  0  0  0  0
   37.9070   29.4320   51.9120 C   0  0  0  0  0  0  0  0  0  0  0  0
   38.1110   28.2630   51.5230 O   0  0  0  0  0  0  0  0  0  0  0  0
   36.8700   30.2520   51.3390 N   0  0  0  0  0  0  0  0  0  0  0  0
   38.5550   29.7810   52.6990 H   0  0  0  0  0  0  0  0  0  0  0  0
   36.9110   31.2290   51.7550 H   0  0  0  0  0  0  0  0  0  0  0  0
  1 24  1  0  0  0  0
  1  2  1  0  0  0  0
  2  9  1  0  0  0  0
  3  2  2  0  0  0  0
  3 10  1  0  0  0  0
  4  3  1  0  0  0  0
  5  4  2  0  0  0  0
  6  7  1  0  0  0  0
  6  4  1  0  0  0  0
  7  1  1  0  0  0  0
  8  7  2  0  0  0  0
 11 12  1  0  0  0  0
 12  6  1  0  0  0  0
 13 14  1  0  0  0  0
 13 12  2  0  0  0  0
 15 13  1  0  0  0  0
 16 15  1  0  0  0  0
 17 19  2  0  0  0  0
 17 16  1  0  0  0  0
 18 17  1  0  0  0  0
 19 20  1  0  0  0  0
 20 15  2  0  0  0  0
 20 21  1  0  0  0  0
 21 11  2  0  0  0  0
 22 16  1  0  0  0  0
 23 28  1  0  0  0  0
 23 33  1  0  0  0  0
 24 23  2  0  0  0  0
 25 26  2  0  0  0  0
 25 24  1  0  0  0  0
 26 27  1  0  0  0  0
 27 30  1  0  0  0  0
 27 28  2  0  0  0  0
 29 25  1  0  0  0  0
 31 34  1  0  0  0  0
 32 31  2  0  0  0  0
 33 35  1  0  0  0  0
 33 31  1  0  0  0  0
M  END
>  <minimizedAffinity>
-6.42630863

>  <minimizedRMSD>
1.89023769

$$$$
