
 OpenBabel03272506383D

 40 43  0  0  1  0  0  0  0  0999 V2000
   34.4840   29.4550   50.0800 O   0  0  0  0  0  0  0  0  0  0  0  0
   34.3050   29.5150   48.8500 C   0  0  0  0  0  0  0  0  0  0  0  0
   35.1180   30.3670   48.0040 C   0  0  2  0  0  0  0  0  0  0  0  0
   34.6370   29.9190   46.5880 C   0  0  0  0  0  0  0  0  0  0  0  0
   33.2460   29.4330   46.8360 C   0  0  0  0  0  0  0  0  0  0  0  0
   33.3050   28.7790   48.1340 N   0  0  0  0  0  0  0  0  0  0  0  0
   34.9350   31.4390   48.0070 H   0  0  0  0  0  0  0  0  0  0  0  0
   35.2830   29.0800   46.2880 H   0  0  0  0  0  0  0  0  0  0  0  0
   34.6840   30.7760   45.8880 H   0  0  0  0  0  0  0  0  0  0  0  0
   32.5070   30.2340   46.9220 H   0  0  0  0  0  0  0  0  0  0  0  0
   32.9170   28.6770   46.0920 H   0  0  0  0  0  0  0  0  0  0  0  0
   32.5130   27.6420   48.5690 C   0  0  0  0  0  0  0  0  0  0  0  0
   31.4450   27.9140   48.5610 H   0  0  0  0  0  0  0  0  0  0  0  0
   32.7810   27.4480   49.6290 H   0  0  0  0  0  0  0  0  0  0  0  0
   31.5690   25.7690   47.3410 C   0  0  0  0  0  3  0  0  0  0  0  0
   32.7270   26.4520   47.7150 C   0  0  0  0  0  0  0  0  0  0  0  0
   33.9730   26.0250   47.3020 C   0  0  0  0  0  0  0  0  0  0  0  0
   34.8460   26.5660   47.6030 H   0  0  0  0  0  0  0  0  0  0  0  0
   34.0610   24.9010   46.5050 C   0  0  0  0  0  0  0  0  0  0  0  0
   35.0970   24.2390   45.9470 N   0  0  0  0  0  0  0  0  0  0  0  0
   34.5880   23.1940   45.2590 C   0  0  0  0  0  0  0  0  0  0  0  0
   35.0990   22.4360   44.6810 H   0  0  0  0  0  0  0  0  0  0  0  0
   33.2380   23.1930   45.3820 N   0  0  0  0  0  0  0  0  0  0  0  0
   32.8830   24.2390   46.1480 C   0  0  0  0  0  0  0  0  0  0  0  0
   31.6320   24.6510   46.5510 C   0  0  0  0  0  3  0  0  0  0  0  0
   36.1080   24.4880   46.0280 H   0  0  0  0  0  0  0  0  0  0  0  0
   36.5170   30.0610   48.0490 O   0  0  0  0  0  0  0  0  0  0  0  0
   37.4010   31.1310   48.1720 C   0  0  0  0  0  0  0  0  0  0  0  0
   37.5660   31.6490   49.4440 C   0  0  0  0  0  0  0  0  0  0  0  0
   38.4410   32.7180   49.6020 C   0  0  0  0  0  0  0  0  0  0  0  0
   39.0880   33.2050   48.5180 N   0  0  0  0  0  0  0  0  0  0  0  0
   38.9150   32.6870   47.2810 C   0  0  0  0  0  0  0  0  0  0  0  0
   38.0800   31.6680   47.1360 N   0  0  0  0  0  0  0  0  0  0  0  0
   40.4380   32.2600   45.5180 C   0  0  0  0  0  0  0  0  0  0  0  0
   40.6090   31.0440   45.8230 O   0  0  0  0  0  0  0  0  0  0  0  0
   39.6100   33.2240   46.1610 N   0  0  0  0  0  0  0  0  0  0  0  0
   37.0330   31.2340   50.2840 H   0  0  0  0  0  0  0  0  0  0  0  0
   38.5650   33.1130   50.5830 H   0  0  0  0  0  0  0  0  0  0  0  0
   41.0310   32.5240   44.6450 H   0  0  0  0  0  0  0  0  0  0  0  0
   39.5380   34.2070   45.8300 H   0  0  0  0  0  0  0  0  0  0  0  0
  2  1  2  0  0  0  0
  3  7  1  1  0  0  0
  3 27  1  0  0  0  0
  3  2  1  0  0  0  0
  4  5  1  0  0  0  0
  4  3  1  0  0  0  0
  5 10  1  0  0  0  0
  5  6  1  0  0  0  0
  6 12  1  0  0  0  0
  6  2  1  0  0  0  0
  8  4  1  0  0  0  0
  9  4  1  0  0  0  0
 11  5  1  0  0  0  0
 12 14  1  0  0  0  0
 13 12  1  0  0  0  0
 15 16  1  0  0  0  0
 16 12  1  0  0  0  0
 17 18  1  0  0  0  0
 17 16  2  0  0  0  0
 19 17  1  0  0  0  0
 20 26  1  0  0  0  0
 20 19  1  0  0  0  0
 21 23  2  0  0  0  0
 21 20  1  0  0  0  0
 22 21  1  0  0  0  0
 23 24  1  0  0  0  0
 24 19  2  0  0  0  0
 24 25  1  0  0  0  0
 25 15  2  0  0  0  0
 27 28  1  0  0  0  0
 28 29  1  0  0  0  0
 29 30  2  0  0  0  0
 29 37  1  0  0  0  0
 30 38  1  0  0  0  0
 31 30  1  0  0  0  0
 32 31  2  0  0  0  0
 33 32  1  0  0  0  0
 33 28  2  0  0  0  0
 34 35  2  0  0  0  0
 34 36  1  0  0  0  0
 36 32  1  0  0  0  0
 39 34  1  0  0  0  0
 40 36  1  0  0  0  0
M  END
>  <minimizedAffinity>
-5.90595675

>  <minimizedRMSD>
1.84232533

$$$$
