
 OpenBabel03272509583D

 49 53  0  0  0  0  0  0  0  0999 V2000
   33.2210   27.8950   47.6250 C   0  0  0  0  0  0  0  0  0  0  0  0
   33.4120   27.9500   46.5160 H   0  0  0  0  0  0  0  0  0  0  0  0
   33.5580   26.9050   47.9360 H   0  0  0  0  0  0  0  0  0  0  0  0
   31.7540   28.0050   47.8380 C   0  0  0  0  0  0  0  0  0  0  0  0
   31.2210   27.4530   48.9910 C   0  0  0  0  0  0  0  0  0  0  0  0
   29.8740   27.5110   49.2630 C   0  0  0  0  0  0  0  0  0  0  0  0
   29.0570   28.1150   48.4000 N   0  0  0  0  0  0  0  0  0  0  0  0
   29.5900   28.6560   47.2670 C   0  0  0  0  0  0  0  0  0  0  0  0
   30.9040   28.6080   46.9860 N   0  0  0  0  0  0  0  0  0  0  0  0
   31.8800   26.9610   49.6950 H   0  0  0  0  0  0  0  0  0  0  0  0
   29.4240   27.0920   50.1530 H   0  0  0  0  0  0  0  0  0  0  0  0
   28.6570   29.3250   46.3170 C   0  0  0  0  0  0  0  0  0  0  0  0
   29.2690   30.0240   45.7080 H   0  0  0  0  0  0  0  0  0  0  0  0
   27.8900   29.9240   46.8470 H   0  0  0  0  0  0  0  0  0  0  0  0
   28.6920   27.1860   44.9310 C   0  0  0  0  0  3  0  0  0  0  0  0
   28.0430   28.3240   45.4040 C   0  0  0  0  0  0  0  0  0  0  0  0
   26.7270   28.5380   44.9910 C   0  0  0  0  0  0  0  0  0  0  0  0
   26.2100   29.4330   45.3590 H   0  0  0  0  0  0  0  0  0  0  0  0
   26.0660   27.6760   44.1490 C   0  0  0  0  0  0  0  0  0  0  0  0
   24.8450   27.6420   43.6140 N   0  0  0  0  0  0  0  0  0  0  0  0
   24.6730   26.5650   42.8370 C   0  0  0  0  0  0  0  0  0  0  0  0
   23.7480   26.3430   42.3030 H   0  0  0  0  0  0  0  0  0  0  0  0
   25.8450   25.8690   42.8740 N   0  0  0  0  0  0  0  0  0  0  0  0
   26.7090   26.5320   43.6710 C   0  0  0  0  0  0  0  0  0  0  0  0
   28.0090   26.3460   44.0950 C   0  0  0  0  0  3  0  0  0  0  0  0
   24.1500   28.4040   43.8210 H   0  0  0  0  0  0  0  0  0  0  0  0
   33.9930   28.9510   48.3650 C   0  0  0  0  0  0  0  0  0  0  0  0
   33.3790   29.7760   48.7520 H   0  0  0  0  0  0  0  0  0  0  0  0
   34.6980   29.4060   47.6400 H   0  0  0  0  0  0  0  0  0  0  0  0
   34.7980   28.3710   49.3810 O   0  0  0  0  0  0  0  0  0  0  0  0
   37.1310   30.0050   51.6010 C   0  0  0  0  0  0  0  0  0  0  0  0
   37.8970   30.7200   50.6560 C   0  0  0  0  0  0  0  0  0  0  0  0
   37.5700   30.6010   49.3190 C   0  0  0  0  0  0  0  0  0  0  0  0
   36.5120   29.7830   49.0300 N   0  0  0  0  0  0  0  0  0  0  0  0
   35.7920   29.1100   49.9300 C   0  0  0  0  0  0  0  0  0  0  0  0
   36.1140   29.2300   51.2280 N   0  0  0  0  0  0  0  0  0  0  0  0
   37.4140   30.1230   52.6360 H   0  0  0  0  0  0  0  0  0  0  0  0
   38.7230   31.3580   50.8800 H   0  0  0  0  0  0  0  0  0  0  0  0
   38.7840   33.2230   49.2840 F   0  0  0  0  0  0  0  0  0  0  0  0
   38.8140   32.4710   48.1840 C   0  0  0  0  0  0  0  0  0  0  0  0
   38.2440   31.2580   48.2220 C   0  0  0  0  0  0  0  0  0  0  0  0
   38.3310   30.5560   47.0210 C   0  0  0  0  0  0  0  0  0  0  0  0
   38.9410   31.0580   45.9070 C   0  0  0  0  0  0  0  0  0  0  0  0
   39.5100   32.3130   45.9230 C   0  0  0  0  0  0  0  0  0  0  0  0
   39.4370   33.0170   47.0880 C   0  0  0  0  0  0  0  0  0  0  0  0
   37.9170   29.5470   46.8820 H   0  0  0  0  0  0  0  0  0  0  0  0
   39.0110   30.5130   44.9680 H   0  0  0  0  0  0  0  0  0  0  0  0
   39.9980   32.7150   45.0340 H   0  0  0  0  0  0  0  0  0  0  0  0
   39.8810   34.0050   47.1170 H   0  0  0  0  0  0  0  0  0  0  0  0
  1  4  1  0  0  0  0
  1  3  1  0  0  0  0
  1 27  1  0  0  0  0
  2  1  1  0  0  0  0
  4  5  1  0  0  0  0
  5  6  2  0  0  0  0
  5 10  1  0  0  0  0
  6 11  1  0  0  0  0
  7  6  1  0  0  0  0
  8  7  2  0  0  0  0
  9  8  1  0  0  0  0
  9  4  2  0  0  0  0
 12 14  1  0  0  0  0
 12  8  1  0  0  0  0
 13 12  1  0  0  0  0
 15 16  1  0  0  0  0
 16 12  1  0  0  0  0
 17 18  1  0  0  0  0
 17 16  2  0  0  0  0
 19 17  1  0  0  0  0
 20 26  1  0  0  0  0
 20 19  1  0  0  0  0
 21 23  2  0  0  0  0
 21 20  1  0  0  0  0
 22 21  1  0  0  0  0
 23 24  1  0  0  0  0
 24 25  1  0  0  0  0
 24 19  2  0  0  0  0
 25 15  2  0  0  0  0
 27 28  1  0  0  0  0
 27 30  1  0  0  0  0
 29 27  1  0  0  0  0
 30 35  1  0  0  0  0
 31 37  1  0  0  0  0
 32 38  1  0  0  0  0
 32 31  2  0  0  0  0
 33 32  1  0  0  0  0
 34 33  2  0  0  0  0
 34 35  1  0  0  0  0
 35 36  2  0  0  0  0
 36 31  1  0  0  0  0
 40 41  1  0  0  0  0
 40 39  1  0  0  0  0
 41 33  1  0  0  0  0
 42 41  2  0  0  0  0
 43 44  2  0  0  0  0
 43 42  1  0  0  0  0
 44 45  1  0  0  0  0
 45 49  1  0  0  0  0
 45 40  2  0  0  0  0
 46 42  1  0  0  0  0
 47 43  1  0  0  0  0
 48 44  1  0  0  0  0
M  END
>  <minimizedAffinity>
-7.04825926

>  <minimizedRMSD>
0.98081392

$$$$
