
 OpenBabel03272509583D

 49 53  0  0  0  0  0  0  0  0999 V2000
   33.5180   27.6440   47.5620 C   0  0  0  0  0  0  0  0  0  0  0  0
   33.6760   27.4750   46.4600 H   0  0  0  0  0  0  0  0  0  0  0  0
   33.7760   26.7020   48.0470 H   0  0  0  0  0  0  0  0  0  0  0  0
   32.0740   27.9280   47.7740 C   0  0  0  0  0  0  0  0  0  0  0  0
   31.4930   27.4940   48.9540 C   0  0  0  0  0  0  0  0  0  0  0  0
   30.1640   27.7160   49.2270 C   0  0  0  0  0  0  0  0  0  0  0  0
   29.4110   28.3660   48.3390 N   0  0  0  0  0  0  0  0  0  0  0  0
   29.9920   28.7900   47.1790 C   0  0  0  0  0  0  0  0  0  0  0  0
   31.2900   28.5810   46.8970 N   0  0  0  0  0  0  0  0  0  0  0  0
   32.0980   26.9660   49.6790 H   0  0  0  0  0  0  0  0  0  0  0  0
   29.6770   27.3930   50.1380 H   0  0  0  0  0  0  0  0  0  0  0  0
   29.1320   29.5130   46.2010 C   0  0  0  0  0  0  0  0  0  0  0  0
   29.7820   30.2550   45.6920 H   0  0  0  0  0  0  0  0  0  0  0  0
   28.3160   30.0700   46.7040 H   0  0  0  0  0  0  0  0  0  0  0  0
   27.6520   27.5890   45.4260 C   0  0  0  0  0  3  0  0  0  0  0  0
   28.6080   28.5700   45.1760 C   0  0  0  0  0  0  0  0  0  0  0  0
   29.1050   28.6750   43.8770 C   0  0  0  0  0  0  0  0  0  0  0  0
   29.8580   29.4480   43.6730 H   0  0  0  0  0  0  0  0  0  0  0  0
   28.6890   27.8550   42.8560 C   0  0  0  0  0  0  0  0  0  0  0  0
   28.9910   27.7430   41.5620 N   0  0  0  0  0  0  0  0  0  0  0  0
   28.2970   26.7620   40.9730 C   0  0  0  0  0  0  0  0  0  0  0  0
   28.3910   26.5000   39.9180 H   0  0  0  0  0  0  0  0  0  0  0  0
   27.5060   26.2120   41.9390 N   0  0  0  0  0  0  0  0  0  0  0  0
   27.7310   26.8670   43.0970 C   0  0  0  0  0  0  0  0  0  0  0  0
   27.2570   26.7860   44.3900 C   0  0  0  0  0  3  0  0  0  0  0  0
   29.7010   28.3850   41.1210 H   0  0  0  0  0  0  0  0  0  0  0  0
   34.4050   28.7420   48.0790 C   0  0  0  0  0  0  0  0  0  0  0  0
   33.9300   29.7320   48.1110 H   0  0  0  0  0  0  0  0  0  0  0  0
   35.2560   28.8310   47.3730 H   0  0  0  0  0  0  0  0  0  0  0  0
   34.9710   28.3870   49.3310 O   0  0  0  0  0  0  0  0  0  0  0  0
   37.2870   30.1380   51.4790 C   0  0  0  0  0  0  0  0  0  0  0  0
   38.0320   30.8370   50.5060 C   0  0  0  0  0  0  0  0  0  0  0  0
   37.6980   30.6680   49.1750 C   0  0  0  0  0  0  0  0  0  0  0  0
   36.6540   29.8200   48.9210 N   0  0  0  0  0  0  0  0  0  0  0  0
   35.9550   29.1630   49.8480 C   0  0  0  0  0  0  0  0  0  0  0  0
   36.2840   29.3310   51.1390 N   0  0  0  0  0  0  0  0  0  0  0  0
   37.5760   30.2950   52.5070 H   0  0  0  0  0  0  0  0  0  0  0  0
   38.8470   31.4990   50.7020 H   0  0  0  0  0  0  0  0  0  0  0  0
   38.8830   33.3010   49.0540 F   0  0  0  0  0  0  0  0  0  0  0  0
   38.9070   32.5200   47.9740 C   0  0  0  0  0  0  0  0  0  0  0  0
   38.3510   31.3030   48.0530 C   0  0  0  0  0  0  0  0  0  0  0  0
   38.4300   30.5700   46.8690 C   0  0  0  0  0  0  0  0  0  0  0  0
   39.0210   31.0470   45.7340 C   0  0  0  0  0  0  0  0  0  0  0  0
   39.5760   32.3080   45.7100 C   0  0  0  0  0  0  0  0  0  0  0  0
   39.5100   33.0430   46.8560 C   0  0  0  0  0  0  0  0  0  0  0  0
   38.0250   29.5530   46.7630 H   0  0  0  0  0  0  0  0  0  0  0  0
   39.0840   30.4780   44.8090 H   0  0  0  0  0  0  0  0  0  0  0  0
   40.0470   32.6910   44.8040 H   0  0  0  0  0  0  0  0  0  0  0  0
   39.9430   34.0360   46.8530 H   0  0  0  0  0  0  0  0  0  0  0  0
  1  4  1  0  0  0  0
  1  3  1  0  0  0  0
  1 27  1  0  0  0  0
  2  1  1  0  0  0  0
  4  5  1  0  0  0  0
  5  6  2  0  0  0  0
  5 10  1  0  0  0  0
  6 11  1  0  0  0  0
  7  6  1  0  0  0  0
  8  7  2  0  0  0  0
  9  8  1  0  0  0  0
  9  4  2  0  0  0  0
 12 14  1  0  0  0  0
 12  8  1  0  0  0  0
 13 12  1  0  0  0  0
 16 15  1  0  0  0  0
 16 12  1  0  0  0  0
 17 16  2  0  0  0  0
 18 17  1  0  0  0  0
 19 24  2  0  0  0  0
 19 17  1  0  0  0  0
 20 19  1  0  0  0  0
 21 20  1  0  0  0  0
 21 23  2  0  0  0  0
 22 21  1  0  0  0  0
 23 24  1  0  0  0  0
 24 25  1  0  0  0  0
 25 15  2  0  0  0  0
 26 20  1  0  0  0  0
 27 28  1  0  0  0  0
 27 30  1  0  0  0  0
 29 27  1  0  0  0  0
 30 35  1  0  0  0  0
 31 37  1  0  0  0  0
 32 38  1  0  0  0  0
 32 31  2  0  0  0  0
 33 32  1  0  0  0  0
 34 33  2  0  0  0  0
 34 35  1  0  0  0  0
 35 36  2  0  0  0  0
 36 31  1  0  0  0  0
 40 41  1  0  0  0  0
 40 39  1  0  0  0  0
 41 33  1  0  0  0  0
 42 41  2  0  0  0  0
 43 42  1  0  0  0  0
 44 43  2  0  0  0  0
 44 45  1  0  0  0  0
 45 40  2  0  0  0  0
 46 42  1  0  0  0  0
 47 43  1  0  0  0  0
 48 44  1  0  0  0  0
 49 45  1  0  0  0  0
M  END
>  <minimizedAffinity>
-6.47348785

>  <minimizedRMSD>
0.2951231

$$$$
