
 OpenBabel03262521093D

 27 29  0  0  0  0  0  0  0  0999 V2000
   33.7210   28.3280   45.4700 O   0  0  0  0  0  0  0  0  0  0  0  0
   33.1810   27.9910   46.8480 P   0  0  1  0  0  0  0  0  0  0  0  0
   34.0630   26.6910   47.5190 O   0  0  0  0  0  0  0  0  0  0  0  0
   33.7630   26.5590   48.4390 H   0  0  0  0  0  0  0  0  0  0  0  0
   33.3630   29.2860   47.9530 O   0  0  0  0  0  0  0  0  0  0  0  0
   34.4060   29.3500   48.8620 C   0  0  0  0  0  0  0  0  0  0  0  0
   34.2600   29.2970   50.2570 C   0  0  0  0  0  0  0  0  0  0  0  0
   35.3950   29.3720   51.0460 C   0  0  0  0  0  0  0  0  0  0  0  0
   36.6140   29.4970   50.4290 N   0  0  0  0  0  0  0  0  0  0  0  0
   36.7180   29.5460   49.0620 C   0  0  0  0  0  0  0  0  0  0  0  0
   35.6160   29.4720   48.2930 N   0  0  0  0  0  0  0  0  0  0  0  0
   33.2690   29.1990   50.6190 H   0  0  0  0  0  0  0  0  0  0  0  0
   35.2900   29.3320   52.1080 H   0  0  0  0  0  0  0  0  0  0  0  0
   37.7000   29.6450   48.6020 H   0  0  0  0  0  0  0  0  0  0  0  0
   31.5580   27.5960   46.6620 O   0  0  0  0  0  0  0  0  0  0  0  0
   29.5600   28.8690   47.2690 C   0  0  0  0  0  3  0  0  0  0  0  0
   30.5190   27.9050   47.5040 C   0  0  0  0  0  0  0  0  0  0  0  0
   30.4950   27.1380   48.6730 C   0  0  0  0  0  0  0  0  0  0  0  0
   31.1980   26.3690   48.9370 H   0  0  0  0  0  0  0  0  0  0  0  0
   29.4770   27.3790   49.5890 C   0  0  0  0  0  0  0  0  0  0  0  0
   29.1550   26.8490   50.7800 N   0  0  0  0  0  0  0  0  0  0  0  0
   28.0480   27.4450   51.2790 C   0  0  0  0  0  0  0  0  0  0  0  0
   27.5020   27.2840   52.2040 H   0  0  0  0  0  0  0  0  0  0  0  0
   27.6540   28.3860   50.3750 N   0  0  0  0  0  0  0  0  0  0  0  0
   28.5300   28.3490   49.3330 C   0  0  0  0  0  0  0  0  0  0  0  0
   28.5280   29.1250   48.1790 C   0  0  0  0  0  3  0  0  0  0  0  0
   29.6680   26.0760   51.2880 H   0  0  0  0  0  0  0  0  0  0  0  0
  2  1  2  6  0  0  0
  2  3  1  0  0  0  0
  2  5  1  0  0  0  0
  3  4  1  0  0  0  0
  5  6  1  0  0  0  0
  6  7  1  0  0  0  0
  7 12  1  0  0  0  0
  7  8  2  0  0  0  0
  8 13  1  0  0  0  0
  9  8  1  0  0  0  0
 10  9  2  0  0  0  0
 11  6  2  0  0  0  0
 11 10  1  0  0  0  0
 14 10  1  0  0  0  0
 15  2  1  0  0  0  0
 15 17  1  0  0  0  0
 16 17  2  0  0  0  0
 16 26  1  0  0  0  0
 17 18  1  0  0  0  0
 18 19  1  0  0  0  0
 18 20  2  0  0  0  0
 20 21  1  0  0  0  0
 21 22  1  0  0  0  0
 21 27  1  0  0  0  0
 22 23  1  0  0  0  0
 24 22  2  0  0  0  0
 25 20  1  0  0  0  0
 25 24  1  0  0  0  0
 26 25  2  0  0  0  0
M  END
>  <minimizedAffinity>
-4.82359982

>  <minimizedRMSD>
3.02517462

$$$$
