
 OpenBabel03272504223D

 42 45  0  0  1  0  0  0  0  0999 V2000
   38.8720   32.4070   47.8600 C   0  0  2  0  0  0  0  0  0  0  0  0
   38.1940   31.3900   48.7630 C   0  0  1  0  0  0  0  0  0  0  0  0
   38.7030   31.9260   50.1120 C   0  0  0  0  0  0  0  0  0  0  0  0
   38.3790   33.2700   49.9940 O   0  0  0  0  0  0  0  0  0  0  0  0
   38.6820   33.6550   48.7100 C   0  0  0  0  0  0  0  0  0  0  0  0
   39.9410   32.1210   47.7940 H   0  0  0  0  0  0  0  0  0  0  0  0
   38.5120   30.3620   48.5930 H   0  0  0  0  0  0  0  0  0  0  0  0
   39.8030   31.8230   50.0980 H   0  0  0  0  0  0  0  0  0  0  0  0
   38.2090   31.4480   50.9580 H   0  0  0  0  0  0  0  0  0  0  0  0
   39.5780   34.2940   48.7190 H   0  0  0  0  0  0  0  0  0  0  0  0
   37.8280   34.2280   48.2530 H   0  0  0  0  0  0  0  0  0  0  0  0
   36.8390   31.6030   48.6590 O   0  0  0  0  0  0  0  0  0  0  0  0
   35.9350   29.8480   46.9610 O   0  0  0  0  0  0  0  0  0  0  0  0
   35.9790   30.1710   48.4240 P   0  0  1  0  0  0  0  0  0  0  0  0
   36.7630   28.8750   49.2310 O   0  0  0  0  0  0  0  0  0  0  0  0
   37.5360   28.5670   48.7050 H   0  0  0  0  0  0  0  0  0  0  0  0
   34.4030   30.3390   49.0480 O   0  0  0  0  0  0  0  0  0  0  0  0
   34.1380   29.2050   49.7890 C   0  0  0  0  0  0  0  0  0  0  0  0
   33.5780   29.5590   50.6970 H   0  0  0  0  0  0  0  0  0  0  0  0
   35.0680   28.7510   50.1720 H   0  0  0  0  0  0  0  0  0  0  0  0
   33.2770   28.2320   49.0820 C   0  0  0  0  0  0  0  0  0  0  0  0
   33.9060   27.3400   48.2470 C   0  0  0  0  0  0  0  0  0  0  0  0
   33.1480   26.3970   47.5500 C   0  0  0  0  0  0  0  0  0  0  0  0
   31.7990   26.4200   47.7460 N   0  0  0  0  0  0  0  0  0  0  0  0
   31.2030   27.3070   48.5720 C   0  0  0  0  0  0  0  0  0  0  0  0
   31.9410   28.2170   49.2430 N   0  0  0  0  0  0  0  0  0  0  0  0
   34.9510   27.2450   48.0290 H   0  0  0  0  0  0  0  0  0  0  0  0
   33.5510   25.6550   46.8720 H   0  0  0  0  0  0  0  0  0  0  0  0
   30.1240   27.3020   48.7080 H   0  0  0  0  0  0  0  0  0  0  0  0
   38.1950   32.4340   46.6690 O   0  0  0  0  0  0  0  0  0  0  0  0
   39.8880   31.5620   45.3510 C   0  0  0  0  0  3  0  0  0  0  0  0
   38.6580   32.2090   45.3950 C   0  0  0  0  0  0  0  0  0  0  0  0
   38.0580   32.5440   44.1890 C   0  0  0  0  0  0  0  0  0  0  0  0
   37.1030   33.0440   44.3090 H   0  0  0  0  0  0  0  0  0  0  0  0
   38.6760   32.2360   42.9900 C   0  0  0  0  0  0  0  0  0  0  0  0
   38.2530   32.4780   41.7340 N   0  0  0  0  0  0  0  0  0  0  0  0
   39.2190   31.9810   40.9400 C   0  0  0  0  0  0  0  0  0  0  0  0
   39.1330   32.0430   39.8480 H   0  0  0  0  0  0  0  0  0  0  0  0
   40.2050   31.4500   41.6860 N   0  0  0  0  0  0  0  0  0  0  0  0
   39.8980   31.5930   43.0020 C   0  0  0  0  0  0  0  0  0  0  0  0
   40.5290   31.2420   44.1720 C   0  0  0  0  0  3  0  0  0  0  0  0
   37.3710   32.9470   41.4400 H   0  0  0  0  0  0  0  0  0  0  0  0
  1  6  1  6  0  0  0
  1  5  1  0  0  0  0
  1  2  1  0  0  0  0
  2  7  1  6  0  0  0
  2  3  1  0  0  0  0
  3  9  1  0  0  0  0
  4  3  1  0  0  0  0
  5 10  1  0  0  0  0
  5  4  1  0  0  0  0
  8  3  1  0  0  0  0
 11  5  1  0  0  0  0
 12  2  1  0  0  0  0
 14 13  2  6  0  0  0
 14 12  1  0  0  0  0
 14 17  1  0  0  0  0
 14 15  1  0  0  0  0
 16 15  1  0  0  0  0
 17 18  1  0  0  0  0
 18 20  1  0  0  0  0
 18 19  1  0  0  0  0
 21 26  1  0  0  0  0
 21 18  1  0  0  0  0
 22 21  2  0  0  0  0
 23 24  2  0  0  0  0
 23 22  1  0  0  0  0
 24 25  1  0  0  0  0
 25 29  1  0  0  0  0
 25 26  2  0  0  0  0
 27 22  1  0  0  0  0
 28 23  1  0  0  0  0
 30  1  1  0  0  0  0
 31 32  1  0  0  0  0
 32 30  1  0  0  0  0
 33 34  1  0  0  0  0
 33 32  2  0  0  0  0
 35 40  2  0  0  0  0
 35 33  1  0  0  0  0
 36 35  1  0  0  0  0
 37 39  2  0  0  0  0
 37 36  1  0  0  0  0
 38 37  1  0  0  0  0
 39 40  1  0  0  0  0
 40 41  1  0  0  0  0
 41 31  2  0  0  0  0
 42 36  1  0  0  0  0
M  END
>  <minimizedAffinity>
-5.27565861

>  <minimizedRMSD>
0.250761539

$$$$
