
 OpenBabel03272502183D

 36 39  0  0  1  0  0  0  0  0999 V2000
   37.3220   30.4440   49.0600 C   0  0  0  0  0  0  0  0  0  0  0  0
   37.6850   31.4180   50.0090 C   0  0  0  0  0  0  0  0  0  0  0  0
   38.4920   32.4720   49.5620 C   0  0  0  0  0  0  0  0  0  0  0  0
   38.8710   32.4860   48.2460 N   0  0  0  0  0  0  0  0  0  0  0  0
   38.4970   31.5330   47.3820 C   0  0  0  0  0  0  0  0  0  0  0  0
   37.7300   30.5230   47.7880 N   0  0  0  0  0  0  0  0  0  0  0  0
   37.4080   31.4360   51.0400 H   0  0  0  0  0  0  0  0  0  0  0  0
   38.8090   33.2530   50.2320 H   0  0  0  0  0  0  0  0  0  0  0  0
   40.1610   31.0790   45.6150 C   0  0  0  0  0  3  0  0  0  0  0  0
   38.9370   31.6090   45.9930 C   0  0  0  0  0  0  0  0  0  0  0  0
   38.1870   32.1960   44.9950 C   0  0  0  0  0  0  0  0  0  0  0  0
   37.2220   32.6070   45.3240 H   0  0  0  0  0  0  0  0  0  0  0  0
   38.6210   32.2620   43.6710 C   0  0  0  0  0  0  0  0  0  0  0  0
   38.0240   32.7940   42.5710 N   0  0  0  0  0  0  0  0  0  0  0  0
   38.9100   32.5670   41.5600 C   0  0  0  0  0  0  0  0  0  0  0  0
   38.7860   32.8490   40.5270 H   0  0  0  0  0  0  0  0  0  0  0  0
   40.0070   31.9240   42.0100 N   0  0  0  0  0  0  0  0  0  0  0  0
   39.8470   31.7200   43.3430 C   0  0  0  0  0  0  0  0  0  0  0  0
   40.6150   31.1280   44.3190 C   0  0  0  0  0  3  0  0  0  0  0  0
   37.1070   33.2630   42.5160 H   0  0  0  0  0  0  0  0  0  0  0  0
   36.3000   29.1710   49.7670 S   0  0  0  0  0  0  0  0  0  0  0  0
   33.8400   28.2110   49.2110 N   0  0  0  0  0  0  0  0  0  0  0  0
   34.5310   29.4670   49.3990 C   0  0  2  0  0  0  0  0  0  0  0  0
   34.4270   30.2670   48.1300 C   0  0  0  0  0  0  0  0  0  0  0  0
   33.3890   29.7750   47.3100 O   0  0  0  0  0  0  0  0  0  0  0  0
   33.8640   28.5280   46.8520 C   0  0  0  0  0  0  0  0  0  0  0  0
   34.3080   27.6280   47.9700 C   0  0  2  0  0  0  0  0  0  0  0  0
   32.8240   28.3530   49.2510 H   0  0  0  0  0  0  0  0  0  0  0  0
   34.0450   29.9890   50.2740 H   0  0  0  0  0  0  0  0  0  0  0  0
   35.3690   30.2850   47.5410 H   0  0  0  0  0  0  0  0  0  0  0  0
   34.1180   31.2970   48.4020 H   0  0  0  0  0  0  0  0  0  0  0  0
   32.9670   28.0650   46.3650 H   0  0  0  0  0  0  0  0  0  0  0  0
   34.6210   28.6280   46.0520 H   0  0  0  0  0  0  0  0  0  0  0  0
   35.4010   27.5450   48.0420 H   0  0  0  0  0  0  0  0  0  0  0  0
   33.7010   26.3600   47.8580 O   0  0  0  0  0  0  0  0  0  0  0  0
   33.0990   26.3700   47.0880 H   0  0  0  0  0  0  0  0  0  0  0  0
  1 21  1  0  0  0  0
  1  2  1  0  0  0  0
  2  7  1  0  0  0  0
  3  2  2  0  0  0  0
  3  8  1  0  0  0  0
  4  3  1  0  0  0  0
  5  6  1  0  0  0  0
  5  4  2  0  0  0  0
  6  1  2  0  0  0  0
  9 10  1  0  0  0  0
 10  5  1  0  0  0  0
 11 12  1  0  0  0  0
 11 10  2  0  0  0  0
 13 11  1  0  0  0  0
 14 13  1  0  0  0  0
 15 17  2  0  0  0  0
 15 14  1  0  0  0  0
 16 15  1  0  0  0  0
 17 18  1  0  0  0  0
 18 13  2  0  0  0  0
 18 19  1  0  0  0  0
 19  9  2  0  0  0  0
 20 14  1  0  0  0  0
 22 28  1  0  0  0  0
 22 23  1  0  0  0  0
 23 21  1  0  0  0  0
 23 29  1  1  0  0  0
 24 31  1  0  0  0  0
 24 23  1  0  0  0  0
 25 24  1  0  0  0  0
 26 25  1  0  0  0  0
 26 27  1  0  0  0  0
 27 34  1  1  0  0  0
 27 22  1  0  0  0  0
 30 24  1  0  0  0  0
 32 26  1  0  0  0  0
 33 26  1  0  0  0  0
 35 27  1  0  0  0  0
 36 35  1  0  0  0  0
M  END
>  <minimizedAffinity>
-6.29050159

>  <minimizedRMSD>
1.23058772

$$$$
