
 OpenBabel03272508023D

 31 34  0  0  0  0  0  0  0  0999 V2000
   38.6470   30.5900   45.4440 C   0  0  0  0  0  0  0  0  0  0  0  0
   39.7870   31.3620   45.3600 C   0  0  0  0  0  0  0  0  0  0  0  0
   40.5080   31.0020   44.2160 C   0  0  0  0  0  0  0  0  0  0  0  0
   39.7600   30.0050   43.6480 N   0  0  0  0  0  0  0  0  0  0  0  0
   38.6800   29.7740   44.3690 N   0  0  0  0  0  0  0  0  0  0  0  0
   40.0400   32.1210   46.0910 H   0  0  0  0  0  0  0  0  0  0  0  0
   41.4280   31.4870   43.9720 H   0  0  0  0  0  0  0  0  0  0  0  0
   41.0360   30.0690   41.5400 C   0  0  0  0  0  3  0  0  0  0  0  0
   40.2370   29.4200   42.4490 C   0  0  0  0  0  0  0  0  0  0  0  0
   39.8220   28.1090   42.2620 C   0  0  0  0  0  0  0  0  0  0  0  0
   39.1970   27.5440   42.9340 H   0  0  0  0  0  0  0  0  0  0  0  0
   40.2120   27.3950   41.1230 C   0  0  0  0  0  0  0  0  0  0  0  0
   39.9790   26.1440   40.6700 N   0  0  0  0  0  0  0  0  0  0  0  0
   40.6330   26.0160   39.4840 C   0  0  0  0  0  0  0  0  0  0  0  0
   40.5860   25.0700   38.9250 H   0  0  0  0  0  0  0  0  0  0  0  0
   41.2620   27.1750   39.2060 N   0  0  0  0  0  0  0  0  0  0  0  0
   41.0220   28.0510   40.2030 C   0  0  0  0  0  0  0  0  0  0  0  0
   41.4130   29.3590   40.4280 C   0  0  0  0  0  3  0  0  0  0  0  0
   39.4030   25.4240   41.1520 H   0  0  0  0  0  0  0  0  0  0  0  0
   37.6140   30.6370   46.4790 C   0  0  0  0  0  0  0  0  0  0  0  0
   38.0120   31.1160   47.7670 C   0  0  0  0  0  0  0  0  0  0  0  0
   37.0180   31.1610   48.7600 C   0  0  0  0  0  0  0  0  0  0  0  0
   35.7670   30.7500   48.4320 N   0  0  0  0  0  0  0  0  0  0  0  0
   35.4330   30.3050   47.2040 C   0  0  0  0  0  0  0  0  0  0  0  0
   36.3700   30.2550   46.2440 N   0  0  0  0  0  0  0  0  0  0  0  0
   39.0350   31.4240   47.9390 H   0  0  0  0  0  0  0  0  0  0  0  0
   34.4110   29.9950   47.0250 H   0  0  0  0  0  0  0  0  0  0  0  0
   37.3880   31.6530   50.1120 C   0  0  0  0  0  0  0  0  0  0  0  0
   36.6930   32.8360   50.2860 F   0  0  0  0  0  0  0  0  0  0  0  0
   37.0240   30.7860   51.1150 F   0  0  0  0  0  0  0  0  0  0  0  0
   38.7470   31.9450   50.2020 F   0  0  0  0  0  0  0  0  0  0  0  0
  1 20  1  0  0  0  0
  2  1  1  0  0  0  0
  2  6  1  0  0  0  0
  3  2  2  0  0  0  0
  4  3  1  0  0  0  0
  4  5  1  0  0  0  0
  5  1  2  0  0  0  0
  7  3  1  0  0  0  0
  8  9  1  0  0  0  0
  9  4  1  0  0  0  0
 10  9  2  0  0  0  0
 10 11  1  0  0  0  0
 12 10  1  0  0  0  0
 13 12  1  0  0  0  0
 13 19  1  0  0  0  0
 14 13  1  0  0  0  0
 15 14  1  0  0  0  0
 16 14  2  0  0  0  0
 16 17  1  0  0  0  0
 17 18  1  0  0  0  0
 17 12  2  0  0  0  0
 18  8  2  0  0  0  0
 20 21  1  0  0  0  0
 21 26  1  0  0  0  0
 21 22  2  0  0  0  0
 22 28  1  0  0  0  0
 23 22  1  0  0  0  0
 24 23  2  0  0  0  0
 25 20  2  0  0  0  0
 25 24  1  0  0  0  0
 27 24  1  0  0  0  0
 28 31  1  0  0  0  0
 28 29  1  0  0  0  0
 28 30  1  0  0  0  0
M  END
>  <minimizedAffinity>
-6.36495352

>  <minimizedRMSD>
1.64474583

$$$$
