
 OpenBabel03272502393D

 43 47  0  0  1  0  0  0  0  0999 V2000
   35.6540   30.1950   47.0930 F   0  0  0  0  0  0  0  0  0  0  0  0
   35.8880   29.9150   48.3900 C   0  0  0  0  0  0  0  0  0  0  0  0
   35.0840   29.2060   49.2440 C   0  0  0  0  0  0  0  0  0  0  0  0
   35.5210   29.0030   50.5650 C   0  0  0  0  0  0  0  0  0  0  0  0
   36.7260   29.4990   51.0130 C   0  0  0  0  0  0  0  0  0  0  0  0
   37.5220   30.2140   50.1300 C   0  0  0  0  0  0  0  0  0  0  0  0
   37.1000   30.4240   48.8040 C   0  0  0  0  0  0  0  0  0  0  0  0
   34.8110   28.4320   51.1440 H   0  0  0  0  0  0  0  0  0  0  0  0
   36.9840   29.3000   52.0430 H   0  0  0  0  0  0  0  0  0  0  0  0
   38.4610   30.5880   50.5170 H   0  0  0  0  0  0  0  0  0  0  0  0
   31.8080   27.7250   48.8410 N   0  0  0  0  0  0  0  0  0  0  0  0
   32.5580   26.8200   47.9830 C   0  0  0  0  0  0  0  0  0  0  0  0
   33.9290   27.4310   47.9580 C   0  0  0  0  0  0  0  0  0  0  0  0
   33.7700   28.8210   48.7120 C   0  0  1  0  0  0  0  0  0  0  0  0
   32.7610   28.4480   49.7090 C   0  0  0  0  0  0  0  0  0  0  0  0
   32.6170   25.8350   48.5150 H   0  0  0  0  0  0  0  0  0  0  0  0
   32.0890   26.6870   46.9970 H   0  0  0  0  0  0  0  0  0  0  0  0
   34.3320   27.6650   46.9760 H   0  0  0  0  0  0  0  0  0  0  0  0
   34.6810   26.8450   48.5090 H   0  0  0  0  0  0  0  0  0  0  0  0
   33.4610   29.4390   47.8720 H   0  0  0  0  0  0  0  0  0  0  0  0
   32.2500   29.2810   50.2080 H   0  0  0  0  0  0  0  0  0  0  0  0
   33.1410   27.6830   50.4110 H   0  0  0  0  0  0  0  0  0  0  0  0
   30.4110   27.9180   48.8680 C   0  0  0  0  0  0  0  0  0  0  0  0
   29.8050   28.1470   47.6220 C   0  0  0  0  0  0  0  0  0  0  0  0
   28.4180   28.3590   47.5750 C   0  0  0  0  0  0  0  0  0  0  0  0
   27.7480   28.3250   48.7830 N   0  0  0  0  0  0  0  0  0  0  0  0
   28.3670   28.1010   49.9540 C   0  0  0  0  0  0  0  0  0  0  0  0
   29.7040   27.8990   49.9920 N   0  0  0  0  0  0  0  0  0  0  0  0
   30.3730   28.1620   46.7170 H   0  0  0  0  0  0  0  0  0  0  0  0
   27.9420   28.5340   46.6420 H   0  0  0  0  0  0  0  0  0  0  0  0
   27.8070   28.0830   50.8740 H   0  0  0  0  0  0  0  0  0  0  0  0
   38.5000   32.4530   48.3030 C   0  0  0  0  0  3  0  0  0  0  0  0
   38.0200   31.1870   47.9670 C   0  0  0  0  0  0  0  0  0  0  0  0
   38.4220   30.6080   46.7850 C   0  0  0  0  0  0  0  0  0  0  0  0
   38.0800   29.6210   46.4700 H   0  0  0  0  0  0  0  0  0  0  0  0
   39.2920   31.2780   45.9460 C   0  0  0  0  0  0  0  0  0  0  0  0
   39.8410   30.9520   44.7480 N   0  0  0  0  0  0  0  0  0  0  0  0
   40.6430   31.9720   44.3340 C   0  0  0  0  0  0  0  0  0  0  0  0
   41.2210   32.0090   43.4120 H   0  0  0  0  0  0  0  0  0  0  0  0
   40.6160   32.9660   45.2660 N   0  0  0  0  0  0  0  0  0  0  0  0
   39.7900   32.5360   46.2470 C   0  0  0  0  0  0  0  0  0  0  0  0
   39.3690   33.1000   47.4460 C   0  0  0  0  0  3  0  0  0  0  0  0
   39.6900   30.0570   44.1980 H   0  0  0  0  0  0  0  0  0  0  0  0
  1  2  1  0  0  0  0
  2  7  2  0  0  0  0
  2  3  1  0  0  0  0
  3  4  2  0  0  0  0
  4  5  1  0  0  0  0
  4  8  1  0  0  0  0
  5  9  1  0  0  0  0
  6 10  1  0  0  0  0
  6  5  2  0  0  0  0
  7  6  1  0  0  0  0
 11 23  1  0  0  0  0
 11 15  1  0  0  0  0
 12 16  1  0  0  0  0
 12 11  1  0  0  0  0
 13 12  1  0  0  0  0
 13 19  1  0  0  0  0
 13 14  1  0  0  0  0
 14 20  1  6  0  0  0
 14  3  1  0  0  0  0
 14 15  1  0  0  0  0
 15 21  1  0  0  0  0
 15 22  1  0  0  0  0
 17 12  1  0  0  0  0
 18 13  1  0  0  0  0
 23 28  1  0  0  0  0
 24 23  2  0  0  0  0
 25 24  1  0  0  0  0
 25 26  2  0  0  0  0
 26 27  1  0  0  0  0
 27 28  2  0  0  0  0
 27 31  1  0  0  0  0
 29 24  1  0  0  0  0
 30 25  1  0  0  0  0
 33 32  1  0  0  0  0
 33  7  1  0  0  0  0
 34 33  2  0  0  0  0
 35 34  1  0  0  0  0
 36 41  2  0  0  0  0
 36 34  1  0  0  0  0
 37 36  1  0  0  0  0
 38 37  1  0  0  0  0
 38 40  2  0  0  0  0
 39 38  1  0  0  0  0
 40 41  1  0  0  0  0
 41 42  1  0  0  0  0
 42 32  2  0  0  0  0
 43 37  1  0  0  0  0
M  END
>  <minimizedAffinity>
-7.8810668

>  <minimizedRMSD>
3.86473107

$$$$
