
 OpenBabel03262521093D

 27 29  0  0  0  0  0  0  0  0999 V2000
   35.8150   30.0790   46.1860 O   0  0  0  0  0  0  0  0  0  0  0  0
   34.4870   29.7850   46.8600 P   0  0  1  0  0  0  0  0  0  0  0  0
   34.3240   28.1050   47.1200 O   0  0  0  0  0  0  0  0  0  0  0  0
   33.5120   27.9520   47.6390 H   0  0  0  0  0  0  0  0  0  0  0  0
   34.3700   30.5020   48.4100 O   0  0  0  0  0  0  0  0  0  0  0  0
   35.3830   30.4140   49.3510 C   0  0  0  0  0  0  0  0  0  0  0  0
   35.4520   29.4490   50.3670 C   0  0  0  0  0  0  0  0  0  0  0  0
   36.5260   29.4820   51.2400 C   0  0  0  0  0  0  0  0  0  0  0  0
   37.4760   30.4580   51.0740 N   0  0  0  0  0  0  0  0  0  0  0  0
   37.3740   31.3850   50.0680 C   0  0  0  0  0  0  0  0  0  0  0  0
   36.3320   31.3550   49.2180 N   0  0  0  0  0  0  0  0  0  0  0  0
   34.6610   28.7450   50.3980 H   0  0  0  0  0  0  0  0  0  0  0  0
   36.5850   28.7500   52.0160 H   0  0  0  0  0  0  0  0  0  0  0  0
   38.1440   32.1470   49.9610 H   0  0  0  0  0  0  0  0  0  0  0  0
   33.2780   30.3660   45.8470 O   0  0  0  0  0  0  0  0  0  0  0  0
   31.3570   29.0810   46.6430 C   0  0  0  0  0  3  0  0  0  0  0  0
   31.9340   30.0930   45.9060 C   0  0  0  0  0  0  0  0  0  0  0  0
   31.1520   30.9540   45.1270 C   0  0  0  0  0  0  0  0  0  0  0  0
   31.5160   31.7650   44.5250 H   0  0  0  0  0  0  0  0  0  0  0  0
   29.7750   30.7560   45.1240 C   0  0  0  0  0  0  0  0  0  0  0  0
   28.7510   31.3720   44.5120 N   0  0  0  0  0  0  0  0  0  0  0  0
   27.5790   30.7820   44.8440 C   0  0  0  0  0  0  0  0  0  0  0  0
   26.5580   31.0020   44.5480 H   0  0  0  0  0  0  0  0  0  0  0  0
   27.8690   29.7580   45.6930 N   0  0  0  0  0  0  0  0  0  0  0  0
   29.2190   29.7370   45.8680 C   0  0  0  0  0  0  0  0  0  0  0  0
   29.9740   28.8680   46.6500 C   0  0  0  0  0  3  0  0  0  0  0  0
   28.8110   32.2020   43.8590 H   0  0  0  0  0  0  0  0  0  0  0  0
  2  1  2  6  0  0  0
  2  3  1  0  0  0  0
  2  5  1  0  0  0  0
  3  4  1  0  0  0  0
  5  6  1  0  0  0  0
  6  7  1  0  0  0  0
  7 12  1  0  0  0  0
  7  8  2  0  0  0  0
  8 13  1  0  0  0  0
  9  8  1  0  0  0  0
 10  9  2  0  0  0  0
 11  6  2  0  0  0  0
 11 10  1  0  0  0  0
 14 10  1  0  0  0  0
 15 17  1  0  0  0  0
 15  2  1  0  0  0  0
 16 26  1  0  0  0  0
 17 16  2  0  0  0  0
 18 17  1  0  0  0  0
 19 18  1  0  0  0  0
 20 18  2  0  0  0  0
 20 25  1  0  0  0  0
 21 22  1  0  0  0  0
 21 20  1  0  0  0  0
 22 24  2  0  0  0  0
 23 22  1  0  0  0  0
 24 25  1  0  0  0  0
 25 26  2  0  0  0  0
 27 21  1  0  0  0  0
M  END
>  <minimizedAffinity>
-4.1900239

>  <minimizedRMSD>
0.731737554

$$$$
