
 OpenBabel03272509573D

 49 53  0  0  0  0  0  0  0  0999 V2000
   33.3820   27.6640   47.5280 C   0  0  0  0  0  0  0  0  0  0  0  0
   33.5130   27.5630   46.4130 H   0  0  0  0  0  0  0  0  0  0  0  0
   33.6520   26.6950   47.9480 H   0  0  0  0  0  0  0  0  0  0  0  0
   31.9430   27.9300   47.7910 C   0  0  0  0  0  0  0  0  0  0  0  0
   31.4170   27.5180   49.0040 C   0  0  0  0  0  0  0  0  0  0  0  0
   30.0960   27.7260   49.3250 C   0  0  0  0  0  0  0  0  0  0  0  0
   29.2970   28.3390   48.4520 N   0  0  0  0  0  0  0  0  0  0  0  0
   29.8230   28.7410   47.2590 C   0  0  0  0  0  0  0  0  0  0  0  0
   31.1120   28.5460   46.9300 N   0  0  0  0  0  0  0  0  0  0  0  0
   32.0600   27.0200   49.7170 H   0  0  0  0  0  0  0  0  0  0  0  0
   29.6520   27.4190   50.2640 H   0  0  0  0  0  0  0  0  0  0  0  0
   28.9120   29.4240   46.2980 C   0  0  0  0  0  0  0  0  0  0  0  0
   29.5340   30.1430   45.7240 H   0  0  0  0  0  0  0  0  0  0  0  0
   28.1240   30.0040   46.8200 H   0  0  0  0  0  0  0  0  0  0  0  0
   28.3110   27.0630   45.5510 C   0  0  0  0  0  3  0  0  0  0  0  0
   28.3330   28.4400   45.3440 C   0  0  0  0  0  0  0  0  0  0  0  0
   27.7750   28.9260   44.1620 C   0  0  0  0  0  0  0  0  0  0  0  0
   27.7900   30.0110   43.9920 H   0  0  0  0  0  0  0  0  0  0  0  0
   27.2140   28.1040   43.2140 C   0  0  0  0  0  0  0  0  0  0  0  0
   26.6290   28.3000   42.0320 N   0  0  0  0  0  0  0  0  0  0  0  0
   26.2380   27.1480   41.4750 C   0  0  0  0  0  0  0  0  0  0  0  0
   25.7380   27.0800   40.5080 H   0  0  0  0  0  0  0  0  0  0  0  0
   26.5890   26.1570   42.3440 N   0  0  0  0  0  0  0  0  0  0  0  0
   27.1880   26.7220   43.4130 C   0  0  0  0  0  0  0  0  0  0  0  0
   27.7470   26.2690   44.5900 C   0  0  0  0  0  3  0  0  0  0  0  0
   26.5220   29.2730   41.6440 H   0  0  0  0  0  0  0  0  0  0  0  0
   34.2780   28.7320   48.0890 C   0  0  0  0  0  0  0  0  0  0  0  0
   33.8030   29.7170   48.1900 H   0  0  0  0  0  0  0  0  0  0  0  0
   35.1130   28.8650   47.3710 H   0  0  0  0  0  0  0  0  0  0  0  0
   34.8730   28.3050   49.3060 O   0  0  0  0  0  0  0  0  0  0  0  0
   37.1250   30.0110   51.5550 C   0  0  0  0  0  0  0  0  0  0  0  0
   37.8890   30.7380   50.6190 C   0  0  0  0  0  0  0  0  0  0  0  0
   37.5890   30.6010   49.2770 C   0  0  0  0  0  0  0  0  0  0  0  0
   36.5570   29.7560   48.9750 N   0  0  0  0  0  0  0  0  0  0  0  0
   35.8390   29.0720   49.8670 C   0  0  0  0  0  0  0  0  0  0  0  0
   36.1340   29.2080   51.1700 N   0  0  0  0  0  0  0  0  0  0  0  0
   37.3860   30.1420   52.5940 H   0  0  0  0  0  0  0  0  0  0  0  0
   38.6950   31.3980   50.8530 H   0  0  0  0  0  0  0  0  0  0  0  0
   38.7990   33.2260   49.2650 F   0  0  0  0  0  0  0  0  0  0  0  0
   38.8350   32.4830   48.1600 C   0  0  0  0  0  0  0  0  0  0  0  0
   38.2670   31.2680   48.1880 C   0  0  0  0  0  0  0  0  0  0  0  0
   38.3610   30.5760   46.9810 C   0  0  0  0  0  0  0  0  0  0  0  0
   38.9740   31.0860   45.8740 C   0  0  0  0  0  0  0  0  0  0  0  0
   39.5400   32.3420   45.9020 C   0  0  0  0  0  0  0  0  0  0  0  0
   39.4610   33.0380   47.0710 C   0  0  0  0  0  0  0  0  0  0  0  0
   37.9490   29.5670   46.8340 H   0  0  0  0  0  0  0  0  0  0  0  0
   39.0490   30.5480   44.9310 H   0  0  0  0  0  0  0  0  0  0  0  0
   40.0310   32.7510   45.0170 H   0  0  0  0  0  0  0  0  0  0  0  0
   39.9020   34.0260   47.1090 H   0  0  0  0  0  0  0  0  0  0  0  0
  1  4  1  0  0  0  0
  1  3  1  0  0  0  0
  1 27  1  0  0  0  0
  2  1  1  0  0  0  0
  4  5  1  0  0  0  0
  5  6  2  0  0  0  0
  5 10  1  0  0  0  0
  6 11  1  0  0  0  0
  7  6  1  0  0  0  0
  8  7  2  0  0  0  0
  9  8  1  0  0  0  0
  9  4  2  0  0  0  0
 12 14  1  0  0  0  0
 12  8  1  0  0  0  0
 13 12  1  0  0  0  0
 16 15  1  0  0  0  0
 16 12  1  0  0  0  0
 17 16  2  0  0  0  0
 18 17  1  0  0  0  0
 19 24  2  0  0  0  0
 19 17  1  0  0  0  0
 20 19  1  0  0  0  0
 21 20  1  0  0  0  0
 21 23  2  0  0  0  0
 22 21  1  0  0  0  0
 23 24  1  0  0  0  0
 24 25  1  0  0  0  0
 25 15  2  0  0  0  0
 26 20  1  0  0  0  0
 27 28  1  0  0  0  0
 27 30  1  0  0  0  0
 29 27  1  0  0  0  0
 30 35  1  0  0  0  0
 31 37  1  0  0  0  0
 32 38  1  0  0  0  0
 32 31  2  0  0  0  0
 33 32  1  0  0  0  0
 34 33  2  0  0  0  0
 34 35  1  0  0  0  0
 35 36  2  0  0  0  0
 36 31  1  0  0  0  0
 40 41  1  0  0  0  0
 40 39  1  0  0  0  0
 41 33  1  0  0  0  0
 42 41  2  0  0  0  0
 43 44  2  0  0  0  0
 43 42  1  0  0  0  0
 44 45  1  0  0  0  0
 45 49  1  0  0  0  0
 45 40  2  0  0  0  0
 46 42  1  0  0  0  0
 47 43  1  0  0  0  0
 48 44  1  0  0  0  0
M  END
>  <minimizedAffinity>
-6.67268181

>  <minimizedRMSD>
0.690658987

$$$$
