
 OpenBabel03262521473D

 33 35  0  0  0  0  0  0  0  0999 V2000
   34.7490   30.6090   49.2430 O   0  0  0  0  0  0  0  0  0  0  0  0
   34.5540   29.4180   50.1650 P   0  0  2  0  0  0  0  0  0  0  0  0
   33.0370   29.6110   50.8670 O   0  0  0  0  0  0  0  0  0  0  0  0
   33.1520   29.4150   51.8290 H   0  0  0  0  0  0  0  0  0  0  0  0
   35.7770   29.4670   51.3460 O   0  0  0  0  0  0  0  0  0  0  0  0
   37.0390   29.2610   50.7760 C   0  0  0  0  0  0  0  0  0  0  0  0
   36.8770   29.0030   49.7240 H   0  0  0  0  0  0  0  0  0  0  0  0
   37.5220   28.3830   51.2520 H   0  0  0  0  0  0  0  0  0  0  0  0
   37.8080   30.5340   50.8950 C   0  0  0  0  0  0  0  0  0  0  0  0
   37.3460   31.2880   51.5800 H   0  0  0  0  0  0  0  0  0  0  0  0
   38.7930   30.2630   51.3730 H   0  0  0  0  0  0  0  0  0  0  0  0
   38.1370   31.1860   49.6270 C   0  0  0  0  0  0  0  0  0  0  0  0
   38.5730   32.4950   49.5500 C   0  0  0  0  0  0  0  0  0  0  0  0
   38.8610   33.0160   48.2710 C   0  0  0  0  0  0  0  0  0  0  0  0
   38.6940   32.2040   47.1810 N   0  0  0  0  0  0  0  0  0  0  0  0
   38.2590   30.9150   47.3150 C   0  0  0  0  0  0  0  0  0  0  0  0
   37.9830   30.4170   48.5450 N   0  0  0  0  0  0  0  0  0  0  0  0
   38.6760   33.0630   50.4650 H   0  0  0  0  0  0  0  0  0  0  0  0
   39.2000   34.0290   48.1970 H   0  0  0  0  0  0  0  0  0  0  0  0
   38.1500   30.3320   46.4100 H   0  0  0  0  0  0  0  0  0  0  0  0
   34.5920   27.9760   49.3240 O   0  0  0  0  0  0  0  0  0  0  0  0
   33.7500   26.4030   47.5850 C   0  0  0  0  0  3  0  0  0  0  0  0
   33.9050   27.6250   48.1900 C   0  0  0  0  0  0  0  0  0  0  0  0
   33.2880   28.7410   47.6110 C   0  0  0  0  0  0  0  0  0  0  0  0
   33.3290   29.7710   47.9870 H   0  0  0  0  0  0  0  0  0  0  0  0
   32.5310   28.6170   46.4420 C   0  0  0  0  0  0  0  0  0  0  0  0
   31.8340   29.4610   45.6600 N   0  0  0  0  0  0  0  0  0  0  0  0
   31.2910   28.7540   44.6340 C   0  0  0  0  0  0  0  0  0  0  0  0
   30.6750   29.2050   43.8520 H   0  0  0  0  0  0  0  0  0  0  0  0
   31.6490   27.4450   44.7680 N   0  0  0  0  0  0  0  0  0  0  0  0
   32.4060   27.3640   45.8730 C   0  0  0  0  0  0  0  0  0  0  0  0
   33.0130   26.2550   46.4390 C   0  0  0  0  0  3  0  0  0  0  0  0
   31.7570   30.4700   45.8550 H   0  0  0  0  0  0  0  0  0  0  0  0
  2  1  2  6  0  0  0
  2  3  1  0  0  0  0
  2  5  1  0  0  0  0
  3  4  1  0  0  0  0
  6  9  1  0  0  0  0
  6  8  1  0  0  0  0
  6  5  1  0  0  0  0
  7  6  1  0  0  0  0
  9 11  1  0  0  0  0
  9 10  1  0  0  0  0
 12  9  1  0  0  0  0
 13 12  1  0  0  0  0
 13 18  1  0  0  0  0
 14 13  2  0  0  0  0
 15 16  2  0  0  0  0
 15 14  1  0  0  0  0
 16 17  1  0  0  0  0
 17 12  2  0  0  0  0
 19 14  1  0  0  0  0
 20 16  1  0  0  0  0
 21  2  1  0  0  0  0
 22 23  1  0  0  0  0
 23 21  1  0  0  0  0
 24 25  1  0  0  0  0
 24 23  2  0  0  0  0
 26 24  1  0  0  0  0
 27 33  1  0  0  0  0
 27 26  1  0  0  0  0
 28 30  2  0  0  0  0
 28 27  1  0  0  0  0
 29 28  1  0  0  0  0
 30 31  1  0  0  0  0
 31 32  1  0  0  0  0
 31 26  2  0  0  0  0
 32 22  2  0  0  0  0
M  END
>  <minimizedAffinity>
-5.39722109

>  <minimizedRMSD>
1.0866369

$$$$
