
 OpenBabel03272509573D

 49 53  0  0  0  0  0  0  0  0999 V2000
   33.5250   27.5630   47.6450 C   0  0  0  0  0  0  0  0  0  0  0  0
   33.7430   27.3120   46.5680 H   0  0  0  0  0  0  0  0  0  0  0  0
   33.7320   26.6540   48.2100 H   0  0  0  0  0  0  0  0  0  0  0  0
   32.0780   27.8890   47.7500 C   0  0  0  0  0  0  0  0  0  0  0  0
   31.3850   27.4210   48.8540 C   0  0  0  0  0  0  0  0  0  0  0  0
   30.0450   27.6780   49.0250 C   0  0  0  0  0  0  0  0  0  0  0  0
   29.3920   28.3950   48.1100 N   0  0  0  0  0  0  0  0  0  0  0  0
   30.0830   28.8520   47.0260 C   0  0  0  0  0  0  0  0  0  0  0  0
   31.3930   28.6100   46.8430 N   0  0  0  0  0  0  0  0  0  0  0  0
   31.9090   26.8380   49.5990 H   0  0  0  0  0  0  0  0  0  0  0  0
   29.4720   27.3300   49.8750 H   0  0  0  0  0  0  0  0  0  0  0  0
   29.3320   29.6510   46.0170 C   0  0  0  0  0  0  0  0  0  0  0  0
   30.0760   29.9980   45.2680 H   0  0  0  0  0  0  0  0  0  0  0  0
   28.8660   30.5500   46.4680 H   0  0  0  0  0  0  0  0  0  0  0  0
   26.9530   28.9660   45.4160 C   0  0  0  0  0  3  0  0  0  0  0  0
   28.3310   28.7980   45.3210 C   0  0  0  0  0  0  0  0  0  0  0  0
   28.8020   27.7590   44.5200 C   0  0  0  0  0  0  0  0  0  0  0  0
   29.8890   27.6200   44.4410 H   0  0  0  0  0  0  0  0  0  0  0  0
   27.9650   26.9120   43.8350 C   0  0  0  0  0  0  0  0  0  0  0  0
   28.1450   25.8690   43.0230 N   0  0  0  0  0  0  0  0  0  0  0  0
   26.9820   25.3650   42.5970 C   0  0  0  0  0  0  0  0  0  0  0  0
   26.9000   24.5100   41.9250 H   0  0  0  0  0  0  0  0  0  0  0  0
   26.0000   26.1230   43.1640 N   0  0  0  0  0  0  0  0  0  0  0  0
   26.5810   27.0740   43.9240 C   0  0  0  0  0  0  0  0  0  0  0  0
   26.1410   28.1100   44.7230 C   0  0  0  0  0  3  0  0  0  0  0  0
   29.1160   25.5380   42.7880 H   0  0  0  0  0  0  0  0  0  0  0  0
   34.4050   28.6790   48.1340 C   0  0  0  0  0  0  0  0  0  0  0  0
   33.9240   29.6660   48.1440 H   0  0  0  0  0  0  0  0  0  0  0  0
   35.2540   28.7570   47.4250 H   0  0  0  0  0  0  0  0  0  0  0  0
   34.9760   28.3570   49.3940 O   0  0  0  0  0  0  0  0  0  0  0  0
   37.3050   30.1580   51.4860 C   0  0  0  0  0  0  0  0  0  0  0  0
   38.0390   30.8390   50.4920 C   0  0  0  0  0  0  0  0  0  0  0  0
   37.6930   30.6420   49.1690 C   0  0  0  0  0  0  0  0  0  0  0  0
   36.6510   29.7870   48.9400 N   0  0  0  0  0  0  0  0  0  0  0  0
   35.9610   29.1460   49.8870 C   0  0  0  0  0  0  0  0  0  0  0  0
   36.3010   29.3410   51.1710 N   0  0  0  0  0  0  0  0  0  0  0  0
   37.6010   30.3360   52.5080 H   0  0  0  0  0  0  0  0  0  0  0  0
   38.8530   31.5070   50.6680 H   0  0  0  0  0  0  0  0  0  0  0  0
   38.9270   33.2510   49.0030 F   0  0  0  0  0  0  0  0  0  0  0  0
   38.9130   32.4620   47.9290 C   0  0  0  0  0  0  0  0  0  0  0  0
   38.3350   31.2560   48.0280 C   0  0  0  0  0  0  0  0  0  0  0  0
   38.3760   30.5140   46.8480 C   0  0  0  0  0  0  0  0  0  0  0  0
   38.9510   30.9720   45.6980 C   0  0  0  0  0  0  0  0  0  0  0  0
   39.5300   32.2210   45.6530 C   0  0  0  0  0  0  0  0  0  0  0  0
   39.5020   32.9650   46.7940 C   0  0  0  0  0  0  0  0  0  0  0  0
   37.9490   29.5040   46.7580 H   0  0  0  0  0  0  0  0  0  0  0  0
   38.9840   30.3940   44.7760 H   0  0  0  0  0  0  0  0  0  0  0  0
   39.9900   32.5880   44.7340 H   0  0  0  0  0  0  0  0  0  0  0  0
   39.9540   33.9490   46.7750 H   0  0  0  0  0  0  0  0  0  0  0  0
  1  4  1  0  0  0  0
  1 27  1  0  0  0  0
  1  3  1  0  0  0  0
  2  1  1  0  0  0  0
  4  5  1  0  0  0  0
  5  6  2  0  0  0  0
  5 10  1  0  0  0  0
  6 11  1  0  0  0  0
  7  6  1  0  0  0  0
  8  7  2  0  0  0  0
  9  8  1  0  0  0  0
  9  4  2  0  0  0  0
 12 14  1  0  0  0  0
 12  8  1  0  0  0  0
 13 12  1  0  0  0  0
 16 15  1  0  0  0  0
 16 12  1  0  0  0  0
 17 16  2  0  0  0  0
 18 17  1  0  0  0  0
 19 24  2  0  0  0  0
 19 17  1  0  0  0  0
 20 19  1  0  0  0  0
 21 20  1  0  0  0  0
 21 23  2  0  0  0  0
 22 21  1  0  0  0  0
 23 24  1  0  0  0  0
 24 25  1  0  0  0  0
 25 15  2  0  0  0  0
 26 20  1  0  0  0  0
 27 28  1  0  0  0  0
 27 30  1  0  0  0  0
 29 27  1  0  0  0  0
 30 35  1  0  0  0  0
 31 37  1  0  0  0  0
 32 38  1  0  0  0  0
 32 31  2  0  0  0  0
 33 32  1  0  0  0  0
 34 33  2  0  0  0  0
 34 35  1  0  0  0  0
 35 36  2  0  0  0  0
 36 31  1  0  0  0  0
 40 41  1  0  0  0  0
 40 39  1  0  0  0  0
 41 33  1  0  0  0  0
 42 41  2  0  0  0  0
 43 42  1  0  0  0  0
 44 43  2  0  0  0  0
 44 45  1  0  0  0  0
 45 40  2  0  0  0  0
 46 42  1  0  0  0  0
 47 43  1  0  0  0  0
 48 44  1  0  0  0  0
 49 45  1  0  0  0  0
M  END
>  <minimizedAffinity>
-6.78814697

>  <minimizedRMSD>
0.84567225

$$$$
