
 OpenBabel03272509183D

 36 39  0  0  0  0  0  0  0  0999 V2000
   38.0850   31.3020   47.7750 C   0  0  0  0  0  0  0  0  0  0  0  0
   37.0870   31.3010   48.7310 C   0  0  0  0  0  0  0  0  0  0  0  0
   37.1240   32.4110   49.5920 C   0  0  0  0  0  0  0  0  0  0  0  0
   38.0950   33.4160   49.4690 C   0  0  0  0  0  0  0  0  0  0  0  0
   39.0670   33.3130   48.4540 C   0  0  0  0  0  0  0  0  0  0  0  0
   39.0460   32.2230   47.5960 C   0  0  0  0  0  0  0  0  0  0  0  0
   36.3800   32.4870   50.3660 H   0  0  0  0  0  0  0  0  0  0  0  0
   38.0840   34.2510   50.1540 H   0  0  0  0  0  0  0  0  0  0  0  0
   39.8090   34.1000   48.3780 H   0  0  0  0  0  0  0  0  0  0  0  0
   34.9660   30.3070   48.0470 C   0  0  0  0  0  0  0  0  0  0  0  0
   36.0990   30.2860   48.8610 C   0  0  0  0  0  0  0  0  0  0  0  0
   36.2110   29.2430   49.7890 C   0  0  0  0  0  0  0  0  0  0  0  0
   35.2230   28.3180   49.8460 N   0  0  0  0  0  0  0  0  0  0  0  0
   34.1340   28.3790   49.0310 C   0  0  0  0  0  0  0  0  0  0  0  0
   34.0120   29.3670   48.1410 N   0  0  0  0  0  0  0  0  0  0  0  0
   34.8550   31.1050   47.3200 H   0  0  0  0  0  0  0  0  0  0  0  0
   33.4000   27.5910   49.1550 H   0  0  0  0  0  0  0  0  0  0  0  0
   37.3960   29.1680   50.6820 C   0  0  0  0  0  0  0  0  0  0  0  0
   38.3420   29.3350   50.1040 H   0  0  0  0  0  0  0  0  0  0  0  0
   37.3210   30.0400   51.3770 H   0  0  0  0  0  0  0  0  0  0  0  0
   37.4010   28.2030   51.1950 H   0  0  0  0  0  0  0  0  0  0  0  0
   38.1330   30.2320   46.8660 O   0  0  0  0  0  0  0  0  0  0  0  0
   38.0240   29.2690   47.1680 H   0  0  0  0  0  0  0  0  0  0  0  0
   40.0250   32.1930   46.6320 O   0  0  0  0  0  0  0  0  0  0  0  0
   40.5720   31.1800   44.4110 C   0  0  0  0  0  3  0  0  0  0  0  0
   39.8710   31.9740   45.2930 C   0  0  0  0  0  0  0  0  0  0  0  0
   38.7940   32.7200   44.7990 C   0  0  0  0  0  0  0  0  0  0  0  0
   38.1470   33.3890   45.3590 H   0  0  0  0  0  0  0  0  0  0  0  0
   38.4310   32.6670   43.4470 C   0  0  0  0  0  0  0  0  0  0  0  0
   37.4830   33.2410   42.6860 N   0  0  0  0  0  0  0  0  0  0  0  0
   37.5880   32.8290   41.4130 C   0  0  0  0  0  0  0  0  0  0  0  0
   36.9540   33.1300   40.5840 H   0  0  0  0  0  0  0  0  0  0  0  0
   38.6370   31.9660   41.3680 N   0  0  0  0  0  0  0  0  0  0  0  0
   39.1670   31.8560   42.6090 C   0  0  0  0  0  0  0  0  0  0  0  0
   40.2310   31.1130   43.0750 C   0  0  0  0  0  3  0  0  0  0  0  0
   36.7630   33.9140   43.0400 H   0  0  0  0  0  0  0  0  0  0  0  0
  1  2  1  0  0  0  0
  2 11  1  0  0  0  0
  2  3  2  0  0  0  0
  3  7  1  0  0  0  0
  4  3  1  0  0  0  0
  4  8  1  0  0  0  0
  5  4  2  0  0  0  0
  6  1  2  0  0  0  0
  6  5  1  0  0  0  0
  9  5  1  0  0  0  0
 10 15  2  0  0  0  0
 10 11  1  0  0  0  0
 11 12  2  0  0  0  0
 12 13  1  0  0  0  0
 12 18  1  0  0  0  0
 14 17  1  0  0  0  0
 14 13  2  0  0  0  0
 15 14  1  0  0  0  0
 16 10  1  0  0  0  0
 18 21  1  0  0  0  0
 18 20  1  0  0  0  0
 19 18  1  0  0  0  0
 22 23  1  0  0  0  0
 22  1  1  0  0  0  0
 24  6  1  0  0  0  0
 25 26  1  0  0  0  0
 26 24  1  0  0  0  0
 27 26  2  0  0  0  0
 27 28  1  0  0  0  0
 29 27  1  0  0  0  0
 30 36  1  0  0  0  0
 30 29  1  0  0  0  0
 31 30  1  0  0  0  0
 32 31  1  0  0  0  0
 33 31  2  0  0  0  0
 33 34  1  0  0  0  0
 34 35  1  0  0  0  0
 34 29  2  0  0  0  0
 35 25  2  0  0  0  0
M  END
>  <minimizedAffinity>
-7.05229759

>  <minimizedRMSD>
2.81335139

$$$$
