
 OpenBabel03272509573D

 49 53  0  0  0  0  0  0  0  0999 V2000
   33.1250   28.0670   47.2740 C   0  0  0  0  0  0  0  0  0  0  0  0
   33.0970   28.3570   46.1860 H   0  0  0  0  0  0  0  0  0  0  0  0
   33.5960   27.0850   47.3080 H   0  0  0  0  0  0  0  0  0  0  0  0
   31.7210   27.9570   47.7500 C   0  0  0  0  0  0  0  0  0  0  0  0
   31.5080   27.7490   49.1030 C   0  0  0  0  0  0  0  0  0  0  0  0
   30.2400   27.6350   49.6230 C   0  0  0  0  0  0  0  0  0  0  0  0
   29.1860   27.7270   48.8110 N   0  0  0  0  0  0  0  0  0  0  0  0
   29.4060   27.9310   47.4800 C   0  0  0  0  0  0  0  0  0  0  0  0
   30.6380   28.0450   46.9550 N   0  0  0  0  0  0  0  0  0  0  0  0
   32.3580   27.6740   49.7670 H   0  0  0  0  0  0  0  0  0  0  0  0
   30.0350   27.4740   50.6740 H   0  0  0  0  0  0  0  0  0  0  0  0
   28.2140   28.0300   46.5920 C   0  0  0  0  0  0  0  0  0  0  0  0
   28.3660   28.9250   45.9520 H   0  0  0  0  0  0  0  0  0  0  0  0
   27.2810   28.1850   47.1710 H   0  0  0  0  0  0  0  0  0  0  0  0
   27.6630   26.8580   44.3960 C   0  0  0  0  0  3  0  0  0  0  0  0
   28.1250   26.8350   45.7100 C   0  0  0  0  0  0  0  0  0  0  0  0
   28.5290   25.6070   46.2320 C   0  0  0  0  0  0  0  0  0  0  0  0
   28.8940   25.5810   47.2670 H   0  0  0  0  0  0  0  0  0  0  0  0
   28.4880   24.4420   45.5040 C   0  0  0  0  0  0  0  0  0  0  0  0
   28.8050   23.1710   45.7520 N   0  0  0  0  0  0  0  0  0  0  0  0
   28.5790   22.3860   44.6910 C   0  0  0  0  0  0  0  0  0  0  0  0
   28.7690   21.3130   44.6780 H   0  0  0  0  0  0  0  0  0  0  0  0
   28.0900   23.1950   43.7080 N   0  0  0  0  0  0  0  0  0  0  0  0
   28.0270   24.4560   44.1860 C   0  0  0  0  0  0  0  0  0  0  0  0
   27.6330   25.6840   43.6950 C   0  0  0  0  0  3  0  0  0  0  0  0
   29.1830   22.8880   46.6930 H   0  0  0  0  0  0  0  0  0  0  0  0
   33.9320   29.0470   48.0800 C   0  0  0  0  0  0  0  0  0  0  0  0
   33.3350   29.7000   48.7320 H   0  0  0  0  0  0  0  0  0  0  0  0
   34.4420   29.7180   47.3580 H   0  0  0  0  0  0  0  0  0  0  0  0
   34.9640   28.3850   48.7950 O   0  0  0  0  0  0  0  0  0  0  0  0
   37.0620   30.0000   51.2520 C   0  0  0  0  0  0  0  0  0  0  0  0
   37.8820   30.7660   50.3970 C   0  0  0  0  0  0  0  0  0  0  0  0
   37.6680   30.6840   49.0340 C   0  0  0  0  0  0  0  0  0  0  0  0
   36.6610   29.8510   48.6320 N   0  0  0  0  0  0  0  0  0  0  0  0
   35.8890   29.1300   49.4480 C   0  0  0  0  0  0  0  0  0  0  0  0
   36.1010   29.2120   50.7710 N   0  0  0  0  0  0  0  0  0  0  0  0
   37.2560   30.0880   52.3100 H   0  0  0  0  0  0  0  0  0  0  0  0
   38.6690   31.4170   50.7080 H   0  0  0  0  0  0  0  0  0  0  0  0
   38.7700   33.3530   49.1680 F   0  0  0  0  0  0  0  0  0  0  0  0
   38.9310   32.6320   48.0590 C   0  0  0  0  0  0  0  0  0  0  0  0
   38.4110   31.3970   48.0190 C   0  0  0  0  0  0  0  0  0  0  0  0
   38.6370   30.7300   46.8150 C   0  0  0  0  0  0  0  0  0  0  0  0
   39.3240   31.2840   45.7730 C   0  0  0  0  0  0  0  0  0  0  0  0
   39.8350   32.5600   45.8690 C   0  0  0  0  0  0  0  0  0  0  0  0
   39.6270   33.2300   47.0370 C   0  0  0  0  0  0  0  0  0  0  0  0
   38.2790   29.7090   46.6170 H   0  0  0  0  0  0  0  0  0  0  0  0
   39.5010   30.7660   44.8330 H   0  0  0  0  0  0  0  0  0  0  0  0
   40.3840   33.0030   45.0370 H   0  0  0  0  0  0  0  0  0  0  0  0
   40.0240   34.2340   47.1290 H   0  0  0  0  0  0  0  0  0  0  0  0
  1  3  1  0  0  0  0
  1  4  1  0  0  0  0
  1 27  1  0  0  0  0
  2  1  1  0  0  0  0
  4  5  1  0  0  0  0
  5  6  2  0  0  0  0
  5 10  1  0  0  0  0
  6 11  1  0  0  0  0
  7  6  1  0  0  0  0
  8  7  2  0  0  0  0
  9  8  1  0  0  0  0
  9  4  2  0  0  0  0
 12 14  1  0  0  0  0
 12  8  1  0  0  0  0
 13 12  1  0  0  0  0
 15 16  1  0  0  0  0
 16 17  2  0  0  0  0
 16 12  1  0  0  0  0
 17 18  1  0  0  0  0
 19 20  1  0  0  0  0
 19 17  1  0  0  0  0
 20 26  1  0  0  0  0
 21 20  1  0  0  0  0
 22 21  1  0  0  0  0
 23 24  1  0  0  0  0
 23 21  2  0  0  0  0
 24 19  2  0  0  0  0
 25 24  1  0  0  0  0
 25 15  2  0  0  0  0
 27 28  1  0  0  0  0
 27 30  1  0  0  0  0
 29 27  1  0  0  0  0
 30 35  1  0  0  0  0
 31 37  1  0  0  0  0
 32 38  1  0  0  0  0
 32 31  2  0  0  0  0
 33 32  1  0  0  0  0
 34 33  2  0  0  0  0
 34 35  1  0  0  0  0
 35 36  2  0  0  0  0
 36 31  1  0  0  0  0
 40 39  1  0  0  0  0
 41 40  1  0  0  0  0
 41 33  1  0  0  0  0
 42 41  2  0  0  0  0
 43 44  2  0  0  0  0
 43 42  1  0  0  0  0
 44 45  1  0  0  0  0
 45 49  1  0  0  0  0
 45 40  2  0  0  0  0
 46 42  1  0  0  0  0
 47 43  1  0  0  0  0
 48 44  1  0  0  0  0
M  END
>  <minimizedAffinity>
-6.91492033

>  <minimizedRMSD>
1.52830243

$$$$
