
 OpenBabel03272508083D

 27 29  0  0  0  0  0  0  0  0999 V2000
   36.6600   31.7510   46.7960 O   0  0  0  0  0  0  0  0  0  0  0  0
   35.9680   30.4510   46.5070 P   0  0  2  0  0  0  0  0  0  0  0  0
   34.4280   30.7430   45.8820 O   0  0  0  0  0  0  0  0  0  0  0  0
   34.1630   30.0520   45.2270 H   0  0  0  0  0  0  0  0  0  0  0  0
   35.9060   29.3960   47.8120 O   0  0  0  0  0  0  0  0  0  0  0  0
   37.8790   30.0570   50.8840 C   0  0  0  0  0  0  0  0  0  0  0  0
   37.6470   29.9390   49.4990 C   0  0  0  0  0  0  0  0  0  0  0  0
   36.3650   29.5710   49.0690 C   0  0  0  0  0  0  0  0  0  0  0  0
   35.4130   29.3490   50.0210 N   0  0  0  0  0  0  0  0  0  0  0  0
   35.6760   29.4720   51.3320 C   0  0  0  0  0  0  0  0  0  0  0  0
   36.9030   29.8250   51.7640 N   0  0  0  0  0  0  0  0  0  0  0  0
   38.9160   30.3460   51.0370 H   0  0  0  0  0  0  0  0  0  0  0  0
   38.3190   30.0910   48.6870 H   0  0  0  0  0  0  0  0  0  0  0  0
   34.9360   29.3010   52.1090 H   0  0  0  0  0  0  0  0  0  0  0  0
   36.8790   29.7210   45.2480 O   0  0  0  0  0  0  0  0  0  0  0  0
   37.9000   29.6490   43.1830 C   0  0  0  0  0  3  0  0  0  0  0  0
   37.3410   30.4630   44.1550 C   0  0  0  0  0  0  0  0  0  0  0  0
   37.2810   31.8300   44.0030 C   0  0  0  0  0  0  0  0  0  0  0  0
   36.8230   32.3680   44.8250 H   0  0  0  0  0  0  0  0  0  0  0  0
   37.7990   32.3580   42.8400 C   0  0  0  0  0  0  0  0  0  0  0  0
   37.8560   33.6450   42.4610 N   0  0  0  0  0  0  0  0  0  0  0  0
   38.4510   33.6520   41.2490 C   0  0  0  0  0  0  0  0  0  0  0  0
   38.6250   34.5780   40.7060 H   0  0  0  0  0  0  0  0  0  0  0  0
   38.7460   32.3990   40.9030 N   0  0  0  0  0  0  0  0  0  0  0  0
   38.3550   31.5530   41.8700 C   0  0  0  0  0  0  0  0  0  0  0  0
   38.4200   30.1860   42.0160 C   0  0  0  0  0  3  0  0  0  0  0  0
   37.5080   34.4890   42.9980 H   0  0  0  0  0  0  0  0  0  0  0  0
  2  1  2  1  0  0  0
  2  5  1  0  0  0  0
  3  2  1  0  0  0  0
  4  3  1  0  0  0  0
  5  8  1  0  0  0  0
  6 12  1  0  0  0  0
  6 11  1  0  0  0  0
  7  6  2  0  0  0  0
  8  7  1  0  0  0  0
  8  9  2  0  0  0  0
  9 10  1  0  0  0  0
 10 11  2  0  0  0  0
 10 14  1  0  0  0  0
 13  7  1  0  0  0  0
 15  2  1  0  0  0  0
 16 17  1  0  0  0  0
 17 15  1  0  0  0  0
 18 17  2  0  0  0  0
 18 19  1  0  0  0  0
 20 18  1  0  0  0  0
 21 20  1  0  0  0  0
 21 27  1  0  0  0  0
 22 21  1  0  0  0  0
 23 22  1  0  0  0  0
 24 22  2  0  0  0  0
 24 25  1  0  0  0  0
 25 26  1  0  0  0  0
 25 20  2  0  0  0  0
 26 16  2  0  0  0  0
M  END
>  <minimizedAffinity>
-2.6877532

>  <minimizedRMSD>
4.77559137

$$$$
