
 OpenBabel03272503303D

 37 40  0  0  1  0  0  0  0  0999 V2000
   35.2870   29.5520   48.0110 C   0  0  0  0  0  0  0  0  0  0  0  0
   35.1480   29.9960   46.6900 C   0  0  0  0  0  0  0  0  0  0  0  0
   33.9690   29.6550   46.0390 C   0  0  0  0  0  0  0  0  0  0  0  0
   33.0490   28.9200   46.7330 N   0  0  0  0  0  0  0  0  0  0  0  0
   33.2080   28.5130   47.9820 C   0  0  0  0  0  0  0  0  0  0  0  0
   34.3510   28.8380   48.6280 N   0  0  0  0  0  0  0  0  0  0  0  0
   35.8690   30.5690   46.1530 H   0  0  0  0  0  0  0  0  0  0  0  0
   33.7360   29.9290   45.0350 H   0  0  0  0  0  0  0  0  0  0  0  0
   36.5040   29.9000   48.6930 N   0  0  0  0  0  0  0  0  0  0  0  0
   37.5850   30.6990   48.1810 C   0  0  0  0  0  0  0  0  0  0  0  0
   38.1670   31.3130   49.4550 C   0  0  2  0  0  0  0  0  0  0  0  0
   37.2660   30.8690   50.5890 C   0  0  0  0  0  0  0  0  0  0  0  0
   36.8750   29.5090   50.0320 C   0  0  0  0  0  0  0  0  0  0  0  0
   38.3300   30.0310   47.7280 H   0  0  0  0  0  0  0  0  0  0  0  0
   37.2430   31.4820   47.4820 H   0  0  0  0  0  0  0  0  0  0  0  0
   39.1610   30.8670   49.6610 H   0  0  0  0  0  0  0  0  0  0  0  0
   37.8290   30.6930   51.5080 H   0  0  0  0  0  0  0  0  0  0  0  0
   36.3760   31.5170   50.7220 H   0  0  0  0  0  0  0  0  0  0  0  0
   35.9840   29.1810   50.6040 H   0  0  0  0  0  0  0  0  0  0  0  0
   37.7250   28.8350   50.1060 H   0  0  0  0  0  0  0  0  0  0  0  0
   38.2880   32.8080   49.3830 C   0  0  0  0  0  0  0  0  0  0  0  0
   37.1090   33.3280   49.8740 F   0  0  0  0  0  0  0  0  0  0  0  0
   38.3280   33.1550   48.0400 F   0  0  0  0  0  0  0  0  0  0  0  0
   39.3840   33.3070   50.0230 F   0  0  0  0  0  0  0  0  0  0  0  0
   31.9650   27.5580   48.8240 S   0  0  0  0  0  0  0  0  0  0  0  0
   30.4520   26.4860   46.6330 C   0  0  0  0  0  3  0  0  0  0  0  0
   30.5790   27.3610   47.6890 C   0  0  0  0  0  0  0  0  0  0  0  0
   29.5510   28.2400   47.9890 C   0  0  0  0  0  0  0  0  0  0  0  0
   29.5310   28.9800   48.7990 H   0  0  0  0  0  0  0  0  0  0  0  0
   28.3720   28.2630   47.2380 C   0  0  0  0  0  0  0  0  0  0  0  0
   27.2230   28.9870   47.2840 N   0  0  0  0  0  0  0  0  0  0  0  0
   26.4130   28.5770   46.2920 C   0  0  0  0  0  0  0  0  0  0  0  0
   25.4210   29.0050   46.1140 H   0  0  0  0  0  0  0  0  0  0  0  0
   27.0580   27.5890   45.6180 N   0  0  0  0  0  0  0  0  0  0  0  0
   28.2650   27.3810   46.1850 C   0  0  0  0  0  0  0  0  0  0  0  0
   29.2890   26.5200   45.9020 C   0  0  0  0  0  3  0  0  0  0  0  0
   27.0240   29.7430   47.9930 H   0  0  0  0  0  0  0  0  0  0  0  0
  1  6  1  0  0  0  0
  1  9  1  0  0  0  0
  2  1  2  0  0  0  0
  3  2  1  0  0  0  0
  3  4  2  0  0  0  0
  4  5  1  0  0  0  0
  5  6  2  0  0  0  0
  5 25  1  0  0  0  0
  7  2  1  0  0  0  0
  8  3  1  0  0  0  0
  9 13  1  0  0  0  0
 10  9  1  0  0  0  0
 10 11  1  0  0  0  0
 11 16  1  1  0  0  0
 11 12  1  0  0  0  0
 12 18  1  0  0  0  0
 12 17  1  0  0  0  0
 13 20  1  0  0  0  0
 13 12  1  0  0  0  0
 13 19  1  0  0  0  0
 14 10  1  0  0  0  0
 15 10  1  0  0  0  0
 21 11  1  0  0  0  0
 21 22  1  0  0  0  0
 21 24  1  0  0  0  0
 23 21  1  0  0  0  0
 26 27  1  0  0  0  0
 27 28  2  0  0  0  0
 27 25  1  0  0  0  0
 28 29  1  0  0  0  0
 30 31  1  0  0  0  0
 30 28  1  0  0  0  0
 31 37  1  0  0  0  0
 32 31  1  0  0  0  0
 33 32  1  0  0  0  0
 34 35  1  0  0  0  0
 34 32  2  0  0  0  0
 35 30  2  0  0  0  0
 36 35  1  0  0  0  0
 36 26  2  0  0  0  0
M  END
>  <minimizedAffinity>
-6.31037045

>  <minimizedRMSD>
0.36453414

$$$$
