
 OpenBabel03272504223D

 42 45  0  0  1  0  0  0  0  0999 V2000
   38.8980   32.4110   47.8740 C   0  0  2  0  0  0  0  0  0  0  0  0
   38.1930   31.3990   48.7610 C   0  0  1  0  0  0  0  0  0  0  0  0
   38.6530   31.9470   50.1230 C   0  0  0  0  0  0  0  0  0  0  0  0
   38.3290   33.2890   49.9840 O   0  0  0  0  0  0  0  0  0  0  0  0
   38.6740   33.6660   48.7080 C   0  0  0  0  0  0  0  0  0  0  0  0
   39.9690   32.1290   47.8470 H   0  0  0  0  0  0  0  0  0  0  0  0
   38.5190   30.3710   48.6100 H   0  0  0  0  0  0  0  0  0  0  0  0
   39.7530   31.8470   50.1470 H   0  0  0  0  0  0  0  0  0  0  0  0
   38.1320   31.4740   50.9550 H   0  0  0  0  0  0  0  0  0  0  0  0
   39.5680   34.3080   48.7430 H   0  0  0  0  0  0  0  0  0  0  0  0
   37.8350   34.2320   48.2180 H   0  0  0  0  0  0  0  0  0  0  0  0
   36.8410   31.6060   48.6090 O   0  0  0  0  0  0  0  0  0  0  0  0
   35.9700   29.8250   46.9210 O   0  0  0  0  0  0  0  0  0  0  0  0
   35.9910   30.1680   48.3800 P   0  0  1  0  0  0  0  0  0  0  0  0
   36.7690   28.8860   49.2160 O   0  0  0  0  0  0  0  0  0  0  0  0
   37.5520   28.5750   48.7060 H   0  0  0  0  0  0  0  0  0  0  0  0
   34.4060   30.3360   48.9790 O   0  0  0  0  0  0  0  0  0  0  0  0
   34.1400   29.2180   49.7440 C   0  0  0  0  0  0  0  0  0  0  0  0
   33.5800   29.5920   50.6440 H   0  0  0  0  0  0  0  0  0  0  0  0
   35.0700   28.7730   50.1370 H   0  0  0  0  0  0  0  0  0  0  0  0
   33.2800   28.2300   49.0570 C   0  0  0  0  0  0  0  0  0  0  0  0
   33.9080   27.3330   48.2270 C   0  0  0  0  0  0  0  0  0  0  0  0
   33.1520   26.3750   47.5490 C   0  0  0  0  0  0  0  0  0  0  0  0
   31.8050   26.3900   47.7580 N   0  0  0  0  0  0  0  0  0  0  0  0
   31.2100   27.2820   48.5790 C   0  0  0  0  0  0  0  0  0  0  0  0
   31.9460   28.2060   49.2320 N   0  0  0  0  0  0  0  0  0  0  0  0
   34.9520   27.2440   48.0000 H   0  0  0  0  0  0  0  0  0  0  0  0
   33.5540   25.6280   46.8760 H   0  0  0  0  0  0  0  0  0  0  0  0
   30.1320   27.2700   48.7260 H   0  0  0  0  0  0  0  0  0  0  0  0
   38.2620   32.4270   46.6610 O   0  0  0  0  0  0  0  0  0  0  0  0
   37.9750   32.4870   44.3630 C   0  0  0  0  0  3  0  0  0  0  0  0
   38.7030   31.9840   45.4370 C   0  0  0  0  0  0  0  0  0  0  0  0
   39.7540   31.1210   45.1590 C   0  0  0  0  0  0  0  0  0  0  0  0
   40.2690   30.7740   46.0480 H   0  0  0  0  0  0  0  0  0  0  0  0
   40.0550   30.7840   43.8530 C   0  0  0  0  0  0  0  0  0  0  0  0
   41.0280   29.9710   43.3930 N   0  0  0  0  0  0  0  0  0  0  0  0
   40.8880   29.9850   42.0540 C   0  0  0  0  0  0  0  0  0  0  0  0
   41.5600   29.3990   41.4160 H   0  0  0  0  0  0  0  0  0  0  0  0
   39.8600   30.7820   41.7040 N   0  0  0  0  0  0  0  0  0  0  0  0
   39.3030   31.3110   42.8230 C   0  0  0  0  0  0  0  0  0  0  0  0
   38.2530   32.1690   43.0500 C   0  0  0  0  0  3  0  0  0  0  0  0
   41.7340   29.4470   43.9500 H   0  0  0  0  0  0  0  0  0  0  0  0
  1  6  1  6  0  0  0
  1  5  1  0  0  0  0
  1  2  1  0  0  0  0
  2  7  1  6  0  0  0
  2  3  1  0  0  0  0
  3  8  1  0  0  0  0
  3  9  1  0  0  0  0
  4  3  1  0  0  0  0
  5 10  1  0  0  0  0
  5  4  1  0  0  0  0
 11  5  1  0  0  0  0
 12  2  1  0  0  0  0
 14 13  2  6  0  0  0
 14 12  1  0  0  0  0
 14 17  1  0  0  0  0
 14 15  1  0  0  0  0
 16 15  1  0  0  0  0
 17 18  1  0  0  0  0
 18 20  1  0  0  0  0
 18 19  1  0  0  0  0
 21 26  1  0  0  0  0
 21 18  1  0  0  0  0
 22 21  2  0  0  0  0
 23 24  2  0  0  0  0
 23 22  1  0  0  0  0
 24 25  1  0  0  0  0
 25 29  1  0  0  0  0
 25 26  2  0  0  0  0
 27 22  1  0  0  0  0
 28 23  1  0  0  0  0
 30  1  1  0  0  0  0
 31 32  1  0  0  0  0
 32 30  1  0  0  0  0
 33 32  2  0  0  0  0
 33 34  1  0  0  0  0
 35 33  1  0  0  0  0
 36 35  1  0  0  0  0
 36 42  1  0  0  0  0
 37 36  1  0  0  0  0
 38 37  1  0  0  0  0
 39 37  2  0  0  0  0
 39 40  1  0  0  0  0
 40 41  1  0  0  0  0
 40 35  2  0  0  0  0
 41 31  2  0  0  0  0
M  END
>  <minimizedAffinity>
-5.34870243

>  <minimizedRMSD>
0.427773803

$$$$
