
 OpenBabel03272509583D

 49 53  0  0  0  0  0  0  0  0999 V2000
   33.2880   28.1180   47.0830 C   0  0  0  0  0  0  0  0  0  0  0  0
   33.2590   28.3070   45.9730 H   0  0  0  0  0  0  0  0  0  0  0  0
   33.6860   27.1100   47.2030 H   0  0  0  0  0  0  0  0  0  0  0  0
   31.8880   28.1560   47.5850 C   0  0  0  0  0  0  0  0  0  0  0  0
   31.6320   27.6220   48.8370 C   0  0  0  0  0  0  0  0  0  0  0  0
   30.3650   27.6180   49.3730 C   0  0  0  0  0  0  0  0  0  0  0  0
   29.3560   28.1410   48.6760 N   0  0  0  0  0  0  0  0  0  0  0  0
   29.6180   28.6660   47.4440 C   0  0  0  0  0  0  0  0  0  0  0  0
   30.8500   28.6780   46.9060 N   0  0  0  0  0  0  0  0  0  0  0  0
   32.4460   27.1950   49.4060 H   0  0  0  0  0  0  0  0  0  0  0  0
   30.1280   27.2100   50.3470 H   0  0  0  0  0  0  0  0  0  0  0  0
   28.4750   29.2440   46.6840 C   0  0  0  0  0  0  0  0  0  0  0  0
   28.8200   30.2210   46.2830 H   0  0  0  0  0  0  0  0  0  0  0  0
   27.6020   29.4400   47.3390 H   0  0  0  0  0  0  0  0  0  0  0  0
   27.9830   26.9840   45.6160 C   0  0  0  0  0  3  0  0  0  0  0  0
   28.1190   28.3670   45.5360 C   0  0  0  0  0  0  0  0  0  0  0  0
   27.9070   28.9680   44.2960 C   0  0  0  0  0  0  0  0  0  0  0  0
   28.0120   30.0590   44.2270 H   0  0  0  0  0  0  0  0  0  0  0  0
   27.5750   28.2520   43.1710 C   0  0  0  0  0  0  0  0  0  0  0  0
   27.3240   28.5660   41.9000 N   0  0  0  0  0  0  0  0  0  0  0  0
   27.0390   27.4830   41.1680 C   0  0  0  0  0  0  0  0  0  0  0  0
   26.8030   27.5130   40.1040 H   0  0  0  0  0  0  0  0  0  0  0  0
   27.1090   26.4140   42.0120 N   0  0  0  0  0  0  0  0  0  0  0  0
   27.4350   26.8640   43.2420 C   0  0  0  0  0  0  0  0  0  0  0  0
   27.6510   26.2950   44.4810 C   0  0  0  0  0  3  0  0  0  0  0  0
   27.3630   29.5680   41.5790 H   0  0  0  0  0  0  0  0  0  0  0  0
   34.1790   29.1060   47.7830 C   0  0  0  0  0  0  0  0  0  0  0  0
   33.6480   29.9480   48.2470 H   0  0  0  0  0  0  0  0  0  0  0  0
   34.8430   29.5470   47.0110 H   0  0  0  0  0  0  0  0  0  0  0  0
   35.0350   28.4480   48.7060 O   0  0  0  0  0  0  0  0  0  0  0  0
   37.1130   30.0100   51.2120 C   0  0  0  0  0  0  0  0  0  0  0  0
   37.9350   30.8000   50.3810 C   0  0  0  0  0  0  0  0  0  0  0  0
   37.7290   30.7510   49.0150 C   0  0  0  0  0  0  0  0  0  0  0  0
   36.7270   29.9240   48.5880 N   0  0  0  0  0  0  0  0  0  0  0  0
   35.9540   29.1800   49.3810 C   0  0  0  0  0  0  0  0  0  0  0  0
   36.1580   29.2320   50.7080 N   0  0  0  0  0  0  0  0  0  0  0  0
   37.3010   30.0740   52.2730 H   0  0  0  0  0  0  0  0  0  0  0  0
   38.7170   31.4460   50.7130 H   0  0  0  0  0  0  0  0  0  0  0  0
   38.7690   33.4410   49.1990 F   0  0  0  0  0  0  0  0  0  0  0  0
   38.9670   32.7360   48.0850 C   0  0  0  0  0  0  0  0  0  0  0  0
   38.4750   31.4910   48.0220 C   0  0  0  0  0  0  0  0  0  0  0  0
   38.7370   30.8430   46.8150 C   0  0  0  0  0  0  0  0  0  0  0  0
   39.4310   31.4230   45.7920 C   0  0  0  0  0  0  0  0  0  0  0  0
   39.9130   32.7080   45.9120 C   0  0  0  0  0  0  0  0  0  0  0  0
   39.6680   33.3610   47.0830 C   0  0  0  0  0  0  0  0  0  0  0  0
   38.4060   29.8170   46.5990 H   0  0  0  0  0  0  0  0  0  0  0  0
   39.6360   30.9200   44.8500 H   0  0  0  0  0  0  0  0  0  0  0  0
   40.4670   33.1730   45.0950 H   0  0  0  0  0  0  0  0  0  0  0  0
   40.0420   34.3720   47.1930 H   0  0  0  0  0  0  0  0  0  0  0  0
  1  3  1  0  0  0  0
  1  4  1  0  0  0  0
  1 27  1  0  0  0  0
  2  1  1  0  0  0  0
  4  5  1  0  0  0  0
  5  6  2  0  0  0  0
  5 10  1  0  0  0  0
  6 11  1  0  0  0  0
  7  6  1  0  0  0  0
  8  7  2  0  0  0  0
  9  8  1  0  0  0  0
  9  4  2  0  0  0  0
 12 14  1  0  0  0  0
 12  8  1  0  0  0  0
 13 12  1  0  0  0  0
 16 15  1  0  0  0  0
 16 12  1  0  0  0  0
 17 16  2  0  0  0  0
 18 17  1  0  0  0  0
 19 24  2  0  0  0  0
 19 17  1  0  0  0  0
 20 19  1  0  0  0  0
 21 20  1  0  0  0  0
 21 23  2  0  0  0  0
 22 21  1  0  0  0  0
 23 24  1  0  0  0  0
 24 25  1  0  0  0  0
 25 15  2  0  0  0  0
 26 20  1  0  0  0  0
 27 28  1  0  0  0  0
 27 30  1  0  0  0  0
 29 27  1  0  0  0  0
 30 35  1  0  0  0  0
 31 37  1  0  0  0  0
 32 38  1  0  0  0  0
 32 31  2  0  0  0  0
 33 32  1  0  0  0  0
 34 33  2  0  0  0  0
 34 35  1  0  0  0  0
 35 36  2  0  0  0  0
 36 31  1  0  0  0  0
 40 39  1  0  0  0  0
 41 40  1  0  0  0  0
 41 33  1  0  0  0  0
 42 41  2  0  0  0  0
 43 44  2  0  0  0  0
 43 42  1  0  0  0  0
 44 45  1  0  0  0  0
 45 49  1  0  0  0  0
 45 40  2  0  0  0  0
 46 42  1  0  0  0  0
 47 43  1  0  0  0  0
 48 44  1  0  0  0  0
M  END
>  <minimizedAffinity>
-6.61971283

>  <minimizedRMSD>
0.774378061

$$$$
