
 OpenBabel03272509573D

 49 53  0  0  0  0  0  0  0  0999 V2000
   33.4510   27.6020   47.5750 C   0  0  0  0  0  0  0  0  0  0  0  0
   33.6590   27.4160   46.4830 H   0  0  0  0  0  0  0  0  0  0  0  0
   33.6720   26.6630   48.0830 H   0  0  0  0  0  0  0  0  0  0  0  0
   32.0020   27.9080   47.7140 C   0  0  0  0  0  0  0  0  0  0  0  0
   31.3400   27.4210   48.8270 C   0  0  0  0  0  0  0  0  0  0  0  0
   30.0000   27.6590   49.0300 C   0  0  0  0  0  0  0  0  0  0  0  0
   29.3190   28.3760   48.1370 N   0  0  0  0  0  0  0  0  0  0  0  0
   29.9800   28.8520   47.0420 C   0  0  0  0  0  0  0  0  0  0  0  0
   31.2880   28.6280   46.8290 N   0  0  0  0  0  0  0  0  0  0  0  0
   31.8870   26.8380   49.5560 H   0  0  0  0  0  0  0  0  0  0  0  0
   29.4500   27.2950   49.8890 H   0  0  0  0  0  0  0  0  0  0  0  0
   29.1980   29.6500   46.0570 C   0  0  0  0  0  0  0  0  0  0  0  0
   29.9250   30.0420   45.3150 H   0  0  0  0  0  0  0  0  0  0  0  0
   28.7020   30.5200   46.5340 H   0  0  0  0  0  0  0  0  0  0  0  0
   26.8400   28.9040   45.4430 C   0  0  0  0  0  3  0  0  0  0  0  0
   28.2230   28.7810   45.3430 C   0  0  0  0  0  0  0  0  0  0  0  0
   28.7270   27.7770   44.5180 C   0  0  0  0  0  0  0  0  0  0  0  0
   29.8160   27.6740   44.4350 H   0  0  0  0  0  0  0  0  0  0  0  0
   27.9160   26.9200   43.8150 C   0  0  0  0  0  0  0  0  0  0  0  0
   28.1280   25.9010   42.9790 N   0  0  0  0  0  0  0  0  0  0  0  0
   26.9800   25.3690   42.5430 C   0  0  0  0  0  0  0  0  0  0  0  0
   26.9250   24.5280   41.8510 H   0  0  0  0  0  0  0  0  0  0  0  0
   25.9750   26.0820   43.1270 N   0  0  0  0  0  0  0  0  0  0  0  0
   26.5270   27.0340   43.9080 C   0  0  0  0  0  0  0  0  0  0  0  0
   26.0560   28.0370   44.7310 C   0  0  0  0  0  3  0  0  0  0  0  0
   29.1090   25.6050   42.7370 H   0  0  0  0  0  0  0  0  0  0  0  0
   34.3260   28.6960   48.1190 C   0  0  0  0  0  0  0  0  0  0  0  0
   33.8670   29.6930   48.1090 H   0  0  0  0  0  0  0  0  0  0  0  0
   35.2150   28.7590   47.4580 H   0  0  0  0  0  0  0  0  0  0  0  0
   34.8200   28.3540   49.4060 O   0  0  0  0  0  0  0  0  0  0  0  0
   37.1390   30.0270   51.6120 C   0  0  0  0  0  0  0  0  0  0  0  0
   37.9000   30.7390   50.6610 C   0  0  0  0  0  0  0  0  0  0  0  0
   37.5750   30.6040   49.3240 C   0  0  0  0  0  0  0  0  0  0  0  0
   36.5230   29.7760   49.0420 N   0  0  0  0  0  0  0  0  0  0  0  0
   35.8080   29.1060   49.9480 C   0  0  0  0  0  0  0  0  0  0  0  0
   36.1290   29.2410   51.2460 N   0  0  0  0  0  0  0  0  0  0  0  0
   37.4210   30.1570   52.6450 H   0  0  0  0  0  0  0  0  0  0  0  0
   38.7210   31.3860   50.8780 H   0  0  0  0  0  0  0  0  0  0  0  0
   38.7800   33.2300   49.2680 F   0  0  0  0  0  0  0  0  0  0  0  0
   38.8110   32.4710   48.1730 C   0  0  0  0  0  0  0  0  0  0  0  0
   38.2450   31.2570   48.2220 C   0  0  0  0  0  0  0  0  0  0  0  0
   38.3320   30.5470   47.0250 C   0  0  0  0  0  0  0  0  0  0  0  0
   38.9390   31.0430   45.9060 C   0  0  0  0  0  0  0  0  0  0  0  0
   39.5030   32.3000   45.9130 C   0  0  0  0  0  0  0  0  0  0  0  0
   39.4290   33.0120   47.0730 C   0  0  0  0  0  0  0  0  0  0  0  0
   37.9210   29.5350   46.8940 H   0  0  0  0  0  0  0  0  0  0  0  0
   39.0080   30.4910   44.9710 H   0  0  0  0  0  0  0  0  0  0  0  0
   39.9870   32.6970   45.0200 H   0  0  0  0  0  0  0  0  0  0  0  0
   39.8700   34.0010   47.0940 H   0  0  0  0  0  0  0  0  0  0  0  0
  1  4  1  0  0  0  0
  1  3  1  0  0  0  0
  1 27  1  0  0  0  0
  2  1  1  0  0  0  0
  4  5  1  0  0  0  0
  5  6  2  0  0  0  0
  5 10  1  0  0  0  0
  6 11  1  0  0  0  0
  7  6  1  0  0  0  0
  8  7  2  0  0  0  0
  9  8  1  0  0  0  0
  9  4  2  0  0  0  0
 12 14  1  0  0  0  0
 12  8  1  0  0  0  0
 13 12  1  0  0  0  0
 16 15  1  0  0  0  0
 16 12  1  0  0  0  0
 17 16  2  0  0  0  0
 18 17  1  0  0  0  0
 19 24  2  0  0  0  0
 19 17  1  0  0  0  0
 20 19  1  0  0  0  0
 21 20  1  0  0  0  0
 21 23  2  0  0  0  0
 22 21  1  0  0  0  0
 23 24  1  0  0  0  0
 24 25  1  0  0  0  0
 25 15  2  0  0  0  0
 26 20  1  0  0  0  0
 27 30  1  0  0  0  0
 28 27  1  0  0  0  0
 29 27  1  0  0  0  0
 30 35  1  0  0  0  0
 31 37  1  0  0  0  0
 32 38  1  0  0  0  0
 32 31  2  0  0  0  0
 33 32  1  0  0  0  0
 34 33  2  0  0  0  0
 34 35  1  0  0  0  0
 35 36  2  0  0  0  0
 36 31  1  0  0  0  0
 40 41  1  0  0  0  0
 40 39  1  0  0  0  0
 41 33  1  0  0  0  0
 42 41  2  0  0  0  0
 43 44  2  0  0  0  0
 43 42  1  0  0  0  0
 44 45  1  0  0  0  0
 45 49  1  0  0  0  0
 45 40  2  0  0  0  0
 46 42  1  0  0  0  0
 47 43  1  0  0  0  0
 48 44  1  0  0  0  0
M  END
>  <minimizedAffinity>
-6.78845215

>  <minimizedRMSD>
0.985496879

$$$$
