
 OpenBabel03272501583D

 34 37  0  0  0  0  0  0  0  0999 V2000
   32.8210   28.2530   47.8660 C   0  0  0  0  0  0  0  0  0  0  0  0
   32.1010   27.3640   48.6480 C   0  0  0  0  0  0  0  0  0  0  0  0
   30.7720   27.3860   48.3160 C   0  0  0  0  0  0  0  0  0  0  0  0
   30.7080   28.2970   47.3280 N   0  0  0  0  0  0  0  0  0  0  0  0
   31.9100   28.8090   47.0600 N   0  0  0  0  0  0  0  0  0  0  0  0
   32.5280   26.7280   49.4280 H   0  0  0  0  0  0  0  0  0  0  0  0
   29.9700   26.8060   48.7510 H   0  0  0  0  0  0  0  0  0  0  0  0
   28.5200   29.3900   47.2310 C   0  0  0  0  0  3  0  0  0  0  0  0
   29.5200   28.6900   46.6320 C   0  0  0  0  0  0  0  0  0  0  0  0
   29.3760   28.3430   45.2890 C   0  0  0  0  0  0  0  0  0  0  0  0
   30.1870   27.7830   44.8270 H   0  0  0  0  0  0  0  0  0  0  0  0
   28.2990   28.6570   44.5230 C   0  0  0  0  0  0  0  0  0  0  0  0
   27.9730   28.4180   43.2250 N   0  0  0  0  0  0  0  0  0  0  0  0
   26.7630   28.9750   43.0210 C   0  0  0  0  0  0  0  0  0  0  0  0
   26.2820   28.9200   42.0600 H   0  0  0  0  0  0  0  0  0  0  0  0
   26.3430   29.5540   44.1790 N   0  0  0  0  0  0  0  0  0  0  0  0
   27.2770   29.3680   45.1210 C   0  0  0  0  0  0  0  0  0  0  0  0
   27.4030   29.7230   46.4620 C   0  0  0  0  0  3  0  0  0  0  0  0
   28.6080   27.8910   42.5850 H   0  0  0  0  0  0  0  0  0  0  0  0
   34.2950   28.5300   47.9140 C   0  0  0  0  0  0  0  0  0  0  0  0
   34.4450   29.5880   47.6610 H   0  0  0  0  0  0  0  0  0  0  0  0
   34.8480   27.8470   47.2210 H   0  0  0  0  0  0  0  0  0  0  0  0
   34.7220   28.2180   49.3210 C   0  0  0  0  0  0  0  0  0  0  0  0
   35.0060   27.1570   49.4560 H   0  0  0  0  0  0  0  0  0  0  0  0
   33.8860   28.3950   50.0530 H   0  0  0  0  0  0  0  0  0  0  0  0
   37.1650   30.1530   51.3060 C   0  0  0  0  0  0  0  0  0  0  0  0
   37.9940   30.7130   50.3280 C   0  0  0  0  0  0  0  0  0  0  0  0
   37.6960   30.4130   48.9770 C   0  0  0  0  0  0  0  0  0  0  0  0
   36.6370   29.6080   48.7100 N   0  0  0  0  0  0  0  0  0  0  0  0
   35.8700   29.0950   49.6960 C   0  0  0  0  0  0  0  0  0  0  0  0
   36.1460   29.3740   50.9750 N   0  0  0  0  0  0  0  0  0  0  0  0
   37.4090   30.3940   52.3330 H   0  0  0  0  0  0  0  0  0  0  0  0
   38.8350   31.3530   50.5590 H   0  0  0  0  0  0  0  0  0  0  0  0
   38.3160   30.8290   48.2060 H   0  0  0  0  0  0  0  0  0  0  0  0
  1 20  1  0  0  0  0
  1  2  1  0  0  0  0
  2  6  1  0  0  0  0
  3  2  2  0  0  0  0
  3  7  1  0  0  0  0
  4  3  1  0  0  0  0
  5  4  1  0  0  0  0
  5  1  2  0  0  0  0
  9  8  1  0  0  0  0
  9  4  1  0  0  0  0
 10  9  2  0  0  0  0
 11 10  1  0  0  0  0
 12 17  2  0  0  0  0
 12 10  1  0  0  0  0
 13 12  1  0  0  0  0
 14 13  1  0  0  0  0
 14 16  2  0  0  0  0
 15 14  1  0  0  0  0
 16 17  1  0  0  0  0
 17 18  1  0  0  0  0
 18  8  2  0  0  0  0
 19 13  1  0  0  0  0
 20 23  1  0  0  0  0
 21 20  1  0  0  0  0
 22 20  1  0  0  0  0
 23 24  1  0  0  0  0
 23 30  1  0  0  0  0
 23 25  1  0  0  0  0
 26 32  1  0  0  0  0
 27 33  1  0  0  0  0
 27 26  2  0  0  0  0
 28 27  1  0  0  0  0
 29 28  2  0  0  0  0
 29 30  1  0  0  0  0
 30 31  2  0  0  0  0
 31 26  1  0  0  0  0
 34 28  1  0  0  0  0
M  END
>  <minimizedAffinity>
-5.09780598

>  <minimizedRMSD>
0.717361867

$$$$
