
 OpenBabel03272503303D

 37 40  0  0  1  0  0  0  0  0999 V2000
   35.2590   29.5370   47.9810 C   0  0  0  0  0  0  0  0  0  0  0  0
   35.1620   29.9880   46.6590 C   0  0  0  0  0  0  0  0  0  0  0  0
   34.0040   29.6540   45.9700 C   0  0  0  0  0  0  0  0  0  0  0  0
   33.0610   28.9180   46.6300 N   0  0  0  0  0  0  0  0  0  0  0  0
   33.1790   28.5040   47.8820 C   0  0  0  0  0  0  0  0  0  0  0  0
   34.3020   28.8230   48.5650 N   0  0  0  0  0  0  0  0  0  0  0  0
   35.9020   30.5620   46.1480 H   0  0  0  0  0  0  0  0  0  0  0  0
   33.8030   29.9340   44.9610 H   0  0  0  0  0  0  0  0  0  0  0  0
   36.4550   29.8780   48.7040 N   0  0  0  0  0  0  0  0  0  0  0  0
   37.5690   30.6470   48.2180 C   0  0  0  0  0  0  0  0  0  0  0  0
   38.1120   31.2770   49.5000 C   0  0  2  0  0  0  0  0  0  0  0  0
   37.1600   30.8750   50.6070 C   0  0  0  0  0  0  0  0  0  0  0  0
   36.7660   29.5100   50.0630 C   0  0  0  0  0  0  0  0  0  0  0  0
   38.3190   29.9550   47.8090 H   0  0  0  0  0  0  0  0  0  0  0  0
   37.2700   31.4200   47.4890 H   0  0  0  0  0  0  0  0  0  0  0  0
   39.0900   30.8180   49.7540 H   0  0  0  0  0  0  0  0  0  0  0  0
   37.6830   30.7090   51.5510 H   0  0  0  0  0  0  0  0  0  0  0  0
   36.2780   31.5410   50.6910 H   0  0  0  0  0  0  0  0  0  0  0  0
   35.8470   29.2100   50.6070 H   0  0  0  0  0  0  0  0  0  0  0  0
   37.6000   28.8220   50.1850 H   0  0  0  0  0  0  0  0  0  0  0  0
   38.2640   32.7690   49.4020 C   0  0  0  0  0  0  0  0  0  0  0  0
   37.0990   33.3210   49.8890 F   0  0  0  0  0  0  0  0  0  0  0  0
   38.3040   33.0910   48.0520 F   0  0  0  0  0  0  0  0  0  0  0  0
   39.3740   33.2560   50.0270 F   0  0  0  0  0  0  0  0  0  0  0  0
   31.9070   27.5480   48.6790 S   0  0  0  0  0  0  0  0  0  0  0  0
   29.4620   28.6670   47.6740 C   0  0  0  0  0  3  0  0  0  0  0  0
   30.4230   27.6800   47.6670 C   0  0  0  0  0  0  0  0  0  0  0  0
   30.3090   26.6070   46.7950 C   0  0  0  0  0  0  0  0  0  0  0  0
   31.0010   25.7630   46.6940 H   0  0  0  0  0  0  0  0  0  0  0  0
   29.2300   26.4990   45.9130 C   0  0  0  0  0  0  0  0  0  0  0  0
   28.8520   25.5980   44.9690 N   0  0  0  0  0  0  0  0  0  0  0  0
   27.7010   26.0100   44.4120 C   0  0  0  0  0  0  0  0  0  0  0  0
   27.1860   25.4530   43.6210 H   0  0  0  0  0  0  0  0  0  0  0  0
   27.3520   27.1790   45.0090 N   0  0  0  0  0  0  0  0  0  0  0  0
   28.2810   27.4980   45.9350 C   0  0  0  0  0  0  0  0  0  0  0  0
   28.4090   28.5500   46.8010 C   0  0  0  0  0  3  0  0  0  0  0  0
   29.3930   24.7230   44.7330 H   0  0  0  0  0  0  0  0  0  0  0  0
  1  6  1  0  0  0  0
  1  9  1  0  0  0  0
  2  1  2  0  0  0  0
  3  4  2  0  0  0  0
  3  2  1  0  0  0  0
  4  5  1  0  0  0  0
  5  6  2  0  0  0  0
  5 25  1  0  0  0  0
  7  2  1  0  0  0  0
  8  3  1  0  0  0  0
  9 13  1  0  0  0  0
 10  9  1  0  0  0  0
 10 11  1  0  0  0  0
 11 16  1  1  0  0  0
 11 12  1  0  0  0  0
 12 18  1  0  0  0  0
 12 17  1  0  0  0  0
 13 20  1  0  0  0  0
 13 19  1  0  0  0  0
 13 12  1  0  0  0  0
 14 10  1  0  0  0  0
 15 10  1  0  0  0  0
 21 11  1  0  0  0  0
 21 22  1  0  0  0  0
 21 24  1  0  0  0  0
 23 21  1  0  0  0  0
 27 26  1  0  0  0  0
 27 25  1  0  0  0  0
 28 27  2  0  0  0  0
 29 28  1  0  0  0  0
 30 35  2  0  0  0  0
 30 28  1  0  0  0  0
 31 30  1  0  0  0  0
 32 31  1  0  0  0  0
 32 34  2  0  0  0  0
 33 32  1  0  0  0  0
 34 35  1  0  0  0  0
 35 36  1  0  0  0  0
 36 26  2  0  0  0  0
 37 31  1  0  0  0  0
M  END
>  <minimizedAffinity>
-6.05533457

>  <minimizedRMSD>
0.93769002

$$$$
