
 OpenBabel03262521093D

 27 29  0  0  0  0  0  0  0  0999 V2000
   33.9460   27.9540   45.6380 O   0  0  0  0  0  0  0  0  0  0  0  0
   33.3410   27.9490   47.0300 P   0  0  1  0  0  0  0  0  0  0  0  0
   34.0100   26.6760   47.9530 O   0  0  0  0  0  0  0  0  0  0  0  0
   33.6790   26.7550   48.8680 H   0  0  0  0  0  0  0  0  0  0  0  0
   33.6950   29.3800   47.8990 O   0  0  0  0  0  0  0  0  0  0  0  0
   34.7020   29.4470   48.8470 C   0  0  0  0  0  0  0  0  0  0  0  0
   34.5170   29.2780   50.2280 C   0  0  0  0  0  0  0  0  0  0  0  0
   35.6190   29.3720   51.0610 C   0  0  0  0  0  0  0  0  0  0  0  0
   36.8450   29.6280   50.5000 N   0  0  0  0  0  0  0  0  0  0  0  0
   36.9870   29.7870   49.1450 C   0  0  0  0  0  0  0  0  0  0  0  0
   35.9180   29.6960   48.3330 N   0  0  0  0  0  0  0  0  0  0  0  0
   33.5250   29.0850   50.5470 H   0  0  0  0  0  0  0  0  0  0  0  0
   35.4840   29.2440   52.1130 H   0  0  0  0  0  0  0  0  0  0  0  0
   37.9730   29.9890   48.7290 H   0  0  0  0  0  0  0  0  0  0  0  0
   31.6800   27.7630   46.8480 O   0  0  0  0  0  0  0  0  0  0  0  0
   30.7210   27.6060   49.0920 C   0  0  0  0  0  0  0  0  0  0  0  0
   30.7020   28.0210   47.7760 C   0  0  0  0  0  0  0  0  0  0  0  0
   29.6320   28.7670   47.2710 C   0  0  0  0  0  0  0  0  0  0  0  0
   29.5350   29.1300   46.2650 H   0  0  0  0  0  0  0  0  0  0  0  0
   28.5900   29.0790   48.1390 C   0  0  0  0  0  0  0  0  0  0  0  0
   27.4390   29.7570   48.0020 N   0  0  0  0  0  0  0  0  0  0  0  0
   26.7600   29.7750   49.1720 C   0  0  0  0  0  0  0  0  0  0  0  0
   25.8060   30.2210   49.4390 H   0  0  0  0  0  0  0  0  0  0  0  0
   27.5030   29.0850   50.0820 N   0  0  0  0  0  0  0  0  0  0  0  0
   28.6310   28.6540   49.4500 C   0  0  0  0  0  0  0  0  0  0  0  0
   29.6810   27.9110   49.9770 C   0  0  0  0  0  0  0  0  0  0  0  0
   27.0820   30.2250   47.1240 H   0  0  0  0  0  0  0  0  0  0  0  0
  2  1  2  6  0  0  0
  2  5  1  0  0  0  0
  2  3  1  0  0  0  0
  3  4  1  0  0  0  0
  5  6  1  0  0  0  0
  6  7  1  0  0  0  0
  7 12  1  0  0  0  0
  7  8  2  0  0  0  0
  8 13  1  0  0  0  0
  9  8  1  0  0  0  0
 10  9  2  0  0  0  0
 11  6  2  0  0  0  0
 11 10  1  0  0  0  0
 14 10  1  0  0  0  0
 15  2  1  0  0  0  0
 15 17  1  0  0  0  0
 16 26  1  0  0  0  0
 17 16  2  0  0  0  0
 18 17  1  0  0  0  0
 18 20  2  0  0  0  0
 19 18  1  0  0  0  0
 20 25  1  0  0  0  0
 21 20  1  0  0  0  0
 21 22  1  0  0  0  0
 22 23  1  0  0  0  0
 22 24  2  0  0  0  0
 25 26  2  0  0  0  0
 25 24  1  0  0  0  0
 27 21  1  0  0  0  0
M  END
>  <minimizedAffinity>
-5.06759977

>  <minimizedRMSD>
2.83030605

$$$$
