
 OpenBabel03272510023D

 24 26  0  0  0  0  0  0  0  0999 V2000
   38.2880   31.2810   50.4590 C   0  0  0  0  0  0  0  0  0  0  0  0
   38.4930   31.5710   49.1080 C   0  0  0  0  0  0  0  0  0  0  0  0
   37.5570   31.1070   48.1970 C   0  0  0  0  0  0  0  0  0  0  0  0
   36.4980   30.4010   48.6590 N   0  0  0  0  0  0  0  0  0  0  0  0
   36.3310   30.1370   49.9760 C   0  0  0  0  0  0  0  0  0  0  0  0
   37.2320   30.5810   50.8680 N   0  0  0  0  0  0  0  0  0  0  0  0
   39.0460   31.6630   51.1350 H   0  0  0  0  0  0  0  0  0  0  0  0
   39.3330   32.1260   48.7750 H   0  0  0  0  0  0  0  0  0  0  0  0
   36.7870   30.6570   45.9470 C   0  0  0  0  0  3  0  0  0  0  0  0
   37.6580   31.3440   46.7660 C   0  0  0  0  0  0  0  0  0  0  0  0
   38.5560   32.1950   46.1970 C   0  0  0  0  0  0  0  0  0  0  0  0
   39.2400   32.7400   46.7980 H   0  0  0  0  0  0  0  0  0  0  0  0
   38.6490   32.4180   44.8350 C   0  0  0  0  0  0  0  0  0  0  0  0
   39.4570   33.2100   44.0840 N   0  0  0  0  0  0  0  0  0  0  0  0
   39.0930   33.0190   42.8000 C   0  0  0  0  0  0  0  0  0  0  0  0
   39.6220   33.5660   42.0320 H   0  0  0  0  0  0  0  0  0  0  0  0
   38.0760   32.1250   42.7450 N   0  0  0  0  0  0  0  0  0  0  0  0
   37.7720   31.7290   43.9940 C   0  0  0  0  0  0  0  0  0  0  0  0
   36.8510   30.8550   44.5650 C   0  0  0  0  0  3  0  0  0  0  0  0
   40.2140   33.8390   44.4840 H   0  0  0  0  0  0  0  0  0  0  0  0
   35.1320   29.3540   50.3630 C   0  0  0  0  0  0  0  0  0  0  0  0
   35.1260   29.0530   51.7230 F   0  0  0  0  0  0  0  0  0  0  0  0
   33.9620   30.0640   50.1340 F   0  0  0  0  0  0  0  0  0  0  0  0
   35.0050   28.1660   49.6920 F   0  0  0  0  0  0  0  0  0  0  0  0
  1  6  1  0  0  0  0
  1  7  1  0  0  0  0
  2  1  2  0  0  0  0
  3  4  2  0  0  0  0
  3  2  1  0  0  0  0
  4  5  1  0  0  0  0
  5 21  1  0  0  0  0
  5  6  2  0  0  0  0
  8  2  1  0  0  0  0
  9 10  1  0  0  0  0
 10  3  1  0  0  0  0
 11 10  2  0  0  0  0
 11 12  1  0  0  0  0
 13 11  1  0  0  0  0
 14 20  1  0  0  0  0
 14 13  1  0  0  0  0
 15 14  1  0  0  0  0
 16 15  1  0  0  0  0
 17 15  2  0  0  0  0
 17 18  1  0  0  0  0
 18 19  1  0  0  0  0
 18 13  2  0  0  0  0
 19  9  2  0  0  0  0
 21 22  1  0  0  0  0
 23 21  1  0  0  0  0
 24 21  1  0  0  0  0
M  END
>  <minimizedAffinity>
-6.10582781

>  <minimizedRMSD>
0.757683992

$$$$
