
 OpenBabel03262522483D

 28 31  0  0  0  0  0  0  0  0999 V2000
   35.7730   29.9360   48.6330 C   0  0  0  0  0  0  0  0  0  0  0  0
   35.6740   28.8330   49.3810 C   0  0  0  0  0  0  0  0  0  0  0  0
   34.5460   28.0650   49.3460 C   0  0  0  0  0  0  0  0  0  0  0  0
   33.5490   28.4930   48.5110 C   0  0  0  0  0  0  0  0  0  0  0  0
   34.2600   30.0040   47.7880 S   0  0  0  0  0  0  0  0  0  0  0  0
   36.5240   28.5540   50.0310 H   0  0  0  0  0  0  0  0  0  0  0  0
   34.3610   27.1610   49.9060 H   0  0  0  0  0  0  0  0  0  0  0  0
   31.9710   27.5830   46.8990 C   0  0  0  0  0  0  0  0  0  0  0  0
   32.2340   27.9840   48.1900 C   0  0  0  0  0  0  0  0  0  0  0  0
   31.3640   27.9530   49.2410 C   0  0  0  0  0  0  0  0  0  0  0  0
   31.6100   28.2780   50.2410 H   0  0  0  0  0  0  0  0  0  0  0  0
   30.0730   27.4710   48.9970 C   0  0  0  0  0  0  0  0  0  0  0  0
   28.9910   27.3050   49.7800 N   0  0  0  0  0  0  0  0  0  0  0  0
   28.0280   26.7930   48.9760 C   0  0  0  0  0  0  0  0  0  0  0  0
   27.0120   26.5330   49.2780 H   0  0  0  0  0  0  0  0  0  0  0  0
   28.4860   26.6350   47.7100 N   0  0  0  0  0  0  0  0  0  0  0  0
   29.7560   27.0520   47.7080 C   0  0  0  0  0  0  0  0  0  0  0  0
   30.6790   27.1020   46.6650 C   0  0  0  0  0  0  0  0  0  0  0  0
   28.9340   27.5330   50.7950 H   0  0  0  0  0  0  0  0  0  0  0  0
   37.9340   32.7710   49.3600 C   0  0  0  0  0  0  0  0  0  0  0  0
   38.8920   32.7150   48.3220 C   0  0  0  0  0  0  0  0  0  0  0  0
   38.7750   31.6830   47.3710 C   0  0  0  0  0  0  0  0  0  0  0  0
   37.7530   30.8020   47.5020 N   0  0  0  0  0  0  0  0  0  0  0  0
   36.8660   30.8970   48.5090 C   0  0  0  0  0  0  0  0  0  0  0  0
   36.9360   31.8600   49.4360 N   0  0  0  0  0  0  0  0  0  0  0  0
   38.0440   33.5750   50.0810 H   0  0  0  0  0  0  0  0  0  0  0  0
   39.6990   33.3950   48.2000 H   0  0  0  0  0  0  0  0  0  0  0  0
   39.4750   31.5820   46.5510 H   0  0  0  0  0  0  0  0  0  0  0  0
  1  2  2  0  0  0  0
  2  6  1  0  0  0  0
  3  2  1  0  0  0  0
  3  7  1  0  0  0  0
  4  3  2  0  0  0  0
  5  4  1  0  0  0  0
  5  1  1  0  0  0  0
  8  9  1  0  0  0  0
  9  4  1  0  0  0  0
  9 10  2  0  0  0  0
 10 11  1  0  0  0  0
 12 10  1  0  0  0  0
 12 13  1  0  0  0  0
 13 19  1  0  0  0  0
 14 15  1  0  0  0  0
 14 13  1  0  0  0  0
 16 14  2  0  0  0  0
 17 16  1  0  0  0  0
 17 12  2  0  0  0  0
 18  8  2  0  0  0  0
 18 17  1  0  0  0  0
 20 25  1  0  0  0  0
 20 26  1  0  0  0  0
 21 20  2  0  0  0  0
 22 23  2  0  0  0  0
 22 21  1  0  0  0  0
 23 24  1  0  0  0  0
 24  1  1  0  0  0  0
 24 25  2  0  0  0  0
 27 21  1  0  0  0  0
 28 22  1  0  0  0  0
M  END
>  <minimizedAffinity>
-5.74939108

>  <minimizedRMSD>
0.762076139

$$$$
