
 OpenBabel03272501223D

 43 47  0  0  0  0  0  0  0  0999 V2000
   37.0140   32.5310   43.5010 Cl  0  0  0  0  0  0  0  0  0  0  0  0
   38.5190   31.6640   43.6300 C   0  0  0  0  0  0  0  0  0  0  0  0
   39.4110   32.1600   44.5790 C   0  0  0  0  0  0  0  0  0  0  0  0
   40.6160   31.4840   44.6970 C   0  0  0  0  0  0  0  0  0  0  0  0
   40.9570   30.3800   43.9440 C   0  0  0  0  0  0  0  0  0  0  0  0
   40.0540   29.9070   43.0100 C   0  0  0  0  0  0  0  0  0  0  0  0
   38.8350   30.5670   42.8690 C   0  0  0  0  0  0  0  0  0  0  0  0
   41.3720   31.8020   45.4110 H   0  0  0  0  0  0  0  0  0  0  0  0
   41.9060   29.8820   44.0680 H   0  0  0  0  0  0  0  0  0  0  0  0
   40.3340   29.0500   42.4340 H   0  0  0  0  0  0  0  0  0  0  0  0
   36.9720   29.0980   42.3070 C   0  0  0  0  0  0  0  0  0  0  0  0
   37.8710   30.0820   41.8890 C   0  0  0  0  0  0  0  0  0  0  0  0
   37.7650   30.5090   40.5810 C   0  0  0  0  0  0  0  0  0  0  0  0
   38.4560   31.2670   40.2580 H   0  0  0  0  0  0  0  0  0  0  0  0
   36.8330   30.0120   39.7070 C   0  0  0  0  0  0  0  0  0  0  0  0
   36.5960   30.3130   38.4170 N   0  0  0  0  0  0  0  0  0  0  0  0
   35.5670   29.5400   38.0100 C   0  0  0  0  0  0  0  0  0  0  0  0
   35.2010   29.6130   36.9950 H   0  0  0  0  0  0  0  0  0  0  0  0
   35.1730   28.7670   39.0480 N   0  0  0  0  0  0  0  0  0  0  0  0
   35.9410   29.0310   40.1310 C   0  0  0  0  0  0  0  0  0  0  0  0
   36.0290   28.5900   41.4360 C   0  0  0  0  0  0  0  0  0  0  0  0
   37.1260   31.0170   37.8630 H   0  0  0  0  0  0  0  0  0  0  0  0
   39.2410   33.2340   45.4050 O   0  0  0  0  0  0  0  0  0  0  0  0
   38.3350   32.2350   47.4120 C   0  0  0  0  0  0  0  0  0  0  0  0
   38.1650   32.1120   48.7890 C   0  0  0  0  0  0  0  0  0  0  0  0
   38.8650   33.0300   49.5520 C   0  0  0  0  0  0  0  0  0  0  0  0
   39.6730   33.9960   48.9540 C   0  0  0  0  0  0  0  0  0  0  0  0
   39.7970   34.0630   47.5750 C   0  0  0  0  0  0  0  0  0  0  0  0
   39.1130   33.1620   46.7950 C   0  0  0  0  0  0  0  0  0  0  0  0
   38.7390   32.9410   50.6230 H   0  0  0  0  0  0  0  0  0  0  0  0
   40.1830   34.6730   49.6260 H   0  0  0  0  0  0  0  0  0  0  0  0
   40.4330   34.8250   47.1420 H   0  0  0  0  0  0  0  0  0  0  0  0
   35.9350   31.2160   49.3240 C   0  0  0  0  0  0  0  0  0  0  0  0
   37.3280   31.1100   49.3880 C   0  0  0  0  0  0  0  0  0  0  0  0
   37.8660   29.9950   50.0540 C   0  0  0  0  0  0  0  0  0  0  0  0
   37.0050   29.0840   50.5980 N   0  0  0  0  0  0  0  0  0  0  0  0
   35.6570   29.2340   50.5080 C   0  0  0  0  0  0  0  0  0  0  0  0
   35.1260   30.3020   49.8700 N   0  0  0  0  0  0  0  0  0  0  0  0
   35.4800   32.0550   48.8210 H   0  0  0  0  0  0  0  0  0  0  0  0
   38.9240   29.9180   50.1010 H   0  0  0  0  0  0  0  0  0  0  0  0
   34.9570   28.5370   50.9240 H   0  0  0  0  0  0  0  0  0  0  0  0
   37.6560   31.3360   46.5540 O   0  0  0  0  0  0  0  0  0  0  0  0
   38.0670   30.4650   46.2760 H   0  0  0  0  0  0  0  0  0  0  0  0
  1  2  1  0  0  0  0
  2  3  1  0  0  0  0
  3  4  2  0  0  0  0
  3 23  1  0  0  0  0
  4  8  1  0  0  0  0
  5  9  1  0  0  0  0
  5  4  1  0  0  0  0
  6  5  2  0  0  0  0
  7  6  1  0  0  0  0
  7  2  2  0  0  0  0
 10  6  1  0  0  0  0
 12 11  1  0  0  0  0
 12  7  1  0  0  0  0
 13 12  2  0  0  0  0
 14 13  1  0  0  0  0
 15 20  2  0  0  0  0
 15 13  1  0  0  0  0
 16 15  1  0  0  0  0
 17 16  1  0  0  0  0
 17 19  2  0  0  0  0
 18 17  1  0  0  0  0
 19 20  1  0  0  0  0
 20 21  1  0  0  0  0
 21 11  2  0  0  0  0
 22 16  1  0  0  0  0
 23 29  1  0  0  0  0
 24 25  1  0  0  0  0
 25 34  1  0  0  0  0
 25 26  2  0  0  0  0
 26 30  1  0  0  0  0
 27 26  1  0  0  0  0
 27 31  1  0  0  0  0
 28 27  2  0  0  0  0
 29 24  2  0  0  0  0
 29 28  1  0  0  0  0
 32 28  1  0  0  0  0
 33 34  2  0  0  0  0
 33 38  1  0  0  0  0
 34 35  1  0  0  0  0
 35 40  1  0  0  0  0
 35 36  2  0  0  0  0
 37 36  1  0  0  0  0
 37 41  1  0  0  0  0
 38 37  2  0  0  0  0
 39 33  1  0  0  0  0
 42 24  1  0  0  0  0
 43 42  1  0  0  0  0
M  END
>  <minimizedAffinity>
-5.42723751

>  <minimizedRMSD>
0.184847787

$$$$
