
 OpenBabel03272507473D

 49 54  0  0  1  0  0  0  0  0999 V2000
   32.9720   28.8170   46.4770 N   0  0  0  0  0  0  0  0  0  0  0  0
   33.3380   28.2570   47.7330 C   0  0  0  0  0  0  0  0  0  0  0  0
   34.4730   28.8870   48.4430 C   0  0  0  0  0  0  0  0  0  0  0  0
   35.5780   29.3850   47.6280 C   0  0  1  0  0  0  0  0  0  0  0  0
   35.1190   29.9040   46.2550 C   0  0  0  0  0  0  0  0  0  0  0  0
   34.1680   28.8580   45.6620 C   0  0  0  0  0  0  0  0  0  0  0  0
   32.4270   28.2410   48.3740 H   0  0  0  0  0  0  0  0  0  0  0  0
   33.5550   27.1610   47.5640 H   0  0  0  0  0  0  0  0  0  0  0  0
   33.9740   29.7980   48.9150 H   0  0  0  0  0  0  0  0  0  0  0  0
   34.7970   28.2510   49.2820 H   0  0  0  0  0  0  0  0  0  0  0  0
   36.2890   28.5590   47.3710 H   0  0  0  0  0  0  0  0  0  0  0  0
   35.9770   29.9690   45.5620 H   0  0  0  0  0  0  0  0  0  0  0  0
   34.5250   30.8160   46.3550 H   0  0  0  0  0  0  0  0  0  0  0  0
   34.6970   27.8780   45.6070 H   0  0  0  0  0  0  0  0  0  0  0  0
   33.8930   29.1080   44.6310 H   0  0  0  0  0  0  0  0  0  0  0  0
   36.0350   30.8830   49.5180 C   0  0  0  0  0  0  0  0  0  0  0  0
   36.3480   30.5050   48.2250 C   0  0  0  0  0  0  0  0  0  0  0  0
   37.3020   31.1270   47.4650 C   0  0  0  0  0  0  0  0  0  0  0  0
   37.9890   32.1970   48.0310 C   0  0  0  0  0  0  0  0  0  0  0  0
   37.6750   32.5710   49.3140 C   0  0  0  0  0  0  0  0  0  0  0  0
   36.7060   31.9410   50.0900 C   0  0  0  0  0  0  0  0  0  0  0  0
   38.4680   33.6640   49.7080 O   0  0  0  0  0  0  0  0  0  0  0  0
   39.5180   33.7050   48.7450 C   0  0  0  0  0  0  0  0  0  0  0  0
   38.9990   33.0650   47.6050 O   0  0  0  0  0  0  0  0  0  0  0  0
   35.3200   30.4670   50.2150 H   0  0  0  0  0  0  0  0  0  0  0  0
   37.5250   30.8140   46.4700 H   0  0  0  0  0  0  0  0  0  0  0  0
   36.5120   32.2970   51.1050 H   0  0  0  0  0  0  0  0  0  0  0  0
   39.7580   34.7540   48.4500 H   0  0  0  0  0  0  0  0  0  0  0  0
   40.4070   33.1720   49.1490 H   0  0  0  0  0  0  0  0  0  0  0  0
   31.6800   29.2620   46.0540 C   0  0  0  0  0  0  0  0  0  0  0  0
   31.3850   29.9010   44.8550 C   0  0  0  0  0  0  0  0  0  0  0  0
   30.0700   30.2390   44.6220 C   0  0  0  0  0  0  0  0  0  0  0  0
   29.1330   29.9370   45.5600 N   0  0  0  0  0  0  0  0  0  0  0  0
   29.4400   29.3180   46.7140 C   0  0  0  0  0  0  0  0  0  0  0  0
   30.7200   28.9900   46.9400 N   0  0  0  0  0  0  0  0  0  0  0  0
   32.2190   30.0770   44.2070 H   0  0  0  0  0  0  0  0  0  0  0  0
   29.8640   30.7330   43.6860 H   0  0  0  0  0  0  0  0  0  0  0  0
   27.0720   29.0920   47.3120 C   0  0  0  0  0  3  0  0  0  0  0  0
   28.3960   29.0130   47.6960 C   0  0  0  0  0  0  0  0  0  0  0  0
   28.7440   28.6520   48.9890 C   0  0  0  0  0  0  0  0  0  0  0  0
   29.7900   28.5950   49.2710 H   0  0  0  0  0  0  0  0  0  0  0  0
   27.7500   28.3670   49.9030 C   0  0  0  0  0  0  0  0  0  0  0  0
   27.8820   28.0010   51.1920 N   0  0  0  0  0  0  0  0  0  0  0  0
   26.5930   27.8500   51.6150 C   0  0  0  0  0  0  0  0  0  0  0  0
   26.2170   27.5650   52.5790 H   0  0  0  0  0  0  0  0  0  0  0  0
   25.7370   28.1120   50.6300 N   0  0  0  0  0  0  0  0  0  0  0  0
   26.4190   28.4380   49.5430 C   0  0  0  0  0  0  0  0  0  0  0  0
   26.0730   28.8030   48.2400 C   0  0  0  0  0  3  0  0  0  0  0  0
   28.7130   27.8450   51.8040 H   0  0  0  0  0  0  0  0  0  0  0  0
  1  2  1  0  0  0  0
  2  7  1  0  0  0  0
  2  3  1  0  0  0  0
  3  9  1  0  0  0  0
  3 10  1  0  0  0  0
  4 11  1  6  0  0  0
  4 17  1  0  0  0  0
  4  3  1  0  0  0  0
  5 13  1  0  0  0  0
  5  4  1  0  0  0  0
  6  5  1  0  0  0  0
  6  1  1  0  0  0  0
  8  2  1  0  0  0  0
 12  5  1  0  0  0  0
 14  6  1  0  0  0  0
 15  6  1  0  0  0  0
 16 21  1  0  0  0  0
 16 25  1  0  0  0  0
 17 16  2  0  0  0  0
 18 19  2  0  0  0  0
 18 17  1  0  0  0  0
 19 20  1  0  0  0  0
 20 22  1  0  0  0  0
 20 21  2  0  0  0  0
 21 27  1  0  0  0  0
 23 29  1  0  0  0  0
 23 22  1  0  0  0  0
 24 19  1  0  0  0  0
 24 23  1  0  0  0  0
 26 18  1  0  0  0  0
 28 23  1  0  0  0  0
 30  1  1  0  0  0  0
 30 35  1  0  0  0  0
 31 30  2  0  0  0  0
 32 31  1  0  0  0  0
 32 33  2  0  0  0  0
 33 34  1  0  0  0  0
 34 35  2  0  0  0  0
 34 39  1  0  0  0  0
 36 31  1  0  0  0  0
 37 32  1  0  0  0  0
 38 39  2  0  0  0  0
 38 48  1  0  0  0  0
 39 40  1  0  0  0  0
 40 41  1  0  0  0  0
 40 42  2  0  0  0  0
 42 43  1  0  0  0  0
 43 44  1  0  0  0  0
 43 49  1  0  0  0  0
 44 45  1  0  0  0  0
 46 44  2  0  0  0  0
 47 42  1  0  0  0  0
 47 46  1  0  0  0  0
 48 47  2  0  0  0  0
M  END
>  <minimizedAffinity>
-7.65075302

>  <minimizedRMSD>
1.52542317

$$$$
