
 OpenBabel03272503183D

 28 31  0  0  0  0  0  0  0  0999 V2000
   38.2270   25.6170   35.2300 C   0  0  0  0  0  0  0  0  0  0  0  0
   37.3350   26.6040   35.3600 C   0  0  0  0  0  0  0  0  0  0  0  0
   37.0440   27.4200   34.3320 C   0  0  0  0  0  0  0  0  0  0  0  0
   37.7170   27.1780   33.1390 C   0  0  0  0  0  0  0  0  0  0  0  0
   38.7790   25.7310   33.5720 S   0  0  0  0  0  0  0  0  0  0  0  0
   36.8440   26.7290   36.3420 H   0  0  0  0  0  0  0  0  0  0  0  0
   36.3460   28.2440   34.3210 H   0  0  0  0  0  0  0  0  0  0  0  0
   36.5780   28.6330   31.5730 C   0  0  0  0  0  3  0  0  0  0  0  0
   37.6640   27.8310   31.8540 C   0  0  0  0  0  0  0  0  0  0  0  0
   38.7000   27.6120   30.9870 C   0  0  0  0  0  0  0  0  0  0  0  0
   39.5490   26.9720   31.2330 H   0  0  0  0  0  0  0  0  0  0  0  0
   38.6770   28.2280   29.7410 C   0  0  0  0  0  0  0  0  0  0  0  0
   39.5400   28.1950   28.7090 N   0  0  0  0  0  0  0  0  0  0  0  0
   39.0170   28.9890   27.7300 C   0  0  0  0  0  0  0  0  0  0  0  0
   39.4970   29.1630   26.7600 H   0  0  0  0  0  0  0  0  0  0  0  0
   37.8380   29.4980   28.1760 N   0  0  0  0  0  0  0  0  0  0  0  0
   37.5960   29.0410   29.4330 C   0  0  0  0  0  0  0  0  0  0  0  0
   36.5670   29.2390   30.3310 C   0  0  0  0  0  3  0  0  0  0  0  0
   40.4440   27.6790   28.6280 H   0  0  0  0  0  0  0  0  0  0  0  0
   38.6030   23.4030   38.2470 C   0  0  0  0  0  0  0  0  0  0  0  0
   38.0590   24.3910   37.4040 C   0  0  0  0  0  0  0  0  0  0  0  0
   38.7040   24.6180   36.1780 C   0  0  0  0  0  0  0  0  0  0  0  0
   39.7970   23.8960   35.8670 N   0  0  0  0  0  0  0  0  0  0  0  0
   40.2910   22.9590   36.6940 C   0  0  0  0  0  0  0  0  0  0  0  0
   39.7000   22.7160   37.8720 N   0  0  0  0  0  0  0  0  0  0  0  0
   38.0160   23.3270   39.1530 H   0  0  0  0  0  0  0  0  0  0  0  0
   37.1990   24.9920   37.5970 H   0  0  0  0  0  0  0  0  0  0  0  0
   41.1770   22.3860   36.4230 H   0  0  0  0  0  0  0  0  0  0  0  0
  1  2  2  0  0  0  0
  1 22  1  0  0  0  0
  2  6  1  0  0  0  0
  3  2  1  0  0  0  0
  4  5  1  0  0  0  0
  4  3  2  0  0  0  0
  5  1  1  0  0  0  0
  7  3  1  0  0  0  0
  8  9  1  0  0  0  0
  9  4  1  0  0  0  0
 10 11  1  0  0  0  0
 10  9  2  0  0  0  0
 12 10  1  0  0  0  0
 13 12  1  0  0  0  0
 14 16  2  0  0  0  0
 14 13  1  0  0  0  0
 15 14  1  0  0  0  0
 16 17  1  0  0  0  0
 17 12  2  0  0  0  0
 17 18  1  0  0  0  0
 18  8  2  0  0  0  0
 19 13  1  0  0  0  0
 20 26  1  0  0  0  0
 21 27  1  0  0  0  0
 21 20  2  0  0  0  0
 22 21  1  0  0  0  0
 23 22  2  0  0  0  0
 23 24  1  0  0  0  0
 24 25  2  0  0  0  0
 25 20  1  0  0  0  0
 28 24  1  0  0  0  0
M  END
>  <minimizedAffinity>
-5.31363964

$$$$

 OpenBabel03272503183D

 28 31  0  0  0  0  0  0  0  0999 V2000
   37.3460   27.5340   33.9000 C   0  0  0  0  0  0  0  0  0  0  0  0
   37.5450   27.8630   35.1810 C   0  0  0  0  0  0  0  0  0  0  0  0
   38.1280   27.0070   36.0370 C   0  0  0  0  0  0  0  0  0  0  0  0
   38.5070   25.7730   35.5180 C   0  0  0  0  0  0  0  0  0  0  0  0
   37.9870   25.9110   33.7530 S   0  0  0  0  0  0  0  0  0  0  0  0
   37.2140   28.8640   35.5130 H   0  0  0  0  0  0  0  0  0  0  0  0
   38.3380   27.1620   37.0850 H   0  0  0  0  0  0  0  0  0  0  0  0
   38.5910   24.1040   37.2720 C   0  0  0  0  0  3  0  0  0  0  0  0
   39.1440   24.6300   36.1230 C   0  0  0  0  0  0  0  0  0  0  0  0
   40.2680   24.1340   35.5170 C   0  0  0  0  0  0  0  0  0  0  0  0
   40.6870   24.5680   34.6090 H   0  0  0  0  0  0  0  0  0  0  0  0
   40.9040   23.0330   36.0770 C   0  0  0  0  0  0  0  0  0  0  0  0
   42.0020   22.3470   35.7060 N   0  0  0  0  0  0  0  0  0  0  0  0
   42.1760   21.3520   36.6230 C   0  0  0  0  0  0  0  0  0  0  0  0
   42.9930   20.6220   36.5880 H   0  0  0  0  0  0  0  0  0  0  0  0
   41.1820   21.4420   37.5460 N   0  0  0  0  0  0  0  0  0  0  0  0
   40.3670   22.4840   37.2320 C   0  0  0  0  0  0  0  0  0  0  0  0
   39.2340   23.0090   37.8190 C   0  0  0  0  0  3  0  0  0  0  0  0
   42.6280   22.5080   34.8860 H   0  0  0  0  0  0  0  0  0  0  0  0
   36.6370   29.0010   30.5110 C   0  0  0  0  0  0  0  0  0  0  0  0
   37.2930   28.2480   31.5030 C   0  0  0  0  0  0  0  0  0  0  0  0
   36.7480   28.2760   32.7970 C   0  0  0  0  0  0  0  0  0  0  0  0
   35.6430   29.0080   33.0290 N   0  0  0  0  0  0  0  0  0  0  0  0
   35.0400   29.7150   32.0590 C   0  0  0  0  0  0  0  0  0  0  0  0
   35.5320   29.7110   30.8130 N   0  0  0  0  0  0  0  0  0  0  0  0
   37.1530   28.8950   29.5650 H   0  0  0  0  0  0  0  0  0  0  0  0
   38.1690   27.6520   31.3780 H   0  0  0  0  0  0  0  0  0  0  0  0
   34.1460   30.3010   32.2690 H   0  0  0  0  0  0  0  0  0  0  0  0
  1  2  2  0  0  0  0
  2  6  1  0  0  0  0
  2  3  1  0  0  0  0
  3  7  1  0  0  0  0
  4  3  2  0  0  0  0
  4  9  1  0  0  0  0
  5  1  1  0  0  0  0
  5  4  1  0  0  0  0
  8 18  1  0  0  0  0
  9  8  2  0  0  0  0
 10 12  2  0  0  0  0
 10  9  1  0  0  0  0
 11 10  1  0  0  0  0
 12 17  1  0  0  0  0
 13 12  1  0  0  0  0
 13 14  1  0  0  0  0
 14 16  2  0  0  0  0
 15 14  1  0  0  0  0
 17 16  1  0  0  0  0
 17 18  2  0  0  0  0
 19 13  1  0  0  0  0
 20 25  2  0  0  0  0
 20 21  1  0  0  0  0
 21 22  2  0  0  0  0
 22 23  1  0  0  0  0
 22  1  1  0  0  0  0
 24 28  1  0  0  0  0
 24 23  2  0  0  0  0
 25 24  1  0  0  0  0
 26 20  1  0  0  0  0
 27 21  1  0  0  0  0
M  END
>  <minimizedAffinity>
-5.28650045

$$$$

 OpenBabel03272503183D

 28 31  0  0  0  0  0  0  0  0999 V2000
   38.2940   25.1420   35.1000 C   0  0  0  0  0  0  0  0  0  0  0  0
   37.8800   24.9630   33.8410 C   0  0  0  0  0  0  0  0  0  0  0  0
   37.2560   25.9450   33.1670 C   0  0  0  0  0  0  0  0  0  0  0  0
   37.0700   27.1440   33.8480 C   0  0  0  0  0  0  0  0  0  0  0  0
   37.8320   26.7860   35.4910 S   0  0  0  0  0  0  0  0  0  0  0  0
   38.0660   23.9810   33.3720 H   0  0  0  0  0  0  0  0  0  0  0  0
   36.8810   25.9150   32.1550 H   0  0  0  0  0  0  0  0  0  0  0  0
   35.8870   29.1750   34.4340 C   0  0  0  0  0  3  0  0  0  0  0  0
   36.4570   28.3880   33.4550 C   0  0  0  0  0  0  0  0  0  0  0  0
   36.4770   28.7140   32.1250 C   0  0  0  0  0  0  0  0  0  0  0  0
   36.9330   28.0750   31.3690 H   0  0  0  0  0  0  0  0  0  0  0  0
   35.8930   29.9070   31.7160 C   0  0  0  0  0  0  0  0  0  0  0  0
   35.7670   30.4730   30.5010 N   0  0  0  0  0  0  0  0  0  0  0  0
   35.1040   31.6520   30.6810 C   0  0  0  0  0  0  0  0  0  0  0  0
   34.8520   32.3430   29.8670 H   0  0  0  0  0  0  0  0  0  0  0  0
   34.8330   31.7940   32.0050 N   0  0  0  0  0  0  0  0  0  0  0  0
   35.3140   30.7180   32.6820 C   0  0  0  0  0  0  0  0  0  0  0  0
   35.3110   30.3590   34.0140 C   0  0  0  0  0  3  0  0  0  0  0  0
   36.0950   30.1170   29.5760 H   0  0  0  0  0  0  0  0  0  0  0  0
   39.1990   23.0680   38.1030 C   0  0  0  0  0  0  0  0  0  0  0  0
   38.4540   23.9410   37.2880 C   0  0  0  0  0  0  0  0  0  0  0  0
   38.9810   24.2490   36.0240 C   0  0  0  0  0  0  0  0  0  0  0  0
   40.1560   23.7070   35.6520 N   0  0  0  0  0  0  0  0  0  0  0  0
   40.8420   22.8760   36.4540 C   0  0  0  0  0  0  0  0  0  0  0  0
   40.3680   22.5600   37.6670 N   0  0  0  0  0  0  0  0  0  0  0  0
   38.6850   22.9120   39.0430 H   0  0  0  0  0  0  0  0  0  0  0  0
   37.5210   24.3990   37.5290 H   0  0  0  0  0  0  0  0  0  0  0  0
   41.7910   22.4490   36.1330 H   0  0  0  0  0  0  0  0  0  0  0  0
  1  5  1  0  0  0  0
  1 22  1  0  0  0  0
  2  1  2  0  0  0  0
  3  2  1  0  0  0  0
  3  4  2  0  0  0  0
  4  5  1  0  0  0  0
  6  2  1  0  0  0  0
  7  3  1  0  0  0  0
  9  4  1  0  0  0  0
  9  8  2  0  0  0  0
 10  9  1  0  0  0  0
 11 10  1  0  0  0  0
 12 10  2  0  0  0  0
 12 17  1  0  0  0  0
 13 14  1  0  0  0  0
 13 12  1  0  0  0  0
 14 16  2  0  0  0  0
 15 14  1  0  0  0  0
 16 17  1  0  0  0  0
 17 18  2  0  0  0  0
 18  8  1  0  0  0  0
 19 13  1  0  0  0  0
 20 26  1  0  0  0  0
 21 27  1  0  0  0  0
 21 20  2  0  0  0  0
 22 21  1  0  0  0  0
 23 22  2  0  0  0  0
 23 24  1  0  0  0  0
 24 25  2  0  0  0  0
 25 20  1  0  0  0  0
 28 24  1  0  0  0  0
M  END
>  <minimizedAffinity>
-5.20680761

$$$$

 OpenBabel03272503183D

 28 31  0  0  0  0  0  0  0  0999 V2000
   38.6070   25.4680   35.4440 C   0  0  0  0  0  0  0  0  0  0  0  0
   38.4960   26.6330   36.0910 C   0  0  0  0  0  0  0  0  0  0  0  0
   37.8300   27.6690   35.5520 C   0  0  0  0  0  0  0  0  0  0  0  0
   37.2700   27.4590   34.2950 C   0  0  0  0  0  0  0  0  0  0  0  0
   37.7470   25.7120   33.9380 S   0  0  0  0  0  0  0  0  0  0  0  0
   38.9700   26.7170   37.0860 H   0  0  0  0  0  0  0  0  0  0  0  0
   37.6770   28.6490   35.9790 H   0  0  0  0  0  0  0  0  0  0  0  0
   36.8070   28.3300   32.0830 C   0  0  0  0  0  3  0  0  0  0  0  0
   36.5030   28.3190   33.4280 C   0  0  0  0  0  0  0  0  0  0  0  0
   35.5150   29.0770   33.9980 C   0  0  0  0  0  0  0  0  0  0  0  0
   35.2950   29.0510   35.0660 H   0  0  0  0  0  0  0  0  0  0  0  0
   34.7590   29.9160   33.1880 C   0  0  0  0  0  0  0  0  0  0  0  0
   33.7460   30.7570   33.4660 N   0  0  0  0  0  0  0  0  0  0  0  0
   33.3740   31.3330   32.2870 C   0  0  0  0  0  0  0  0  0  0  0  0
   32.5660   32.0680   32.1920 H   0  0  0  0  0  0  0  0  0  0  0  0
   34.1650   30.8360   31.2990 N   0  0  0  0  0  0  0  0  0  0  0  0
   35.0440   29.9450   31.8300 C   0  0  0  0  0  0  0  0  0  0  0  0
   36.0480   29.1690   31.2890 C   0  0  0  0  0  3  0  0  0  0  0  0
   33.3000   30.9620   34.3880 H   0  0  0  0  0  0  0  0  0  0  0  0
   40.6140   22.2890   35.3500 C   0  0  0  0  0  0  0  0  0  0  0  0
   40.0220   23.4810   34.8910 C   0  0  0  0  0  0  0  0  0  0  0  0
   39.2640   24.2200   35.8120 C   0  0  0  0  0  0  0  0  0  0  0  0
   39.1370   23.7660   37.0730 N   0  0  0  0  0  0  0  0  0  0  0  0
   39.7160   22.6240   37.4800 C   0  0  0  0  0  0  0  0  0  0  0  0
   40.4460   21.8930   36.6270 N   0  0  0  0  0  0  0  0  0  0  0  0
   41.1680   21.8190   34.5470 H   0  0  0  0  0  0  0  0  0  0  0  0
   40.0880   23.8890   33.9070 H   0  0  0  0  0  0  0  0  0  0  0  0
   39.6000   22.2740   38.5050 H   0  0  0  0  0  0  0  0  0  0  0  0
  1 22  1  0  0  0  0
  1  2  2  0  0  0  0
  2  6  1  0  0  0  0
  3  7  1  0  0  0  0
  3  2  1  0  0  0  0
  4  3  2  0  0  0  0
  5  4  1  0  0  0  0
  5  1  1  0  0  0  0
  8  9  1  0  0  0  0
  9 10  2  0  0  0  0
  9  4  1  0  0  0  0
 10 11  1  0  0  0  0
 12 13  1  0  0  0  0
 12 10  1  0  0  0  0
 13 19  1  0  0  0  0
 14 13  1  0  0  0  0
 15 14  1  0  0  0  0
 16 17  1  0  0  0  0
 16 14  2  0  0  0  0
 17 12  2  0  0  0  0
 18 17  1  0  0  0  0
 18  8  2  0  0  0  0
 20 25  1  0  0  0  0
 21 20  2  0  0  0  0
 21 22  1  0  0  0  0
 22 23  2  0  0  0  0
 23 24  1  0  0  0  0
 24 28  1  0  0  0  0
 25 24  2  0  0  0  0
 26 20  1  0  0  0  0
 27 21  1  0  0  0  0
M  END
>  <minimizedAffinity>
-5.14852715

$$$$

 OpenBabel03272503183D

 28 31  0  0  0  0  0  0  0  0999 V2000
   37.4450   28.2570   31.7640 C   0  0  0  0  0  0  0  0  0  0  0  0
   36.6020   28.2820   32.8030 C   0  0  0  0  0  0  0  0  0  0  0  0
   36.7660   27.4570   33.8520 C   0  0  0  0  0  0  0  0  0  0  0  0
   37.8510   26.5880   33.7940 C   0  0  0  0  0  0  0  0  0  0  0  0
   38.6130   27.0160   32.1680 S   0  0  0  0  0  0  0  0  0  0  0  0
   35.7660   29.0030   32.7700 H   0  0  0  0  0  0  0  0  0  0  0  0
   36.1540   27.3890   34.7390 H   0  0  0  0  0  0  0  0  0  0  0  0
   39.2750   24.6860   34.2660 C   0  0  0  0  0  3  0  0  0  0  0  0
   38.3300   25.5860   34.7130 C   0  0  0  0  0  0  0  0  0  0  0  0
   37.8130   25.5880   35.9810 C   0  0  0  0  0  0  0  0  0  0  0  0
   37.0650   26.3100   36.3110 H   0  0  0  0  0  0  0  0  0  0  0  0
   38.2550   24.6330   36.8900 C   0  0  0  0  0  0  0  0  0  0  0  0
   37.9310   24.4010   38.1750 N   0  0  0  0  0  0  0  0  0  0  0  0
   38.6730   23.3320   38.5840 C   0  0  0  0  0  0  0  0  0  0  0  0
   38.6280   22.9040   39.5930 H   0  0  0  0  0  0  0  0  0  0  0  0
   39.4440   22.9220   37.5420 N   0  0  0  0  0  0  0  0  0  0  0  0
   39.2070   23.7170   36.4650 C   0  0  0  0  0  0  0  0  0  0  0  0
   39.7060   23.7420   35.1790 C   0  0  0  0  0  3  0  0  0  0  0  0
   37.2500   24.9120   38.7810 H   0  0  0  0  0  0  0  0  0  0  0  0
   37.9880   29.3510   28.2080 C   0  0  0  0  0  0  0  0  0  0  0  0
   38.0020   28.5140   29.3390 C   0  0  0  0  0  0  0  0  0  0  0  0
   37.4790   29.0360   30.5330 C   0  0  0  0  0  0  0  0  0  0  0  0
   36.9970   30.2920   30.5450 N   0  0  0  0  0  0  0  0  0  0  0  0
   36.9970   31.0660   29.4460 C   0  0  0  0  0  0  0  0  0  0  0  0
   37.4880   30.6000   28.2900 N   0  0  0  0  0  0  0  0  0  0  0  0
   38.4150   28.8320   27.3590 H   0  0  0  0  0  0  0  0  0  0  0  0
   38.3700   27.5130   29.3890 H   0  0  0  0  0  0  0  0  0  0  0  0
   36.6020   32.0800   29.4780 H   0  0  0  0  0  0  0  0  0  0  0  0
  1  5  1  0  0  0  0
  1  2  2  0  0  0  0
  2  3  1  0  0  0  0
  3  7  1  0  0  0  0
  4  3  2  0  0  0  0
  4  9  1  0  0  0  0
  5  4  1  0  0  0  0
  6  2  1  0  0  0  0
  8  9  2  0  0  0  0
  8 18  1  0  0  0  0
  9 10  1  0  0  0  0
 10 11  1  0  0  0  0
 10 12  2  0  0  0  0
 12 13  1  0  0  0  0
 13 14  1  0  0  0  0
 13 19  1  0  0  0  0
 14 15  1  0  0  0  0
 16 14  2  0  0  0  0
 17 12  1  0  0  0  0
 17 16  1  0  0  0  0
 18 17  2  0  0  0  0
 20 25  2  0  0  0  0
 20 21  1  0  0  0  0
 21 27  1  0  0  0  0
 21 22  2  0  0  0  0
 22 23  1  0  0  0  0
 22  1  1  0  0  0  0
 24 28  1  0  0  0  0
 24 23  2  0  0  0  0
 25 24  1  0  0  0  0
 26 20  1  0  0  0  0
M  END
>  <minimizedAffinity>
-5.12288189

$$$$

 OpenBabel03272503183D

 28 31  0  0  0  0  0  0  0  0999 V2000
   38.2080   24.8660   34.7270 C   0  0  0  0  0  0  0  0  0  0  0  0
   37.8880   24.3180   33.5500 C   0  0  0  0  0  0  0  0  0  0  0  0
   37.6290   25.0810   32.4740 C   0  0  0  0  0  0  0  0  0  0  0  0
   37.7130   26.4570   32.6550 C   0  0  0  0  0  0  0  0  0  0  0  0
   38.1800   26.5930   34.4360 S   0  0  0  0  0  0  0  0  0  0  0  0
   37.8430   23.2150   33.4910 H   0  0  0  0  0  0  0  0  0  0  0  0
   37.3630   24.7510   31.4810 H   0  0  0  0  0  0  0  0  0  0  0  0
   36.6800   28.5890   32.1490 C   0  0  0  0  0  3  0  0  0  0  0  0
   37.5090   27.5610   31.7510 C   0  0  0  0  0  0  0  0  0  0  0  0
   38.1520   27.5200   30.5430 C   0  0  0  0  0  0  0  0  0  0  0  0
   38.8030   26.6950   30.2500 H   0  0  0  0  0  0  0  0  0  0  0  0
   37.9740   28.5690   29.6490 C   0  0  0  0  0  0  0  0  0  0  0  0
   38.4700   28.7920   28.4180 N   0  0  0  0  0  0  0  0  0  0  0  0
   37.9620   29.9860   27.9960 C   0  0  0  0  0  0  0  0  0  0  0  0
   38.1870   30.4380   27.0230 H   0  0  0  0  0  0  0  0  0  0  0  0
   37.1600   30.4790   28.9760 N   0  0  0  0  0  0  0  0  0  0  0  0
   37.1460   29.6160   30.0260 C   0  0  0  0  0  0  0  0  0  0  0  0
   36.5110   29.6260   31.2510 C   0  0  0  0  0  3  0  0  0  0  0  0
   39.1190   28.1960   27.8550 H   0  0  0  0  0  0  0  0  0  0  0  0
   39.8290   22.8570   37.4620 C   0  0  0  0  0  0  0  0  0  0  0  0
   39.6090   23.3830   36.1750 C   0  0  0  0  0  0  0  0  0  0  0  0
   38.5280   24.2640   36.0160 C   0  0  0  0  0  0  0  0  0  0  0  0
   37.7600   24.5610   37.0810 N   0  0  0  0  0  0  0  0  0  0  0  0
   37.9970   24.0420   38.2970 C   0  0  0  0  0  0  0  0  0  0  0  0
   39.0210   23.1990   38.4850 N   0  0  0  0  0  0  0  0  0  0  0  0
   40.6870   22.1980   37.4500 H   0  0  0  0  0  0  0  0  0  0  0  0
   40.1820   23.1830   35.2970 H   0  0  0  0  0  0  0  0  0  0  0  0
   37.3630   24.2970   39.1450 H   0  0  0  0  0  0  0  0  0  0  0  0
  1 22  1  0  0  0  0
  2  1  2  0  0  0  0
  3  4  2  0  0  0  0
  3  2  1  0  0  0  0
  4  5  1  0  0  0  0
  5  1  1  0  0  0  0
  6  2  1  0  0  0  0
  7  3  1  0  0  0  0
  9  8  1  0  0  0  0
  9  4  1  0  0  0  0
 10  9  2  0  0  0  0
 11 10  1  0  0  0  0
 12 17  2  0  0  0  0
 12 10  1  0  0  0  0
 13 12  1  0  0  0  0
 14 13  1  0  0  0  0
 14 16  2  0  0  0  0
 15 14  1  0  0  0  0
 16 17  1  0  0  0  0
 17 18  1  0  0  0  0
 18  8  2  0  0  0  0
 19 13  1  0  0  0  0
 20 25  1  0  0  0  0
 21 20  2  0  0  0  0
 22 21  1  0  0  0  0
 22 23  2  0  0  0  0
 23 24  1  0  0  0  0
 24 25  2  0  0  0  0
 24 28  1  0  0  0  0
 26 20  1  0  0  0  0
 27 21  1  0  0  0  0
M  END
>  <minimizedAffinity>
-5.12176323

$$$$

 OpenBabel03272503183D

 28 31  0  0  0  0  0  0  0  0999 V2000
   38.0600   25.2410   34.9170 C   0  0  0  0  0  0  0  0  0  0  0  0
   38.1160   24.9670   33.6090 C   0  0  0  0  0  0  0  0  0  0  0  0
   37.6600   25.8410   32.6950 C   0  0  0  0  0  0  0  0  0  0  0  0
   37.1340   27.0320   33.1840 C   0  0  0  0  0  0  0  0  0  0  0  0
   37.3280   26.8290   35.0080 S   0  0  0  0  0  0  0  0  0  0  0  0
   38.5490   23.9980   33.3040 H   0  0  0  0  0  0  0  0  0  0  0  0
   37.6530   25.7280   31.6210 H   0  0  0  0  0  0  0  0  0  0  0  0
   37.0940   28.5570   31.3020 C   0  0  0  0  0  3  0  0  0  0  0  0
   36.5660   28.1780   32.5180 C   0  0  0  0  0  0  0  0  0  0  0  0
   35.5310   28.8250   33.1390 C   0  0  0  0  0  0  0  0  0  0  0  0
   35.1310   28.5070   34.1020 H   0  0  0  0  0  0  0  0  0  0  0  0
   34.9630   29.9340   32.5220 C   0  0  0  0  0  0  0  0  0  0  0  0
   33.9570   30.7480   32.8910 N   0  0  0  0  0  0  0  0  0  0  0  0
   33.8180   31.6780   31.9030 C   0  0  0  0  0  0  0  0  0  0  0  0
   33.0720   32.4820   31.9190 H   0  0  0  0  0  0  0  0  0  0  0  0
   34.7420   31.4220   30.9400 N   0  0  0  0  0  0  0  0  0  0  0  0
   35.4760   30.3350   31.2970 C   0  0  0  0  0  0  0  0  0  0  0  0
   36.5200   29.6600   30.6990 C   0  0  0  0  0  3  0  0  0  0  0  0
   33.3700   30.7130   33.7550 H   0  0  0  0  0  0  0  0  0  0  0  0
   39.8900   22.8900   37.2110 C   0  0  0  0  0  0  0  0  0  0  0  0
   39.5670   23.5830   36.0300 C   0  0  0  0  0  0  0  0  0  0  0  0
   38.4820   24.4720   36.0810 C   0  0  0  0  0  0  0  0  0  0  0  0
   37.8070   24.6190   37.2370 N   0  0  0  0  0  0  0  0  0  0  0  0
   38.1420   23.9420   38.3480 C   0  0  0  0  0  0  0  0  0  0  0  0
   39.1720   23.0860   38.3340 N   0  0  0  0  0  0  0  0  0  0  0  0
   40.7400   22.2420   37.0380 H   0  0  0  0  0  0  0  0  0  0  0  0
   40.0630   23.5070   35.0880 H   0  0  0  0  0  0  0  0  0  0  0  0
   37.5830   24.0770   39.2730 H   0  0  0  0  0  0  0  0  0  0  0  0
  1  5  1  0  0  0  0
  1 22  1  0  0  0  0
  2  1  2  0  0  0  0
  3  4  2  0  0  0  0
  3  2  1  0  0  0  0
  4  5  1  0  0  0  0
  6  2  1  0  0  0  0
  7  3  1  0  0  0  0
  8  9  1  0  0  0  0
  9 10  2  0  0  0  0
  9  4  1  0  0  0  0
 10 11  1  0  0  0  0
 12 13  1  0  0  0  0
 12 10  1  0  0  0  0
 13 19  1  0  0  0  0
 14 15  1  0  0  0  0
 14 13  1  0  0  0  0
 16 17  1  0  0  0  0
 16 14  2  0  0  0  0
 17 12  2  0  0  0  0
 18 17  1  0  0  0  0
 18  8  2  0  0  0  0
 20 25  1  0  0  0  0
 21 22  1  0  0  0  0
 21 20  2  0  0  0  0
 22 23  2  0  0  0  0
 23 24  1  0  0  0  0
 24 28  1  0  0  0  0
 25 24  2  0  0  0  0
 26 20  1  0  0  0  0
 27 21  1  0  0  0  0
M  END
>  <minimizedAffinity>
-5.12101793

$$$$

 OpenBabel03272503183D

 28 31  0  0  0  0  0  0  0  0999 V2000
   36.6300   27.3150   32.8290 C   0  0  0  0  0  0  0  0  0  0  0  0
   36.8430   26.1180   32.2710 C   0  0  0  0  0  0  0  0  0  0  0  0
   37.4180   25.1200   32.9640 C   0  0  0  0  0  0  0  0  0  0  0  0
   37.7730   25.4020   34.2800 C   0  0  0  0  0  0  0  0  0  0  0  0
   37.2410   27.1610   34.4620 S   0  0  0  0  0  0  0  0  0  0  0  0
   36.5320   25.9760   31.2210 H   0  0  0  0  0  0  0  0  0  0  0  0
   37.6380   24.1200   32.6210 H   0  0  0  0  0  0  0  0  0  0  0  0
   37.7990   24.5440   36.5450 C   0  0  0  0  0  3  0  0  0  0  0  0
   38.3940   24.5980   35.3020 C   0  0  0  0  0  0  0  0  0  0  0  0
   39.5470   23.9350   34.9750 C   0  0  0  0  0  0  0  0  0  0  0  0
   40.0000   23.9940   33.9850 H   0  0  0  0  0  0  0  0  0  0  0  0
   40.1690   23.1510   35.9400 C   0  0  0  0  0  0  0  0  0  0  0  0
   41.2870   22.4030   35.9030 N   0  0  0  0  0  0  0  0  0  0  0  0
   41.4320   21.8450   37.1390 C   0  0  0  0  0  0  0  0  0  0  0  0
   42.2560   21.1780   37.4180 H   0  0  0  0  0  0  0  0  0  0  0  0
   40.3990   22.2600   37.9200 N   0  0  0  0  0  0  0  0  0  0  0  0
   39.5890   23.0790   37.1980 C   0  0  0  0  0  0  0  0  0  0  0  0
   38.4270   23.7620   37.4950 C   0  0  0  0  0  3  0  0  0  0  0  0
   41.9460   22.2500   35.1070 H   0  0  0  0  0  0  0  0  0  0  0  0
   35.9730   30.4190   30.8090 C   0  0  0  0  0  0  0  0  0  0  0  0
   36.6310   29.2550   31.2490 C   0  0  0  0  0  0  0  0  0  0  0  0
   36.0350   28.5340   32.2950 C   0  0  0  0  0  0  0  0  0  0  0  0
   34.8800   28.9790   32.8250 N   0  0  0  0  0  0  0  0  0  0  0  0
   34.2760   30.0940   32.3810 C   0  0  0  0  0  0  0  0  0  0  0  0
   34.8180   30.8070   31.3840 N   0  0  0  0  0  0  0  0  0  0  0  0
   36.5330   30.8770   30.0040 H   0  0  0  0  0  0  0  0  0  0  0  0
   37.5450   28.8560   30.8690 H   0  0  0  0  0  0  0  0  0  0  0  0
   33.3420   30.4370   32.8240 H   0  0  0  0  0  0  0  0  0  0  0  0
  1  5  1  0  0  0  0
  2  1  2  0  0  0  0
  2  3  1  0  0  0  0
  3  4  2  0  0  0  0
  4  5  1  0  0  0  0
  4  9  1  0  0  0  0
  6  2  1  0  0  0  0
  7  3  1  0  0  0  0
  8 18  1  0  0  0  0
  9  8  2  0  0  0  0
 10  9  1  0  0  0  0
 10 12  2  0  0  0  0
 11 10  1  0  0  0  0
 12 17  1  0  0  0  0
 13 12  1  0  0  0  0
 13 14  1  0  0  0  0
 14 15  1  0  0  0  0
 14 16  2  0  0  0  0
 17 18  2  0  0  0  0
 17 16  1  0  0  0  0
 19 13  1  0  0  0  0
 20 21  2  0  0  0  0
 20 25  1  0  0  0  0
 21 22  1  0  0  0  0
 22 23  2  0  0  0  0
 22  1  1  0  0  0  0
 24 28  1  0  0  0  0
 24 23  1  0  0  0  0
 25 24  2  0  0  0  0
 26 20  1  0  0  0  0
 27 21  1  0  0  0  0
M  END
>  <minimizedAffinity>
-5.0968008

$$$$

 OpenBabel03272503183D

 28 31  0  0  0  0  0  0  0  0999 V2000
   38.1710   25.6690   35.0580 C   0  0  0  0  0  0  0  0  0  0  0  0
   37.1830   26.5660   34.9650 C   0  0  0  0  0  0  0  0  0  0  0  0
   37.0490   27.3440   33.8770 C   0  0  0  0  0  0  0  0  0  0  0  0
   37.9860   27.1610   32.8650 C   0  0  0  0  0  0  0  0  0  0  0  0
   39.0580   25.8270   33.5560 S   0  0  0  0  0  0  0  0  0  0  0  0
   36.4800   26.6480   35.8130 H   0  0  0  0  0  0  0  0  0  0  0  0
   36.2960   28.0960   33.6920 H   0  0  0  0  0  0  0  0  0  0  0  0
   39.1460   27.3340   30.7450 C   0  0  0  0  0  3  0  0  0  0  0  0
   38.1540   27.7990   31.5820 C   0  0  0  0  0  0  0  0  0  0  0  0
   37.3120   28.8340   31.2730 C   0  0  0  0  0  0  0  0  0  0  0  0
   36.5350   29.1840   31.9530 H   0  0  0  0  0  0  0  0  0  0  0  0
   37.4490   29.4690   30.0440 C   0  0  0  0  0  0  0  0  0  0  0  0
   36.7780   30.4920   29.4840 N   0  0  0  0  0  0  0  0  0  0  0  0
   37.3350   30.7060   28.2570 C   0  0  0  0  0  0  0  0  0  0  0  0
   36.9980   31.4810   27.5580 H   0  0  0  0  0  0  0  0  0  0  0  0
   38.3420   29.8100   28.0820 N   0  0  0  0  0  0  0  0  0  0  0  0
   38.4400   29.0190   29.1830 C   0  0  0  0  0  0  0  0  0  0  0  0
   39.2720   27.9730   29.5260 C   0  0  0  0  0  3  0  0  0  0  0  0
   35.9810   31.0440   29.8730 H   0  0  0  0  0  0  0  0  0  0  0  0
   39.8200   22.9370   37.0480 C   0  0  0  0  0  0  0  0  0  0  0  0
   39.5660   23.8020   35.9670 C   0  0  0  0  0  0  0  0  0  0  0  0
   38.5210   24.7270   36.1140 C   0  0  0  0  0  0  0  0  0  0  0  0
   37.8170   24.7470   37.2620 N   0  0  0  0  0  0  0  0  0  0  0  0
   38.0860   23.9080   38.2760 C   0  0  0  0  0  0  0  0  0  0  0  0
   39.0770   23.0120   38.1690 N   0  0  0  0  0  0  0  0  0  0  0  0
   40.6450   22.2790   36.8080 H   0  0  0  0  0  0  0  0  0  0  0  0
   40.0880   23.8320   35.0360 H   0  0  0  0  0  0  0  0  0  0  0  0
   37.5040   23.9400   39.1960 H   0  0  0  0  0  0  0  0  0  0  0  0
  1 22  1  0  0  0  0
  2  1  2  0  0  0  0
  2  6  1  0  0  0  0
  3  2  1  0  0  0  0
  4  5  1  0  0  0  0
  4  3  2  0  0  0  0
  5  1  1  0  0  0  0
  7  3  1  0  0  0  0
  8  9  1  0  0  0  0
  9  4  1  0  0  0  0
 10  9  2  0  0  0  0
 10 11  1  0  0  0  0
 12 10  1  0  0  0  0
 13 19  1  0  0  0  0
 13 12  1  0  0  0  0
 14 13  1  0  0  0  0
 15 14  1  0  0  0  0
 16 14  2  0  0  0  0
 16 17  1  0  0  0  0
 17 18  1  0  0  0  0
 17 12  2  0  0  0  0
 18  8  2  0  0  0  0
 20 25  1  0  0  0  0
 21 22  1  0  0  0  0
 21 20  2  0  0  0  0
 22 23  2  0  0  0  0
 23 24  1  0  0  0  0
 24 28  1  0  0  0  0
 25 24  2  0  0  0  0
 26 20  1  0  0  0  0
 27 21  1  0  0  0  0
M  END
>  <minimizedAffinity>
-5.03638077

$$$$
