
 OpenBabel03272508563D

 41 45  0  0  1  0  0  0  0  0999 V2000
   36.9790   27.0970   33.0240 C   0  0  0  0  0  0  0  0  0  0  0  0
   37.2860   27.4950   31.7500 C   0  0  0  0  0  0  0  0  0  0  0  0
   36.9070   28.7590   31.3440 C   0  0  0  0  0  0  0  0  0  0  0  0
   36.2400   29.5500   32.2390 C   0  0  0  0  0  0  0  0  0  0  0  0
   35.9240   29.1610   33.5260 C   0  0  0  0  0  0  0  0  0  0  0  0
   36.3210   27.9210   33.8600 N   0  0  0  0  0  0  0  0  0  0  0  0
   37.8160   26.8950   31.0100 H   0  0  0  0  0  0  0  0  0  0  0  0
   37.1270   29.1100   30.3570 H   0  0  0  0  0  0  0  0  0  0  0  0
   35.9380   30.5410   31.9300 H   0  0  0  0  0  0  0  0  0  0  0  0
   35.9900   30.8020   35.2980 C   0  0  0  0  0  3  0  0  0  0  0  0
   35.2180   29.9740   34.5080 C   0  0  0  0  0  0  0  0  0  0  0  0
   33.8470   29.9230   34.6500 C   0  0  0  0  0  0  0  0  0  0  0  0
   33.2410   29.2870   34.0470 H   0  0  0  0  0  0  0  0  0  0  0  0
   33.2740   30.7430   35.6220 C   0  0  0  0  0  0  0  0  0  0  0  0
   31.9590   30.8670   35.9450 N   0  0  0  0  0  0  0  0  0  0  0  0
   31.9010   31.7810   36.9440 C   0  0  0  0  0  0  0  0  0  0  0  0
   30.9680   32.1010   37.4250 H   0  0  0  0  0  0  0  0  0  0  0  0
   33.1610   32.2070   37.2260 N   0  0  0  0  0  0  0  0  0  0  0  0
   34.0400   31.5820   36.4220 C   0  0  0  0  0  0  0  0  0  0  0  0
   35.4260   31.6180   36.2630 C   0  0  0  0  0  3  0  0  0  0  0  0
   31.1730   30.3500   35.4950 H   0  0  0  0  0  0  0  0  0  0  0  0
   37.3760   25.7470   33.4450 C   0  0  0  0  0  0  0  0  0  0  0  0
   37.3770   24.7820   32.6240 O   0  0  0  0  0  0  0  0  0  0  0  0
   37.7650   25.5420   34.8160 N   0  0  0  0  0  0  0  0  0  0  0  0
   37.6300   26.2470   35.5720 H   0  0  0  0  0  0  0  0  0  0  0  0
   39.1360   24.1630   36.3710 C   0  0  2  0  0  0  0  0  0  0  0  0
   37.7770   23.6000   36.4020 C   0  0  0  0  0  0  0  0  0  0  0  0
   38.3850   24.2640   35.1430 C   0  0  1  0  0  0  0  0  0  0  0  0
   39.2610   25.0410   37.0420 H   0  0  0  0  0  0  0  0  0  0  0  0
   37.6520   22.5000   36.3790 H   0  0  0  0  0  0  0  0  0  0  0  0
   36.9630   24.1320   36.9150 H   0  0  0  0  0  0  0  0  0  0  0  0
   38.5270   23.5380   34.3050 H   0  0  0  0  0  0  0  0  0  0  0  0
   41.4930   21.4760   37.3230 C   0  0  0  0  0  0  0  0  0  0  0  0
   42.5850   21.6900   36.4240 C   0  0  0  0  0  0  0  0  0  0  0  0
   42.4680   22.7920   35.4980 C   0  0  0  0  0  0  0  0  0  0  0  0
   41.3460   23.5730   35.5100 N   0  0  0  0  0  0  0  0  0  0  0  0
   40.3510   23.2910   36.4080 C   0  0  0  0  0  0  0  0  0  0  0  0
   40.3900   22.2580   37.3230 N   0  0  0  0  0  0  0  0  0  0  0  0
   41.6070   20.6590   37.9930 H   0  0  0  0  0  0  0  0  0  0  0  0
   43.4430   21.0680   36.4370 H   0  0  0  0  0  0  0  0  0  0  0  0
   43.2710   22.9760   34.8120 H   0  0  0  0  0  0  0  0  0  0  0  0
  1 22  1  0  0  0  0
  1  6  1  0  0  0  0
  2  1  2  0  0  0  0
  3  2  1  0  0  0  0
  3  4  2  0  0  0  0
  4  5  1  0  0  0  0
  5  6  2  0  0  0  0
  5 11  1  0  0  0  0
  7  2  1  0  0  0  0
  8  3  1  0  0  0  0
  9  4  1  0  0  0  0
 10 20  1  0  0  0  0
 11 12  1  0  0  0  0
 11 10  2  0  0  0  0
 12 14  2  0  0  0  0
 13 12  1  0  0  0  0
 14 15  1  0  0  0  0
 14 19  1  0  0  0  0
 15 16  1  0  0  0  0
 16 18  2  0  0  0  0
 16 17  1  0  0  0  0
 19 18  1  0  0  0  0
 20 19  2  0  0  0  0
 21 15  1  0  0  0  0
 22 24  1  0  0  0  0
 23 22  2  0  0  0  0
 24 28  1  0  0  0  0
 24 25  1  0  0  0  0
 26 27  1  0  0  0  0
 26 37  1  0  0  0  0
 26 29  1  1  0  0  0
 27 31  1  0  0  0  0
 28 32  1  6  0  0  0
 28 26  1  0  0  0  0
 28 27  1  0  0  0  0
 30 27  1  0  0  0  0
 33 38  1  0  0  0  0
 33 39  1  0  0  0  0
 34 40  1  0  0  0  0
 34 33  2  0  0  0  0
 35 36  2  0  0  0  0
 35 34  1  0  0  0  0
 36 37  1  0  0  0  0
 37 38  2  0  0  0  0
 41 35  1  0  0  0  0
M  END
>  <minimizedAffinity>
-6.31118774

$$$$

 OpenBabel03272508563D

 41 45  0  0  1  0  0  0  0  0999 V2000
   37.0460   27.0030   32.9690 C   0  0  0  0  0  0  0  0  0  0  0  0
   37.4050   27.4230   31.7160 C   0  0  0  0  0  0  0  0  0  0  0  0
   37.0170   28.6830   31.3050 C   0  0  0  0  0  0  0  0  0  0  0  0
   36.2890   29.4480   32.1750 C   0  0  0  0  0  0  0  0  0  0  0  0
   35.9200   29.0370   33.4410 C   0  0  0  0  0  0  0  0  0  0  0  0
   36.3290   27.8020   33.7800 N   0  0  0  0  0  0  0  0  0  0  0  0
   37.9830   26.8440   30.9960 H   0  0  0  0  0  0  0  0  0  0  0  0
   37.2760   29.0500   30.3340 H   0  0  0  0  0  0  0  0  0  0  0  0
   35.9790   30.4360   31.8630 H   0  0  0  0  0  0  0  0  0  0  0  0
   33.8060   29.5230   34.5040 C   0  0  0  0  0  3  0  0  0  0  0  0
   35.1490   29.8210   34.3960 C   0  0  0  0  0  0  0  0  0  0  0  0
   35.7240   30.8170   35.1590 C   0  0  0  0  0  0  0  0  0  0  0  0
   36.7590   31.0570   35.0850 H   0  0  0  0  0  0  0  0  0  0  0  0
   34.8930   31.5070   36.0430 C   0  0  0  0  0  0  0  0  0  0  0  0
   35.2250   32.5170   36.8900 N   0  0  0  0  0  0  0  0  0  0  0  0
   34.0830   32.8570   37.5370 C   0  0  0  0  0  0  0  0  0  0  0  0
   34.0230   33.6490   38.2930 H   0  0  0  0  0  0  0  0  0  0  0  0
   33.0710   32.0650   37.0890 N   0  0  0  0  0  0  0  0  0  0  0  0
   33.5400   31.2140   36.1600 C   0  0  0  0  0  0  0  0  0  0  0  0
   32.9770   30.2040   35.3780 C   0  0  0  0  0  3  0  0  0  0  0  0
   36.1760   32.9280   36.9990 H   0  0  0  0  0  0  0  0  0  0  0  0
   37.4530   25.6580   33.3940 C   0  0  0  0  0  0  0  0  0  0  0  0
   37.4930   24.6970   32.5690 O   0  0  0  0  0  0  0  0  0  0  0  0
   37.8060   25.4510   34.7750 N   0  0  0  0  0  0  0  0  0  0  0  0
   37.6380   26.1490   35.5300 H   0  0  0  0  0  0  0  0  0  0  0  0
   39.1630   24.0900   36.3560 C   0  0  2  0  0  0  0  0  0  0  0  0
   37.8130   23.5060   36.3570 C   0  0  0  0  0  0  0  0  0  0  0  0
   38.4370   24.1820   35.1120 C   0  0  1  0  0  0  0  0  0  0  0  0
   39.2620   24.9670   37.0310 H   0  0  0  0  0  0  0  0  0  0  0  0
   37.7050   22.4040   36.3300 H   0  0  0  0  0  0  0  0  0  0  0  0
   36.9810   24.0260   36.8530 H   0  0  0  0  0  0  0  0  0  0  0  0
   38.6080   23.4590   34.2760 H   0  0  0  0  0  0  0  0  0  0  0  0
   41.5470   21.4480   37.3670 C   0  0  0  0  0  0  0  0  0  0  0  0
   42.6470   21.6660   36.4780 C   0  0  0  0  0  0  0  0  0  0  0  0
   42.5240   22.7560   35.5370 C   0  0  0  0  0  0  0  0  0  0  0  0
   41.3920   23.5200   35.5280 N   0  0  0  0  0  0  0  0  0  0  0  0
   40.3900   23.2350   36.4180 C   0  0  0  0  0  0  0  0  0  0  0  0
   40.4330   22.2140   37.3450 N   0  0  0  0  0  0  0  0  0  0  0  0
   41.6640   20.6400   38.0480 H   0  0  0  0  0  0  0  0  0  0  0  0
   43.5130   21.0570   36.5090 H   0  0  0  0  0  0  0  0  0  0  0  0
   43.3330   22.9430   34.8590 H   0  0  0  0  0  0  0  0  0  0  0  0
  1 22  1  0  0  0  0
  1  6  1  0  0  0  0
  2  1  2  0  0  0  0
  3  2  1  0  0  0  0
  3  4  2  0  0  0  0
  4  5  1  0  0  0  0
  5  6  2  0  0  0  0
  5 11  1  0  0  0  0
  7  2  1  0  0  0  0
  8  3  1  0  0  0  0
  9  4  1  0  0  0  0
 10 20  1  0  0  0  0
 11 10  2  0  0  0  0
 11 12  1  0  0  0  0
 12 14  2  0  0  0  0
 13 12  1  0  0  0  0
 14 19  1  0  0  0  0
 14 15  1  0  0  0  0
 15 21  1  0  0  0  0
 15 16  1  0  0  0  0
 16 17  1  0  0  0  0
 18 16  2  0  0  0  0
 19 18  1  0  0  0  0
 20 19  2  0  0  0  0
 22 24  1  0  0  0  0
 23 22  2  0  0  0  0
 24 28  1  0  0  0  0
 24 25  1  0  0  0  0
 26 27  1  0  0  0  0
 26 37  1  0  0  0  0
 26 29  1  1  0  0  0
 27 31  1  0  0  0  0
 28 32  1  6  0  0  0
 28 26  1  0  0  0  0
 28 27  1  0  0  0  0
 30 27  1  0  0  0  0
 33 39  1  0  0  0  0
 34 40  1  0  0  0  0
 34 33  2  0  0  0  0
 35 34  1  0  0  0  0
 36 35  2  0  0  0  0
 36 37  1  0  0  0  0
 37 38  2  0  0  0  0
 38 33  1  0  0  0  0
 41 35  1  0  0  0  0
M  END
>  <minimizedAffinity>
-6.30536699

$$$$

 OpenBabel03272508563D

 41 45  0  0  1  0  0  0  0  0999 V2000
   36.7400   27.4960   32.4760 C   0  0  0  0  0  0  0  0  0  0  0  0
   36.9370   27.9900   31.2140 C   0  0  0  0  0  0  0  0  0  0  0  0
   36.5110   29.2740   30.9330 C   0  0  0  0  0  0  0  0  0  0  0  0
   35.9110   29.9860   31.9350 C   0  0  0  0  0  0  0  0  0  0  0  0
   35.7060   29.5000   33.2120 C   0  0  0  0  0  0  0  0  0  0  0  0
   36.1440   28.2460   33.4200 N   0  0  0  0  0  0  0  0  0  0  0  0
   37.4110   27.4550   30.3910 H   0  0  0  0  0  0  0  0  0  0  0  0
   36.6450   29.6980   29.9600 H   0  0  0  0  0  0  0  0  0  0  0  0
   35.5720   30.9920   31.7260 H   0  0  0  0  0  0  0  0  0  0  0  0
   35.9150   30.8680   35.1920 C   0  0  0  0  0  3  0  0  0  0  0  0
   35.0740   30.2270   34.3050 C   0  0  0  0  0  0  0  0  0  0  0  0
   33.7040   30.2760   34.4550 C   0  0  0  0  0  0  0  0  0  0  0  0
   33.0450   29.7850   33.7770 H   0  0  0  0  0  0  0  0  0  0  0  0
   33.2040   31.0010   35.5370 C   0  0  0  0  0  0  0  0  0  0  0  0
   31.9050   31.1930   35.8900 N   0  0  0  0  0  0  0  0  0  0  0  0
   31.9270   31.9610   37.0060 C   0  0  0  0  0  0  0  0  0  0  0  0
   31.0260   32.2910   37.5380 H   0  0  0  0  0  0  0  0  0  0  0  0
   33.2210   32.2320   37.3290 N   0  0  0  0  0  0  0  0  0  0  0  0
   34.0410   31.6510   36.4370 C   0  0  0  0  0  0  0  0  0  0  0  0
   35.4250   31.5870   36.2680 C   0  0  0  0  0  3  0  0  0  0  0  0
   31.0780   30.8130   35.3830 H   0  0  0  0  0  0  0  0  0  0  0  0
   37.1870   26.1270   32.7630 C   0  0  0  0  0  0  0  0  0  0  0  0
   37.5080   25.7790   33.9390 O   0  0  0  0  0  0  0  0  0  0  0  0
   37.2530   25.1830   31.6770 N   0  0  0  0  0  0  0  0  0  0  0  0
   37.1630   25.4450   30.6720 H   0  0  0  0  0  0  0  0  0  0  0  0
   36.9160   22.7740   31.1520 C   0  0  2  0  0  0  0  0  0  0  0  0
   38.3590   23.0310   31.0220 C   0  0  0  0  0  0  0  0  0  0  0  0
   37.4570   23.7840   32.0290 C   0  0  1  0  0  0  0  0  0  0  0  0
   36.3380   23.0500   30.2440 H   0  0  0  0  0  0  0  0  0  0  0  0
   39.0740   22.2960   31.4390 H   0  0  0  0  0  0  0  0  0  0  0  0
   38.7490   23.6000   30.1650 H   0  0  0  0  0  0  0  0  0  0  0  0
   37.7250   23.5600   33.0910 H   0  0  0  0  0  0  0  0  0  0  0  0
   35.5470   20.3430   33.5810 C   0  0  0  0  0  0  0  0  0  0  0  0
   35.4080   19.1590   32.7890 C   0  0  0  0  0  0  0  0  0  0  0  0
   35.8100   19.2440   31.4040 C   0  0  0  0  0  0  0  0  0  0  0  0
   36.2970   20.4220   30.9100 N   0  0  0  0  0  0  0  0  0  0  0  0
   36.3940   21.5030   31.7450 C   0  0  0  0  0  0  0  0  0  0  0  0
   36.0310   21.5000   33.0770 N   0  0  0  0  0  0  0  0  0  0  0  0
   35.2440   20.2510   34.5950 H   0  0  0  0  0  0  0  0  0  0  0  0
   35.0270   18.2590   33.2000 H   0  0  0  0  0  0  0  0  0  0  0  0
   35.7170   18.3730   30.7870 H   0  0  0  0  0  0  0  0  0  0  0  0
  1 22  1  0  0  0  0
  1  6  1  0  0  0  0
  2  1  2  0  0  0  0
  3  2  1  0  0  0  0
  3  4  2  0  0  0  0
  4  5  1  0  0  0  0
  5  6  2  0  0  0  0
  5 11  1  0  0  0  0
  7  2  1  0  0  0  0
  8  3  1  0  0  0  0
  9  4  1  0  0  0  0
 10 20  1  0  0  0  0
 11 12  1  0  0  0  0
 11 10  2  0  0  0  0
 12 14  2  0  0  0  0
 13 12  1  0  0  0  0
 14 15  1  0  0  0  0
 14 19  1  0  0  0  0
 15 16  1  0  0  0  0
 16 18  2  0  0  0  0
 16 17  1  0  0  0  0
 19 18  1  0  0  0  0
 20 19  2  0  0  0  0
 21 15  1  0  0  0  0
 22 23  2  0  0  0  0
 24 28  1  0  0  0  0
 24 22  1  0  0  0  0
 25 24  1  0  0  0  0
 26 29  1  6  0  0  0
 26 37  1  0  0  0  0
 26 28  1  0  0  0  0
 27 26  1  0  0  0  0
 27 30  1  0  0  0  0
 27 28  1  0  0  0  0
 28 32  1  1  0  0  0
 31 27  1  0  0  0  0
 33 39  1  0  0  0  0
 34 40  1  0  0  0  0
 34 33  2  0  0  0  0
 35 34  1  0  0  0  0
 36 35  2  0  0  0  0
 36 37  1  0  0  0  0
 37 38  2  0  0  0  0
 38 33  1  0  0  0  0
 41 35  1  0  0  0  0
M  END
>  <minimizedAffinity>
-6.17799759

$$$$

 OpenBabel03272508563D

 41 45  0  0  1  0  0  0  0  0999 V2000
   37.2680   27.5650   32.7750 C   0  0  0  0  0  0  0  0  0  0  0  0
   37.1130   27.7770   31.4310 C   0  0  0  0  0  0  0  0  0  0  0  0
   36.2610   28.7810   31.0150 C   0  0  0  0  0  0  0  0  0  0  0  0
   35.6150   29.5140   31.9720 C   0  0  0  0  0  0  0  0  0  0  0  0
   35.7630   29.3120   33.3300 C   0  0  0  0  0  0  0  0  0  0  0  0
   36.6050   28.3200   33.6690 N   0  0  0  0  0  0  0  0  0  0  0  0
   37.6100   27.2150   30.6400 H   0  0  0  0  0  0  0  0  0  0  0  0
   36.1100   28.9800   29.9740 H   0  0  0  0  0  0  0  0  0  0  0  0
   34.9450   30.3030   31.6570 H   0  0  0  0  0  0  0  0  0  0  0  0
   35.9020   30.8110   35.2190 C   0  0  0  0  0  3  0  0  0  0  0  0
   35.0950   30.0710   34.3790 C   0  0  0  0  0  0  0  0  0  0  0  0
   33.7240   30.0560   34.5330 C   0  0  0  0  0  0  0  0  0  0  0  0
   33.0910   29.4890   33.8910 H   0  0  0  0  0  0  0  0  0  0  0  0
   33.1890   30.8200   35.5700 C   0  0  0  0  0  0  0  0  0  0  0  0
   31.8820   30.9640   35.9180 N   0  0  0  0  0  0  0  0  0  0  0  0
   31.8650   31.8010   36.9830 C   0  0  0  0  0  0  0  0  0  0  0  0
   30.9480   32.1150   37.4980 H   0  0  0  0  0  0  0  0  0  0  0  0
   33.1420   32.1620   37.2810 N   0  0  0  0  0  0  0  0  0  0  0  0
   33.9910   31.5700   36.4220 C   0  0  0  0  0  0  0  0  0  0  0  0
   35.3760   31.5700   36.2500 C   0  0  0  0  0  3  0  0  0  0  0  0
   31.0750   30.5090   35.4400 H   0  0  0  0  0  0  0  0  0  0  0  0
   38.1670   26.4880   33.2090 C   0  0  0  0  0  0  0  0  0  0  0  0
   39.1420   26.7240   33.9840 O   0  0  0  0  0  0  0  0  0  0  0  0
   37.9190   25.1520   32.7330 N   0  0  0  0  0  0  0  0  0  0  0  0
   37.2430   24.9200   31.9730 H   0  0  0  0  0  0  0  0  0  0  0  0
   38.1320   23.4950   34.5790 C   0  0  2  0  0  0  0  0  0  0  0  0
   37.9140   22.7210   33.3460 C   0  0  0  0  0  0  0  0  0  0  0  0
   38.6650   24.0740   33.3690 C   0  0  1  0  0  0  0  0  0  0  0  0
   37.1900   23.8740   35.0310 H   0  0  0  0  0  0  0  0  0  0  0  0
   38.5210   21.8120   33.1700 H   0  0  0  0  0  0  0  0  0  0  0  0
   36.9230   22.6970   32.8700 H   0  0  0  0  0  0  0  0  0  0  0  0
   39.7430   23.9670   33.0910 H   0  0  0  0  0  0  0  0  0  0  0  0
   39.6670   22.9100   37.8920 C   0  0  0  0  0  0  0  0  0  0  0  0
   40.8280   22.1400   37.5640 C   0  0  0  0  0  0  0  0  0  0  0  0
   41.0480   21.8470   36.1670 C   0  0  0  0  0  0  0  0  0  0  0  0
   40.1640   22.3030   35.2310 N   0  0  0  0  0  0  0  0  0  0  0  0
   39.0800   23.0340   35.6400 C   0  0  0  0  0  0  0  0  0  0  0  0
   38.8020   23.3550   36.9540 N   0  0  0  0  0  0  0  0  0  0  0  0
   39.5310   23.1110   38.9270 H   0  0  0  0  0  0  0  0  0  0  0  0
   41.4970   21.7990   38.3130 H   0  0  0  0  0  0  0  0  0  0  0  0
   41.9090   21.2710   35.8920 H   0  0  0  0  0  0  0  0  0  0  0  0
  1 22  1  0  0  0  0
  1  6  1  0  0  0  0
  2  1  2  0  0  0  0
  3  2  1  0  0  0  0
  3  4  2  0  0  0  0
  4  5  1  0  0  0  0
  5  6  2  0  0  0  0
  5 11  1  0  0  0  0
  7  2  1  0  0  0  0
  8  3  1  0  0  0  0
  9  4  1  0  0  0  0
 10 20  1  0  0  0  0
 11 12  1  0  0  0  0
 11 10  2  0  0  0  0
 12 14  2  0  0  0  0
 13 12  1  0  0  0  0
 14 15  1  0  0  0  0
 14 19  1  0  0  0  0
 15 16  1  0  0  0  0
 16 18  2  0  0  0  0
 16 17  1  0  0  0  0
 19 18  1  0  0  0  0
 20 19  2  0  0  0  0
 21 15  1  0  0  0  0
 22 23  2  0  0  0  0
 24 22  1  0  0  0  0
 24 28  1  0  0  0  0
 25 24  1  0  0  0  0
 26 29  1  1  0  0  0
 26 37  1  0  0  0  0
 27 28  1  0  0  0  0
 27 26  1  0  0  0  0
 28 32  1  6  0  0  0
 28 26  1  0  0  0  0
 30 27  1  0  0  0  0
 31 27  1  0  0  0  0
 33 39  1  0  0  0  0
 34 33  1  0  0  0  0
 34 40  1  0  0  0  0
 35 34  2  0  0  0  0
 36 37  2  0  0  0  0
 36 35  1  0  0  0  0
 37 38  1  0  0  0  0
 38 33  2  0  0  0  0
 41 35  1  0  0  0  0
M  END
>  <minimizedAffinity>
-6.11130667

$$$$

 OpenBabel03272508563D

 41 45  0  0  1  0  0  0  0  0999 V2000
   36.3970   28.1660   33.0490 C   0  0  0  0  0  0  0  0  0  0  0  0
   36.5880   27.9870   31.7050 C   0  0  0  0  0  0  0  0  0  0  0  0
   37.3150   26.8920   31.2810 C   0  0  0  0  0  0  0  0  0  0  0  0
   37.8090   26.0410   32.2330 C   0  0  0  0  0  0  0  0  0  0  0  0
   37.6240   26.2100   33.5910 C   0  0  0  0  0  0  0  0  0  0  0  0
   36.9080   27.2940   33.9370 N   0  0  0  0  0  0  0  0  0  0  0  0
   36.2100   28.6410   30.9190 H   0  0  0  0  0  0  0  0  0  0  0  0
   37.4890   26.7140   30.2410 H   0  0  0  0  0  0  0  0  0  0  0  0
   38.3810   25.1810   31.9110 H   0  0  0  0  0  0  0  0  0  0  0  0
   39.0730   24.3930   34.2500 C   0  0  0  0  0  3  0  0  0  0  0  0
   38.1310   25.3270   34.6320 C   0  0  0  0  0  0  0  0  0  0  0  0
   37.6970   25.4110   35.9380 C   0  0  0  0  0  0  0  0  0  0  0  0
   36.9700   26.1270   36.2460 H   0  0  0  0  0  0  0  0  0  0  0  0
   38.2490   24.5160   36.8560 C   0  0  0  0  0  0  0  0  0  0  0  0
   37.9830   24.4060   38.1850 N   0  0  0  0  0  0  0  0  0  0  0  0
   38.7630   23.3970   38.6430 C   0  0  0  0  0  0  0  0  0  0  0  0
   38.7760   23.0630   39.6880 H   0  0  0  0  0  0  0  0  0  0  0  0
   39.4930   22.8990   37.6090 N   0  0  0  0  0  0  0  0  0  0  0  0
   39.1980   23.5720   36.4820 C   0  0  0  0  0  0  0  0  0  0  0  0
   39.6230   23.5030   35.1540 C   0  0  0  0  0  3  0  0  0  0  0  0
   37.3090   24.9960   38.7180 H   0  0  0  0  0  0  0  0  0  0  0  0
   35.6320   29.3390   33.4910 C   0  0  0  0  0  0  0  0  0  0  0  0
   34.7270   29.2330   34.3720 O   0  0  0  0  0  0  0  0  0  0  0  0
   35.9310   30.6180   32.9010 N   0  0  0  0  0  0  0  0  0  0  0  0
   36.5410   30.7450   32.0650 H   0  0  0  0  0  0  0  0  0  0  0  0
   36.0140   32.3750   34.6620 C   0  0  2  0  0  0  0  0  0  0  0  0
   36.2040   33.0640   33.3750 C   0  0  0  0  0  0  0  0  0  0  0  0
   35.3380   31.7910   33.5290 C   0  0  1  0  0  0  0  0  0  0  0  0
   36.9510   31.9320   35.0640 H   0  0  0  0  0  0  0  0  0  0  0  0
   35.6700   34.0170   33.1940 H   0  0  0  0  0  0  0  0  0  0  0  0
   37.1520   32.9710   32.8270 H   0  0  0  0  0  0  0  0  0  0  0  0
   34.2550   31.9850   33.3250 H   0  0  0  0  0  0  0  0  0  0  0  0
   34.6300   34.8250   37.0620 C   0  0  0  0  0  0  0  0  0  0  0  0
   33.6580   34.0500   37.7700 C   0  0  0  0  0  0  0  0  0  0  0  0
   33.5150   32.6650   37.3840 C   0  0  0  0  0  0  0  0  0  0  0  0
   34.2930   32.1560   36.3830 N   0  0  0  0  0  0  0  0  0  0  0  0
   35.1990   32.9760   35.7630 C   0  0  0  0  0  0  0  0  0  0  0  0
   35.3940   34.3060   36.0750 N   0  0  0  0  0  0  0  0  0  0  0  0
   34.7140   35.8400   37.3670 H   0  0  0  0  0  0  0  0  0  0  0  0
   33.0680   34.4730   38.5430 H   0  0  0  0  0  0  0  0  0  0  0  0
   32.7930   32.0600   37.8970 H   0  0  0  0  0  0  0  0  0  0  0  0
  1 22  1  0  0  0  0
  1  6  1  0  0  0  0
  2  1  2  0  0  0  0
  3  2  1  0  0  0  0
  3  4  2  0  0  0  0
  4  5  1  0  0  0  0
  5  6  2  0  0  0  0
  5 11  1  0  0  0  0
  7  2  1  0  0  0  0
  8  3  1  0  0  0  0
  9  4  1  0  0  0  0
 10 11  2  0  0  0  0
 10 20  1  0  0  0  0
 11 12  1  0  0  0  0
 12 13  1  0  0  0  0
 12 14  2  0  0  0  0
 14 15  1  0  0  0  0
 15 16  1  0  0  0  0
 15 21  1  0  0  0  0
 16 17  1  0  0  0  0
 18 16  2  0  0  0  0
 19 14  1  0  0  0  0
 19 18  1  0  0  0  0
 20 19  2  0  0  0  0
 22 23  2  0  0  0  0
 24 22  1  0  0  0  0
 24 28  1  0  0  0  0
 25 24  1  0  0  0  0
 26 29  1  1  0  0  0
 26 37  1  0  0  0  0
 27 28  1  0  0  0  0
 27 26  1  0  0  0  0
 28 32  1  6  0  0  0
 28 26  1  0  0  0  0
 30 27  1  0  0  0  0
 31 27  1  0  0  0  0
 33 39  1  0  0  0  0
 33 34  1  0  0  0  0
 34 40  1  0  0  0  0
 35 34  2  0  0  0  0
 35 41  1  0  0  0  0
 36 35  1  0  0  0  0
 37 38  1  0  0  0  0
 37 36  2  0  0  0  0
 38 33  2  0  0  0  0
M  END
>  <minimizedAffinity>
-5.93860912

$$$$

 OpenBabel03272508563D

 41 45  0  0  1  0  0  0  0  0999 V2000
   37.4640   27.5690   34.1360 C   0  0  0  0  0  0  0  0  0  0  0  0
   37.2750   27.2250   32.8240 C   0  0  0  0  0  0  0  0  0  0  0  0
   36.2680   27.8510   32.1160 C   0  0  0  0  0  0  0  0  0  0  0  0
   35.5090   28.7850   32.7660 C   0  0  0  0  0  0  0  0  0  0  0  0
   35.6890   29.1420   34.0880 C   0  0  0  0  0  0  0  0  0  0  0  0
   36.6840   28.4970   34.7210 N   0  0  0  0  0  0  0  0  0  0  0  0
   37.8590   26.4880   32.2730 H   0  0  0  0  0  0  0  0  0  0  0  0
   36.0860   27.6120   31.0890 H   0  0  0  0  0  0  0  0  0  0  0  0
   34.7170   29.2810   32.2200 H   0  0  0  0  0  0  0  0  0  0  0  0
   33.5600   30.2050   34.5070 C   0  0  0  0  0  3  0  0  0  0  0  0
   34.9040   30.1310   34.8140 C   0  0  0  0  0  0  0  0  0  0  0  0
   35.4670   30.9590   35.7620 C   0  0  0  0  0  0  0  0  0  0  0  0
   36.5030   30.9130   36.0080 H   0  0  0  0  0  0  0  0  0  0  0  0
   34.6240   31.8720   36.3980 C   0  0  0  0  0  0  0  0  0  0  0  0
   34.9420   32.7820   37.3560 N   0  0  0  0  0  0  0  0  0  0  0  0
   33.7920   33.4320   37.6560 C   0  0  0  0  0  0  0  0  0  0  0  0
   33.7210   34.2340   38.4010 H   0  0  0  0  0  0  0  0  0  0  0  0
   32.7880   32.9270   36.8910 N   0  0  0  0  0  0  0  0  0  0  0  0
   33.2700   31.9540   36.0970 C   0  0  0  0  0  0  0  0  0  0  0  0
   32.7190   31.1070   35.1330 C   0  0  0  0  0  3  0  0  0  0  0  0
   35.8920   32.9270   37.7620 H   0  0  0  0  0  0  0  0  0  0  0  0
   38.5290   26.8910   34.8860 C   0  0  0  0  0  0  0  0  0  0  0  0
   38.3130   26.4160   36.0410 O   0  0  0  0  0  0  0  0  0  0  0  0
   39.8300   26.7760   34.2800 N   0  0  0  0  0  0  0  0  0  0  0  0
   40.1170   27.2820   33.4140 H   0  0  0  0  0  0  0  0  0  0  0  0
   40.8280   24.5090   34.5220 C   0  0  2  0  0  0  0  0  0  0  0  0
   41.8850   25.3730   33.9710 C   0  0  0  0  0  0  0  0  0  0  0  0
   40.7870   25.8920   34.9310 C   0  0  1  0  0  0  0  0  0  0  0  0
   40.1340   24.1180   33.7470 H   0  0  0  0  0  0  0  0  0  0  0  0
   42.9110   25.2910   34.3790 H   0  0  0  0  0  0  0  0  0  0  0  0
   41.8430   25.7070   32.9250 H   0  0  0  0  0  0  0  0  0  0  0  0
   41.2050   26.2280   35.9130 H   0  0  0  0  0  0  0  0  0  0  0  0
   40.4750   22.2480   37.4280 C   0  0  0  0  0  0  0  0  0  0  0  0
   41.6930   21.4970   37.3860 C   0  0  0  0  0  0  0  0  0  0  0  0
   42.6220   21.8130   36.3270 C   0  0  0  0  0  0  0  0  0  0  0  0
   42.3160   22.7920   35.4240 N   0  0  0  0  0  0  0  0  0  0  0  0
   41.1250   23.4580   35.5450 C   0  0  0  0  0  0  0  0  0  0  0  0
   40.1870   23.2140   36.5280 N   0  0  0  0  0  0  0  0  0  0  0  0
   39.8100   21.9950   38.2180 H   0  0  0  0  0  0  0  0  0  0  0  0
   41.9030   20.7430   38.1000 H   0  0  0  0  0  0  0  0  0  0  0  0
   43.5430   21.2660   36.2700 H   0  0  0  0  0  0  0  0  0  0  0  0
  1  6  1  0  0  0  0
  1 22  1  0  0  0  0
  2  1  2  0  0  0  0
  3  4  2  0  0  0  0
  3  2  1  0  0  0  0
  4  5  1  0  0  0  0
  5  6  2  0  0  0  0
  5 11  1  0  0  0  0
  7  2  1  0  0  0  0
  8  3  1  0  0  0  0
  9  4  1  0  0  0  0
 10 11  2  0  0  0  0
 10 20  1  0  0  0  0
 11 12  1  0  0  0  0
 12 13  1  0  0  0  0
 12 14  2  0  0  0  0
 14 15  1  0  0  0  0
 15 16  1  0  0  0  0
 15 21  1  0  0  0  0
 16 17  1  0  0  0  0
 18 16  2  0  0  0  0
 19 14  1  0  0  0  0
 19 18  1  0  0  0  0
 20 19  2  0  0  0  0
 22 23  2  0  0  0  0
 24 22  1  0  0  0  0
 24 28  1  0  0  0  0
 25 24  1  0  0  0  0
 26 29  1  6  0  0  0
 26 28  1  0  0  0  0
 26 37  1  0  0  0  0
 27 30  1  0  0  0  0
 27 26  1  0  0  0  0
 27 28  1  0  0  0  0
 28 32  1  1  0  0  0
 31 27  1  0  0  0  0
 33 39  1  0  0  0  0
 34 33  1  0  0  0  0
 34 40  1  0  0  0  0
 35 34  2  0  0  0  0
 36 37  2  0  0  0  0
 36 35  1  0  0  0  0
 37 38  1  0  0  0  0
 38 33  2  0  0  0  0
 41 35  1  0  0  0  0
M  END
>  <minimizedAffinity>
-5.92798185

$$$$

 OpenBabel03272508563D

 41 45  0  0  1  0  0  0  0  0999 V2000
   36.6450   27.9340   32.1820 C   0  0  0  0  0  0  0  0  0  0  0  0
   36.9820   28.2940   30.9040 C   0  0  0  0  0  0  0  0  0  0  0  0
   36.7170   29.5840   30.4900 C   0  0  0  0  0  0  0  0  0  0  0  0
   36.1270   30.4380   31.3820 C   0  0  0  0  0  0  0  0  0  0  0  0
   35.7820   30.0880   32.6730 C   0  0  0  0  0  0  0  0  0  0  0  0
   36.0670   28.8190   33.0140 N   0  0  0  0  0  0  0  0  0  0  0  0
   37.4530   27.6430   30.1670 H   0  0  0  0  0  0  0  0  0  0  0  0
   36.9630   29.9070   29.5000 H   0  0  0  0  0  0  0  0  0  0  0  0
   35.9140   31.4500   31.0670 H   0  0  0  0  0  0  0  0  0  0  0  0
   34.1420   31.7840   33.1920 C   0  0  0  0  0  3  0  0  0  0  0  0
   35.1560   30.9670   33.6510 C   0  0  0  0  0  0  0  0  0  0  0  0
   35.5510   30.9900   34.9720 C   0  0  0  0  0  0  0  0  0  0  0  0
   36.3320   30.3650   35.3390 H   0  0  0  0  0  0  0  0  0  0  0  0
   34.8830   31.8710   35.8240 C   0  0  0  0  0  0  0  0  0  0  0  0
   35.0910   32.0720   37.1530 N   0  0  0  0  0  0  0  0  0  0  0  0
   34.2020   33.0200   37.5350 C   0  0  0  0  0  0  0  0  0  0  0  0
   34.1200   33.4030   38.5600 H   0  0  0  0  0  0  0  0  0  0  0  0
   33.4640   33.3930   36.4540 N   0  0  0  0  0  0  0  0  0  0  0  0
   33.8610   32.6980   35.3740 C   0  0  0  0  0  0  0  0  0  0  0  0
   33.4770   32.6600   34.0320 C   0  0  0  0  0  3  0  0  0  0  0  0
   35.8000   31.5780   37.7360 H   0  0  0  0  0  0  0  0  0  0  0  0
   36.9210   26.5570   32.6110 C   0  0  0  0  0  0  0  0  0  0  0  0
   36.9450   26.2490   33.8410 O   0  0  0  0  0  0  0  0  0  0  0  0
   37.1650   25.5580   31.6030 N   0  0  0  0  0  0  0  0  0  0  0  0
   37.3210   25.7740   30.5950 H   0  0  0  0  0  0  0  0  0  0  0  0
   37.2270   23.1360   31.0350 C   0  0  2  0  0  0  0  0  0  0  0  0
   38.5090   23.4440   31.6870 C   0  0  0  0  0  0  0  0  0  0  0  0
   37.1880   24.1690   32.0410 C   0  0  1  0  0  0  0  0  0  0  0  0
   37.2150   23.3870   29.9520 H   0  0  0  0  0  0  0  0  0  0  0  0
   38.9110   22.7370   32.4390 H   0  0  0  0  0  0  0  0  0  0  0  0
   39.2800   24.0220   31.1580 H   0  0  0  0  0  0  0  0  0  0  0  0
   36.8540   23.9580   33.0880 H   0  0  0  0  0  0  0  0  0  0  0  0
   36.2870   19.5610   30.9070 C   0  0  0  0  0  0  0  0  0  0  0  0
   35.1710   19.5020   31.8020 C   0  0  0  0  0  0  0  0  0  0  0  0
   34.7680   20.7380   32.4300 C   0  0  0  0  0  0  0  0  0  0  0  0
   35.4480   21.8910   32.1580 N   0  0  0  0  0  0  0  0  0  0  0  0
   36.5040   21.8500   31.2870 C   0  0  0  0  0  0  0  0  0  0  0  0
   36.9480   20.7100   30.6470 N   0  0  0  0  0  0  0  0  0  0  0  0
   36.5610   18.6370   30.4590 H   0  0  0  0  0  0  0  0  0  0  0  0
   34.6630   18.5920   31.9940 H   0  0  0  0  0  0  0  0  0  0  0  0
   33.9350   20.7240   33.1060 H   0  0  0  0  0  0  0  0  0  0  0  0
  1 22  1  0  0  0  0
  1  6  1  0  0  0  0
  2  1  2  0  0  0  0
  3  2  1  0  0  0  0
  3  4  2  0  0  0  0
  4  5  1  0  0  0  0
  5  6  2  0  0  0  0
  5 11  1  0  0  0  0
  7  2  1  0  0  0  0
  8  3  1  0  0  0  0
  9  4  1  0  0  0  0
 10 11  2  0  0  0  0
 10 20  1  0  0  0  0
 11 12  1  0  0  0  0
 12 13  1  0  0  0  0
 12 14  2  0  0  0  0
 14 15  1  0  0  0  0
 15 16  1  0  0  0  0
 15 21  1  0  0  0  0
 16 17  1  0  0  0  0
 18 16  2  0  0  0  0
 19 14  1  0  0  0  0
 19 18  1  0  0  0  0
 20 19  2  0  0  0  0
 22 23  2  0  0  0  0
 24 28  1  0  0  0  0
 24 22  1  0  0  0  0
 25 24  1  0  0  0  0
 26 29  1  6  0  0  0
 26 37  1  0  0  0  0
 26 27  1  0  0  0  0
 26 28  1  0  0  0  0
 27 28  1  0  0  0  0
 27 30  1  0  0  0  0
 28 32  1  1  0  0  0
 31 27  1  0  0  0  0
 33 34  1  0  0  0  0
 34 40  1  0  0  0  0
 34 35  2  0  0  0  0
 35 41  1  0  0  0  0
 36 35  1  0  0  0  0
 37 36  2  0  0  0  0
 38 33  2  0  0  0  0
 38 37  1  0  0  0  0
 39 33  1  0  0  0  0
M  END
>  <minimizedAffinity>
-5.86704731

$$$$

 OpenBabel03272508563D

 41 45  0  0  1  0  0  0  0  0999 V2000
   36.6150   28.2260   32.7920 C   0  0  0  0  0  0  0  0  0  0  0  0
   37.3100   28.4090   31.6260 C   0  0  0  0  0  0  0  0  0  0  0  0
   38.4360   27.6410   31.4010 C   0  0  0  0  0  0  0  0  0  0  0  0
   38.8000   26.7360   32.3610 C   0  0  0  0  0  0  0  0  0  0  0  0
   38.1080   26.5420   33.5400 C   0  0  0  0  0  0  0  0  0  0  0  0
   37.0230   27.3180   33.6980 N   0  0  0  0  0  0  0  0  0  0  0  0
   37.0510   29.1180   30.8400 H   0  0  0  0  0  0  0  0  0  0  0  0
   39.0080   27.7520   30.5040 H   0  0  0  0  0  0  0  0  0  0  0  0
   39.6810   26.1310   32.1940 H   0  0  0  0  0  0  0  0  0  0  0  0
   39.4280   24.6530   34.2680 C   0  0  0  0  0  3  0  0  0  0  0  0
   38.4620   25.5880   34.5830 C   0  0  0  0  0  0  0  0  0  0  0  0
   37.8650   25.6090   35.8270 C   0  0  0  0  0  0  0  0  0  0  0  0
   37.1190   26.3250   36.0820 H   0  0  0  0  0  0  0  0  0  0  0  0
   38.2790   24.6490   36.7510 C   0  0  0  0  0  0  0  0  0  0  0  0
   37.8430   24.4710   38.0270 N   0  0  0  0  0  0  0  0  0  0  0  0
   38.5400   23.4180   38.5200 C   0  0  0  0  0  0  0  0  0  0  0  0
   38.4130   23.0250   39.5360 H   0  0  0  0  0  0  0  0  0  0  0  0
   39.3870   22.9610   37.5580 N   0  0  0  0  0  0  0  0  0  0  0  0
   39.2510   23.7040   36.4460 C   0  0  0  0  0  0  0  0  0  0  0  0
   39.8410   23.6990   35.1810 C   0  0  0  0  0  3  0  0  0  0  0  0
   37.1170   25.0470   38.5050 H   0  0  0  0  0  0  0  0  0  0  0  0
   35.4250   29.0540   33.0290 C   0  0  0  0  0  0  0  0  0  0  0  0
   34.3280   28.7990   32.4490 O   0  0  0  0  0  0  0  0  0  0  0  0
   35.5310   30.1660   33.9370 N   0  0  0  0  0  0  0  0  0  0  0  0
   36.4340   30.5260   34.3150 H   0  0  0  0  0  0  0  0  0  0  0  0
   33.5200   30.2090   35.4020 C   0  0  2  0  0  0  0  0  0  0  0  0
   34.3370   31.3730   35.7810 C   0  0  0  0  0  0  0  0  0  0  0  0
   34.2890   30.8110   34.3400 C   0  0  1  0  0  0  0  0  0  0  0  0
   33.8500   29.2650   35.8870 H   0  0  0  0  0  0  0  0  0  0  0  0
   33.8370   32.3440   35.9600 H   0  0  0  0  0  0  0  0  0  0  0  0
   35.2700   31.2390   36.3480 H   0  0  0  0  0  0  0  0  0  0  0  0
   33.8310   31.5320   33.6170 H   0  0  0  0  0  0  0  0  0  0  0  0
   29.9910   30.6240   36.4290 C   0  0  0  0  0  0  0  0  0  0  0  0
   29.2860   30.4370   35.1980 C   0  0  0  0  0  0  0  0  0  0  0  0
   30.0790   30.1600   34.0230 C   0  0  0  0  0  0  0  0  0  0  0  0
   31.4400   30.0880   34.1240 N   0  0  0  0  0  0  0  0  0  0  0  0
   32.0270   30.2810   35.3470 C   0  0  0  0  0  0  0  0  0  0  0  0
   31.3380   30.5490   36.5130 N   0  0  0  0  0  0  0  0  0  0  0  0
   29.3820   30.8260   37.2770 H   0  0  0  0  0  0  0  0  0  0  0  0
   28.2290   30.4990   35.1500 H   0  0  0  0  0  0  0  0  0  0  0  0
   29.5780   30.0160   33.0860 H   0  0  0  0  0  0  0  0  0  0  0  0
  1 22  1  0  0  0  0
  1  6  1  0  0  0  0
  2  1  2  0  0  0  0
  3  2  1  0  0  0  0
  3  4  2  0  0  0  0
  4  5  1  0  0  0  0
  5  6  2  0  0  0  0
  5 11  1  0  0  0  0
  7  2  1  0  0  0  0
  8  3  1  0  0  0  0
  9  4  1  0  0  0  0
 10 11  2  0  0  0  0
 10 20  1  0  0  0  0
 11 12  1  0  0  0  0
 12 13  1  0  0  0  0
 12 14  2  0  0  0  0
 14 15  1  0  0  0  0
 15 21  1  0  0  0  0
 15 16  1  0  0  0  0
 16 17  1  0  0  0  0
 18 16  2  0  0  0  0
 19 14  1  0  0  0  0
 19 18  1  0  0  0  0
 20 19  2  0  0  0  0
 22 24  1  0  0  0  0
 23 22  2  0  0  0  0
 24 25  1  0  0  0  0
 24 28  1  0  0  0  0
 26 27  1  0  0  0  0
 26 29  1  1  0  0  0
 27 30  1  0  0  0  0
 27 31  1  0  0  0  0
 28 32  1  6  0  0  0
 28 26  1  0  0  0  0
 28 27  1  0  0  0  0
 33 38  1  0  0  0  0
 33 39  1  0  0  0  0
 34 33  2  0  0  0  0
 35 36  2  0  0  0  0
 35 34  1  0  0  0  0
 36 37  1  0  0  0  0
 37 26  1  0  0  0  0
 37 38  2  0  0  0  0
 40 34  1  0  0  0  0
 41 35  1  0  0  0  0
M  END
>  <minimizedAffinity>
-5.86660051

$$$$

 OpenBabel03272508563D

 41 45  0  0  1  0  0  0  0  0999 V2000
   35.7560   29.5030   32.9810 C   0  0  0  0  0  0  0  0  0  0  0  0
   36.1170   29.6250   31.6660 C   0  0  0  0  0  0  0  0  0  0  0  0
   36.9890   28.6970   31.1320 C   0  0  0  0  0  0  0  0  0  0  0  0
   37.4490   27.7010   31.9500 C   0  0  0  0  0  0  0  0  0  0  0  0
   37.0920   27.5660   33.2770 C   0  0  0  0  0  0  0  0  0  0  0  0
   36.2420   28.5000   33.7350 N   0  0  0  0  0  0  0  0  0  0  0  0
   35.7720   30.4020   30.9840 H   0  0  0  0  0  0  0  0  0  0  0  0
   37.2970   28.7550   30.1090 H   0  0  0  0  0  0  0  0  0  0  0  0
   38.1330   26.9690   31.5410 H   0  0  0  0  0  0  0  0  0  0  0  0
   37.8020   26.8900   35.4850 C   0  0  0  0  0  3  0  0  0  0  0  0
   37.5580   26.5200   34.1780 C   0  0  0  0  0  0  0  0  0  0  0  0
   37.7500   25.2210   33.7540 C   0  0  0  0  0  0  0  0  0  0  0  0
   37.5650   24.9230   32.7480 H   0  0  0  0  0  0  0  0  0  0  0  0
   38.1980   24.2990   34.7000 C   0  0  0  0  0  0  0  0  0  0  0  0
   38.4580   22.9760   34.5250 N   0  0  0  0  0  0  0  0  0  0  0  0
   38.8660   22.5080   35.7290 C   0  0  0  0  0  0  0  0  0  0  0  0
   39.1520   21.4650   35.9140 H   0  0  0  0  0  0  0  0  0  0  0  0
   38.8570   23.5320   36.6250 N   0  0  0  0  0  0  0  0  0  0  0  0
   38.4470   24.6600   36.0190 C   0  0  0  0  0  0  0  0  0  0  0  0
   38.2480   25.9800   36.4270 C   0  0  0  0  0  3  0  0  0  0  0  0
   38.3520   22.4520   33.6300 H   0  0  0  0  0  0  0  0  0  0  0  0
   34.8370   30.5000   33.5450 C   0  0  0  0  0  0  0  0  0  0  0  0
   33.8550   30.9360   32.8720 O   0  0  0  0  0  0  0  0  0  0  0  0
   35.0750   30.9760   34.8830 N   0  0  0  0  0  0  0  0  0  0  0  0
   35.9460   30.7850   35.4230 H   0  0  0  0  0  0  0  0  0  0  0  0
   33.1220   31.1110   36.4200 C   0  0  2  0  0  0  0  0  0  0  0  0
   34.1910   31.9170   37.0310 C   0  0  0  0  0  0  0  0  0  0  0  0
   34.0200   31.7670   35.5000 C   0  0  1  0  0  0  0  0  0  0  0  0
   33.2140   30.0250   36.6360 H   0  0  0  0  0  0  0  0  0  0  0  0
   33.9350   32.9000   37.4720 H   0  0  0  0  0  0  0  0  0  0  0  0
   35.0610   31.4300   37.4950 H   0  0  0  0  0  0  0  0  0  0  0  0
   33.7520   32.7340   35.0060 H   0  0  0  0  0  0  0  0  0  0  0  0
   29.4260   30.9840   36.4730 C   0  0  0  0  0  0  0  0  0  0  0  0
   29.0700   32.3650   36.5850 C   0  0  0  0  0  0  0  0  0  0  0  0
   30.1520   33.3200   36.6330 C   0  0  0  0  0  0  0  0  0  0  0  0
   31.4460   32.8830   36.5720 N   0  0  0  0  0  0  0  0  0  0  0  0
   31.6890   31.5400   36.4650 C   0  0  0  0  0  0  0  0  0  0  0  0
   30.7110   30.5680   36.4130 N   0  0  0  0  0  0  0  0  0  0  0  0
   28.6090   30.3030   36.4390 H   0  0  0  0  0  0  0  0  0  0  0  0
   28.0570   32.6740   36.6300 H   0  0  0  0  0  0  0  0  0  0  0  0
   29.9160   34.3620   36.7180 H   0  0  0  0  0  0  0  0  0  0  0  0
  1 22  1  0  0  0  0
  1  6  1  0  0  0  0
  2  1  2  0  0  0  0
  3  2  1  0  0  0  0
  3  4  2  0  0  0  0
  4  5  1  0  0  0  0
  5  6  2  0  0  0  0
  5 11  1  0  0  0  0
  7  2  1  0  0  0  0
  8  3  1  0  0  0  0
  9  4  1  0  0  0  0
 10 20  1  0  0  0  0
 11 10  2  0  0  0  0
 12 11  1  0  0  0  0
 12 14  2  0  0  0  0
 13 12  1  0  0  0  0
 14 19  1  0  0  0  0
 15 14  1  0  0  0  0
 15 16  1  0  0  0  0
 16 17  1  0  0  0  0
 16 18  2  0  0  0  0
 19 20  2  0  0  0  0
 19 18  1  0  0  0  0
 21 15  1  0  0  0  0
 22 24  1  0  0  0  0
 23 22  2  0  0  0  0
 24 25  1  0  0  0  0
 24 28  1  0  0  0  0
 26 37  1  0  0  0  0
 26 29  1  1  0  0  0
 26 27  1  0  0  0  0
 27 30  1  0  0  0  0
 27 31  1  0  0  0  0
 28 32  1  6  0  0  0
 28 26  1  0  0  0  0
 28 27  1  0  0  0  0
 33 34  1  0  0  0  0
 34 40  1  0  0  0  0
 34 35  2  0  0  0  0
 35 41  1  0  0  0  0
 36 35  1  0  0  0  0
 37 36  2  0  0  0  0
 38 37  1  0  0  0  0
 38 33  2  0  0  0  0
 39 33  1  0  0  0  0
M  END
>  <minimizedAffinity>
-5.80438471

$$$$
