
 OpenBabel03272509043D

 36 39  0  0  0  0  0  0  0  0999 V2000
   37.5170   30.2740   51.3160 C   0  0  0  0  0  0  0  0  0  0  0  0
   38.0460   30.9370   50.1910 C   0  0  0  0  0  0  0  0  0  0  0  0
   37.4730   30.6960   48.9270 C   0  0  0  0  0  0  0  0  0  0  0  0
   36.4260   29.8170   48.9080 N   0  0  0  0  0  0  0  0  0  0  0  0
   35.9520   29.2090   49.9880 C   0  0  0  0  0  0  0  0  0  0  0  0
   36.4880   29.4290   51.2000 N   0  0  0  0  0  0  0  0  0  0  0  0
   37.9770   30.4810   52.2590 H   0  0  0  0  0  0  0  0  0  0  0  0
   38.8580   31.6050   50.2790 H   0  0  0  0  0  0  0  0  0  0  0  0
   39.1190   32.0440   47.6230 C   0  0  0  0  0  3  0  0  0  0  0  0
   37.9490   31.3320   47.7070 C   0  0  0  0  0  0  0  0  0  0  0  0
   37.1750   31.2070   46.5740 C   0  0  0  0  0  0  0  0  0  0  0  0
   36.2440   30.6720   46.5300 H   0  0  0  0  0  0  0  0  0  0  0  0
   37.6240   31.8130   45.4010 C   0  0  0  0  0  0  0  0  0  0  0  0
   37.1200   31.8800   44.1520 N   0  0  0  0  0  0  0  0  0  0  0  0
   37.9460   32.5990   43.3540 C   0  0  0  0  0  0  0  0  0  0  0  0
   37.8750   32.8620   42.3090 H   0  0  0  0  0  0  0  0  0  0  0  0
   38.9880   32.9970   44.0900 N   0  0  0  0  0  0  0  0  0  0  0  0
   38.8160   32.5320   45.3390 C   0  0  0  0  0  0  0  0  0  0  0  0
   39.5890   32.6480   46.5000 C   0  0  0  0  0  3  0  0  0  0  0  0
   36.2270   31.4520   43.8220 H   0  0  0  0  0  0  0  0  0  0  0  0
   34.8500   28.3120   49.7640 C   0  0  0  0  0  3  0  0  0  0  0  0
   34.3600   28.1690   48.5830 C   0  0  0  0  0  3  0  0  0  0  0  0
   33.2610   27.3150   48.1220 C   0  0  0  0  0  0  0  0  0  0  0  0
   32.8570   26.7810   49.0090 H   0  0  0  0  0  0  0  0  0  0  0  0
   32.4200   27.8950   47.6910 H   0  0  0  0  0  0  0  0  0  0  0  0
   33.6810   26.3090   47.0940 C   0  0  0  0  0  0  0  0  0  0  0  0
   33.9150   24.9670   47.3380 C   0  0  0  0  0  0  0  0  0  0  0  0
   34.2970   24.1390   46.2900 C   0  0  0  0  0  0  0  0  0  0  0  0
   34.4480   24.6430   44.9870 C   0  0  0  0  0  0  0  0  0  0  0  0
   34.2150   25.9690   44.7530 C   0  0  0  0  0  0  0  0  0  0  0  0
   33.8370   26.7860   45.7960 C   0  0  0  0  0  0  0  0  0  0  0  0
   33.7860   24.6290   48.3520 H   0  0  0  0  0  0  0  0  0  0  0  0
   34.4630   23.0980   46.5600 H   0  0  0  0  0  0  0  0  0  0  0  0
   34.7490   23.9410   44.2120 H   0  0  0  0  0  0  0  0  0  0  0  0
   34.3480   26.2990   43.7330 H   0  0  0  0  0  0  0  0  0  0  0  0
   33.6600   27.8310   45.5740 H   0  0  0  0  0  0  0  0  0  0  0  0
  1  7  1  0  0  0  0
  2  8  1  0  0  0  0
  2  1  2  0  0  0  0
  3  2  1  0  0  0  0
  4  3  2  0  0  0  0
  4  5  1  0  0  0  0
  5  6  2  0  0  0  0
  6  1  1  0  0  0  0
  9 10  1  0  0  0  0
 10  3  1  0  0  0  0
 11 10  2  0  0  0  0
 12 11  1  0  0  0  0
 13 11  1  0  0  0  0
 14 13  1  0  0  0  0
 15 17  2  0  0  0  0
 15 14  1  0  0  0  0
 16 15  1  0  0  0  0
 17 18  1  0  0  0  0
 18 13  2  0  0  0  0
 18 19  1  0  0  0  0
 19  9  2  0  0  0  0
 20 14  1  0  0  0  0
 21  5  1  0  0  0  0
 22 21  2  0  0  0  0
 23 22  1  0  0  0  0
 23 24  1  0  0  0  0
 25 23  1  0  0  0  0
 26 27  1  0  0  0  0
 26 23  1  0  0  0  0
 27 32  1  0  0  0  0
 28 33  1  0  0  0  0
 28 27  2  0  0  0  0
 29 28  1  0  0  0  0
 30 29  2  0  0  0  0
 30 31  1  0  0  0  0
 31 26  2  0  0  0  0
 34 29  1  0  0  0  0
 35 30  1  0  0  0  0
 36 31  1  0  0  0  0
M  END
>  <minimizedAffinity>
-6.81664276

>  <minimizedRMSD>
0.751217663

$$$$
