
 OpenBabel03272507193D

 33 36  0  0  1  0  0  0  0  0999 V2000
   37.3350   31.2240   49.5030 C   0  0  0  0  0  0  0  0  0  0  0  0
   38.3360   32.1820   49.5410 C   0  0  0  0  0  0  0  0  0  0  0  0
   38.7940   32.5910   48.2680 C   0  0  0  0  0  0  0  0  0  0  0  0
   38.2670   32.0600   47.1280 N   0  0  0  0  0  0  0  0  0  0  0  0
   37.2850   31.1220   47.1470 C   0  0  0  0  0  0  0  0  0  0  0  0
   36.8150   30.7010   48.3650 N   0  0  0  0  0  0  0  0  0  0  0  0
   38.7290   32.5790   50.4570 H   0  0  0  0  0  0  0  0  0  0  0  0
   39.5760   33.3360   48.2060 H   0  0  0  0  0  0  0  0  0  0  0  0
   37.5300   30.5680   44.7940 C   0  0  0  0  0  3  0  0  0  0  0  0
   36.7290   30.5630   45.9170 C   0  0  0  0  0  0  0  0  0  0  0  0
   35.4530   30.0410   45.8480 C   0  0  0  0  0  0  0  0  0  0  0  0
   34.8490   30.0510   46.7460 H   0  0  0  0  0  0  0  0  0  0  0  0
   34.9260   29.5120   44.6860 C   0  0  0  0  0  0  0  0  0  0  0  0
   33.7480   28.9540   44.3510 N   0  0  0  0  0  0  0  0  0  0  0  0
   33.8420   28.6310   43.0490 C   0  0  0  0  0  0  0  0  0  0  0  0
   32.9710   28.1610   42.5880 H   0  0  0  0  0  0  0  0  0  0  0  0
   35.0550   28.9760   42.5680 N   0  0  0  0  0  0  0  0  0  0  0  0
   35.7560   29.5310   43.5730 C   0  0  0  0  0  0  0  0  0  0  0  0
   37.0360   30.0470   43.6140 C   0  0  0  0  0  3  0  0  0  0  0  0
   32.9790   28.8460   45.0560 H   0  0  0  0  0  0  0  0  0  0  0  0
   36.8050   30.7830   50.8320 C   0  0  1  0  0  0  0  0  0  0  0  0
   36.0860   29.5210   51.0000 C   0  0  2  0  0  0  0  0  0  0  0  0
   37.5380   29.5430   51.3740 C   0  0  0  0  0  0  0  0  0  0  0  0
   36.7330   31.6380   51.5450 H   0  0  0  0  0  0  0  0  0  0  0  0
   35.2680   29.5890   51.7750 H   0  0  0  0  0  0  0  0  0  0  0  0
   38.2210   28.9930   50.6910 H   0  0  0  0  0  0  0  0  0  0  0  0
   37.8450   29.6360   52.4210 H   0  0  0  0  0  0  0  0  0  0  0  0
   35.6930   28.8570   49.8460 O   0  0  0  0  0  0  0  0  0  0  0  0
   34.4590   28.4800   49.4350 C   0  0  0  0  0  0  0  0  0  0  0  0
   34.2790   27.5130   48.6630 O   0  0  0  0  0  0  0  0  0  0  0  0
   33.5250   29.3390   50.0160 N   0  0  0  0  0  0  0  0  0  0  0  0
   33.2310   28.7450   50.8460 H   0  0  0  0  0  0  0  0  0  0  0  0
   33.4530   30.2300   49.4440 H   0  0  0  0  0  0  0  0  0  0  0  0
  1  2  1  0  0  0  0
  1 21  1  0  0  0  0
  2  7  1  0  0  0  0
  3  2  2  0  0  0  0
  4  5  2  0  0  0  0
  4  3  1  0  0  0  0
  5  6  1  0  0  0  0
  6  1  2  0  0  0  0
  8  3  1  0  0  0  0
  9 10  1  0  0  0  0
 10  5  1  0  0  0  0
 11 10  2  0  0  0  0
 11 12  1  0  0  0  0
 13 11  1  0  0  0  0
 14 13  1  0  0  0  0
 14 20  1  0  0  0  0
 15 14  1  0  0  0  0
 16 15  1  0  0  0  0
 17 15  2  0  0  0  0
 17 18  1  0  0  0  0
 18 19  1  0  0  0  0
 18 13  2  0  0  0  0
 19  9  2  0  0  0  0
 21 22  1  0  0  0  0
 21 23  1  0  0  0  0
 21 24  1  1  0  0  0
 22 23  1  0  0  0  0
 22 25  1  1  0  0  0
 23 27  1  0  0  0  0
 26 23  1  0  0  0  0
 28 22  1  0  0  0  0
 29 28  1  0  0  0  0
 29 31  1  0  0  0  0
 30 29  2  0  0  0  0
 31 32  1  0  0  0  0
 33 31  1  0  0  0  0
M  END
>  <minimizedAffinity>
-5.61234856

>  <minimizedRMSD>
0.398334146

$$$$
