
 OpenBabel03272501083D

 43 47  0  0  1  0  0  0  0  0999 V2000
   40.5990   32.0210   44.6240 Cl  0  0  0  0  0  0  0  0  0  0  0  0
   39.0750   31.1720   44.5050 C   0  0  0  0  0  0  0  0  0  0  0  0
   38.1640   31.5000   45.5010 C   0  0  0  0  0  0  0  0  0  0  0  0
   36.9520   30.8390   45.4150 C   0  0  0  0  0  0  0  0  0  0  0  0
   36.6780   29.9270   44.4130 C   0  0  0  0  0  0  0  0  0  0  0  0
   37.6180   29.6480   43.4590 C   0  0  0  0  0  0  0  0  0  0  0  0
   38.8310   30.2770   43.5050 C   0  0  0  0  0  0  0  0  0  0  0  0
   36.1240   30.9620   46.0970 H   0  0  0  0  0  0  0  0  0  0  0  0
   35.7410   29.3950   44.3190 H   0  0  0  0  0  0  0  0  0  0  0  0
   37.4240   28.9380   42.6680 H   0  0  0  0  0  0  0  0  0  0  0  0
   40.9510   29.1550   42.5530 C   0  0  0  0  0  3  0  0  0  0  0  0
   39.8780   30.0220   42.5180 C   0  0  0  0  0  0  0  0  0  0  0  0
   39.6870   30.8260   41.3900 C   0  0  0  0  0  0  0  0  0  0  0  0
   38.8920   31.5470   41.2270 H   0  0  0  0  0  0  0  0  0  0  0  0
   40.5500   30.7710   40.3080 C   0  0  0  0  0  0  0  0  0  0  0  0
   40.6630   31.3770   39.1110 N   0  0  0  0  0  0  0  0  0  0  0  0
   41.7510   30.9040   38.4440 C   0  0  0  0  0  0  0  0  0  0  0  0
   42.0810   31.2150   37.4590 H   0  0  0  0  0  0  0  0  0  0  0  0
   42.3350   29.9960   39.2170 N   0  0  0  0  0  0  0  0  0  0  0  0
   41.6230   29.8920   40.3660 C   0  0  0  0  0  0  0  0  0  0  0  0
   41.8060   29.1050   41.4760 C   0  0  0  0  0  3  0  0  0  0  0  0
   40.0000   32.1040   38.7560 H   0  0  0  0  0  0  0  0  0  0  0  0
   38.2160   32.3420   46.5540 O   0  0  0  0  0  0  0  0  0  0  0  0
   38.9340   32.4690   47.6940 C   0  0  2  0  0  0  0  0  0  0  0  0
   38.0290   32.7550   48.9360 C   0  0  2  0  0  0  0  0  0  0  0  0
   38.9580   33.4740   49.7910 C   0  0  0  0  0  0  0  0  0  0  0  0
   39.7830   34.2500   48.9870 O   0  0  0  0  0  0  0  0  0  0  0  0
   39.6190   33.8660   47.6920 C   0  0  0  0  0  0  0  0  0  0  0  0
   39.6770   31.7260   47.9660 H   0  0  0  0  0  0  0  0  0  0  0  0
   37.2110   33.4490   48.5780 H   0  0  0  0  0  0  0  0  0  0  0  0
   38.3850   34.1800   50.4500 H   0  0  0  0  0  0  0  0  0  0  0  0
   39.5950   32.8980   50.4560 H   0  0  0  0  0  0  0  0  0  0  0  0
   39.0210   34.5800   47.1060 H   0  0  0  0  0  0  0  0  0  0  0  0
   40.5950   33.7370   47.1820 H   0  0  0  0  0  0  0  0  0  0  0  0
   37.3630   29.6120   50.8910 C   0  0  0  0  0  0  0  0  0  0  0  0
   38.0310   30.7860   50.4490 C   0  0  0  0  0  0  0  0  0  0  0  0
   37.3960   31.5640   49.4350 C   0  0  0  0  0  0  0  0  0  0  0  0
   36.1810   31.1490   48.9380 N   0  0  0  0  0  0  0  0  0  0  0  0
   35.5940   30.0350   49.3900 C   0  0  0  0  0  0  0  0  0  0  0  0
   36.1610   29.2620   50.3540 N   0  0  0  0  0  0  0  0  0  0  0  0
   37.8660   29.0450   51.6570 H   0  0  0  0  0  0  0  0  0  0  0  0
   38.9850   31.0650   50.8730 H   0  0  0  0  0  0  0  0  0  0  0  0
   34.6390   29.7320   48.9820 H   0  0  0  0  0  0  0  0  0  0  0  0
  2  1  1  0  0  0  0
  2  3  1  0  0  0  0
  3 23  1  0  0  0  0
  4  3  2  0  0  0  0
  4  8  1  0  0  0  0
  5  4  1  0  0  0  0
  6  7  1  0  0  0  0
  6  5  2  0  0  0  0
  7  2  2  0  0  0  0
  9  5  1  0  0  0  0
 10  6  1  0  0  0  0
 12 11  1  0  0  0  0
 12  7  1  0  0  0  0
 13 12  2  0  0  0  0
 14 13  1  0  0  0  0
 15 20  2  0  0  0  0
 15 13  1  0  0  0  0
 16 15  1  0  0  0  0
 17 16  1  0  0  0  0
 17 19  2  0  0  0  0
 18 17  1  0  0  0  0
 19 20  1  0  0  0  0
 20 21  1  0  0  0  0
 21 11  2  0  0  0  0
 22 16  1  0  0  0  0
 23 24  1  0  0  0  0
 24 29  1  1  0  0  0
 24 25  1  0  0  0  0
 25 30  1  6  0  0  0
 25 37  1  0  0  0  0
 25 26  1  0  0  0  0
 26 31  1  0  0  0  0
 26 32  1  0  0  0  0
 27 26  1  0  0  0  0
 28 24  1  0  0  0  0
 28 27  1  0  0  0  0
 33 28  1  0  0  0  0
 34 28  1  0  0  0  0
 35 41  1  0  0  0  0
 36 42  1  0  0  0  0
 36 35  1  0  0  0  0
 37 36  2  0  0  0  0
 38 39  2  0  0  0  0
 38 37  1  0  0  0  0
 39 40  1  0  0  0  0
 40 35  2  0  0  0  0
 43 39  1  0  0  0  0
M  END
>  <minimizedAffinity>
-6.54085684

>  <minimizedRMSD>
1.09989953

$$$$
