
 OpenBabel03272507203D

 33 36  0  0  1  0  0  0  0  0999 V2000
   37.3240   31.2470   49.4570 C   0  0  0  0  0  0  0  0  0  0  0  0
   38.2900   32.2390   49.5300 C   0  0  0  0  0  0  0  0  0  0  0  0
   38.7740   32.6680   48.2740 C   0  0  0  0  0  0  0  0  0  0  0  0
   38.3020   32.1230   47.1150 N   0  0  0  0  0  0  0  0  0  0  0  0
   37.3530   31.1530   47.1000 C   0  0  0  0  0  0  0  0  0  0  0  0
   36.8590   30.7110   48.3020 N   0  0  0  0  0  0  0  0  0  0  0  0
   38.6400   32.6450   50.4590 H   0  0  0  0  0  0  0  0  0  0  0  0
   39.5320   33.4380   48.2390 H   0  0  0  0  0  0  0  0  0  0  0  0
   35.5640   30.0930   45.8430 C   0  0  0  0  0  3  0  0  0  0  0  0
   36.8560   30.5810   45.8520 C   0  0  0  0  0  0  0  0  0  0  0  0
   37.6240   30.5130   44.7050 C   0  0  0  0  0  0  0  0  0  0  0  0
   38.6320   30.9040   44.7450 H   0  0  0  0  0  0  0  0  0  0  0  0
   37.1550   29.9710   43.5260 C   0  0  0  0  0  0  0  0  0  0  0  0
   37.6750   29.7860   42.2980 N   0  0  0  0  0  0  0  0  0  0  0  0
   36.7120   29.1980   41.5660 C   0  0  0  0  0  0  0  0  0  0  0  0
   36.9480   28.9650   40.5260 H   0  0  0  0  0  0  0  0  0  0  0  0
   35.6030   29.0140   42.3130 N   0  0  0  0  0  0  0  0  0  0  0  0
   35.8520   29.4900   43.5480 C   0  0  0  0  0  0  0  0  0  0  0  0
   35.0630   29.5440   44.6780 C   0  0  0  0  0  3  0  0  0  0  0  0
   38.6550   30.0840   42.0740 H   0  0  0  0  0  0  0  0  0  0  0  0
   36.7670   30.7840   50.7670 C   0  0  1  0  0  0  0  0  0  0  0  0
   36.0430   29.5200   50.8980 C   0  0  2  0  0  0  0  0  0  0  0  0
   37.4860   29.5330   51.3020 C   0  0  0  0  0  0  0  0  0  0  0  0
   36.6810   31.6260   51.4940 H   0  0  0  0  0  0  0  0  0  0  0  0
   35.2090   29.5760   51.6580 H   0  0  0  0  0  0  0  0  0  0  0  0
   38.1830   28.9940   50.6220 H   0  0  0  0  0  0  0  0  0  0  0  0
   37.7730   29.6070   52.3560 H   0  0  0  0  0  0  0  0  0  0  0  0
   35.6710   28.8780   49.7250 O   0  0  0  0  0  0  0  0  0  0  0  0
   34.4550   28.4460   49.3150 C   0  0  0  0  0  0  0  0  0  0  0  0
   34.3190   27.4750   48.5370 O   0  0  0  0  0  0  0  0  0  0  0  0
   33.4840   29.2560   49.9030 N   0  0  0  0  0  0  0  0  0  0  0  0
   33.2210   28.6440   50.7310 H   0  0  0  0  0  0  0  0  0  0  0  0
   33.3680   30.1470   49.3370 H   0  0  0  0  0  0  0  0  0  0  0  0
  1  2  1  0  0  0  0
  1 21  1  0  0  0  0
  2  7  1  0  0  0  0
  3  2  2  0  0  0  0
  4  3  1  0  0  0  0
  5  4  2  0  0  0  0
  5  6  1  0  0  0  0
  6  1  2  0  0  0  0
  8  3  1  0  0  0  0
  9 10  1  0  0  0  0
 10  5  1  0  0  0  0
 11 12  1  0  0  0  0
 11 10  2  0  0  0  0
 13 18  2  0  0  0  0
 13 11  1  0  0  0  0
 14 13  1  0  0  0  0
 15 14  1  0  0  0  0
 15 17  2  0  0  0  0
 16 15  1  0  0  0  0
 17 18  1  0  0  0  0
 18 19  1  0  0  0  0
 19  9  2  0  0  0  0
 20 14  1  0  0  0  0
 21 22  1  0  0  0  0
 21 23  1  0  0  0  0
 21 24  1  1  0  0  0
 22 23  1  0  0  0  0
 22 25  1  1  0  0  0
 23 27  1  0  0  0  0
 26 23  1  0  0  0  0
 28 22  1  0  0  0  0
 29 28  1  0  0  0  0
 29 31  1  0  0  0  0
 30 29  2  0  0  0  0
 31 32  1  0  0  0  0
 33 31  1  0  0  0  0
M  END
>  <minimizedAffinity>
-5.69728661

>  <minimizedRMSD>
0.0757086799

$$$$
