
 OpenBabel03272509213D

 49 54  0  0  0  0  0  0  0  0999 V2000
   40.1020   30.9720   44.2060 C   0  0  0  0  0  0  0  0  0  0  0  0
   39.5320   31.7810   45.1780 C   0  0  0  0  0  0  0  0  0  0  0  0
   38.4120   32.5220   44.8410 C   0  0  0  0  0  0  0  0  0  0  0  0
   37.8540   32.4680   43.5600 C   0  0  0  0  0  0  0  0  0  0  0  0
   36.8050   33.0470   42.9450 N   0  0  0  0  0  0  0  0  0  0  0  0
   36.7200   32.6290   41.6710 C   0  0  0  0  0  0  0  0  0  0  0  0
   37.7490   31.7560   41.4690 N   0  0  0  0  0  0  0  0  0  0  0  0
   38.4500   31.6500   42.6260 C   0  0  0  0  0  0  0  0  0  0  0  0
   39.5610   30.9110   42.9430 C   0  0  0  0  0  0  0  0  0  0  0  0
   40.9670   30.4360   44.5630 H   0  0  0  0  0  0  0  0  0  0  0  0
   37.8580   33.1980   45.4930 H   0  0  0  0  0  0  0  0  0  0  0  0
   36.1500   33.7250   43.3940 H   0  0  0  0  0  0  0  0  0  0  0  0
   35.9780   32.9310   40.9510 H   0  0  0  0  0  0  0  0  0  0  0  0
   40.0700   28.6860   41.8860 C   0  0  0  0  0  3  0  0  0  0  0  0
   40.2130   30.0370   41.9700 C   0  0  0  0  0  0  0  0  0  0  0  0
   41.0420   30.6820   41.0740 C   0  0  0  0  0  0  0  0  0  0  0  0
   41.2080   31.7690   41.0800 H   0  0  0  0  0  0  0  0  0  0  0  0
   41.7070   29.9440   40.1120 C   0  0  0  0  0  0  0  0  0  0  0  0
   42.5590   30.3000   39.1320 N   0  0  0  0  0  0  0  0  0  0  0  0
   42.9360   29.1830   38.4500 C   0  0  0  0  0  0  0  0  0  0  0  0
   43.6050   29.0690   37.6030 H   0  0  0  0  0  0  0  0  0  0  0  0
   42.3220   28.0920   38.9950 N   0  0  0  0  0  0  0  0  0  0  0  0
   41.5710   28.5580   40.0110 C   0  0  0  0  0  0  0  0  0  0  0  0
   40.7260   27.9290   40.9300 C   0  0  0  0  0  3  0  0  0  0  0  0
   42.8980   31.2700   38.9010 H   0  0  0  0  0  0  0  0  0  0  0  0
   39.8990   31.9900   46.4750 O   0  0  0  0  0  0  0  0  0  0  0  0
   38.0960   31.3910   47.9800 C   0  0  0  0  0  0  0  0  0  0  0  0
   37.2410   31.5940   49.0490 C   0  0  0  0  0  0  0  0  0  0  0  0
   37.4380   32.8040   49.7210 C   0  0  0  0  0  0  0  0  0  0  0  0
   38.4220   33.7190   49.3280 C   0  0  0  0  0  0  0  0  0  0  0  0
   39.2440   33.4140   48.2200 C   0  0  0  0  0  0  0  0  0  0  0  0
   39.0590   32.2130   47.5420 C   0  0  0  0  0  0  0  0  0  0  0  0
   36.7910   33.0120   50.5680 H   0  0  0  0  0  0  0  0  0  0  0  0
   38.5480   34.6420   49.8680 H   0  0  0  0  0  0  0  0  0  0  0  0
   39.9980   34.1250   47.9270 H   0  0  0  0  0  0  0  0  0  0  0  0
   35.1130   30.4650   48.6640 C   0  0  0  0  0  0  0  0  0  0  0  0
   36.2370   30.6690   49.4540 C   0  0  0  0  0  0  0  0  0  0  0  0
   36.3300   29.9310   50.6470 C   0  0  0  0  0  0  0  0  0  0  0  0
   35.3300   29.0690   50.9620 N   0  0  0  0  0  0  0  0  0  0  0  0
   34.2480   28.9060   50.1540 C   0  0  0  0  0  0  0  0  0  0  0  0
   34.1500   29.6010   49.0170 N   0  0  0  0  0  0  0  0  0  0  0  0
   34.9450   30.9800   47.7300 H   0  0  0  0  0  0  0  0  0  0  0  0
   33.5700   28.1720   50.5890 H   0  0  0  0  0  0  0  0  0  0  0  0
   37.5110   30.1070   51.5350 C   0  0  0  0  0  0  0  0  0  0  0  0
   38.3560   29.4680   51.2110 H   0  0  0  0  0  0  0  0  0  0  0  0
   37.2370   29.8270   52.5750 H   0  0  0  0  0  0  0  0  0  0  0  0
   37.7570   31.1780   51.5620 H   0  0  0  0  0  0  0  0  0  0  0  0
   37.9760   30.2090   47.2460 O   0  0  0  0  0  0  0  0  0  0  0  0
   38.7560   29.5920   47.2430 H   0  0  0  0  0  0  0  0  0  0  0  0
  1 10  1  0  0  0  0
  1  2  1  0  0  0  0
  2 26  1  0  0  0  0
  3  2  2  0  0  0  0
  3 11  1  0  0  0  0
  4  3  1  0  0  0  0
  5 12  1  0  0  0  0
  5  4  1  0  0  0  0
  6  5  1  0  0  0  0
  7  6  2  0  0  0  0
  7  8  1  0  0  0  0
  8  9  1  0  0  0  0
  8  4  2  0  0  0  0
  9  1  2  0  0  0  0
 13  6  1  0  0  0  0
 14 15  1  0  0  0  0
 15  9  1  0  0  0  0
 16 17  1  0  0  0  0
 16 15  2  0  0  0  0
 18 16  1  0  0  0  0
 19 18  1  0  0  0  0
 20 22  2  0  0  0  0
 20 19  1  0  0  0  0
 21 20  1  0  0  0  0
 22 23  1  0  0  0  0
 23 18  2  0  0  0  0
 23 24  1  0  0  0  0
 24 14  2  0  0  0  0
 25 19  1  0  0  0  0
 26 32  1  0  0  0  0
 27 28  1  0  0  0  0
 28 37  1  0  0  0  0
 28 29  2  0  0  0  0
 29 33  1  0  0  0  0
 30 29  1  0  0  0  0
 30 34  1  0  0  0  0
 31 30  2  0  0  0  0
 32 27  2  0  0  0  0
 32 31  1  0  0  0  0
 35 31  1  0  0  0  0
 36 41  2  0  0  0  0
 36 37  1  0  0  0  0
 37 38  2  0  0  0  0
 38 39  1  0  0  0  0
 38 44  1  0  0  0  0
 40 43  1  0  0  0  0
 40 39  2  0  0  0  0
 41 40  1  0  0  0  0
 42 36  1  0  0  0  0
 44 47  1  0  0  0  0
 44 46  1  0  0  0  0
 45 44  1  0  0  0  0
 48 27  1  0  0  0  0
 49 48  1  0  0  0  0
M  END
>  <minimizedAffinity>
-8.02545929

>  <minimizedRMSD>
0.938343167

$$$$
