
 OpenBabel03272507473D

 49 54  0  0  1  0  0  0  0  0999 V2000
   32.8850   28.9370   46.5270 N   0  0  0  0  0  0  0  0  0  0  0  0
   33.1100   28.4970   47.8610 C   0  0  0  0  0  0  0  0  0  0  0  0
   34.2460   29.1050   48.5860 C   0  0  0  0  0  0  0  0  0  0  0  0
   35.4470   29.4100   47.8130 C   0  0  1  0  0  0  0  0  0  0  0  0
   35.1350   29.8050   46.3590 C   0  0  0  0  0  0  0  0  0  0  0  0
   34.1340   28.7820   45.8100 C   0  0  0  0  0  0  0  0  0  0  0  0
   32.1590   28.6320   48.4260 H   0  0  0  0  0  0  0  0  0  0  0  0
   33.2340   27.3740   47.8290 H   0  0  0  0  0  0  0  0  0  0  0  0
   33.8040   30.1040   48.9160 H   0  0  0  0  0  0  0  0  0  0  0  0
   34.4510   28.5450   49.5130 H   0  0  0  0  0  0  0  0  0  0  0  0
   36.0940   28.5030   47.7040 H   0  0  0  0  0  0  0  0  0  0  0  0
   36.0410   29.7160   45.7330 H   0  0  0  0  0  0  0  0  0  0  0  0
   34.6230   30.7700   46.3120 H   0  0  0  0  0  0  0  0  0  0  0  0
   34.5700   27.7610   45.9030 H   0  0  0  0  0  0  0  0  0  0  0  0
   33.9550   28.9350   44.7390 H   0  0  0  0  0  0  0  0  0  0  0  0
   36.0400   30.9360   49.6420 C   0  0  0  0  0  0  0  0  0  0  0  0
   36.2750   30.5220   48.3430 C   0  0  0  0  0  0  0  0  0  0  0  0
   37.2050   31.1010   47.5210 C   0  0  0  0  0  0  0  0  0  0  0  0
   37.9480   32.1650   48.0270 C   0  0  0  0  0  0  0  0  0  0  0  0
   37.7100   32.5740   49.3150 C   0  0  0  0  0  0  0  0  0  0  0  0
   36.7670   31.9880   50.1540 C   0  0  0  0  0  0  0  0  0  0  0  0
   38.5500   33.6540   49.6430 O   0  0  0  0  0  0  0  0  0  0  0  0
   39.5500   33.6450   48.6270 C   0  0  0  0  0  0  0  0  0  0  0  0
   38.9560   32.9960   47.5300 O   0  0  0  0  0  0  0  0  0  0  0  0
   35.3510   30.5540   50.3840 H   0  0  0  0  0  0  0  0  0  0  0  0
   37.3680   30.7610   46.5240 H   0  0  0  0  0  0  0  0  0  0  0  0
   36.6350   32.3700   51.1700 H   0  0  0  0  0  0  0  0  0  0  0  0
   39.8010   34.6810   48.2960 H   0  0  0  0  0  0  0  0  0  0  0  0
   40.4440   33.0980   48.9980 H   0  0  0  0  0  0  0  0  0  0  0  0
   31.6720   29.4390   45.9570 C   0  0  0  0  0  0  0  0  0  0  0  0
   31.5610   30.1630   44.7750 C   0  0  0  0  0  0  0  0  0  0  0  0
   30.2970   30.5460   44.3820 C   0  0  0  0  0  0  0  0  0  0  0  0
   29.2320   30.2050   45.1560 N   0  0  0  0  0  0  0  0  0  0  0  0
   29.3630   29.5050   46.2960 C   0  0  0  0  0  0  0  0  0  0  0  0
   30.5930   29.1330   46.6780 N   0  0  0  0  0  0  0  0  0  0  0  0
   32.4810   30.3610   44.2640 H   0  0  0  0  0  0  0  0  0  0  0  0
   30.2330   31.1050   43.4630 H   0  0  0  0  0  0  0  0  0  0  0  0
   27.9310   27.8320   47.3780 C   0  0  0  0  0  3  0  0  0  0  0  0
   28.1850   29.1610   47.0980 C   0  0  0  0  0  0  0  0  0  0  0  0
   27.3450   30.1630   47.5630 C   0  0  0  0  0  0  0  0  0  0  0  0
   27.5620   31.2000   47.3320 H   0  0  0  0  0  0  0  0  0  0  0  0
   26.2400   29.8220   48.3160 C   0  0  0  0  0  0  0  0  0  0  0  0
   25.3140   30.6390   48.8540 N   0  0  0  0  0  0  0  0  0  0  0  0
   24.4610   29.7820   49.4870 C   0  0  0  0  0  0  0  0  0  0  0  0
   23.5720   29.9920   50.0510 H   0  0  0  0  0  0  0  0  0  0  0  0
   24.8560   28.5210   49.3350 N   0  0  0  0  0  0  0  0  0  0  0  0
   25.9650   28.5020   48.6100 C   0  0  0  0  0  0  0  0  0  0  0  0
   26.8140   27.4970   48.1400 C   0  0  0  0  0  3  0  0  0  0  0  0
   25.1920   31.6760   48.8460 H   0  0  0  0  0  0  0  0  0  0  0  0
  1  2  1  0  0  0  0
  2  7  1  0  0  0  0
  2  3  1  0  0  0  0
  3  9  1  0  0  0  0
  3 10  1  0  0  0  0
  4 11  1  6  0  0  0
  4 17  1  0  0  0  0
  4  3  1  0  0  0  0
  5  4  1  0  0  0  0
  6 14  1  0  0  0  0
  6  5  1  0  0  0  0
  6  1  1  0  0  0  0
  8  2  1  0  0  0  0
 12  5  1  0  0  0  0
 13  5  1  0  0  0  0
 15  6  1  0  0  0  0
 16 21  1  0  0  0  0
 16 25  1  0  0  0  0
 17 16  2  0  0  0  0
 18 19  2  0  0  0  0
 18 17  1  0  0  0  0
 19 20  1  0  0  0  0
 20 22  1  0  0  0  0
 20 21  2  0  0  0  0
 21 27  1  0  0  0  0
 23 29  1  0  0  0  0
 23 22  1  0  0  0  0
 24 19  1  0  0  0  0
 24 23  1  0  0  0  0
 26 18  1  0  0  0  0
 28 23  1  0  0  0  0
 30  1  1  0  0  0  0
 30 35  1  0  0  0  0
 31 30  2  0  0  0  0
 32 31  1  0  0  0  0
 32 33  2  0  0  0  0
 33 34  1  0  0  0  0
 34 35  2  0  0  0  0
 34 39  1  0  0  0  0
 36 31  1  0  0  0  0
 37 32  1  0  0  0  0
 38 48  1  0  0  0  0
 39 38  2  0  0  0  0
 39 40  1  0  0  0  0
 40 42  2  0  0  0  0
 41 40  1  0  0  0  0
 42 47  1  0  0  0  0
 42 43  1  0  0  0  0
 43 44  1  0  0  0  0
 44 45  1  0  0  0  0
 46 44  2  0  0  0  0
 47 46  1  0  0  0  0
 48 47  2  0  0  0  0
 49 43  1  0  0  0  0
M  END
>  <minimizedAffinity>
-7.82843208

>  <minimizedRMSD>
2.00512552

$$$$
