
 OpenBabel03272507203D

 33 36  0  0  1  0  0  0  0  0999 V2000
   37.0210   31.4380   49.2030 C   0  0  0  0  0  0  0  0  0  0  0  0
   37.4100   32.4750   50.0370 C   0  0  0  0  0  0  0  0  0  0  0  0
   38.3450   33.3620   49.4600 C   0  0  0  0  0  0  0  0  0  0  0  0
   38.7980   33.1750   48.1870 N   0  0  0  0  0  0  0  0  0  0  0  0
   38.3830   32.1420   47.4100 C   0  0  0  0  0  0  0  0  0  0  0  0
   37.4750   31.2590   47.9380 N   0  0  0  0  0  0  0  0  0  0  0  0
   37.0340   32.5920   51.0350 H   0  0  0  0  0  0  0  0  0  0  0  0
   38.7040   34.1990   50.0430 H   0  0  0  0  0  0  0  0  0  0  0  0
   40.0670   31.2750   45.8880 C   0  0  0  0  0  3  0  0  0  0  0  0
   38.8770   31.9550   46.0480 C   0  0  0  0  0  0  0  0  0  0  0  0
   38.2010   32.4270   44.9400 C   0  0  0  0  0  0  0  0  0  0  0  0
   37.2710   32.9560   45.0980 H   0  0  0  0  0  0  0  0  0  0  0  0
   38.6670   32.2500   43.6530 C   0  0  0  0  0  0  0  0  0  0  0  0
   38.2230   32.5970   42.4300 N   0  0  0  0  0  0  0  0  0  0  0  0
   39.1300   32.1330   41.5530 C   0  0  0  0  0  0  0  0  0  0  0  0
   38.9420   32.3190   40.4940 H   0  0  0  0  0  0  0  0  0  0  0  0
   40.1310   31.5050   42.2050 N   0  0  0  0  0  0  0  0  0  0  0  0
   39.8670   31.5620   43.5240 C   0  0  0  0  0  0  0  0  0  0  0  0
   40.5630   31.0800   44.6140 C   0  0  0  0  0  3  0  0  0  0  0  0
   37.3250   33.1260   42.3100 H   0  0  0  0  0  0  0  0  0  0  0  0
   36.0100   30.4900   49.7700 C   0  0  1  0  0  0  0  0  0  0  0  0
   34.9180   29.9470   48.9620 C   0  0  2  0  0  0  0  0  0  0  0  0
   36.1240   29.0790   49.1640 C   0  0  0  0  0  0  0  0  0  0  0  0
   35.9990   30.5260   50.8850 H   0  0  0  0  0  0  0  0  0  0  0  0
   33.9700   29.8010   49.5580 H   0  0  0  0  0  0  0  0  0  0  0  0
   36.7730   28.9390   48.2730 H   0  0  0  0  0  0  0  0  0  0  0  0
   36.1190   28.2790   49.9110 H   0  0  0  0  0  0  0  0  0  0  0  0
   34.6990   30.5270   47.7200 O   0  0  0  0  0  0  0  0  0  0  0  0
   33.9200   30.1160   46.6920 C   0  0  0  0  0  0  0  0  0  0  0  0
   34.1730   29.0820   46.0350 O   0  0  0  0  0  0  0  0  0  0  0  0
   32.8720   31.0260   46.5490 N   0  0  0  0  0  0  0  0  0  0  0  0
   32.1160   30.5120   47.0890 H   0  0  0  0  0  0  0  0  0  0  0  0
   33.1980   31.8620   45.9800 H   0  0  0  0  0  0  0  0  0  0  0  0
  1 21  1  0  0  0  0
  1  2  1  0  0  0  0
  2  7  1  0  0  0  0
  3  2  2  0  0  0  0
  3  8  1  0  0  0  0
  4  3  1  0  0  0  0
  5  6  1  0  0  0  0
  5  4  2  0  0  0  0
  6  1  2  0  0  0  0
  9 10  1  0  0  0  0
 10  5  1  0  0  0  0
 11 12  1  0  0  0  0
 11 10  2  0  0  0  0
 13 11  1  0  0  0  0
 14 13  1  0  0  0  0
 15 17  2  0  0  0  0
 15 14  1  0  0  0  0
 16 15  1  0  0  0  0
 17 18  1  0  0  0  0
 18 13  2  0  0  0  0
 18 19  1  0  0  0  0
 19  9  2  0  0  0  0
 20 14  1  0  0  0  0
 21 24  1  1  0  0  0
 22 23  1  0  0  0  0
 22 25  1  1  0  0  0
 22 21  1  0  0  0  0
 23 21  1  0  0  0  0
 23 27  1  0  0  0  0
 26 23  1  0  0  0  0
 28 22  1  0  0  0  0
 29 28  1  0  0  0  0
 30 29  2  0  0  0  0
 31 29  1  0  0  0  0
 31 32  1  0  0  0  0
 33 31  1  0  0  0  0
M  END
>  <minimizedAffinity>
-6.41622305

>  <minimizedRMSD>
3.05163074

$$$$
