
 OpenBabel03272509053D

 36 39  0  0  0  0  0  0  0  0999 V2000
   37.9630   30.9890   50.4090 C   0  0  0  0  0  0  0  0  0  0  0  0
   38.3690   31.1060   49.0650 C   0  0  0  0  0  0  0  0  0  0  0  0
   37.5370   30.5860   48.0540 C   0  0  0  0  0  0  0  0  0  0  0  0
   36.3770   30.0020   48.4830 N   0  0  0  0  0  0  0  0  0  0  0  0
   36.0240   29.9080   49.7590 C   0  0  0  0  0  0  0  0  0  0  0  0
   36.8080   30.3990   50.7340 N   0  0  0  0  0  0  0  0  0  0  0  0
   38.6190   31.3940   51.1490 H   0  0  0  0  0  0  0  0  0  0  0  0
   39.2800   31.5710   48.8060 H   0  0  0  0  0  0  0  0  0  0  0  0
   36.9350   30.7170   45.6360 C   0  0  0  0  0  3  0  0  0  0  0  0
   37.8690   30.6580   46.6390 C   0  0  0  0  0  0  0  0  0  0  0  0
   39.2030   30.6680   46.2930 C   0  0  0  0  0  0  0  0  0  0  0  0
   40.0140   30.6260   46.9980 H   0  0  0  0  0  0  0  0  0  0  0  0
   39.5310   30.7360   44.9390 C   0  0  0  0  0  0  0  0  0  0  0  0
   40.7070   30.7630   44.2810 N   0  0  0  0  0  0  0  0  0  0  0  0
   40.4910   30.8350   42.9450 C   0  0  0  0  0  0  0  0  0  0  0  0
   41.1810   30.8730   42.1140 H   0  0  0  0  0  0  0  0  0  0  0  0
   39.1710   30.8540   42.7400 N   0  0  0  0  0  0  0  0  0  0  0  0
   38.5640   30.7950   43.9380 C   0  0  0  0  0  0  0  0  0  0  0  0
   37.2150   30.7850   44.3080 C   0  0  0  0  0  3  0  0  0  0  0  0
   41.6580   30.7340   44.7120 H   0  0  0  0  0  0  0  0  0  0  0  0
   34.7710   29.2500   50.0110 C   0  0  0  0  0  3  0  0  0  0  0  0
   34.0430   28.8440   49.0310 C   0  0  0  0  0  3  0  0  0  0  0  0
   32.7510   28.1480   49.0480 C   0  0  0  0  0  0  0  0  0  0  0  0
   32.5670   27.8120   50.0910 H   0  0  0  0  0  0  0  0  0  0  0  0
   31.9050   28.8100   48.7740 H   0  0  0  0  0  0  0  0  0  0  0  0
   32.7040   26.9620   48.1350 C   0  0  0  0  0  0  0  0  0  0  0  0
   31.6020   26.1490   47.9380 C   0  0  0  0  0  0  0  0  0  0  0  0
   31.6900   25.0800   47.0560 C   0  0  0  0  0  0  0  0  0  0  0  0
   32.8820   24.8120   46.3600 C   0  0  0  0  0  0  0  0  0  0  0  0
   33.9670   25.6190   46.5600 C   0  0  0  0  0  0  0  0  0  0  0  0
   33.8730   26.6770   47.4360 C   0  0  0  0  0  0  0  0  0  0  0  0
   30.7120   26.3950   48.4930 H   0  0  0  0  0  0  0  0  0  0  0  0
   30.7830   24.4870   46.9540 H   0  0  0  0  0  0  0  0  0  0  0  0
   32.8850   23.9590   45.6840 H   0  0  0  0  0  0  0  0  0  0  0  0
   34.8540   25.3640   45.9990 H   0  0  0  0  0  0  0  0  0  0  0  0
   34.7510   27.2960   47.5690 H   0  0  0  0  0  0  0  0  0  0  0  0
  1  6  1  0  0  0  0
  1  7  1  0  0  0  0
  2  1  2  0  0  0  0
  3  4  2  0  0  0  0
  3  2  1  0  0  0  0
  4  5  1  0  0  0  0
  5 21  1  0  0  0  0
  5  6  2  0  0  0  0
  8  2  1  0  0  0  0
  9 10  1  0  0  0  0
 10  3  1  0  0  0  0
 11 10  2  0  0  0  0
 11 12  1  0  0  0  0
 13 11  1  0  0  0  0
 14 20  1  0  0  0  0
 14 13  1  0  0  0  0
 15 14  1  0  0  0  0
 16 15  1  0  0  0  0
 17 15  2  0  0  0  0
 17 18  1  0  0  0  0
 18 19  1  0  0  0  0
 18 13  2  0  0  0  0
 19  9  2  0  0  0  0
 22 23  1  0  0  0  0
 22 21  2  0  0  0  0
 23 24  1  0  0  0  0
 25 23  1  0  0  0  0
 26 23  1  0  0  0  0
 27 26  1  0  0  0  0
 27 32  1  0  0  0  0
 28 27  2  0  0  0  0
 29 30  2  0  0  0  0
 29 28  1  0  0  0  0
 30 31  1  0  0  0  0
 31 36  1  0  0  0  0
 31 26  2  0  0  0  0
 33 28  1  0  0  0  0
 34 29  1  0  0  0  0
 35 30  1  0  0  0  0
M  END
>  <minimizedAffinity>
-6.33068895

>  <minimizedRMSD>
1.76419091

$$$$
