
 OpenBabel03272505383D

 34 37  0  0  0  0  0  0  0  0999 V2000
   35.4190   30.2930   47.0300 C   0  0  0  0  0  0  0  0  0  0  0  0
   34.0790   30.0270   47.2530 C   0  0  0  0  0  0  0  0  0  0  0  0
   33.2300   29.7530   46.1950 C   0  0  0  0  0  0  0  0  0  0  0  0
   33.6590   29.7250   44.8850 C   0  0  0  0  0  0  0  0  0  0  0  0
   35.0000   29.9880   44.6430 C   0  0  0  0  0  0  0  0  0  0  0  0
   35.8090   30.2580   45.7220 C   0  0  0  0  0  0  0  0  0  0  0  0
   33.7720   30.0550   48.2980 H   0  0  0  0  0  0  0  0  0  0  0  0
   32.2040   29.5670   46.5530 H   0  0  0  0  0  0  0  0  0  0  0  0
   32.8570   29.4970   44.2110 H   0  0  0  0  0  0  0  0  0  0  0  0
   35.2650   29.9510   43.6010 H   0  0  0  0  0  0  0  0  0  0  0  0
   38.1990   29.6800   44.9650 C   0  0  0  0  0  3  0  0  0  0  0  0
   37.1700   30.5270   45.2520 C   0  0  0  0  0  0  0  0  0  0  0  0
   37.3680   31.9090   45.1120 C   0  0  0  0  0  0  0  0  0  0  0  0
   36.6260   32.6970   45.3070 H   0  0  0  0  0  0  0  0  0  0  0  0
   38.5810   32.4010   44.6940 C   0  0  0  0  0  0  0  0  0  0  0  0
   39.0850   33.6280   44.4650 N   0  0  0  0  0  0  0  0  0  0  0  0
   40.3750   33.6060   44.0530 C   0  0  0  0  0  0  0  0  0  0  0  0
   40.9590   34.4860   43.8190 H   0  0  0  0  0  0  0  0  0  0  0  0
   40.6810   32.2740   44.0270 N   0  0  0  0  0  0  0  0  0  0  0  0
   39.6090   31.5560   44.4090 C   0  0  0  0  0  0  0  0  0  0  0  0
   39.4030   30.2050   44.5480 C   0  0  0  0  0  3  0  0  0  0  0  0
   38.5340   34.5290   44.5960 H   0  0  0  0  0  0  0  0  0  0  0  0
   37.0940   30.1470   50.2640 C   0  0  0  0  0  0  0  0  0  0  0  0
   38.0200   31.2050   50.1860 C   0  0  0  0  0  0  0  0  0  0  0  0
   38.0510   31.9520   49.0020 C   0  0  0  0  0  0  0  0  0  0  0  0
   37.1860   31.6030   48.0110 N   0  0  0  0  0  0  0  0  0  0  0  0
   36.3170   30.5900   48.1190 C   0  0  0  0  0  0  0  0  0  0  0  0
   36.2890   29.8830   49.2410 N   0  0  0  0  0  0  0  0  0  0  0  0
   38.6630   31.3960   51.0410 H   0  0  0  0  0  0  0  0  0  0  0  0
   38.7600   32.7700   48.9300 H   0  0  0  0  0  0  0  0  0  0  0  0
   37.0780   29.3660   51.5400 C   0  0  0  0  0  0  0  0  0  0  0  0
   35.7590   29.0360   51.8470 F   0  0  0  0  0  0  0  0  0  0  0  0
   37.8530   28.2620   51.3580 F   0  0  0  0  0  0  0  0  0  0  0  0
   37.5240   30.1900   52.5580 F   0  0  0  0  0  0  0  0  0  0  0  0
  1  2  1  0  0  0  0
  1 27  1  0  0  0  0
  2  7  1  0  0  0  0
  3  8  1  0  0  0  0
  3  2  2  0  0  0  0
  4  3  1  0  0  0  0
  5  4  2  0  0  0  0
  5  6  1  0  0  0  0
  6  1  2  0  0  0  0
  9  4  1  0  0  0  0
 10  5  1  0  0  0  0
 11 12  1  0  0  0  0
 12  6  1  0  0  0  0
 13 12  2  0  0  0  0
 13 14  1  0  0  0  0
 15 13  1  0  0  0  0
 16 22  1  0  0  0  0
 16 15  1  0  0  0  0
 17 16  1  0  0  0  0
 18 17  1  0  0  0  0
 19 17  2  0  0  0  0
 19 20  1  0  0  0  0
 20 21  1  0  0  0  0
 20 15  2  0  0  0  0
 21 11  2  0  0  0  0
 23 31  1  0  0  0  0
 24 23  1  0  0  0  0
 24 29  1  0  0  0  0
 25 24  2  0  0  0  0
 26 27  2  0  0  0  0
 26 25  1  0  0  0  0
 27 28  1  0  0  0  0
 28 23  2  0  0  0  0
 30 25  1  0  0  0  0
 31 32  1  0  0  0  0
 31 34  1  0  0  0  0
 33 31  1  0  0  0  0
M  END
>  <minimizedAffinity>
-6.26465273

>  <minimizedRMSD>
1.23619008

$$$$
