
 OpenBabel03272509043D

 36 39  0  0  0  0  0  0  0  0999 V2000
   37.5830   30.3810   51.1250 C   0  0  0  0  0  0  0  0  0  0  0  0
   38.1510   30.9390   49.9610 C   0  0  0  0  0  0  0  0  0  0  0  0
   37.6050   30.6000   48.7080 C   0  0  0  0  0  0  0  0  0  0  0  0
   36.5450   29.7380   48.7360 N   0  0  0  0  0  0  0  0  0  0  0  0
   36.0340   29.2300   49.8510 C   0  0  0  0  0  0  0  0  0  0  0  0
   36.5440   29.5440   51.0540 N   0  0  0  0  0  0  0  0  0  0  0  0
   38.0230   30.6610   52.0580 H   0  0  0  0  0  0  0  0  0  0  0  0
   38.9710   31.6000   50.0140 H   0  0  0  0  0  0  0  0  0  0  0  0
   39.4570   31.2910   47.1860 C   0  0  0  0  0  3  0  0  0  0  0  0
   38.1210   31.1230   47.4520 C   0  0  0  0  0  0  0  0  0  0  0  0
   37.2110   31.4690   46.4770 C   0  0  0  0  0  0  0  0  0  0  0  0
   36.1450   31.3780   46.5820 H   0  0  0  0  0  0  0  0  0  0  0  0
   37.6970   31.9720   45.2700 C   0  0  0  0  0  0  0  0  0  0  0  0
   37.0910   32.3920   44.1430 N   0  0  0  0  0  0  0  0  0  0  0  0
   38.0190   32.7950   43.2380 C   0  0  0  0  0  0  0  0  0  0  0  0
   37.9130   33.1880   42.2370 H   0  0  0  0  0  0  0  0  0  0  0  0
   39.2260   32.6320   43.7870 N   0  0  0  0  0  0  0  0  0  0  0  0
   39.0590   32.1330   45.0230 C   0  0  0  0  0  0  0  0  0  0  0  0
   39.9690   31.7770   46.0240 C   0  0  0  0  0  3  0  0  0  0  0  0
   36.0640   32.4150   43.9630 H   0  0  0  0  0  0  0  0  0  0  0  0
   34.9240   28.3320   49.6750 C   0  0  0  0  0  3  0  0  0  0  0  0
   34.4010   28.1680   48.5110 C   0  0  0  0  0  3  0  0  0  0  0  0
   33.2870   27.3090   48.0970 C   0  0  0  0  0  0  0  0  0  0  0  0
   32.9060   26.7950   49.0050 H   0  0  0  0  0  0  0  0  0  0  0  0
   32.4370   27.8830   47.6770 H   0  0  0  0  0  0  0  0  0  0  0  0
   33.6760   26.2820   47.0780 C   0  0  0  0  0  0  0  0  0  0  0  0
   33.8530   24.9330   47.3310 C   0  0  0  0  0  0  0  0  0  0  0  0
   34.2110   24.0840   46.2910 C   0  0  0  0  0  0  0  0  0  0  0  0
   34.3940   24.5750   44.9870 C   0  0  0  0  0  0  0  0  0  0  0  0
   34.2180   25.9080   44.7440 C   0  0  0  0  0  0  0  0  0  0  0  0
   33.8630   26.7450   45.7790 C   0  0  0  0  0  0  0  0  0  0  0  0
   33.7000   24.6050   48.3450 H   0  0  0  0  0  0  0  0  0  0  0  0
   34.3320   23.0380   46.5680 H   0  0  0  0  0  0  0  0  0  0  0  0
   34.6740   23.8570   44.2180 H   0  0  0  0  0  0  0  0  0  0  0  0
   34.3740   26.2270   43.7240 H   0  0  0  0  0  0  0  0  0  0  0  0
   33.7310   27.7950   45.5510 H   0  0  0  0  0  0  0  0  0  0  0  0
  1  7  1  0  0  0  0
  2  8  1  0  0  0  0
  2  1  2  0  0  0  0
  3  4  2  0  0  0  0
  3  2  1  0  0  0  0
  4  5  1  0  0  0  0
  5  6  2  0  0  0  0
  6  1  1  0  0  0  0
  9 10  1  0  0  0  0
 10  3  1  0  0  0  0
 11 12  1  0  0  0  0
 11 10  2  0  0  0  0
 13 11  1  0  0  0  0
 14 13  1  0  0  0  0
 15 17  2  0  0  0  0
 15 14  1  0  0  0  0
 16 15  1  0  0  0  0
 17 18  1  0  0  0  0
 18 13  2  0  0  0  0
 18 19  1  0  0  0  0
 19  9  2  0  0  0  0
 20 14  1  0  0  0  0
 21  5  1  0  0  0  0
 22 21  2  0  0  0  0
 23 22  1  0  0  0  0
 23 24  1  0  0  0  0
 25 23  1  0  0  0  0
 26 27  1  0  0  0  0
 26 23  1  0  0  0  0
 27 32  1  0  0  0  0
 28 33  1  0  0  0  0
 28 27  2  0  0  0  0
 29 28  1  0  0  0  0
 30 29  2  0  0  0  0
 30 31  1  0  0  0  0
 31 26  2  0  0  0  0
 34 29  1  0  0  0  0
 35 30  1  0  0  0  0
 36 31  1  0  0  0  0
M  END
>  <minimizedAffinity>
-6.49756861

>  <minimizedRMSD>
0.888374805

$$$$
