
 OpenBabel03272507473D

 49 54  0  0  1  0  0  0  0  0999 V2000
   33.1110   28.9140   46.4800 N   0  0  0  0  0  0  0  0  0  0  0  0
   33.4640   28.3800   47.7510 C   0  0  0  0  0  0  0  0  0  0  0  0
   34.5970   29.0170   48.4560 C   0  0  0  0  0  0  0  0  0  0  0  0
   35.7130   29.4890   47.6390 C   0  0  1  0  0  0  0  0  0  0  0  0
   35.2680   29.9810   46.2510 C   0  0  0  0  0  0  0  0  0  0  0  0
   34.3140   28.9290   45.6740 C   0  0  0  0  0  0  0  0  0  0  0  0
   32.5480   28.3850   48.3850 H   0  0  0  0  0  0  0  0  0  0  0  0
   33.6740   27.2790   47.6080 H   0  0  0  0  0  0  0  0  0  0  0  0
   34.1020   29.9430   48.9040 H   0  0  0  0  0  0  0  0  0  0  0  0
   34.9100   28.3980   49.3120 H   0  0  0  0  0  0  0  0  0  0  0  0
   36.4190   28.6530   47.4060 H   0  0  0  0  0  0  0  0  0  0  0  0
   36.1310   30.0240   45.5640 H   0  0  0  0  0  0  0  0  0  0  0  0
   34.6800   30.8990   46.3260 H   0  0  0  0  0  0  0  0  0  0  0  0
   34.8360   27.9450   45.6450 H   0  0  0  0  0  0  0  0  0  0  0  0
   34.0490   29.1590   44.6360 H   0  0  0  0  0  0  0  0  0  0  0  0
   36.1740   31.0180   49.5030 C   0  0  0  0  0  0  0  0  0  0  0  0
   36.4860   30.6170   48.2170 C   0  0  0  0  0  0  0  0  0  0  0  0
   37.4430   31.2220   47.4470 C   0  0  0  0  0  0  0  0  0  0  0  0
   38.1340   32.2990   47.9950 C   0  0  0  0  0  0  0  0  0  0  0  0
   37.8210   32.6960   49.2710 C   0  0  0  0  0  0  0  0  0  0  0  0
   36.8490   32.0840   50.0570 C   0  0  0  0  0  0  0  0  0  0  0  0
   38.6170   33.7940   49.6470 O   0  0  0  0  0  0  0  0  0  0  0  0
   39.6680   33.8130   48.6830 C   0  0  0  0  0  0  0  0  0  0  0  0
   39.1470   33.1560   47.5540 O   0  0  0  0  0  0  0  0  0  0  0  0
   35.4570   30.6170   50.2070 H   0  0  0  0  0  0  0  0  0  0  0  0
   37.6660   30.8920   46.4580 H   0  0  0  0  0  0  0  0  0  0  0  0
   36.6560   32.4570   51.0660 H   0  0  0  0  0  0  0  0  0  0  0  0
   39.9120   34.8570   48.3700 H   0  0  0  0  0  0  0  0  0  0  0  0
   40.5540   33.2850   49.0980 H   0  0  0  0  0  0  0  0  0  0  0  0
   31.8260   29.3600   46.0380 C   0  0  0  0  0  0  0  0  0  0  0  0
   31.5520   30.0110   44.8400 C   0  0  0  0  0  0  0  0  0  0  0  0
   30.2400   30.3470   44.5850 C   0  0  0  0  0  0  0  0  0  0  0  0
   29.2860   30.0310   45.5020 N   0  0  0  0  0  0  0  0  0  0  0  0
   29.5730   29.4010   46.6550 C   0  0  0  0  0  0  0  0  0  0  0  0
   30.8510   29.0750   46.9020 N   0  0  0  0  0  0  0  0  0  0  0  0
   32.3980   30.1970   44.2100 H   0  0  0  0  0  0  0  0  0  0  0  0
   30.0500   30.8500   43.6520 H   0  0  0  0  0  0  0  0  0  0  0  0
   27.1950   29.1600   47.2050 C   0  0  0  0  0  3  0  0  0  0  0  0
   28.5120   29.0810   47.6130 C   0  0  0  0  0  0  0  0  0  0  0  0
   28.8370   28.7060   48.9090 C   0  0  0  0  0  0  0  0  0  0  0  0
   29.8780   28.6500   49.2110 H   0  0  0  0  0  0  0  0  0  0  0  0
   27.8260   28.4080   49.8000 C   0  0  0  0  0  0  0  0  0  0  0  0
   27.9350   28.0280   51.0870 N   0  0  0  0  0  0  0  0  0  0  0  0
   26.6390   27.8690   51.4840 C   0  0  0  0  0  0  0  0  0  0  0  0
   26.2450   27.5720   52.4380 H   0  0  0  0  0  0  0  0  0  0  0  0
   25.8010   28.1380   50.4870 N   0  0  0  0  0  0  0  0  0  0  0  0
   26.5030   28.4800   49.4160 C   0  0  0  0  0  0  0  0  0  0  0  0
   26.1800   28.8580   48.1100 C   0  0  0  0  0  3  0  0  0  0  0  0
   28.7550   27.8690   51.7140 H   0  0  0  0  0  0  0  0  0  0  0  0
  1  2  1  0  0  0  0
  2  7  1  0  0  0  0
  2  3  1  0  0  0  0
  3  9  1  0  0  0  0
  3 10  1  0  0  0  0
  4 11  1  6  0  0  0
  4 17  1  0  0  0  0
  4  3  1  0  0  0  0
  5 13  1  0  0  0  0
  5  4  1  0  0  0  0
  6  5  1  0  0  0  0
  6  1  1  0  0  0  0
  8  2  1  0  0  0  0
 12  5  1  0  0  0  0
 14  6  1  0  0  0  0
 15  6  1  0  0  0  0
 16 21  1  0  0  0  0
 16 25  1  0  0  0  0
 17 16  2  0  0  0  0
 18 19  2  0  0  0  0
 18 17  1  0  0  0  0
 19 20  1  0  0  0  0
 20 22  1  0  0  0  0
 20 21  2  0  0  0  0
 21 27  1  0  0  0  0
 23 29  1  0  0  0  0
 23 22  1  0  0  0  0
 24 19  1  0  0  0  0
 24 23  1  0  0  0  0
 26 18  1  0  0  0  0
 28 23  1  0  0  0  0
 30  1  1  0  0  0  0
 30 35  1  0  0  0  0
 31 30  2  0  0  0  0
 32 31  1  0  0  0  0
 32 33  2  0  0  0  0
 33 34  1  0  0  0  0
 34 35  2  0  0  0  0
 34 39  1  0  0  0  0
 36 31  1  0  0  0  0
 37 32  1  0  0  0  0
 38 39  2  0  0  0  0
 38 48  1  0  0  0  0
 39 40  1  0  0  0  0
 40 41  1  0  0  0  0
 40 42  2  0  0  0  0
 42 43  1  0  0  0  0
 43 44  1  0  0  0  0
 43 49  1  0  0  0  0
 44 45  1  0  0  0  0
 46 44  2  0  0  0  0
 47 42  1  0  0  0  0
 47 46  1  0  0  0  0
 48 47  2  0  0  0  0
M  END
>  <minimizedAffinity>
-7.6398201

>  <minimizedRMSD>
1.57933402

$$$$
