
 OpenBabel03272500313D

 31 34  0  0  0  0  0  0  0  0999 V2000
   35.9340   30.1760   47.0700 Cl  0  0  0  0  0  0  0  0  0  0  0  0
   36.4210   30.0440   48.7540 C   0  0  0  0  0  0  0  0  0  0  0  0
   37.5850   30.6870   49.0890 C   0  0  0  0  0  0  0  0  0  0  0  0
   37.9920   30.5940   50.4280 C   0  0  0  0  0  0  0  0  0  0  0  0
   37.2330   29.8830   51.3230 C   0  0  0  0  0  0  0  0  0  0  0  0
   36.0770   29.2680   50.8970 C   0  0  0  0  0  0  0  0  0  0  0  0
   35.6190   29.3200   49.5930 C   0  0  0  0  0  0  0  0  0  0  0  0
   38.9140   31.1050   50.6920 H   0  0  0  0  0  0  0  0  0  0  0  0
   37.5970   29.8450   52.3460 H   0  0  0  0  0  0  0  0  0  0  0  0
   35.5590   28.7360   51.6870 H   0  0  0  0  0  0  0  0  0  0  0  0
   34.3470   27.6820   48.2370 C   0  0  0  0  0  0  0  0  0  0  0  0
   34.3990   28.6500   49.2230 C   0  0  0  0  0  0  0  0  0  0  0  0
   33.2110   28.9580   49.8560 C   0  0  0  0  0  0  0  0  0  0  0  0
   33.1280   29.6960   50.6430 H   0  0  0  0  0  0  0  0  0  0  0  0
   32.0040   28.3420   49.5410 C   0  0  0  0  0  0  0  0  0  0  0  0
   30.7390   28.4520   49.9890 N   0  0  0  0  0  0  0  0  0  0  0  0
   29.9350   27.6070   49.3300 C   0  0  0  0  0  0  0  0  0  0  0  0
   28.8670   27.5050   49.5070 H   0  0  0  0  0  0  0  0  0  0  0  0
   30.7050   26.9460   48.4420 N   0  0  0  0  0  0  0  0  0  0  0  0
   31.9880   27.3790   48.5500 C   0  0  0  0  0  0  0  0  0  0  0  0
   33.1650   27.0520   47.8980 C   0  0  0  0  0  0  0  0  0  0  0  0
   30.4350   29.0970   50.7360 H   0  0  0  0  0  0  0  0  0  0  0  0
   39.3850   33.4460   47.5240 C   0  0  0  0  0  0  0  0  0  0  0  0
   39.8380   32.9150   46.3180 C   0  0  0  0  0  0  0  0  0  0  0  0
   39.5130   31.5730   46.0390 C   0  0  0  0  0  0  0  0  0  0  0  0
   38.7800   30.8690   46.9550 N   0  0  0  0  0  0  0  0  0  0  0  0
   38.3680   31.4350   48.1090 C   0  0  0  0  0  0  0  0  0  0  0  0
   38.6710   32.7210   48.3900 N   0  0  0  0  0  0  0  0  0  0  0  0
   39.6620   34.4740   47.6850 H   0  0  0  0  0  0  0  0  0  0  0  0
   40.4180   33.4350   45.5690 H   0  0  0  0  0  0  0  0  0  0  0  0
   39.7960   31.0300   45.1460 H   0  0  0  0  0  0  0  0  0  0  0  0
  1  2  1  0  0  0  0
  2  3  2  0  0  0  0
  2  7  1  0  0  0  0
  3  4  1  0  0  0  0
  4  8  1  0  0  0  0
  4  5  2  0  0  0  0
  5  9  1  0  0  0  0
  6  5  1  0  0  0  0
  6 10  1  0  0  0  0
  7  6  2  0  0  0  0
 11 12  1  0  0  0  0
 12  7  1  0  0  0  0
 12 13  2  0  0  0  0
 13 14  1  0  0  0  0
 15 13  1  0  0  0  0
 15 16  1  0  0  0  0
 16 22  1  0  0  0  0
 17 18  1  0  0  0  0
 17 16  1  0  0  0  0
 19 20  1  0  0  0  0
 19 17  2  0  0  0  0
 20 15  2  0  0  0  0
 21 11  2  0  0  0  0
 21 20  1  0  0  0  0
 23 29  1  0  0  0  0
 23 28  1  0  0  0  0
 24 23  2  0  0  0  0
 25 24  1  0  0  0  0
 25 26  2  0  0  0  0
 26 27  1  0  0  0  0
 27 28  2  0  0  0  0
 27  3  1  0  0  0  0
 30 24  1  0  0  0  0
 31 25  1  0  0  0  0
M  END
>  <minimizedAffinity>
-7.09807682

>  <minimizedRMSD>
1.08469224

$$$$
