
 OpenBabel03272510013D

 24 26  0  0  0  0  0  0  0  0999 V2000
   37.7390   32.5920   49.6000 C   0  0  0  0  0  0  0  0  0  0  0  0
   38.1590   32.3720   48.2860 C   0  0  0  0  0  0  0  0  0  0  0  0
   37.7170   31.2230   47.6490 C   0  0  0  0  0  0  0  0  0  0  0  0
   36.9060   30.3770   48.3260 N   0  0  0  0  0  0  0  0  0  0  0  0
   36.5180   30.6210   49.6010 C   0  0  0  0  0  0  0  0  0  0  0  0
   36.9400   31.7310   50.2280 N   0  0  0  0  0  0  0  0  0  0  0  0
   38.1090   33.5030   50.0580 H   0  0  0  0  0  0  0  0  0  0  0  0
   38.7960   33.0520   47.7790 H   0  0  0  0  0  0  0  0  0  0  0  0
   37.0600   30.5860   45.4070 C   0  0  0  0  0  3  0  0  0  0  0  0
   38.0830   30.8820   46.2830 C   0  0  0  0  0  0  0  0  0  0  0  0
   39.3660   30.8400   45.8280 C   0  0  0  0  0  0  0  0  0  0  0  0
   40.1780   31.0620   46.4760 H   0  0  0  0  0  0  0  0  0  0  0  0
   39.7100   30.5150   44.5270 C   0  0  0  0  0  0  0  0  0  0  0  0
   40.9060   30.4190   43.8880 N   0  0  0  0  0  0  0  0  0  0  0  0
   40.6300   30.0640   42.6160 C   0  0  0  0  0  0  0  0  0  0  0  0
   41.4570   29.9340   41.9330 H   0  0  0  0  0  0  0  0  0  0  0  0
   39.2900   29.9400   42.4620 N   0  0  0  0  0  0  0  0  0  0  0  0
   38.6840   30.2140   43.6310 C   0  0  0  0  0  0  0  0  0  0  0  0
   37.3690   30.2550   44.0860 C   0  0  0  0  0  3  0  0  0  0  0  0
   41.8460   30.5990   44.3500 H   0  0  0  0  0  0  0  0  0  0  0  0
   35.6280   29.6230   50.2410 C   0  0  0  0  0  0  0  0  0  0  0  0
   35.9380   29.4380   51.5860 F   0  0  0  0  0  0  0  0  0  0  0  0
   34.3020   30.0300   50.2180 F   0  0  0  0  0  0  0  0  0  0  0  0
   35.6660   28.3870   49.6510 F   0  0  0  0  0  0  0  0  0  0  0  0
  1  7  1  0  0  0  0
  1  6  1  0  0  0  0
  2  1  2  0  0  0  0
  3  2  1  0  0  0  0
  3  4  2  0  0  0  0
  4  5  1  0  0  0  0
  5  6  2  0  0  0  0
  5 21  1  0  0  0  0
  8  2  1  0  0  0  0
  9 10  1  0  0  0  0
 10  3  1  0  0  0  0
 11 10  2  0  0  0  0
 11 12  1  0  0  0  0
 13 11  1  0  0  0  0
 14 20  1  0  0  0  0
 14 13  1  0  0  0  0
 15 14  1  0  0  0  0
 16 15  1  0  0  0  0
 17 15  2  0  0  0  0
 17 18  1  0  0  0  0
 18 19  1  0  0  0  0
 18 13  2  0  0  0  0
 19  9  2  0  0  0  0
 21 22  1  0  0  0  0
 23 21  1  0  0  0  0
 24 21  1  0  0  0  0
M  END
>  <minimizedAffinity>
-6.21388245

>  <minimizedRMSD>
1.92201543

$$$$
