
 OpenBabel03272503173D

 28 31  0  0  0  0  0  0  0  0999 V2000
   38.1230   31.0990   48.0100 C   0  0  0  0  0  0  0  0  0  0  0  0
   38.8820   32.1830   47.8160 C   0  0  0  0  0  0  0  0  0  0  0  0
   39.3580   32.4900   46.5970 C   0  0  0  0  0  0  0  0  0  0  0  0
   39.0180   31.6250   45.5620 C   0  0  0  0  0  0  0  0  0  0  0  0
   37.9890   30.3600   46.4280 S   0  0  0  0  0  0  0  0  0  0  0  0
   39.1060   32.8190   48.6920 H   0  0  0  0  0  0  0  0  0  0  0  0
   39.9750   33.3330   46.3240 H   0  0  0  0  0  0  0  0  0  0  0  0
   38.8230   32.6460   43.3740 C   0  0  0  0  0  0  0  0  0  0  0  0
   39.3380   31.6340   44.1560 C   0  0  0  0  0  0  0  0  0  0  0  0
   40.1360   30.6280   43.6810 C   0  0  0  0  0  0  0  0  0  0  0  0
   40.5300   29.8370   44.3190 H   0  0  0  0  0  0  0  0  0  0  0  0
   40.4620   30.6090   42.3300 C   0  0  0  0  0  0  0  0  0  0  0  0
   41.2110   29.7620   41.6000 N   0  0  0  0  0  0  0  0  0  0  0  0
   41.1920   30.2230   40.3160 C   0  0  0  0  0  0  0  0  0  0  0  0
   41.7170   29.7390   39.4830 H   0  0  0  0  0  0  0  0  0  0  0  0
   40.4300   31.3480   40.2760 N   0  0  0  0  0  0  0  0  0  0  0  0
   39.9580   31.6180   41.5210 C   0  0  0  0  0  0  0  0  0  0  0  0
   39.1550   32.6160   42.0330 C   0  0  0  0  0  0  0  0  0  0  0  0
   41.7240   28.9080   41.9110 H   0  0  0  0  0  0  0  0  0  0  0  0
   37.3580   30.2170   51.5850 C   0  0  0  0  0  0  0  0  0  0  0  0
   38.0400   30.7800   50.4900 C   0  0  0  0  0  0  0  0  0  0  0  0
   37.4990   30.5630   49.2140 C   0  0  0  0  0  0  0  0  0  0  0  0
   36.3710   29.8380   49.0930 N   0  0  0  0  0  0  0  0  0  0  0  0
   35.7430   29.3140   50.1590 C   0  0  0  0  0  0  0  0  0  0  0  0
   36.2330   29.5020   51.3920 N   0  0  0  0  0  0  0  0  0  0  0  0
   37.8760   30.4580   52.5050 H   0  0  0  0  0  0  0  0  0  0  0  0
   38.9350   31.3610   50.5250 H   0  0  0  0  0  0  0  0  0  0  0  0
   34.8320   28.7310   50.0390 H   0  0  0  0  0  0  0  0  0  0  0  0
  1 22  1  0  0  0  0
  2  1  2  0  0  0  0
  2  6  1  0  0  0  0
  3  2  1  0  0  0  0
  4  5  1  0  0  0  0
  4  3  2  0  0  0  0
  5  1  1  0  0  0  0
  7  3  1  0  0  0  0
  8  9  1  0  0  0  0
  9  4  1  0  0  0  0
 10  9  2  0  0  0  0
 10 11  1  0  0  0  0
 12 10  1  0  0  0  0
 13 19  1  0  0  0  0
 13 12  1  0  0  0  0
 14 13  1  0  0  0  0
 15 14  1  0  0  0  0
 16 14  2  0  0  0  0
 16 17  1  0  0  0  0
 17 18  1  0  0  0  0
 17 12  2  0  0  0  0
 18  8  2  0  0  0  0
 20 26  1  0  0  0  0
 21 27  1  0  0  0  0
 21 20  2  0  0  0  0
 22 21  1  0  0  0  0
 23 22  2  0  0  0  0
 23 24  1  0  0  0  0
 24 25  2  0  0  0  0
 25 20  1  0  0  0  0
 28 24  1  0  0  0  0
M  END
>  <minimizedAffinity>
-5.67236423

>  <minimizedRMSD>
1.38349831

$$$$
