
 OpenBabel03272510023D

 24 26  0  0  0  0  0  0  0  0999 V2000
   38.0220   33.2610   49.5520 C   0  0  0  0  0  0  0  0  0  0  0  0
   38.7070   33.0410   48.3550 C   0  0  0  0  0  0  0  0  0  0  0  0
   38.4430   31.8680   47.6640 C   0  0  0  0  0  0  0  0  0  0  0  0
   37.5400   31.0020   48.1800 N   0  0  0  0  0  0  0  0  0  0  0  0
   36.8940   31.2470   49.3450 C   0  0  0  0  0  0  0  0  0  0  0  0
   37.1430   32.3800   50.0220 N   0  0  0  0  0  0  0  0  0  0  0  0
   38.2610   34.1910   50.0580 H   0  0  0  0  0  0  0  0  0  0  0  0
   39.4100   33.7380   47.9740 H   0  0  0  0  0  0  0  0  0  0  0  0
   40.0160   32.4160   45.9070 C   0  0  0  0  0  3  0  0  0  0  0  0
   39.0900   31.5250   46.4080 C   0  0  0  0  0  0  0  0  0  0  0  0
   38.8360   30.3850   45.7070 C   0  0  0  0  0  0  0  0  0  0  0  0
   38.1290   29.6780   46.0640 H   0  0  0  0  0  0  0  0  0  0  0  0
   39.4540   30.0630   44.5120 C   0  0  0  0  0  0  0  0  0  0  0  0
   39.3430   28.9970   43.6750 N   0  0  0  0  0  0  0  0  0  0  0  0
   40.1960   29.2220   42.6560 C   0  0  0  0  0  0  0  0  0  0  0  0
   40.2590   28.4820   41.8710 H   0  0  0  0  0  0  0  0  0  0  0  0
   40.8300   30.4040   42.8490 N   0  0  0  0  0  0  0  0  0  0  0  0
   40.3930   30.9570   43.9950 C   0  0  0  0  0  0  0  0  0  0  0  0
   40.6610   32.1260   44.7040 C   0  0  0  0  0  3  0  0  0  0  0  0
   38.6930   28.1740   43.8420 H   0  0  0  0  0  0  0  0  0  0  0  0
   35.9270   30.2240   49.8110 C   0  0  0  0  0  0  0  0  0  0  0  0
   34.6110   30.6690   49.7060 F   0  0  0  0  0  0  0  0  0  0  0  0
   35.9920   29.0710   49.0430 F   0  0  0  0  0  0  0  0  0  0  0  0
   36.1120   29.8380   51.1130 F   0  0  0  0  0  0  0  0  0  0  0  0
  1  6  1  0  0  0  0
  1  7  1  0  0  0  0
  2  1  2  0  0  0  0
  3  4  2  0  0  0  0
  3  2  1  0  0  0  0
  4  5  1  0  0  0  0
  5 21  1  0  0  0  0
  5  6  2  0  0  0  0
  8  2  1  0  0  0  0
  9 10  1  0  0  0  0
 10  3  1  0  0  0  0
 11 12  1  0  0  0  0
 11 10  2  0  0  0  0
 13 11  1  0  0  0  0
 14 20  1  0  0  0  0
 14 13  1  0  0  0  0
 15 17  2  0  0  0  0
 15 14  1  0  0  0  0
 16 15  1  0  0  0  0
 17 18  1  0  0  0  0
 18 13  2  0  0  0  0
 18 19  1  0  0  0  0
 19  9  2  0  0  0  0
 21 24  1  0  0  0  0
 22 21  1  0  0  0  0
 23 21  1  0  0  0  0
M  END
>  <minimizedAffinity>
-6.63505554

>  <minimizedRMSD>
2.66833425

$$$$
