
 OpenBabel03272503033D

 31 34  0  0  0  0  0  0  0  0999 V2000
   37.0760   28.4320   35.6580 F   0  0  0  0  0  0  0  0  0  0  0  0
   36.6790   28.3900   34.3720 C   0  0  0  0  0  0  0  0  0  0  0  0
   35.7130   29.2340   33.9330 C   0  0  0  0  0  0  0  0  0  0  0  0
   35.3410   29.1520   32.6070 C   0  0  0  0  0  0  0  0  0  0  0  0
   35.9300   28.2370   31.7420 C   0  0  0  0  0  0  0  0  0  0  0  0
   36.9120   27.3900   32.2150 C   0  0  0  0  0  0  0  0  0  0  0  0
   37.2850   27.4710   33.5420 C   0  0  0  0  0  0  0  0  0  0  0  0
   34.5660   29.8300   32.2600 H   0  0  0  0  0  0  0  0  0  0  0  0
   35.5810   28.2370   30.7170 H   0  0  0  0  0  0  0  0  0  0  0  0
   37.3420   26.6960   31.5090 H   0  0  0  0  0  0  0  0  0  0  0  0
   38.0420   25.2620   34.3730 C   0  0  0  0  0  3  0  0  0  0  0  0
   38.3250   26.5650   34.0200 C   0  0  0  0  0  0  0  0  0  0  0  0
   39.6010   27.1130   34.0890 C   0  0  0  0  0  0  0  0  0  0  0  0
   39.8400   28.1270   33.8170 H   0  0  0  0  0  0  0  0  0  0  0  0
   40.6200   26.2980   34.5340 C   0  0  0  0  0  0  0  0  0  0  0  0
   41.9630   26.4170   34.7490 N   0  0  0  0  0  0  0  0  0  0  0  0
   42.4340   25.2530   35.2010 C   0  0  0  0  0  0  0  0  0  0  0  0
   43.4960   25.1290   35.4400 H   0  0  0  0  0  0  0  0  0  0  0  0
   41.4290   24.3350   35.3000 N   0  0  0  0  0  0  0  0  0  0  0  0
   40.3300   24.9950   34.8860 C   0  0  0  0  0  0  0  0  0  0  0  0
   39.0720   24.4300   34.8270 C   0  0  0  0  0  3  0  0  0  0  0  0
   42.5000   27.3050   34.5730 H   0  0  0  0  0  0  0  0  0  0  0  0
   35.2970   32.0630   36.4240 C   0  0  0  0  0  0  0  0  0  0  0  0
   35.8660   31.1710   35.5150 C   0  0  0  0  0  0  0  0  0  0  0  0
   35.1290   30.1730   34.8860 C   0  0  0  0  0  0  0  0  0  0  0  0
   33.8030   30.1100   35.2100 N   0  0  0  0  0  0  0  0  0  0  0  0
   33.2700   30.9850   36.0950 C   0  0  0  0  0  0  0  0  0  0  0  0
   33.9920   31.9390   36.6900 N   0  0  0  0  0  0  0  0  0  0  0  0
   36.0440   32.7530   36.7900 H   0  0  0  0  0  0  0  0  0  0  0  0
   36.9130   31.1660   35.2120 H   0  0  0  0  0  0  0  0  0  0  0  0
   32.2280   30.9650   36.3740 H   0  0  0  0  0  0  0  0  0  0  0  0
  2  1  1  0  0  0  0
  3  2  1  0  0  0  0
  3 25  1  0  0  0  0
  4  3  2  0  0  0  0
  5  6  2  0  0  0  0
  5  4  1  0  0  0  0
  6  7  1  0  0  0  0
  7 12  1  0  0  0  0
  7  2  2  0  0  0  0
  8  4  1  0  0  0  0
  9  5  1  0  0  0  0
 10  6  1  0  0  0  0
 11 21  1  0  0  0  0
 12 13  1  0  0  0  0
 12 11  2  0  0  0  0
 13 15  2  0  0  0  0
 14 13  1  0  0  0  0
 15 16  1  0  0  0  0
 15 20  1  0  0  0  0
 16 17  1  0  0  0  0
 17 19  2  0  0  0  0
 17 18  1  0  0  0  0
 20 19  1  0  0  0  0
 21 20  2  0  0  0  0
 22 16  1  0  0  0  0
 23 28  1  0  0  0  0
 23 29  1  0  0  0  0
 24 23  2  0  0  0  0
 25 26  2  0  0  0  0
 25 24  1  0  0  0  0
 26 27  1  0  0  0  0
 27 31  1  0  0  0  0
 27 28  2  0  0  0  0
 30 24  1  0  0  0  0
M  END
>  <minimizedAffinity>
-5.73750305

$$$$

 OpenBabel03272503033D

 31 34  0  0  0  0  0  0  0  0999 V2000
   36.7270   27.6940   35.2720 F   0  0  0  0  0  0  0  0  0  0  0  0
   36.7880   28.0280   33.9690 C   0  0  0  0  0  0  0  0  0  0  0  0
   37.6040   27.3440   33.1300 C   0  0  0  0  0  0  0  0  0  0  0  0
   37.6310   27.7250   31.8050 C   0  0  0  0  0  0  0  0  0  0  0  0
   36.8520   28.7750   31.3350 C   0  0  0  0  0  0  0  0  0  0  0  0
   36.0290   29.4560   32.2100 C   0  0  0  0  0  0  0  0  0  0  0  0
   36.0010   29.0750   33.5360 C   0  0  0  0  0  0  0  0  0  0  0  0
   38.2870   27.1720   31.1370 H   0  0  0  0  0  0  0  0  0  0  0  0
   36.9310   29.0110   30.2810 H   0  0  0  0  0  0  0  0  0  0  0  0
   35.4420   30.2650   31.8020 H   0  0  0  0  0  0  0  0  0  0  0  0
   33.7800   29.5160   34.5440 C   0  0  0  0  0  3  0  0  0  0  0  0
   35.1240   29.8090   34.4440 C   0  0  0  0  0  0  0  0  0  0  0  0
   35.7430   30.8100   35.1850 C   0  0  0  0  0  0  0  0  0  0  0  0
   36.7900   31.0520   35.1200 H   0  0  0  0  0  0  0  0  0  0  0  0
   34.9580   31.5330   36.0580 C   0  0  0  0  0  0  0  0  0  0  0  0
   35.1420   32.5580   36.9400 N   0  0  0  0  0  0  0  0  0  0  0  0
   33.9750   32.8460   37.5200 C   0  0  0  0  0  0  0  0  0  0  0  0
   33.8970   33.6430   38.2660 H   0  0  0  0  0  0  0  0  0  0  0  0
   32.9900   32.0290   37.0450 N   0  0  0  0  0  0  0  0  0  0  0  0
   33.6140   31.2350   36.1540 C   0  0  0  0  0  0  0  0  0  0  0  0
   32.9770   30.2470   35.4280 C   0  0  0  0  0  3  0  0  0  0  0  0
   36.0740   33.0190   37.1050 H   0  0  0  0  0  0  0  0  0  0  0  0
   40.4130   25.3810   34.7550 C   0  0  0  0  0  0  0  0  0  0  0  0
   39.6630   26.4340   34.2330 C   0  0  0  0  0  0  0  0  0  0  0  0
   38.3990   26.2490   33.6800 C   0  0  0  0  0  0  0  0  0  0  0  0
   37.9270   24.9680   33.6760 N   0  0  0  0  0  0  0  0  0  0  0  0
   38.6710   23.9600   34.1870 C   0  0  0  0  0  0  0  0  0  0  0  0
   39.8830   24.1540   34.7150 N   0  0  0  0  0  0  0  0  0  0  0  0
   41.3590   25.7460   35.1310 H   0  0  0  0  0  0  0  0  0  0  0  0
   39.9780   27.4780   34.2050 H   0  0  0  0  0  0  0  0  0  0  0  0
   38.3300   22.9360   34.2010 H   0  0  0  0  0  0  0  0  0  0  0  0
  2  1  1  0  0  0  0
  3 25  1  0  0  0  0
  3  2  2  0  0  0  0
  4  3  1  0  0  0  0
  5  4  2  0  0  0  0
  5  6  1  0  0  0  0
  6  7  2  0  0  0  0
  7  2  1  0  0  0  0
  7 12  1  0  0  0  0
  8  4  1  0  0  0  0
  9  5  1  0  0  0  0
 10  6  1  0  0  0  0
 11 21  1  0  0  0  0
 12 11  2  0  0  0  0
 12 13  1  0  0  0  0
 13 15  2  0  0  0  0
 14 13  1  0  0  0  0
 15 20  1  0  0  0  0
 15 16  1  0  0  0  0
 16 22  1  0  0  0  0
 16 17  1  0  0  0  0
 17 18  1  0  0  0  0
 19 17  2  0  0  0  0
 20 19  1  0  0  0  0
 21 20  2  0  0  0  0
 23 29  1  0  0  0  0
 24 23  2  0  0  0  0
 25 24  1  0  0  0  0
 26 25  2  0  0  0  0
 26 27  1  0  0  0  0
 27 31  1  0  0  0  0
 27 28  2  0  0  0  0
 28 23  1  0  0  0  0
 30 24  1  0  0  0  0
M  END
>  <minimizedAffinity>
-5.72133589

$$$$

 OpenBabel03272503033D

 31 34  0  0  0  0  0  0  0  0999 V2000
   35.7530   30.5170   31.9960 F   0  0  0  0  0  0  0  0  0  0  0  0
   36.2940   29.4010   32.5220 C   0  0  0  0  0  0  0  0  0  0  0  0
   37.1420   28.6450   31.7820 C   0  0  0  0  0  0  0  0  0  0  0  0
   37.6690   27.5110   32.3650 C   0  0  0  0  0  0  0  0  0  0  0  0
   37.3460   27.1470   33.6670 C   0  0  0  0  0  0  0  0  0  0  0  0
   36.4800   27.9340   34.3990 C   0  0  0  0  0  0  0  0  0  0  0  0
   35.9530   29.0690   33.8160 C   0  0  0  0  0  0  0  0  0  0  0  0
   38.3480   26.9090   31.7680 H   0  0  0  0  0  0  0  0  0  0  0  0
   37.8030   26.2430   34.0500 H   0  0  0  0  0  0  0  0  0  0  0  0
   36.2580   27.6140   35.4060 H   0  0  0  0  0  0  0  0  0  0  0  0
   33.6700   29.7580   34.4950 C   0  0  0  0  0  3  0  0  0  0  0  0
   35.0390   29.8870   34.6080 C   0  0  0  0  0  0  0  0  0  0  0  0
   35.6500   30.7900   35.4710 C   0  0  0  0  0  0  0  0  0  0  0  0
   36.7160   30.9040   35.5730 H   0  0  0  0  0  0  0  0  0  0  0  0
   34.8310   31.5870   36.2430 C   0  0  0  0  0  0  0  0  0  0  0  0
   34.9970   32.5650   37.1810 N   0  0  0  0  0  0  0  0  0  0  0  0
   33.7970   32.9810   37.5890 C   0  0  0  0  0  0  0  0  0  0  0  0
   33.7000   33.7680   38.3450 H   0  0  0  0  0  0  0  0  0  0  0  0
   32.8070   32.3000   36.9420 N   0  0  0  0  0  0  0  0  0  0  0  0
   33.4630   31.4530   36.1250 C   0  0  0  0  0  0  0  0  0  0  0  0
   32.8330   30.5640   35.2760 C   0  0  0  0  0  3  0  0  0  0  0  0
   35.9400   32.9060   37.5010 H   0  0  0  0  0  0  0  0  0  0  0  0
   38.3930   28.6960   28.2030 C   0  0  0  0  0  0  0  0  0  0  0  0
   38.1110   28.2730   29.5010 C   0  0  0  0  0  0  0  0  0  0  0  0
   37.4430   29.0760   30.4200 C   0  0  0  0  0  0  0  0  0  0  0  0
   37.0760   30.3160   29.9800 N   0  0  0  0  0  0  0  0  0  0  0  0
   37.3590   30.7070   28.7150 C   0  0  0  0  0  0  0  0  0  0  0  0
   38.0000   29.9240   27.8440 N   0  0  0  0  0  0  0  0  0  0  0  0
   38.9140   27.9200   27.6600 H   0  0  0  0  0  0  0  0  0  0  0  0
   38.3740   27.3000   29.9160 H   0  0  0  0  0  0  0  0  0  0  0  0
   37.0840   31.6790   28.3340 H   0  0  0  0  0  0  0  0  0  0  0  0
  1  2  1  0  0  0  0
  2  7  1  0  0  0  0
  3  4  1  0  0  0  0
  3  2  2  0  0  0  0
  4  5  2  0  0  0  0
  5  9  1  0  0  0  0
  5  6  1  0  0  0  0
  6 10  1  0  0  0  0
  7  6  2  0  0  0  0
  7 12  1  0  0  0  0
  8  4  1  0  0  0  0
 11 12  2  0  0  0  0
 11 21  1  0  0  0  0
 12 13  1  0  0  0  0
 13 14  1  0  0  0  0
 13 15  2  0  0  0  0
 15 16  1  0  0  0  0
 16 22  1  0  0  0  0
 16 17  1  0  0  0  0
 17 18  1  0  0  0  0
 19 17  2  0  0  0  0
 20 15  1  0  0  0  0
 20 19  1  0  0  0  0
 21 20  2  0  0  0  0
 23 24  1  0  0  0  0
 24 30  1  0  0  0  0
 24 25  2  0  0  0  0
 25  3  1  0  0  0  0
 26 25  1  0  0  0  0
 27 26  2  0  0  0  0
 28 23  2  0  0  0  0
 28 27  1  0  0  0  0
 29 23  1  0  0  0  0
 31 27  1  0  0  0  0
M  END
>  <minimizedAffinity>
-5.65921402

$$$$

 OpenBabel03272503033D

 31 34  0  0  0  0  0  0  0  0999 V2000
   35.6730   28.3300   34.6120 F   0  0  0  0  0  0  0  0  0  0  0  0
   35.8960   29.1570   33.5730 C   0  0  0  0  0  0  0  0  0  0  0  0
   35.5240   30.4580   33.6500 C   0  0  0  0  0  0  0  0  0  0  0  0
   35.7740   31.2650   32.5600 C   0  0  0  0  0  0  0  0  0  0  0  0
   36.3860   30.7700   31.4150 C   0  0  0  0  0  0  0  0  0  0  0  0
   36.7550   29.4410   31.3620 C   0  0  0  0  0  0  0  0  0  0  0  0
   36.5060   28.6330   32.4530 C   0  0  0  0  0  0  0  0  0  0  0  0
   35.4740   32.3080   32.6270 H   0  0  0  0  0  0  0  0  0  0  0  0
   36.5470   31.4690   30.6040 H   0  0  0  0  0  0  0  0  0  0  0  0
   37.2280   29.0990   30.4530 H   0  0  0  0  0  0  0  0  0  0  0  0
   38.0950   26.7860   32.9130 C   0  0  0  0  0  3  0  0  0  0  0  0
   36.9050   27.2310   32.3750 C   0  0  0  0  0  0  0  0  0  0  0  0
   36.0030   26.3950   31.7250 C   0  0  0  0  0  0  0  0  0  0  0  0
   35.0700   26.7230   31.3000 H   0  0  0  0  0  0  0  0  0  0  0  0
   36.3330   25.0590   31.6250 C   0  0  0  0  0  0  0  0  0  0  0  0
   35.7680   23.9350   31.0940 N   0  0  0  0  0  0  0  0  0  0  0  0
   36.5800   22.8990   31.3100 C   0  0  0  0  0  0  0  0  0  0  0  0
   36.3160   21.8940   30.9630 H   0  0  0  0  0  0  0  0  0  0  0  0
   37.6980   23.2980   31.9830 N   0  0  0  0  0  0  0  0  0  0  0  0
   37.5250   24.6210   32.1660 C   0  0  0  0  0  0  0  0  0  0  0  0
   38.4350   25.4320   32.8140 C   0  0  0  0  0  3  0  0  0  0  0  0
   34.8370   23.9330   30.6010 H   0  0  0  0  0  0  0  0  0  0  0  0
   34.9230   32.1280   37.0020 C   0  0  0  0  0  0  0  0  0  0  0  0
   35.5450   31.6900   35.8330 C   0  0  0  0  0  0  0  0  0  0  0  0
   34.8850   30.9230   34.8790 C   0  0  0  0  0  0  0  0  0  0  0  0
   33.5810   30.6170   35.1490 N   0  0  0  0  0  0  0  0  0  0  0  0
   32.9960   31.0520   36.2890 C   0  0  0  0  0  0  0  0  0  0  0  0
   33.6440   31.7880   37.1960 N   0  0  0  0  0  0  0  0  0  0  0  0
   35.6140   32.7060   37.6000 H   0  0  0  0  0  0  0  0  0  0  0  0
   36.5780   31.8970   35.5560 H   0  0  0  0  0  0  0  0  0  0  0  0
   31.9700   30.8300   36.5360 H   0  0  0  0  0  0  0  0  0  0  0  0
  2  3  1  0  0  0  0
  2  1  1  0  0  0  0
  3 25  1  0  0  0  0
  4  8  1  0  0  0  0
  4  3  2  0  0  0  0
  5  4  1  0  0  0  0
  6  5  2  0  0  0  0
  6  7  1  0  0  0  0
  7  2  2  0  0  0  0
  9  5  1  0  0  0  0
 10  6  1  0  0  0  0
 12  7  1  0  0  0  0
 12 11  2  0  0  0  0
 13 12  1  0  0  0  0
 14 13  1  0  0  0  0
 15 13  2  0  0  0  0
 15 20  1  0  0  0  0
 16 17  1  0  0  0  0
 16 15  1  0  0  0  0
 17 19  2  0  0  0  0
 18 17  1  0  0  0  0
 19 20  1  0  0  0  0
 20 21  2  0  0  0  0
 21 11  1  0  0  0  0
 22 16  1  0  0  0  0
 23 28  1  0  0  0  0
 23 29  1  0  0  0  0
 24 23  2  0  0  0  0
 25 26  2  0  0  0  0
 25 24  1  0  0  0  0
 26 27  1  0  0  0  0
 27 31  1  0  0  0  0
 27 28  2  0  0  0  0
 30 24  1  0  0  0  0
M  END
>  <minimizedAffinity>
-5.65166473

$$$$

 OpenBabel03272503033D

 31 34  0  0  0  0  0  0  0  0999 V2000
   40.3940   24.5460   34.5950 F   0  0  0  0  0  0  0  0  0  0  0  0
   39.7460   24.1760   35.7160 C   0  0  0  0  0  0  0  0  0  0  0  0
   40.3160   23.2880   36.5670 C   0  0  0  0  0  0  0  0  0  0  0  0
   39.6130   22.9400   37.7010 C   0  0  0  0  0  0  0  0  0  0  0  0
   38.3590   23.4760   37.9710 C   0  0  0  0  0  0  0  0  0  0  0  0
   37.8010   24.3790   37.0880 C   0  0  0  0  0  0  0  0  0  0  0  0
   38.5050   24.7270   35.9530 C   0  0  0  0  0  0  0  0  0  0  0  0
   40.0740   22.2280   38.3800 H   0  0  0  0  0  0  0  0  0  0  0  0
   37.8730   23.1510   38.8830 H   0  0  0  0  0  0  0  0  0  0  0  0
   36.8260   24.7700   37.3380 H   0  0  0  0  0  0  0  0  0  0  0  0
   37.6540   26.9900   35.4040 C   0  0  0  0  0  3  0  0  0  0  0  0
   37.8960   25.6840   35.0330 C   0  0  0  0  0  0  0  0  0  0  0  0
   37.5840   25.1780   33.7760 C   0  0  0  0  0  0  0  0  0  0  0  0
   37.7660   24.1630   33.4680 H   0  0  0  0  0  0  0  0  0  0  0  0
   37.0070   26.0420   32.8690 C   0  0  0  0  0  0  0  0  0  0  0  0
   36.5590   25.9730   31.5810 N   0  0  0  0  0  0  0  0  0  0  0  0
   36.0850   27.1680   31.2230 C   0  0  0  0  0  0  0  0  0  0  0  0
   35.6730   27.3340   30.2220 H   0  0  0  0  0  0  0  0  0  0  0  0
   36.2010   28.0580   32.2520 N   0  0  0  0  0  0  0  0  0  0  0  0
   36.7680   27.3480   33.2460 C   0  0  0  0  0  0  0  0  0  0  0  0
   37.0680   27.8710   34.4880 C   0  0  0  0  0  3  0  0  0  0  0  0
   36.6010   25.0960   31.0000 H   0  0  0  0  0  0  0  0  0  0  0  0
   43.0850   21.0360   35.2830 C   0  0  0  0  0  0  0  0  0  0  0  0
   41.8200   21.5320   35.5980 C   0  0  0  0  0  0  0  0  0  0  0  0
   41.6350   22.7570   36.2310 C   0  0  0  0  0  0  0  0  0  0  0  0
   42.7690   23.4560   36.5330 N   0  0  0  0  0  0  0  0  0  0  0  0
   43.9870   22.9560   36.2180 C   0  0  0  0  0  0  0  0  0  0  0  0
   44.1480   21.7790   35.6090 N   0  0  0  0  0  0  0  0  0  0  0  0
   42.9990   20.0750   34.7960 H   0  0  0  0  0  0  0  0  0  0  0  0
   40.8770   21.0280   35.3870 H   0  0  0  0  0  0  0  0  0  0  0  0
   44.9040   23.4800   36.4400 H   0  0  0  0  0  0  0  0  0  0  0  0
  1  2  1  0  0  0  0
  2  7  2  0  0  0  0
  2  3  1  0  0  0  0
  3  4  2  0  0  0  0
  4  5  1  0  0  0  0
  4  8  1  0  0  0  0
  5  9  1  0  0  0  0
  6 10  1  0  0  0  0
  6  5  2  0  0  0  0
  7  6  1  0  0  0  0
 12 11  1  0  0  0  0
 12  7  1  0  0  0  0
 13 12  2  0  0  0  0
 14 13  1  0  0  0  0
 15 20  2  0  0  0  0
 15 13  1  0  0  0  0
 16 15  1  0  0  0  0
 17 16  1  0  0  0  0
 17 19  2  0  0  0  0
 18 17  1  0  0  0  0
 19 20  1  0  0  0  0
 20 21  1  0  0  0  0
 21 11  2  0  0  0  0
 22 16  1  0  0  0  0
 23 24  2  0  0  0  0
 23 28  1  0  0  0  0
 24 25  1  0  0  0  0
 25 26  2  0  0  0  0
 25  3  1  0  0  0  0
 27 31  1  0  0  0  0
 27 26  1  0  0  0  0
 28 27  2  0  0  0  0
 29 23  1  0  0  0  0
 30 24  1  0  0  0  0
M  END
>  <minimizedAffinity>
-5.63647985

$$$$

 OpenBabel03272503033D

 31 34  0  0  0  0  0  0  0  0999 V2000
   37.9940   26.7050   33.2240 F   0  0  0  0  0  0  0  0  0  0  0  0
   37.2730   25.7630   32.5870 C   0  0  0  0  0  0  0  0  0  0  0  0
   36.3040   26.1280   31.7120 C   0  0  0  0  0  0  0  0  0  0  0  0
   35.5930   25.1260   31.0850 C   0  0  0  0  0  0  0  0  0  0  0  0
   35.8510   23.7850   31.3370 C   0  0  0  0  0  0  0  0  0  0  0  0
   36.8430   23.4400   32.2330 C   0  0  0  0  0  0  0  0  0  0  0  0
   37.5560   24.4420   32.8610 C   0  0  0  0  0  0  0  0  0  0  0  0
   34.8180   25.4240   30.3840 H   0  0  0  0  0  0  0  0  0  0  0  0
   35.2480   23.0600   30.8040 H   0  0  0  0  0  0  0  0  0  0  0  0
   37.0110   22.3860   32.3980 H   0  0  0  0  0  0  0  0  0  0  0  0
   39.9390   24.1760   33.4930 C   0  0  0  0  0  3  0  0  0  0  0  0
   38.6000   24.0540   33.8050 C   0  0  0  0  0  0  0  0  0  0  0  0
   38.1440   23.5610   35.0220 C   0  0  0  0  0  0  0  0  0  0  0  0
   37.1040   23.4600   35.2830 H   0  0  0  0  0  0  0  0  0  0  0  0
   39.0910   23.1810   35.9500 C   0  0  0  0  0  0  0  0  0  0  0  0
   39.0890   22.6670   37.2150 N   0  0  0  0  0  0  0  0  0  0  0  0
   40.3510   22.5000   37.6150 C   0  0  0  0  0  0  0  0  0  0  0  0
   40.5780   22.0950   38.6080 H   0  0  0  0  0  0  0  0  0  0  0  0
   41.2200   22.8920   36.6390 N   0  0  0  0  0  0  0  0  0  0  0  0
   40.4280   23.3060   35.6310 C   0  0  0  0  0  0  0  0  0  0  0  0
   40.9040   23.7920   34.4300 C   0  0  0  0  0  3  0  0  0  0  0  0
   38.2090   22.4530   37.7510 H   0  0  0  0  0  0  0  0  0  0  0  0
   36.4750   29.6300   30.2670 C   0  0  0  0  0  0  0  0  0  0  0  0
   36.7020   28.2700   30.4720 C   0  0  0  0  0  0  0  0  0  0  0  0
   36.0760   27.5530   31.4870 C   0  0  0  0  0  0  0  0  0  0  0  0
   35.2200   28.2600   32.2820 N   0  0  0  0  0  0  0  0  0  0  0  0
   35.0140   29.5800   32.0670 C   0  0  0  0  0  0  0  0  0  0  0  0
   35.6220   30.2540   31.0870 N   0  0  0  0  0  0  0  0  0  0  0  0
   37.0590   29.9850   29.4290 H   0  0  0  0  0  0  0  0  0  0  0  0
   37.3700   27.6470   29.8760 H   0  0  0  0  0  0  0  0  0  0  0  0
   34.3450   30.1690   32.6750 H   0  0  0  0  0  0  0  0  0  0  0  0
  2  7  1  0  0  0  0
  2  1  1  0  0  0  0
  3  2  2  0  0  0  0
  4  5  2  0  0  0  0
  4  3  1  0  0  0  0
  5  6  1  0  0  0  0
  6 10  1  0  0  0  0
  6  7  2  0  0  0  0
  7 12  1  0  0  0  0
  8  4  1  0  0  0  0
  9  5  1  0  0  0  0
 11 12  2  0  0  0  0
 11 21  1  0  0  0  0
 12 13  1  0  0  0  0
 13 14  1  0  0  0  0
 13 15  2  0  0  0  0
 15 16  1  0  0  0  0
 16 17  1  0  0  0  0
 16 22  1  0  0  0  0
 17 18  1  0  0  0  0
 19 17  2  0  0  0  0
 20 15  1  0  0  0  0
 20 19  1  0  0  0  0
 21 20  2  0  0  0  0
 23 24  2  0  0  0  0
 23 28  1  0  0  0  0
 24 25  1  0  0  0  0
 25  3  1  0  0  0  0
 25 26  2  0  0  0  0
 27 26  1  0  0  0  0
 27 31  1  0  0  0  0
 28 27  2  0  0  0  0
 29 23  1  0  0  0  0
 30 24  1  0  0  0  0
M  END
>  <minimizedAffinity>
-5.62267542

$$$$

 OpenBabel03272503033D

 31 34  0  0  0  0  0  0  0  0999 V2000
   36.4880   27.7660   34.9310 F   0  0  0  0  0  0  0  0  0  0  0  0
   36.5410   28.2600   33.6790 C   0  0  0  0  0  0  0  0  0  0  0  0
   37.1880   27.5730   32.7060 C   0  0  0  0  0  0  0  0  0  0  0  0
   37.2140   28.1210   31.4400 C   0  0  0  0  0  0  0  0  0  0  0  0
   36.6020   29.3360   31.1620 C   0  0  0  0  0  0  0  0  0  0  0  0
   35.9490   30.0160   32.1710 C   0  0  0  0  0  0  0  0  0  0  0  0
   35.9220   29.4680   33.4380 C   0  0  0  0  0  0  0  0  0  0  0  0
   37.7350   27.5660   30.6640 H   0  0  0  0  0  0  0  0  0  0  0  0
   36.6680   29.6970   30.1430 H   0  0  0  0  0  0  0  0  0  0  0  0
   35.4860   30.9560   31.9100 H   0  0  0  0  0  0  0  0  0  0  0  0
   35.9060   31.0070   35.3810 C   0  0  0  0  0  3  0  0  0  0  0  0
   35.2260   30.2040   34.4890 C   0  0  0  0  0  0  0  0  0  0  0  0
   33.8460   30.0310   34.5180 C   0  0  0  0  0  0  0  0  0  0  0  0
   33.2990   29.4100   33.8310 H   0  0  0  0  0  0  0  0  0  0  0  0
   33.1410   30.7060   35.4930 C   0  0  0  0  0  0  0  0  0  0  0  0
   31.8340   30.8210   35.8710 N   0  0  0  0  0  0  0  0  0  0  0  0
   31.7580   31.6410   36.9200 C   0  0  0  0  0  0  0  0  0  0  0  0
   30.7940   31.8740   37.3850 H   0  0  0  0  0  0  0  0  0  0  0  0
   32.9980   32.0920   37.2680 N   0  0  0  0  0  0  0  0  0  0  0  0
   33.8280   31.5080   36.3820 C   0  0  0  0  0  0  0  0  0  0  0  0
   35.1960   31.6930   36.3740 C   0  0  0  0  0  3  0  0  0  0  0  0
   31.0450   30.3230   35.3830 H   0  0  0  0  0  0  0  0  0  0  0  0
   37.8170   23.8620   33.1680 C   0  0  0  0  0  0  0  0  0  0  0  0
   37.2080   25.0700   32.8290 C   0  0  0  0  0  0  0  0  0  0  0  0
   37.8140   26.3010   33.0570 C   0  0  0  0  0  0  0  0  0  0  0  0
   39.0500   26.2650   33.6380 N   0  0  0  0  0  0  0  0  0  0  0  0
   39.6230   25.0820   33.9590 C   0  0  0  0  0  0  0  0  0  0  0  0
   39.0280   23.9080   33.7340 N   0  0  0  0  0  0  0  0  0  0  0  0
   37.1750   23.0320   32.9050 H   0  0  0  0  0  0  0  0  0  0  0  0
   36.2270   25.1710   32.3640 H   0  0  0  0  0  0  0  0  0  0  0  0
   40.5970   25.0150   34.4190 H   0  0  0  0  0  0  0  0  0  0  0  0
  2  1  1  0  0  0  0
  3 25  1  0  0  0  0
  3  2  2  0  0  0  0
  4  3  1  0  0  0  0
  5  4  2  0  0  0  0
  5  6  1  0  0  0  0
  6  7  2  0  0  0  0
  7  2  1  0  0  0  0
  7 12  1  0  0  0  0
  8  4  1  0  0  0  0
  9  5  1  0  0  0  0
 10  6  1  0  0  0  0
 11 21  1  0  0  0  0
 12 13  1  0  0  0  0
 12 11  2  0  0  0  0
 13 15  2  0  0  0  0
 14 13  1  0  0  0  0
 15 16  1  0  0  0  0
 15 20  1  0  0  0  0
 16 17  1  0  0  0  0
 17 19  2  0  0  0  0
 17 18  1  0  0  0  0
 20 19  1  0  0  0  0
 21 20  2  0  0  0  0
 22 16  1  0  0  0  0
 23 28  1  0  0  0  0
 24 25  1  0  0  0  0
 24 23  2  0  0  0  0
 25 26  2  0  0  0  0
 26 27  1  0  0  0  0
 27 31  1  0  0  0  0
 28 27  2  0  0  0  0
 29 23  1  0  0  0  0
 30 24  1  0  0  0  0
M  END
>  <minimizedAffinity>
-5.60169411

$$$$

 OpenBabel03272503033D

 31 34  0  0  0  0  0  0  0  0999 V2000
   36.9740   28.2510   35.6690 F   0  0  0  0  0  0  0  0  0  0  0  0
   36.7590   28.3280   34.3420 C   0  0  0  0  0  0  0  0  0  0  0  0
   35.8710   29.2260   33.8500 C   0  0  0  0  0  0  0  0  0  0  0  0
   35.6860   29.2670   32.4840 C   0  0  0  0  0  0  0  0  0  0  0  0
   36.3820   28.4190   31.6310 C   0  0  0  0  0  0  0  0  0  0  0  0
   37.2810   27.5140   32.1570 C   0  0  0  0  0  0  0  0  0  0  0  0
   37.4670   27.4720   33.5250 C   0  0  0  0  0  0  0  0  0  0  0  0
   34.9730   29.9890   32.0950 H   0  0  0  0  0  0  0  0  0  0  0  0
   36.1790   28.5150   30.5720 H   0  0  0  0  0  0  0  0  0  0  0  0
   37.8000   26.8750   31.4590 H   0  0  0  0  0  0  0  0  0  0  0  0
   39.7510   26.8310   34.2440 C   0  0  0  0  0  3  0  0  0  0  0  0
   38.4230   26.5070   34.0600 C   0  0  0  0  0  0  0  0  0  0  0  0
   37.8950   25.2570   34.3620 C   0  0  0  0  0  0  0  0  0  0  0  0
   36.8620   24.9860   34.2250 H   0  0  0  0  0  0  0  0  0  0  0  0
   38.7570   24.3080   34.8700 C   0  0  0  0  0  0  0  0  0  0  0  0
   38.6690   23.0100   35.2860 N   0  0  0  0  0  0  0  0  0  0  0  0
   39.8740   22.6030   35.6890 C   0  0  0  0  0  0  0  0  0  0  0  0
   40.0300   21.5860   36.0640 H   0  0  0  0  0  0  0  0  0  0  0  0
   40.7900   23.6070   35.5540 N   0  0  0  0  0  0  0  0  0  0  0  0
   40.0840   24.6390   35.0530 C   0  0  0  0  0  0  0  0  0  0  0  0
   40.6310   25.8720   34.7600 C   0  0  0  0  0  3  0  0  0  0  0  0
   37.7730   22.4580   35.2740 H   0  0  0  0  0  0  0  0  0  0  0  0
   35.1190   31.9160   36.4150 C   0  0  0  0  0  0  0  0  0  0  0  0
   35.8020   31.0970   35.5170 C   0  0  0  0  0  0  0  0  0  0  0  0
   35.1680   30.0920   34.7940 C   0  0  0  0  0  0  0  0  0  0  0  0
   33.8270   29.9470   35.0120 N   0  0  0  0  0  0  0  0  0  0  0  0
   33.1840   30.7540   35.8880 C   0  0  0  0  0  0  0  0  0  0  0  0
   33.8070   31.7150   36.5750 N   0  0  0  0  0  0  0  0  0  0  0  0
   35.7990   32.6260   36.8660 H   0  0  0  0  0  0  0  0  0  0  0  0
   36.8680   31.1570   35.2960 H   0  0  0  0  0  0  0  0  0  0  0  0
   32.1260   30.6690   36.0860 H   0  0  0  0  0  0  0  0  0  0  0  0
  2  1  1  0  0  0  0
  3  2  1  0  0  0  0
  3 25  1  0  0  0  0
  4  3  2  0  0  0  0
  5  6  2  0  0  0  0
  5  4  1  0  0  0  0
  6  7  1  0  0  0  0
  7 12  1  0  0  0  0
  7  2  2  0  0  0  0
  8  4  1  0  0  0  0
  9  5  1  0  0  0  0
 10  6  1  0  0  0  0
 11 21  1  0  0  0  0
 12 11  2  0  0  0  0
 12 13  1  0  0  0  0
 13 15  2  0  0  0  0
 14 13  1  0  0  0  0
 15 20  1  0  0  0  0
 15 16  1  0  0  0  0
 16 17  1  0  0  0  0
 17 18  1  0  0  0  0
 19 17  2  0  0  0  0
 20 19  1  0  0  0  0
 21 20  2  0  0  0  0
 22 16  1  0  0  0  0
 23 28  1  0  0  0  0
 23 29  1  0  0  0  0
 24 23  2  0  0  0  0
 25 26  2  0  0  0  0
 25 24  1  0  0  0  0
 26 27  1  0  0  0  0
 27 31  1  0  0  0  0
 27 28  2  0  0  0  0
 30 24  1  0  0  0  0
M  END
>  <minimizedAffinity>
-5.52236795

$$$$

 OpenBabel03272503033D

 31 34  0  0  0  0  0  0  0  0999 V2000
   37.3900   27.3440   35.0410 F   0  0  0  0  0  0  0  0  0  0  0  0
   37.1770   26.6750   33.8920 C   0  0  0  0  0  0  0  0  0  0  0  0
   36.5990   27.3030   32.8390 C   0  0  0  0  0  0  0  0  0  0  0  0
   36.4010   26.5740   31.6850 C   0  0  0  0  0  0  0  0  0  0  0  0
   36.7770   25.2400   31.5950 C   0  0  0  0  0  0  0  0  0  0  0  0
   37.3640   24.6240   32.6820 C   0  0  0  0  0  0  0  0  0  0  0  0
   37.5630   25.3520   33.8370 C   0  0  0  0  0  0  0  0  0  0  0  0
   35.9370   27.0820   30.8430 H   0  0  0  0  0  0  0  0  0  0  0  0
   36.5870   24.7390   30.6530 H   0  0  0  0  0  0  0  0  0  0  0  0
   37.6410   23.5860   32.5680 H   0  0  0  0  0  0  0  0  0  0  0  0
   37.7060   24.8400   36.2590 C   0  0  0  0  0  3  0  0  0  0  0  0
   38.1850   24.6810   34.9750 C   0  0  0  0  0  0  0  0  0  0  0  0
   39.2810   23.8830   34.6630 C   0  0  0  0  0  0  0  0  0  0  0  0
   39.6680   23.7470   33.6680 H   0  0  0  0  0  0  0  0  0  0  0  0
   39.9050   23.2260   35.7030 C   0  0  0  0  0  0  0  0  0  0  0  0
   40.9660   22.3790   35.8460 N   0  0  0  0  0  0  0  0  0  0  0  0
   41.0980   22.0640   37.1350 C   0  0  0  0  0  0  0  0  0  0  0  0
   41.8930   21.3910   37.4730 H   0  0  0  0  0  0  0  0  0  0  0  0
   40.1380   22.6850   37.8810 N   0  0  0  0  0  0  0  0  0  0  0  0
   39.4210   23.3890   36.9850 C   0  0  0  0  0  0  0  0  0  0  0  0
   38.3360   24.1760   37.3180 C   0  0  0  0  0  3  0  0  0  0  0  0
   41.5590   22.0530   35.0390 H   0  0  0  0  0  0  0  0  0  0  0  0
   36.0270   30.9860   32.1400 C   0  0  0  0  0  0  0  0  0  0  0  0
   36.3900   29.6490   31.9820 C   0  0  0  0  0  0  0  0  0  0  0  0
   36.2230   28.7060   32.9910 C   0  0  0  0  0  0  0  0  0  0  0  0
   35.6800   29.1630   34.1580 N   0  0  0  0  0  0  0  0  0  0  0  0
   35.3350   30.4660   34.2910 C   0  0  0  0  0  0  0  0  0  0  0  0
   35.5010   31.3590   33.3120 N   0  0  0  0  0  0  0  0  0  0  0  0
   36.2410   31.5410   31.2370 H   0  0  0  0  0  0  0  0  0  0  0  0
   36.8270   29.2180   31.0810 H   0  0  0  0  0  0  0  0  0  0  0  0
   34.9040   30.8620   35.1970 H   0  0  0  0  0  0  0  0  0  0  0  0
  2  1  1  0  0  0  0
  3 25  1  0  0  0  0
  3  2  2  0  0  0  0
  4  3  1  0  0  0  0
  5  4  2  0  0  0  0
  5  6  1  0  0  0  0
  6  7  2  0  0  0  0
  7  2  1  0  0  0  0
  7 12  1  0  0  0  0
  8  4  1  0  0  0  0
  9  5  1  0  0  0  0
 10  6  1  0  0  0  0
 11 21  1  0  0  0  0
 12 11  2  0  0  0  0
 13 12  1  0  0  0  0
 13 15  2  0  0  0  0
 14 13  1  0  0  0  0
 15 16  1  0  0  0  0
 15 20  1  0  0  0  0
 16 17  1  0  0  0  0
 17 18  1  0  0  0  0
 17 19  2  0  0  0  0
 20 21  2  0  0  0  0
 20 19  1  0  0  0  0
 22 16  1  0  0  0  0
 23 28  1  0  0  0  0
 24 23  2  0  0  0  0
 24 25  1  0  0  0  0
 25 26  2  0  0  0  0
 26 27  1  0  0  0  0
 27 31  1  0  0  0  0
 28 27  2  0  0  0  0
 29 23  1  0  0  0  0
 30 24  1  0  0  0  0
M  END
>  <minimizedAffinity>
-5.43611288

$$$$
