
 OpenBabel03272505013D

 31 34  0  0  0  0  0  0  0  0999 V2000
   37.6870   30.3180   46.7800 Cl  0  0  0  0  0  0  0  0  0  0  0  0
   38.3950   31.7170   47.5340 C   0  0  0  0  0  0  0  0  0  0  0  0
   38.1470   31.9420   48.8630 C   0  0  0  0  0  0  0  0  0  0  0  0
   38.7430   33.0840   49.4200 C   0  0  0  0  0  0  0  0  0  0  0  0
   39.5290   33.9100   48.6310 C   0  0  0  0  0  0  0  0  0  0  0  0
   39.7520   33.6520   47.3080 C   0  0  0  0  0  0  0  0  0  0  0  0
   39.1680   32.5280   46.7570 C   0  0  0  0  0  0  0  0  0  0  0  0
   38.5470   33.2650   50.4770 H   0  0  0  0  0  0  0  0  0  0  0  0
   39.9440   34.7610   49.1430 H   0  0  0  0  0  0  0  0  0  0  0  0
   40.3700   34.3220   46.7400 H   0  0  0  0  0  0  0  0  0  0  0  0
   39.0460   33.1140   44.2990 C   0  0  0  0  0  0  0  0  0  0  0  0
   39.4360   32.2950   45.3410 C   0  0  0  0  0  0  0  0  0  0  0  0
   40.1360   31.1610   45.0250 C   0  0  0  0  0  0  0  0  0  0  0  0
   40.4730   30.4740   45.7950 H   0  0  0  0  0  0  0  0  0  0  0  0
   40.4750   30.7890   43.7400 C   0  0  0  0  0  0  0  0  0  0  0  0
   41.1440   29.7450   43.1830 N   0  0  0  0  0  0  0  0  0  0  0  0
   41.1680   29.9120   41.8310 C   0  0  0  0  0  0  0  0  0  0  0  0
   41.6570   29.1850   41.1890 H   0  0  0  0  0  0  0  0  0  0  0  0
   40.5160   31.0550   41.5480 N   0  0  0  0  0  0  0  0  0  0  0  0
   40.0750   31.6250   42.6920 C   0  0  0  0  0  0  0  0  0  0  0  0
   39.3690   32.7680   43.0020 C   0  0  0  0  0  0  0  0  0  0  0  0
   41.5510   28.9670   43.7700 H   0  0  0  0  0  0  0  0  0  0  0  0
   37.8400   30.4580   50.8470 C   0  0  0  0  0  0  0  0  0  0  0  0
   37.3240   31.0840   49.7020 C   0  0  0  0  0  0  0  0  0  0  0  0
   35.9800   30.8490   49.3960 C   0  0  0  0  0  0  0  0  0  0  0  0
   35.2610   30.0400   50.2150 N   0  0  0  0  0  0  0  0  0  0  0  0
   35.7870   29.4580   51.3010 C   0  0  0  0  0  0  0  0  0  0  0  0
   37.0820   29.6660   51.6220 N   0  0  0  0  0  0  0  0  0  0  0  0
   38.8760   30.6100   51.1250 H   0  0  0  0  0  0  0  0  0  0  0  0
   35.5690   31.3310   48.5090 H   0  0  0  0  0  0  0  0  0  0  0  0
   35.0590   28.8570   51.8170 H   0  0  0  0  0  0  0  0  0  0  0  0
  1  2  1  0  0  0  0
  2  3  1  0  0  0  0
  3  4  2  0  0  0  0
  3 24  1  0  0  0  0
  4  8  1  0  0  0  0
  5  9  1  0  0  0  0
  5  4  1  0  0  0  0
  6  5  2  0  0  0  0
  7  6  1  0  0  0  0
  7  2  2  0  0  0  0
 10  6  1  0  0  0  0
 11 12  1  0  0  0  0
 12  7  1  0  0  0  0
 13 12  2  0  0  0  0
 13 14  1  0  0  0  0
 15 13  1  0  0  0  0
 16 15  1  0  0  0  0
 16 22  1  0  0  0  0
 17 16  1  0  0  0  0
 18 17  1  0  0  0  0
 19 17  2  0  0  0  0
 19 20  1  0  0  0  0
 20 21  1  0  0  0  0
 20 15  2  0  0  0  0
 21 11  2  0  0  0  0
 23 29  1  0  0  0  0
 23 28  1  0  0  0  0
 24 23  2  0  0  0  0
 25 24  1  0  0  0  0
 25 26  2  0  0  0  0
 26 27  1  0  0  0  0
 27 28  2  0  0  0  0
 27 31  1  0  0  0  0
 30 25  1  0  0  0  0
M  END
>  <minimizedAffinity>
-7.27930975

>  <minimizedRMSD>
0.83465147

$$$$
