
 OpenBabel03272509053D

 36 39  0  0  0  0  0  0  0  0999 V2000
   37.4290   30.2720   51.3290 C   0  0  0  0  0  0  0  0  0  0  0  0
   38.0710   30.8010   50.1920 C   0  0  0  0  0  0  0  0  0  0  0  0
   37.5690   30.4800   48.9150 C   0  0  0  0  0  0  0  0  0  0  0  0
   36.4740   29.6620   48.8970 N   0  0  0  0  0  0  0  0  0  0  0  0
   35.8930   29.1790   49.9890 C   0  0  0  0  0  0  0  0  0  0  0  0
   36.3610   29.4770   51.2130 N   0  0  0  0  0  0  0  0  0  0  0  0
   37.8370   30.5370   52.2810 H   0  0  0  0  0  0  0  0  0  0  0  0
   38.9140   31.4290   50.2800 H   0  0  0  0  0  0  0  0  0  0  0  0
   38.1790   30.2730   46.5050 C   0  0  0  0  0  3  0  0  0  0  0  0
   38.1620   30.9770   47.6830 C   0  0  0  0  0  0  0  0  0  0  0  0
   38.7390   32.2280   47.7080 C   0  0  0  0  0  0  0  0  0  0  0  0
   38.7800   32.8620   48.5750 H   0  0  0  0  0  0  0  0  0  0  0  0
   39.3110   32.7120   46.5300 C   0  0  0  0  0  0  0  0  0  0  0  0
   39.9380   33.8650   46.2220 N   0  0  0  0  0  0  0  0  0  0  0  0
   40.3160   33.8550   44.9200 C   0  0  0  0  0  0  0  0  0  0  0  0
   40.8350   34.5920   44.3250 H   0  0  0  0  0  0  0  0  0  0  0  0
   39.9290   32.6930   44.3870 N   0  0  0  0  0  0  0  0  0  0  0  0
   39.3150   31.9790   45.3460 C   0  0  0  0  0  0  0  0  0  0  0  0
   38.7240   30.7110   45.3400 C   0  0  0  0  0  3  0  0  0  0  0  0
   40.1200   34.6610   46.8700 H   0  0  0  0  0  0  0  0  0  0  0  0
   34.7570   28.3270   49.7640 C   0  0  0  0  0  3  0  0  0  0  0  0
   34.3720   28.0610   48.5660 C   0  0  0  0  0  3  0  0  0  0  0  0
   33.2630   27.2210   48.1020 C   0  0  0  0  0  0  0  0  0  0  0  0
   32.8400   26.7060   48.9910 H   0  0  0  0  0  0  0  0  0  0  0  0
   32.4380   27.8100   47.6540 H   0  0  0  0  0  0  0  0  0  0  0  0
   33.6770   26.1950   47.0920 C   0  0  0  0  0  0  0  0  0  0  0  0
   33.8830   24.8520   47.3540 C   0  0  0  0  0  0  0  0  0  0  0  0
   34.2620   24.0040   46.3220 C   0  0  0  0  0  0  0  0  0  0  0  0
   34.4400   24.4900   45.0150 C   0  0  0  0  0  0  0  0  0  0  0  0
   34.2360   25.8170   44.7620 C   0  0  0  0  0  0  0  0  0  0  0  0
   33.8600   26.6530   45.7900 C   0  0  0  0  0  0  0  0  0  0  0  0
   33.7340   24.5280   48.3710 H   0  0  0  0  0  0  0  0  0  0  0  0
   34.4050   22.9630   46.6060 H   0  0  0  0  0  0  0  0  0  0  0  0
   34.7380   23.7730   44.2520 H   0  0  0  0  0  0  0  0  0  0  0  0
   34.3880   26.1320   43.7400 H   0  0  0  0  0  0  0  0  0  0  0  0
   33.7060   27.6980   45.5540 H   0  0  0  0  0  0  0  0  0  0  0  0
  1  7  1  0  0  0  0
  2  8  1  0  0  0  0
  2  1  2  0  0  0  0
  3  2  1  0  0  0  0
  4  3  2  0  0  0  0
  4  5  1  0  0  0  0
  5  6  2  0  0  0  0
  6  1  1  0  0  0  0
  9 10  1  0  0  0  0
 10 11  2  0  0  0  0
 10  3  1  0  0  0  0
 11 12  1  0  0  0  0
 13 11  1  0  0  0  0
 14 13  1  0  0  0  0
 14 20  1  0  0  0  0
 15 14  1  0  0  0  0
 16 15  1  0  0  0  0
 17 15  2  0  0  0  0
 17 18  1  0  0  0  0
 18 13  2  0  0  0  0
 19 18  1  0  0  0  0
 19  9  2  0  0  0  0
 21  5  1  0  0  0  0
 22 21  2  0  0  0  0
 23 22  1  0  0  0  0
 23 24  1  0  0  0  0
 25 23  1  0  0  0  0
 26 27  1  0  0  0  0
 26 23  1  0  0  0  0
 27 32  1  0  0  0  0
 28 33  1  0  0  0  0
 28 27  2  0  0  0  0
 29 28  1  0  0  0  0
 30 29  2  0  0  0  0
 30 31  1  0  0  0  0
 31 26  2  0  0  0  0
 34 29  1  0  0  0  0
 35 30  1  0  0  0  0
 36 31  1  0  0  0  0
M  END
>  <minimizedAffinity>
-6.93372726

>  <minimizedRMSD>
0.315047145

$$$$
