
 OpenBabel03272507133D

 43 48  0  0  0  0  0  0  0  0999 V2000
   37.0310   29.6120   50.2510 C   0  0  0  0  0  0  0  0  0  0  0  0
   37.6870   29.0020   51.1350 O   0  0  0  0  0  0  0  0  0  0  0  0
   37.5700   30.7170   49.5010 C   0  0  0  0  0  0  0  0  0  0  0  0
   37.5060   31.9790   50.0680 C   0  0  0  0  0  0  0  0  0  0  0  0
   38.0150   33.0750   49.3790 C   0  0  0  0  0  0  0  0  0  0  0  0
   38.5570   32.8190   48.1530 N   0  0  0  0  0  0  0  0  0  0  0  0
   38.6140   31.6010   47.6150 C   0  0  0  0  0  0  0  0  0  0  0  0
   38.1210   30.5480   48.2860 N   0  0  0  0  0  0  0  0  0  0  0  0
   37.0720   32.1340   51.0310 H   0  0  0  0  0  0  0  0  0  0  0  0
   37.9930   34.0760   49.7680 H   0  0  0  0  0  0  0  0  0  0  0  0
   40.0010   32.3970   45.7440 C   0  0  0  0  0  0  0  0  0  0  0  0
   39.2160   31.4130   46.2870 C   0  0  0  0  0  0  0  0  0  0  0  0
   38.9910   30.2320   45.5720 C   0  0  0  0  0  0  0  0  0  0  0  0
   38.3640   29.4290   45.9900 H   0  0  0  0  0  0  0  0  0  0  0  0
   39.5590   30.0450   44.3100 C   0  0  0  0  0  0  0  0  0  0  0  0
   39.5250   29.0590   43.4220 N   0  0  0  0  0  0  0  0  0  0  0  0
   40.2680   29.4250   42.3620 C   0  0  0  0  0  0  0  0  0  0  0  0
   40.4040   28.7890   41.4890 H   0  0  0  0  0  0  0  0  0  0  0  0
   40.7610   30.6520   42.6110 N   0  0  0  0  0  0  0  0  0  0  0  0
   40.3500   31.0840   43.8120 C   0  0  0  0  0  0  0  0  0  0  0  0
   40.5710   32.2370   44.5060 C   0  0  0  0  0  0  0  0  0  0  0  0
   39.0040   28.1390   43.5240 H   0  0  0  0  0  0  0  0  0  0  0  0
   35.6690   29.2000   49.9590 C   0  0  0  0  0  0  0  0  0  0  0  0
   34.6030   29.6760   50.6340 C   0  0  0  0  0  0  0  0  0  0  0  0
   33.4690   29.0660   50.0900 C   0  0  0  0  0  0  0  0  0  0  0  0
   33.9440   28.2210   49.0750 C   0  0  0  0  0  0  0  0  0  0  0  0
   35.2390   28.3540   49.0590 O   0  0  0  0  0  0  0  0  0  0  0  0
   34.5820   30.4040   51.4590 H   0  0  0  0  0  0  0  0  0  0  0  0
   32.4800   29.2680   50.4450 H   0  0  0  0  0  0  0  0  0  0  0  0
   33.5300   26.4330   47.4060 C   0  0  0  0  0  0  0  0  0  0  0  0
   33.0510   27.4050   48.2700 C   0  0  0  0  0  0  0  0  0  0  0  0
   31.7000   27.6380   48.4100 C   0  0  0  0  0  0  0  0  0  0  0  0
   30.8340   26.8700   47.6620 C   0  0  0  0  0  0  0  0  0  0  0  0
   29.4880   26.8830   47.6060 N   0  0  0  0  0  0  0  0  0  0  0  0
   29.1220   25.9480   46.7340 N   0  0  0  0  0  0  0  0  0  0  0  0
   30.2070   25.3480   46.2410 C   0  0  0  0  0  0  0  0  0  0  0  0
   31.3420   25.9060   46.8080 C   0  0  0  0  0  0  0  0  0  0  0  0
   32.6870   25.6650   46.6580 C   0  0  0  0  0  0  0  0  0  0  0  0
   34.6000   26.2670   47.3100 H   0  0  0  0  0  0  0  0  0  0  0  0
   31.2580   28.3880   49.0740 H   0  0  0  0  0  0  0  0  0  0  0  0
   28.8240   27.5100   48.1440 H   0  0  0  0  0  0  0  0  0  0  0  0
   30.1870   24.5370   45.5000 H   0  0  0  0  0  0  0  0  0  0  0  0
   33.0180   24.8960   45.9730 H   0  0  0  0  0  0  0  0  0  0  0  0
  1  2  2  0  0  0  0
  3  4  1  0  0  0  0
  3  1  1  0  0  0  0
  4  9  1  0  0  0  0
  5 10  1  0  0  0  0
  5  4  2  0  0  0  0
  6  5  1  0  0  0  0
  7  6  2  0  0  0  0
  7  8  1  0  0  0  0
  8  3  2  0  0  0  0
 11 12  1  0  0  0  0
 12  7  1  0  0  0  0
 13 14  1  0  0  0  0
 13 12  2  0  0  0  0
 15 13  1  0  0  0  0
 16 22  1  0  0  0  0
 16 15  1  0  0  0  0
 17 19  2  0  0  0  0
 17 16  1  0  0  0  0
 18 17  1  0  0  0  0
 19 20  1  0  0  0  0
 20 15  2  0  0  0  0
 20 21  1  0  0  0  0
 21 11  2  0  0  0  0
 23  1  1  0  0  0  0
 23 24  2  0  0  0  0
 24 28  1  0  0  0  0
 25 29  1  0  0  0  0
 25 24  1  0  0  0  0
 26 25  2  0  0  0  0
 27 26  1  0  0  0  0
 27 23  1  0  0  0  0
 30 31  1  0  0  0  0
 31 32  2  0  0  0  0
 31 26  1  0  0  0  0
 32 40  1  0  0  0  0
 33 32  1  0  0  0  0
 34 33  1  0  0  0  0
 34 41  1  0  0  0  0
 35 34  1  0  0  0  0
 36 35  2  0  0  0  0
 36 37  1  0  0  0  0
 37 33  2  0  0  0  0
 38 37  1  0  0  0  0
 38 30  2  0  0  0  0
 39 30  1  0  0  0  0
 42 36  1  0  0  0  0
 43 38  1  0  0  0  0
M  END
>  <minimizedAffinity>
-7.9474206

>  <minimizedRMSD>
0.866005182

$$$$
