
 OpenBabel03272503353D

 44 48  0  0  1  0  0  0  0  0999 V2000
   37.5770   24.1390   33.1910 C   0  0  0  0  0  0  0  0  0  0  0  0
   37.0810   23.0830   32.4270 C   0  0  0  0  0  0  0  0  0  0  0  0
   36.2010   23.4060   31.3910 C   0  0  0  0  0  0  0  0  0  0  0  0
   35.8940   24.7380   31.2070 N   0  0  0  0  0  0  0  0  0  0  0  0
   36.3960   25.7100   31.9680 C   0  0  0  0  0  0  0  0  0  0  0  0
   37.2490   25.4170   32.9730 N   0  0  0  0  0  0  0  0  0  0  0  0
   37.3210   22.0470   32.5710 H   0  0  0  0  0  0  0  0  0  0  0  0
   35.7750   22.6490   30.7560 H   0  0  0  0  0  0  0  0  0  0  0  0
   38.4870   23.8070   34.2630 N   0  0  0  0  0  0  0  0  0  0  0  0
   38.7930   24.6120   35.4080 C   0  0  0  0  0  0  0  0  0  0  0  0
   39.1610   23.5620   36.4540 C   0  0  2  0  0  0  0  0  0  0  0  0
   38.9000   22.2070   35.8060 C   0  0  0  0  0  0  0  0  0  0  0  0
   39.2700   22.5860   34.3800 C   0  0  0  0  0  0  0  0  0  0  0  0
   39.7230   25.1830   35.1740 H   0  0  0  0  0  0  0  0  0  0  0  0
   37.9660   25.2570   35.7470 H   0  0  0  0  0  0  0  0  0  0  0  0
   40.2420   23.5970   36.6930 H   0  0  0  0  0  0  0  0  0  0  0  0
   39.5240   21.4230   36.2350 H   0  0  0  0  0  0  0  0  0  0  0  0
   37.8080   22.0210   35.8430 H   0  0  0  0  0  0  0  0  0  0  0  0
   40.3570   22.7930   34.3320 H   0  0  0  0  0  0  0  0  0  0  0  0
   38.9300   21.7810   33.7090 H   0  0  0  0  0  0  0  0  0  0  0  0
   38.3930   23.7310   37.7310 C   0  0  0  0  0  0  0  0  0  0  0  0
   37.2150   23.0300   37.5800 F   0  0  0  0  0  0  0  0  0  0  0  0
   38.0480   25.0670   37.8170 F   0  0  0  0  0  0  0  0  0  0  0  0
   39.0860   23.3350   38.8410 F   0  0  0  0  0  0  0  0  0  0  0  0
   35.9560   27.4070   31.6730 S   0  0  0  0  0  0  0  0  0  0  0  0
   35.9880   28.4720   32.9750 C   0  0  0  0  0  0  0  0  0  0  0  0
   36.2080   28.4890   34.3180 C   0  0  0  0  0  0  0  0  0  0  0  0
   36.1360   29.5980   35.1180 C   0  0  0  0  0  0  0  0  0  0  0  0
   35.7850   30.8260   34.3550 C   0  0  0  0  0  0  0  0  0  0  0  0
   35.6030   30.2720   32.6330 S   0  0  0  0  0  0  0  0  0  0  0  0
   36.4490   27.5060   34.6880 H   0  0  0  0  0  0  0  0  0  0  0  0
   36.3110   29.5970   36.1750 H   0  0  0  0  0  0  0  0  0  0  0  0
   36.2000   33.2580   34.4280 C   0  0  0  0  0  3  0  0  0  0  0  0
   35.6490   32.1060   34.9530 C   0  0  0  0  0  0  0  0  0  0  0  0
   34.9100   32.1020   36.1200 C   0  0  0  0  0  0  0  0  0  0  0  0
   34.4590   31.2240   36.5670 H   0  0  0  0  0  0  0  0  0  0  0  0
   34.6790   33.2810   36.8370 C   0  0  0  0  0  0  0  0  0  0  0  0
   34.0250   33.5900   37.9650 N   0  0  0  0  0  0  0  0  0  0  0  0
   34.1450   34.9240   38.1750 C   0  0  0  0  0  0  0  0  0  0  0  0
   33.7130   35.4550   39.0180 H   0  0  0  0  0  0  0  0  0  0  0  0
   34.8830   35.4300   37.1610 N   0  0  0  0  0  0  0  0  0  0  0  0
   35.2280   34.4320   36.3160 C   0  0  0  0  0  0  0  0  0  0  0  0
   35.9630   34.4100   35.1490 C   0  0  0  0  0  3  0  0  0  0  0  0
   33.5170   32.9000   38.5600 H   0  0  0  0  0  0  0  0  0  0  0  0
  1  9  1  0  0  0  0
  2  7  1  0  0  0  0
  2  1  2  0  0  0  0
  3  2  1  0  0  0  0
  4  3  2  0  0  0  0
  4  5  1  0  0  0  0
  5  6  2  0  0  0  0
  6  1  1  0  0  0  0
  8  3  1  0  0  0  0
  9 13  1  0  0  0  0
  9 10  1  0  0  0  0
 10 15  1  0  0  0  0
 10 11  1  0  0  0  0
 11 16  1  1  0  0  0
 11 21  1  0  0  0  0
 12 18  1  0  0  0  0
 12 17  1  0  0  0  0
 12 11  1  0  0  0  0
 13 12  1  0  0  0  0
 14 10  1  0  0  0  0
 19 13  1  0  0  0  0
 20 13  1  0  0  0  0
 21 23  1  0  0  0  0
 21 24  1  0  0  0  0
 22 21  1  0  0  0  0
 25  5  1  0  0  0  0
 25 26  1  0  0  0  0
 26 27  2  0  0  0  0
 27 31  1  0  0  0  0
 27 28  1  0  0  0  0
 28 32  1  0  0  0  0
 29 34  1  0  0  0  0
 29 28  2  0  0  0  0
 30 26  1  0  0  0  0
 30 29  1  0  0  0  0
 33 34  2  0  0  0  0
 33 43  1  0  0  0  0
 34 35  1  0  0  0  0
 35 36  1  0  0  0  0
 35 37  2  0  0  0  0
 37 38  1  0  0  0  0
 38 39  1  0  0  0  0
 38 44  1  0  0  0  0
 39 40  1  0  0  0  0
 41 39  2  0  0  0  0
 42 37  1  0  0  0  0
 42 41  1  0  0  0  0
 43 42  2  0  0  0  0
M  END
>  <minimizedAffinity>
-6.77943134

$$$$

 OpenBabel03272503353D

 44 48  0  0  1  0  0  0  0  0999 V2000
   36.1720   31.0500   31.8500 C   0  0  0  0  0  0  0  0  0  0  0  0
   36.5470   31.5610   30.6070 C   0  0  0  0  0  0  0  0  0  0  0  0
   36.9160   30.6380   29.6260 C   0  0  0  0  0  0  0  0  0  0  0  0
   36.8810   29.3010   29.9610 N   0  0  0  0  0  0  0  0  0  0  0  0
   36.5140   28.8640   31.1660 C   0  0  0  0  0  0  0  0  0  0  0  0
   36.1530   29.7420   32.1280 N   0  0  0  0  0  0  0  0  0  0  0  0
   36.5740   32.6020   30.3470 H   0  0  0  0  0  0  0  0  0  0  0  0
   37.2180   30.9520   28.6420 H   0  0  0  0  0  0  0  0  0  0  0  0
   35.7890   32.0030   32.8660 N   0  0  0  0  0  0  0  0  0  0  0  0
   34.7150   31.8690   33.8060 C   0  0  0  0  0  0  0  0  0  0  0  0
   35.2100   32.7020   34.9850 C   0  0  2  0  0  0  0  0  0  0  0  0
   36.6250   33.1440   34.6290 C   0  0  0  0  0  0  0  0  0  0  0  0
   36.4260   33.2840   33.1280 C   0  0  0  0  0  0  0  0  0  0  0  0
   33.8310   32.3980   33.3760 H   0  0  0  0  0  0  0  0  0  0  0  0
   34.4930   30.8310   34.1010 H   0  0  0  0  0  0  0  0  0  0  0  0
   34.6090   33.6260   35.1030 H   0  0  0  0  0  0  0  0  0  0  0  0
   36.9010   34.0720   35.1310 H   0  0  0  0  0  0  0  0  0  0  0  0
   37.3020   32.2850   34.8110 H   0  0  0  0  0  0  0  0  0  0  0  0
   35.7370   34.1290   32.9320 H   0  0  0  0  0  0  0  0  0  0  0  0
   37.4170   33.3870   32.6550 H   0  0  0  0  0  0  0  0  0  0  0  0
   35.1660   31.9470   36.2800 C   0  0  0  0  0  0  0  0  0  0  0  0
   36.2730   31.1250   36.2950 F   0  0  0  0  0  0  0  0  0  0  0  0
   34.0610   31.1190   36.2230 F   0  0  0  0  0  0  0  0  0  0  0  0
   35.1130   32.7550   37.3810 F   0  0  0  0  0  0  0  0  0  0  0  0
   36.4920   27.1250   31.5300 S   0  0  0  0  0  0  0  0  0  0  0  0
   37.0550   26.6210   33.0320 C   0  0  0  0  0  0  0  0  0  0  0  0
   37.0940   27.0220   34.3330 C   0  0  0  0  0  0  0  0  0  0  0  0
   37.6810   26.3300   35.3580 C   0  0  0  0  0  0  0  0  0  0  0  0
   38.2930   25.0520   34.9020 C   0  0  0  0  0  0  0  0  0  0  0  0
   37.9700   24.9890   33.1150 S   0  0  0  0  0  0  0  0  0  0  0  0
   36.5970   27.9700   34.4650 H   0  0  0  0  0  0  0  0  0  0  0  0
   37.7030   26.6580   36.3780 H   0  0  0  0  0  0  0  0  0  0  0  0
   38.5800   23.9270   37.0790 C   0  0  0  0  0  3  0  0  0  0  0  0
   38.9630   24.1530   35.7720 C   0  0  0  0  0  0  0  0  0  0  0  0
   40.0430   23.5170   35.1940 C   0  0  0  0  0  0  0  0  0  0  0  0
   40.3780   23.6630   34.1740 H   0  0  0  0  0  0  0  0  0  0  0  0
   40.8140   22.5960   35.9140 C   0  0  0  0  0  0  0  0  0  0  0  0
   41.8860   21.8410   35.6400 N   0  0  0  0  0  0  0  0  0  0  0  0
   42.2010   21.1300   36.7510 C   0  0  0  0  0  0  0  0  0  0  0  0
   43.0300   20.4320   36.8200 H   0  0  0  0  0  0  0  0  0  0  0  0
   41.3070   21.4590   37.7120 N   0  0  0  0  0  0  0  0  0  0  0  0
   40.4340   22.3680   37.2190 C   0  0  0  0  0  0  0  0  0  0  0  0
   39.3510   23.0180   37.7730 C   0  0  0  0  0  3  0  0  0  0  0  0
   42.3760   21.8230   34.7200 H   0  0  0  0  0  0  0  0  0  0  0  0
  1  6  1  0  0  0  0
  1  9  1  0  0  0  0
  2  1  2  0  0  0  0
  3  4  2  0  0  0  0
  3  2  1  0  0  0  0
  4  5  1  0  0  0  0
  5 25  1  0  0  0  0
  5  6  2  0  0  0  0
  7  2  1  0  0  0  0
  8  3  1  0  0  0  0
  9 13  1  0  0  0  0
  9 10  1  0  0  0  0
 10 15  1  0  0  0  0
 10 11  1  0  0  0  0
 11 16  1  1  0  0  0
 11 21  1  0  0  0  0
 12 18  1  0  0  0  0
 12 11  1  0  0  0  0
 12 17  1  0  0  0  0
 13 12  1  0  0  0  0
 14 10  1  0  0  0  0
 19 13  1  0  0  0  0
 20 13  1  0  0  0  0
 21 22  1  0  0  0  0
 21 24  1  0  0  0  0
 23 21  1  0  0  0  0
 25 26  1  0  0  0  0
 26 30  1  0  0  0  0
 26 27  2  0  0  0  0
 27 31  1  0  0  0  0
 27 28  1  0  0  0  0
 28 32  1  0  0  0  0
 29 28  2  0  0  0  0
 29 34  1  0  0  0  0
 30 29  1  0  0  0  0
 33 43  1  0  0  0  0
 34 33  2  0  0  0  0
 35 34  1  0  0  0  0
 35 37  2  0  0  0  0
 36 35  1  0  0  0  0
 37 42  1  0  0  0  0
 38 37  1  0  0  0  0
 38 39  1  0  0  0  0
 39 40  1  0  0  0  0
 39 41  2  0  0  0  0
 42 41  1  0  0  0  0
 42 43  2  0  0  0  0
 44 38  1  0  0  0  0
M  END
>  <minimizedAffinity>
-6.70251513

$$$$

 OpenBabel03272503353D

 44 48  0  0  1  0  0  0  0  0999 V2000
   37.9260   24.0740   33.0910 C   0  0  0  0  0  0  0  0  0  0  0  0
   37.0360   23.1120   32.6130 C   0  0  0  0  0  0  0  0  0  0  0  0
   36.2890   23.4450   31.4810 C   0  0  0  0  0  0  0  0  0  0  0  0
   36.4900   24.6920   30.9280 N   0  0  0  0  0  0  0  0  0  0  0  0
   37.3540   25.5770   31.4250 C   0  0  0  0  0  0  0  0  0  0  0  0
   38.0860   25.2720   32.5190 N   0  0  0  0  0  0  0  0  0  0  0  0
   36.8820   22.1420   33.0440 H   0  0  0  0  0  0  0  0  0  0  0  0
   35.5810   22.7580   31.0500 H   0  0  0  0  0  0  0  0  0  0  0  0
   38.7010   23.7320   34.2620 N   0  0  0  0  0  0  0  0  0  0  0  0
   38.9210   24.5550   35.4150 C   0  0  0  0  0  0  0  0  0  0  0  0
   39.1250   23.5190   36.5180 C   0  0  2  0  0  0  0  0  0  0  0  0
   38.8700   22.1600   35.8770 C   0  0  0  0  0  0  0  0  0  0  0  0
   39.4080   22.4810   34.4920 C   0  0  0  0  0  0  0  0  0  0  0  0
   39.8960   25.0770   35.2680 H   0  0  0  0  0  0  0  0  0  0  0  0
   38.0940   25.2450   35.6480 H   0  0  0  0  0  0  0  0  0  0  0  0
   40.1750   23.5130   36.8710 H   0  0  0  0  0  0  0  0  0  0  0  0
   39.4080   21.3610   36.3890 H   0  0  0  0  0  0  0  0  0  0  0  0
   37.7730   22.0230   35.8010 H   0  0  0  0  0  0  0  0  0  0  0  0
   40.5020   22.6380   34.5550 H   0  0  0  0  0  0  0  0  0  0  0  0
   39.1030   21.6730   33.8060 H   0  0  0  0  0  0  0  0  0  0  0  0
   38.2340   23.7580   37.7010 C   0  0  0  0  0  0  0  0  0  0  0  0
   36.9870   23.2800   37.3590 F   0  0  0  0  0  0  0  0  0  0  0  0
   38.1080   25.1280   37.8370 F   0  0  0  0  0  0  0  0  0  0  0  0
   38.6990   23.1950   38.8570 F   0  0  0  0  0  0  0  0  0  0  0  0
   37.5610   27.1680   30.6600 S   0  0  0  0  0  0  0  0  0  0  0  0
   36.8940   28.5080   31.4250 C   0  0  0  0  0  0  0  0  0  0  0  0
   36.6100   29.8200   31.1980 C   0  0  0  0  0  0  0  0  0  0  0  0
   36.0410   30.6760   32.1030 C   0  0  0  0  0  0  0  0  0  0  0  0
   35.7490   30.0140   33.4040 C   0  0  0  0  0  0  0  0  0  0  0  0
   36.3050   28.2970   33.1900 S   0  0  0  0  0  0  0  0  0  0  0  0
   36.8930   30.1150   30.2000 H   0  0  0  0  0  0  0  0  0  0  0  0
   35.8230   31.7070   31.9100 H   0  0  0  0  0  0  0  0  0  0  0  0
   35.8810   31.2000   35.5630 C   0  0  0  0  0  3  0  0  0  0  0  0
   35.1580   30.6840   34.5060 C   0  0  0  0  0  0  0  0  0  0  0  0
   33.7820   30.7770   34.4320 C   0  0  0  0  0  0  0  0  0  0  0  0
   33.1760   30.3880   33.6230 H   0  0  0  0  0  0  0  0  0  0  0  0
   33.0420   31.4090   35.4370 C   0  0  0  0  0  0  0  0  0  0  0  0
   31.7400   31.6510   35.6440 N   0  0  0  0  0  0  0  0  0  0  0  0
   31.6120   32.3160   36.8190 C   0  0  0  0  0  0  0  0  0  0  0  0
   30.6660   32.6430   37.2410 H   0  0  0  0  0  0  0  0  0  0  0  0
   32.8540   32.4790   37.3310 N   0  0  0  0  0  0  0  0  0  0  0  0
   33.7600   31.9260   36.4940 C   0  0  0  0  0  0  0  0  0  0  0  0
   35.1350   31.8180   36.5450 C   0  0  0  0  0  3  0  0  0  0  0  0
   30.9760   31.3650   34.9940 H   0  0  0  0  0  0  0  0  0  0  0  0
  1  9  1  0  0  0  0
  2  7  1  0  0  0  0
  2  1  1  0  0  0  0
  3  2  2  0  0  0  0
  4  5  2  0  0  0  0
  4  3  1  0  0  0  0
  5  6  1  0  0  0  0
  6  1  2  0  0  0  0
  8  3  1  0  0  0  0
  9 13  1  0  0  0  0
  9 10  1  0  0  0  0
 10 15  1  0  0  0  0
 10 11  1  0  0  0  0
 11 16  1  1  0  0  0
 11 21  1  0  0  0  0
 12 17  1  0  0  0  0
 12 11  1  0  0  0  0
 13 19  1  0  0  0  0
 13 12  1  0  0  0  0
 14 10  1  0  0  0  0
 18 12  1  0  0  0  0
 20 13  1  0  0  0  0
 21 23  1  0  0  0  0
 21 24  1  0  0  0  0
 22 21  1  0  0  0  0
 25  5  1  0  0  0  0
 25 26  1  0  0  0  0
 26 30  1  0  0  0  0
 27 26  2  0  0  0  0
 27 28  1  0  0  0  0
 28 29  2  0  0  0  0
 29 34  1  0  0  0  0
 30 29  1  0  0  0  0
 31 27  1  0  0  0  0
 32 28  1  0  0  0  0
 33 43  1  0  0  0  0
 34 33  2  0  0  0  0
 35 34  1  0  0  0  0
 35 37  2  0  0  0  0
 36 35  1  0  0  0  0
 37 38  1  0  0  0  0
 37 42  1  0  0  0  0
 38 39  1  0  0  0  0
 39 40  1  0  0  0  0
 39 41  2  0  0  0  0
 42 43  2  0  0  0  0
 42 41  1  0  0  0  0
 44 38  1  0  0  0  0
M  END
>  <minimizedAffinity>
-6.65888882

$$$$

 OpenBabel03272503353D

 44 48  0  0  1  0  0  0  0  0999 V2000
   33.2530   30.5670   33.4950 C   0  0  0  0  0  0  0  0  0  0  0  0
   33.1110   31.5650   32.5310 C   0  0  0  0  0  0  0  0  0  0  0  0
   33.9200   31.4730   31.3960 C   0  0  0  0  0  0  0  0  0  0  0  0
   34.7920   30.4070   31.3190 N   0  0  0  0  0  0  0  0  0  0  0  0
   34.8900   29.4790   32.2700 C   0  0  0  0  0  0  0  0  0  0  0  0
   34.1150   29.5510   33.3740 N   0  0  0  0  0  0  0  0  0  0  0  0
   32.4310   32.3930   32.5920 H   0  0  0  0  0  0  0  0  0  0  0  0
   33.8700   32.2030   30.6070 H   0  0  0  0  0  0  0  0  0  0  0  0
   32.4170   30.6590   34.6690 N   0  0  0  0  0  0  0  0  0  0  0  0
   31.3360   29.7870   35.0230 C   0  0  0  0  0  0  0  0  0  0  0  0
   31.3300   29.8800   36.5470 C   0  0  2  0  0  0  0  0  0  0  0  0
   32.5340   30.7370   36.9250 C   0  0  0  0  0  0  0  0  0  0  0  0
   32.5150   31.6620   35.7190 C   0  0  0  0  0  0  0  0  0  0  0  0
   30.3940   30.2620   34.6600 H   0  0  0  0  0  0  0  0  0  0  0  0
   31.4560   28.7480   34.6770 H   0  0  0  0  0  0  0  0  0  0  0  0
   30.4320   30.4160   36.9110 H   0  0  0  0  0  0  0  0  0  0  0  0
   32.3890   31.2450   37.8790 H   0  0  0  0  0  0  0  0  0  0  0  0
   33.4360   30.0970   36.8590 H   0  0  0  0  0  0  0  0  0  0  0  0
   31.6080   32.2960   35.7630 H   0  0  0  0  0  0  0  0  0  0  0  0
   33.4630   32.2260   35.7000 H   0  0  0  0  0  0  0  0  0  0  0  0
   31.3720   28.5330   37.2050 C   0  0  0  0  0  0  0  0  0  0  0  0
   30.0630   28.1290   37.3620 F   0  0  0  0  0  0  0  0  0  0  0  0
   31.8810   28.7230   38.4750 F   0  0  0  0  0  0  0  0  0  0  0  0
   32.1120   27.6120   36.5160 F   0  0  0  0  0  0  0  0  0  0  0  0
   36.0380   28.1310   32.1040 S   0  0  0  0  0  0  0  0  0  0  0  0
   36.7740   27.5410   33.4960 C   0  0  0  0  0  0  0  0  0  0  0  0
   37.1630   27.9460   34.7360 C   0  0  0  0  0  0  0  0  0  0  0  0
   37.7830   27.1570   35.6680 C   0  0  0  0  0  0  0  0  0  0  0  0
   37.9990   25.7680   35.1820 C   0  0  0  0  0  0  0  0  0  0  0  0
   37.3110   25.7470   33.5000 S   0  0  0  0  0  0  0  0  0  0  0  0
   36.9210   28.9830   34.9040 H   0  0  0  0  0  0  0  0  0  0  0  0
   38.0840   27.4900   36.6410 H   0  0  0  0  0  0  0  0  0  0  0  0
   38.1440   24.3300   37.1830 C   0  0  0  0  0  3  0  0  0  0  0  0
   38.6210   24.7560   35.9590 C   0  0  0  0  0  0  0  0  0  0  0  0
   39.7590   24.2290   35.3820 C   0  0  0  0  0  0  0  0  0  0  0  0
   40.1680   24.5320   34.4250 H   0  0  0  0  0  0  0  0  0  0  0  0
   40.4950   23.2210   36.0150 C   0  0  0  0  0  0  0  0  0  0  0  0
   41.6040   22.5300   35.7190 N   0  0  0  0  0  0  0  0  0  0  0  0
   41.8500   21.6640   36.7330 C   0  0  0  0  0  0  0  0  0  0  0  0
   42.6880   20.9750   36.7640 H   0  0  0  0  0  0  0  0  0  0  0  0
   40.8760   21.8330   37.6570 N   0  0  0  0  0  0  0  0  0  0  0  0
   40.0210   22.7930   37.2370 C   0  0  0  0  0  0  0  0  0  0  0  0
   38.8820   23.3380   37.7930 C   0  0  0  0  0  3  0  0  0  0  0  0
   42.1640   22.6580   34.8490 H   0  0  0  0  0  0  0  0  0  0  0  0
  1  9  1  0  0  0  0
  2  7  1  0  0  0  0
  2  1  2  0  0  0  0
  3  2  1  0  0  0  0
  4  3  2  0  0  0  0
  4  5  1  0  0  0  0
  5  6  2  0  0  0  0
  6  1  1  0  0  0  0
  8  3  1  0  0  0  0
  9 10  1  0  0  0  0
  9 13  1  0  0  0  0
 10 11  1  0  0  0  0
 11 16  1  1  0  0  0
 11 12  1  0  0  0  0
 11 21  1  0  0  0  0
 12 17  1  0  0  0  0
 13 19  1  0  0  0  0
 13 12  1  0  0  0  0
 14 10  1  0  0  0  0
 15 10  1  0  0  0  0
 18 12  1  0  0  0  0
 20 13  1  0  0  0  0
 21 22  1  0  0  0  0
 21 23  1  0  0  0  0
 24 21  1  0  0  0  0
 25  5  1  0  0  0  0
 25 26  1  0  0  0  0
 26 30  1  0  0  0  0
 26 27  2  0  0  0  0
 27 31  1  0  0  0  0
 27 28  1  0  0  0  0
 28 32  1  0  0  0  0
 29 28  2  0  0  0  0
 29 34  1  0  0  0  0
 30 29  1  0  0  0  0
 33 43  1  0  0  0  0
 34 33  2  0  0  0  0
 35 34  1  0  0  0  0
 35 37  2  0  0  0  0
 36 35  1  0  0  0  0
 37 42  1  0  0  0  0
 38 37  1  0  0  0  0
 38 39  1  0  0  0  0
 39 40  1  0  0  0  0
 39 41  2  0  0  0  0
 42 41  1  0  0  0  0
 42 43  2  0  0  0  0
 44 38  1  0  0  0  0
M  END
>  <minimizedAffinity>
-6.64974594

$$$$

 OpenBabel03272503353D

 44 48  0  0  1  0  0  0  0  0999 V2000
   40.1560   24.3960   34.0620 C   0  0  0  0  0  0  0  0  0  0  0  0
   41.4840   24.8200   34.1100 C   0  0  0  0  0  0  0  0  0  0  0  0
   41.8940   25.7370   33.1390 C   0  0  0  0  0  0  0  0  0  0  0  0
   40.9580   26.1470   32.2130 N   0  0  0  0  0  0  0  0  0  0  0  0
   39.6990   25.7090   32.2100 C   0  0  0  0  0  0  0  0  0  0  0  0
   39.2840   24.8230   33.1420 N   0  0  0  0  0  0  0  0  0  0  0  0
   42.2110   24.5000   34.8320 H   0  0  0  0  0  0  0  0  0  0  0  0
   42.9020   26.1130   33.1090 H   0  0  0  0  0  0  0  0  0  0  0  0
   39.7290   23.4480   35.0650 N   0  0  0  0  0  0  0  0  0  0  0  0
   40.1260   23.4200   36.4430 C   0  0  0  0  0  0  0  0  0  0  0  0
   38.9170   22.7740   37.1150 C   0  0  2  0  0  0  0  0  0  0  0  0
   37.8650   22.6030   36.0250 C   0  0  0  0  0  0  0  0  0  0  0  0
   38.8120   22.3370   34.8650 C   0  0  0  0  0  0  0  0  0  0  0  0
   40.9750   22.7010   36.5290 H   0  0  0  0  0  0  0  0  0  0  0  0
   40.3540   24.4090   36.8720 H   0  0  0  0  0  0  0  0  0  0  0  0
   39.1610   21.7580   37.4840 H   0  0  0  0  0  0  0  0  0  0  0  0
   37.1830   21.7800   36.2420 H   0  0  0  0  0  0  0  0  0  0  0  0
   37.3850   23.5890   35.8630 H   0  0  0  0  0  0  0  0  0  0  0  0
   39.3120   21.3620   35.0230 H   0  0  0  0  0  0  0  0  0  0  0  0
   38.2370   22.4060   33.9270 H   0  0  0  0  0  0  0  0  0  0  0  0
   38.4030   23.5810   38.2700 C   0  0  0  0  0  0  0  0  0  0  0  0
   39.4120   23.6150   39.2090 F   0  0  0  0  0  0  0  0  0  0  0  0
   37.3650   22.8610   38.8300 F   0  0  0  0  0  0  0  0  0  0  0  0
   37.9900   24.8360   37.9170 F   0  0  0  0  0  0  0  0  0  0  0  0
   38.5450   26.2810   30.9850 S   0  0  0  0  0  0  0  0  0  0  0  0
   37.4360   27.4630   31.4320 C   0  0  0  0  0  0  0  0  0  0  0  0
   36.7050   28.4800   30.8980 C   0  0  0  0  0  0  0  0  0  0  0  0
   35.8590   29.3000   31.5970 C   0  0  0  0  0  0  0  0  0  0  0  0
   35.8090   28.9610   33.0450 C   0  0  0  0  0  0  0  0  0  0  0  0
   36.9430   27.5540   33.2370 S   0  0  0  0  0  0  0  0  0  0  0  0
   36.8750   28.5690   29.8370 H   0  0  0  0  0  0  0  0  0  0  0  0
   35.2910   30.0980   31.1630 H   0  0  0  0  0  0  0  0  0  0  0  0
   33.6390   29.5050   34.0870 C   0  0  0  0  0  3  0  0  0  0  0  0
   35.0070   29.6610   33.9830 C   0  0  0  0  0  0  0  0  0  0  0  0
   35.7190   30.5240   34.7940 C   0  0  0  0  0  0  0  0  0  0  0  0
   36.7900   30.6770   34.7480 H   0  0  0  0  0  0  0  0  0  0  0  0
   35.0810   31.2910   35.7750 C   0  0  0  0  0  0  0  0  0  0  0  0
   35.4830   32.1870   36.6860 N   0  0  0  0  0  0  0  0  0  0  0  0
   34.3960   32.6110   37.3760 C   0  0  0  0  0  0  0  0  0  0  0  0
   34.4230   33.3420   38.1790 H   0  0  0  0  0  0  0  0  0  0  0  0
   33.3190   31.9630   36.8760 N   0  0  0  0  0  0  0  0  0  0  0  0
   33.7150   31.1370   35.8810 C   0  0  0  0  0  0  0  0  0  0  0  0
   33.0270   30.2700   35.0580 C   0  0  0  0  0  3  0  0  0  0  0  0
   36.4730   32.4890   36.8200 H   0  0  0  0  0  0  0  0  0  0  0  0
  1  2  1  0  0  0  0
  1  9  1  0  0  0  0
  2  7  1  0  0  0  0
  3  2  2  0  0  0  0
  4  3  1  0  0  0  0
  5  4  2  0  0  0  0
  5  6  1  0  0  0  0
  6  1  2  0  0  0  0
  8  3  1  0  0  0  0
  9 10  1  0  0  0  0
 10 14  1  0  0  0  0
 10 15  1  0  0  0  0
 10 11  1  0  0  0  0
 11 16  1  1  0  0  0
 11 21  1  0  0  0  0
 12 17  1  0  0  0  0
 12 11  1  0  0  0  0
 13 19  1  0  0  0  0
 13  9  1  0  0  0  0
 13 12  1  0  0  0  0
 18 12  1  0  0  0  0
 20 13  1  0  0  0  0
 21 23  1  0  0  0  0
 21 22  1  0  0  0  0
 24 21  1  0  0  0  0
 25 26  1  0  0  0  0
 25  5  1  0  0  0  0
 26 30  1  0  0  0  0
 27 26  2  0  0  0  0
 27 28  1  0  0  0  0
 28 29  2  0  0  0  0
 29 30  1  0  0  0  0
 29 34  1  0  0  0  0
 31 27  1  0  0  0  0
 32 28  1  0  0  0  0
 33 43  1  0  0  0  0
 34 33  2  0  0  0  0
 34 35  1  0  0  0  0
 35 37  2  0  0  0  0
 36 35  1  0  0  0  0
 37 42  1  0  0  0  0
 37 38  1  0  0  0  0
 38 44  1  0  0  0  0
 38 39  1  0  0  0  0
 39 40  1  0  0  0  0
 41 39  2  0  0  0  0
 42 41  1  0  0  0  0
 43 42  2  0  0  0  0
M  END
>  <minimizedAffinity>
-6.5472455

$$$$

 OpenBabel03272503353D

 44 48  0  0  1  0  0  0  0  0999 V2000
   40.2390   24.5980   34.7760 C   0  0  0  0  0  0  0  0  0  0  0  0
   41.4130   25.3390   34.9110 C   0  0  0  0  0  0  0  0  0  0  0  0
   41.5300   26.4920   34.1310 C   0  0  0  0  0  0  0  0  0  0  0  0
   40.4810   26.8050   33.2930 N   0  0  0  0  0  0  0  0  0  0  0  0
   39.3790   26.0620   33.2010 C   0  0  0  0  0  0  0  0  0  0  0  0
   39.2470   24.9430   33.9480 N   0  0  0  0  0  0  0  0  0  0  0  0
   42.2290   25.0950   35.5640 H   0  0  0  0  0  0  0  0  0  0  0  0
   42.4050   27.1180   34.1780 H   0  0  0  0  0  0  0  0  0  0  0  0
   40.1150   23.4060   35.5810 N   0  0  0  0  0  0  0  0  0  0  0  0
   40.7380   22.1380   35.3390 C   0  0  0  0  0  0  0  0  0  0  0  0
   40.8660   21.5650   36.7480 C   0  0  2  0  0  0  0  0  0  0  0  0
   40.3930   22.6600   37.6970 C   0  0  0  0  0  0  0  0  0  0  0  0
   39.3280   23.2660   36.7970 C   0  0  0  0  0  0  0  0  0  0  0  0
   40.0010   21.5050   34.7910 H   0  0  0  0  0  0  0  0  0  0  0  0
   41.7150   22.1990   34.8310 H   0  0  0  0  0  0  0  0  0  0  0  0
   40.1860   20.7030   36.8920 H   0  0  0  0  0  0  0  0  0  0  0  0
   40.0070   22.2510   38.6310 H   0  0  0  0  0  0  0  0  0  0  0  0
   41.2170   23.3930   37.8030 H   0  0  0  0  0  0  0  0  0  0  0  0
   38.5050   22.5360   36.6680 H   0  0  0  0  0  0  0  0  0  0  0  0
   39.0160   24.2310   37.2310 H   0  0  0  0  0  0  0  0  0  0  0  0
   42.2630   21.1160   37.0600 C   0  0  0  0  0  0  0  0  0  0  0  0
   43.0710   22.2270   36.9430 F   0  0  0  0  0  0  0  0  0  0  0  0
   42.6390   20.2470   36.0540 F   0  0  0  0  0  0  0  0  0  0  0  0
   42.3840   20.5230   38.2860 F   0  0  0  0  0  0  0  0  0  0  0  0
   38.0640   26.5250   32.0980 S   0  0  0  0  0  0  0  0  0  0  0  0
   37.1390   27.8740   32.4900 C   0  0  0  0  0  0  0  0  0  0  0  0
   36.5390   28.9470   31.9060 C   0  0  0  0  0  0  0  0  0  0  0  0
   35.8330   29.9160   32.5670 C   0  0  0  0  0  0  0  0  0  0  0  0
   35.7800   29.6780   34.0350 C   0  0  0  0  0  0  0  0  0  0  0  0
   36.7170   28.1420   34.2940 S   0  0  0  0  0  0  0  0  0  0  0  0
   36.6870   28.9460   30.8380 H   0  0  0  0  0  0  0  0  0  0  0  0
   35.3650   30.7570   32.0940 H   0  0  0  0  0  0  0  0  0  0  0  0
   35.7590   31.3490   35.8500 C   0  0  0  0  0  3  0  0  0  0  0  0
   35.1080   30.5380   34.9420 C   0  0  0  0  0  0  0  0  0  0  0  0
   33.7320   30.4940   34.8400 C   0  0  0  0  0  0  0  0  0  0  0  0
   33.1800   29.8740   34.1430 H   0  0  0  0  0  0  0  0  0  0  0  0
   32.9170   31.2810   35.6610 C   0  0  0  0  0  0  0  0  0  0  0  0
   31.5950   31.4540   35.7960 N   0  0  0  0  0  0  0  0  0  0  0  0
   31.3830   32.3650   36.7780 C   0  0  0  0  0  0  0  0  0  0  0  0
   30.4030   32.7010   37.1050 H   0  0  0  0  0  0  0  0  0  0  0  0
   32.5940   32.7500   37.2440 N   0  0  0  0  0  0  0  0  0  0  0  0
   33.5640   32.0920   36.5690 C   0  0  0  0  0  0  0  0  0  0  0  0
   34.9400   32.1170   36.6520 C   0  0  0  0  0  3  0  0  0  0  0  0
   30.8740   30.9580   35.2290 H   0  0  0  0  0  0  0  0  0  0  0  0
  1  2  1  0  0  0  0
  1  9  1  0  0  0  0
  2  7  1  0  0  0  0
  3  8  1  0  0  0  0
  3  2  2  0  0  0  0
  4  3  1  0  0  0  0
  5  4  2  0  0  0  0
  5  6  1  0  0  0  0
  6  1  2  0  0  0  0
  9 13  1  0  0  0  0
 10  9  1  0  0  0  0
 10 11  1  0  0  0  0
 11 16  1  1  0  0  0
 11 21  1  0  0  0  0
 11 12  1  0  0  0  0
 12 18  1  0  0  0  0
 12 17  1  0  0  0  0
 13 20  1  0  0  0  0
 13 12  1  0  0  0  0
 14 10  1  0  0  0  0
 15 10  1  0  0  0  0
 19 13  1  0  0  0  0
 21 24  1  0  0  0  0
 22 21  1  0  0  0  0
 23 21  1  0  0  0  0
 25 26  1  0  0  0  0
 25  5  1  0  0  0  0
 26 30  1  0  0  0  0
 27 26  2  0  0  0  0
 27 28  1  0  0  0  0
 28 29  2  0  0  0  0
 29 30  1  0  0  0  0
 29 34  1  0  0  0  0
 31 27  1  0  0  0  0
 32 28  1  0  0  0  0
 33 43  1  0  0  0  0
 34 33  2  0  0  0  0
 35 34  1  0  0  0  0
 35 37  2  0  0  0  0
 36 35  1  0  0  0  0
 37 38  1  0  0  0  0
 37 42  1  0  0  0  0
 38 39  1  0  0  0  0
 39 40  1  0  0  0  0
 39 41  2  0  0  0  0
 42 43  2  0  0  0  0
 42 41  1  0  0  0  0
 44 38  1  0  0  0  0
M  END
>  <minimizedAffinity>
-6.41260433

$$$$

 OpenBabel03272503353D

 44 48  0  0  1  0  0  0  0  0999 V2000
   35.6030   32.5420   33.6240 C   0  0  0  0  0  0  0  0  0  0  0  0
   36.3110   33.5820   33.0220 C   0  0  0  0  0  0  0  0  0  0  0  0
   36.9740   33.2910   31.8270 C   0  0  0  0  0  0  0  0  0  0  0  0
   36.8780   32.0040   31.3410 N   0  0  0  0  0  0  0  0  0  0  0  0
   36.1880   31.0450   31.9570 C   0  0  0  0  0  0  0  0  0  0  0  0
   35.5400   31.3080   33.1120 N   0  0  0  0  0  0  0  0  0  0  0  0
   36.3850   34.5830   33.4010 H   0  0  0  0  0  0  0  0  0  0  0  0
   37.5420   34.0390   31.3010 H   0  0  0  0  0  0  0  0  0  0  0  0
   34.9160   32.8400   34.8590 N   0  0  0  0  0  0  0  0  0  0  0  0
   33.4980   32.9010   35.0580 C   0  0  0  0  0  0  0  0  0  0  0  0
   33.3610   32.5280   36.5320 C   0  0  2  0  0  0  0  0  0  0  0  0
   34.7610   32.1600   37.0090 C   0  0  0  0  0  0  0  0  0  0  0  0
   35.5380   33.1370   36.1400 C   0  0  0  0  0  0  0  0  0  0  0  0
   33.1950   33.9700   34.9590 H   0  0  0  0  0  0  0  0  0  0  0  0
   32.9160   32.2280   34.4080 H   0  0  0  0  0  0  0  0  0  0  0  0
   33.0370   33.3970   37.1360 H   0  0  0  0  0  0  0  0  0  0  0  0
   34.8820   32.3230   38.0810 H   0  0  0  0  0  0  0  0  0  0  0  0
   34.9780   31.1320   36.6560 H   0  0  0  0  0  0  0  0  0  0  0  0
   35.3160   34.1700   36.4710 H   0  0  0  0  0  0  0  0  0  0  0  0
   36.6060   32.8650   36.1830 H   0  0  0  0  0  0  0  0  0  0  0  0
   32.3820   31.4130   36.7520 C   0  0  0  0  0  0  0  0  0  0  0  0
   31.1500   32.0010   36.9450 F   0  0  0  0  0  0  0  0  0  0  0  0
   32.7230   30.8110   37.9490 F   0  0  0  0  0  0  0  0  0  0  0  0
   32.3590   30.4970   35.7370 F   0  0  0  0  0  0  0  0  0  0  0  0
   36.1070   29.4060   31.2720 S   0  0  0  0  0  0  0  0  0  0  0  0
   37.1840   28.2510   31.8500 C   0  0  0  0  0  0  0  0  0  0  0  0
   38.3330   27.6110   31.5000 C   0  0  0  0  0  0  0  0  0  0  0  0
   38.9700   26.6590   32.2500 C   0  0  0  0  0  0  0  0  0  0  0  0
   38.2650   26.3810   33.5310 C   0  0  0  0  0  0  0  0  0  0  0  0
   36.8160   27.4780   33.5160 S   0  0  0  0  0  0  0  0  0  0  0  0
   38.6920   27.9480   30.5400 H   0  0  0  0  0  0  0  0  0  0  0  0
   39.8750   26.1630   31.9610 H   0  0  0  0  0  0  0  0  0  0  0  0
   39.7980   24.5960   34.2740 C   0  0  0  0  0  3  0  0  0  0  0  0
   38.7220   25.4360   34.4850 C   0  0  0  0  0  0  0  0  0  0  0  0
   37.9910   25.4250   35.6570 C   0  0  0  0  0  0  0  0  0  0  0  0
   37.1420   26.0650   35.8650 H   0  0  0  0  0  0  0  0  0  0  0  0
   38.3100   24.5530   36.7030 C   0  0  0  0  0  0  0  0  0  0  0  0
   37.8070   24.3130   37.9220 N   0  0  0  0  0  0  0  0  0  0  0  0
   38.5420   23.3320   38.5010 C   0  0  0  0  0  0  0  0  0  0  0  0
   38.3610   22.9320   39.4940 H   0  0  0  0  0  0  0  0  0  0  0  0
   39.5040   22.9720   37.6200 N   0  0  0  0  0  0  0  0  0  0  0  0
   39.3840   23.7140   36.4960 C   0  0  0  0  0  0  0  0  0  0  0  0
   40.0970   23.7430   35.3160 C   0  0  0  0  0  3  0  0  0  0  0  0
   36.9870   24.8120   38.3310 H   0  0  0  0  0  0  0  0  0  0  0  0
  1  9  1  0  0  0  0
  2  7  1  0  0  0  0
  2  1  2  0  0  0  0
  3  2  1  0  0  0  0
  4  3  2  0  0  0  0
  4  5  1  0  0  0  0
  5  6  2  0  0  0  0
  6  1  1  0  0  0  0
  8  3  1  0  0  0  0
  9 10  1  0  0  0  0
  9 13  1  0  0  0  0
 10 11  1  0  0  0  0
 11 21  1  0  0  0  0
 11 12  1  0  0  0  0
 11 16  1  1  0  0  0
 12 17  1  0  0  0  0
 13 20  1  0  0  0  0
 13 19  1  0  0  0  0
 13 12  1  0  0  0  0
 14 10  1  0  0  0  0
 15 10  1  0  0  0  0
 18 12  1  0  0  0  0
 21 22  1  0  0  0  0
 21 23  1  0  0  0  0
 24 21  1  0  0  0  0
 25 26  1  0  0  0  0
 25  5  1  0  0  0  0
 26 30  1  0  0  0  0
 27 26  2  0  0  0  0
 27 28  1  0  0  0  0
 28 29  2  0  0  0  0
 29 34  1  0  0  0  0
 30 29  1  0  0  0  0
 31 27  1  0  0  0  0
 32 28  1  0  0  0  0
 33 34  2  0  0  0  0
 33 43  1  0  0  0  0
 34 35  1  0  0  0  0
 35 36  1  0  0  0  0
 35 37  2  0  0  0  0
 37 38  1  0  0  0  0
 38 44  1  0  0  0  0
 38 39  1  0  0  0  0
 39 40  1  0  0  0  0
 41 39  2  0  0  0  0
 42 37  1  0  0  0  0
 42 41  1  0  0  0  0
 43 42  2  0  0  0  0
M  END
>  <minimizedAffinity>
-6.35264301

$$$$

 OpenBabel03272503353D

 44 48  0  0  1  0  0  0  0  0999 V2000
   35.4650   31.3990   33.1860 C   0  0  0  0  0  0  0  0  0  0  0  0
   35.5090   32.1370   32.0030 C   0  0  0  0  0  0  0  0  0  0  0  0
   35.7530   31.4310   30.8220 C   0  0  0  0  0  0  0  0  0  0  0  0
   35.9300   30.0670   30.9190 N   0  0  0  0  0  0  0  0  0  0  0  0
   35.8790   29.4090   32.0770 C   0  0  0  0  0  0  0  0  0  0  0  0
   35.6430   30.0740   33.2280 N   0  0  0  0  0  0  0  0  0  0  0  0
   35.3700   33.1990   31.9290 H   0  0  0  0  0  0  0  0  0  0  0  0
   35.8020   31.9280   29.8690 H   0  0  0  0  0  0  0  0  0  0  0  0
   35.2120   32.1260   34.4080 N   0  0  0  0  0  0  0  0  0  0  0  0
   34.0080   32.8180   34.7610 C   0  0  0  0  0  0  0  0  0  0  0  0
   34.0230   32.7400   36.2860 C   0  0  2  0  0  0  0  0  0  0  0  0
   35.2210   31.8720   36.6550 C   0  0  0  0  0  0  0  0  0  0  0  0
   36.1390   32.2940   35.5170 C   0  0  0  0  0  0  0  0  0  0  0  0
   34.1480   33.8900   34.4840 H   0  0  0  0  0  0  0  0  0  0  0  0
   33.0890   32.3810   34.3380 H   0  0  0  0  0  0  0  0  0  0  0  0
   34.2020   33.7360   36.7350 H   0  0  0  0  0  0  0  0  0  0  0  0
   35.6050   32.1080   37.6480 H   0  0  0  0  0  0  0  0  0  0  0  0
   34.9330   30.8140   36.4950 H   0  0  0  0  0  0  0  0  0  0  0  0
   36.4210   33.3550   35.6550 H   0  0  0  0  0  0  0  0  0  0  0  0
   36.9920   31.5960   35.4850 H   0  0  0  0  0  0  0  0  0  0  0  0
   32.7430   32.1960   36.8460 C   0  0  0  0  0  0  0  0  0  0  0  0
   33.0920   31.3040   37.8370 F   0  0  0  0  0  0  0  0  0  0  0  0
   32.1480   31.4570   35.8410 F   0  0  0  0  0  0  0  0  0  0  0  0
   31.8930   33.1650   37.3050 F   0  0  0  0  0  0  0  0  0  0  0  0
   36.1180   27.6480   32.1270 S   0  0  0  0  0  0  0  0  0  0  0  0
   37.0550   27.0100   33.3690 C   0  0  0  0  0  0  0  0  0  0  0  0
   37.1880   27.0600   34.7230 C   0  0  0  0  0  0  0  0  0  0  0  0
   38.1250   26.3790   35.4520 C   0  0  0  0  0  0  0  0  0  0  0  0
   39.0150   25.5480   34.5980 C   0  0  0  0  0  0  0  0  0  0  0  0
   38.4290   25.8270   32.9000 S   0  0  0  0  0  0  0  0  0  0  0  0
   36.4530   27.7140   35.1640 H   0  0  0  0  0  0  0  0  0  0  0  0
   38.2170   26.4290   36.5190 H   0  0  0  0  0  0  0  0  0  0  0  0
   41.4050   25.0070   34.8910 C   0  0  0  0  0  3  0  0  0  0  0  0
   40.0670   24.7460   35.1130 C   0  0  0  0  0  0  0  0  0  0  0  0
   39.6340   23.6700   35.8620 C   0  0  0  0  0  0  0  0  0  0  0  0
   38.5970   23.4290   36.0620 H   0  0  0  0  0  0  0  0  0  0  0  0
   40.5420   22.7790   36.4440 C   0  0  0  0  0  0  0  0  0  0  0  0
   40.4360   21.6780   37.2010 N   0  0  0  0  0  0  0  0  0  0  0  0
   41.6840   21.2250   37.4710 C   0  0  0  0  0  0  0  0  0  0  0  0
   41.9030   20.3430   38.0670 H   0  0  0  0  0  0  0  0  0  0  0  0
   42.5600   22.0620   36.8700 N   0  0  0  0  0  0  0  0  0  0  0  0
   41.8790   23.0360   36.2250 C   0  0  0  0  0  0  0  0  0  0  0  0
   42.2850   24.1170   35.4710 C   0  0  0  0  0  3  0  0  0  0  0  0
   39.5320   21.2630   37.5140 H   0  0  0  0  0  0  0  0  0  0  0  0
  1  6  1  0  0  0  0
  1  9  1  0  0  0  0
  2  1  2  0  0  0  0
  3  4  2  0  0  0  0
  3  2  1  0  0  0  0
  4  5  1  0  0  0  0
  5 25  1  0  0  0  0
  5  6  2  0  0  0  0
  7  2  1  0  0  0  0
  8  3  1  0  0  0  0
  9 10  1  0  0  0  0
  9 13  1  0  0  0  0
 10 11  1  0  0  0  0
 11 12  1  0  0  0  0
 11 16  1  1  0  0  0
 11 21  1  0  0  0  0
 12 17  1  0  0  0  0
 13 19  1  0  0  0  0
 13 12  1  0  0  0  0
 14 10  1  0  0  0  0
 15 10  1  0  0  0  0
 18 12  1  0  0  0  0
 20 13  1  0  0  0  0
 21 24  1  0  0  0  0
 21 22  1  0  0  0  0
 23 21  1  0  0  0  0
 25 26  1  0  0  0  0
 26 27  2  0  0  0  0
 27 31  1  0  0  0  0
 27 28  1  0  0  0  0
 28 32  1  0  0  0  0
 29 34  1  0  0  0  0
 29 28  2  0  0  0  0
 30 26  1  0  0  0  0
 30 29  1  0  0  0  0
 33 34  2  0  0  0  0
 33 43  1  0  0  0  0
 34 35  1  0  0  0  0
 35 36  1  0  0  0  0
 35 37  2  0  0  0  0
 37 38  1  0  0  0  0
 38 39  1  0  0  0  0
 38 44  1  0  0  0  0
 39 40  1  0  0  0  0
 41 39  2  0  0  0  0
 42 37  1  0  0  0  0
 42 41  1  0  0  0  0
 43 42  2  0  0  0  0
M  END
>  <minimizedAffinity>
-6.32633591

$$$$

 OpenBabel03272503353D

 44 48  0  0  1  0  0  0  0  0999 V2000
   37.3730   22.3770   33.4870 C   0  0  0  0  0  0  0  0  0  0  0  0
   37.7540   21.8660   34.7270 C   0  0  0  0  0  0  0  0  0  0  0  0
   38.5640   22.6770   35.5270 C   0  0  0  0  0  0  0  0  0  0  0  0
   38.9200   23.9130   35.0290 N   0  0  0  0  0  0  0  0  0  0  0  0
   38.5270   24.3540   33.8340 C   0  0  0  0  0  0  0  0  0  0  0  0
   37.7440   23.5840   33.0470 N   0  0  0  0  0  0  0  0  0  0  0  0
   37.4770   20.9040   35.1140 H   0  0  0  0  0  0  0  0  0  0  0  0
   38.9010   22.3560   36.4970 H   0  0  0  0  0  0  0  0  0  0  0  0
   36.5350   21.5410   32.6580 N   0  0  0  0  0  0  0  0  0  0  0  0
   36.5570   21.4550   31.2280 C   0  0  0  0  0  0  0  0  0  0  0  0
   36.0720   20.0290   30.9810 C   0  0  2  0  0  0  0  0  0  0  0  0
   35.9330   19.3830   32.3550 C   0  0  0  0  0  0  0  0  0  0  0  0
   35.5060   20.6240   33.1230 C   0  0  0  0  0  0  0  0  0  0  0  0
   35.7680   22.1430   30.8420 H   0  0  0  0  0  0  0  0  0  0  0  0
   37.5450   21.6360   30.7740 H   0  0  0  0  0  0  0  0  0  0  0  0
   35.0630   20.0230   30.5240 H   0  0  0  0  0  0  0  0  0  0  0  0
   35.1940   18.5820   32.3560 H   0  0  0  0  0  0  0  0  0  0  0  0
   36.9470   19.0960   32.6960 H   0  0  0  0  0  0  0  0  0  0  0  0
   34.4990   20.9330   32.7790 H   0  0  0  0  0  0  0  0  0  0  0  0
   35.5700   20.4030   34.2020 H   0  0  0  0  0  0  0  0  0  0  0  0
   36.9960   19.2550   30.0880 C   0  0  0  0  0  0  0  0  0  0  0  0
   37.7950   20.1790   29.4500 F   0  0  0  0  0  0  0  0  0  0  0  0
   36.2120   18.6690   29.1120 F   0  0  0  0  0  0  0  0  0  0  0  0
   37.7320   18.3120   30.7510 F   0  0  0  0  0  0  0  0  0  0  0  0
   39.0250   25.9590   33.2540 S   0  0  0  0  0  0  0  0  0  0  0  0
   37.8580   27.1670   33.1660 C   0  0  0  0  0  0  0  0  0  0  0  0
   37.2190   27.9520   32.2550 C   0  0  0  0  0  0  0  0  0  0  0  0
   36.2730   28.8970   32.5490 C   0  0  0  0  0  0  0  0  0  0  0  0
   35.9960   28.9870   34.0090 C   0  0  0  0  0  0  0  0  0  0  0  0
   37.0880   27.7500   34.7700 S   0  0  0  0  0  0  0  0  0  0  0  0
   37.5530   27.7390   31.2520 H   0  0  0  0  0  0  0  0  0  0  0  0
   35.7780   29.5080   31.8210 H   0  0  0  0  0  0  0  0  0  0  0  0
   33.7520   30.0070   34.1320 C   0  0  0  0  0  3  0  0  0  0  0  0
   35.0560   29.8890   34.5710 C   0  0  0  0  0  0  0  0  0  0  0  0
   35.5620   30.6500   35.6070 C   0  0  0  0  0  0  0  0  0  0  0  0
   36.5750   30.5910   35.9840 H   0  0  0  0  0  0  0  0  0  0  0  0
   34.7670   31.5890   36.2730 C   0  0  0  0  0  0  0  0  0  0  0  0
   34.9620   32.4500   37.2810 N   0  0  0  0  0  0  0  0  0  0  0  0
   33.8030   33.1200   37.5000 C   0  0  0  0  0  0  0  0  0  0  0  0
   33.6680   33.8830   38.2610 H   0  0  0  0  0  0  0  0  0  0  0  0
   32.8930   32.6590   36.6110 N   0  0  0  0  0  0  0  0  0  0  0  0
   33.4640   31.7090   35.8370 C   0  0  0  0  0  0  0  0  0  0  0  0
   32.9840   30.9380   34.7990 C   0  0  0  0  0  3  0  0  0  0  0  0
   35.8630   32.5630   37.7940 H   0  0  0  0  0  0  0  0  0  0  0  0
  1  2  1  0  0  0  0
  2  7  1  0  0  0  0
  2  3  2  0  0  0  0
  3  8  1  0  0  0  0
  4  3  1  0  0  0  0
  5  4  2  0  0  0  0
  6  1  2  0  0  0  0
  6  5  1  0  0  0  0
  9 13  1  0  0  0  0
  9  1  1  0  0  0  0
 10  9  1  0  0  0  0
 11 16  1  6  0  0  0
 11 10  1  0  0  0  0
 11 12  1  0  0  0  0
 12 17  1  0  0  0  0
 12 18  1  0  0  0  0
 12 13  1  0  0  0  0
 13 20  1  0  0  0  0
 14 10  1  0  0  0  0
 15 10  1  0  0  0  0
 19 13  1  0  0  0  0
 21 24  1  0  0  0  0
 21 11  1  0  0  0  0
 22 21  1  0  0  0  0
 23 21  1  0  0  0  0
 25  5  1  0  0  0  0
 26 25  1  0  0  0  0
 26 30  1  0  0  0  0
 27 28  1  0  0  0  0
 27 26  2  0  0  0  0
 28 29  2  0  0  0  0
 29 34  1  0  0  0  0
 29 30  1  0  0  0  0
 31 27  1  0  0  0  0
 32 28  1  0  0  0  0
 33 34  2  0  0  0  0
 33 43  1  0  0  0  0
 34 35  1  0  0  0  0
 35 36  1  0  0  0  0
 35 37  2  0  0  0  0
 37 38  1  0  0  0  0
 38 39  1  0  0  0  0
 38 44  1  0  0  0  0
 39 40  1  0  0  0  0
 41 39  2  0  0  0  0
 42 37  1  0  0  0  0
 42 41  1  0  0  0  0
 43 42  2  0  0  0  0
M  END
>  <minimizedAffinity>
-6.27100039

$$$$
