
 OpenBabel03272509213D

 49 54  0  0  0  0  0  0  0  0999 V2000
   40.0390   30.9410   44.0800 C   0  0  0  0  0  0  0  0  0  0  0  0
   39.5130   31.7530   45.0730 C   0  0  0  0  0  0  0  0  0  0  0  0
   38.4180   32.5420   44.7630 C   0  0  0  0  0  0  0  0  0  0  0  0
   37.8430   32.5320   43.4890 C   0  0  0  0  0  0  0  0  0  0  0  0
   36.8090   33.1620   42.8980 N   0  0  0  0  0  0  0  0  0  0  0  0
   36.6920   32.7710   41.6180 C   0  0  0  0  0  0  0  0  0  0  0  0
   37.6850   31.8620   41.3880 N   0  0  0  0  0  0  0  0  0  0  0  0
   38.3960   31.7100   42.5330 C   0  0  0  0  0  0  0  0  0  0  0  0
   39.4810   30.9230   42.8230 C   0  0  0  0  0  0  0  0  0  0  0  0
   40.8890   30.3660   44.4160 H   0  0  0  0  0  0  0  0  0  0  0  0
   37.8980   33.2270   45.4340 H   0  0  0  0  0  0  0  0  0  0  0  0
   36.1860   33.8560   43.3670 H   0  0  0  0  0  0  0  0  0  0  0  0
   35.9530   33.1130   40.9130 H   0  0  0  0  0  0  0  0  0  0  0  0
   41.0910   30.3750   40.9700 C   0  0  0  0  0  3  0  0  0  0  0  0
   40.0870   30.0430   41.8270 C   0  0  0  0  0  0  0  0  0  0  0  0
   39.5640   28.7660   41.7850 C   0  0  0  0  0  0  0  0  0  0  0  0
   38.7540   28.4240   42.4440 H   0  0  0  0  0  0  0  0  0  0  0  0
   40.0690   27.8530   40.8770 C   0  0  0  0  0  0  0  0  0  0  0  0
   39.7570   26.5700   40.6200 N   0  0  0  0  0  0  0  0  0  0  0  0
   40.5580   26.1150   39.6160 C   0  0  0  0  0  0  0  0  0  0  0  0
   40.6030   25.1410   39.1400 H   0  0  0  0  0  0  0  0  0  0  0  0
   41.3980   27.1160   39.2190 N   0  0  0  0  0  0  0  0  0  0  0  0
   41.0980   28.1790   39.9900 C   0  0  0  0  0  0  0  0  0  0  0  0
   41.6110   29.4770   40.0520 C   0  0  0  0  0  3  0  0  0  0  0  0
   39.0230   25.9820   41.0950 H   0  0  0  0  0  0  0  0  0  0  0  0
   39.9030   31.9250   46.3680 O   0  0  0  0  0  0  0  0  0  0  0  0
   38.1170   31.3580   47.9050 C   0  0  0  0  0  0  0  0  0  0  0  0
   37.2840   31.5770   48.9880 C   0  0  0  0  0  0  0  0  0  0  0  0
   37.5130   32.7840   49.6550 C   0  0  0  0  0  0  0  0  0  0  0  0
   38.5060   33.6810   49.2450 C   0  0  0  0  0  0  0  0  0  0  0  0
   39.3040   33.3620   48.1230 C   0  0  0  0  0  0  0  0  0  0  0  0
   39.0860   32.1630   47.4500 C   0  0  0  0  0  0  0  0  0  0  0  0
   36.8850   33.0030   50.5140 H   0  0  0  0  0  0  0  0  0  0  0  0
   38.6580   34.6020   49.7820 H   0  0  0  0  0  0  0  0  0  0  0  0
   40.0650   34.0590   47.8170 H   0  0  0  0  0  0  0  0  0  0  0  0
   35.1400   30.4700   48.6310 C   0  0  0  0  0  0  0  0  0  0  0  0
   36.2710   30.6690   49.4110 C   0  0  0  0  0  0  0  0  0  0  0  0
   36.3630   29.9460   50.6130 C   0  0  0  0  0  0  0  0  0  0  0  0
   35.3540   29.1000   50.9450 N   0  0  0  0  0  0  0  0  0  0  0  0
   34.2650   28.9400   50.1460 C   0  0  0  0  0  0  0  0  0  0  0  0
   34.1680   29.6220   49.0010 N   0  0  0  0  0  0  0  0  0  0  0  0
   34.9730   30.9750   47.6920 H   0  0  0  0  0  0  0  0  0  0  0  0
   33.5810   28.2200   50.5950 H   0  0  0  0  0  0  0  0  0  0  0  0
   37.5510   30.1180   51.4910 C   0  0  0  0  0  0  0  0  0  0  0  0
   38.3860   29.4650   51.1700 H   0  0  0  0  0  0  0  0  0  0  0  0
   37.2810   29.8550   52.5360 H   0  0  0  0  0  0  0  0  0  0  0  0
   37.8110   31.1860   51.5030 H   0  0  0  0  0  0  0  0  0  0  0  0
   37.9630   30.1780   47.1740 O   0  0  0  0  0  0  0  0  0  0  0  0
   38.7330   29.5480   47.1580 H   0  0  0  0  0  0  0  0  0  0  0  0
  1 10  1  0  0  0  0
  1  2  1  0  0  0  0
  2 26  1  0  0  0  0
  3  2  2  0  0  0  0
  3 11  1  0  0  0  0
  4  3  1  0  0  0  0
  5 12  1  0  0  0  0
  5  4  1  0  0  0  0
  6  5  1  0  0  0  0
  7  6  2  0  0  0  0
  7  8  1  0  0  0  0
  8  9  1  0  0  0  0
  8  4  2  0  0  0  0
  9  1  2  0  0  0  0
 13  6  1  0  0  0  0
 14 15  1  0  0  0  0
 15  9  1  0  0  0  0
 16 15  2  0  0  0  0
 16 17  1  0  0  0  0
 18 16  1  0  0  0  0
 19 18  1  0  0  0  0
 19 25  1  0  0  0  0
 20 19  1  0  0  0  0
 21 20  1  0  0  0  0
 22 20  2  0  0  0  0
 22 23  1  0  0  0  0
 23 24  1  0  0  0  0
 23 18  2  0  0  0  0
 24 14  2  0  0  0  0
 26 32  1  0  0  0  0
 27 28  1  0  0  0  0
 28 37  1  0  0  0  0
 28 29  2  0  0  0  0
 29 33  1  0  0  0  0
 30 29  1  0  0  0  0
 30 34  1  0  0  0  0
 31 30  2  0  0  0  0
 32 27  2  0  0  0  0
 32 31  1  0  0  0  0
 35 31  1  0  0  0  0
 36 41  2  0  0  0  0
 36 37  1  0  0  0  0
 37 38  2  0  0  0  0
 38 39  1  0  0  0  0
 38 44  1  0  0  0  0
 40 43  1  0  0  0  0
 40 39  2  0  0  0  0
 41 40  1  0  0  0  0
 42 36  1  0  0  0  0
 44 47  1  0  0  0  0
 44 46  1  0  0  0  0
 45 44  1  0  0  0  0
 48 27  1  0  0  0  0
 49 48  1  0  0  0  0
M  END
>  <minimizedAffinity>
-7.92723846

>  <minimizedRMSD>
0.926808596

$$$$
