
 OpenBabel03272505303D

 43 47  0  0  0  0  0  0  0  0999 V2000
   37.3650   31.2560   46.9600 N   0  0  0  0  0  0  0  0  0  0  0  0
   36.6770   31.1010   45.7970 C   0  0  0  0  0  0  0  0  0  0  0  0
   37.1170   31.6640   44.6020 C   0  0  0  0  0  0  0  0  0  0  0  0
   38.2980   32.3960   44.6430 C   0  0  0  0  0  0  0  0  0  0  0  0
   38.7350   32.9240   43.5880 O   0  0  0  0  0  0  0  0  0  0  0  0
   38.9890   32.5520   45.8180 N   0  0  0  0  0  0  0  0  0  0  0  0
   38.4670   31.9680   46.8870 C   0  0  0  0  0  0  0  0  0  0  0  0
   39.1250   32.1310   47.9410 O   0  0  0  0  0  0  0  0  0  0  0  0
   35.7560   30.5250   45.7820 H   0  0  0  0  0  0  0  0  0  0  0  0
   37.3340   29.5090   50.2430 C   0  0  0  0  0  0  0  0  0  0  0  0
   37.7900   30.0830   49.0470 C   0  0  0  0  0  0  0  0  0  0  0  0
   36.9090   30.6860   48.1530 C   0  0  0  0  0  0  0  0  0  0  0  0
   35.6030   30.6970   48.4800 N   0  0  0  0  0  0  0  0  0  0  0  0
   35.1350   30.1480   49.6360 C   0  0  0  0  0  0  0  0  0  0  0  0
   36.0160   29.5570   50.5070 N   0  0  0  0  0  0  0  0  0  0  0  0
   38.0420   29.0580   50.9020 H   0  0  0  0  0  0  0  0  0  0  0  0
   38.8480   30.0350   48.8540 H   0  0  0  0  0  0  0  0  0  0  0  0
   34.0730   30.1850   49.8500 H   0  0  0  0  0  0  0  0  0  0  0  0
   36.4180   31.5250   43.3350 C   0  0  0  0  0  0  0  0  0  0  0  0
   36.5720   30.4630   42.4910 C   0  0  0  0  0  0  0  0  0  0  0  0
   35.9230   30.3110   41.2880 C   0  0  0  0  0  0  0  0  0  0  0  0
   35.0370   31.3180   40.8950 C   0  0  0  0  0  0  0  0  0  0  0  0
   34.9000   32.3810   41.7680 C   0  0  0  0  0  0  0  0  0  0  0  0
   35.5710   32.4540   42.9230 N   0  0  0  0  0  0  0  0  0  0  0  0
   37.2520   29.6540   42.7560 H   0  0  0  0  0  0  0  0  0  0  0  0
   36.0620   29.4560   40.6340 H   0  0  0  0  0  0  0  0  0  0  0  0
   34.5340   31.2070   39.9700 H   0  0  0  0  0  0  0  0  0  0  0  0
   32.6520   33.3460   41.1920 C   0  0  0  0  0  0  0  0  0  0  0  0
   33.9930   33.4740   41.4270 C   0  0  0  0  0  0  0  0  0  0  0  0
   34.4570   34.7740   41.3130 C   0  0  0  0  0  0  0  0  0  0  0  0
   35.5080   34.9880   41.4790 H   0  0  0  0  0  0  0  0  0  0  0  0
   33.6850   35.8750   40.9960 C   0  0  0  0  0  0  0  0  0  0  0  0
   33.9610   37.1830   40.8450 N   0  0  0  0  0  0  0  0  0  0  0  0
   32.7880   37.7910   40.5290 C   0  0  0  0  0  0  0  0  0  0  0  0
   32.6440   38.8660   40.3360 H   0  0  0  0  0  0  0  0  0  0  0  0
   31.7920   36.8600   40.4850 N   0  0  0  0  0  0  0  0  0  0  0  0
   32.3420   35.6710   40.7730 C   0  0  0  0  0  0  0  0  0  0  0  0
   31.8220   34.4000   40.8720 C   0  0  0  0  0  0  0  0  0  0  0  0
   34.9070   37.6380   40.9540 H   0  0  0  0  0  0  0  0  0  0  0  0
   40.2080   33.3150   45.8390 C   0  0  0  0  0  0  0  0  0  0  0  0
   40.2140   34.2620   44.8680 F   0  0  0  0  0  0  0  0  0  0  0  0
   41.3460   32.5410   45.6100 F   0  0  0  0  0  0  0  0  0  0  0  0
   40.3180   33.9500   47.0770 F   0  0  0  0  0  0  0  0  0  0  0  0
  1 12  1  0  0  0  0
  2  1  1  0  0  0  0
  3  4  1  0  0  0  0
  3  2  2  0  0  0  0
  4  6  1  0  0  0  0
  5  4  2  0  0  0  0
  6 40  1  0  0  0  0
  6  7  1  0  0  0  0
  7  1  1  0  0  0  0
  7  8  2  0  0  0  0
  9  2  1  0  0  0  0
 10 15  1  0  0  0  0
 10 16  1  0  0  0  0
 11 10  2  0  0  0  0
 12 13  2  0  0  0  0
 12 11  1  0  0  0  0
 13 14  1  0  0  0  0
 14 18  1  0  0  0  0
 14 15  2  0  0  0  0
 17 11  1  0  0  0  0
 19  3  1  0  0  0  0
 20 25  1  0  0  0  0
 20 19  2  0  0  0  0
 21 20  1  0  0  0  0
 22 21  2  0  0  0  0
 22 23  1  0  0  0  0
 23 24  2  0  0  0  0
 24 19  1  0  0  0  0
 26 21  1  0  0  0  0
 27 22  1  0  0  0  0
 28 29  1  0  0  0  0
 29 23  1  0  0  0  0
 30 29  2  0  0  0  0
 30 31  1  0  0  0  0
 32 30  1  0  0  0  0
 33 39  1  0  0  0  0
 33 32  1  0  0  0  0
 34 33  1  0  0  0  0
 35 34  1  0  0  0  0
 36 34  2  0  0  0  0
 36 37  1  0  0  0  0
 37 38  1  0  0  0  0
 37 32  2  0  0  0  0
 38 28  2  0  0  0  0
 40 43  1  0  0  0  0
 41 40  1  0  0  0  0
 42 40  1  0  0  0  0
M  END
>  <minimizedAffinity>
-7.2401576

>  <minimizedRMSD>
1.16106987

$$$$
