
 OpenBabel03272503093D

 48 53  0  0  0  0  0  0  0  0999 V2000
   38.9260   32.0330   42.5400 C   0  0  0  0  0  0  0  0  0  0  0  0
   39.5790   31.4510   43.5970 C   0  0  0  0  0  0  0  0  0  0  0  0
   40.5860   30.5140   43.4200 C   0  0  0  0  0  0  0  0  0  0  0  0
   40.9510   30.1480   42.1330 C   0  0  0  0  0  0  0  0  0  0  0  0
   41.8660   29.2890   41.6660 N   0  0  0  0  0  0  0  0  0  0  0  0
   41.8020   29.3200   40.3370 C   0  0  0  0  0  0  0  0  0  0  0  0
   40.8470   30.1970   39.9640 N   0  0  0  0  0  0  0  0  0  0  0  0
   40.2860   30.7410   41.0820 C   0  0  0  0  0  0  0  0  0  0  0  0
   39.2860   31.6710   41.2350 C   0  0  0  0  0  0  0  0  0  0  0  0
   38.1430   32.7620   42.6780 H   0  0  0  0  0  0  0  0  0  0  0  0
   41.0720   30.0830   44.2750 H   0  0  0  0  0  0  0  0  0  0  0  0
   42.5080   28.7080   42.2630 H   0  0  0  0  0  0  0  0  0  0  0  0
   42.4430   28.7130   39.7030 H   0  0  0  0  0  0  0  0  0  0  0  0
   38.8540   33.5860   39.6560 C   0  0  0  0  0  3  0  0  0  0  0  0
   38.5950   32.2860   40.1050 C   0  0  0  0  0  0  0  0  0  0  0  0
   37.6220   31.5430   39.4320 C   0  0  0  0  0  0  0  0  0  0  0  0
   37.3560   30.5130   39.7190 H   0  0  0  0  0  0  0  0  0  0  0  0
   36.9300   32.0610   38.3560 C   0  0  0  0  0  0  0  0  0  0  0  0
   35.9740   31.5990   37.5420 N   0  0  0  0  0  0  0  0  0  0  0  0
   35.6520   32.5490   36.6370 C   0  0  0  0  0  0  0  0  0  0  0  0
   34.9220   32.4740   35.8570 H   0  0  0  0  0  0  0  0  0  0  0  0
   36.4070   33.6600   36.8550 N   0  0  0  0  0  0  0  0  0  0  0  0
   37.1820   33.3450   37.9080 C   0  0  0  0  0  0  0  0  0  0  0  0
   38.1560   34.0910   38.5810 C   0  0  0  0  0  3  0  0  0  0  0  0
   35.5750   30.6380   37.6400 H   0  0  0  0  0  0  0  0  0  0  0  0
   39.1710   31.8570   44.9200 C   0  0  0  0  0  0  0  0  0  0  0  0
   38.0880   32.5020   45.0620 O   0  0  0  0  0  0  0  0  0  0  0  0
   39.8930   31.5950   46.1200 N   0  0  0  0  0  0  0  0  0  0  0  0
   40.7720   31.0530   46.0130 H   0  0  0  0  0  0  0  0  0  0  0  0
   38.0630   30.1340   47.4850 F   0  0  0  0  0  0  0  0  0  0  0  0
   38.3510   31.3840   47.9720 C   0  0  0  0  0  0  0  0  0  0  0  0
   37.7080   31.8180   49.1030 C   0  0  0  0  0  0  0  0  0  0  0  0
   38.0470   33.0770   49.5290 C   0  0  0  0  0  0  0  0  0  0  0  0
   38.9580   33.8700   48.8960 C   0  0  0  0  0  0  0  0  0  0  0  0
   39.5810   33.3900   47.7590 C   0  0  0  0  0  0  0  0  0  0  0  0
   39.2730   32.1340   47.2940 C   0  0  0  0  0  0  0  0  0  0  0  0
   37.5500   33.4500   50.4300 H   0  0  0  0  0  0  0  0  0  0  0  0
   39.2210   34.8620   49.2360 H   0  0  0  0  0  0  0  0  0  0  0  0
   40.3160   33.9250   47.1750 H   0  0  0  0  0  0  0  0  0  0  0  0
   36.1050   29.3600   51.4790 C   0  0  0  0  0  0  0  0  0  0  0  0
   37.0410   30.2110   50.8710 C   0  0  0  0  0  0  0  0  0  0  0  0
   36.7450   30.9350   49.7420 C   0  0  0  0  0  0  0  0  0  0  0  0
   35.4900   30.7830   49.2430 N   0  0  0  0  0  0  0  0  0  0  0  0
   34.5870   29.9690   49.8210 C   0  0  0  0  0  0  0  0  0  0  0  0
   34.8880   29.2760   50.9110 N   0  0  0  0  0  0  0  0  0  0  0  0
   36.3860   28.8150   52.3600 H   0  0  0  0  0  0  0  0  0  0  0  0
   38.0200   30.2800   51.3240 H   0  0  0  0  0  0  0  0  0  0  0  0
   33.6490   29.9830   49.2800 H   0  0  0  0  0  0  0  0  0  0  0  0
  1 10  1  0  0  0  0
  1  2  1  0  0  0  0
  2 26  1  0  0  0  0
  3  2  2  0  0  0  0
  3 11  1  0  0  0  0
  4  3  1  0  0  0  0
  5  4  1  0  0  0  0
  5 12  1  0  0  0  0
  6  5  1  0  0  0  0
  7  6  2  0  0  0  0
  7  8  1  0  0  0  0
  8  9  1  0  0  0  0
  8  4  2  0  0  0  0
  9  1  2  0  0  0  0
 13  6  1  0  0  0  0
 14 15  1  0  0  0  0
 15  9  1  0  0  0  0
 16 17  1  0  0  0  0
 16 15  2  0  0  0  0
 18 16  1  0  0  0  0
 19 25  1  0  0  0  0
 19 18  1  0  0  0  0
 20 22  2  0  0  0  0
 20 19  1  0  0  0  0
 21 20  1  0  0  0  0
 22 23  1  0  0  0  0
 23 18  2  0  0  0  0
 23 24  1  0  0  0  0
 24 14  2  0  0  0  0
 26 27  2  0  0  0  0
 26 28  1  0  0  0  0
 28 36  1  0  0  0  0
 29 28  1  0  0  0  0
 30 31  1  0  0  0  0
 31 32  1  0  0  0  0
 32 33  2  0  0  0  0
 32 42  1  0  0  0  0
 33 37  1  0  0  0  0
 34 38  1  0  0  0  0
 34 33  1  0  0  0  0
 35 34  2  0  0  0  0
 36 35  1  0  0  0  0
 36 31  2  0  0  0  0
 39 35  1  0  0  0  0
 40 46  1  0  0  0  0
 41 47  1  0  0  0  0
 41 40  2  0  0  0  0
 42 41  1  0  0  0  0
 43 42  2  0  0  0  0
 43 44  1  0  0  0  0
 44 45  2  0  0  0  0
 45 40  1  0  0  0  0
 48 44  1  0  0  0  0
M  END
>  <minimizedAffinity>
-7.4078393

>  <minimizedRMSD>
0.77680999

$$$$
