
 OpenBabel03272507473D

 49 54  0  0  1  0  0  0  0  0999 V2000
   33.6810   28.9520   46.5860 N   0  0  0  0  0  0  0  0  0  0  0  0
   34.2460   28.3800   47.7600 C   0  0  0  0  0  0  0  0  0  0  0  0
   35.3800   29.1000   48.3780 C   0  0  0  0  0  0  0  0  0  0  0  0
   36.3260   29.7550   47.4790 C   0  0  1  0  0  0  0  0  0  0  0  0
   35.6610   30.2830   46.1960 C   0  0  0  0  0  0  0  0  0  0  0  0
   34.7650   29.1650   45.6500 C   0  0  0  0  0  0  0  0  0  0  0  0
   33.4210   28.2320   48.4940 H   0  0  0  0  0  0  0  0  0  0  0  0
   34.5570   27.3250   47.5050 H   0  0  0  0  0  0  0  0  0  0  0  0
   34.8450   29.9270   48.9540 H   0  0  0  0  0  0  0  0  0  0  0  0
   35.8640   28.4670   49.1390 H   0  0  0  0  0  0  0  0  0  0  0  0
   37.0870   29.0280   47.0980 H   0  0  0  0  0  0  0  0  0  0  0  0
   36.4220   30.4750   45.4190 H   0  0  0  0  0  0  0  0  0  0  0  0
   34.9880   31.1170   46.4120 H   0  0  0  0  0  0  0  0  0  0  0  0
   35.3850   28.2540   45.4810 H   0  0  0  0  0  0  0  0  0  0  0  0
   34.3490   29.4300   44.6710 H   0  0  0  0  0  0  0  0  0  0  0  0
   36.6710   31.3410   49.3210 C   0  0  0  0  0  0  0  0  0  0  0  0
   37.0350   30.9260   48.0520 C   0  0  0  0  0  0  0  0  0  0  0  0
   37.9880   31.5550   47.2950 C   0  0  0  0  0  0  0  0  0  0  0  0
   38.6180   32.6720   47.8380 C   0  0  0  0  0  0  0  0  0  0  0  0
   38.2520   33.0820   49.0960 C   0  0  0  0  0  0  0  0  0  0  0  0
   37.2850   32.4450   49.8690 C   0  0  0  0  0  0  0  0  0  0  0  0
   38.9920   34.2190   49.4690 O   0  0  0  0  0  0  0  0  0  0  0  0
   40.0670   34.2630   48.5350 C   0  0  0  0  0  0  0  0  0  0  0  0
   39.6060   33.5620   47.4060 O   0  0  0  0  0  0  0  0  0  0  0  0
   35.9520   30.9240   50.0130 H   0  0  0  0  0  0  0  0  0  0  0  0
   38.2520   31.2140   46.3200 H   0  0  0  0  0  0  0  0  0  0  0  0
   37.0480   32.8310   50.8640 H   0  0  0  0  0  0  0  0  0  0  0  0
   40.2760   35.3090   48.2060 H   0  0  0  0  0  0  0  0  0  0  0  0
   40.9630   33.7810   48.9850 H   0  0  0  0  0  0  0  0  0  0  0  0
   32.3090   29.2680   46.3330 C   0  0  0  0  0  0  0  0  0  0  0  0
   31.8320   30.1020   45.3270 C   0  0  0  0  0  0  0  0  0  0  0  0
   30.4680   30.2700   45.2340 C   0  0  0  0  0  0  0  0  0  0  0  0
   29.6600   29.6230   46.1160 N   0  0  0  0  0  0  0  0  0  0  0  0
   30.1420   28.8210   47.0820 C   0  0  0  0  0  0  0  0  0  0  0  0
   31.4710   28.6590   47.1720 N   0  0  0  0  0  0  0  0  0  0  0  0
   32.5790   30.5480   44.7020 H   0  0  0  0  0  0  0  0  0  0  0  0
   30.1200   30.9190   44.4470 H   0  0  0  0  0  0  0  0  0  0  0  0
   28.2230   27.3520   47.5010 C   0  0  0  0  0  3  0  0  0  0  0  0
   29.2330   28.1440   48.0110 C   0  0  0  0  0  0  0  0  0  0  0  0
   29.3940   28.3030   49.3790 C   0  0  0  0  0  0  0  0  0  0  0  0
   30.1930   28.9300   49.7600 H   0  0  0  0  0  0  0  0  0  0  0  0
   28.5300   27.6600   50.2420 C   0  0  0  0  0  0  0  0  0  0  0  0
   28.5210   27.6880   51.5870 N   0  0  0  0  0  0  0  0  0  0  0  0
   27.4670   26.8840   51.9170 C   0  0  0  0  0  0  0  0  0  0  0  0
   27.0870   26.6150   52.8830 H   0  0  0  0  0  0  0  0  0  0  0  0
   26.8790   26.4030   50.8250 N   0  0  0  0  0  0  0  0  0  0  0  0
   27.5130   26.8630   49.7570 C   0  0  0  0  0  0  0  0  0  0  0  0
   27.3540   26.7060   48.3770 C   0  0  0  0  0  3  0  0  0  0  0  0
   29.1230   28.1690   52.2920 H   0  0  0  0  0  0  0  0  0  0  0  0
  1  2  1  0  0  0  0
  2  3  1  0  0  0  0
  2  7  1  0  0  0  0
  3  9  1  0  0  0  0
  3 10  1  0  0  0  0
  4 11  1  6  0  0  0
  4 17  1  0  0  0  0
  4  3  1  0  0  0  0
  5 13  1  0  0  0  0
  5  4  1  0  0  0  0
  6  5  1  0  0  0  0
  6  1  1  0  0  0  0
  8  2  1  0  0  0  0
 12  5  1  0  0  0  0
 14  6  1  0  0  0  0
 15  6  1  0  0  0  0
 16 21  1  0  0  0  0
 16 25  1  0  0  0  0
 17 16  2  0  0  0  0
 18 19  2  0  0  0  0
 18 17  1  0  0  0  0
 19 20  1  0  0  0  0
 20 22  1  0  0  0  0
 20 21  2  0  0  0  0
 21 27  1  0  0  0  0
 23 29  1  0  0  0  0
 23 22  1  0  0  0  0
 24 19  1  0  0  0  0
 24 23  1  0  0  0  0
 26 18  1  0  0  0  0
 28 23  1  0  0  0  0
 30  1  1  0  0  0  0
 30 35  1  0  0  0  0
 31 30  2  0  0  0  0
 32 31  1  0  0  0  0
 32 33  2  0  0  0  0
 33 34  1  0  0  0  0
 34 35  2  0  0  0  0
 34 39  1  0  0  0  0
 36 31  1  0  0  0  0
 37 32  1  0  0  0  0
 38 39  2  0  0  0  0
 38 48  1  0  0  0  0
 39 40  1  0  0  0  0
 40 41  1  0  0  0  0
 40 42  2  0  0  0  0
 42 43  1  0  0  0  0
 43 44  1  0  0  0  0
 43 49  1  0  0  0  0
 44 45  1  0  0  0  0
 46 44  2  0  0  0  0
 47 42  1  0  0  0  0
 47 46  1  0  0  0  0
 48 47  2  0  0  0  0
M  END
>  <minimizedAffinity>
-7.04312086

>  <minimizedRMSD>
1.4310379

$$$$
