
 OpenBabel03272510013D

 24 26  0  0  0  0  0  0  0  0999 V2000
   38.2010   31.4630   50.3080 C   0  0  0  0  0  0  0  0  0  0  0  0
   38.5650   31.4950   48.9610 C   0  0  0  0  0  0  0  0  0  0  0  0
   37.7920   30.7740   48.0640 C   0  0  0  0  0  0  0  0  0  0  0  0
   36.7300   30.0800   48.5360 N   0  0  0  0  0  0  0  0  0  0  0  0
   36.4050   30.0710   49.8510 C   0  0  0  0  0  0  0  0  0  0  0  0
   37.1470   30.7660   50.7280 N   0  0  0  0  0  0  0  0  0  0  0  0
   38.8340   32.0410   50.9730 H   0  0  0  0  0  0  0  0  0  0  0  0
   39.4040   32.0470   48.6190 H   0  0  0  0  0  0  0  0  0  0  0  0
   36.9850   30.6740   45.7830 C   0  0  0  0  0  3  0  0  0  0  0  0
   38.0680   30.7280   46.6370 C   0  0  0  0  0  0  0  0  0  0  0  0
   39.3210   30.7330   46.1030 C   0  0  0  0  0  0  0  0  0  0  0  0
   40.1750   30.7730   46.7320 H   0  0  0  0  0  0  0  0  0  0  0  0
   39.5790   30.6890   44.7450 C   0  0  0  0  0  0  0  0  0  0  0  0
   40.7310   30.6870   44.0260 N   0  0  0  0  0  0  0  0  0  0  0  0
   40.3710   30.6320   42.7270 C   0  0  0  0  0  0  0  0  0  0  0  0
   41.1530   30.6210   41.9810 H   0  0  0  0  0  0  0  0  0  0  0  0
   39.0190   30.6010   42.6340 N   0  0  0  0  0  0  0  0  0  0  0  0
   38.4910   30.6350   43.8700 C   0  0  0  0  0  0  0  0  0  0  0  0
   37.2050   30.6280   44.4040 C   0  0  0  0  0  3  0  0  0  0  0  0
   41.7020   30.7210   44.4550 H   0  0  0  0  0  0  0  0  0  0  0  0
   35.2190   29.2750   50.2500 C   0  0  0  0  0  0  0  0  0  0  0  0
   35.2090   29.0090   51.6170 F   0  0  0  0  0  0  0  0  0  0  0  0
   34.0370   29.9540   49.9940 F   0  0  0  0  0  0  0  0  0  0  0  0
   35.1210   28.0670   49.6100 F   0  0  0  0  0  0  0  0  0  0  0  0
  1  6  1  0  0  0  0
  1  7  1  0  0  0  0
  2  1  2  0  0  0  0
  3  4  2  0  0  0  0
  3  2  1  0  0  0  0
  4  5  1  0  0  0  0
  5 21  1  0  0  0  0
  5  6  2  0  0  0  0
  8  2  1  0  0  0  0
  9 10  1  0  0  0  0
 10  3  1  0  0  0  0
 11 10  2  0  0  0  0
 11 12  1  0  0  0  0
 13 11  1  0  0  0  0
 14 20  1  0  0  0  0
 14 13  1  0  0  0  0
 15 14  1  0  0  0  0
 16 15  1  0  0  0  0
 17 15  2  0  0  0  0
 17 18  1  0  0  0  0
 18 19  1  0  0  0  0
 18 13  2  0  0  0  0
 19  9  2  0  0  0  0
 21 22  1  0  0  0  0
 23 21  1  0  0  0  0
 24 21  1  0  0  0  0
M  END
>  <minimizedAffinity>
-6.2887454

>  <minimizedRMSD>
1.9563446

$$$$
