
 OpenBabel03272503343D

 44 48  0  0  1  0  0  0  0  0999 V2000
   35.2700   29.3230   47.8900 C   0  0  0  0  0  0  0  0  0  0  0  0
   35.1510   29.9270   46.6390 C   0  0  0  0  0  0  0  0  0  0  0  0
   34.0490   29.5640   45.8600 C   0  0  0  0  0  0  0  0  0  0  0  0
   33.1710   28.6410   46.3880 N   0  0  0  0  0  0  0  0  0  0  0  0
   33.3320   28.0910   47.5910 C   0  0  0  0  0  0  0  0  0  0  0  0
   34.3910   28.4310   48.3590 N   0  0  0  0  0  0  0  0  0  0  0  0
   35.8340   30.6460   46.2300 H   0  0  0  0  0  0  0  0  0  0  0  0
   33.8850   29.9860   44.8840 H   0  0  0  0  0  0  0  0  0  0  0  0
   36.4080   29.6960   48.6970 N   0  0  0  0  0  0  0  0  0  0  0  0
   37.5480   30.4560   48.2750 C   0  0  0  0  0  0  0  0  0  0  0  0
   37.9900   31.1260   49.5730 C   0  0  2  0  0  0  0  0  0  0  0  0
   36.9440   30.7580   50.6190 C   0  0  0  0  0  0  0  0  0  0  0  0
   36.6130   29.3680   50.1000 C   0  0  0  0  0  0  0  0  0  0  0  0
   38.3440   29.7290   47.9900 H   0  0  0  0  0  0  0  0  0  0  0  0
   37.3360   31.1940   47.4840 H   0  0  0  0  0  0  0  0  0  0  0  0
   38.9540   30.7110   49.9280 H   0  0  0  0  0  0  0  0  0  0  0  0
   37.3560   30.7700   51.6290 H   0  0  0  0  0  0  0  0  0  0  0  0
   36.0620   31.4090   50.4570 H   0  0  0  0  0  0  0  0  0  0  0  0
   37.4930   28.7110   50.2400 H   0  0  0  0  0  0  0  0  0  0  0  0
   35.6990   29.0180   50.6070 H   0  0  0  0  0  0  0  0  0  0  0  0
   38.1430   32.6110   49.4300 C   0  0  0  0  0  0  0  0  0  0  0  0
   37.0030   33.1790   49.9570 F   0  0  0  0  0  0  0  0  0  0  0  0
   38.1320   32.8860   48.0750 F   0  0  0  0  0  0  0  0  0  0  0  0
   39.2770   33.1020   50.0160 F   0  0  0  0  0  0  0  0  0  0  0  0
   32.1590   26.9060   48.2090 S   0  0  0  0  0  0  0  0  0  0  0  0
   30.6960   27.4770   48.8080 C   0  0  0  0  0  0  0  0  0  0  0  0
   29.8920   27.3750   49.9010 C   0  0  0  0  0  0  0  0  0  0  0  0
   28.6880   28.0080   50.0620 C   0  0  0  0  0  0  0  0  0  0  0  0
   28.3290   28.8500   48.8880 C   0  0  0  0  0  0  0  0  0  0  0  0
   29.7110   28.6450   47.7250 S   0  0  0  0  0  0  0  0  0  0  0  0
   30.3220   26.7220   50.6440 H   0  0  0  0  0  0  0  0  0  0  0  0
   28.0650   27.9180   50.9290 H   0  0  0  0  0  0  0  0  0  0  0  0
   25.9290   29.1970   49.3460 C   0  0  0  0  0  0  0  0  0  0  0  0
   27.1320   29.6080   48.8070 C   0  0  0  0  0  0  0  0  0  0  0  0
   27.2740   30.8060   48.1360 C   0  0  0  0  0  0  0  0  0  0  0  0
   28.1970   31.1680   47.6990 H   0  0  0  0  0  0  0  0  0  0  0  0
   26.1910   31.6760   47.9670 C   0  0  0  0  0  0  0  0  0  0  0  0
   26.0180   32.8690   47.3830 N   0  0  0  0  0  0  0  0  0  0  0  0
   24.7210   33.2350   47.5360 C   0  0  0  0  0  0  0  0  0  0  0  0
   24.2940   34.1600   47.1610 H   0  0  0  0  0  0  0  0  0  0  0  0
   24.1000   32.2490   48.2230 N   0  0  0  0  0  0  0  0  0  0  0  0
   24.9890   31.2690   48.5030 C   0  0  0  0  0  0  0  0  0  0  0  0
   24.8730   30.0660   49.1680 C   0  0  0  0  0  0  0  0  0  0  0  0
   26.7710   33.4050   46.8990 H   0  0  0  0  0  0  0  0  0  0  0  0
  1  6  1  0  0  0  0
  1  9  1  0  0  0  0
  2  1  2  0  0  0  0
  3  4  2  0  0  0  0
  3  2  1  0  0  0  0
  4  5  1  0  0  0  0
  5 25  1  0  0  0  0
  5  6  2  0  0  0  0
  7  2  1  0  0  0  0
  8  3  1  0  0  0  0
  9 13  1  0  0  0  0
 10  9  1  0  0  0  0
 10 11  1  0  0  0  0
 11 16  1  1  0  0  0
 11 12  1  0  0  0  0
 12 17  1  0  0  0  0
 13 19  1  0  0  0  0
 13 20  1  0  0  0  0
 13 12  1  0  0  0  0
 14 10  1  0  0  0  0
 15 10  1  0  0  0  0
 18 12  1  0  0  0  0
 21 11  1  0  0  0  0
 21 22  1  0  0  0  0
 21 24  1  0  0  0  0
 23 21  1  0  0  0  0
 25 26  1  0  0  0  0
 26 27  2  0  0  0  0
 27 28  1  0  0  0  0
 27 31  1  0  0  0  0
 28 32  1  0  0  0  0
 29 28  2  0  0  0  0
 30 26  1  0  0  0  0
 30 29  1  0  0  0  0
 34 29  1  0  0  0  0
 34 33  2  0  0  0  0
 35 34  1  0  0  0  0
 36 35  1  0  0  0  0
 37 35  2  0  0  0  0
 37 42  1  0  0  0  0
 38 39  1  0  0  0  0
 38 37  1  0  0  0  0
 39 41  2  0  0  0  0
 40 39  1  0  0  0  0
 41 42  1  0  0  0  0
 42 43  2  0  0  0  0
 43 33  1  0  0  0  0
 44 38  1  0  0  0  0
M  END
>  <minimizedAffinity>
-7.76089144

>  <minimizedRMSD>
0.613290846

$$$$
