
 OpenBabel03272507063D

 34 38  0  0  0  0  0  0  0  0999 V2000
   37.0410   28.2850   31.8630 C   0  0  0  0  0  0  0  0  0  0  0  0
   37.6620   27.1940   32.5160 C   0  0  0  0  0  0  0  0  0  0  0  0
   37.3920   27.0330   33.8830 C   0  0  0  0  0  0  0  0  0  0  0  0
   36.5630   27.9180   34.4990 N   0  0  0  0  0  0  0  0  0  0  0  0
   35.9920   28.9490   33.8310 C   0  0  0  0  0  0  0  0  0  0  0  0
   36.2290   29.1280   32.5290 N   0  0  0  0  0  0  0  0  0  0  0  0
   37.2540   28.4020   30.8110 H   0  0  0  0  0  0  0  0  0  0  0  0
   38.3120   26.5000   32.0330 H   0  0  0  0  0  0  0  0  0  0  0  0
   33.7460   29.8200   34.3030 C   0  0  0  0  0  0  0  0  0  0  0  0
   35.1180   29.8440   34.5780 C   0  0  0  0  0  0  0  0  0  0  0  0
   35.6340   30.6900   35.5300 C   0  0  0  0  0  0  0  0  0  0  0  0
   34.7870   31.5400   36.2340 C   0  0  0  0  0  0  0  0  0  0  0  0
   35.0220   32.4570   37.2060 N   0  0  0  0  0  0  0  0  0  0  0  0
   33.7950   32.9560   37.4860 C   0  0  0  0  0  0  0  0  0  0  0  0
   32.8550   32.3760   36.7270 N   0  0  0  0  0  0  0  0  0  0  0  0
   33.4450   31.4800   35.9290 C   0  0  0  0  0  0  0  0  0  0  0  0
   32.8840   30.6570   34.9930 C   0  0  0  0  0  0  0  0  0  0  0  0
   33.3820   29.1420   33.5500 H   0  0  0  0  0  0  0  0  0  0  0  0
   36.6870   30.7380   35.7710 H   0  0  0  0  0  0  0  0  0  0  0  0
   35.9270   32.7210   37.6380 H   0  0  0  0  0  0  0  0  0  0  0  0
   33.6160   33.7310   38.2380 H   0  0  0  0  0  0  0  0  0  0  0  0
   31.8290   30.6230   34.7650 H   0  0  0  0  0  0  0  0  0  0  0  0
   38.8360   25.0980   34.0960 C   0  0  0  0  0  3  0  0  0  0  0  0
   37.9540   25.9610   34.6940 C   0  0  0  0  0  0  0  0  0  0  0  0
   37.6520   25.7630   36.0230 C   0  0  0  0  0  0  0  0  0  0  0  0
   36.9610   26.4270   36.5190 H   0  0  0  0  0  0  0  0  0  0  0  0
   38.2060   24.7340   36.7540 C   0  0  0  0  0  0  0  0  0  0  0  0
   38.0670   24.3490   38.0370 N   0  0  0  0  0  0  0  0  0  0  0  0
   38.8330   23.2660   38.2760 C   0  0  0  0  0  0  0  0  0  0  0  0
   38.9450   22.7160   39.2040 H   0  0  0  0  0  0  0  0  0  0  0  0
   39.4620   22.9780   37.1090 N   0  0  0  0  0  0  0  0  0  0  0  0
   39.0950   23.8610   36.1620 C   0  0  0  0  0  0  0  0  0  0  0  0
   39.4070   24.0540   34.8160 C   0  0  0  0  0  3  0  0  0  0  0  0
   37.4460   24.8310   38.7400 H   0  0  0  0  0  0  0  0  0  0  0  0
  1  2  2  0  0  0  0
  1  6  1  0  0  0  0
  2  3  1  0  0  0  0
  3  4  2  0  0  0  0
  3 24  1  0  0  0  0
  5  4  1  0  0  0  0
  5 10  1  0  0  0  0
  6  5  2  0  0  0  0
  7  1  1  0  0  0  0
  8  2  1  0  0  0  0
  9 10  2  0  0  0  0
  9 17  1  0  0  0  0
 10 11  1  0  0  0  0
 11 19  1  0  0  0  0
 11 12  2  0  0  0  0
 12 13  1  0  0  0  0
 13 14  1  0  0  0  0
 13 20  1  0  0  0  0
 14 21  1  0  0  0  0
 15 14  2  0  0  0  0
 16 12  1  0  0  0  0
 16 15  1  0  0  0  0
 17 16  2  0  0  0  0
 18  9  1  0  0  0  0
 22 17  1  0  0  0  0
 23 24  2  0  0  0  0
 23 33  1  0  0  0  0
 24 25  1  0  0  0  0
 25 26  1  0  0  0  0
 25 27  2  0  0  0  0
 27 28  1  0  0  0  0
 28 29  1  0  0  0  0
 28 34  1  0  0  0  0
 29 30  1  0  0  0  0
 31 29  2  0  0  0  0
 32 27  1  0  0  0  0
 32 31  1  0  0  0  0
 33 32  2  0  0  0  0
M  END
>  <minimizedAffinity>
-6.56695843

$$$$

 OpenBabel03272507063D

 34 38  0  0  0  0  0  0  0  0999 V2000
   37.1390   28.0300   31.8250 C   0  0  0  0  0  0  0  0  0  0  0  0
   36.2950   28.9950   32.4240 C   0  0  0  0  0  0  0  0  0  0  0  0
   36.0460   28.8600   33.7970 C   0  0  0  0  0  0  0  0  0  0  0  0
   36.6190   27.8280   34.4720 N   0  0  0  0  0  0  0  0  0  0  0  0
   37.4210   26.9260   33.8550 C   0  0  0  0  0  0  0  0  0  0  0  0
   37.6770   27.0280   32.5480 N   0  0  0  0  0  0  0  0  0  0  0  0
   37.3250   28.1400   30.7680 H   0  0  0  0  0  0  0  0  0  0  0  0
   35.8450   29.8060   31.8950 H   0  0  0  0  0  0  0  0  0  0  0  0
   38.8670   24.9520   34.0510 C   0  0  0  0  0  0  0  0  0  0  0  0
   37.9880   25.8540   34.6620 C   0  0  0  0  0  0  0  0  0  0  0  0
   37.6650   25.7360   35.9930 C   0  0  0  0  0  0  0  0  0  0  0  0
   38.2130   24.7060   36.7500 C   0  0  0  0  0  0  0  0  0  0  0  0
   38.0710   24.3610   38.0550 N   0  0  0  0  0  0  0  0  0  0  0  0
   38.8600   23.2700   38.1910 C   0  0  0  0  0  0  0  0  0  0  0  0
   39.4570   22.9600   37.0320 N   0  0  0  0  0  0  0  0  0  0  0  0
   39.0720   23.8440   36.1050 C   0  0  0  0  0  0  0  0  0  0  0  0
   39.4250   23.9200   34.7870 C   0  0  0  0  0  0  0  0  0  0  0  0
   39.0950   25.0800   33.0070 H   0  0  0  0  0  0  0  0  0  0  0  0
   36.9920   26.4120   36.5000 H   0  0  0  0  0  0  0  0  0  0  0  0
   37.4930   24.8210   38.7830 H   0  0  0  0  0  0  0  0  0  0  0  0
   38.9810   22.7270   39.1340 H   0  0  0  0  0  0  0  0  0  0  0  0
   40.1010   23.2340   34.2960 H   0  0  0  0  0  0  0  0  0  0  0  0
   33.8500   29.7460   34.3150 C   0  0  0  0  0  3  0  0  0  0  0  0
   35.2010   29.7720   34.5560 C   0  0  0  0  0  0  0  0  0  0  0  0
   35.6750   30.6570   35.4990 C   0  0  0  0  0  0  0  0  0  0  0  0
   36.7320   30.6980   35.7080 H   0  0  0  0  0  0  0  0  0  0  0  0
   34.8380   31.5040   36.1940 C   0  0  0  0  0  0  0  0  0  0  0  0
   35.0650   32.4330   37.1420 N   0  0  0  0  0  0  0  0  0  0  0  0
   33.9010   33.0020   37.5130 C   0  0  0  0  0  0  0  0  0  0  0  0
   33.7410   33.7810   38.2500 H   0  0  0  0  0  0  0  0  0  0  0  0
   32.9320   32.4060   36.7740 N   0  0  0  0  0  0  0  0  0  0  0  0
   33.4790   31.4850   35.9600 C   0  0  0  0  0  0  0  0  0  0  0  0
   32.9900   30.5930   35.0060 C   0  0  0  0  0  3  0  0  0  0  0  0
   36.0170   32.6720   37.5270 H   0  0  0  0  0  0  0  0  0  0  0  0
  1  2  2  0  0  0  0
  1  6  1  0  0  0  0
  2  3  1  0  0  0  0
  3  4  2  0  0  0  0
  3 24  1  0  0  0  0
  5  4  1  0  0  0  0
  5 10  1  0  0  0  0
  6  5  2  0  0  0  0
  7  1  1  0  0  0  0
  8  2  1  0  0  0  0
  9 10  2  0  0  0  0
  9 17  1  0  0  0  0
 10 11  1  0  0  0  0
 11 19  1  0  0  0  0
 11 12  2  0  0  0  0
 12 13  1  0  0  0  0
 13 14  1  0  0  0  0
 13 20  1  0  0  0  0
 14 21  1  0  0  0  0
 15 14  2  0  0  0  0
 16 12  1  0  0  0  0
 16 15  1  0  0  0  0
 17 16  2  0  0  0  0
 18  9  1  0  0  0  0
 22 17  1  0  0  0  0
 23 24  2  0  0  0  0
 23 33  1  0  0  0  0
 24 25  1  0  0  0  0
 25 26  1  0  0  0  0
 25 27  2  0  0  0  0
 27 28  1  0  0  0  0
 28 29  1  0  0  0  0
 28 34  1  0  0  0  0
 29 30  1  0  0  0  0
 31 29  2  0  0  0  0
 32 27  1  0  0  0  0
 32 31  1  0  0  0  0
 33 32  2  0  0  0  0
M  END
>  <minimizedAffinity>
-6.54230642

$$$$

 OpenBabel03272507063D

 34 38  0  0  0  0  0  0  0  0999 V2000
   36.5860   28.9020   31.7380 C   0  0  0  0  0  0  0  0  0  0  0  0
   37.1160   27.6790   32.2140 C   0  0  0  0  0  0  0  0  0  0  0  0
   36.9490   27.4000   33.5780 C   0  0  0  0  0  0  0  0  0  0  0  0
   36.2970   28.3020   34.3600 N   0  0  0  0  0  0  0  0  0  0  0  0
   35.8070   29.4620   33.8580 C   0  0  0  0  0  0  0  0  0  0  0  0
   35.9500   29.7560   32.5640 N   0  0  0  0  0  0  0  0  0  0  0  0
   36.7190   29.1090   30.6870 H   0  0  0  0  0  0  0  0  0  0  0  0
   37.6270   26.9710   31.6010 H   0  0  0  0  0  0  0  0  0  0  0  0
   35.8980   31.1440   35.6440 C   0  0  0  0  0  0  0  0  0  0  0  0
   35.1250   30.3650   34.7760 C   0  0  0  0  0  0  0  0  0  0  0  0
   33.7530   30.4480   34.7840 C   0  0  0  0  0  0  0  0  0  0  0  0
   33.1170   31.3150   35.6660 C   0  0  0  0  0  0  0  0  0  0  0  0
   31.8050   31.5910   35.8830 N   0  0  0  0  0  0  0  0  0  0  0  0
   31.8260   32.5190   36.8680 C   0  0  0  0  0  0  0  0  0  0  0  0
   33.0840   32.7990   37.2370 N   0  0  0  0  0  0  0  0  0  0  0  0
   33.9190   32.0600   36.5010 C   0  0  0  0  0  0  0  0  0  0  0  0
   35.2850   32.0140   36.5300 C   0  0  0  0  0  0  0  0  0  0  0  0
   36.9700   31.0500   35.6060 H   0  0  0  0  0  0  0  0  0  0  0  0
   33.1210   29.8650   34.1290 H   0  0  0  0  0  0  0  0  0  0  0  0
   30.9750   31.1880   35.4090 H   0  0  0  0  0  0  0  0  0  0  0  0
   30.9230   32.9680   37.2920 H   0  0  0  0  0  0  0  0  0  0  0  0
   35.9010   32.6050   37.1930 H   0  0  0  0  0  0  0  0  0  0  0  0
   37.8160   25.1420   33.4090 C   0  0  0  0  0  3  0  0  0  0  0  0
   37.4370   26.1850   34.2170 C   0  0  0  0  0  0  0  0  0  0  0  0
   37.5390   26.0210   35.5800 C   0  0  0  0  0  0  0  0  0  0  0  0
   37.2470   26.8240   36.2380 H   0  0  0  0  0  0  0  0  0  0  0  0
   38.0050   24.8520   36.1440 C   0  0  0  0  0  0  0  0  0  0  0  0
   38.1910   24.4670   37.4210 N   0  0  0  0  0  0  0  0  0  0  0  0
   38.6780   23.2100   37.4530 C   0  0  0  0  0  0  0  0  0  0  0  0
   38.9330   22.6130   38.3220 H   0  0  0  0  0  0  0  0  0  0  0  0
   38.7950   22.8120   36.1620 N   0  0  0  0  0  0  0  0  0  0  0  0
   38.3910   23.7990   35.3420 C   0  0  0  0  0  0  0  0  0  0  0  0
   38.2900   23.9560   33.9590 C   0  0  0  0  0  3  0  0  0  0  0  0
   37.9820   25.0680   38.2620 H   0  0  0  0  0  0  0  0  0  0  0  0
  1  2  2  0  0  0  0
  1  6  1  0  0  0  0
  2  3  1  0  0  0  0
  3 24  1  0  0  0  0
  3  4  2  0  0  0  0
  5  4  1  0  0  0  0
  5 10  1  0  0  0  0
  6  5  2  0  0  0  0
  7  1  1  0  0  0  0
  8  2  1  0  0  0  0
  9 17  1  0  0  0  0
 10 11  1  0  0  0  0
 10  9  2  0  0  0  0
 11 12  2  0  0  0  0
 12 13  1  0  0  0  0
 12 16  1  0  0  0  0
 13 14  1  0  0  0  0
 14 15  2  0  0  0  0
 14 21  1  0  0  0  0
 16 17  2  0  0  0  0
 16 15  1  0  0  0  0
 17 22  1  0  0  0  0
 18  9  1  0  0  0  0
 19 11  1  0  0  0  0
 20 13  1  0  0  0  0
 23 33  2  0  0  0  0
 23 24  1  0  0  0  0
 24 25  2  0  0  0  0
 25 27  1  0  0  0  0
 25 26  1  0  0  0  0
 27 28  1  0  0  0  0
 28 29  1  0  0  0  0
 28 34  1  0  0  0  0
 29 30  1  0  0  0  0
 31 29  2  0  0  0  0
 32 27  2  0  0  0  0
 32 31  1  0  0  0  0
 33 32  1  0  0  0  0
M  END
>  <minimizedAffinity>
-6.39945507

$$$$

 OpenBabel03272507063D

 34 38  0  0  0  0  0  0  0  0999 V2000
   38.4420   27.4040   31.5170 C   0  0  0  0  0  0  0  0  0  0  0  0
   37.3350   28.2610   31.7190 C   0  0  0  0  0  0  0  0  0  0  0  0
   36.6530   28.1450   32.9390 C   0  0  0  0  0  0  0  0  0  0  0  0
   37.0830   27.2300   33.8490 N   0  0  0  0  0  0  0  0  0  0  0  0
   38.1500   26.4290   33.6100 C   0  0  0  0  0  0  0  0  0  0  0  0
   38.8200   26.5170   32.4590 N   0  0  0  0  0  0  0  0  0  0  0  0
   38.9620   27.5000   30.5760 H   0  0  0  0  0  0  0  0  0  0  0  0
   36.9970   28.9790   31.0050 H   0  0  0  0  0  0  0  0  0  0  0  0
   39.5530   24.5630   34.3670 C   0  0  0  0  0  0  0  0  0  0  0  0
   38.5340   25.4800   34.6470 C   0  0  0  0  0  0  0  0  0  0  0  0
   37.9070   25.4890   35.8700 C   0  0  0  0  0  0  0  0  0  0  0  0
   38.2840   24.5760   36.8480 C   0  0  0  0  0  0  0  0  0  0  0  0
   37.8440   24.3670   38.1150 N   0  0  0  0  0  0  0  0  0  0  0  0
   38.6040   23.3380   38.5580 C   0  0  0  0  0  0  0  0  0  0  0  0
   39.4660   22.9360   37.6140 N   0  0  0  0  0  0  0  0  0  0  0  0
   39.2920   23.6940   36.5270 C   0  0  0  0  0  0  0  0  0  0  0  0
   39.9460   23.6460   35.3270 C   0  0  0  0  0  0  0  0  0  0  0  0
   40.0200   24.5890   33.3970 H   0  0  0  0  0  0  0  0  0  0  0  0
   37.1170   26.1810   36.1240 H   0  0  0  0  0  0  0  0  0  0  0  0
   37.0990   24.8720   38.6310 H   0  0  0  0  0  0  0  0  0  0  0  0
   38.5100   22.9060   39.5590 H   0  0  0  0  0  0  0  0  0  0  0  0
   40.7340   22.9460   35.0910 H   0  0  0  0  0  0  0  0  0  0  0  0
   35.5660   29.7050   34.4430 C   0  0  0  0  0  3  0  0  0  0  0  0
   35.4960   28.9550   33.2950 C   0  0  0  0  0  0  0  0  0  0  0  0
   34.3390   29.0140   32.5510 C   0  0  0  0  0  0  0  0  0  0  0  0
   34.2570   28.4340   31.6450 H   0  0  0  0  0  0  0  0  0  0  0  0
   33.2660   29.7940   32.9260 C   0  0  0  0  0  0  0  0  0  0  0  0
   32.0570   30.0090   32.3730 N   0  0  0  0  0  0  0  0  0  0  0  0
   31.3530   30.8720   33.1320 C   0  0  0  0  0  0  0  0  0  0  0  0
   30.3500   31.2470   32.9630 H   0  0  0  0  0  0  0  0  0  0  0  0
   32.1500   31.1980   34.1790 N   0  0  0  0  0  0  0  0  0  0  0  0
   33.3260   30.5520   34.0770 C   0  0  0  0  0  0  0  0  0  0  0  0
   34.4940   30.4990   34.8370 C   0  0  0  0  0  3  0  0  0  0  0  0
   31.7220   29.5600   31.4790 H   0  0  0  0  0  0  0  0  0  0  0  0
  1  2  2  0  0  0  0
  1  6  1  0  0  0  0
  2  3  1  0  0  0  0
  3 24  1  0  0  0  0
  3  4  2  0  0  0  0
  5  4  1  0  0  0  0
  5 10  1  0  0  0  0
  6  5  2  0  0  0  0
  7  1  1  0  0  0  0
  8  2  1  0  0  0  0
  9 10  2  0  0  0  0
  9 17  1  0  0  0  0
 10 11  1  0  0  0  0
 11 19  1  0  0  0  0
 11 12  2  0  0  0  0
 12 13  1  0  0  0  0
 13 14  1  0  0  0  0
 13 20  1  0  0  0  0
 14 21  1  0  0  0  0
 15 14  2  0  0  0  0
 16 12  1  0  0  0  0
 16 15  1  0  0  0  0
 17 16  2  0  0  0  0
 18  9  1  0  0  0  0
 22 17  1  0  0  0  0
 23 33  1  0  0  0  0
 24 23  2  0  0  0  0
 25 27  2  0  0  0  0
 25 24  1  0  0  0  0
 26 25  1  0  0  0  0
 27 32  1  0  0  0  0
 28 27  1  0  0  0  0
 28 29  1  0  0  0  0
 29 31  2  0  0  0  0
 30 29  1  0  0  0  0
 32 31  1  0  0  0  0
 32 33  2  0  0  0  0
 34 28  1  0  0  0  0
M  END
>  <minimizedAffinity>
-6.18573236

$$$$

 OpenBabel03272507063D

 34 38  0  0  0  0  0  0  0  0999 V2000
   36.6950   28.7560   31.7610 C   0  0  0  0  0  0  0  0  0  0  0  0
   35.9900   29.7330   32.5030 C   0  0  0  0  0  0  0  0  0  0  0  0
   35.8210   29.4930   33.8740 C   0  0  0  0  0  0  0  0  0  0  0  0
   36.3350   28.3540   34.4110 N   0  0  0  0  0  0  0  0  0  0  0  0
   37.0030   27.4460   33.6590 C   0  0  0  0  0  0  0  0  0  0  0  0
   37.1800   27.6460   32.3510 N   0  0  0  0  0  0  0  0  0  0  0  0
   36.8200   28.9490   30.7060 H   0  0  0  0  0  0  0  0  0  0  0  0
   35.5860   30.6270   32.0820 H   0  0  0  0  0  0  0  0  0  0  0  0
   37.7790   26.3210   35.6980 C   0  0  0  0  0  0  0  0  0  0  0  0
   37.5170   26.2560   34.3250 C   0  0  0  0  0  0  0  0  0  0  0  0
   37.7360   25.0980   33.6170 C   0  0  0  0  0  0  0  0  0  0  0  0
   38.2270   23.9710   34.2670 C   0  0  0  0  0  0  0  0  0  0  0  0
   38.5290   22.7240   33.8230 N   0  0  0  0  0  0  0  0  0  0  0  0
   38.9620   22.0800   34.9320 C   0  0  0  0  0  0  0  0  0  0  0  0
   38.9280   22.8880   36.0020 N   0  0  0  0  0  0  0  0  0  0  0  0
   38.4700   24.0840   35.6180 C   0  0  0  0  0  0  0  0  0  0  0  0
   38.2680   25.2100   36.3660 C   0  0  0  0  0  0  0  0  0  0  0  0
   37.5930   27.2460   36.2170 H   0  0  0  0  0  0  0  0  0  0  0  0
   37.5450   25.0090   32.5570 H   0  0  0  0  0  0  0  0  0  0  0  0
   38.4500   22.3470   32.8610 H   0  0  0  0  0  0  0  0  0  0  0  0
   39.2920   21.0370   34.9330 H   0  0  0  0  0  0  0  0  0  0  0  0
   38.4650   25.2810   37.4260 H   0  0  0  0  0  0  0  0  0  0  0  0
   35.8700   31.1490   35.6440 C   0  0  0  0  0  3  0  0  0  0  0  0
   35.1200   30.4010   34.7710 C   0  0  0  0  0  0  0  0  0  0  0  0
   33.7520   30.5540   34.7960 C   0  0  0  0  0  0  0  0  0  0  0  0
   33.1370   29.9790   34.1220 H   0  0  0  0  0  0  0  0  0  0  0  0
   33.1280   31.4260   35.6640 C   0  0  0  0  0  0  0  0  0  0  0  0
   31.8340   31.7400   35.8670 N   0  0  0  0  0  0  0  0  0  0  0  0
   31.7360   32.6650   36.8420 C   0  0  0  0  0  0  0  0  0  0  0  0
   30.8380   33.1240   37.2420 H   0  0  0  0  0  0  0  0  0  0  0  0
   33.0030   32.9280   37.2490 N   0  0  0  0  0  0  0  0  0  0  0  0
   33.8730   32.1830   36.5430 C   0  0  0  0  0  0  0  0  0  0  0  0
   35.2600   32.0340   36.5260 C   0  0  0  0  0  3  0  0  0  0  0  0
   31.0270   31.3170   35.3360 H   0  0  0  0  0  0  0  0  0  0  0  0
  1  6  2  0  0  0  0
  1  2  1  0  0  0  0
  2  3  2  0  0  0  0
  3  4  1  0  0  0  0
  3 24  1  0  0  0  0
  5 10  1  0  0  0  0
  5  4  2  0  0  0  0
  6  5  1  0  0  0  0
  7  1  1  0  0  0  0
  8  2  1  0  0  0  0
  9 18  1  0  0  0  0
  9 17  1  0  0  0  0
 10  9  2  0  0  0  0
 11 12  2  0  0  0  0
 11 10  1  0  0  0  0
 12 16  1  0  0  0  0
 13 12  1  0  0  0  0
 13 14  1  0  0  0  0
 14 21  1  0  0  0  0
 14 15  2  0  0  0  0
 16 15  1  0  0  0  0
 16 17  2  0  0  0  0
 17 22  1  0  0  0  0
 19 11  1  0  0  0  0
 20 13  1  0  0  0  0
 23 33  1  0  0  0  0
 24 25  1  0  0  0  0
 24 23  2  0  0  0  0
 25 27  2  0  0  0  0
 26 25  1  0  0  0  0
 27 28  1  0  0  0  0
 27 32  1  0  0  0  0
 28 29  1  0  0  0  0
 29 30  1  0  0  0  0
 29 31  2  0  0  0  0
 32 31  1  0  0  0  0
 33 32  2  0  0  0  0
 34 28  1  0  0  0  0
M  END
>  <minimizedAffinity>
-6.17810488

$$$$

 OpenBabel03272507063D

 34 38  0  0  0  0  0  0  0  0999 V2000
   35.9900   28.3270   31.3110 C   0  0  0  0  0  0  0  0  0  0  0  0
   37.0440   27.4760   31.7190 C   0  0  0  0  0  0  0  0  0  0  0  0
   37.3530   27.4530   33.0860 C   0  0  0  0  0  0  0  0  0  0  0  0
   36.6360   28.2370   33.9360 N   0  0  0  0  0  0  0  0  0  0  0  0
   35.6350   29.0380   33.4980 C   0  0  0  0  0  0  0  0  0  0  0  0
   35.3170   29.0810   32.2030 N   0  0  0  0  0  0  0  0  0  0  0  0
   35.7590   28.3390   30.2570 H   0  0  0  0  0  0  0  0  0  0  0  0
   37.6060   26.8600   31.0520 H   0  0  0  0  0  0  0  0  0  0  0  0
   33.5860   29.5370   34.7550 C   0  0  0  0  0  0  0  0  0  0  0  0
   34.9250   29.8420   34.4850 C   0  0  0  0  0  0  0  0  0  0  0  0
   35.5600   30.8730   35.1340 C   0  0  0  0  0  0  0  0  0  0  0  0
   34.8690   31.6320   36.0730 C   0  0  0  0  0  0  0  0  0  0  0  0
   35.2420   32.6840   36.8450 N   0  0  0  0  0  0  0  0  0  0  0  0
   34.1250   32.9820   37.5510 C   0  0  0  0  0  0  0  0  0  0  0  0
   33.1190   32.1550   37.2300 N   0  0  0  0  0  0  0  0  0  0  0  0
   33.5540   31.2950   36.3040 C   0  0  0  0  0  0  0  0  0  0  0  0
   32.8780   30.2790   35.6870 C   0  0  0  0  0  0  0  0  0  0  0  0
   33.1250   28.7210   34.2260 H   0  0  0  0  0  0  0  0  0  0  0  0
   36.5920   31.1390   34.9540 H   0  0  0  0  0  0  0  0  0  0  0  0
   36.1640   33.1560   36.8890 H   0  0  0  0  0  0  0  0  0  0  0  0
   34.0730   33.7940   38.2820 H   0  0  0  0  0  0  0  0  0  0  0  0
   31.8450   30.0280   35.8800 H   0  0  0  0  0  0  0  0  0  0  0  0
   38.0910   25.3480   34.0360 C   0  0  0  0  0  3  0  0  0  0  0  0
   38.4080   26.6300   33.6610 C   0  0  0  0  0  0  0  0  0  0  0  0
   39.7030   27.0600   33.8500 C   0  0  0  0  0  0  0  0  0  0  0  0
   39.9790   28.0630   33.5650 H   0  0  0  0  0  0  0  0  0  0  0  0
   40.6720   26.2470   34.3990 C   0  0  0  0  0  0  0  0  0  0  0  0
   41.9760   26.4410   34.6740 N   0  0  0  0  0  0  0  0  0  0  0  0
   42.5000   25.3230   35.2130 C   0  0  0  0  0  0  0  0  0  0  0  0
   43.5190   25.1540   35.5440 H   0  0  0  0  0  0  0  0  0  0  0  0
   41.4930   24.4170   35.2700 N   0  0  0  0  0  0  0  0  0  0  0  0
   40.3640   24.9570   34.7770 C   0  0  0  0  0  0  0  0  0  0  0  0
   39.0550   24.5130   34.5900 C   0  0  0  0  0  3  0  0  0  0  0  0
   42.4960   27.3400   34.4910 H   0  0  0  0  0  0  0  0  0  0  0  0
  1  2  2  0  0  0  0
  1  6  1  0  0  0  0
  2  3  1  0  0  0  0
  3 24  1  0  0  0  0
  3  4  2  0  0  0  0
  5  4  1  0  0  0  0
  5 10  1  0  0  0  0
  6  5  2  0  0  0  0
  7  1  1  0  0  0  0
  8  2  1  0  0  0  0
  9 17  1  0  0  0  0
 10  9  2  0  0  0  0
 10 11  1  0  0  0  0
 11 12  2  0  0  0  0
 12 16  1  0  0  0  0
 12 13  1  0  0  0  0
 13 20  1  0  0  0  0
 13 14  1  0  0  0  0
 14 21  1  0  0  0  0
 15 14  2  0  0  0  0
 16 15  1  0  0  0  0
 17 22  1  0  0  0  0
 17 16  2  0  0  0  0
 18  9  1  0  0  0  0
 19 11  1  0  0  0  0
 23 33  1  0  0  0  0
 24 25  1  0  0  0  0
 24 23  2  0  0  0  0
 25 27  2  0  0  0  0
 26 25  1  0  0  0  0
 27 28  1  0  0  0  0
 27 32  1  0  0  0  0
 28 29  1  0  0  0  0
 29 31  2  0  0  0  0
 29 30  1  0  0  0  0
 32 31  1  0  0  0  0
 33 32  2  0  0  0  0
 34 28  1  0  0  0  0
M  END
>  <minimizedAffinity>
-5.99009848

$$$$

 OpenBabel03272507063D

 34 38  0  0  0  0  0  0  0  0999 V2000
   36.8910   25.4590   31.3130 C   0  0  0  0  0  0  0  0  0  0  0  0
   37.4760   24.6910   32.3470 C   0  0  0  0  0  0  0  0  0  0  0  0
   37.6320   25.3150   33.5940 C   0  0  0  0  0  0  0  0  0  0  0  0
   37.2200   26.6030   33.7410 N   0  0  0  0  0  0  0  0  0  0  0  0
   36.6650   27.2990   32.7200 C   0  0  0  0  0  0  0  0  0  0  0  0
   36.5030   26.7330   31.5220 N   0  0  0  0  0  0  0  0  0  0  0  0
   36.7750   24.9720   30.3570 H   0  0  0  0  0  0  0  0  0  0  0  0
   37.8000   23.6810   32.2320 H   0  0  0  0  0  0  0  0  0  0  0  0
   36.2640   29.5820   31.9100 C   0  0  0  0  0  0  0  0  0  0  0  0
   36.2560   28.6740   32.9760 C   0  0  0  0  0  0  0  0  0  0  0  0
   35.8700   29.0650   34.2350 C   0  0  0  0  0  0  0  0  0  0  0  0
   35.4840   30.3820   34.4630 C   0  0  0  0  0  0  0  0  0  0  0  0
   35.0650   31.0250   35.5830 N   0  0  0  0  0  0  0  0  0  0  0  0
   34.8370   32.2920   35.1640 C   0  0  0  0  0  0  0  0  0  0  0  0
   35.1000   32.4200   33.8560 N   0  0  0  0  0  0  0  0  0  0  0  0
   35.5080   31.2380   33.3850 C   0  0  0  0  0  0  0  0  0  0  0  0
   35.8820   30.8970   32.1150 C   0  0  0  0  0  0  0  0  0  0  0  0
   36.5720   29.2350   30.9380 H   0  0  0  0  0  0  0  0  0  0  0  0
   35.8500   28.3950   35.0820 H   0  0  0  0  0  0  0  0  0  0  0  0
   34.9470   30.6430   36.5400 H   0  0  0  0  0  0  0  0  0  0  0  0
   34.4840   33.0910   35.8230 H   0  0  0  0  0  0  0  0  0  0  0  0
   35.8960   31.5820   31.2790 H   0  0  0  0  0  0  0  0  0  0  0  0
   37.7660   25.0320   35.9980 C   0  0  0  0  0  3  0  0  0  0  0  0
   38.2160   24.6590   34.7560 C   0  0  0  0  0  0  0  0  0  0  0  0
   39.1910   23.6890   34.6830 C   0  0  0  0  0  0  0  0  0  0  0  0
   39.5640   23.3780   33.7190 H   0  0  0  0  0  0  0  0  0  0  0  0
   39.7180   23.0940   35.8100 C   0  0  0  0  0  0  0  0  0  0  0  0
   40.6570   22.1440   35.9840 N   0  0  0  0  0  0  0  0  0  0  0  0
   40.8200   21.9000   37.3000 C   0  0  0  0  0  0  0  0  0  0  0  0
   41.4960   21.1950   37.7710 H   0  0  0  0  0  0  0  0  0  0  0  0
   39.9580   22.7200   37.9510 N   0  0  0  0  0  0  0  0  0  0  0  0
   39.2720   23.4600   37.0620 C   0  0  0  0  0  0  0  0  0  0  0  0
   38.2840   24.4420   37.1460 C   0  0  0  0  0  3  0  0  0  0  0  0
   41.1800   21.6720   35.2010 H   0  0  0  0  0  0  0  0  0  0  0  0
  1  6  2  0  0  0  0
  1  2  1  0  0  0  0
  2  3  2  0  0  0  0
  3  4  1  0  0  0  0
  3 24  1  0  0  0  0
  5 10  1  0  0  0  0
  5  4  2  0  0  0  0
  6  5  1  0  0  0  0
  7  1  1  0  0  0  0
  8  2  1  0  0  0  0
  9 17  2  0  0  0  0
  9 10  1  0  0  0  0
 10 11  2  0  0  0  0
 11 12  1  0  0  0  0
 11 19  1  0  0  0  0
 12 13  1  0  0  0  0
 13 20  1  0  0  0  0
 14 13  1  0  0  0  0
 14 21  1  0  0  0  0
 15 14  2  0  0  0  0
 16 15  1  0  0  0  0
 16 12  2  0  0  0  0
 17 16  1  0  0  0  0
 18  9  1  0  0  0  0
 22 17  1  0  0  0  0
 23 33  1  0  0  0  0
 24 23  2  0  0  0  0
 25 24  1  0  0  0  0
 25 27  2  0  0  0  0
 26 25  1  0  0  0  0
 27 28  1  0  0  0  0
 27 32  1  0  0  0  0
 28 29  1  0  0  0  0
 29 30  1  0  0  0  0
 29 31  2  0  0  0  0
 32 33  2  0  0  0  0
 32 31  1  0  0  0  0
 34 28  1  0  0  0  0
M  END
>  <minimizedAffinity>
-5.98464727

$$$$

 OpenBabel03272507063D

 34 38  0  0  0  0  0  0  0  0999 V2000
   36.9300   24.4630   31.1430 C   0  0  0  0  0  0  0  0  0  0  0  0
   37.5830   23.8210   32.2220 C   0  0  0  0  0  0  0  0  0  0  0  0
   37.7730   24.5730   33.3900 C   0  0  0  0  0  0  0  0  0  0  0  0
   37.3270   25.8570   33.4260 N   0  0  0  0  0  0  0  0  0  0  0  0
   36.7070   26.4300   32.3660 C   0  0  0  0  0  0  0  0  0  0  0  0
   36.5110   25.7400   31.2400 N   0  0  0  0  0  0  0  0  0  0  0  0
   36.7880   23.8770   30.2470 H   0  0  0  0  0  0  0  0  0  0  0  0
   37.9330   22.8130   32.1940 H   0  0  0  0  0  0  0  0  0  0  0  0
   36.1810   28.3630   33.7850 C   0  0  0  0  0  0  0  0  0  0  0  0
   36.2660   27.8120   32.5010 C   0  0  0  0  0  0  0  0  0  0  0  0
   35.9420   28.5540   31.3910 C   0  0  0  0  0  0  0  0  0  0  0  0
   35.5210   29.8710   31.5360 C   0  0  0  0  0  0  0  0  0  0  0  0
   35.1470   30.8120   30.6310 N   0  0  0  0  0  0  0  0  0  0  0  0
   34.8500   31.8930   31.3900 C   0  0  0  0  0  0  0  0  0  0  0  0
   35.0310   31.6310   32.6920 N   0  0  0  0  0  0  0  0  0  0  0  0
   35.4530   30.3690   32.8180 C   0  0  0  0  0  0  0  0  0  0  0  0
   35.7650   29.6730   33.9530 C   0  0  0  0  0  0  0  0  0  0  0  0
   36.4440   27.7480   34.6290 H   0  0  0  0  0  0  0  0  0  0  0  0
   35.9950   28.1650   30.3840 H   0  0  0  0  0  0  0  0  0  0  0  0
   35.0980   30.7290   29.5990 H   0  0  0  0  0  0  0  0  0  0  0  0
   34.5070   32.8450   30.9740 H   0  0  0  0  0  0  0  0  0  0  0  0
   35.7050   30.0790   34.9530 H   0  0  0  0  0  0  0  0  0  0  0  0
   37.9820   24.4990   35.8050 C   0  0  0  0  0  3  0  0  0  0  0  0
   38.4270   24.0540   34.5850 C   0  0  0  0  0  0  0  0  0  0  0  0
   39.4630   23.1480   34.5620 C   0  0  0  0  0  0  0  0  0  0  0  0
   39.8320   22.7820   33.6170 H   0  0  0  0  0  0  0  0  0  0  0  0
   40.0540   22.6830   35.7180 C   0  0  0  0  0  0  0  0  0  0  0  0
   41.0590   21.8140   35.9420 N   0  0  0  0  0  0  0  0  0  0  0  0
   41.2680   21.6910   37.2680 C   0  0  0  0  0  0  0  0  0  0  0  0
   42.0020   21.0730   37.7750 H   0  0  0  0  0  0  0  0  0  0  0  0
   40.3690   22.5040   37.8750 N   0  0  0  0  0  0  0  0  0  0  0  0
   39.6140   23.1220   36.9490 C   0  0  0  0  0  0  0  0  0  0  0  0
   38.5650   24.0420   36.9820 C   0  0  0  0  0  3  0  0  0  0  0  0
   41.5940   21.3130   35.1850 H   0  0  0  0  0  0  0  0  0  0  0  0
  1  6  2  0  0  0  0
  1  2  1  0  0  0  0
  2  3  2  0  0  0  0
  3  4  1  0  0  0  0
  3 24  1  0  0  0  0
  5 10  1  0  0  0  0
  5  4  2  0  0  0  0
  6  5  1  0  0  0  0
  7  1  1  0  0  0  0
  8  2  1  0  0  0  0
  9 17  1  0  0  0  0
  9 18  1  0  0  0  0
 10  9  2  0  0  0  0
 11 12  2  0  0  0  0
 11 10  1  0  0  0  0
 12 16  1  0  0  0  0
 13 14  1  0  0  0  0
 13 12  1  0  0  0  0
 14 15  2  0  0  0  0
 15 16  1  0  0  0  0
 16 17  2  0  0  0  0
 17 22  1  0  0  0  0
 19 11  1  0  0  0  0
 20 13  1  0  0  0  0
 21 14  1  0  0  0  0
 23 33  1  0  0  0  0
 24 23  2  0  0  0  0
 25 24  1  0  0  0  0
 25 27  2  0  0  0  0
 26 25  1  0  0  0  0
 27 28  1  0  0  0  0
 27 32  1  0  0  0  0
 28 29  1  0  0  0  0
 29 30  1  0  0  0  0
 29 31  2  0  0  0  0
 32 33  2  0  0  0  0
 32 31  1  0  0  0  0
 34 28  1  0  0  0  0
M  END
>  <minimizedAffinity>
-5.97110367

$$$$

 OpenBabel03272507063D

 34 38  0  0  0  0  0  0  0  0999 V2000
   37.5140   24.7860   31.1560 C   0  0  0  0  0  0  0  0  0  0  0  0
   36.9150   26.0680   31.1430 C   0  0  0  0  0  0  0  0  0  0  0  0
   36.8270   26.7420   32.3690 C   0  0  0  0  0  0  0  0  0  0  0  0
   37.3130   26.1410   33.4880 N   0  0  0  0  0  0  0  0  0  0  0  0
   37.8790   24.9100   33.4510 C   0  0  0  0  0  0  0  0  0  0  0  0
   37.9770   24.2430   32.2990 N   0  0  0  0  0  0  0  0  0  0  0  0
   37.5780   24.2730   30.2080 H   0  0  0  0  0  0  0  0  0  0  0  0
   36.5330   26.5400   30.2650 H   0  0  0  0  0  0  0  0  0  0  0  0
   37.7690   24.7580   35.8990 C   0  0  0  0  0  0  0  0  0  0  0  0
   38.3700   24.3490   34.7020 C   0  0  0  0  0  0  0  0  0  0  0  0
   39.4000   23.4390   34.7040 C   0  0  0  0  0  0  0  0  0  0  0  0
   39.8580   22.9130   35.9070 C   0  0  0  0  0  0  0  0  0  0  0  0
   40.8380   22.0180   36.1940 N   0  0  0  0  0  0  0  0  0  0  0  0
   40.8000   21.9160   37.5430 C   0  0  0  0  0  0  0  0  0  0  0  0
   39.8470   22.7060   38.0590 N   0  0  0  0  0  0  0  0  0  0  0  0
   39.2360   23.3460   37.0570 C   0  0  0  0  0  0  0  0  0  0  0  0
   38.2090   24.2470   37.1080 C   0  0  0  0  0  0  0  0  0  0  0  0
   36.9650   25.4730   35.8550 H   0  0  0  0  0  0  0  0  0  0  0  0
   39.8890   23.0980   33.8020 H   0  0  0  0  0  0  0  0  0  0  0  0
   41.4730   21.5250   35.5380 H   0  0  0  0  0  0  0  0  0  0  0  0
   41.4690   21.2680   38.1180 H   0  0  0  0  0  0  0  0  0  0  0  0
   37.7320   24.5760   38.0200 H   0  0  0  0  0  0  0  0  0  0  0  0
   36.0820   28.5590   33.7910 C   0  0  0  0  0  3  0  0  0  0  0  0
   36.2380   28.0670   32.5200 C   0  0  0  0  0  0  0  0  0  0  0  0
   35.8310   28.8520   31.4650 C   0  0  0  0  0  0  0  0  0  0  0  0
   35.9420   28.4890   30.4550 H   0  0  0  0  0  0  0  0  0  0  0  0
   35.2770   30.1010   31.6520 C   0  0  0  0  0  0  0  0  0  0  0  0
   34.8140   31.0310   30.7950 N   0  0  0  0  0  0  0  0  0  0  0  0
   34.3670   32.1020   31.4810 C   0  0  0  0  0  0  0  0  0  0  0  0
   33.9340   33.0150   31.0880 H   0  0  0  0  0  0  0  0  0  0  0  0
   34.5600   31.8230   32.7940 N   0  0  0  0  0  0  0  0  0  0  0  0
   35.1160   30.6050   32.9260 C   0  0  0  0  0  0  0  0  0  0  0  0
   35.5260   29.8170   34.0010 C   0  0  0  0  0  3  0  0  0  0  0  0
   34.8070   30.9240   29.7460 H   0  0  0  0  0  0  0  0  0  0  0  0
  1  6  1  0  0  0  0
  2  1  2  0  0  0  0
  2  3  1  0  0  0  0
  3 24  1  0  0  0  0
  3  4  2  0  0  0  0
  5  4  1  0  0  0  0
  5 10  1  0  0  0  0
  6  5  2  0  0  0  0
  7  1  1  0  0  0  0
  8  2  1  0  0  0  0
  9 17  1  0  0  0  0
 10 11  1  0  0  0  0
 10  9  2  0  0  0  0
 11 12  2  0  0  0  0
 12 13  1  0  0  0  0
 12 16  1  0  0  0  0
 13 14  1  0  0  0  0
 14 15  2  0  0  0  0
 14 21  1  0  0  0  0
 16 17  2  0  0  0  0
 16 15  1  0  0  0  0
 17 22  1  0  0  0  0
 18  9  1  0  0  0  0
 19 11  1  0  0  0  0
 20 13  1  0  0  0  0
 23 33  1  0  0  0  0
 24 23  2  0  0  0  0
 25 27  2  0  0  0  0
 25 24  1  0  0  0  0
 26 25  1  0  0  0  0
 27 32  1  0  0  0  0
 28 29  1  0  0  0  0
 28 27  1  0  0  0  0
 29 31  2  0  0  0  0
 30 29  1  0  0  0  0
 31 32  1  0  0  0  0
 32 33  2  0  0  0  0
 34 28  1  0  0  0  0
M  END
>  <minimizedAffinity>
-5.94094801

$$$$
