
 OpenBabel03262521133D

 34 37  0  0  0  0  0  0  0  0999 V2000
   31.8320   29.6550   45.8600 C   0  0  0  0  0  0  0  0  0  0  0  0
   31.4290   28.8540   44.8240 C   0  0  0  0  0  0  0  0  0  0  0  0
   30.2090   28.3740   45.1010 N   0  0  0  0  0  0  0  0  0  0  0  0
   29.8130   28.8510   46.3030 C   0  0  0  0  0  0  0  0  0  0  0  0
   30.8170   29.6310   46.7490 N   0  0  0  0  0  0  0  0  0  0  0  0
   32.0270   28.6680   43.9490 H   0  0  0  0  0  0  0  0  0  0  0  0
   29.6120   27.7310   44.5210 H   0  0  0  0  0  0  0  0  0  0  0  0
   28.1360   27.3660   47.4280 C   0  0  0  0  0  0  0  0  0  0  0  0
   28.5670   28.6350   47.0660 C   0  0  0  0  0  0  0  0  0  0  0  0
   27.8010   29.7380   47.4340 C   0  0  0  0  0  0  0  0  0  0  0  0
   28.0970   30.7430   47.1750 H   0  0  0  0  0  0  0  0  0  0  0  0
   26.6250   29.6270   48.1480 C   0  0  0  0  0  0  0  0  0  0  0  0
   25.6940   30.4450   48.6380 N   0  0  0  0  0  0  0  0  0  0  0  0
   24.7150   29.7690   49.2790 C   0  0  0  0  0  0  0  0  0  0  0  0
   23.8630   30.2480   49.7500 H   0  0  0  0  0  0  0  0  0  0  0  0
   25.0380   28.4500   49.1940 N   0  0  0  0  0  0  0  0  0  0  0  0
   26.2020   28.3590   48.5050 C   0  0  0  0  0  0  0  0  0  0  0  0
   26.9600   27.2650   48.1410 C   0  0  0  0  0  0  0  0  0  0  0  0
   25.7140   31.4870   48.5400 H   0  0  0  0  0  0  0  0  0  0  0  0
   33.0190   30.3790   46.0420 O   0  0  0  0  0  0  0  0  0  0  0  0
   35.4990   29.7020   46.2880 O   0  0  0  0  0  0  0  0  0  0  0  0
   34.1920   29.7010   47.0580 P   0  0  2  0  0  0  0  0  0  0  0  0
   33.7450   28.1160   47.5090 O   0  0  0  0  0  0  0  0  0  0  0  0
   34.1900   27.9220   48.3580 H   0  0  0  0  0  0  0  0  0  0  0  0
   34.2970   30.6110   48.4950 O   0  0  0  0  0  0  0  0  0  0  0  0
   35.3330   30.4410   49.4110 C   0  0  0  0  0  0  0  0  0  0  0  0
   35.4190   29.4770   50.4140 C   0  0  0  0  0  0  0  0  0  0  0  0
   36.5370   29.4820   51.2180 C   0  0  0  0  0  0  0  0  0  0  0  0
   37.5070   30.3960   51.0270 N   0  0  0  0  0  0  0  0  0  0  0  0
   37.3990   31.3350   50.0320 C   0  0  0  0  0  0  0  0  0  0  0  0
   36.3110   31.3450   49.2340 N   0  0  0  0  0  0  0  0  0  0  0  0
   34.5770   28.8100   50.4550 H   0  0  0  0  0  0  0  0  0  0  0  0
   36.5730   28.7200   51.9870 H   0  0  0  0  0  0  0  0  0  0  0  0
   38.2170   32.0570   49.9190 H   0  0  0  0  0  0  0  0  0  0  0  0
  1 20  1  0  0  0  0
  1  5  1  0  0  0  0
  2  3  1  0  0  0  0
  2  1  2  0  0  0  0
  3  4  1  0  0  0  0
  4  5  2  0  0  0  0
  4  9  1  0  0  0  0
  6  2  1  0  0  0  0
  7  3  1  0  0  0  0
  8 18  1  0  0  0  0
  9  8  2  0  0  0  0
  9 10  1  0  0  0  0
 10 12  2  0  0  0  0
 11 10  1  0  0  0  0
 12 17  1  0  0  0  0
 12 13  1  0  0  0  0
 13 14  1  0  0  0  0
 14 15  1  0  0  0  0
 16 14  2  0  0  0  0
 17 16  1  0  0  0  0
 18 17  2  0  0  0  0
 19 13  1  0  0  0  0
 20 22  1  0  0  0  0
 22 21  2  6  0  0  0
 22 23  1  0  0  0  0
 22 25  1  0  0  0  0
 23 24  1  0  0  0  0
 25 26  1  0  0  0  0
 26 27  1  0  0  0  0
 27 32  1  0  0  0  0
 27 28  2  0  0  0  0
 28 33  1  0  0  0  0
 29 28  1  0  0  0  0
 30 29  2  0  0  0  0
 31 26  2  0  0  0  0
 31 30  1  0  0  0  0
 34 30  1  0  0  0  0
M  END
>  <minimizedAffinity>
-5.61135483

>  <minimizedRMSD>
2.40935755

$$$$
