
 OpenBabel03262520263D

 45 49  0  0  0  0  0  0  0  0999 V2000
   37.8790   24.6060   33.4620 C   0  0  0  0  0  0  0  0  0  0  0  0
   37.3260   23.7430   32.5070 C   0  0  0  0  0  0  0  0  0  0  0  0
   36.5780   24.1160   31.4380 C   0  0  0  0  0  0  0  0  0  0  0  0
   36.3080   25.4180   31.2210 C   0  0  0  0  0  0  0  0  0  0  0  0
   36.8340   26.2570   32.1330 C   0  0  0  0  0  0  0  0  0  0  0  0
   37.5590   25.8490   33.1630 N   0  0  0  0  0  0  0  0  0  0  0  0
   37.5050   22.6480   32.6170 H   0  0  0  0  0  0  0  0  0  0  0  0
   36.1910   23.3340   30.7420 H   0  0  0  0  0  0  0  0  0  0  0  0
   35.7320   25.7910   30.4110 H   0  0  0  0  0  0  0  0  0  0  0  0
   38.0210   22.9070   35.1070 C   0  0  0  0  0  0  0  0  0  0  0  0
   38.6770   24.0640   34.5630 C   0  0  0  0  0  0  0  0  0  0  0  0
   39.8610   24.4250   35.1290 C   0  0  0  0  0  0  0  0  0  0  0  0
   40.3270   23.6600   36.1640 N   0  0  0  0  0  0  0  0  0  0  0  0
   39.7090   22.5900   36.6570 C   0  0  0  0  0  0  0  0  0  0  0  0
   38.5470   22.2290   36.1070 N   0  0  0  0  0  0  0  0  0  0  0  0
   40.3540   21.9330   37.7270 N   0  0  0  0  0  0  0  0  0  0  0  0
   37.0790   22.5090   34.7570 H   0  0  0  0  0  0  0  0  0  0  0  0
   41.3760   21.7320   37.8010 H   0  0  0  0  0  0  0  0  0  0  0  0
   39.7510   21.6170   38.5240 H   0  0  0  0  0  0  0  0  0  0  0  0
   40.5660   25.5880   34.6170 C   0  0  0  0  0  0  0  0  0  0  0  0
   41.7750   25.6420   35.1480 F   0  0  0  0  0  0  0  0  0  0  0  0
   40.6800   25.6370   33.2360 F   0  0  0  0  0  0  0  0  0  0  0  0
   39.8850   26.8010   34.9720 F   0  0  0  0  0  0  0  0  0  0  0  0
   35.7810   27.7520   34.2110 F   0  0  0  0  0  0  0  0  0  0  0  0
   36.0960   28.4470   33.0760 C   0  0  0  0  0  0  0  0  0  0  0  0
   36.6260   27.7170   32.0270 C   0  0  0  0  0  0  0  0  0  0  0  0
   36.9270   28.4610   30.9170 C   0  0  0  0  0  0  0  0  0  0  0  0
   36.7170   29.8220   30.8550 C   0  0  0  0  0  0  0  0  0  0  0  0
   36.1830   30.4910   31.9380 C   0  0  0  0  0  0  0  0  0  0  0  0
   35.8630   29.7940   33.0770 C   0  0  0  0  0  0  0  0  0  0  0  0
   37.3500   27.9390   30.0550 H   0  0  0  0  0  0  0  0  0  0  0  0
   36.9630   30.3860   29.9630 H   0  0  0  0  0  0  0  0  0  0  0  0
   36.0170   31.5500   31.8970 H   0  0  0  0  0  0  0  0  0  0  0  0
   36.0430   31.0140   35.2670 C   0  0  0  0  0  3  0  0  0  0  0  0
   35.2940   30.4350   34.2640 C   0  0  0  0  0  0  0  0  0  0  0  0
   33.8980   30.4350   34.3400 C   0  0  0  0  0  0  0  0  0  0  0  0
   33.2220   30.0060   33.6030 H   0  0  0  0  0  0  0  0  0  0  0  0
   33.2400   31.0100   35.4120 C   0  0  0  0  0  0  0  0  0  0  0  0
   31.9420   31.1640   35.7600 N   0  0  0  0  0  0  0  0  0  0  0  0
   31.8490   31.8200   36.9480 C   0  0  0  0  0  0  0  0  0  0  0  0
   30.9330   32.0800   37.4680 H   0  0  0  0  0  0  0  0  0  0  0  0
   33.1340   32.0700   37.3320 N   0  0  0  0  0  0  0  0  0  0  0  0
   33.9940   31.5890   36.4160 C   0  0  0  0  0  0  0  0  0  0  0  0
   35.3760   31.5940   36.3520 C   0  0  0  0  0  3  0  0  0  0  0  0
   31.1350   30.8190   35.1840 H   0  0  0  0  0  0  0  0  0  0  0  0
  1 11  1  0  0  0  0
  2  7  1  0  0  0  0
  2  1  2  0  0  0  0
  3  2  1  0  0  0  0
  4  3  2  0  0  0  0
  4  5  1  0  0  0  0
  5  6  2  0  0  0  0
  6  1  1  0  0  0  0
  8  3  1  0  0  0  0
  9  4  1  0  0  0  0
 10 15  1  0  0  0  0
 11 10  2  0  0  0  0
 11 12  1  0  0  0  0
 12 13  2  0  0  0  0
 13 14  1  0  0  0  0
 14 16  1  0  0  0  0
 15 14  2  0  0  0  0
 16 18  1  0  0  0  0
 16 19  1  0  0  0  0
 17 10  1  0  0  0  0
 20 23  1  0  0  0  0
 20 12  1  0  0  0  0
 20 21  1  0  0  0  0
 22 20  1  0  0  0  0
 25 30  1  0  0  0  0
 25 24  1  0  0  0  0
 26  5  1  0  0  0  0
 26 25  2  0  0  0  0
 27 26  1  0  0  0  0
 28 27  2  0  0  0  0
 28 29  1  0  0  0  0
 29 30  2  0  0  0  0
 30 35  1  0  0  0  0
 31 27  1  0  0  0  0
 32 28  1  0  0  0  0
 33 29  1  0  0  0  0
 34 44  1  0  0  0  0
 35 36  1  0  0  0  0
 35 34  2  0  0  0  0
 36 38  2  0  0  0  0
 37 36  1  0  0  0  0
 38 39  1  0  0  0  0
 38 43  1  0  0  0  0
 39 40  1  0  0  0  0
 40 42  2  0  0  0  0
 40 41  1  0  0  0  0
 43 42  1  0  0  0  0
 44 43  2  0  0  0  0
 45 39  1  0  0  0  0
M  END
>  <minimizedAffinity>
-7.65865469

$$$$

 OpenBabel03262520263D

 45 49  0  0  0  0  0  0  0  0999 V2000
   34.7990   29.5460   33.0930 C   0  0  0  0  0  0  0  0  0  0  0  0
   35.2420   30.3610   32.0420 C   0  0  0  0  0  0  0  0  0  0  0  0
   35.9860   29.9550   30.9830 C   0  0  0  0  0  0  0  0  0  0  0  0
   36.3650   28.6660   30.8750 C   0  0  0  0  0  0  0  0  0  0  0  0
   35.9440   27.8740   31.8790 C   0  0  0  0  0  0  0  0  0  0  0  0
   35.2190   28.3130   32.8950 N   0  0  0  0  0  0  0  0  0  0  0  0
   34.9690   31.4420   32.0600 H   0  0  0  0  0  0  0  0  0  0  0  0
   36.2800   30.6980   30.2050 H   0  0  0  0  0  0  0  0  0  0  0  0
   36.9450   28.2700   30.0800 H   0  0  0  0  0  0  0  0  0  0  0  0
   32.6050   29.8080   33.9490 C   0  0  0  0  0  0  0  0  0  0  0  0
   33.9900   30.1180   34.1710 C   0  0  0  0  0  0  0  0  0  0  0  0
   34.2890   30.8400   35.2860 C   0  0  0  0  0  0  0  0  0  0  0  0
   33.2520   31.2090   36.0990 N   0  0  0  0  0  0  0  0  0  0  0  0
   31.9720   30.9130   35.8810 C   0  0  0  0  0  0  0  0  0  0  0  0
   31.6710   30.2050   34.7890 N   0  0  0  0  0  0  0  0  0  0  0  0
   31.0500   31.3850   36.8390 N   0  0  0  0  0  0  0  0  0  0  0  0
   32.2250   29.2440   33.1080 H   0  0  0  0  0  0  0  0  0  0  0  0
   31.1740   31.3670   37.8760 H   0  0  0  0  0  0  0  0  0  0  0  0
   30.1540   31.7920   36.4780 H   0  0  0  0  0  0  0  0  0  0  0  0
   35.6760   31.1820   35.5580 C   0  0  0  0  0  0  0  0  0  0  0  0
   35.7520   31.8470   36.6970 F   0  0  0  0  0  0  0  0  0  0  0  0
   36.5400   30.1010   35.6120 F   0  0  0  0  0  0  0  0  0  0  0  0
   36.2090   32.0290   34.5290 F   0  0  0  0  0  0  0  0  0  0  0  0
   37.9190   26.8380   33.5190 F   0  0  0  0  0  0  0  0  0  0  0  0
   37.2700   25.9350   32.7220 C   0  0  0  0  0  0  0  0  0  0  0  0
   36.2780   26.4340   31.8980 C   0  0  0  0  0  0  0  0  0  0  0  0
   35.6580   25.4880   31.1240 C   0  0  0  0  0  0  0  0  0  0  0  0
   35.9980   24.1530   31.1680 C   0  0  0  0  0  0  0  0  0  0  0  0
   37.0000   23.7210   32.0130 C   0  0  0  0  0  0  0  0  0  0  0  0
   37.6550   24.6260   32.8120 C   0  0  0  0  0  0  0  0  0  0  0  0
   34.8640   25.8220   30.4520 H   0  0  0  0  0  0  0  0  0  0  0  0
   35.4920   23.4260   30.5440 H   0  0  0  0  0  0  0  0  0  0  0  0
   37.2700   22.6830   32.0530 H   0  0  0  0  0  0  0  0  0  0  0  0
   40.0660   24.4640   33.4990 C   0  0  0  0  0  3  0  0  0  0  0  0
   38.7250   24.2420   33.7320 C   0  0  0  0  0  0  0  0  0  0  0  0
   38.3130   23.6120   34.9100 C   0  0  0  0  0  0  0  0  0  0  0  0
   37.2830   23.3920   35.1860 H   0  0  0  0  0  0  0  0  0  0  0  0
   39.2290   23.2000   35.8610 C   0  0  0  0  0  0  0  0  0  0  0  0
   39.1420   22.5840   37.0620 N   0  0  0  0  0  0  0  0  0  0  0  0
   40.3830   22.4120   37.5910 C   0  0  0  0  0  0  0  0  0  0  0  0
   40.6160   21.9460   38.5440 H   0  0  0  0  0  0  0  0  0  0  0  0
   41.2490   22.9400   36.6800 N   0  0  0  0  0  0  0  0  0  0  0  0
   40.5720   23.4240   35.6230 C   0  0  0  0  0  0  0  0  0  0  0  0
   40.9930   24.0460   34.4610 C   0  0  0  0  0  3  0  0  0  0  0  0
   38.2380   22.2880   37.5060 H   0  0  0  0  0  0  0  0  0  0  0  0
  1 11  1  0  0  0  0
  2  7  1  0  0  0  0
  2  1  2  0  0  0  0
  3  2  1  0  0  0  0
  4  3  2  0  0  0  0
  4  5  1  0  0  0  0
  5 26  1  0  0  0  0
  5  6  2  0  0  0  0
  6  1  1  0  0  0  0
  8  3  1  0  0  0  0
  9  4  1  0  0  0  0
 10 11  2  0  0  0  0
 10 15  1  0  0  0  0
 11 12  1  0  0  0  0
 12 20  1  0  0  0  0
 12 13  2  0  0  0  0
 14 13  1  0  0  0  0
 14 16  1  0  0  0  0
 15 14  2  0  0  0  0
 16 18  1  0  0  0  0
 17 10  1  0  0  0  0
 19 16  1  0  0  0  0
 20 22  1  0  0  0  0
 20 21  1  0  0  0  0
 23 20  1  0  0  0  0
 25 30  1  0  0  0  0
 25 24  1  0  0  0  0
 26 25  2  0  0  0  0
 27 28  2  0  0  0  0
 27 26  1  0  0  0  0
 28 29  1  0  0  0  0
 29 33  1  0  0  0  0
 29 30  2  0  0  0  0
 30 35  1  0  0  0  0
 31 27  1  0  0  0  0
 32 28  1  0  0  0  0
 34 35  2  0  0  0  0
 34 44  1  0  0  0  0
 35 36  1  0  0  0  0
 36 37  1  0  0  0  0
 36 38  2  0  0  0  0
 38 39  1  0  0  0  0
 39 45  1  0  0  0  0
 39 40  1  0  0  0  0
 40 41  1  0  0  0  0
 42 40  2  0  0  0  0
 43 38  1  0  0  0  0
 43 42  1  0  0  0  0
 44 43  2  0  0  0  0
M  END
>  <minimizedAffinity>
-7.56255054

$$$$

 OpenBabel03262520263D

 45 49  0  0  0  0  0  0  0  0999 V2000
   35.4130   29.6730   33.1060 C   0  0  0  0  0  0  0  0  0  0  0  0
   35.7470   30.3700   31.9370 C   0  0  0  0  0  0  0  0  0  0  0  0
   36.2490   29.8210   30.8020 C   0  0  0  0  0  0  0  0  0  0  0  0
   36.4670   28.4940   30.7290 C   0  0  0  0  0  0  0  0  0  0  0  0
   36.1500   27.8140   31.8480 C   0  0  0  0  0  0  0  0  0  0  0  0
   35.6620   28.3900   32.9350 N   0  0  0  0  0  0  0  0  0  0  0  0
   35.5950   31.4740   31.9180 H   0  0  0  0  0  0  0  0  0  0  0  0
   36.4760   30.4800   29.9310 H   0  0  0  0  0  0  0  0  0  0  0  0
   36.8560   27.9890   29.8810 H   0  0  0  0  0  0  0  0  0  0  0  0
   35.9480   30.8560   35.0880 C   0  0  0  0  0  0  0  0  0  0  0  0
   34.8700   30.3940   34.2580 C   0  0  0  0  0  0  0  0  0  0  0  0
   33.6060   30.7010   34.6610 C   0  0  0  0  0  0  0  0  0  0  0  0
   33.4670   31.4200   35.8180 N   0  0  0  0  0  0  0  0  0  0  0  0
   34.4760   31.8420   36.5770 C   0  0  0  0  0  0  0  0  0  0  0  0
   35.7190   31.5450   36.1880 N   0  0  0  0  0  0  0  0  0  0  0  0
   34.1260   32.5710   37.7330 N   0  0  0  0  0  0  0  0  0  0  0  0
   36.9970   30.6860   34.8900 H   0  0  0  0  0  0  0  0  0  0  0  0
   33.3920   33.3110   37.7960 H   0  0  0  0  0  0  0  0  0  0  0  0
   34.6510   32.3500   38.6130 H   0  0  0  0  0  0  0  0  0  0  0  0
   32.4790   30.2580   33.8580 C   0  0  0  0  0  0  0  0  0  0  0  0
   32.4890   30.8870   32.6960 F   0  0  0  0  0  0  0  0  0  0  0  0
   32.4310   28.8920   33.6280 F   0  0  0  0  0  0  0  0  0  0  0  0
   31.2340   30.5660   34.5030 F   0  0  0  0  0  0  0  0  0  0  0  0
   38.1190   26.6450   33.4030 F   0  0  0  0  0  0  0  0  0  0  0  0
   37.3230   25.7830   32.7010 C   0  0  0  0  0  0  0  0  0  0  0  0
   36.3310   26.3490   31.9190 C   0  0  0  0  0  0  0  0  0  0  0  0
   35.5610   25.4410   31.2400 C   0  0  0  0  0  0  0  0  0  0  0  0
   35.7620   24.0800   31.3310 C   0  0  0  0  0  0  0  0  0  0  0  0
   36.7710   23.5810   32.1290 C   0  0  0  0  0  0  0  0  0  0  0  0
   37.5740   24.4450   32.8320 C   0  0  0  0  0  0  0  0  0  0  0  0
   34.7600   25.8280   30.6050 H   0  0  0  0  0  0  0  0  0  0  0  0
   35.1380   23.3850   30.7810 H   0  0  0  0  0  0  0  0  0  0  0  0
   36.9340   22.5230   32.2040 H   0  0  0  0  0  0  0  0  0  0  0  0
   39.9900   23.9640   33.3270 C   0  0  0  0  0  3  0  0  0  0  0  0
   38.6620   23.9890   33.6980 C   0  0  0  0  0  0  0  0  0  0  0  0
   38.2810   23.5610   34.9730 C   0  0  0  0  0  0  0  0  0  0  0  0
   37.2630   23.5420   35.3590 H   0  0  0  0  0  0  0  0  0  0  0  0
   39.2160   23.1060   35.8850 C   0  0  0  0  0  0  0  0  0  0  0  0
   39.1600   22.6410   37.1540 N   0  0  0  0  0  0  0  0  0  0  0  0
   40.4080   22.3240   37.5930 C   0  0  0  0  0  0  0  0  0  0  0  0
   40.6630   21.9280   38.5710 H   0  0  0  0  0  0  0  0  0  0  0  0
   41.2470   22.6070   36.5550 N   0  0  0  0  0  0  0  0  0  0  0  0
   40.5460   23.0830   35.5100 C   0  0  0  0  0  0  0  0  0  0  0  0
   40.9350   23.5030   34.2500 C   0  0  0  0  0  3  0  0  0  0  0  0
   38.2720   22.5440   37.7050 H   0  0  0  0  0  0  0  0  0  0  0  0
  1 11  1  0  0  0  0
  2  1  2  0  0  0  0
  3  2  1  0  0  0  0
  4  3  2  0  0  0  0
  4  5  1  0  0  0  0
  5 26  1  0  0  0  0
  5  6  2  0  0  0  0
  6  1  1  0  0  0  0
  7  2  1  0  0  0  0
  8  3  1  0  0  0  0
  9  4  1  0  0  0  0
 10 15  1  0  0  0  0
 11 12  1  0  0  0  0
 11 10  2  0  0  0  0
 12 13  2  0  0  0  0
 13 14  1  0  0  0  0
 14 16  1  0  0  0  0
 15 14  2  0  0  0  0
 16 18  1  0  0  0  0
 16 19  1  0  0  0  0
 17 10  1  0  0  0  0
 20 23  1  0  0  0  0
 20 12  1  0  0  0  0
 21 20  1  0  0  0  0
 22 20  1  0  0  0  0
 25 30  1  0  0  0  0
 25 24  1  0  0  0  0
 26 25  2  0  0  0  0
 27 28  2  0  0  0  0
 27 26  1  0  0  0  0
 28 29  1  0  0  0  0
 29 33  1  0  0  0  0
 29 30  2  0  0  0  0
 30 35  1  0  0  0  0
 31 27  1  0  0  0  0
 32 28  1  0  0  0  0
 34 35  2  0  0  0  0
 34 44  1  0  0  0  0
 35 36  1  0  0  0  0
 36 37  1  0  0  0  0
 36 38  2  0  0  0  0
 38 39  1  0  0  0  0
 39 40  1  0  0  0  0
 39 45  1  0  0  0  0
 40 41  1  0  0  0  0
 42 40  2  0  0  0  0
 43 38  1  0  0  0  0
 43 42  1  0  0  0  0
 44 43  2  0  0  0  0
M  END
>  <minimizedAffinity>
-7.37481689

$$$$

 OpenBabel03262520263D

 45 49  0  0  0  0  0  0  0  0999 V2000
   35.1910   29.4070   33.7320 C   0  0  0  0  0  0  0  0  0  0  0  0
   35.4130   29.9780   32.4710 C   0  0  0  0  0  0  0  0  0  0  0  0
   36.2950   29.5300   31.5420 C   0  0  0  0  0  0  0  0  0  0  0  0
   37.0530   28.4460   31.7930 C   0  0  0  0  0  0  0  0  0  0  0  0
   36.8480   27.8890   33.0030 C   0  0  0  0  0  0  0  0  0  0  0  0
   35.9760   28.3600   33.8800 N   0  0  0  0  0  0  0  0  0  0  0  0
   34.8230   30.8800   32.1870 H   0  0  0  0  0  0  0  0  0  0  0  0
   36.3840   30.0690   30.5690 H   0  0  0  0  0  0  0  0  0  0  0  0
   37.7640   28.0340   31.1220 H   0  0  0  0  0  0  0  0  0  0  0  0
   32.9180   29.3800   34.3980 C   0  0  0  0  0  0  0  0  0  0  0  0
   34.1970   29.9910   34.6330 C   0  0  0  0  0  0  0  0  0  0  0  0
   34.2560   30.9440   35.6040 C   0  0  0  0  0  0  0  0  0  0  0  0
   33.0990   31.2390   36.2730 N   0  0  0  0  0  0  0  0  0  0  0  0
   31.9200   30.6640   36.0440 C   0  0  0  0  0  0  0  0  0  0  0  0
   31.8540   29.7290   35.0940 N   0  0  0  0  0  0  0  0  0  0  0  0
   30.8430   31.1070   36.8420 N   0  0  0  0  0  0  0  0  0  0  0  0
   32.7250   28.6130   33.6610 H   0  0  0  0  0  0  0  0  0  0  0  0
   30.8740   31.2980   37.8690 H   0  0  0  0  0  0  0  0  0  0  0  0
   29.9250   31.2590   36.3600 H   0  0  0  0  0  0  0  0  0  0  0  0
   35.5260   31.5940   35.8820 C   0  0  0  0  0  0  0  0  0  0  0  0
   35.4170   32.3270   36.9760 F   0  0  0  0  0  0  0  0  0  0  0  0
   36.6000   30.7310   36.0270 F   0  0  0  0  0  0  0  0  0  0  0  0
   35.9000   32.4720   34.8110 F   0  0  0  0  0  0  0  0  0  0  0  0
   36.2080   25.3520   32.1010 F   0  0  0  0  0  0  0  0  0  0  0  0
   37.2670   25.4290   32.9630 C   0  0  0  0  0  0  0  0  0  0  0  0
   37.6040   26.6910   33.4220 C   0  0  0  0  0  0  0  0  0  0  0  0
   38.6730   26.7120   34.2790 C   0  0  0  0  0  0  0  0  0  0  0  0
   39.3520   25.5710   34.6490 C   0  0  0  0  0  0  0  0  0  0  0  0
   38.9640   24.3430   34.1550 C   0  0  0  0  0  0  0  0  0  0  0  0
   37.8990   24.2620   33.2920 C   0  0  0  0  0  0  0  0  0  0  0  0
   38.9870   27.6810   34.6760 H   0  0  0  0  0  0  0  0  0  0  0  0
   40.1950   25.6170   35.3300 H   0  0  0  0  0  0  0  0  0  0  0  0
   39.4880   23.4500   34.4380 H   0  0  0  0  0  0  0  0  0  0  0  0
   37.6220   22.6130   31.4160 C   0  0  0  0  0  3  0  0  0  0  0  0
   37.4310   22.9960   32.7270 C   0  0  0  0  0  0  0  0  0  0  0  0
   36.7510   22.1530   33.6130 C   0  0  0  0  0  0  0  0  0  0  0  0
   36.5510   22.3640   34.6620 H   0  0  0  0  0  0  0  0  0  0  0  0
   36.2590   20.9290   33.2000 C   0  0  0  0  0  0  0  0  0  0  0  0
   35.5820   19.9240   33.8020 N   0  0  0  0  0  0  0  0  0  0  0  0
   35.3410   18.9230   32.9140 C   0  0  0  0  0  0  0  0  0  0  0  0
   34.8170   17.9950   33.1190 H   0  0  0  0  0  0  0  0  0  0  0  0
   35.8900   19.3350   31.7350 N   0  0  0  0  0  0  0  0  0  0  0  0
   36.4520   20.5480   31.8860 C   0  0  0  0  0  0  0  0  0  0  0  0
   37.1230   21.3740   31.0000 C   0  0  0  0  0  3  0  0  0  0  0  0
   35.2920   19.9330   34.8110 H   0  0  0  0  0  0  0  0  0  0  0  0
  1  6  1  0  0  0  0
  1 11  1  0  0  0  0
  2  1  2  0  0  0  0
  3  4  2  0  0  0  0
  3  2  1  0  0  0  0
  4  5  1  0  0  0  0
  5 26  1  0  0  0  0
  5  6  2  0  0  0  0
  7  2  1  0  0  0  0
  8  3  1  0  0  0  0
  9  4  1  0  0  0  0
 10 11  2  0  0  0  0
 10 15  1  0  0  0  0
 11 12  1  0  0  0  0
 12 20  1  0  0  0  0
 12 13  2  0  0  0  0
 14 13  1  0  0  0  0
 14 16  1  0  0  0  0
 15 14  2  0  0  0  0
 16 18  1  0  0  0  0
 17 10  1  0  0  0  0
 19 16  1  0  0  0  0
 20 22  1  0  0  0  0
 20 21  1  0  0  0  0
 23 20  1  0  0  0  0
 24 25  1  0  0  0  0
 25 30  2  0  0  0  0
 25 26  1  0  0  0  0
 26 27  2  0  0  0  0
 27 28  1  0  0  0  0
 27 31  1  0  0  0  0
 28 32  1  0  0  0  0
 29 33  1  0  0  0  0
 29 28  2  0  0  0  0
 30 29  1  0  0  0  0
 34 35  1  0  0  0  0
 35 30  1  0  0  0  0
 35 36  2  0  0  0  0
 36 37  1  0  0  0  0
 38 36  1  0  0  0  0
 38 39  1  0  0  0  0
 39 45  1  0  0  0  0
 40 41  1  0  0  0  0
 40 39  1  0  0  0  0
 42 43  1  0  0  0  0
 42 40  2  0  0  0  0
 43 38  2  0  0  0  0
 44 34  2  0  0  0  0
 44 43  1  0  0  0  0
M  END
>  <minimizedAffinity>
-7.26168156

$$$$

 OpenBabel03262520263D

 45 49  0  0  0  0  0  0  0  0999 V2000
   34.9150   29.9120   33.1500 C   0  0  0  0  0  0  0  0  0  0  0  0
   34.7920   30.6270   31.9500 C   0  0  0  0  0  0  0  0  0  0  0  0
   35.5650   30.4640   30.8470 C   0  0  0  0  0  0  0  0  0  0  0  0
   36.5560   29.5510   30.8420 C   0  0  0  0  0  0  0  0  0  0  0  0
   36.6830   28.8580   31.9900 C   0  0  0  0  0  0  0  0  0  0  0  0
   35.9050   29.0500   33.0440 N   0  0  0  0  0  0  0  0  0  0  0  0
   33.9940   31.4020   31.8760 H   0  0  0  0  0  0  0  0  0  0  0  0
   35.3710   31.0940   29.9470 H   0  0  0  0  0  0  0  0  0  0  0  0
   37.2030   29.3630   30.0220 H   0  0  0  0  0  0  0  0  0  0  0  0
   32.7250   29.5830   33.9910 C   0  0  0  0  0  0  0  0  0  0  0  0
   34.0010   30.1850   34.2600 C   0  0  0  0  0  0  0  0  0  0  0  0
   34.1300   30.8560   35.4370 C   0  0  0  0  0  0  0  0  0  0  0  0
   33.0400   30.9020   36.2630 N   0  0  0  0  0  0  0  0  0  0  0  0
   31.8630   30.3390   36.0010 C   0  0  0  0  0  0  0  0  0  0  0  0
   31.7280   29.6780   34.8480 N   0  0  0  0  0  0  0  0  0  0  0  0
   30.8600   30.4980   36.9820 N   0  0  0  0  0  0  0  0  0  0  0  0
   32.4810   29.0220   33.0990 H   0  0  0  0  0  0  0  0  0  0  0  0
   30.9910   30.4190   38.0150 H   0  0  0  0  0  0  0  0  0  0  0  0
   29.8930   30.7160   36.6430 H   0  0  0  0  0  0  0  0  0  0  0  0
   35.4010   31.4850   35.7590 C   0  0  0  0  0  0  0  0  0  0  0  0
   35.7330   32.3280   34.7980 F   0  0  0  0  0  0  0  0  0  0  0  0
   35.4260   32.1550   36.9720 F   0  0  0  0  0  0  0  0  0  0  0  0
   36.4480   30.5080   35.8570 F   0  0  0  0  0  0  0  0  0  0  0  0
   36.5690   26.9240   33.9650 F   0  0  0  0  0  0  0  0  0  0  0  0
   37.6510   26.8610   33.1310 C   0  0  0  0  0  0  0  0  0  0  0  0
   37.7230   27.8190   32.1350 C   0  0  0  0  0  0  0  0  0  0  0  0
   38.8240   27.7090   31.3260 C   0  0  0  0  0  0  0  0  0  0  0  0
   39.7750   26.7250   31.4940 C   0  0  0  0  0  0  0  0  0  0  0  0
   39.6430   25.8000   32.5090 C   0  0  0  0  0  0  0  0  0  0  0  0
   38.5590   25.8630   33.3510 C   0  0  0  0  0  0  0  0  0  0  0  0
   38.9370   28.4380   30.5190 H   0  0  0  0  0  0  0  0  0  0  0  0
   40.6370   26.6630   30.8390 H   0  0  0  0  0  0  0  0  0  0  0  0
   40.3790   25.0320   32.6460 H   0  0  0  0  0  0  0  0  0  0  0  0
   38.1500   23.5640   34.2780 C   0  0  0  0  0  3  0  0  0  0  0  0
   38.3520   24.9170   34.4470 C   0  0  0  0  0  0  0  0  0  0  0  0
   38.3690   25.4690   35.7320 C   0  0  0  0  0  0  0  0  0  0  0  0
   38.5200   26.5200   35.9700 H   0  0  0  0  0  0  0  0  0  0  0  0
   38.1850   24.6790   36.8530 C   0  0  0  0  0  0  0  0  0  0  0  0
   38.1490   24.9110   38.1850 N   0  0  0  0  0  0  0  0  0  0  0  0
   37.9310   23.7490   38.8580 C   0  0  0  0  0  0  0  0  0  0  0  0
   37.8550   23.6350   39.9340 H   0  0  0  0  0  0  0  0  0  0  0  0
   37.8310   22.7820   37.9010 N   0  0  0  0  0  0  0  0  0  0  0  0
   37.9820   23.3220   36.6780 C   0  0  0  0  0  0  0  0  0  0  0  0
   37.9640   22.7650   35.4110 C   0  0  0  0  0  3  0  0  0  0  0  0
   38.2730   25.8580   38.6190 H   0  0  0  0  0  0  0  0  0  0  0  0
  1 11  1  0  0  0  0
  2  1  2  0  0  0  0
  3  2  1  0  0  0  0
  4  3  2  0  0  0  0
  4  5  1  0  0  0  0
  5 26  1  0  0  0  0
  5  6  2  0  0  0  0
  6  1  1  0  0  0  0
  7  2  1  0  0  0  0
  8  3  1  0  0  0  0
  9  4  1  0  0  0  0
 10 11  2  0  0  0  0
 10 15  1  0  0  0  0
 11 12  1  0  0  0  0
 12 20  1  0  0  0  0
 12 13  2  0  0  0  0
 14 13  1  0  0  0  0
 14 16  1  0  0  0  0
 15 14  2  0  0  0  0
 16 18  1  0  0  0  0
 17 10  1  0  0  0  0
 19 16  1  0  0  0  0
 20 23  1  0  0  0  0
 20 22  1  0  0  0  0
 21 20  1  0  0  0  0
 25 30  1  0  0  0  0
 25 24  1  0  0  0  0
 26 25  2  0  0  0  0
 27 28  2  0  0  0  0
 27 26  1  0  0  0  0
 28 29  1  0  0  0  0
 29 33  1  0  0  0  0
 29 30  2  0  0  0  0
 30 35  1  0  0  0  0
 31 27  1  0  0  0  0
 32 28  1  0  0  0  0
 34 35  2  0  0  0  0
 34 44  1  0  0  0  0
 35 36  1  0  0  0  0
 36 37  1  0  0  0  0
 36 38  2  0  0  0  0
 38 39  1  0  0  0  0
 39 45  1  0  0  0  0
 39 40  1  0  0  0  0
 40 41  1  0  0  0  0
 42 40  2  0  0  0  0
 43 38  1  0  0  0  0
 43 42  1  0  0  0  0
 44 43  2  0  0  0  0
M  END
>  <minimizedAffinity>
-7.25237751

$$$$

 OpenBabel03262520263D

 45 49  0  0  0  0  0  0  0  0999 V2000
   38.4490   23.7160   34.7320 C   0  0  0  0  0  0  0  0  0  0  0  0
   39.7750   23.3180   34.5140 C   0  0  0  0  0  0  0  0  0  0  0  0
   40.6560   23.9170   33.6740 C   0  0  0  0  0  0  0  0  0  0  0  0
   40.2840   24.9960   32.9580 C   0  0  0  0  0  0  0  0  0  0  0  0
   39.0110   25.3870   33.1590 C   0  0  0  0  0  0  0  0  0  0  0  0
   38.1840   24.7720   33.9890 N   0  0  0  0  0  0  0  0  0  0  0  0
   40.1590   22.4310   35.0710 H   0  0  0  0  0  0  0  0  0  0  0  0
   41.6900   23.5080   33.5840 H   0  0  0  0  0  0  0  0  0  0  0  0
   40.9110   25.5200   32.2810 H   0  0  0  0  0  0  0  0  0  0  0  0
   36.9260   21.9200   34.9900 C   0  0  0  0  0  0  0  0  0  0  0  0
   37.6100   22.9800   35.6790 C   0  0  0  0  0  0  0  0  0  0  0  0
   37.3780   23.0980   37.0150 C   0  0  0  0  0  0  0  0  0  0  0  0
   36.5170   22.2030   37.5900 N   0  0  0  0  0  0  0  0  0  0  0  0
   35.8900   21.2250   36.9390 C   0  0  0  0  0  0  0  0  0  0  0  0
   36.1130   21.1020   35.6280 N   0  0  0  0  0  0  0  0  0  0  0  0
   35.0410   20.4040   37.7120 N   0  0  0  0  0  0  0  0  0  0  0  0
   37.0150   21.7100   33.9340 H   0  0  0  0  0  0  0  0  0  0  0  0
   35.2470   20.0280   38.6650 H   0  0  0  0  0  0  0  0  0  0  0  0
   34.1160   20.1470   37.2920 H   0  0  0  0  0  0  0  0  0  0  0  0
   38.0450   24.1530   37.7590 C   0  0  0  0  0  0  0  0  0  0  0  0
   38.0210   25.2730   37.0570 F   0  0  0  0  0  0  0  0  0  0  0  0
   37.5160   24.4010   39.0150 F   0  0  0  0  0  0  0  0  0  0  0  0
   39.4210   23.8240   37.9980 F   0  0  0  0  0  0  0  0  0  0  0  0
   36.8780   26.8460   34.1510 F   0  0  0  0  0  0  0  0  0  0  0  0
   37.3890   27.2730   32.9570 C   0  0  0  0  0  0  0  0  0  0  0  0
   38.4580   26.5580   32.4460 C   0  0  0  0  0  0  0  0  0  0  0  0
   38.9330   27.0300   31.2510 C   0  0  0  0  0  0  0  0  0  0  0  0
   38.3890   28.1250   30.6150 C   0  0  0  0  0  0  0  0  0  0  0  0
   37.3220   28.7940   31.1780 C   0  0  0  0  0  0  0  0  0  0  0  0
   36.8050   28.3650   32.3760 C   0  0  0  0  0  0  0  0  0  0  0  0
   39.7780   26.5060   30.7970 H   0  0  0  0  0  0  0  0  0  0  0  0
   38.7850   28.4760   29.6680 H   0  0  0  0  0  0  0  0  0  0  0  0
   36.8930   29.6470   30.6890 H   0  0  0  0  0  0  0  0  0  0  0  0
   35.7830   29.8000   34.1680 C   0  0  0  0  0  3  0  0  0  0  0  0
   35.6760   29.0230   33.0330 C   0  0  0  0  0  0  0  0  0  0  0  0
   34.4270   28.8230   32.4350 C   0  0  0  0  0  0  0  0  0  0  0  0
   34.2390   28.2310   31.5420 H   0  0  0  0  0  0  0  0  0  0  0  0
   33.2820   29.3930   32.9610 C   0  0  0  0  0  0  0  0  0  0  0  0
   31.9730   29.3850   32.6210 N   0  0  0  0  0  0  0  0  0  0  0  0
   31.2550   30.1290   33.5040 C   0  0  0  0  0  0  0  0  0  0  0  0
   30.1830   30.2990   33.4780 H   0  0  0  0  0  0  0  0  0  0  0  0
   32.1590   30.6030   34.4080 N   0  0  0  0  0  0  0  0  0  0  0  0
   33.3940   30.1700   34.0990 C   0  0  0  0  0  0  0  0  0  0  0  0
   34.6240   30.3750   34.7000 C   0  0  0  0  0  3  0  0  0  0  0  0
   31.5850   28.8710   31.7920 H   0  0  0  0  0  0  0  0  0  0  0  0
  1 11  1  0  0  0  0
  2  1  1  0  0  0  0
  2  7  1  0  0  0  0
  3  2  2  0  0  0  0
  4  5  2  0  0  0  0
  4  3  1  0  0  0  0
  5  6  1  0  0  0  0
  6  1  2  0  0  0  0
  8  3  1  0  0  0  0
  9  4  1  0  0  0  0
 10 15  2  0  0  0  0
 10 11  1  0  0  0  0
 11 12  2  0  0  0  0
 12 13  1  0  0  0  0
 12 20  1  0  0  0  0
 14 13  2  0  0  0  0
 14 16  1  0  0  0  0
 15 14  1  0  0  0  0
 16 18  1  0  0  0  0
 17 10  1  0  0  0  0
 19 16  1  0  0  0  0
 20 23  1  0  0  0  0
 20 22  1  0  0  0  0
 21 20  1  0  0  0  0
 25 24  1  0  0  0  0
 26 25  1  0  0  0  0
 26  5  1  0  0  0  0
 27 26  2  0  0  0  0
 28 29  2  0  0  0  0
 28 27  1  0  0  0  0
 29 30  1  0  0  0  0
 30 25  2  0  0  0  0
 30 35  1  0  0  0  0
 31 27  1  0  0  0  0
 32 28  1  0  0  0  0
 33 29  1  0  0  0  0
 34 44  1  0  0  0  0
 35 34  2  0  0  0  0
 36 38  2  0  0  0  0
 36 35  1  0  0  0  0
 37 36  1  0  0  0  0
 38 43  1  0  0  0  0
 39 38  1  0  0  0  0
 39 40  1  0  0  0  0
 40 42  2  0  0  0  0
 41 40  1  0  0  0  0
 43 42  1  0  0  0  0
 43 44  2  0  0  0  0
 45 39  1  0  0  0  0
M  END
>  <minimizedAffinity>
-7.25206852

$$$$

 OpenBabel03262520263D

 45 49  0  0  0  0  0  0  0  0999 V2000
   38.3780   24.5050   33.6680 C   0  0  0  0  0  0  0  0  0  0  0  0
   37.6280   23.5500   32.9690 C   0  0  0  0  0  0  0  0  0  0  0  0
   36.6370   23.8130   32.0800 C   0  0  0  0  0  0  0  0  0  0  0  0
   36.2980   25.0870   31.8020 C   0  0  0  0  0  0  0  0  0  0  0  0
   37.0120   26.0140   32.4680 C   0  0  0  0  0  0  0  0  0  0  0  0
   37.9720   25.7120   33.3280 N   0  0  0  0  0  0  0  0  0  0  0  0
   37.8500   22.4710   33.1450 H   0  0  0  0  0  0  0  0  0  0  0  0
   36.1090   22.9660   31.5840 H   0  0  0  0  0  0  0  0  0  0  0  0
   35.5370   25.3770   31.1210 H   0  0  0  0  0  0  0  0  0  0  0  0
   40.6930   24.0660   33.9110 C   0  0  0  0  0  0  0  0  0  0  0  0
   39.4290   24.0770   34.5930 C   0  0  0  0  0  0  0  0  0  0  0  0
   39.4320   23.7150   35.9050 C   0  0  0  0  0  0  0  0  0  0  0  0
   40.6340   23.3750   36.4650 N   0  0  0  0  0  0  0  0  0  0  0  0
   41.7990   23.3710   35.8210 C   0  0  0  0  0  0  0  0  0  0  0  0
   41.8040   23.7240   34.5330 N   0  0  0  0  0  0  0  0  0  0  0  0
   42.9290   22.9880   36.5750 N   0  0  0  0  0  0  0  0  0  0  0  0
   40.8390   24.3290   32.8730 H   0  0  0  0  0  0  0  0  0  0  0  0
   43.1450   23.2810   37.5540 H   0  0  0  0  0  0  0  0  0  0  0  0
   43.6180   22.3490   36.1100 H   0  0  0  0  0  0  0  0  0  0  0  0
   38.1800   23.7080   36.6420 C   0  0  0  0  0  0  0  0  0  0  0  0
   38.4220   23.5120   37.9260 F   0  0  0  0  0  0  0  0  0  0  0  0
   37.4160   24.8560   36.5000 F   0  0  0  0  0  0  0  0  0  0  0  0
   37.3270   22.6420   36.1970 F   0  0  0  0  0  0  0  0  0  0  0  0
   35.9160   27.6110   34.4450 F   0  0  0  0  0  0  0  0  0  0  0  0
   36.2060   28.2380   33.2640 C   0  0  0  0  0  0  0  0  0  0  0  0
   36.7580   27.4560   32.2650 C   0  0  0  0  0  0  0  0  0  0  0  0
   37.0310   28.1320   31.1050 C   0  0  0  0  0  0  0  0  0  0  0  0
   36.7780   29.4790   30.9530 C   0  0  0  0  0  0  0  0  0  0  0  0
   36.2250   30.2020   31.9900 C   0  0  0  0  0  0  0  0  0  0  0  0
   35.9300   29.5740   33.1760 C   0  0  0  0  0  0  0  0  0  0  0  0
   37.4690   27.5680   30.2780 H   0  0  0  0  0  0  0  0  0  0  0  0
   37.0040   29.9890   30.0240 H   0  0  0  0  0  0  0  0  0  0  0  0
   36.0250   31.2500   31.8790 H   0  0  0  0  0  0  0  0  0  0  0  0
   36.0740   30.9510   35.2730 C   0  0  0  0  0  3  0  0  0  0  0  0
   35.3440   30.2740   34.3190 C   0  0  0  0  0  0  0  0  0  0  0  0
   33.9490   30.2270   34.4070 C   0  0  0  0  0  0  0  0  0  0  0  0
   33.2850   29.7210   33.7070 H   0  0  0  0  0  0  0  0  0  0  0  0
   33.2750   30.8500   35.4410 C   0  0  0  0  0  0  0  0  0  0  0  0
   31.9740   30.9780   35.7880 N   0  0  0  0  0  0  0  0  0  0  0  0
   31.8620   31.7130   36.9270 C   0  0  0  0  0  0  0  0  0  0  0  0
   30.9390   31.9740   37.4350 H   0  0  0  0  0  0  0  0  0  0  0  0
   33.1390   32.0390   37.2820 N   0  0  0  0  0  0  0  0  0  0  0  0
   34.0110   31.5270   36.3950 C   0  0  0  0  0  0  0  0  0  0  0  0
   35.3920   31.5810   36.3190 C   0  0  0  0  0  3  0  0  0  0  0  0
   31.1770   30.5640   35.2440 H   0  0  0  0  0  0  0  0  0  0  0  0
  1 11  1  0  0  0  0
  2  7  1  0  0  0  0
  2  1  2  0  0  0  0
  3  2  1  0  0  0  0
  4  3  2  0  0  0  0
  4  5  1  0  0  0  0
  5  6  2  0  0  0  0
  6  1  1  0  0  0  0
  8  3  1  0  0  0  0
  9  4  1  0  0  0  0
 10 15  2  0  0  0  0
 10 11  1  0  0  0  0
 11 12  2  0  0  0  0
 12 13  1  0  0  0  0
 12 20  1  0  0  0  0
 14 13  2  0  0  0  0
 14 16  1  0  0  0  0
 15 14  1  0  0  0  0
 16 18  1  0  0  0  0
 17 10  1  0  0  0  0
 19 16  1  0  0  0  0
 20 21  1  0  0  0  0
 22 20  1  0  0  0  0
 23 20  1  0  0  0  0
 25 24  1  0  0  0  0
 26  5  1  0  0  0  0
 26 25  2  0  0  0  0
 27 26  1  0  0  0  0
 28 27  2  0  0  0  0
 28 29  1  0  0  0  0
 29 30  2  0  0  0  0
 30 25  1  0  0  0  0
 30 35  1  0  0  0  0
 31 27  1  0  0  0  0
 32 28  1  0  0  0  0
 33 29  1  0  0  0  0
 34 44  1  0  0  0  0
 35 36  1  0  0  0  0
 35 34  2  0  0  0  0
 36 38  2  0  0  0  0
 37 36  1  0  0  0  0
 38 39  1  0  0  0  0
 38 43  1  0  0  0  0
 39 40  1  0  0  0  0
 40 42  2  0  0  0  0
 40 41  1  0  0  0  0
 43 42  1  0  0  0  0
 44 43  2  0  0  0  0
 45 39  1  0  0  0  0
M  END
>  <minimizedAffinity>
-7.23970556

$$$$

 OpenBabel03262520263D

 45 49  0  0  0  0  0  0  0  0999 V2000
   38.4590   25.4090   33.9400 C   0  0  0  0  0  0  0  0  0  0  0  0
   39.6220   25.2550   33.1740 C   0  0  0  0  0  0  0  0  0  0  0  0
   39.9860   26.0280   32.1200 C   0  0  0  0  0  0  0  0  0  0  0  0
   39.2020   27.0510   31.7270 C   0  0  0  0  0  0  0  0  0  0  0  0
   38.0810   27.2080   32.4560 C   0  0  0  0  0  0  0  0  0  0  0  0
   37.7650   26.4290   33.4780 N   0  0  0  0  0  0  0  0  0  0  0  0
   40.3240   24.4290   33.4380 H   0  0  0  0  0  0  0  0  0  0  0  0
   40.9400   25.8090   31.5860 H   0  0  0  0  0  0  0  0  0  0  0  0
   39.4150   27.7010   30.9150 H   0  0  0  0  0  0  0  0  0  0  0  0
   38.3080   25.2260   36.2970 C   0  0  0  0  0  0  0  0  0  0  0  0
   38.1970   24.5040   35.0610 C   0  0  0  0  0  0  0  0  0  0  0  0
   37.8760   23.1830   35.1450 C   0  0  0  0  0  0  0  0  0  0  0  0
   37.6870   22.6560   36.3930 N   0  0  0  0  0  0  0  0  0  0  0  0
   37.7930   23.3380   37.5310 C   0  0  0  0  0  0  0  0  0  0  0  0
   38.1070   24.6340   37.4580 N   0  0  0  0  0  0  0  0  0  0  0  0
   37.5580   22.6120   38.7190 N   0  0  0  0  0  0  0  0  0  0  0  0
   38.5550   26.2750   36.3810 H   0  0  0  0  0  0  0  0  0  0  0  0
   36.7990   21.9130   38.8750 H   0  0  0  0  0  0  0  0  0  0  0  0
   38.2080   22.7910   39.5220 H   0  0  0  0  0  0  0  0  0  0  0  0
   37.7510   22.4060   33.9230 C   0  0  0  0  0  0  0  0  0  0  0  0
   37.1720   21.2490   34.1930 F   0  0  0  0  0  0  0  0  0  0  0  0
   37.0490   23.0320   32.9060 F   0  0  0  0  0  0  0  0  0  0  0  0
   39.0400   22.1210   33.3600 F   0  0  0  0  0  0  0  0  0  0  0  0
   36.5870   28.4600   34.4210 F   0  0  0  0  0  0  0  0  0  0  0  0
   36.3820   28.9020   33.1440 C   0  0  0  0  0  0  0  0  0  0  0  0
   37.1230   28.2900   32.1480 C   0  0  0  0  0  0  0  0  0  0  0  0
   36.8820   28.7720   30.8880 C   0  0  0  0  0  0  0  0  0  0  0  0
   35.9770   29.7820   30.6390 C   0  0  0  0  0  0  0  0  0  0  0  0
   35.2700   30.3500   31.6790 C   0  0  0  0  0  0  0  0  0  0  0  0
   35.4710   29.9050   32.9630 C   0  0  0  0  0  0  0  0  0  0  0  0
   37.4380   28.3270   30.0590 H   0  0  0  0  0  0  0  0  0  0  0  0
   35.8060   30.1440   29.6320 H   0  0  0  0  0  0  0  0  0  0  0  0
   34.5640   31.1370   31.4930 H   0  0  0  0  0  0  0  0  0  0  0  0
   33.5780   29.9510   34.6140 C   0  0  0  0  0  3  0  0  0  0  0  0
   34.7580   30.4600   34.1140 C   0  0  0  0  0  0  0  0  0  0  0  0
   35.3510   31.5760   34.7120 C   0  0  0  0  0  0  0  0  0  0  0  0
   36.2780   32.0490   34.3940 H   0  0  0  0  0  0  0  0  0  0  0  0
   34.7750   32.1910   35.8080 C   0  0  0  0  0  0  0  0  0  0  0  0
   35.0980   33.2530   36.5830 N   0  0  0  0  0  0  0  0  0  0  0  0
   34.1600   33.4280   37.5520 C   0  0  0  0  0  0  0  0  0  0  0  0
   34.1620   34.2020   38.3130 H   0  0  0  0  0  0  0  0  0  0  0  0
   33.2390   32.4410   37.3580 N   0  0  0  0  0  0  0  0  0  0  0  0
   33.5920   31.6790   36.3070 C   0  0  0  0  0  0  0  0  0  0  0  0
   32.9950   30.5750   35.7230 C   0  0  0  0  0  3  0  0  0  0  0  0
   35.9530   33.8440   36.4400 H   0  0  0  0  0  0  0  0  0  0  0  0
  1 11  1  0  0  0  0
  2  7  1  0  0  0  0
  2  1  2  0  0  0  0
  3  2  1  0  0  0  0
  4  3  2  0  0  0  0
  4  5  1  0  0  0  0
  5  6  2  0  0  0  0
  6  1  1  0  0  0  0
  8  3  1  0  0  0  0
  9  4  1  0  0  0  0
 10 17  1  0  0  0  0
 10 15  1  0  0  0  0
 11 12  1  0  0  0  0
 11 10  2  0  0  0  0
 12 13  2  0  0  0  0
 13 14  1  0  0  0  0
 14 16  1  0  0  0  0
 15 14  2  0  0  0  0
 16 18  1  0  0  0  0
 16 19  1  0  0  0  0
 20 21  1  0  0  0  0
 20 12  1  0  0  0  0
 22 20  1  0  0  0  0
 23 20  1  0  0  0  0
 25 24  1  0  0  0  0
 26  5  1  0  0  0  0
 26 25  2  0  0  0  0
 27 26  1  0  0  0  0
 28 27  2  0  0  0  0
 28 29  1  0  0  0  0
 29 30  2  0  0  0  0
 30 25  1  0  0  0  0
 30 35  1  0  0  0  0
 31 27  1  0  0  0  0
 32 28  1  0  0  0  0
 33 29  1  0  0  0  0
 34 44  1  0  0  0  0
 35 34  2  0  0  0  0
 35 36  1  0  0  0  0
 36 38  2  0  0  0  0
 37 36  1  0  0  0  0
 38 43  1  0  0  0  0
 38 39  1  0  0  0  0
 39 40  1  0  0  0  0
 40 41  1  0  0  0  0
 42 40  2  0  0  0  0
 43 42  1  0  0  0  0
 44 43  2  0  0  0  0
 45 39  1  0  0  0  0
M  END
>  <minimizedAffinity>
-7.21499491

$$$$

 OpenBabel03262520263D

 45 49  0  0  0  0  0  0  0  0999 V2000
   37.8120   22.3370   31.8270 C   0  0  0  0  0  0  0  0  0  0  0  0
   38.4210   21.4810   30.8990 C   0  0  0  0  0  0  0  0  0  0  0  0
   39.1520   21.8680   29.8240 C   0  0  0  0  0  0  0  0  0  0  0  0
   39.3470   23.1770   29.5710 C   0  0  0  0  0  0  0  0  0  0  0  0
   38.7660   24.0090   30.4560 C   0  0  0  0  0  0  0  0  0  0  0  0
   38.0600   23.5880   31.4930 N   0  0  0  0  0  0  0  0  0  0  0  0
   38.3050   20.3810   31.0400 H   0  0  0  0  0  0  0  0  0  0  0  0
   39.5890   21.0910   29.1530 H   0  0  0  0  0  0  0  0  0  0  0  0
   39.9040   23.5600   28.7530 H   0  0  0  0  0  0  0  0  0  0  0  0
   37.7250   22.1000   34.1820 C   0  0  0  0  0  0  0  0  0  0  0  0
   37.0580   21.7800   32.9510 C   0  0  0  0  0  0  0  0  0  0  0  0
   35.9030   21.0650   33.0430 C   0  0  0  0  0  0  0  0  0  0  0  0
   35.4750   20.7110   34.2940 N   0  0  0  0  0  0  0  0  0  0  0  0
   36.1040   21.0150   35.4270 C   0  0  0  0  0  0  0  0  0  0  0  0
   37.2370   21.7170   35.3460 N   0  0  0  0  0  0  0  0  0  0  0  0
   35.5000   20.5590   36.6190 N   0  0  0  0  0  0  0  0  0  0  0  0
   38.6470   22.6600   34.2590 H   0  0  0  0  0  0  0  0  0  0  0  0
   34.4810   20.5840   36.8420 H   0  0  0  0  0  0  0  0  0  0  0  0
   36.1350   20.1560   37.3500 H   0  0  0  0  0  0  0  0  0  0  0  0
   35.1880   20.7140   31.8270 C   0  0  0  0  0  0  0  0  0  0  0  0
   33.9660   20.3150   32.1320 F   0  0  0  0  0  0  0  0  0  0  0  0
   35.1070   21.7300   30.8880 F   0  0  0  0  0  0  0  0  0  0  0  0
   35.8360   19.6320   31.1430 F   0  0  0  0  0  0  0  0  0  0  0  0
   36.9620   25.7650   31.6050 F   0  0  0  0  0  0  0  0  0  0  0  0
   37.9800   26.3370   30.8930 C   0  0  0  0  0  0  0  0  0  0  0  0
   38.8930   25.4740   30.3130 C   0  0  0  0  0  0  0  0  0  0  0  0
   39.8930   26.0980   29.6140 C   0  0  0  0  0  0  0  0  0  0  0  0
   39.9780   27.4690   29.5020 C   0  0  0  0  0  0  0  0  0  0  0  0
   39.0330   28.2740   30.1050 C   0  0  0  0  0  0  0  0  0  0  0  0
   38.0070   27.7020   30.8180 C   0  0  0  0  0  0  0  0  0  0  0  0
   40.6470   25.4690   29.1340 H   0  0  0  0  0  0  0  0  0  0  0  0
   40.7800   27.9360   28.9420 H   0  0  0  0  0  0  0  0  0  0  0  0
   39.0920   29.3410   30.0220 H   0  0  0  0  0  0  0  0  0  0  0  0
   36.6520   28.3830   32.8220 C   0  0  0  0  0  3  0  0  0  0  0  0
   36.9700   28.4900   31.4840 C   0  0  0  0  0  0  0  0  0  0  0  0
   36.2830   29.3960   30.6700 C   0  0  0  0  0  0  0  0  0  0  0  0
   36.4590   29.5550   29.6070 H   0  0  0  0  0  0  0  0  0  0  0  0
   35.2800   30.1990   31.1810 C   0  0  0  0  0  0  0  0  0  0  0  0
   34.4600   31.1420   30.6630 N   0  0  0  0  0  0  0  0  0  0  0  0
   33.6380   31.6310   31.6310 C   0  0  0  0  0  0  0  0  0  0  0  0
   32.8790   32.3970   31.5020 H   0  0  0  0  0  0  0  0  0  0  0  0
   33.9710   30.9610   32.7710 N   0  0  0  0  0  0  0  0  0  0  0  0
   34.9640   30.0880   32.5220 C   0  0  0  0  0  0  0  0  0  0  0  0
   35.6370   29.1950   33.3370 C   0  0  0  0  0  3  0  0  0  0  0  0
   34.4700   31.4410   29.6570 H   0  0  0  0  0  0  0  0  0  0  0  0
  1 11  1  0  0  0  0
  2  7  1  0  0  0  0
  2  1  2  0  0  0  0
  3  2  1  0  0  0  0
  4  3  2  0  0  0  0
  4  5  1  0  0  0  0
  5  6  2  0  0  0  0
  6  1  1  0  0  0  0
  8  3  1  0  0  0  0
  9  4  1  0  0  0  0
 10 17  1  0  0  0  0
 10 15  1  0  0  0  0
 11 12  1  0  0  0  0
 11 10  2  0  0  0  0
 12 13  2  0  0  0  0
 13 14  1  0  0  0  0
 14 16  1  0  0  0  0
 15 14  2  0  0  0  0
 16 18  1  0  0  0  0
 16 19  1  0  0  0  0
 20 21  1  0  0  0  0
 20 12  1  0  0  0  0
 22 20  1  0  0  0  0
 23 20  1  0  0  0  0
 25 24  1  0  0  0  0
 26  5  1  0  0  0  0
 26 25  2  0  0  0  0
 27 26  1  0  0  0  0
 28 27  2  0  0  0  0
 28 29  1  0  0  0  0
 29 30  2  0  0  0  0
 30 25  1  0  0  0  0
 30 35  1  0  0  0  0
 31 27  1  0  0  0  0
 32 28  1  0  0  0  0
 33 29  1  0  0  0  0
 34 44  1  0  0  0  0
 35 34  2  0  0  0  0
 36 38  2  0  0  0  0
 36 35  1  0  0  0  0
 37 36  1  0  0  0  0
 38 43  1  0  0  0  0
 39 38  1  0  0  0  0
 39 40  1  0  0  0  0
 40 42  2  0  0  0  0
 41 40  1  0  0  0  0
 43 42  1  0  0  0  0
 43 44  2  0  0  0  0
 45 39  1  0  0  0  0
M  END
>  <minimizedAffinity>
-7.20567894

$$$$
