
 OpenBabel03262520253D

 45 49  0  0  0  0  0  0  0  0999 V2000
   33.7380   28.8970   47.3990 C   0  0  0  0  0  0  0  0  0  0  0  0
   33.6440   28.2400   48.6340 C   0  0  0  0  0  0  0  0  0  0  0  0
   34.5100   28.3720   49.6700 C   0  0  0  0  0  0  0  0  0  0  0  0
   35.5740   29.1920   49.5650 C   0  0  0  0  0  0  0  0  0  0  0  0
   35.6740   29.8280   48.3830 C   0  0  0  0  0  0  0  0  0  0  0  0
   34.8050   29.6700   47.3970 N   0  0  0  0  0  0  0  0  0  0  0  0
   32.7900   27.5430   48.7980 H   0  0  0  0  0  0  0  0  0  0  0  0
   34.3310   27.7950   50.6080 H   0  0  0  0  0  0  0  0  0  0  0  0
   36.2950   29.3500   50.3270 H   0  0  0  0  0  0  0  0  0  0  0  0
   31.5150   29.3600   46.7240 C   0  0  0  0  0  0  0  0  0  0  0  0
   32.7230   28.6670   46.3700 C   0  0  0  0  0  0  0  0  0  0  0  0
   32.7120   27.9670   45.2030 C   0  0  0  0  0  0  0  0  0  0  0  0
   31.5590   27.9810   44.4660 N   0  0  0  0  0  0  0  0  0  0  0  0
   30.4470   28.6300   44.8060 C   0  0  0  0  0  0  0  0  0  0  0  0
   30.4490   29.3190   45.9500 N   0  0  0  0  0  0  0  0  0  0  0  0
   29.3620   28.5220   43.9100 N   0  0  0  0  0  0  0  0  0  0  0  0
   31.3810   29.9530   47.6180 H   0  0  0  0  0  0  0  0  0  0  0  0
   29.4150   28.5730   42.8680 H   0  0  0  0  0  0  0  0  0  0  0  0
   28.4110   28.3770   44.3280 H   0  0  0  0  0  0  0  0  0  0  0  0
   33.9080   27.2470   44.7980 C   0  0  0  0  0  0  0  0  0  0  0  0
   34.2950   26.4460   45.7750 F   0  0  0  0  0  0  0  0  0  0  0  0
   33.7720   26.5030   43.6360 F   0  0  0  0  0  0  0  0  0  0  0  0
   34.9880   28.1530   44.5300 F   0  0  0  0  0  0  0  0  0  0  0  0
   36.8390   30.0670   45.8830 F   0  0  0  0  0  0  0  0  0  0  0  0
   37.3580   30.8680   46.8630 C   0  0  0  0  0  0  0  0  0  0  0  0
   36.7860   30.7640   48.1190 C   0  0  0  0  0  0  0  0  0  0  0  0
   37.3420   31.5890   49.0610 C   0  0  0  0  0  0  0  0  0  0  0  0
   38.3810   32.4490   48.7770 C   0  0  0  0  0  0  0  0  0  0  0  0
   38.9070   32.5030   47.5020 C   0  0  0  0  0  0  0  0  0  0  0  0
   38.3890   31.6980   46.5180 C   0  0  0  0  0  0  0  0  0  0  0  0
   36.9310   31.5530   50.0740 H   0  0  0  0  0  0  0  0  0  0  0  0
   38.8020   33.0910   49.5430 H   0  0  0  0  0  0  0  0  0  0  0  0
   39.7160   33.1690   47.2740 H   0  0  0  0  0  0  0  0  0  0  0  0
   38.6700   32.7140   44.2370 C   0  0  0  0  0  0  0  0  0  0  0  0
   38.8940   31.7000   45.1450 C   0  0  0  0  0  0  0  0  0  0  0  0
   39.6480   30.5820   44.7750 C   0  0  0  0  0  0  0  0  0  0  0  0
   39.8800   29.7330   45.4160 H   0  0  0  0  0  0  0  0  0  0  0  0
   40.1810   30.4660   43.5050 C   0  0  0  0  0  0  0  0  0  0  0  0
   40.9290   29.5360   42.8680 N   0  0  0  0  0  0  0  0  0  0  0  0
   41.1830   29.9310   41.5920 C   0  0  0  0  0  0  0  0  0  0  0  0
   41.7580   29.3830   40.8520 H   0  0  0  0  0  0  0  0  0  0  0  0
   40.5660   31.1400   41.4510 N   0  0  0  0  0  0  0  0  0  0  0  0
   39.9540   31.4840   42.5980 C   0  0  0  0  0  0  0  0  0  0  0  0
   39.2090   32.5950   42.9520 C   0  0  0  0  0  0  0  0  0  0  0  0
   41.2580   28.6430   43.3110 H   0  0  0  0  0  0  0  0  0  0  0  0
  1  2  1  0  0  0  0
  2  7  1  0  0  0  0
  2  3  2  0  0  0  0
  3  8  1  0  0  0  0
  4  3  1  0  0  0  0
  4  9  1  0  0  0  0
  5  4  2  0  0  0  0
  6  1  2  0  0  0  0
  6  5  1  0  0  0  0
 10 17  1  0  0  0  0
 11 10  1  0  0  0  0
 11  1  1  0  0  0  0
 12 11  2  0  0  0  0
 13 14  2  0  0  0  0
 13 12  1  0  0  0  0
 14 15  1  0  0  0  0
 15 10  2  0  0  0  0
 16 19  1  0  0  0  0
 16 14  1  0  0  0  0
 18 16  1  0  0  0  0
 20 12  1  0  0  0  0
 20 21  1  0  0  0  0
 22 20  1  0  0  0  0
 23 20  1  0  0  0  0
 24 25  1  0  0  0  0
 25 26  1  0  0  0  0
 26  5  1  0  0  0  0
 26 27  2  0  0  0  0
 27 31  1  0  0  0  0
 28 27  1  0  0  0  0
 28 32  1  0  0  0  0
 29 28  2  0  0  0  0
 30 25  2  0  0  0  0
 30 29  1  0  0  0  0
 33 29  1  0  0  0  0
 34 35  1  0  0  0  0
 35 30  1  0  0  0  0
 36 35  2  0  0  0  0
 36 37  1  0  0  0  0
 38 36  1  0  0  0  0
 39 45  1  0  0  0  0
 39 38  1  0  0  0  0
 40 39  1  0  0  0  0
 41 40  1  0  0  0  0
 42 40  2  0  0  0  0
 42 43  1  0  0  0  0
 43 44  1  0  0  0  0
 43 38  2  0  0  0  0
 44 34  2  0  0  0  0
M  END
>  <minimizedAffinity>
-7.33142471

>  <minimizedRMSD>
5.89422083

$$$$
