
 OpenBabel03262521503D

 35 38  0  0  1  0  0  0  0  0999 V2000
   42.8920   24.7340   33.4330 C   0  0  0  0  0  0  0  0  0  0  0  0
   42.6990   26.1120   33.5480 C   0  0  0  0  0  0  0  0  0  0  0  0
   41.6890   26.5620   34.4320 C   0  0  0  0  0  0  0  0  0  0  0  0
   40.9810   25.6170   35.1050 N   0  0  0  0  0  0  0  0  0  0  0  0
   41.1930   24.3050   34.9690 C   0  0  0  0  0  0  0  0  0  0  0  0
   42.1600   23.8630   34.1230 N   0  0  0  0  0  0  0  0  0  0  0  0
   40.4270   23.3750   35.6790 N   0  0  0  0  0  0  0  0  0  0  0  0
   40.9600   22.0790   36.0950 C   0  0  0  0  0  0  0  0  0  0  0  0
   40.7740   21.8840   37.5450 C   0  0  0  0  0  0  0  0  0  0  0  0
   39.8830   22.7350   38.1950 N   0  0  0  0  0  0  0  0  0  0  0  0
   38.8600   23.4100   37.5000 C   0  0  0  0  0  0  0  0  0  0  0  0
   39.0560   23.6270   36.0370 C   0  0  1  0  0  0  0  0  0  0  0  0
   43.6770   24.4570   32.7410 H   0  0  0  0  0  0  0  0  0  0  0  0
   43.2240   26.8920   33.0460 H   0  0  0  0  0  0  0  0  0  0  0  0
   41.4300   27.5970   34.6210 H   0  0  0  0  0  0  0  0  0  0  0  0
   41.9840   21.9280   35.7020 H   0  0  0  0  0  0  0  0  0  0  0  0
   40.3290   21.3310   35.5330 H   0  0  0  0  0  0  0  0  0  0  0  0
   40.4780   20.8200   37.7320 H   0  0  0  0  0  0  0  0  0  0  0  0
   41.7860   21.9770   38.0370 H   0  0  0  0  0  0  0  0  0  0  0  0
   39.5270   22.3500   39.0800 H   0  0  0  0  0  0  0  0  0  0  0  0
   37.8930   22.9070   37.7000 H   0  0  0  0  0  0  0  0  0  0  0  0
   38.7570   24.4210   37.9970 H   0  0  0  0  0  0  0  0  0  0  0  0
   38.5240   22.7170   35.5570 H   0  0  0  0  0  0  0  0  0  0  0  0
   38.1520   26.0420   35.9800 C   0  0  0  0  0  3  0  0  0  0  0  0
   38.4300   24.8000   35.4490 C   0  0  0  0  0  0  0  0  0  0  0  0
   38.0200   24.6280   34.1170 C   0  0  0  0  0  0  0  0  0  0  0  0
   38.1780   23.6850   33.5680 H   0  0  0  0  0  0  0  0  0  0  0  0
   37.3990   25.6200   33.4210 C   0  0  0  0  0  0  0  0  0  0  0  0
   36.9210   25.6820   32.1440 N   0  0  0  0  0  0  0  0  0  0  0  0
   36.3890   26.8930   31.9280 C   0  0  0  0  0  0  0  0  0  0  0  0
   35.9410   27.1990   30.9960 H   0  0  0  0  0  0  0  0  0  0  0  0
   36.5190   27.6070   33.0450 N   0  0  0  0  0  0  0  0  0  0  0  0
   37.1330   26.8520   33.9720 C   0  0  0  0  0  0  0  0  0  0  0  0
   37.5240   27.0500   35.2790 C   0  0  0  0  0  3  0  0  0  0  0  0
   36.9520   24.9110   31.4170 H   0  0  0  0  0  0  0  0  0  0  0  0
  1  2  2  0  0  0  0
  1  6  1  0  0  0  0
  2  3  1  0  0  0  0
  3 15  1  0  0  0  0
  3  4  2  0  0  0  0
  5  4  1  0  0  0  0
  5  7  1  0  0  0  0
  6  5  2  0  0  0  0
  7 12  1  0  0  0  0
  7  8  1  0  0  0  0
  8  9  1  0  0  0  0
  9 18  1  0  0  0  0
  9 19  1  0  0  0  0
  9 10  1  0  0  0  0
 10 20  1  0  0  0  0
 11 21  1  0  0  0  0
 11 22  1  0  0  0  0
 11 10  1  0  0  0  0
 12 23  1  6  0  0  0
 12 11  1  0  0  0  0
 13  1  1  0  0  0  0
 14  2  1  0  0  0  0
 16  8  1  0  0  0  0
 17  8  1  0  0  0  0
 25 24  1  0  0  0  0
 25 12  1  0  0  0  0
 26 25  2  0  0  0  0
 27 26  1  0  0  0  0
 28 33  2  0  0  0  0
 28 26  1  0  0  0  0
 29 28  1  0  0  0  0
 30 29  1  0  0  0  0
 30 32  2  0  0  0  0
 31 30  1  0  0  0  0
 32 33  1  0  0  0  0
 33 34  1  0  0  0  0
 34 24  2  0  0  0  0
 35 29  1  0  0  0  0
M  END
>  <minimizedAffinity>
-5.582973

$$$$

 OpenBabel03262521503D

 35 38  0  0  1  0  0  0  0  0999 V2000
   37.8860   23.9340   30.3900 C   0  0  0  0  0  0  0  0  0  0  0  0
   37.6010   22.8430   31.2130 C   0  0  0  0  0  0  0  0  0  0  0  0
   37.3260   23.1020   32.5770 C   0  0  0  0  0  0  0  0  0  0  0  0
   37.3610   24.3980   32.9860 N   0  0  0  0  0  0  0  0  0  0  0  0
   37.6390   25.4180   32.1700 C   0  0  0  0  0  0  0  0  0  0  0  0
   37.9030   25.1800   30.8590 N   0  0  0  0  0  0  0  0  0  0  0  0
   37.6720   26.7320   32.6460 N   0  0  0  0  0  0  0  0  0  0  0  0
   37.3230   27.8770   31.8060 C   0  0  0  0  0  0  0  0  0  0  0  0
   36.2830   28.6970   32.4550 C   0  0  0  0  0  0  0  0  0  0  0  0
   36.0500   28.4800   33.8100 N   0  0  0  0  0  0  0  0  0  0  0  0
   37.0220   27.8950   34.6460 C   0  0  0  0  0  0  0  0  0  0  0  0
   38.0630   27.0480   33.9950 C   0  0  1  0  0  0  0  0  0  0  0  0
   38.0870   23.6670   29.3600 H   0  0  0  0  0  0  0  0  0  0  0  0
   37.5610   21.8120   30.9430 H   0  0  0  0  0  0  0  0  0  0  0  0
   37.0900   22.3570   33.3270 H   0  0  0  0  0  0  0  0  0  0  0  0
   37.1260   27.5580   30.7650 H   0  0  0  0  0  0  0  0  0  0  0  0
   38.2810   28.4710   31.7420 H   0  0  0  0  0  0  0  0  0  0  0  0
   36.5180   29.7800   32.2840 H   0  0  0  0  0  0  0  0  0  0  0  0
   35.3170   28.5360   31.8910 H   0  0  0  0  0  0  0  0  0  0  0  0
   35.6020   29.2790   34.2780 H   0  0  0  0  0  0  0  0  0  0  0  0
   37.4860   28.6860   35.2680 H   0  0  0  0  0  0  0  0  0  0  0  0
   36.4550   27.2540   35.3860 H   0  0  0  0  0  0  0  0  0  0  0  0
   38.9350   27.7870   33.8120 H   0  0  0  0  0  0  0  0  0  0  0  0
   39.7630   25.2040   34.5980 C   0  0  0  0  0  3  0  0  0  0  0  0
   38.6280   25.9650   34.7840 C   0  0  0  0  0  0  0  0  0  0  0  0
   37.8720   25.6220   35.9170 C   0  0  0  0  0  0  0  0  0  0  0  0
   36.9400   26.1470   36.1860 H   0  0  0  0  0  0  0  0  0  0  0  0
   38.2480   24.6170   36.7550 C   0  0  0  0  0  0  0  0  0  0  0  0
   37.6850   24.1160   37.8940 N   0  0  0  0  0  0  0  0  0  0  0  0
   38.4440   23.1150   38.3600 C   0  0  0  0  0  0  0  0  0  0  0  0
   38.2200   22.5490   39.2490 H   0  0  0  0  0  0  0  0  0  0  0  0
   39.4830   22.9670   37.5380 N   0  0  0  0  0  0  0  0  0  0  0  0
   39.3860   23.8730   36.5500 C   0  0  0  0  0  0  0  0  0  0  0  0
   40.1470   24.1860   35.4440 C   0  0  0  0  0  3  0  0  0  0  0  0
   36.7920   24.4470   38.3580 H   0  0  0  0  0  0  0  0  0  0  0  0
  1  6  2  0  0  0  0
  1  2  1  0  0  0  0
  2  3  2  0  0  0  0
  3  4  1  0  0  0  0
  3 15  1  0  0  0  0
  5  7  1  0  0  0  0
  5  4  2  0  0  0  0
  6  5  1  0  0  0  0
  7 12  1  0  0  0  0
  8  9  1  0  0  0  0
  8  7  1  0  0  0  0
  9 10  1  0  0  0  0
 10 20  1  0  0  0  0
 10 11  1  0  0  0  0
 11 21  1  0  0  0  0
 11 22  1  0  0  0  0
 12 23  1  6  0  0  0
 12 11  1  0  0  0  0
 12 25  1  0  0  0  0
 13  1  1  0  0  0  0
 14  2  1  0  0  0  0
 16  8  1  0  0  0  0
 17  8  1  0  0  0  0
 18  9  1  0  0  0  0
 19  9  1  0  0  0  0
 24 25  2  0  0  0  0
 24 34  1  0  0  0  0
 25 26  1  0  0  0  0
 26 27  1  0  0  0  0
 26 28  2  0  0  0  0
 28 29  1  0  0  0  0
 29 35  1  0  0  0  0
 29 30  1  0  0  0  0
 30 31  1  0  0  0  0
 32 30  2  0  0  0  0
 33 28  1  0  0  0  0
 33 32  1  0  0  0  0
 34 33  2  0  0  0  0
M  END
>  <minimizedAffinity>
-5.40690041

$$$$

 OpenBabel03262521503D

 35 38  0  0  1  0  0  0  0  0999 V2000
   39.5420   22.3030   36.3490 C   0  0  0  0  0  0  0  0  0  0  0  0
   38.3810   22.3510   35.5760 C   0  0  0  0  0  0  0  0  0  0  0  0
   38.2930   23.3580   34.5850 C   0  0  0  0  0  0  0  0  0  0  0  0
   39.3470   24.2060   34.4600 N   0  0  0  0  0  0  0  0  0  0  0  0
   40.4440   24.1310   35.2190 C   0  0  0  0  0  0  0  0  0  0  0  0
   40.5380   23.1680   36.1730 N   0  0  0  0  0  0  0  0  0  0  0  0
   41.4960   25.0370   35.0550 N   0  0  0  0  0  0  0  0  0  0  0  0
   42.8870   24.6760   35.3250 C   0  0  0  0  0  0  0  0  0  0  0  0
   43.7350   24.9720   34.1550 C   0  0  0  0  0  0  0  0  0  0  0  0
   43.2020   25.8030   33.1730 N   0  0  0  0  0  0  0  0  0  0  0  0
   42.1510   26.7000   33.4500 C   0  0  0  0  0  0  0  0  0  0  0  0
   41.2790   26.3910   34.6200 C   0  0  1  0  0  0  0  0  0  0  0  0
   39.5450   21.5110   37.0880 H   0  0  0  0  0  0  0  0  0  0  0  0
   37.5280   21.7130   35.6320 H   0  0  0  0  0  0  0  0  0  0  0  0
   37.4550   23.5140   33.9140 H   0  0  0  0  0  0  0  0  0  0  0  0
   42.9570   23.6520   35.7420 H   0  0  0  0  0  0  0  0  0  0  0  0
   43.1830   25.3480   36.1810 H   0  0  0  0  0  0  0  0  0  0  0  0
   44.7100   25.3930   34.5130 H   0  0  0  0  0  0  0  0  0  0  0  0
   44.0210   23.9880   33.6800 H   0  0  0  0  0  0  0  0  0  0  0  0
   43.9190   26.2530   32.5890 H   0  0  0  0  0  0  0  0  0  0  0  0
   42.5630   27.7270   33.5220 H   0  0  0  0  0  0  0  0  0  0  0  0
   41.5050   26.7220   32.5230 H   0  0  0  0  0  0  0  0  0  0  0  0
   41.7670   26.9890   35.4840 H   0  0  0  0  0  0  0  0  0  0  0  0
   38.9990   27.1470   35.5620 C   0  0  0  0  0  3  0  0  0  0  0  0
   39.9000   26.8470   34.5610 C   0  0  0  0  0  0  0  0  0  0  0  0
   39.3940   26.9850   33.2580 C   0  0  0  0  0  0  0  0  0  0  0  0
   40.0040   26.7770   32.3630 H   0  0  0  0  0  0  0  0  0  0  0  0
   38.1140   27.3830   33.0210 C   0  0  0  0  0  0  0  0  0  0  0  0
   37.4160   27.5850   31.8650 N   0  0  0  0  0  0  0  0  0  0  0  0
   36.1720   27.9820   32.1620 C   0  0  0  0  0  0  0  0  0  0  0  0
   35.4170   28.2070   31.4260 H   0  0  0  0  0  0  0  0  0  0  0  0
   36.0610   28.0380   33.4890 N   0  0  0  0  0  0  0  0  0  0  0  0
   37.2340   27.6780   34.0360 C   0  0  0  0  0  0  0  0  0  0  0  0
   37.7030   27.5510   35.3270 C   0  0  0  0  0  3  0  0  0  0  0  0
   37.7770   27.4550   30.8770 H   0  0  0  0  0  0  0  0  0  0  0  0
  1 13  1  0  0  0  0
  2 14  1  0  0  0  0
  2  1  2  0  0  0  0
  3  2  1  0  0  0  0
  4  3  2  0  0  0  0
  4  5  1  0  0  0  0
  5  6  2  0  0  0  0
  6  1  1  0  0  0  0
  7  5  1  0  0  0  0
  7  8  1  0  0  0  0
  8 16  1  0  0  0  0
  8 17  1  0  0  0  0
  9 18  1  0  0  0  0
  9  8  1  0  0  0  0
 10 11  1  0  0  0  0
 10  9  1  0  0  0  0
 11 21  1  0  0  0  0
 11 12  1  0  0  0  0
 12  7  1  0  0  0  0
 12 23  1  1  0  0  0
 15  3  1  0  0  0  0
 19  9  1  0  0  0  0
 20 10  1  0  0  0  0
 22 11  1  0  0  0  0
 25 12  1  0  0  0  0
 25 24  2  0  0  0  0
 26 25  1  0  0  0  0
 27 26  1  0  0  0  0
 28 26  2  0  0  0  0
 28 33  1  0  0  0  0
 29 30  1  0  0  0  0
 29 28  1  0  0  0  0
 30 32  2  0  0  0  0
 31 30  1  0  0  0  0
 32 33  1  0  0  0  0
 33 34  2  0  0  0  0
 34 24  1  0  0  0  0
 35 29  1  0  0  0  0
M  END
>  <minimizedAffinity>
-5.385674

$$$$

 OpenBabel03262521503D

 35 38  0  0  1  0  0  0  0  0999 V2000
   30.5030   31.1050   33.5080 C   0  0  0  0  0  0  0  0  0  0  0  0
   30.6660   29.7380   33.2790 C   0  0  0  0  0  0  0  0  0  0  0  0
   31.8860   29.1440   33.6850 C   0  0  0  0  0  0  0  0  0  0  0  0
   32.8090   29.9520   34.2700 N   0  0  0  0  0  0  0  0  0  0  0  0
   32.6180   31.2590   34.4740 C   0  0  0  0  0  0  0  0  0  0  0  0
   31.4520   31.8370   34.0870 N   0  0  0  0  0  0  0  0  0  0  0  0
   33.6080   32.0450   35.0710 N   0  0  0  0  0  0  0  0  0  0  0  0
   33.2890   33.2170   35.8850 C   0  0  0  0  0  0  0  0  0  0  0  0
   33.9350   33.1200   37.2070 C   0  0  0  0  0  0  0  0  0  0  0  0
   34.9500   32.1790   37.3550 N   0  0  0  0  0  0  0  0  0  0  0  0
   35.6700   31.6830   36.2490 C   0  0  0  0  0  0  0  0  0  0  0  0
   35.0100   31.7610   34.9140 C   0  0  1  0  0  0  0  0  0  0  0  0
   29.5500   31.4960   33.1730 H   0  0  0  0  0  0  0  0  0  0  0  0
   29.9770   29.0620   32.8260 H   0  0  0  0  0  0  0  0  0  0  0  0
   32.1490   28.0990   33.5710 H   0  0  0  0  0  0  0  0  0  0  0  0
   32.2000   33.4190   35.8780 H   0  0  0  0  0  0  0  0  0  0  0  0
   33.7380   34.0790   35.3120 H   0  0  0  0  0  0  0  0  0  0  0  0
   34.3180   34.1320   37.4980 H   0  0  0  0  0  0  0  0  0  0  0  0
   33.1290   32.9040   37.9680 H   0  0  0  0  0  0  0  0  0  0  0  0
   35.5850   32.3860   38.1370 H   0  0  0  0  0  0  0  0  0  0  0  0
   36.6700   32.1610   36.2260 H   0  0  0  0  0  0  0  0  0  0  0  0
   35.8840   30.5960   36.4760 H   0  0  0  0  0  0  0  0  0  0  0  0
   35.3980   32.7620   34.4800 H   0  0  0  0  0  0  0  0  0  0  0  0
   35.2830   30.7450   32.5590 C   0  0  0  0  0  3  0  0  0  0  0  0
   35.3680   30.7470   33.9350 C   0  0  0  0  0  0  0  0  0  0  0  0
   35.8640   29.5570   34.4930 C   0  0  0  0  0  0  0  0  0  0  0  0
   35.9830   29.4200   35.5800 H   0  0  0  0  0  0  0  0  0  0  0  0
   36.2280   28.4980   33.7200 C   0  0  0  0  0  0  0  0  0  0  0  0
   36.7270   27.2650   34.0310 N   0  0  0  0  0  0  0  0  0  0  0  0
   36.9290   26.5710   32.9030 C   0  0  0  0  0  0  0  0  0  0  0  0
   37.3170   25.5660   32.8730 H   0  0  0  0  0  0  0  0  0  0  0  0
   36.5670   27.3380   31.8750 N   0  0  0  0  0  0  0  0  0  0  0  0
   36.1360   28.5200   32.3480 C   0  0  0  0  0  0  0  0  0  0  0  0
   35.6510   29.6750   31.7720 C   0  0  0  0  0  3  0  0  0  0  0  0
   36.9320   26.8920   35.0020 H   0  0  0  0  0  0  0  0  0  0  0  0
  1  6  1  0  0  0  0
  2  1  2  0  0  0  0
  2  3  1  0  0  0  0
  3  4  2  0  0  0  0
  4  5  1  0  0  0  0
  5  7  1  0  0  0  0
  6  5  2  0  0  0  0
  7  8  1  0  0  0  0
  8  9  1  0  0  0  0
  9 10  1  0  0  0  0
  9 18  1  0  0  0  0
  9 19  1  0  0  0  0
 10 20  1  0  0  0  0
 11 22  1  0  0  0  0
 11 10  1  0  0  0  0
 12 23  1  6  0  0  0
 12  7  1  0  0  0  0
 12 11  1  0  0  0  0
 13  1  1  0  0  0  0
 14  2  1  0  0  0  0
 15  3  1  0  0  0  0
 16  8  1  0  0  0  0
 17  8  1  0  0  0  0
 21 11  1  0  0  0  0
 24 25  1  0  0  0  0
 25 26  2  0  0  0  0
 25 12  1  0  0  0  0
 26 27  1  0  0  0  0
 28 29  1  0  0  0  0
 28 26  1  0  0  0  0
 29 35  1  0  0  0  0
 30 29  1  0  0  0  0
 31 30  1  0  0  0  0
 32 33  1  0  0  0  0
 32 30  2  0  0  0  0
 33 28  2  0  0  0  0
 34 33  1  0  0  0  0
 34 24  2  0  0  0  0
M  END
>  <minimizedAffinity>
-5.32572126

$$$$

 OpenBabel03262521503D

 35 38  0  0  1  0  0  0  0  0999 V2000
   36.6080   27.0830   30.7390 C   0  0  0  0  0  0  0  0  0  0  0  0
   35.8820   27.5610   31.8310 C   0  0  0  0  0  0  0  0  0  0  0  0
   36.5920   27.8290   33.0260 C   0  0  0  0  0  0  0  0  0  0  0  0
   37.9310   27.5990   33.0220 N   0  0  0  0  0  0  0  0  0  0  0  0
   38.5940   27.1400   31.9560 C   0  0  0  0  0  0  0  0  0  0  0  0
   37.9220   26.8810   30.8050 N   0  0  0  0  0  0  0  0  0  0  0  0
   39.9720   26.9120   32.0110 N   0  0  0  0  0  0  0  0  0  0  0  0
   40.8340   27.0500   30.8370 C   0  0  0  0  0  0  0  0  0  0  0  0
   41.9550   27.9640   31.1230 C   0  0  0  0  0  0  0  0  0  0  0  0
   42.2090   28.2660   32.4580 N   0  0  0  0  0  0  0  0  0  0  0  0
   41.7830   27.4230   33.5040 C   0  0  0  0  0  0  0  0  0  0  0  0
   40.6350   26.5130   33.2240 C   0  0  1  0  0  0  0  0  0  0  0  0
   36.0060   26.8990   29.8580 H   0  0  0  0  0  0  0  0  0  0  0  0
   34.8350   27.7580   31.8870 H   0  0  0  0  0  0  0  0  0  0  0  0
   36.1600   28.2020   33.9480 H   0  0  0  0  0  0  0  0  0  0  0  0
   40.2360   27.2670   29.9310 H   0  0  0  0  0  0  0  0  0  0  0  0
   41.2340   26.0080   30.6680 H   0  0  0  0  0  0  0  0  0  0  0  0
   42.8850   27.5550   30.6490 H   0  0  0  0  0  0  0  0  0  0  0  0
   41.7650   28.9270   30.5640 H   0  0  0  0  0  0  0  0  0  0  0  0
   43.1700   28.5930   32.6250 H   0  0  0  0  0  0  0  0  0  0  0  0
   42.6550   26.8560   33.8890 H   0  0  0  0  0  0  0  0  0  0  0  0
   41.4940   28.1050   34.3590 H   0  0  0  0  0  0  0  0  0  0  0  0
   41.1470   25.5290   32.8910 H   0  0  0  0  0  0  0  0  0  0  0  0
   39.2710   26.9080   35.3780 C   0  0  0  0  0  3  0  0  0  0  0  0
   39.7850   26.1500   34.3460 C   0  0  0  0  0  0  0  0  0  0  0  0
   39.4480   24.7880   34.3980 C   0  0  0  0  0  0  0  0  0  0  0  0
   39.7910   24.0660   33.6380 H   0  0  0  0  0  0  0  0  0  0  0  0
   38.6750   24.2750   35.3940 C   0  0  0  0  0  0  0  0  0  0  0  0
   38.2260   23.0100   35.6460 N   0  0  0  0  0  0  0  0  0  0  0  0
   37.4870   23.0160   36.7630 C   0  0  0  0  0  0  0  0  0  0  0  0
   37.0160   22.1420   37.1810 H   0  0  0  0  0  0  0  0  0  0  0  0
   37.4550   24.2640   37.2310 N   0  0  0  0  0  0  0  0  0  0  0  0
   38.1730   25.0510   36.4120 C   0  0  0  0  0  0  0  0  0  0  0  0
   38.4880   26.3930   36.3880 C   0  0  0  0  0  3  0  0  0  0  0  0
   38.4160   22.1430   35.0660 H   0  0  0  0  0  0  0  0  0  0  0  0
  1  6  2  0  0  0  0
  1  2  1  0  0  0  0
  2 14  1  0  0  0  0
  2  3  2  0  0  0  0
  3 15  1  0  0  0  0
  4  3  1  0  0  0  0
  5  7  1  0  0  0  0
  5  4  2  0  0  0  0
  6  5  1  0  0  0  0
  7 12  1  0  0  0  0
  8  9  1  0  0  0  0
  8  7  1  0  0  0  0
  9 10  1  0  0  0  0
 10 20  1  0  0  0  0
 10 11  1  0  0  0  0
 11 21  1  0  0  0  0
 11 22  1  0  0  0  0
 12 23  1  6  0  0  0
 12 11  1  0  0  0  0
 12 25  1  0  0  0  0
 13  1  1  0  0  0  0
 16  8  1  0  0  0  0
 17  8  1  0  0  0  0
 18  9  1  0  0  0  0
 19  9  1  0  0  0  0
 24 34  1  0  0  0  0
 25 26  1  0  0  0  0
 25 24  2  0  0  0  0
 26 28  2  0  0  0  0
 27 26  1  0  0  0  0
 28 29  1  0  0  0  0
 28 33  1  0  0  0  0
 29 30  1  0  0  0  0
 30 31  1  0  0  0  0
 30 32  2  0  0  0  0
 33 32  1  0  0  0  0
 34 33  2  0  0  0  0
 35 29  1  0  0  0  0
M  END
>  <minimizedAffinity>
-5.2887764

$$$$

 OpenBabel03262521503D

 35 38  0  0  1  0  0  0  0  0999 V2000
   35.5220   24.9490   31.4330 C   0  0  0  0  0  0  0  0  0  0  0  0
   36.6410   25.6980   31.8000 C   0  0  0  0  0  0  0  0  0  0  0  0
   37.8140   24.9930   32.1610 C   0  0  0  0  0  0  0  0  0  0  0  0
   37.7630   23.6350   32.1240 N   0  0  0  0  0  0  0  0  0  0  0  0
   36.6720   22.9510   31.7680 C   0  0  0  0  0  0  0  0  0  0  0  0
   35.5420   23.6190   31.4200 N   0  0  0  0  0  0  0  0  0  0  0  0
   36.6720   21.5530   31.7580 N   0  0  0  0  0  0  0  0  0  0  0  0
   35.8500   20.7780   30.8290 C   0  0  0  0  0  0  0  0  0  0  0  0
   36.6800   19.8160   30.0810 C   0  0  0  0  0  0  0  0  0  0  0  0
   37.9580   19.5600   30.5700 N   0  0  0  0  0  0  0  0  0  0  0  0
   38.2980   19.7920   31.9170 C   0  0  0  0  0  0  0  0  0  0  0  0
   37.4730   20.7810   32.6700 C   0  0  1  0  0  0  0  0  0  0  0  0
   34.6600   25.5490   31.1690 H   0  0  0  0  0  0  0  0  0  0  0  0
   36.7340   26.7590   31.8450 H   0  0  0  0  0  0  0  0  0  0  0  0
   38.7530   25.4410   32.4650 H   0  0  0  0  0  0  0  0  0  0  0  0
   35.1980   21.4430   30.2290 H   0  0  0  0  0  0  0  0  0  0  0  0
   35.1370   20.2160   31.4990 H   0  0  0  0  0  0  0  0  0  0  0  0
   36.1170   18.8520   29.9830 H   0  0  0  0  0  0  0  0  0  0  0  0
   36.7670   20.1900   29.0190 H   0  0  0  0  0  0  0  0  0  0  0  0
   38.3430   18.6620   30.2480 H   0  0  0  0  0  0  0  0  0  0  0  0
   38.3400   18.8210   32.4520 H   0  0  0  0  0  0  0  0  0  0  0  0
   39.3690   20.1550   31.9130 H   0  0  0  0  0  0  0  0  0  0  0  0
   36.6670   20.1240   33.1810 H   0  0  0  0  0  0  0  0  0  0  0  0
   39.4060   22.0060   33.8600 C   0  0  0  0  0  3  0  0  0  0  0  0
   38.1250   21.5080   33.7470 C   0  0  0  0  0  0  0  0  0  0  0  0
   37.3130   21.7200   34.8740 C   0  0  0  0  0  0  0  0  0  0  0  0
   36.2680   21.3740   34.9210 H   0  0  0  0  0  0  0  0  0  0  0  0
   37.7730   22.3670   35.9800 C   0  0  0  0  0  0  0  0  0  0  0  0
   37.1790   22.6840   37.1680 N   0  0  0  0  0  0  0  0  0  0  0  0
   38.0580   23.3330   37.9430 C   0  0  0  0  0  0  0  0  0  0  0  0
   37.8390   23.6930   38.9350 H   0  0  0  0  0  0  0  0  0  0  0  0
   39.2040   23.4380   37.2710 N   0  0  0  0  0  0  0  0  0  0  0  0
   39.0550   22.8560   36.0690 C   0  0  0  0  0  0  0  0  0  0  0  0
   39.8750   22.6620   34.9780 C   0  0  0  0  0  3  0  0  0  0  0  0
   36.1840   22.4630   37.4580 H   0  0  0  0  0  0  0  0  0  0  0  0
  1  2  1  0  0  0  0
  2 14  1  0  0  0  0
  2  3  2  0  0  0  0
  3 15  1  0  0  0  0
  4  3  1  0  0  0  0
  5  4  2  0  0  0  0
  6  1  2  0  0  0  0
  6  5  1  0  0  0  0
  7  5  1  0  0  0  0
  7 12  1  0  0  0  0
  8 17  1  0  0  0  0
  8  7  1  0  0  0  0
  9 10  1  0  0  0  0
  9  8  1  0  0  0  0
 10 11  1  0  0  0  0
 11 21  1  0  0  0  0
 11 12  1  0  0  0  0
 12 23  1  1  0  0  0
 12 25  1  0  0  0  0
 13  1  1  0  0  0  0
 16  8  1  0  0  0  0
 18  9  1  0  0  0  0
 19  9  1  0  0  0  0
 20 10  1  0  0  0  0
 22 11  1  0  0  0  0
 24 34  1  0  0  0  0
 25 24  2  0  0  0  0
 25 26  1  0  0  0  0
 26 27  1  0  0  0  0
 26 28  2  0  0  0  0
 28 33  1  0  0  0  0
 28 29  1  0  0  0  0
 29 35  1  0  0  0  0
 29 30  1  0  0  0  0
 30 31  1  0  0  0  0
 32 30  2  0  0  0  0
 33 32  1  0  0  0  0
 34 33  2  0  0  0  0
M  END
>  <minimizedAffinity>
-5.23443747

$$$$

 OpenBabel03262521503D

 35 38  0  0  1  0  0  0  0  0999 V2000
   36.8470   27.6380   34.3630 C   0  0  0  0  0  0  0  0  0  0  0  0
   37.1640   27.5560   33.0060 C   0  0  0  0  0  0  0  0  0  0  0  0
   37.9490   26.4580   32.5790 C   0  0  0  0  0  0  0  0  0  0  0  0
   38.3380   25.5640   33.5250 N   0  0  0  0  0  0  0  0  0  0  0  0
   38.0160   25.6730   34.8170 C   0  0  0  0  0  0  0  0  0  0  0  0
   37.2620   26.7230   35.2360 N   0  0  0  0  0  0  0  0  0  0  0  0
   38.4520   24.7280   35.7500 N   0  0  0  0  0  0  0  0  0  0  0  0
   37.6780   24.3960   36.9450 C   0  0  0  0  0  0  0  0  0  0  0  0
   37.4500   22.9410   37.0270 C   0  0  0  0  0  0  0  0  0  0  0  0
   38.2310   22.1250   36.2140 N   0  0  0  0  0  0  0  0  0  0  0  0
   39.4740   22.5540   35.7050 C   0  0  0  0  0  0  0  0  0  0  0  0
   39.6990   24.0250   35.6020 C   0  0  1  0  0  0  0  0  0  0  0  0
   36.2450   28.5000   34.6220 H   0  0  0  0  0  0  0  0  0  0  0  0
   36.8860   28.2280   32.2260 H   0  0  0  0  0  0  0  0  0  0  0  0
   38.2700   26.2680   31.5610 H   0  0  0  0  0  0  0  0  0  0  0  0
   36.7850   25.0440   37.0310 H   0  0  0  0  0  0  0  0  0  0  0  0
   38.3420   24.7190   37.7990 H   0  0  0  0  0  0  0  0  0  0  0  0
   37.5580   22.6180   38.0950 H   0  0  0  0  0  0  0  0  0  0  0  0
   36.3620   22.7500   36.7930 H   0  0  0  0  0  0  0  0  0  0  0  0
   38.2930   21.1550   36.5500 H   0  0  0  0  0  0  0  0  0  0  0  0
   40.2870   22.0680   36.2810 H   0  0  0  0  0  0  0  0  0  0  0  0
   39.5600   22.1090   34.6690 H   0  0  0  0  0  0  0  0  0  0  0  0
   40.2270   24.2870   36.5980 H   0  0  0  0  0  0  0  0  0  0  0  0
   40.8740   23.9700   33.3060 C   0  0  0  0  0  3  0  0  0  0  0  0
   40.5920   24.4890   34.5520 C   0  0  0  0  0  0  0  0  0  0  0  0
   41.3040   25.6550   34.8760 C   0  0  0  0  0  0  0  0  0  0  0  0
   41.1780   26.1760   35.8390 H   0  0  0  0  0  0  0  0  0  0  0  0
   42.1980   26.2140   34.0140 C   0  0  0  0  0  0  0  0  0  0  0  0
   42.9900   27.3230   34.1080 N   0  0  0  0  0  0  0  0  0  0  0  0
   43.7020   27.4550   32.9810 C   0  0  0  0  0  0  0  0  0  0  0  0
   44.4070   28.2510   32.8010 H   0  0  0  0  0  0  0  0  0  0  0  0
   43.3790   26.4500   32.1670 N   0  0  0  0  0  0  0  0  0  0  0  0
   42.4630   25.6790   32.7760 C   0  0  0  0  0  0  0  0  0  0  0  0
   41.7780   24.5320   32.4310 C   0  0  0  0  0  3  0  0  0  0  0  0
   43.0520   27.9900   34.9290 H   0  0  0  0  0  0  0  0  0  0  0  0
  1 13  1  0  0  0  0
  1  6  1  0  0  0  0
  2  1  2  0  0  0  0
  3  2  1  0  0  0  0
  3  4  2  0  0  0  0
  4  5  1  0  0  0  0
  5  6  2  0  0  0  0
  5  7  1  0  0  0  0
  7  8  1  0  0  0  0
  8  9  1  0  0  0  0
  8 16  1  0  0  0  0
  8 17  1  0  0  0  0
  9 18  1  0  0  0  0
 10 20  1  0  0  0  0
 10  9  1  0  0  0  0
 11 10  1  0  0  0  0
 11 21  1  0  0  0  0
 12 11  1  0  0  0  0
 12  7  1  0  0  0  0
 12 23  1  1  0  0  0
 14  2  1  0  0  0  0
 15  3  1  0  0  0  0
 19  9  1  0  0  0  0
 22 11  1  0  0  0  0
 24 25  1  0  0  0  0
 25 26  2  0  0  0  0
 25 12  1  0  0  0  0
 26 27  1  0  0  0  0
 28 29  1  0  0  0  0
 28 26  1  0  0  0  0
 29 35  1  0  0  0  0
 30 29  1  0  0  0  0
 31 30  1  0  0  0  0
 32 33  1  0  0  0  0
 32 30  2  0  0  0  0
 33 28  2  0  0  0  0
 34 33  1  0  0  0  0
 34 24  2  0  0  0  0
M  END
>  <minimizedAffinity>
-5.16783857

$$$$

 OpenBabel03262521503D

 35 38  0  0  1  0  0  0  0  0999 V2000
   37.9420   26.1580   35.9100 C   0  0  0  0  0  0  0  0  0  0  0  0
   39.0180   25.3630   35.5120 C   0  0  0  0  0  0  0  0  0  0  0  0
   39.2610   25.2330   34.1230 C   0  0  0  0  0  0  0  0  0  0  0  0
   38.4260   25.8940   33.2790 N   0  0  0  0  0  0  0  0  0  0  0  0
   37.4040   26.6470   33.6960 C   0  0  0  0  0  0  0  0  0  0  0  0
   37.1640   26.7780   35.0260 N   0  0  0  0  0  0  0  0  0  0  0  0
   36.5690   27.2980   32.7820 N   0  0  0  0  0  0  0  0  0  0  0  0
   35.9100   28.5660   33.0910 C   0  0  0  0  0  0  0  0  0  0  0  0
   36.2080   29.5700   32.0540 C   0  0  0  0  0  0  0  0  0  0  0  0
   36.7420   29.1100   30.8530 N   0  0  0  0  0  0  0  0  0  0  0  0
   36.5730   27.7770   30.4280 C   0  0  0  0  0  0  0  0  0  0  0  0
   36.2930   26.7550   31.4790 C   0  0  1  0  0  0  0  0  0  0  0  0
   37.8120   26.2150   36.9840 H   0  0  0  0  0  0  0  0  0  0  0  0
   39.7000   24.8260   36.1300 H   0  0  0  0  0  0  0  0  0  0  0  0
   40.0550   24.6510   33.6720 H   0  0  0  0  0  0  0  0  0  0  0  0
   36.1000   28.8650   34.1400 H   0  0  0  0  0  0  0  0  0  0  0  0
   34.8100   28.3160   33.0650 H   0  0  0  0  0  0  0  0  0  0  0  0
   35.2800   30.1640   31.8480 H   0  0  0  0  0  0  0  0  0  0  0  0
   36.9210   30.3240   32.5000 H   0  0  0  0  0  0  0  0  0  0  0  0
   36.5990   29.7610   30.0690 H   0  0  0  0  0  0  0  0  0  0  0  0
   35.8050   27.7470   29.6290 H   0  0  0  0  0  0  0  0  0  0  0  0
   37.5330   27.4910   29.9030 H   0  0  0  0  0  0  0  0  0  0  0  0
   35.1360   26.6990   31.4960 H   0  0  0  0  0  0  0  0  0  0  0  0
   37.8900   24.9220   30.6190 C   0  0  0  0  0  3  0  0  0  0  0  0
   36.7460   25.3980   31.2240 C   0  0  0  0  0  0  0  0  0  0  0  0
   35.8510   24.4020   31.6490 C   0  0  0  0  0  0  0  0  0  0  0  0
   34.8970   24.6400   32.1460 H   0  0  0  0  0  0  0  0  0  0  0  0
   36.1110   23.0770   31.4690 C   0  0  0  0  0  0  0  0  0  0  0  0
   35.4060   21.9540   31.7940 N   0  0  0  0  0  0  0  0  0  0  0  0
   36.0930   20.8720   31.4040 C   0  0  0  0  0  0  0  0  0  0  0  0
   35.7540   19.8580   31.5430 H   0  0  0  0  0  0  0  0  0  0  0  0
   37.2260   21.2840   30.8360 N   0  0  0  0  0  0  0  0  0  0  0  0
   37.2610   22.6270   30.8640 C   0  0  0  0  0  0  0  0  0  0  0  0
   38.1580   23.5820   30.4350 C   0  0  0  0  0  3  0  0  0  0  0  0
   34.4630   21.9150   32.2770 H   0  0  0  0  0  0  0  0  0  0  0  0
  1 13  1  0  0  0  0
  2  1  1  0  0  0  0
  2 14  1  0  0  0  0
  3  2  2  0  0  0  0
  4  5  2  0  0  0  0
  4  3  1  0  0  0  0
  5  6  1  0  0  0  0
  6  1  2  0  0  0  0
  7  8  1  0  0  0  0
  7  5  1  0  0  0  0
  8 16  1  0  0  0  0
  9 19  1  0  0  0  0
  9  8  1  0  0  0  0
 10  9  1  0  0  0  0
 11 10  1  0  0  0  0
 11 12  1  0  0  0  0
 12 23  1  6  0  0  0
 12  7  1  0  0  0  0
 15  3  1  0  0  0  0
 17  8  1  0  0  0  0
 18  9  1  0  0  0  0
 20 10  1  0  0  0  0
 21 11  1  0  0  0  0
 22 11  1  0  0  0  0
 24 25  1  0  0  0  0
 25 12  1  0  0  0  0
 25 26  2  0  0  0  0
 26 27  1  0  0  0  0
 28 26  1  0  0  0  0
 28 29  1  0  0  0  0
 29 35  1  0  0  0  0
 30 31  1  0  0  0  0
 30 29  1  0  0  0  0
 32 33  1  0  0  0  0
 32 30  2  0  0  0  0
 33 28  2  0  0  0  0
 34 24  2  0  0  0  0
 34 33  1  0  0  0  0
M  END
>  <minimizedAffinity>
-5.12442064

$$$$

 OpenBabel03262521503D

 35 38  0  0  1  0  0  0  0  0999 V2000
   39.5460   26.5320   34.6250 C   0  0  0  0  0  0  0  0  0  0  0  0
   38.7940   27.3490   35.4710 C   0  0  0  0  0  0  0  0  0  0  0  0
   37.4620   27.6400   35.0910 C   0  0  0  0  0  0  0  0  0  0  0  0
   37.0120   27.0990   33.9280 N   0  0  0  0  0  0  0  0  0  0  0  0
   37.7610   26.3200   33.1420 C   0  0  0  0  0  0  0  0  0  0  0  0
   39.0400   26.0360   33.4980 N   0  0  0  0  0  0  0  0  0  0  0  0
   37.2500   25.7990   31.9490 N   0  0  0  0  0  0  0  0  0  0  0  0
   37.6910   24.5150   31.4060 C   0  0  0  0  0  0  0  0  0  0  0  0
   36.5350   23.6360   31.1510 C   0  0  0  0  0  0  0  0  0  0  0  0
   35.2740   24.2270   31.1370 N   0  0  0  0  0  0  0  0  0  0  0  0
   35.1020   25.6040   30.8920 C   0  0  0  0  0  0  0  0  0  0  0  0
   36.2630   26.4980   31.1690 C   0  0  1  0  0  0  0  0  0  0  0  0
   40.5550   26.3490   34.9730 H   0  0  0  0  0  0  0  0  0  0  0  0
   39.0980   27.7960   36.3900 H   0  0  0  0  0  0  0  0  0  0  0  0
   36.7660   28.2570   35.6470 H   0  0  0  0  0  0  0  0  0  0  0  0
   38.5130   24.0900   32.0130 H   0  0  0  0  0  0  0  0  0  0  0  0
   38.1780   24.7860   30.4240 H   0  0  0  0  0  0  0  0  0  0  0  0
   36.7020   23.0890   30.1880 H   0  0  0  0  0  0  0  0  0  0  0  0
   36.5430   22.8220   31.9330 H   0  0  0  0  0  0  0  0  0  0  0  0
   34.5740   23.6770   30.6220 H   0  0  0  0  0  0  0  0  0  0  0  0
   34.7320   25.7430   29.8560 H   0  0  0  0  0  0  0  0  0  0  0  0
   34.2380   25.9330   31.5430 H   0  0  0  0  0  0  0  0  0  0  0  0
   36.7950   26.5730   30.1430 H   0  0  0  0  0  0  0  0  0  0  0  0
   35.0210   28.3840   32.4140 C   0  0  0  0  0  3  0  0  0  0  0  0
   35.9710   27.8680   31.5580 C   0  0  0  0  0  0  0  0  0  0  0  0
   36.7830   28.8300   30.9360 C   0  0  0  0  0  0  0  0  0  0  0  0
   37.5820   28.5580   30.2270 H   0  0  0  0  0  0  0  0  0  0  0  0
   36.6300   30.1620   31.1720 C   0  0  0  0  0  0  0  0  0  0  0  0
   37.2890   31.2580   30.6940 N   0  0  0  0  0  0  0  0  0  0  0  0
   36.7610   32.3640   31.2360 C   0  0  0  0  0  0  0  0  0  0  0  0
   37.1010   33.3640   31.0220 H   0  0  0  0  0  0  0  0  0  0  0  0
   35.7750   31.9930   32.0530 N   0  0  0  0  0  0  0  0  0  0  0  0
   35.6760   30.6540   32.0310 C   0  0  0  0  0  0  0  0  0  0  0  0
   34.8630   29.7320   32.6560 C   0  0  0  0  0  3  0  0  0  0  0  0
   38.0930   31.2630   30.0040 H   0  0  0  0  0  0  0  0  0  0  0  0
  1 13  1  0  0  0  0
  1  2  1  0  0  0  0
  2 14  1  0  0  0  0
  3  2  2  0  0  0  0
  3 15  1  0  0  0  0
  4  3  1  0  0  0  0
  5  6  1  0  0  0  0
  5  4  2  0  0  0  0
  6  1  2  0  0  0  0
  7  5  1  0  0  0  0
  8  7  1  0  0  0  0
  8 16  1  0  0  0  0
  9  8  1  0  0  0  0
  9 19  1  0  0  0  0
 10  9  1  0  0  0  0
 11 10  1  0  0  0  0
 11 12  1  0  0  0  0
 11 22  1  0  0  0  0
 12 23  1  6  0  0  0
 12 25  1  0  0  0  0
 12  7  1  0  0  0  0
 17  8  1  0  0  0  0
 18  9  1  0  0  0  0
 20 10  1  0  0  0  0
 21 11  1  0  0  0  0
 24 34  1  0  0  0  0
 25 24  2  0  0  0  0
 26 28  2  0  0  0  0
 26 25  1  0  0  0  0
 27 26  1  0  0  0  0
 28 33  1  0  0  0  0
 29 28  1  0  0  0  0
 29 30  1  0  0  0  0
 30 32  2  0  0  0  0
 31 30  1  0  0  0  0
 33 32  1  0  0  0  0
 33 34  2  0  0  0  0
 35 29  1  0  0  0  0
M  END
>  <minimizedAffinity>
-5.11938524

$$$$
