
 OpenBabel03272507203D

 33 36  0  0  1  0  0  0  0  0999 V2000
   37.3340   31.2230   49.5040 C   0  0  0  0  0  0  0  0  0  0  0  0
   38.3360   32.1800   49.5420 C   0  0  0  0  0  0  0  0  0  0  0  0
   38.7940   32.5880   48.2690 C   0  0  0  0  0  0  0  0  0  0  0  0
   38.2670   32.0570   47.1290 N   0  0  0  0  0  0  0  0  0  0  0  0
   37.2830   31.1210   47.1480 C   0  0  0  0  0  0  0  0  0  0  0  0
   36.8130   30.7000   48.3670 N   0  0  0  0  0  0  0  0  0  0  0  0
   38.7290   32.5760   50.4580 H   0  0  0  0  0  0  0  0  0  0  0  0
   39.5770   33.3310   48.2070 H   0  0  0  0  0  0  0  0  0  0  0  0
   37.5280   30.5690   44.7940 C   0  0  0  0  0  3  0  0  0  0  0  0
   36.7270   30.5630   45.9180 C   0  0  0  0  0  0  0  0  0  0  0  0
   35.4510   30.0380   45.8500 C   0  0  0  0  0  0  0  0  0  0  0  0
   34.8480   30.0470   46.7490 H   0  0  0  0  0  0  0  0  0  0  0  0
   34.9230   29.5110   44.6890 C   0  0  0  0  0  0  0  0  0  0  0  0
   33.7450   28.9530   44.3530 N   0  0  0  0  0  0  0  0  0  0  0  0
   33.8380   28.6310   43.0510 C   0  0  0  0  0  0  0  0  0  0  0  0
   32.9680   28.1600   42.5900 H   0  0  0  0  0  0  0  0  0  0  0  0
   35.0500   28.9770   42.5690 N   0  0  0  0  0  0  0  0  0  0  0  0
   35.7520   29.5320   43.5740 C   0  0  0  0  0  0  0  0  0  0  0  0
   37.0310   30.0490   43.6140 C   0  0  0  0  0  3  0  0  0  0  0  0
   32.9770   28.8430   45.0590 H   0  0  0  0  0  0  0  0  0  0  0  0
   36.8030   30.7830   50.8340 C   0  0  1  0  0  0  0  0  0  0  0  0
   36.0860   29.5200   51.0020 C   0  0  2  0  0  0  0  0  0  0  0  0
   37.5370   29.5440   51.3780 C   0  0  0  0  0  0  0  0  0  0  0  0
   36.7280   31.6390   51.5450 H   0  0  0  0  0  0  0  0  0  0  0  0
   35.2660   29.5870   51.7760 H   0  0  0  0  0  0  0  0  0  0  0  0
   38.2220   28.9950   50.6960 H   0  0  0  0  0  0  0  0  0  0  0  0
   37.8430   29.6400   52.4250 H   0  0  0  0  0  0  0  0  0  0  0  0
   35.6950   28.8540   49.8490 O   0  0  0  0  0  0  0  0  0  0  0  0
   34.4610   28.4800   49.4340 C   0  0  0  0  0  0  0  0  0  0  0  0
   34.2820   27.5160   48.6570 O   0  0  0  0  0  0  0  0  0  0  0  0
   33.5270   29.3370   50.0160 N   0  0  0  0  0  0  0  0  0  0  0  0
   33.2310   28.7400   50.8440 H   0  0  0  0  0  0  0  0  0  0  0  0
   33.4570   30.2310   49.4470 H   0  0  0  0  0  0  0  0  0  0  0  0
  1  2  1  0  0  0  0
  1 21  1  0  0  0  0
  2  7  1  0  0  0  0
  3  2  2  0  0  0  0
  4  5  2  0  0  0  0
  4  3  1  0  0  0  0
  5  6  1  0  0  0  0
  6  1  2  0  0  0  0
  8  3  1  0  0  0  0
  9 10  1  0  0  0  0
 10  5  1  0  0  0  0
 11 10  2  0  0  0  0
 11 12  1  0  0  0  0
 13 11  1  0  0  0  0
 14 13  1  0  0  0  0
 14 20  1  0  0  0  0
 15 14  1  0  0  0  0
 16 15  1  0  0  0  0
 17 15  2  0  0  0  0
 17 18  1  0  0  0  0
 18 19  1  0  0  0  0
 18 13  2  0  0  0  0
 19  9  2  0  0  0  0
 21 22  1  0  0  0  0
 21 23  1  0  0  0  0
 21 24  1  1  0  0  0
 22 23  1  0  0  0  0
 22 25  1  1  0  0  0
 23 27  1  0  0  0  0
 26 23  1  0  0  0  0
 28 22  1  0  0  0  0
 29 28  1  0  0  0  0
 29 31  1  0  0  0  0
 30 29  2  0  0  0  0
 31 32  1  0  0  0  0
 33 31  1  0  0  0  0
M  END
>  <minimizedAffinity>
-5.61131477

>  <minimizedRMSD>
0.580746889

$$$$
