
 OpenBabel03272504053D

 44 48  0  0  0  0  0  0  0  0999 V2000
   36.4340   26.6840   31.3080 C   0  0  0  0  0  0  0  0  0  0  0  0
   37.3400   26.5200   30.6760 H   0  0  0  0  0  0  0  0  0  0  0  0
   35.9930   27.6230   30.8920 H   0  0  0  0  0  0  0  0  0  0  0  0
   36.7310   26.9360   32.6920 C   0  0  0  0  0  0  0  0  0  0  0  0
   36.3510   28.1280   33.2590 C   0  0  0  0  0  0  0  0  0  0  0  0
   36.6400   28.3840   34.6220 C   0  0  0  0  0  0  0  0  0  0  0  0
   37.3040   27.3850   35.2980 N   0  0  0  0  0  0  0  0  0  0  0  0
   37.6520   26.2310   34.6840 C   0  0  0  0  0  0  0  0  0  0  0  0
   37.3720   25.9990   33.3890 N   0  0  0  0  0  0  0  0  0  0  0  0
   35.8330   28.8790   32.6880 H   0  0  0  0  0  0  0  0  0  0  0  0
   36.3650   29.2920   35.1030 H   0  0  0  0  0  0  0  0  0  0  0  0
   37.8080   24.6940   36.6090 C   0  0  0  0  0  3  0  0  0  0  0  0
   38.3540   25.2060   35.4500 C   0  0  0  0  0  0  0  0  0  0  0  0
   39.5640   24.6870   35.0970 C   0  0  0  0  0  0  0  0  0  0  0  0
   40.0580   25.0360   34.2040 H   0  0  0  0  0  0  0  0  0  0  0  0
   40.2040   23.7180   35.8430 C   0  0  0  0  0  0  0  0  0  0  0  0
   41.3520   23.0220   35.7810 N   0  0  0  0  0  0  0  0  0  0  0  0
   41.4680   22.1720   36.8190 C   0  0  0  0  0  0  0  0  0  0  0  0
   42.2970   21.4980   37.0050 H   0  0  0  0  0  0  0  0  0  0  0  0
   40.3750   22.3000   37.5930 N   0  0  0  0  0  0  0  0  0  0  0  0
   39.5930   23.2450   37.0040 C   0  0  0  0  0  0  0  0  0  0  0  0
   38.3600   23.7280   37.4240 C   0  0  0  0  0  3  0  0  0  0  0  0
   42.0530   23.1410   35.0140 H   0  0  0  0  0  0  0  0  0  0  0  0
   35.4840   25.5970   30.9720 C   0  0  0  0  0  0  0  0  0  0  0  0
   34.9430   25.7930   30.0500 H   0  0  0  0  0  0  0  0  0  0  0  0
   34.6950   25.5980   31.7820 H   0  0  0  0  0  0  0  0  0  0  0  0
   36.0830   24.2510   31.0220 C   0  0  0  0  0  0  0  0  0  0  0  0
   37.3850   24.0060   30.5690 C   0  0  0  0  0  0  0  0  0  0  0  0
   37.6460   22.6700   30.7480 C   0  0  0  0  0  0  0  0  0  0  0  0
   36.5440   22.1400   31.2870 N   0  0  0  0  0  0  0  0  0  0  0  0
   35.6390   23.0910   31.4390 N   0  0  0  0  0  0  0  0  0  0  0  0
   38.1410   24.6670   30.1350 H   0  0  0  0  0  0  0  0  0  0  0  0
   38.5320   22.0820   30.5270 H   0  0  0  0  0  0  0  0  0  0  0  0
   36.2360   20.8090   31.6870 C   0  0  0  0  0  0  0  0  0  0  0  0
   36.7680   19.8020   30.9030 C   0  0  0  0  0  0  0  0  0  0  0  0
   36.5630   18.4480   31.1560 C   0  0  0  0  0  0  0  0  0  0  0  0
   35.7790   18.1350   32.2610 C   0  0  0  0  0  0  0  0  0  0  0  0
   35.2440   19.1320   33.0470 C   0  0  0  0  0  0  0  0  0  0  0  0
   35.4590   20.4760   32.7820 C   0  0  0  0  0  0  0  0  0  0  0  0
   37.3810   20.0330   30.0390 H   0  0  0  0  0  0  0  0  0  0  0  0
   37.0080   17.7080   30.5020 H   0  0  0  0  0  0  0  0  0  0  0  0
   35.6350   17.0760   32.4340 H   0  0  0  0  0  0  0  0  0  0  0  0
   34.6390   18.8430   33.9000 H   0  0  0  0  0  0  0  0  0  0  0  0
   35.0580   21.2720   33.3740 H   0  0  0  0  0  0  0  0  0  0  0  0
  1  4  1  0  0  0  0
  2  1  1  0  0  0  0
  3  1  1  0  0  0  0
  4  5  2  0  0  0  0
  4  9  1  0  0  0  0
  5  6  1  0  0  0  0
  6 11  1  0  0  0  0
  6  7  2  0  0  0  0
  8  7  1  0  0  0  0
  8 13  1  0  0  0  0
  9  8  2  0  0  0  0
 10  5  1  0  0  0  0
 12 22  1  0  0  0  0
 13 12  2  0  0  0  0
 14 13  1  0  0  0  0
 14 16  2  0  0  0  0
 15 14  1  0  0  0  0
 16 21  1  0  0  0  0
 17 16  1  0  0  0  0
 17 18  1  0  0  0  0
 18 19  1  0  0  0  0
 18 20  2  0  0  0  0
 21 22  2  0  0  0  0
 21 20  1  0  0  0  0
 23 17  1  0  0  0  0
 24 27  1  0  0  0  0
 24  1  1  0  0  0  0
 24 26  1  0  0  0  0
 25 24  1  0  0  0  0
 27 31  2  0  0  0  0
 28 29  2  0  0  0  0
 28 27  1  0  0  0  0
 29 30  1  0  0  0  0
 30 31  1  0  0  0  0
 30 34  1  0  0  0  0
 32 28  1  0  0  0  0
 33 29  1  0  0  0  0
 34 39  1  0  0  0  0
 35 36  1  0  0  0  0
 35 34  2  0  0  0  0
 36 37  2  0  0  0  0
 37 42  1  0  0  0  0
 37 38  1  0  0  0  0
 38 43  1  0  0  0  0
 39 38  2  0  0  0  0
 39 44  1  0  0  0  0
 40 35  1  0  0  0  0
 41 36  1  0  0  0  0
M  END
>  <minimizedAffinity>
-6.70083475

$$$$

 OpenBabel03272504053D

 44 48  0  0  0  0  0  0  0  0999 V2000
   35.8820   26.8510   31.3140 C   0  0  0  0  0  0  0  0  0  0  0  0
   34.9190   27.2330   31.7320 H   0  0  0  0  0  0  0  0  0  0  0  0
   35.7130   26.8750   30.2090 H   0  0  0  0  0  0  0  0  0  0  0  0
   36.1640   25.4860   31.6670 C   0  0  0  0  0  0  0  0  0  0  0  0
   35.4360   24.4740   31.0890 C   0  0  0  0  0  0  0  0  0  0  0  0
   35.7090   23.1260   31.4320 C   0  0  0  0  0  0  0  0  0  0  0  0
   36.7160   22.9260   32.3490 N   0  0  0  0  0  0  0  0  0  0  0  0
   37.3970   23.9660   32.8830 C   0  0  0  0  0  0  0  0  0  0  0  0
   37.1300   25.2420   32.5510 N   0  0  0  0  0  0  0  0  0  0  0  0
   34.6580   24.6820   30.3750 H   0  0  0  0  0  0  0  0  0  0  0  0
   35.1710   22.3110   31.0100 H   0  0  0  0  0  0  0  0  0  0  0  0
   39.7390   24.1560   33.6410 C   0  0  0  0  0  3  0  0  0  0  0  0
   38.4560   23.6950   33.8520 C   0  0  0  0  0  0  0  0  0  0  0  0
   38.2720   22.9910   35.0040 C   0  0  0  0  0  0  0  0  0  0  0  0
   37.2960   22.5960   35.2410 H   0  0  0  0  0  0  0  0  0  0  0  0
   39.2930   22.7500   35.9010 C   0  0  0  0  0  0  0  0  0  0  0  0
   39.4460   22.1210   37.0780 N   0  0  0  0  0  0  0  0  0  0  0  0
   40.7150   22.2060   37.5190 C   0  0  0  0  0  0  0  0  0  0  0  0
   41.1020   21.7850   38.4400 H   0  0  0  0  0  0  0  0  0  0  0  0
   41.4290   22.9080   36.6200 N   0  0  0  0  0  0  0  0  0  0  0  0
   40.5660   23.2470   35.6230 C   0  0  0  0  0  0  0  0  0  0  0  0
   40.8270   23.9730   34.4680 C   0  0  0  0  0  3  0  0  0  0  0  0
   38.6630   21.6330   37.5720 H   0  0  0  0  0  0  0  0  0  0  0  0
   36.9040   27.8850   31.5980 C   0  0  0  0  0  0  0  0  0  0  0  0
   37.5160   28.1090   30.7290 H   0  0  0  0  0  0  0  0  0  0  0  0
   37.6170   27.4340   32.3510 H   0  0  0  0  0  0  0  0  0  0  0  0
   36.3630   29.0880   32.2570 C   0  0  0  0  0  0  0  0  0  0  0  0
   36.3260   30.3290   31.6090 C   0  0  0  0  0  0  0  0  0  0  0  0
   35.7720   31.2370   32.4770 C   0  0  0  0  0  0  0  0  0  0  0  0
   35.4890   30.5650   33.5960 N   0  0  0  0  0  0  0  0  0  0  0  0
   35.8460   29.3010   33.4410 N   0  0  0  0  0  0  0  0  0  0  0  0
   36.6480   30.6390   30.6100 H   0  0  0  0  0  0  0  0  0  0  0  0
   35.5690   32.2980   32.3620 H   0  0  0  0  0  0  0  0  0  0  0  0
   34.9060   30.9830   34.8260 C   0  0  0  0  0  0  0  0  0  0  0  0
   33.6000   30.5850   35.0430 C   0  0  0  0  0  0  0  0  0  0  0  0
   32.8850   30.9080   36.1930 C   0  0  0  0  0  0  0  0  0  0  0  0
   33.5530   31.6700   37.1460 C   0  0  0  0  0  0  0  0  0  0  0  0
   34.8540   32.0700   36.9370 C   0  0  0  0  0  0  0  0  0  0  0  0
   35.5520   31.7390   35.7860 C   0  0  0  0  0  0  0  0  0  0  0  0
   33.0680   29.9910   34.3080 H   0  0  0  0  0  0  0  0  0  0  0  0
   31.8630   30.5660   36.3030 H   0  0  0  0  0  0  0  0  0  0  0  0
   32.9740   31.9070   38.0290 H   0  0  0  0  0  0  0  0  0  0  0  0
   35.3380   32.6620   37.7070 H   0  0  0  0  0  0  0  0  0  0  0  0
   36.5630   32.0350   35.5960 H   0  0  0  0  0  0  0  0  0  0  0  0
  1 24  1  0  0  0  0
  1  4  1  0  0  0  0
  1  2  1  0  0  0  0
  3  1  1  0  0  0  0
  4  9  1  0  0  0  0
  5  6  1  0  0  0  0
  5  4  2  0  0  0  0
  6  7  2  0  0  0  0
  7  8  1  0  0  0  0
  8 13  1  0  0  0  0
  9  8  2  0  0  0  0
 10  5  1  0  0  0  0
 11  6  1  0  0  0  0
 12 13  2  0  0  0  0
 12 22  1  0  0  0  0
 13 14  1  0  0  0  0
 14 15  1  0  0  0  0
 14 16  2  0  0  0  0
 16 17  1  0  0  0  0
 17 18  1  0  0  0  0
 17 23  1  0  0  0  0
 18 19  1  0  0  0  0
 20 18  2  0  0  0  0
 21 16  1  0  0  0  0
 21 20  1  0  0  0  0
 22 21  2  0  0  0  0
 24 27  1  0  0  0  0
 24 26  1  0  0  0  0
 25 24  1  0  0  0  0
 27 31  2  0  0  0  0
 28 27  1  0  0  0  0
 28 29  2  0  0  0  0
 29 30  1  0  0  0  0
 30 34  1  0  0  0  0
 31 30  1  0  0  0  0
 32 28  1  0  0  0  0
 33 29  1  0  0  0  0
 34 35  2  0  0  0  0
 34 39  1  0  0  0  0
 35 36  1  0  0  0  0
 36 41  1  0  0  0  0
 36 37  2  0  0  0  0
 37 42  1  0  0  0  0
 38 37  1  0  0  0  0
 38 43  1  0  0  0  0
 39 38  2  0  0  0  0
 40 35  1  0  0  0  0
 44 39  1  0  0  0  0
M  END
>  <minimizedAffinity>
-6.62187624

$$$$

 OpenBabel03272504053D

 44 48  0  0  0  0  0  0  0  0999 V2000
   37.9120   26.8430   31.8430 C   0  0  0  0  0  0  0  0  0  0  0  0
   38.5540   26.7760   32.7550 H   0  0  0  0  0  0  0  0  0  0  0  0
   38.6510   26.8370   31.0040 H   0  0  0  0  0  0  0  0  0  0  0  0
   37.1750   28.0740   31.7450 C   0  0  0  0  0  0  0  0  0  0  0  0
   37.1070   28.7270   30.5370 C   0  0  0  0  0  0  0  0  0  0  0  0
   36.3820   29.9390   30.4330 C   0  0  0  0  0  0  0  0  0  0  0  0
   35.7810   30.3880   31.5870 N   0  0  0  0  0  0  0  0  0  0  0  0
   35.8840   29.6990   32.7470 C   0  0  0  0  0  0  0  0  0  0  0  0
   36.5750   28.5480   32.8350 N   0  0  0  0  0  0  0  0  0  0  0  0
   37.5950   28.3350   29.6620 H   0  0  0  0  0  0  0  0  0  0  0  0
   36.3030   30.4790   29.5190 H   0  0  0  0  0  0  0  0  0  0  0  0
   35.8900   31.0800   34.7940 C   0  0  0  0  0  3  0  0  0  0  0  0
   35.2260   30.2210   33.9410 C   0  0  0  0  0  0  0  0  0  0  0  0
   33.9480   29.9160   34.3010 C   0  0  0  0  0  0  0  0  0  0  0  0
   33.3620   29.2500   33.6860 H   0  0  0  0  0  0  0  0  0  0  0  0
   33.3520   30.4250   35.4370 C   0  0  0  0  0  0  0  0  0  0  0  0
   32.1630   30.3320   36.0550 N   0  0  0  0  0  0  0  0  0  0  0  0
   32.1330   31.0750   37.1780 C   0  0  0  0  0  0  0  0  0  0  0  0
   31.2940   31.1740   37.8580 H   0  0  0  0  0  0  0  0  0  0  0  0
   33.3270   31.6800   37.3150 N   0  0  0  0  0  0  0  0  0  0  0  0
   34.0820   31.2890   36.2540 C   0  0  0  0  0  0  0  0  0  0  0  0
   35.3910   31.6440   35.9490 C   0  0  0  0  0  3  0  0  0  0  0  0
   31.3730   29.7500   35.6920 H   0  0  0  0  0  0  0  0  0  0  0  0
   37.1730   25.5630   31.7540 C   0  0  0  0  0  0  0  0  0  0  0  0
   37.1920   25.1450   30.7520 H   0  0  0  0  0  0  0  0  0  0  0  0
   36.0860   25.8040   31.9500 H   0  0  0  0  0  0  0  0  0  0  0  0
   37.5430   24.5910   32.7990 C   0  0  0  0  0  0  0  0  0  0  0  0
   37.6170   23.2180   32.5340 C   0  0  0  0  0  0  0  0  0  0  0  0
   37.9820   22.5870   33.6980 C   0  0  0  0  0  0  0  0  0  0  0  0
   38.1210   23.5450   34.6180 N   0  0  0  0  0  0  0  0  0  0  0  0
   37.8580   24.7160   34.0640 N   0  0  0  0  0  0  0  0  0  0  0  0
   37.4390   22.6410   31.6220 H   0  0  0  0  0  0  0  0  0  0  0  0
   38.1470   21.5360   33.9160 H   0  0  0  0  0  0  0  0  0  0  0  0
   38.4830   23.4870   35.9940 C   0  0  0  0  0  0  0  0  0  0  0  0
   37.6900   24.2160   36.8600 C   0  0  0  0  0  0  0  0  0  0  0  0
   37.9060   24.2660   38.2350 C   0  0  0  0  0  0  0  0  0  0  0  0
   38.9840   23.5340   38.7210 C   0  0  0  0  0  0  0  0  0  0  0  0
   39.7800   22.8050   37.8650 C   0  0  0  0  0  0  0  0  0  0  0  0
   39.5500   22.7650   36.4980 C   0  0  0  0  0  0  0  0  0  0  0  0
   36.8460   24.7910   36.4950 H   0  0  0  0  0  0  0  0  0  0  0  0
   37.2480   24.8570   38.8600 H   0  0  0  0  0  0  0  0  0  0  0  0
   39.1290   23.5910   39.7920 H   0  0  0  0  0  0  0  0  0  0  0  0
   40.6100   22.2470   38.2860 H   0  0  0  0  0  0  0  0  0  0  0  0
   40.1500   22.2090   35.8080 H   0  0  0  0  0  0  0  0  0  0  0  0
  1  2  1  0  0  0  0
  3  1  1  0  0  0  0
  4  1  1  0  0  0  0
  4  9  1  0  0  0  0
  5  4  2  0  0  0  0
  6  5  1  0  0  0  0
  6  7  2  0  0  0  0
  7  8  1  0  0  0  0
  8  9  2  0  0  0  0
  8 13  1  0  0  0  0
 10  5  1  0  0  0  0
 11  6  1  0  0  0  0
 12 22  1  0  0  0  0
 13 14  1  0  0  0  0
 13 12  2  0  0  0  0
 14 16  2  0  0  0  0
 15 14  1  0  0  0  0
 16 17  1  0  0  0  0
 16 21  1  0  0  0  0
 17 18  1  0  0  0  0
 18 20  2  0  0  0  0
 18 19  1  0  0  0  0
 21 20  1  0  0  0  0
 22 21  2  0  0  0  0
 23 17  1  0  0  0  0
 24  1  1  0  0  0  0
 24 26  1  0  0  0  0
 24 27  1  0  0  0  0
 25 24  1  0  0  0  0
 27 31  2  0  0  0  0
 28 27  1  0  0  0  0
 28 29  2  0  0  0  0
 29 33  1  0  0  0  0
 29 30  1  0  0  0  0
 30 34  1  0  0  0  0
 31 30  1  0  0  0  0
 32 28  1  0  0  0  0
 34 39  2  0  0  0  0
 34 35  1  0  0  0  0
 35 36  2  0  0  0  0
 36 37  1  0  0  0  0
 36 41  1  0  0  0  0
 37 42  1  0  0  0  0
 38 43  1  0  0  0  0
 38 37  2  0  0  0  0
 39 38  1  0  0  0  0
 40 35  1  0  0  0  0
 44 39  1  0  0  0  0
M  END
>  <minimizedAffinity>
-6.53854561

$$$$

 OpenBabel03272504053D

 44 48  0  0  0  0  0  0  0  0999 V2000
   37.6020   26.3170   34.2470 C   0  0  0  0  0  0  0  0  0  0  0  0
   38.6710   26.1600   33.9620 H   0  0  0  0  0  0  0  0  0  0  0  0
   37.0810   25.4350   33.7970 H   0  0  0  0  0  0  0  0  0  0  0  0
   37.0150   27.4930   33.6650 C   0  0  0  0  0  0  0  0  0  0  0  0
   37.1330   27.7100   32.3120 C   0  0  0  0  0  0  0  0  0  0  0  0
   36.5570   28.8670   31.7320 C   0  0  0  0  0  0  0  0  0  0  0  0
   35.9020   29.7160   32.5940 N   0  0  0  0  0  0  0  0  0  0  0  0
   35.8200   29.4470   33.9170 C   0  0  0  0  0  0  0  0  0  0  0  0
   36.3700   28.3460   34.4590 N   0  0  0  0  0  0  0  0  0  0  0  0
   37.6560   27.0150   31.6790 H   0  0  0  0  0  0  0  0  0  0  0  0
   36.6250   29.0750   30.6900 H   0  0  0  0  0  0  0  0  0  0  0  0
   35.8040   31.1940   35.6620 C   0  0  0  0  0  3  0  0  0  0  0  0
   35.1120   30.3830   34.7870 C   0  0  0  0  0  0  0  0  0  0  0  0
   33.7570   30.5290   34.8050 C   0  0  0  0  0  0  0  0  0  0  0  0
   33.1440   29.9300   34.1490 H   0  0  0  0  0  0  0  0  0  0  0  0
   33.1150   31.4220   35.6390 C   0  0  0  0  0  0  0  0  0  0  0  0
   31.8520   31.8000   35.8970 N   0  0  0  0  0  0  0  0  0  0  0  0
   31.8090   32.7540   36.8470 C   0  0  0  0  0  0  0  0  0  0  0  0
   30.9160   33.2290   37.2380 H   0  0  0  0  0  0  0  0  0  0  0  0
   33.0700   33.0220   37.2330 N   0  0  0  0  0  0  0  0  0  0  0  0
   33.8790   32.2110   36.4990 C   0  0  0  0  0  0  0  0  0  0  0  0
   35.2650   32.1160   36.5340 C   0  0  0  0  0  3  0  0  0  0  0  0
   31.0210   31.3910   35.4100 H   0  0  0  0  0  0  0  0  0  0  0  0
   37.5260   26.1370   35.7150 C   0  0  0  0  0  0  0  0  0  0  0  0
   36.5050   26.1790   36.0840 H   0  0  0  0  0  0  0  0  0  0  0  0
   38.0420   27.0320   36.1760 H   0  0  0  0  0  0  0  0  0  0  0  0
   38.2770   24.9680   36.2080 C   0  0  0  0  0  0  0  0  0  0  0  0
   37.7270   24.0780   37.1380 C   0  0  0  0  0  0  0  0  0  0  0  0
   38.6640   23.1070   37.3930 C   0  0  0  0  0  0  0  0  0  0  0  0
   39.7300   23.4070   36.6450 N   0  0  0  0  0  0  0  0  0  0  0  0
   39.4770   24.5070   35.9570 N   0  0  0  0  0  0  0  0  0  0  0  0
   36.7530   24.0550   37.6360 H   0  0  0  0  0  0  0  0  0  0  0  0
   38.6320   22.2420   38.0480 H   0  0  0  0  0  0  0  0  0  0  0  0
   40.9910   22.7630   36.4980 C   0  0  0  0  0  0  0  0  0  0  0  0
   41.1830   21.6260   37.2610 C   0  0  0  0  0  0  0  0  0  0  0  0
   42.3580   20.8790   37.2360 C   0  0  0  0  0  0  0  0  0  0  0  0
   43.3630   21.3310   36.3880 C   0  0  0  0  0  0  0  0  0  0  0  0
   43.1790   22.4620   35.6240 C   0  0  0  0  0  0  0  0  0  0  0  0
   42.0030   23.1950   35.6610 C   0  0  0  0  0  0  0  0  0  0  0  0
   40.4070   21.2630   37.9270 H   0  0  0  0  0  0  0  0  0  0  0  0
   42.4450   19.9970   37.8590 H   0  0  0  0  0  0  0  0  0  0  0  0
   44.2640   20.7320   36.3880 H   0  0  0  0  0  0  0  0  0  0  0  0
   43.9890   22.7800   34.9750 H   0  0  0  0  0  0  0  0  0  0  0  0
   41.8310   24.0770   35.0800 H   0  0  0  0  0  0  0  0  0  0  0  0
  1 24  1  0  0  0  0
  2  1  1  0  0  0  0
  3  1  1  0  0  0  0
  4  1  1  0  0  0  0
  4  9  1  0  0  0  0
  5  4  2  0  0  0  0
  6  5  1  0  0  0  0
  6  7  2  0  0  0  0
  7  8  1  0  0  0  0
  8  9  2  0  0  0  0
  8 13  1  0  0  0  0
 10  5  1  0  0  0  0
 11  6  1  0  0  0  0
 12 22  1  0  0  0  0
 13 14  1  0  0  0  0
 13 12  2  0  0  0  0
 14 16  2  0  0  0  0
 15 14  1  0  0  0  0
 16 17  1  0  0  0  0
 16 21  1  0  0  0  0
 17 18  1  0  0  0  0
 18 20  2  0  0  0  0
 18 19  1  0  0  0  0
 21 22  2  0  0  0  0
 21 20  1  0  0  0  0
 23 17  1  0  0  0  0
 24 25  1  0  0  0  0
 24 26  1  0  0  0  0
 24 27  1  0  0  0  0
 27 28  1  0  0  0  0
 28 29  2  0  0  0  0
 28 32  1  0  0  0  0
 29 33  1  0  0  0  0
 30 29  1  0  0  0  0
 31 27  2  0  0  0  0
 31 30  1  0  0  0  0
 34 30  1  0  0  0  0
 34 35  1  0  0  0  0
 35 40  1  0  0  0  0
 36 35  2  0  0  0  0
 36 41  1  0  0  0  0
 37 36  1  0  0  0  0
 38 39  1  0  0  0  0
 38 37  2  0  0  0  0
 39 34  2  0  0  0  0
 42 37  1  0  0  0  0
 43 38  1  0  0  0  0
 44 39  1  0  0  0  0
M  END
>  <minimizedAffinity>
-6.53167868

$$$$

 OpenBabel03272504053D

 44 48  0  0  0  0  0  0  0  0999 V2000
   35.9350   25.8740   31.2440 C   0  0  0  0  0  0  0  0  0  0  0  0
   35.2970   25.5390   30.3900 H   0  0  0  0  0  0  0  0  0  0  0  0
   35.3780   25.5110   32.1430 H   0  0  0  0  0  0  0  0  0  0  0  0
   36.0390   27.3030   31.3620 C   0  0  0  0  0  0  0  0  0  0  0  0
   36.6890   28.0170   30.3840 C   0  0  0  0  0  0  0  0  0  0  0  0
   36.7950   29.4260   30.4940 C   0  0  0  0  0  0  0  0  0  0  0  0
   36.2210   29.9910   31.6100 N   0  0  0  0  0  0  0  0  0  0  0  0
   35.5940   29.2340   32.5390 C   0  0  0  0  0  0  0  0  0  0  0  0
   35.4990   27.8970   32.4250 N   0  0  0  0  0  0  0  0  0  0  0  0
   37.1220   27.5280   29.5290 H   0  0  0  0  0  0  0  0  0  0  0  0
   37.2890   30.0190   29.7620 H   0  0  0  0  0  0  0  0  0  0  0  0
   33.6730   29.6950   34.0190 C   0  0  0  0  0  3  0  0  0  0  0  0
   35.0020   29.8870   33.7030 C   0  0  0  0  0  0  0  0  0  0  0  0
   35.6880   30.7120   34.5440 C   0  0  0  0  0  0  0  0  0  0  0  0
   36.7320   30.9130   34.3640 H   0  0  0  0  0  0  0  0  0  0  0  0
   35.1000   31.3160   35.6370 C   0  0  0  0  0  0  0  0  0  0  0  0
   35.4720   32.1470   36.6250 N   0  0  0  0  0  0  0  0  0  0  0  0
   34.4450   32.4190   37.4510 C   0  0  0  0  0  0  0  0  0  0  0  0
   34.4780   33.0610   38.3250 H   0  0  0  0  0  0  0  0  0  0  0  0
   33.3610   31.7560   37.0090 N   0  0  0  0  0  0  0  0  0  0  0  0
   33.7510   31.0760   35.8970 C   0  0  0  0  0  0  0  0  0  0  0  0
   32.9900   30.2470   35.0820 C   0  0  0  0  0  3  0  0  0  0  0  0
   36.4440   32.5240   36.7210 H   0  0  0  0  0  0  0  0  0  0  0  0
   37.1800   25.0740   31.1770 C   0  0  0  0  0  0  0  0  0  0  0  0
   37.7670   25.2970   30.2910 H   0  0  0  0  0  0  0  0  0  0  0  0
   36.8640   23.9950   31.0570 H   0  0  0  0  0  0  0  0  0  0  0  0
   37.9700   25.1040   32.4220 C   0  0  0  0  0  0  0  0  0  0  0  0
   39.1880   25.7900   32.5050 C   0  0  0  0  0  0  0  0  0  0  0  0
   39.6720   25.6290   33.7800 C   0  0  0  0  0  0  0  0  0  0  0  0
   38.7790   24.8780   34.4310 N   0  0  0  0  0  0  0  0  0  0  0  0
   37.7860   24.5820   33.6090 N   0  0  0  0  0  0  0  0  0  0  0  0
   39.7470   26.3730   31.7680 H   0  0  0  0  0  0  0  0  0  0  0  0
   40.5800   25.9980   34.2490 H   0  0  0  0  0  0  0  0  0  0  0  0
   38.7480   24.3940   35.7690 C   0  0  0  0  0  0  0  0  0  0  0  0
   39.7200   23.4690   36.1010 C   0  0  0  0  0  0  0  0  0  0  0  0
   39.8300   22.8980   37.3660 C   0  0  0  0  0  0  0  0  0  0  0  0
   38.8980   23.3040   38.3140 C   0  0  0  0  0  0  0  0  0  0  0  0
   37.9260   24.2260   37.9920 C   0  0  0  0  0  0  0  0  0  0  0  0
   37.8310   24.7860   36.7270 C   0  0  0  0  0  0  0  0  0  0  0  0
   40.4530   23.1440   35.3710 H   0  0  0  0  0  0  0  0  0  0  0  0
   40.6150   22.1770   37.5620 H   0  0  0  0  0  0  0  0  0  0  0  0
   39.0060   22.8450   39.2880 H   0  0  0  0  0  0  0  0  0  0  0  0
   37.2190   24.5160   38.7620 H   0  0  0  0  0  0  0  0  0  0  0  0
   37.0880   25.5030   36.4480 H   0  0  0  0  0  0  0  0  0  0  0  0
  1  4  1  0  0  0  0
  1  3  1  0  0  0  0
  2  1  1  0  0  0  0
  4  9  1  0  0  0  0
  5  6  1  0  0  0  0
  5  4  2  0  0  0  0
  6  7  2  0  0  0  0
  7  8  1  0  0  0  0
  8 13  1  0  0  0  0
  9  8  2  0  0  0  0
 10  5  1  0  0  0  0
 11  6  1  0  0  0  0
 12 22  1  0  0  0  0
 13 12  2  0  0  0  0
 13 14  1  0  0  0  0
 14 16  2  0  0  0  0
 15 14  1  0  0  0  0
 16 21  1  0  0  0  0
 16 17  1  0  0  0  0
 17 23  1  0  0  0  0
 17 18  1  0  0  0  0
 18 19  1  0  0  0  0
 20 18  2  0  0  0  0
 21 20  1  0  0  0  0
 22 21  2  0  0  0  0
 24  1  1  0  0  0  0
 24 27  1  0  0  0  0
 25 24  1  0  0  0  0
 26 24  1  0  0  0  0
 27 28  1  0  0  0  0
 27 31  2  0  0  0  0
 28 29  2  0  0  0  0
 29 33  1  0  0  0  0
 29 30  1  0  0  0  0
 30 34  1  0  0  0  0
 31 30  1  0  0  0  0
 32 28  1  0  0  0  0
 34 35  2  0  0  0  0
 34 39  1  0  0  0  0
 35 36  1  0  0  0  0
 36 41  1  0  0  0  0
 36 37  2  0  0  0  0
 37 42  1  0  0  0  0
 38 37  1  0  0  0  0
 38 43  1  0  0  0  0
 39 38  2  0  0  0  0
 40 35  1  0  0  0  0
 44 39  1  0  0  0  0
M  END
>  <minimizedAffinity>
-6.48240757

$$$$

 OpenBabel03272504053D

 44 48  0  0  0  0  0  0  0  0999 V2000
   38.0190   26.5370   33.8890 C   0  0  0  0  0  0  0  0  0  0  0  0
   38.1780   27.6280   33.7120 H   0  0  0  0  0  0  0  0  0  0  0  0
   39.0380   26.0980   33.7470 H   0  0  0  0  0  0  0  0  0  0  0  0
   37.1550   25.9140   32.9240 C   0  0  0  0  0  0  0  0  0  0  0  0
   36.3620   26.6990   32.1200 C   0  0  0  0  0  0  0  0  0  0  0  0
   35.5080   26.0920   31.1670 C   0  0  0  0  0  0  0  0  0  0  0  0
   35.5370   24.7170   31.1150 N   0  0  0  0  0  0  0  0  0  0  0  0
   36.3400   23.9990   31.9330 C   0  0  0  0  0  0  0  0  0  0  0  0
   37.1480   24.5850   32.8350 N   0  0  0  0  0  0  0  0  0  0  0  0
   36.3750   27.7720   32.1990 H   0  0  0  0  0  0  0  0  0  0  0  0
   34.8770   26.6590   30.5250 H   0  0  0  0  0  0  0  0  0  0  0  0
   37.0020   21.9010   30.8130 C   0  0  0  0  0  3  0  0  0  0  0  0
   36.3310   22.5420   31.8340 C   0  0  0  0  0  0  0  0  0  0  0  0
   35.6830   21.7240   32.7100 C   0  0  0  0  0  0  0  0  0  0  0  0
   35.1350   22.1490   33.5360 H   0  0  0  0  0  0  0  0  0  0  0  0
   35.6920   20.3490   32.5900 C   0  0  0  0  0  0  0  0  0  0  0  0
   35.1800   19.2960   33.2510 N   0  0  0  0  0  0  0  0  0  0  0  0
   35.5230   18.1340   32.6640 C   0  0  0  0  0  0  0  0  0  0  0  0
   35.2410   17.1410   32.9960 H   0  0  0  0  0  0  0  0  0  0  0  0
   36.2820   18.4130   31.5880 N   0  0  0  0  0  0  0  0  0  0  0  0
   36.3910   19.7680   31.5330 C   0  0  0  0  0  0  0  0  0  0  0  0
   37.0750   20.5400   30.6020 C   0  0  0  0  0  3  0  0  0  0  0  0
   34.5920   19.3920   34.1110 H   0  0  0  0  0  0  0  0  0  0  0  0
   37.7020   26.3860   35.3280 C   0  0  0  0  0  0  0  0  0  0  0  0
   36.6430   26.5140   35.5330 H   0  0  0  0  0  0  0  0  0  0  0  0
   38.2100   27.2440   35.8620 H   0  0  0  0  0  0  0  0  0  0  0  0
   38.2700   25.1680   35.9360 C   0  0  0  0  0  0  0  0  0  0  0  0
   37.6600   24.5360   37.0260 C   0  0  0  0  0  0  0  0  0  0  0  0
   38.4230   23.4430   37.3560 C   0  0  0  0  0  0  0  0  0  0  0  0
   39.4450   23.4240   36.4960 N   0  0  0  0  0  0  0  0  0  0  0  0
   39.3320   24.4500   35.6700 N   0  0  0  0  0  0  0  0  0  0  0  0
   36.7550   24.7730   37.5920 H   0  0  0  0  0  0  0  0  0  0  0  0
   38.2980   22.6960   38.1350 H   0  0  0  0  0  0  0  0  0  0  0  0
   40.5450   22.5300   36.3560 C   0  0  0  0  0  0  0  0  0  0  0  0
   40.9740   21.9120   37.5160 C   0  0  0  0  0  0  0  0  0  0  0  0
   42.0350   21.0110   37.5530 C   0  0  0  0  0  0  0  0  0  0  0  0
   42.6670   20.7460   36.3440 C   0  0  0  0  0  0  0  0  0  0  0  0
   42.2460   21.3580   35.1840 C   0  0  0  0  0  0  0  0  0  0  0  0
   41.1870   22.2530   35.1640 C   0  0  0  0  0  0  0  0  0  0  0  0
   40.4890   22.1090   38.4660 H   0  0  0  0  0  0  0  0  0  0  0  0
   42.3220   20.5600   38.4960 H   0  0  0  0  0  0  0  0  0  0  0  0
   43.4880   20.0430   36.4010 H   0  0  0  0  0  0  0  0  0  0  0  0
   42.7670   21.1230   34.2610 H   0  0  0  0  0  0  0  0  0  0  0  0
   40.8370   22.7430   34.2790 H   0  0  0  0  0  0  0  0  0  0  0  0
  1 24  1  0  0  0  0
  2  1  1  0  0  0  0
  3  1  1  0  0  0  0
  4  1  1  0  0  0  0
  5 10  1  0  0  0  0
  5  4  2  0  0  0  0
  6  5  1  0  0  0  0
  7  6  2  0  0  0  0
  7  8  1  0  0  0  0
  8  9  2  0  0  0  0
  9  4  1  0  0  0  0
 11  6  1  0  0  0  0
 12 13  1  0  0  0  0
 13  8  1  0  0  0  0
 13 14  2  0  0  0  0
 14 15  1  0  0  0  0
 16 14  1  0  0  0  0
 16 17  1  0  0  0  0
 17 23  1  0  0  0  0
 18 19  1  0  0  0  0
 18 17  1  0  0  0  0
 20 18  2  0  0  0  0
 21 20  1  0  0  0  0
 21 16  2  0  0  0  0
 22 12  2  0  0  0  0
 22 21  1  0  0  0  0
 24 25  1  0  0  0  0
 24 26  1  0  0  0  0
 24 27  1  0  0  0  0
 27 28  1  0  0  0  0
 28 29  2  0  0  0  0
 28 32  1  0  0  0  0
 29 33  1  0  0  0  0
 30 29  1  0  0  0  0
 31 27  2  0  0  0  0
 31 30  1  0  0  0  0
 34 30  1  0  0  0  0
 34 35  1  0  0  0  0
 35 36  2  0  0  0  0
 35 40  1  0  0  0  0
 36 41  1  0  0  0  0
 37 42  1  0  0  0  0
 37 36  1  0  0  0  0
 38 37  2  0  0  0  0
 39 38  1  0  0  0  0
 39 34  2  0  0  0  0
 43 38  1  0  0  0  0
 44 39  1  0  0  0  0
M  END
>  <minimizedAffinity>
-6.40486574

$$$$

 OpenBabel03272504053D

 44 48  0  0  0  0  0  0  0  0999 V2000
   38.8580   26.6860   33.6210 C   0  0  0  0  0  0  0  0  0  0  0  0
   39.7190   27.3930   33.7040 H   0  0  0  0  0  0  0  0  0  0  0  0
   39.1870   25.9670   32.8300 H   0  0  0  0  0  0  0  0  0  0  0  0
   37.6460   27.3020   33.1520 C   0  0  0  0  0  0  0  0  0  0  0  0
   37.1960   27.0280   31.8830 C   0  0  0  0  0  0  0  0  0  0  0  0
   36.0030   27.6310   31.4140 C   0  0  0  0  0  0  0  0  0  0  0  0
   35.3630   28.4740   32.2940 N   0  0  0  0  0  0  0  0  0  0  0  0
   35.8570   28.7030   33.5330 C   0  0  0  0  0  0  0  0  0  0  0  0
   36.9910   28.1250   33.9680 N   0  0  0  0  0  0  0  0  0  0  0  0
   37.7330   26.3610   31.2310 H   0  0  0  0  0  0  0  0  0  0  0  0
   35.6180   27.4490   30.4390 H   0  0  0  0  0  0  0  0  0  0  0  0
   33.7690   29.5010   34.5810 C   0  0  0  0  0  3  0  0  0  0  0  0
   35.1360   29.6060   34.4260 C   0  0  0  0  0  0  0  0  0  0  0  0
   35.7320   30.5920   35.1540 C   0  0  0  0  0  0  0  0  0  0  0  0
   36.7980   30.7380   35.0880 H   0  0  0  0  0  0  0  0  0  0  0  0
   35.0230   31.4310   35.9900 C   0  0  0  0  0  0  0  0  0  0  0  0
   35.2880   32.4590   36.8140 N   0  0  0  0  0  0  0  0  0  0  0  0
   34.1680   32.9190   37.4020 C   0  0  0  0  0  0  0  0  0  0  0  0
   34.1060   33.7390   38.1080 H   0  0  0  0  0  0  0  0  0  0  0  0
   33.1290   32.1830   36.9650 N   0  0  0  0  0  0  0  0  0  0  0  0
   33.6420   31.2680   36.0990 C   0  0  0  0  0  0  0  0  0  0  0  0
   32.9680   30.2840   35.3850 C   0  0  0  0  0  3  0  0  0  0  0  0
   36.2520   32.8380   36.9640 H   0  0  0  0  0  0  0  0  0  0  0  0
   38.8210   25.9190   34.8880 C   0  0  0  0  0  0  0  0  0  0  0  0
   38.2740   26.4380   35.6690 H   0  0  0  0  0  0  0  0  0  0  0  0
   39.8870   25.8640   35.2620 H   0  0  0  0  0  0  0  0  0  0  0  0
   38.4030   24.5150   34.7180 C   0  0  0  0  0  0  0  0  0  0  0  0
   38.6960   23.5380   35.6770 C   0  0  0  0  0  0  0  0  0  0  0  0
   38.1790   22.3460   35.2320 C   0  0  0  0  0  0  0  0  0  0  0  0
   37.6010   22.6030   34.0550 N   0  0  0  0  0  0  0  0  0  0  0  0
   37.7470   23.8870   33.7750 N   0  0  0  0  0  0  0  0  0  0  0  0
   39.2270   23.5910   36.6320 H   0  0  0  0  0  0  0  0  0  0  0  0
   38.1900   21.3560   35.6770 H   0  0  0  0  0  0  0  0  0  0  0  0
   36.9100   21.7600   33.1400 C   0  0  0  0  0  0  0  0  0  0  0  0
   36.1080   20.7840   33.7020 C   0  0  0  0  0  0  0  0  0  0  0  0
   35.3650   19.8790   32.9480 C   0  0  0  0  0  0  0  0  0  0  0  0
   35.4610   19.9950   31.5660 C   0  0  0  0  0  0  0  0  0  0  0  0
   36.2570   20.9640   30.9980 C   0  0  0  0  0  0  0  0  0  0  0  0
   36.9910   21.8590   31.7630 C   0  0  0  0  0  0  0  0  0  0  0  0
   36.0240   20.6820   34.7780 H   0  0  0  0  0  0  0  0  0  0  0  0
   34.7550   19.1370   33.4500 H   0  0  0  0  0  0  0  0  0  0  0  0
   34.8740   19.2800   31.0050 H   0  0  0  0  0  0  0  0  0  0  0  0
   36.3030   21.0210   29.9150 H   0  0  0  0  0  0  0  0  0  0  0  0
   37.6170   22.6220   31.3500 H   0  0  0  0  0  0  0  0  0  0  0  0
  1  2  1  0  0  0  0
  1 24  1  0  0  0  0
  3  1  1  0  0  0  0
  4  1  1  0  0  0  0
  4  9  1  0  0  0  0
  5  4  2  0  0  0  0
  6  5  1  0  0  0  0
  6  7  2  0  0  0  0
  7  8  1  0  0  0  0
  8  9  2  0  0  0  0
  8 13  1  0  0  0  0
 10  5  1  0  0  0  0
 11  6  1  0  0  0  0
 12 22  1  0  0  0  0
 13 12  2  0  0  0  0
 13 14  1  0  0  0  0
 14 16  2  0  0  0  0
 15 14  1  0  0  0  0
 16 21  1  0  0  0  0
 16 17  1  0  0  0  0
 17 23  1  0  0  0  0
 17 18  1  0  0  0  0
 18 19  1  0  0  0  0
 20 18  2  0  0  0  0
 21 20  1  0  0  0  0
 22 21  2  0  0  0  0
 24 26  1  0  0  0  0
 24 25  1  0  0  0  0
 27 24  1  0  0  0  0
 27 28  1  0  0  0  0
 28 32  1  0  0  0  0
 29 33  1  0  0  0  0
 29 28  2  0  0  0  0
 30 29  1  0  0  0  0
 31 30  1  0  0  0  0
 31 27  2  0  0  0  0
 34 35  1  0  0  0  0
 34 30  1  0  0  0  0
 35 40  1  0  0  0  0
 36 41  1  0  0  0  0
 36 35  2  0  0  0  0
 37 36  1  0  0  0  0
 38 37  2  0  0  0  0
 38 39  1  0  0  0  0
 39 34  2  0  0  0  0
 42 37  1  0  0  0  0
 43 38  1  0  0  0  0
 44 39  1  0  0  0  0
M  END
>  <minimizedAffinity>
-6.36948252

$$$$

 OpenBabel03272504053D

 44 48  0  0  0  0  0  0  0  0999 V2000
   38.4430   26.1510   34.6210 C   0  0  0  0  0  0  0  0  0  0  0  0
   39.4780   26.5690   34.6490 H   0  0  0  0  0  0  0  0  0  0  0  0
   37.8930   26.7700   35.3730 H   0  0  0  0  0  0  0  0  0  0  0  0
   38.3580   24.7840   35.0590 C   0  0  0  0  0  0  0  0  0  0  0  0
   38.7400   24.4590   36.3390 C   0  0  0  0  0  0  0  0  0  0  0  0
   38.6590   23.1140   36.7770 C   0  0  0  0  0  0  0  0  0  0  0  0
   38.1900   22.2040   35.8570 N   0  0  0  0  0  0  0  0  0  0  0  0
   37.8290   22.5870   34.6110 C   0  0  0  0  0  0  0  0  0  0  0  0
   37.9100   23.8670   34.2050 N   0  0  0  0  0  0  0  0  0  0  0  0
   39.1010   25.2090   37.0220 H   0  0  0  0  0  0  0  0  0  0  0  0
   38.9430   22.8170   37.7580 H   0  0  0  0  0  0  0  0  0  0  0  0
   36.1520   20.9150   33.9150 C   0  0  0  0  0  3  0  0  0  0  0  0
   37.3370   21.5790   33.6760 C   0  0  0  0  0  0  0  0  0  0  0  0
   37.9840   21.2220   32.5310 C   0  0  0  0  0  0  0  0  0  0  0  0
   38.9190   21.6960   32.2730 H   0  0  0  0  0  0  0  0  0  0  0  0
   37.4940   20.2640   31.6660 C   0  0  0  0  0  0  0  0  0  0  0  0
   37.8640   19.7010   30.5040 N   0  0  0  0  0  0  0  0  0  0  0  0
   36.9680   18.7820   30.0960 C   0  0  0  0  0  0  0  0  0  0  0  0
   37.0290   18.1850   29.1930 H   0  0  0  0  0  0  0  0  0  0  0  0
   35.9760   18.7280   31.0040 N   0  0  0  0  0  0  0  0  0  0  0  0
   36.2880   19.6330   31.9700 C   0  0  0  0  0  0  0  0  0  0  0  0
   35.5750   19.9460   33.1210 C   0  0  0  0  0  3  0  0  0  0  0  0
   38.7420   19.9590   29.9970 H   0  0  0  0  0  0  0  0  0  0  0  0
   37.8800   26.5100   33.2990 C   0  0  0  0  0  0  0  0  0  0  0  0
   37.5380   25.6400   32.7460 H   0  0  0  0  0  0  0  0  0  0  0  0
   38.7350   26.9290   32.6880 H   0  0  0  0  0  0  0  0  0  0  0  0
   36.8830   27.5950   33.3540 C   0  0  0  0  0  0  0  0  0  0  0  0
   36.1650   27.9940   32.2200 C   0  0  0  0  0  0  0  0  0  0  0  0
   35.3250   29.0140   32.5940 C   0  0  0  0  0  0  0  0  0  0  0  0
   35.5330   29.2140   33.8980 N   0  0  0  0  0  0  0  0  0  0  0  0
   36.4540   28.3650   34.3220 N   0  0  0  0  0  0  0  0  0  0  0  0
   36.1840   27.6410   31.1850 H   0  0  0  0  0  0  0  0  0  0  0  0
   34.6090   29.5930   32.0180 H   0  0  0  0  0  0  0  0  0  0  0  0
   34.9510   30.1330   34.8170 C   0  0  0  0  0  0  0  0  0  0  0  0
   35.8300   30.9770   35.4680 C   0  0  0  0  0  0  0  0  0  0  0  0
   35.4260   31.9330   36.3960 C   0  0  0  0  0  0  0  0  0  0  0  0
   34.0610   32.0110   36.6520 C   0  0  0  0  0  0  0  0  0  0  0  0
   33.1780   31.1730   36.0070 C   0  0  0  0  0  0  0  0  0  0  0  0
   33.5980   30.2270   35.0850 C   0  0  0  0  0  0  0  0  0  0  0  0
   36.8970   30.9270   35.2780 H   0  0  0  0  0  0  0  0  0  0  0  0
   36.1660   32.5640   36.8720 H   0  0  0  0  0  0  0  0  0  0  0  0
   33.7750   32.7620   37.3770 H   0  0  0  0  0  0  0  0  0  0  0  0
   32.1210   31.2680   36.2360 H   0  0  0  0  0  0  0  0  0  0  0  0
   32.9360   29.5630   34.5690 H   0  0  0  0  0  0  0  0  0  0  0  0
  1  2  1  0  0  0  0
  1  4  1  0  0  0  0
  1  3  1  0  0  0  0
  4  5  1  0  0  0  0
  5  6  2  0  0  0  0
  5 10  1  0  0  0  0
  6 11  1  0  0  0  0
  7  6  1  0  0  0  0
  8  7  2  0  0  0  0
  9  8  1  0  0  0  0
  9  4  2  0  0  0  0
 13 12  1  0  0  0  0
 13  8  1  0  0  0  0
 14 13  2  0  0  0  0
 15 14  1  0  0  0  0
 16 21  2  0  0  0  0
 16 14  1  0  0  0  0
 17 16  1  0  0  0  0
 18 17  1  0  0  0  0
 18 20  2  0  0  0  0
 19 18  1  0  0  0  0
 20 21  1  0  0  0  0
 21 22  1  0  0  0  0
 22 12  2  0  0  0  0
 23 17  1  0  0  0  0
 24 27  1  0  0  0  0
 24  1  1  0  0  0  0
 25 24  1  0  0  0  0
 26 24  1  0  0  0  0
 27 31  2  0  0  0  0
 28 29  2  0  0  0  0
 28 27  1  0  0  0  0
 29 30  1  0  0  0  0
 30 31  1  0  0  0  0
 30 34  1  0  0  0  0
 32 28  1  0  0  0  0
 33 29  1  0  0  0  0
 34 39  2  0  0  0  0
 34 35  1  0  0  0  0
 35 36  2  0  0  0  0
 36 37  1  0  0  0  0
 36 41  1  0  0  0  0
 37 42  1  0  0  0  0
 38 43  1  0  0  0  0
 38 37  2  0  0  0  0
 39 38  1  0  0  0  0
 40 35  1  0  0  0  0
 44 39  1  0  0  0  0
M  END
>  <minimizedAffinity>
-6.29875755

$$$$

 OpenBabel03272504053D

 44 48  0  0  0  0  0  0  0  0999 V2000
   38.3560   26.5520   34.7390 C   0  0  0  0  0  0  0  0  0  0  0  0
   37.9100   26.0520   35.6320 H   0  0  0  0  0  0  0  0  0  0  0  0
   39.1670   27.1870   35.1740 H   0  0  0  0  0  0  0  0  0  0  0  0
   37.4490   27.4370   34.0590 C   0  0  0  0  0  0  0  0  0  0  0  0
   37.3020   27.3370   32.6960 C   0  0  0  0  0  0  0  0  0  0  0  0
   36.4100   28.2050   32.0190 C   0  0  0  0  0  0  0  0  0  0  0  0
   35.7370   29.1140   32.8030 N   0  0  0  0  0  0  0  0  0  0  0  0
   35.9250   29.1630   34.1410 C   0  0  0  0  0  0  0  0  0  0  0  0
   36.7740   28.3340   34.7740 N   0  0  0  0  0  0  0  0  0  0  0  0
   37.8520   26.6080   32.1260 H   0  0  0  0  0  0  0  0  0  0  0  0
   36.2640   28.1630   30.9660 H   0  0  0  0  0  0  0  0  0  0  0  0
   35.8480   31.0940   35.6780 C   0  0  0  0  0  3  0  0  0  0  0  0
   35.1840   30.1480   34.9240 C   0  0  0  0  0  0  0  0  0  0  0  0
   33.8230   30.2130   34.9750 C   0  0  0  0  0  0  0  0  0  0  0  0
   33.2310   29.5070   34.4120 H   0  0  0  0  0  0  0  0  0  0  0  0
   33.1500   31.1560   35.7250 C   0  0  0  0  0  0  0  0  0  0  0  0
   31.8730   31.4840   35.9850 N   0  0  0  0  0  0  0  0  0  0  0  0
   31.7970   32.5350   36.8220 C   0  0  0  0  0  0  0  0  0  0  0  0
   30.8870   32.9970   37.1880 H   0  0  0  0  0  0  0  0  0  0  0  0
   33.0480   32.9210   37.1310 N   0  0  0  0  0  0  0  0  0  0  0  0
   33.8860   32.0820   36.4630 C   0  0  0  0  0  0  0  0  0  0  0  0
   35.2760   32.0750   36.4600 C   0  0  0  0  0  3  0  0  0  0  0  0
   31.0570   30.9730   35.5760 H   0  0  0  0  0  0  0  0  0  0  0  0
   39.0340   25.4920   33.9570 C   0  0  0  0  0  0  0  0  0  0  0  0
   40.1110   25.4990   34.1010 H   0  0  0  0  0  0  0  0  0  0  0  0
   38.8810   25.7480   32.8670 H   0  0  0  0  0  0  0  0  0  0  0  0
   38.4320   24.1560   34.1240 C   0  0  0  0  0  0  0  0  0  0  0  0
   38.4900   23.4690   35.3420 C   0  0  0  0  0  0  0  0  0  0  0  0
   37.8460   22.2680   35.1760 C   0  0  0  0  0  0  0  0  0  0  0  0
   37.4210   22.2410   33.9100 N   0  0  0  0  0  0  0  0  0  0  0  0
   37.7780   23.3640   33.3120 N   0  0  0  0  0  0  0  0  0  0  0  0
   38.9350   23.7320   36.3060 H   0  0  0  0  0  0  0  0  0  0  0  0
   37.6710   21.4520   35.8710 H   0  0  0  0  0  0  0  0  0  0  0  0
   36.6980   21.2560   33.1780 C   0  0  0  0  0  0  0  0  0  0  0  0
   36.9390   21.2150   31.8170 C   0  0  0  0  0  0  0  0  0  0  0  0
   36.3160   20.3130   30.9580 C   0  0  0  0  0  0  0  0  0  0  0  0
   35.4140   19.4270   31.5370 C   0  0  0  0  0  0  0  0  0  0  0  0
   35.1680   19.4620   32.8910 C   0  0  0  0  0  0  0  0  0  0  0  0
   35.7980   20.3660   33.7330 C   0  0  0  0  0  0  0  0  0  0  0  0
   37.6400   21.9000   31.3540 H   0  0  0  0  0  0  0  0  0  0  0  0
   36.5490   20.3330   29.9010 H   0  0  0  0  0  0  0  0  0  0  0  0
   34.9440   18.7380   30.8470 H   0  0  0  0  0  0  0  0  0  0  0  0
   34.4570   18.7520   33.3020 H   0  0  0  0  0  0  0  0  0  0  0  0
   35.6270   20.4160   34.7880 H   0  0  0  0  0  0  0  0  0  0  0  0
  1  3  1  0  0  0  0
  1  2  1  0  0  0  0
  4  1  1  0  0  0  0
  4  9  1  0  0  0  0
  5  4  2  0  0  0  0
  6  5  1  0  0  0  0
  6  7  2  0  0  0  0
  7  8  1  0  0  0  0
  8  9  2  0  0  0  0
  8 13  1  0  0  0  0
 10  5  1  0  0  0  0
 11  6  1  0  0  0  0
 12 22  1  0  0  0  0
 13 14  1  0  0  0  0
 13 12  2  0  0  0  0
 14 16  2  0  0  0  0
 15 14  1  0  0  0  0
 16 17  1  0  0  0  0
 16 21  1  0  0  0  0
 17 18  1  0  0  0  0
 18 20  2  0  0  0  0
 18 19  1  0  0  0  0
 21 20  1  0  0  0  0
 22 21  2  0  0  0  0
 23 17  1  0  0  0  0
 24 25  1  0  0  0  0
 24 27  1  0  0  0  0
 24  1  1  0  0  0  0
 26 24  1  0  0  0  0
 27 28  1  0  0  0  0
 28 32  1  0  0  0  0
 29 28  2  0  0  0  0
 29 33  1  0  0  0  0
 30 29  1  0  0  0  0
 31 30  1  0  0  0  0
 31 27  2  0  0  0  0
 34 39  1  0  0  0  0
 34 30  1  0  0  0  0
 35 34  2  0  0  0  0
 36 37  2  0  0  0  0
 36 35  1  0  0  0  0
 37 38  1  0  0  0  0
 38 43  1  0  0  0  0
 38 39  2  0  0  0  0
 39 44  1  0  0  0  0
 40 35  1  0  0  0  0
 41 36  1  0  0  0  0
 42 37  1  0  0  0  0
M  END
>  <minimizedAffinity>
-6.24979401

$$$$
