
 OpenBabel03272509043D

 36 39  0  0  0  0  0  0  0  0999 V2000
   37.5830   30.3790   51.1270 C   0  0  0  0  0  0  0  0  0  0  0  0
   38.1510   30.9370   49.9640 C   0  0  0  0  0  0  0  0  0  0  0  0
   37.6050   30.5980   48.7100 C   0  0  0  0  0  0  0  0  0  0  0  0
   36.5440   29.7370   48.7380 N   0  0  0  0  0  0  0  0  0  0  0  0
   36.0340   29.2280   49.8520 C   0  0  0  0  0  0  0  0  0  0  0  0
   36.5440   29.5410   51.0550 N   0  0  0  0  0  0  0  0  0  0  0  0
   38.0230   30.6570   52.0600 H   0  0  0  0  0  0  0  0  0  0  0  0
   38.9710   31.5980   50.0170 H   0  0  0  0  0  0  0  0  0  0  0  0
   39.4570   31.2930   47.1880 C   0  0  0  0  0  3  0  0  0  0  0  0
   38.1210   31.1230   47.4540 C   0  0  0  0  0  0  0  0  0  0  0  0
   37.2100   31.4680   46.4800 C   0  0  0  0  0  0  0  0  0  0  0  0
   36.1440   31.3750   46.5840 H   0  0  0  0  0  0  0  0  0  0  0  0
   37.6960   31.9700   45.2720 C   0  0  0  0  0  0  0  0  0  0  0  0
   37.0910   32.3900   44.1450 N   0  0  0  0  0  0  0  0  0  0  0  0
   38.0180   32.7940   43.2410 C   0  0  0  0  0  0  0  0  0  0  0  0
   37.9120   33.1870   42.2400 H   0  0  0  0  0  0  0  0  0  0  0  0
   39.2250   32.6340   43.7890 N   0  0  0  0  0  0  0  0  0  0  0  0
   39.0580   32.1340   45.0260 C   0  0  0  0  0  0  0  0  0  0  0  0
   39.9680   31.7790   46.0270 C   0  0  0  0  0  3  0  0  0  0  0  0
   36.0630   32.4130   43.9660 H   0  0  0  0  0  0  0  0  0  0  0  0
   34.9230   28.3310   49.6760 C   0  0  0  0  0  3  0  0  0  0  0  0
   34.4010   28.1670   48.5120 C   0  0  0  0  0  3  0  0  0  0  0  0
   33.2860   27.3080   48.0970 C   0  0  0  0  0  0  0  0  0  0  0  0
   32.9060   26.7940   49.0050 H   0  0  0  0  0  0  0  0  0  0  0  0
   32.4360   27.8840   47.6780 H   0  0  0  0  0  0  0  0  0  0  0  0
   33.6750   26.2820   47.0780 C   0  0  0  0  0  0  0  0  0  0  0  0
   33.8520   24.9330   47.3300 C   0  0  0  0  0  0  0  0  0  0  0  0
   34.2090   24.0850   46.2900 C   0  0  0  0  0  0  0  0  0  0  0  0
   34.3930   24.5760   44.9860 C   0  0  0  0  0  0  0  0  0  0  0  0
   34.2170   25.9090   44.7440 C   0  0  0  0  0  0  0  0  0  0  0  0
   33.8630   26.7460   45.7790 C   0  0  0  0  0  0  0  0  0  0  0  0
   33.6990   24.6050   48.3440 H   0  0  0  0  0  0  0  0  0  0  0  0
   34.3300   23.0390   46.5650 H   0  0  0  0  0  0  0  0  0  0  0  0
   34.6730   23.8580   44.2160 H   0  0  0  0  0  0  0  0  0  0  0  0
   34.3730   26.2290   43.7240 H   0  0  0  0  0  0  0  0  0  0  0  0
   33.7310   27.7960   45.5510 H   0  0  0  0  0  0  0  0  0  0  0  0
  1  7  1  0  0  0  0
  2  8  1  0  0  0  0
  2  1  2  0  0  0  0
  3  4  2  0  0  0  0
  3  2  1  0  0  0  0
  4  5  1  0  0  0  0
  5  6  2  0  0  0  0
  6  1  1  0  0  0  0
  9 10  1  0  0  0  0
 10  3  1  0  0  0  0
 11 12  1  0  0  0  0
 11 10  2  0  0  0  0
 13 11  1  0  0  0  0
 14 13  1  0  0  0  0
 15 17  2  0  0  0  0
 15 14  1  0  0  0  0
 16 15  1  0  0  0  0
 17 18  1  0  0  0  0
 18 13  2  0  0  0  0
 18 19  1  0  0  0  0
 19  9  2  0  0  0  0
 20 14  1  0  0  0  0
 21  5  1  0  0  0  0
 22 21  2  0  0  0  0
 23 22  1  0  0  0  0
 23 24  1  0  0  0  0
 25 23  1  0  0  0  0
 26 27  1  0  0  0  0
 26 23  1  0  0  0  0
 27 32  1  0  0  0  0
 28 33  1  0  0  0  0
 28 27  2  0  0  0  0
 29 28  1  0  0  0  0
 30 29  2  0  0  0  0
 30 31  1  0  0  0  0
 31 26  2  0  0  0  0
 34 29  1  0  0  0  0
 35 30  1  0  0  0  0
 36 31  1  0  0  0  0
M  END
>  <minimizedAffinity>
-6.49749136

>  <minimizedRMSD>
0.623593867

$$$$
