
 OpenBabel03272510013D

 24 26  0  0  0  0  0  0  0  0999 V2000
   38.2350   31.3710   50.2900 C   0  0  0  0  0  0  0  0  0  0  0  0
   38.5210   31.4030   48.9240 C   0  0  0  0  0  0  0  0  0  0  0  0
   37.6600   30.7350   48.0660 C   0  0  0  0  0  0  0  0  0  0  0  0
   36.5930   30.0900   48.5930 N   0  0  0  0  0  0  0  0  0  0  0  0
   36.3460   30.0780   49.9250 C   0  0  0  0  0  0  0  0  0  0  0  0
   37.1730   30.7220   50.7640 N   0  0  0  0  0  0  0  0  0  0  0  0
   38.9350   31.9060   50.9230 H   0  0  0  0  0  0  0  0  0  0  0  0
   39.3650   31.9170   48.5390 H   0  0  0  0  0  0  0  0  0  0  0  0
   39.1450   30.7330   46.1550 C   0  0  0  0  0  3  0  0  0  0  0  0
   37.8490   30.6960   46.6250 C   0  0  0  0  0  0  0  0  0  0  0  0
   36.8300   30.6240   45.7250 C   0  0  0  0  0  0  0  0  0  0  0  0
   35.8200   30.5930   46.0530 H   0  0  0  0  0  0  0  0  0  0  0  0
   37.0150   30.5860   44.3540 C   0  0  0  0  0  0  0  0  0  0  0  0
   36.1490   30.5170   43.3090 N   0  0  0  0  0  0  0  0  0  0  0  0
   36.9020   30.5110   42.1900 C   0  0  0  0  0  0  0  0  0  0  0  0
   36.3960   30.4590   41.2360 H   0  0  0  0  0  0  0  0  0  0  0  0
   38.2130   30.5760   42.5260 N   0  0  0  0  0  0  0  0  0  0  0  0
   38.3220   30.6240   43.8660 C   0  0  0  0  0  0  0  0  0  0  0  0
   39.3720   30.6980   44.7770 C   0  0  0  0  0  3  0  0  0  0  0  0
   35.0920   30.4770   43.4120 H   0  0  0  0  0  0  0  0  0  0  0  0
   35.1460   29.3370   50.3840 C   0  0  0  0  0  0  0  0  0  0  0  0
   35.1910   29.0760   51.7520 F   0  0  0  0  0  0  0  0  0  0  0  0
   33.9850   30.0690   50.1820 F   0  0  0  0  0  0  0  0  0  0  0  0
   34.9640   28.1330   49.7560 F   0  0  0  0  0  0  0  0  0  0  0  0
  1  6  1  0  0  0  0
  1  7  1  0  0  0  0
  2  1  2  0  0  0  0
  3  4  2  0  0  0  0
  3  2  1  0  0  0  0
  4  5  1  0  0  0  0
  5 21  1  0  0  0  0
  5  6  2  0  0  0  0
  8  2  1  0  0  0  0
  9 10  1  0  0  0  0
 10  3  1  0  0  0  0
 11 12  1  0  0  0  0
 11 10  2  0  0  0  0
 13 11  1  0  0  0  0
 14 20  1  0  0  0  0
 14 13  1  0  0  0  0
 15 17  2  0  0  0  0
 15 14  1  0  0  0  0
 16 15  1  0  0  0  0
 17 18  1  0  0  0  0
 18 13  2  0  0  0  0
 18 19  1  0  0  0  0
 19  9  2  0  0  0  0
 21 22  1  0  0  0  0
 23 21  1  0  0  0  0
 24 21  1  0  0  0  0
M  END
>  <minimizedAffinity>
-5.78637552

>  <minimizedRMSD>
1.32750118

$$$$
