
 OpenBabel03262523473D

 41 45  0  0  0  0  0  0  0  0999 V2000
   36.8990   32.6320   43.4870 Cl  0  0  0  0  0  0  0  0  0  0  0  0
   37.8210   31.1660   43.1840 C   0  0  0  0  0  0  0  0  0  0  0  0
   38.5580   30.7010   44.2540 C   0  0  0  0  0  0  0  0  0  0  0  0
   39.3280   29.5380   44.1140 C   0  0  0  0  0  0  0  0  0  0  0  0
   39.3560   28.8490   42.9080 C   0  0  0  0  0  0  0  0  0  0  0  0
   38.5990   29.3520   41.8590 C   0  0  0  0  0  0  0  0  0  0  0  0
   37.8270   30.5100   41.9830 C   0  0  0  0  0  0  0  0  0  0  0  0
   39.9200   29.1300   44.9080 H   0  0  0  0  0  0  0  0  0  0  0  0
   39.9440   27.9440   42.7700 H   0  0  0  0  0  0  0  0  0  0  0  0
   38.6080   28.8270   40.9040 H   0  0  0  0  0  0  0  0  0  0  0  0
   35.7050   30.7710   40.6240 C   0  0  0  0  0  0  0  0  0  0  0  0
   37.0310   31.0420   40.8830 C   0  0  0  0  0  0  0  0  0  0  0  0
   37.6830   31.9080   40.0120 C   0  0  0  0  0  0  0  0  0  0  0  0
   38.7160   32.1840   40.1250 H   0  0  0  0  0  0  0  0  0  0  0  0
   37.0290   32.4780   38.9270 C   0  0  0  0  0  0  0  0  0  0  0  0
   37.4280   33.3360   37.9470 N   0  0  0  0  0  0  0  0  0  0  0  0
   36.3820   33.5780   37.1210 C   0  0  0  0  0  0  0  0  0  0  0  0
   36.3940   34.2220   36.2500 H   0  0  0  0  0  0  0  0  0  0  0  0
   35.3370   32.8790   37.5780 N   0  0  0  0  0  0  0  0  0  0  0  0
   35.6960   32.1940   38.6810 C   0  0  0  0  0  0  0  0  0  0  0  0
   35.0520   31.3350   39.5470 C   0  0  0  0  0  0  0  0  0  0  0  0
   38.3940   33.7270   37.8700 H   0  0  0  0  0  0  0  0  0  0  0  0
   38.6870   32.9290   49.7850 Cl  0  0  0  0  0  0  0  0  0  0  0  0
   38.6480   32.2730   48.1570 C   0  0  0  0  0  0  0  0  0  0  0  0
   37.8940   31.1570   47.8740 C   0  0  0  0  0  0  0  0  0  0  0  0
   37.9110   30.7010   46.5830 C   0  0  0  0  0  0  0  0  0  0  0  0
   38.6390   31.3010   45.5790 C   0  0  0  0  0  0  0  0  0  0  0  0
   39.3910   32.4320   45.9100 C   0  0  0  0  0  0  0  0  0  0  0  0
   40.2960   33.1640   44.6150 Cl  0  0  0  0  0  0  0  0  0  0  0  0
   39.4000   32.9220   47.1950 C   0  0  0  0  0  0  0  0  0  0  0  0
   37.3140   29.8210   46.3730 H   0  0  0  0  0  0  0  0  0  0  0  0
   39.9910   33.7980   47.4200 H   0  0  0  0  0  0  0  0  0  0  0  0
   37.0160   29.3540   51.0870 C   0  0  0  0  0  0  0  0  0  0  0  0
   37.7710   29.9160   50.0470 C   0  0  0  0  0  0  0  0  0  0  0  0
   37.1370   30.5550   48.9810 C   0  0  0  0  0  0  0  0  0  0  0  0
   35.7730   30.5960   49.0100 N   0  0  0  0  0  0  0  0  0  0  0  0
   35.0800   30.0420   50.0280 C   0  0  0  0  0  0  0  0  0  0  0  0
   35.6820   29.4360   51.0420 N   0  0  0  0  0  0  0  0  0  0  0  0
   37.6550   28.9020   51.8280 H   0  0  0  0  0  0  0  0  0  0  0  0
   38.8500   29.9200   49.9620 H   0  0  0  0  0  0  0  0  0  0  0  0
   34.0060   30.1110   49.9860 H   0  0  0  0  0  0  0  0  0  0  0  0
  2  1  1  0  0  0  0
  2  3  1  0  0  0  0
  3 27  1  0  0  0  0
  4  3  2  0  0  0  0
  4  8  1  0  0  0  0
  5  4  1  0  0  0  0
  6  7  1  0  0  0  0
  6  5  2  0  0  0  0
  7  2  2  0  0  0  0
  9  5  1  0  0  0  0
 10  6  1  0  0  0  0
 11 12  1  0  0  0  0
 12  7  1  0  0  0  0
 13 14  1  0  0  0  0
 13 12  2  0  0  0  0
 15 13  1  0  0  0  0
 16 15  1  0  0  0  0
 17 19  2  0  0  0  0
 17 16  1  0  0  0  0
 18 17  1  0  0  0  0
 19 20  1  0  0  0  0
 20 15  2  0  0  0  0
 20 21  1  0  0  0  0
 21 11  2  0  0  0  0
 22 16  1  0  0  0  0
 24 23  1  0  0  0  0
 25 24  1  0  0  0  0
 25 35  1  0  0  0  0
 26 25  2  0  0  0  0
 27 28  2  0  0  0  0
 27 26  1  0  0  0  0
 28 30  1  0  0  0  0
 29 28  1  0  0  0  0
 30 32  1  0  0  0  0
 30 24  2  0  0  0  0
 31 26  1  0  0  0  0
 33 39  1  0  0  0  0
 34 33  2  0  0  0  0
 35 36  2  0  0  0  0
 35 34  1  0  0  0  0
 36 37  1  0  0  0  0
 37 38  2  0  0  0  0
 38 33  1  0  0  0  0
 40 34  1  0  0  0  0
 41 37  1  0  0  0  0
M  END
>  <minimizedAffinity>
-6.49540424

>  <minimizedRMSD>
0.772685766

$$$$
