
 OpenBabel03272507043D

 34 38  0  0  0  0  0  0  0  0999 V2000
   38.5810   32.8740   48.8560 C   0  0  0  0  0  0  0  0  0  0  0  0
   39.1780   32.8230   47.5740 C   0  0  0  0  0  0  0  0  0  0  0  0
   38.6210   31.9310   46.6470 C   0  0  0  0  0  0  0  0  0  0  0  0
   37.5540   31.1750   47.0190 N   0  0  0  0  0  0  0  0  0  0  0  0
   37.0150   31.2590   48.2600 C   0  0  0  0  0  0  0  0  0  0  0  0
   37.5240   32.0980   49.1650 N   0  0  0  0  0  0  0  0  0  0  0  0
   39.0160   33.5630   49.5640 H   0  0  0  0  0  0  0  0  0  0  0  0
   40.0160   33.4160   47.2810 H   0  0  0  0  0  0  0  0  0  0  0  0
   35.6080   30.1010   49.9060 C   0  0  0  0  0  0  0  0  0  0  0  0
   35.8730   30.4070   48.5660 C   0  0  0  0  0  0  0  0  0  0  0  0
   35.0760   29.9190   47.5590 C   0  0  0  0  0  0  0  0  0  0  0  0
   33.9910   29.1060   47.8670 C   0  0  0  0  0  0  0  0  0  0  0  0
   33.0580   28.5000   47.0870 N   0  0  0  0  0  0  0  0  0  0  0  0
   32.2670   27.8510   47.9730 C   0  0  0  0  0  0  0  0  0  0  0  0
   32.6890   28.0480   49.2300 N   0  0  0  0  0  0  0  0  0  0  0  0
   33.7700   28.8330   49.1980 C   0  0  0  0  0  0  0  0  0  0  0  0
   34.5320   29.2950   50.2350 C   0  0  0  0  0  0  0  0  0  0  0  0
   36.2560   30.5050   50.6660 H   0  0  0  0  0  0  0  0  0  0  0  0
   35.2480   30.1320   46.5130 H   0  0  0  0  0  0  0  0  0  0  0  0
   32.9680   28.5230   46.0550 H   0  0  0  0  0  0  0  0  0  0  0  0
   31.4010   27.2500   47.6800 H   0  0  0  0  0  0  0  0  0  0  0  0
   34.3450   29.0700   51.2760 H   0  0  0  0  0  0  0  0  0  0  0  0
   38.9620   32.8070   44.4120 C   0  0  0  0  0  0  0  0  0  0  0  0
   39.1220   31.7630   45.2890 C   0  0  0  0  0  0  0  0  0  0  0  0
   39.7440   30.6230   44.8340 C   0  0  0  0  0  0  0  0  0  0  0  0
   39.8820   29.7870   45.5020 H   0  0  0  0  0  0  0  0  0  0  0  0
   40.2020   30.5050   43.5390 C   0  0  0  0  0  0  0  0  0  0  0  0
   40.8280   29.5110   42.8800 N   0  0  0  0  0  0  0  0  0  0  0  0
   41.0730   29.8890   41.6090 C   0  0  0  0  0  0  0  0  0  0  0  0
   41.5600   29.3200   40.8240 H   0  0  0  0  0  0  0  0  0  0  0  0
   40.5860   31.1480   41.4830 N   0  0  0  0  0  0  0  0  0  0  0  0
   40.0480   31.5490   42.6500 C   0  0  0  0  0  0  0  0  0  0  0  0
   39.4190   32.7090   43.1020 C   0  0  0  0  0  0  0  0  0  0  0  0
   41.0820   28.5810   43.3060 H   0  0  0  0  0  0  0  0  0  0  0  0
  1  6  1  0  0  0  0
  1  7  1  0  0  0  0
  2  1  2  0  0  0  0
  3  4  2  0  0  0  0
  3  2  1  0  0  0  0
  4  5  1  0  0  0  0
  5 10  1  0  0  0  0
  5  6  2  0  0  0  0
  8  2  1  0  0  0  0
  9 17  1  0  0  0  0
  9 18  1  0  0  0  0
 10  9  2  0  0  0  0
 11 12  2  0  0  0  0
 11 10  1  0  0  0  0
 12 16  1  0  0  0  0
 13 12  1  0  0  0  0
 13 14  1  0  0  0  0
 14 15  2  0  0  0  0
 16 15  1  0  0  0  0
 16 17  2  0  0  0  0
 17 22  1  0  0  0  0
 19 11  1  0  0  0  0
 20 13  1  0  0  0  0
 21 14  1  0  0  0  0
 23 24  1  0  0  0  0
 24  3  1  0  0  0  0
 25 24  2  0  0  0  0
 25 26  1  0  0  0  0
 27 25  1  0  0  0  0
 28 34  1  0  0  0  0
 28 27  1  0  0  0  0
 29 28  1  0  0  0  0
 30 29  1  0  0  0  0
 31 29  2  0  0  0  0
 31 32  1  0  0  0  0
 32 33  1  0  0  0  0
 32 27  2  0  0  0  0
 33 23  2  0  0  0  0
M  END
>  <minimizedAffinity>
-7.26126003

>  <minimizedRMSD>
3.23351789

$$$$
