
 OpenBabel03272508573D

 43 47  0  0  1  0  0  0  0  0999 V2000
   38.7510   31.4970   44.0510 C   0  0  0  0  0  0  0  0  0  0  0  0
   39.8110   30.6370   43.9900 C   0  0  0  0  0  0  0  0  0  0  0  0
   40.5270   30.5860   42.8040 C   0  0  0  0  0  0  0  0  0  0  0  0
   40.1360   31.3910   41.7680 C   0  0  0  0  0  0  0  0  0  0  0  0
   39.0510   32.2730   41.8310 C   0  0  0  0  0  0  0  0  0  0  0  0
   38.3960   32.2780   43.0060 N   0  0  0  0  0  0  0  0  0  0  0  0
   40.1270   29.9950   44.8050 H   0  0  0  0  0  0  0  0  0  0  0  0
   41.3810   29.9420   42.6480 H   0  0  0  0  0  0  0  0  0  0  0  0
   40.6590   31.3990   40.8060 H   0  0  0  0  0  0  0  0  0  0  0  0
   37.9680   31.5790   45.3030 C   0  0  0  0  0  0  0  0  0  0  0  0
   36.9360   30.9050   45.4710 O   0  0  0  0  0  0  0  0  0  0  0  0
   38.4520   32.4820   46.3390 N   0  0  0  0  0  0  0  0  0  0  0  0
   39.1690   33.1950   46.1820 H   0  0  0  0  0  0  0  0  0  0  0  0
   38.4770   31.4860   48.6160 C   0  0  2  0  0  0  0  0  0  0  0  0
   38.7500   32.9390   48.7810 C   0  0  0  0  0  0  0  0  0  0  0  0
   37.8740   32.3460   47.6520 C   0  0  1  0  0  0  0  0  0  0  0  0
   39.3630   30.8670   48.3660 H   0  0  0  0  0  0  0  0  0  0  0  0
   38.2580   33.5110   49.5800 H   0  0  0  0  0  0  0  0  0  0  0  0
   39.7370   33.3090   48.5090 H   0  0  0  0  0  0  0  0  0  0  0  0
   36.7900   32.6330   47.7770 H   0  0  0  0  0  0  0  0  0  0  0  0
   35.6210   29.6000   50.0750 C   0  0  0  0  0  0  0  0  0  0  0  0
   36.0510   29.4220   51.4280 C   0  0  0  0  0  0  0  0  0  0  0  0
   37.3340   29.9740   51.8110 C   0  0  0  0  0  0  0  0  0  0  0  0
   38.0920   30.6440   50.8800 N   0  0  0  0  0  0  0  0  0  0  0  0
   37.6010   30.7650   49.6180 C   0  0  0  0  0  0  0  0  0  0  0  0
   36.3810   30.2620   49.1780 N   0  0  0  0  0  0  0  0  0  0  0  0
   34.6740   29.1930   49.7940 H   0  0  0  0  0  0  0  0  0  0  0  0
   35.4580   28.9040   52.1350 H   0  0  0  0  0  0  0  0  0  0  0  0
   37.6570   29.8400   52.8300 H   0  0  0  0  0  0  0  0  0  0  0  0
   38.6650   33.1170   40.7000 C   0  0  0  0  0  0  0  0  0  0  0  0
   38.4160   34.3250   40.9210 O   0  0  0  0  0  0  0  0  0  0  0  0
   37.7010   31.5440   38.9810 C   0  0  0  0  0  3  0  0  0  0  0  0
   38.5910   32.5000   39.3630 C   0  0  0  0  0  0  0  0  0  0  0  0
   39.4930   32.9080   38.3960 C   0  0  0  0  0  0  0  0  0  0  0  0
   40.2270   33.6760   38.6650 H   0  0  0  0  0  0  0  0  0  0  0  0
   39.5350   32.4140   37.1070 C   0  0  0  0  0  0  0  0  0  0  0  0
   40.3540   32.7190   36.0650 N   0  0  0  0  0  0  0  0  0  0  0  0
   39.9360   31.9280   35.0570 C   0  0  0  0  0  0  0  0  0  0  0  0
   40.4550   31.9970   34.0980 H   0  0  0  0  0  0  0  0  0  0  0  0
   38.9060   31.1690   35.4550 N   0  0  0  0  0  0  0  0  0  0  0  0
   38.6190   31.4480   36.7530 C   0  0  0  0  0  0  0  0  0  0  0  0
   37.7070   31.0200   37.7000 C   0  0  0  0  0  3  0  0  0  0  0  0
   41.1350   33.4260   36.0830 H   0  0  0  0  0  0  0  0  0  0  0  0
  1 10  1  0  0  0  0
  2  1  1  0  0  0  0
  2  7  1  0  0  0  0
  3  2  2  0  0  0  0
  4  5  2  0  0  0  0
  4  3  1  0  0  0  0
  5  6  1  0  0  0  0
  6  1  2  0  0  0  0
  8  3  1  0  0  0  0
  9  4  1  0  0  0  0
 10 11  2  0  0  0  0
 10 12  1  0  0  0  0
 12 16  1  0  0  0  0
 13 12  1  0  0  0  0
 14 17  1  6  0  0  0
 14 15  1  0  0  0  0
 14 25  1  0  0  0  0
 15 18  1  0  0  0  0
 16 20  1  1  0  0  0
 16 14  1  0  0  0  0
 16 15  1  0  0  0  0
 19 15  1  0  0  0  0
 21 22  1  0  0  0  0
 22 23  2  0  0  0  0
 22 28  1  0  0  0  0
 23 29  1  0  0  0  0
 24 23  1  0  0  0  0
 25 24  2  0  0  0  0
 26 25  1  0  0  0  0
 26 21  2  0  0  0  0
 27 21  1  0  0  0  0
 30 31  2  0  0  0  0
 30  5  1  0  0  0  0
 32 33  1  0  0  0  0
 33 30  1  0  0  0  0
 34 35  1  0  0  0  0
 34 33  2  0  0  0  0
 36 34  1  0  0  0  0
 37 43  1  0  0  0  0
 37 36  1  0  0  0  0
 38 40  2  0  0  0  0
 38 37  1  0  0  0  0
 39 38  1  0  0  0  0
 40 41  1  0  0  0  0
 41 36  2  0  0  0  0
 41 42  1  0  0  0  0
 42 32  2  0  0  0  0
M  END
>  <minimizedAffinity>
-5.44128752

>  <minimizedRMSD>
1.67387438

$$$$
