
 OpenBabel03272508563D

 43 47  0  0  1  0  0  0  0  0999 V2000
   39.2110   31.4120   43.3780 C   0  0  0  0  0  0  0  0  0  0  0  0
   40.2340   30.5240   43.5550 C   0  0  0  0  0  0  0  0  0  0  0  0
   40.9590   30.1510   42.4330 C   0  0  0  0  0  0  0  0  0  0  0  0
   40.6110   30.6850   41.2220 C   0  0  0  0  0  0  0  0  0  0  0  0
   39.5630   31.5940   41.0410 C   0  0  0  0  0  0  0  0  0  0  0  0
   38.8980   31.9180   42.1650 N   0  0  0  0  0  0  0  0  0  0  0  0
   40.5160   30.0950   44.5100 H   0  0  0  0  0  0  0  0  0  0  0  0
   41.7870   29.4560   42.4590 H   0  0  0  0  0  0  0  0  0  0  0  0
   41.1430   30.4310   40.2980 H   0  0  0  0  0  0  0  0  0  0  0  0
   38.4210   31.8340   44.5550 C   0  0  0  0  0  0  0  0  0  0  0  0
   37.3370   32.4320   44.4310 O   0  0  0  0  0  0  0  0  0  0  0  0
   38.9610   31.5210   45.8720 N   0  0  0  0  0  0  0  0  0  0  0  0
   39.9230   31.2140   46.0350 H   0  0  0  0  0  0  0  0  0  0  0  0
   38.4140   31.0930   48.2600 C   0  0  2  0  0  0  0  0  0  0  0  0
   38.6310   32.5580   48.1260 C   0  0  0  0  0  0  0  0  0  0  0  0
   38.0700   31.6610   46.9970 C   0  0  1  0  0  0  0  0  0  0  0  0
   39.3370   30.4910   48.3910 H   0  0  0  0  0  0  0  0  0  0  0  0
   37.9510   33.2690   48.6160 H   0  0  0  0  0  0  0  0  0  0  0  0
   39.6530   32.9170   48.0210 H   0  0  0  0  0  0  0  0  0  0  0  0
   36.9890   31.8980   46.7810 H   0  0  0  0  0  0  0  0  0  0  0  0
   35.0330   30.2140   49.5380 C   0  0  0  0  0  0  0  0  0  0  0  0
   35.3480   29.5820   50.7830 C   0  0  0  0  0  0  0  0  0  0  0  0
   36.7420   29.4820   51.1600 C   0  0  0  0  0  0  0  0  0  0  0  0
   37.7110   29.9880   50.3250 N   0  0  0  0  0  0  0  0  0  0  0  0
   37.3170   30.5720   49.1620 C   0  0  0  0  0  0  0  0  0  0  0  0
   36.0000   30.7040   48.7350 N   0  0  0  0  0  0  0  0  0  0  0  0
   34.0040   30.2880   49.2620 H   0  0  0  0  0  0  0  0  0  0  0  0
   34.5930   29.1970   51.4150 H   0  0  0  0  0  0  0  0  0  0  0  0
   36.9790   29.0060   52.0970 H   0  0  0  0  0  0  0  0  0  0  0  0
   39.2230   32.1420   39.7280 C   0  0  0  0  0  0  0  0  0  0  0  0
   38.8350   33.3320   39.6660 O   0  0  0  0  0  0  0  0  0  0  0  0
   40.3000   31.3830   37.5770 C   0  0  0  0  0  3  0  0  0  0  0  0
   39.3560   31.2640   38.5510 C   0  0  0  0  0  0  0  0  0  0  0  0
   38.4580   30.2220   38.3990 C   0  0  0  0  0  0  0  0  0  0  0  0
   37.6830   30.0930   39.1620 H   0  0  0  0  0  0  0  0  0  0  0  0
   38.4690   29.3280   37.3470 C   0  0  0  0  0  0  0  0  0  0  0  0
   37.6600   28.2700   37.0720 N   0  0  0  0  0  0  0  0  0  0  0  0
   38.1390   27.7630   35.9190 C   0  0  0  0  0  0  0  0  0  0  0  0
   37.6380   26.8900   35.4930 H   0  0  0  0  0  0  0  0  0  0  0  0
   39.1940   28.4730   35.4980 N   0  0  0  0  0  0  0  0  0  0  0  0
   39.4370   29.4770   36.3790 C   0  0  0  0  0  0  0  0  0  0  0  0
   40.3470   30.5100   36.5060 C   0  0  0  0  0  3  0  0  0  0  0  0
   36.8460   27.9500   37.6600 H   0  0  0  0  0  0  0  0  0  0  0  0
  1  2  1  0  0  0  0
  1 10  1  0  0  0  0
  2  7  1  0  0  0  0
  3  8  1  0  0  0  0
  3  2  2  0  0  0  0
  4  3  1  0  0  0  0
  5  4  2  0  0  0  0
  5  6  1  0  0  0  0
  6  1  2  0  0  0  0
  9  4  1  0  0  0  0
 10 12  1  0  0  0  0
 11 10  2  0  0  0  0
 12 13  1  0  0  0  0
 12 16  1  0  0  0  0
 14 17  1  6  0  0  0
 14 25  1  0  0  0  0
 15 14  1  0  0  0  0
 15 18  1  0  0  0  0
 16 20  1  6  0  0  0
 16 15  1  0  0  0  0
 16 14  1  0  0  0  0
 19 15  1  0  0  0  0
 21 22  1  0  0  0  0
 22 23  2  0  0  0  0
 22 28  1  0  0  0  0
 23 29  1  0  0  0  0
 24 23  1  0  0  0  0
 25 24  2  0  0  0  0
 26 25  1  0  0  0  0
 26 21  2  0  0  0  0
 27 21  1  0  0  0  0
 30  5  1  0  0  0  0
 31 30  2  0  0  0  0
 32 33  1  0  0  0  0
 33 30  1  0  0  0  0
 34 33  2  0  0  0  0
 34 35  1  0  0  0  0
 36 34  1  0  0  0  0
 37 36  1  0  0  0  0
 37 43  1  0  0  0  0
 38 37  1  0  0  0  0
 39 38  1  0  0  0  0
 40 38  2  0  0  0  0
 40 41  1  0  0  0  0
 41 42  1  0  0  0  0
 41 36  2  0  0  0  0
 42 32  2  0  0  0  0
M  END
>  <minimizedAffinity>
-4.90770578

>  <minimizedRMSD>
0.247396499

$$$$
