
 OpenBabel03272508563D

 43 47  0  0  1  0  0  0  0  0999 V2000
   39.1430   31.4430   43.3010 C   0  0  0  0  0  0  0  0  0  0  0  0
   40.2460   30.6410   43.3890 C   0  0  0  0  0  0  0  0  0  0  0  0
   40.8940   30.3120   42.2100 C   0  0  0  0  0  0  0  0  0  0  0  0
   40.3990   30.8010   41.0320 C   0  0  0  0  0  0  0  0  0  0  0  0
   39.2700   31.6220   40.9410 C   0  0  0  0  0  0  0  0  0  0  0  0
   38.6840   31.9080   42.1180 N   0  0  0  0  0  0  0  0  0  0  0  0
   40.6450   30.2480   44.3180 H   0  0  0  0  0  0  0  0  0  0  0  0
   41.7750   29.6850   42.1650 H   0  0  0  0  0  0  0  0  0  0  0  0
   40.8640   30.5780   40.0650 H   0  0  0  0  0  0  0  0  0  0  0  0
   38.4300   31.8160   44.5420 C   0  0  0  0  0  0  0  0  0  0  0  0
   37.3440   32.4210   44.5120 O   0  0  0  0  0  0  0  0  0  0  0  0
   39.0510   31.4480   45.8080 N   0  0  0  0  0  0  0  0  0  0  0  0
   40.0200   31.1330   45.8970 H   0  0  0  0  0  0  0  0  0  0  0  0
   38.7450   31.1150   48.2530 C   0  0  2  0  0  0  0  0  0  0  0  0
   38.7400   32.5830   48.0170 C   0  0  0  0  0  0  0  0  0  0  0  0
   38.2330   31.5410   46.9920 C   0  0  1  0  0  0  0  0  0  0  0  0
   39.7500   30.6560   48.3440 H   0  0  0  0  0  0  0  0  0  0  0  0
   38.0040   33.2270   48.5170 H   0  0  0  0  0  0  0  0  0  0  0  0
   39.6910   33.0710   47.8080 H   0  0  0  0  0  0  0  0  0  0  0  0
   37.1160   31.6120   46.8510 H   0  0  0  0  0  0  0  0  0  0  0  0
   35.9110   29.2040   49.7230 C   0  0  0  0  0  0  0  0  0  0  0  0
   36.1320   29.3900   51.1250 C   0  0  0  0  0  0  0  0  0  0  0  0
   37.2660   30.1910   51.5330 C   0  0  0  0  0  0  0  0  0  0  0  0
   38.0890   30.7430   50.5800 N   0  0  0  0  0  0  0  0  0  0  0  0
   37.8010   30.5130   49.2710 C   0  0  0  0  0  0  0  0  0  0  0  0
   36.7310   29.7560   48.8040 N   0  0  0  0  0  0  0  0  0  0  0  0
   35.0730   28.6130   49.4230 H   0  0  0  0  0  0  0  0  0  0  0  0
   35.4910   28.9590   51.8480 H   0  0  0  0  0  0  0  0  0  0  0  0
   37.4310   30.3310   52.5890 H   0  0  0  0  0  0  0  0  0  0  0  0
   38.7710   32.1250   39.6610 C   0  0  0  0  0  0  0  0  0  0  0  0
   39.2940   33.1600   39.1860 O   0  0  0  0  0  0  0  0  0  0  0  0
   37.8380   30.3230   38.1620 C   0  0  0  0  0  3  0  0  0  0  0  0
   37.6800   31.3860   38.9990 C   0  0  0  0  0  0  0  0  0  0  0  0
   36.3750   31.7830   39.2320 C   0  0  0  0  0  0  0  0  0  0  0  0
   36.2060   32.6340   39.9010 H   0  0  0  0  0  0  0  0  0  0  0  0
   35.2640   31.1800   38.6780 C   0  0  0  0  0  0  0  0  0  0  0  0
   33.9390   31.4600   38.8160 N   0  0  0  0  0  0  0  0  0  0  0  0
   33.3150   30.5470   38.0460 C   0  0  0  0  0  0  0  0  0  0  0  0
   32.2230   30.5750   37.9980 H   0  0  0  0  0  0  0  0  0  0  0  0
   34.2080   29.7390   37.4600 N   0  0  0  0  0  0  0  0  0  0  0  0
   35.4580   30.1080   37.8350 C   0  0  0  0  0  0  0  0  0  0  0  0
   36.7540   29.6900   37.5850 C   0  0  0  0  0  3  0  0  0  0  0  0
   33.5320   32.2320   39.4070 H   0  0  0  0  0  0  0  0  0  0  0  0
  1  2  1  0  0  0  0
  1 10  1  0  0  0  0
  2  7  1  0  0  0  0
  3  2  2  0  0  0  0
  4  3  1  0  0  0  0
  5  4  2  0  0  0  0
  5  6  1  0  0  0  0
  6  1  2  0  0  0  0
  8  3  1  0  0  0  0
  9  4  1  0  0  0  0
 10 12  1  0  0  0  0
 11 10  2  0  0  0  0
 12 13  1  0  0  0  0
 12 16  1  0  0  0  0
 14 17  1  6  0  0  0
 14 25  1  0  0  0  0
 15 14  1  0  0  0  0
 15 18  1  0  0  0  0
 16 20  1  6  0  0  0
 16 15  1  0  0  0  0
 16 14  1  0  0  0  0
 19 15  1  0  0  0  0
 21 22  1  0  0  0  0
 22 23  2  0  0  0  0
 22 28  1  0  0  0  0
 23 29  1  0  0  0  0
 24 23  1  0  0  0  0
 25 24  2  0  0  0  0
 26 25  1  0  0  0  0
 26 21  2  0  0  0  0
 27 21  1  0  0  0  0
 30  5  1  0  0  0  0
 31 30  2  0  0  0  0
 32 33  1  0  0  0  0
 33 34  2  0  0  0  0
 33 30  1  0  0  0  0
 34 35  1  0  0  0  0
 36 37  1  0  0  0  0
 36 34  1  0  0  0  0
 37 43  1  0  0  0  0
 38 37  1  0  0  0  0
 39 38  1  0  0  0  0
 40 41  1  0  0  0  0
 40 38  2  0  0  0  0
 41 36  2  0  0  0  0
 42 41  1  0  0  0  0
 42 32  2  0  0  0  0
M  END
>  <minimizedAffinity>
-4.87734413

>  <minimizedRMSD>
2.24531555

$$$$
