
 OpenBabel03272508563D

 43 47  0  0  1  0  0  0  0  0999 V2000
   39.1490   31.4890   43.3250 C   0  0  0  0  0  0  0  0  0  0  0  0
   40.1490   30.5690   43.4680 C   0  0  0  0  0  0  0  0  0  0  0  0
   40.8650   30.2180   42.3340 C   0  0  0  0  0  0  0  0  0  0  0  0
   40.5330   30.8050   41.1440 C   0  0  0  0  0  0  0  0  0  0  0  0
   39.5100   31.7470   40.9960 C   0  0  0  0  0  0  0  0  0  0  0  0
   38.8520   32.0480   42.1310 N   0  0  0  0  0  0  0  0  0  0  0  0
   40.4180   30.0980   44.4080 H   0  0  0  0  0  0  0  0  0  0  0  0
   41.6750   29.5010   42.3350 H   0  0  0  0  0  0  0  0  0  0  0  0
   41.0590   30.5710   40.2110 H   0  0  0  0  0  0  0  0  0  0  0  0
   38.3690   31.8880   44.5160 C   0  0  0  0  0  0  0  0  0  0  0  0
   37.2600   32.4410   44.4120 O   0  0  0  0  0  0  0  0  0  0  0  0
   38.9500   31.6080   45.8230 N   0  0  0  0  0  0  0  0  0  0  0  0
   39.9270   31.3410   45.9660 H   0  0  0  0  0  0  0  0  0  0  0  0
   38.4360   31.1040   48.2030 C   0  0  2  0  0  0  0  0  0  0  0  0
   38.6700   32.5700   48.1150 C   0  0  0  0  0  0  0  0  0  0  0  0
   38.0800   31.7200   46.9660 C   0  0  1  0  0  0  0  0  0  0  0  0
   39.3520   30.4870   48.2990 H   0  0  0  0  0  0  0  0  0  0  0  0
   38.0080   33.2730   48.6400 H   0  0  0  0  0  0  0  0  0  0  0  0
   39.6960   32.9200   48.0060 H   0  0  0  0  0  0  0  0  0  0  0  0
   36.9980   31.9780   46.7760 H   0  0  0  0  0  0  0  0  0  0  0  0
   35.0630   30.2330   49.5090 C   0  0  0  0  0  0  0  0  0  0  0  0
   35.3900   29.5480   50.7220 C   0  0  0  0  0  0  0  0  0  0  0  0
   36.7890   29.4100   51.0690 C   0  0  0  0  0  0  0  0  0  0  0  0
   37.7510   29.9320   50.2370 N   0  0  0  0  0  0  0  0  0  0  0  0
   37.3460   30.5670   49.1050 C   0  0  0  0  0  0  0  0  0  0  0  0
   36.0240   30.7380   48.7070 N   0  0  0  0  0  0  0  0  0  0  0  0
   34.0310   30.3350   49.2550 H   0  0  0  0  0  0  0  0  0  0  0  0
   34.6390   29.1510   51.3540 H   0  0  0  0  0  0  0  0  0  0  0  0
   37.0340   28.8950   51.9830 H   0  0  0  0  0  0  0  0  0  0  0  0
   39.1860   32.3520   39.7040 C   0  0  0  0  0  0  0  0  0  0  0  0
   38.8210   33.5510   39.6860 O   0  0  0  0  0  0  0  0  0  0  0  0
   40.3000   31.6060   37.5670 C   0  0  0  0  0  3  0  0  0  0  0  0
   39.3070   31.5180   38.4940 C   0  0  0  0  0  0  0  0  0  0  0  0
   38.3430   30.5540   38.2570 C   0  0  0  0  0  0  0  0  0  0  0  0
   37.5250   30.4520   38.9800 H   0  0  0  0  0  0  0  0  0  0  0  0
   38.3350   29.7080   37.1660 C   0  0  0  0  0  0  0  0  0  0  0  0
   37.4630   28.7260   36.8080 N   0  0  0  0  0  0  0  0  0  0  0  0
   37.9550   28.2350   35.6550 C   0  0  0  0  0  0  0  0  0  0  0  0
   37.4120   27.4200   35.1680 H   0  0  0  0  0  0  0  0  0  0  0  0
   39.0780   28.8790   35.3120 N   0  0  0  0  0  0  0  0  0  0  0  0
   39.3550   29.8230   36.2480 C   0  0  0  0  0  0  0  0  0  0  0  0
   40.3320   30.7790   36.4600 C   0  0  0  0  0  3  0  0  0  0  0  0
   36.6010   28.4440   37.3460 H   0  0  0  0  0  0  0  0  0  0  0  0
  1  2  1  0  0  0  0
  1 10  1  0  0  0  0
  2  7  1  0  0  0  0
  3  8  1  0  0  0  0
  3  2  2  0  0  0  0
  4  3  1  0  0  0  0
  5  4  2  0  0  0  0
  5  6  1  0  0  0  0
  6  1  2  0  0  0  0
  9  4  1  0  0  0  0
 10 12  1  0  0  0  0
 11 10  2  0  0  0  0
 12 13  1  0  0  0  0
 12 16  1  0  0  0  0
 14 17  1  6  0  0  0
 14 25  1  0  0  0  0
 15 14  1  0  0  0  0
 15 18  1  0  0  0  0
 16 20  1  6  0  0  0
 16 15  1  0  0  0  0
 16 14  1  0  0  0  0
 19 15  1  0  0  0  0
 21 22  1  0  0  0  0
 22 23  2  0  0  0  0
 22 28  1  0  0  0  0
 23 29  1  0  0  0  0
 24 23  1  0  0  0  0
 25 24  2  0  0  0  0
 26 25  1  0  0  0  0
 26 21  2  0  0  0  0
 27 21  1  0  0  0  0
 30  5  1  0  0  0  0
 31 30  2  0  0  0  0
 32 33  1  0  0  0  0
 33 30  1  0  0  0  0
 34 33  2  0  0  0  0
 34 35  1  0  0  0  0
 36 34  1  0  0  0  0
 37 36  1  0  0  0  0
 37 43  1  0  0  0  0
 38 37  1  0  0  0  0
 39 38  1  0  0  0  0
 40 38  2  0  0  0  0
 40 41  1  0  0  0  0
 41 42  1  0  0  0  0
 41 36  2  0  0  0  0
 42 32  2  0  0  0  0
M  END
>  <minimizedAffinity>
-4.90543842

>  <minimizedRMSD>
0.398100346

$$$$
