
 OpenBabel03272500593D

 38 41  0  0  0  0  0  0  0  0999 V2000
   33.7340   30.6210   35.5360 C   0  0  0  0  0  0  0  0  0  0  0  0
   33.3430   31.7070   36.2670 C   0  0  0  0  0  0  0  0  0  0  0  0
   34.2450   32.7030   36.6620 C   0  0  0  0  0  0  0  0  0  0  0  0
   35.6300   32.5480   36.2670 C   0  0  0  0  0  0  0  0  0  0  0  0
   35.9500   31.4470   35.5420 C   0  0  0  0  0  0  0  0  0  0  0  0
   35.0780   30.4920   35.1680 C   0  0  0  0  0  0  0  0  0  0  0  0
   32.2970   31.8540   36.5820 H   0  0  0  0  0  0  0  0  0  0  0  0
   33.8680   33.5370   37.2410 H   0  0  0  0  0  0  0  0  0  0  0  0
   36.1970   33.3770   36.6370 H   0  0  0  0  0  0  0  0  0  0  0  0
   37.0050   31.5500   35.3400 H   0  0  0  0  0  0  0  0  0  0  0  0
   32.2460   28.7950   36.1890 C   0  0  0  0  0  0  0  0  0  0  0  0
   32.6870   29.6920   35.1850 C   0  0  0  0  0  0  0  0  0  0  0  0
   32.0380   29.5600   33.9830 C   0  0  0  0  0  0  0  0  0  0  0  0
   31.0700   28.6450   33.8150 N   0  0  0  0  0  0  0  0  0  0  0  0
   30.6750   27.8200   34.7580 C   0  0  0  0  0  0  0  0  0  0  0  0
   31.2650   27.8990   35.9410 N   0  0  0  0  0  0  0  0  0  0  0  0
   32.6960   28.8190   37.1730 H   0  0  0  0  0  0  0  0  0  0  0  0
   32.3660   30.2400   33.2110 H   0  0  0  0  0  0  0  0  0  0  0  0
   29.9050   27.0640   34.6820 H   0  0  0  0  0  0  0  0  0  0  0  0
   35.6310   29.6600   33.0380 C   0  0  0  0  0  0  0  0  0  0  0  0
   35.3420   30.8450   32.6060 O   0  0  0  0  0  0  0  0  0  0  0  0
   35.4810   29.3920   34.4550 N   0  0  0  0  0  0  0  0  0  0  0  0
   35.6610   28.4570   34.8680 H   0  0  0  0  0  0  0  0  0  0  0  0
   36.0620   28.7150   32.1460 O   0  0  0  0  0  0  0  0  0  0  0  0
   36.8040   27.5900   32.4790 C   0  0  0  0  0  0  0  0  0  0  0  0
   37.8920   27.6630   33.2140 O   0  0  0  0  0  0  0  0  0  0  0  0
   35.4180   26.0340   31.1830 C   0  0  0  0  0  3  0  0  0  0  0  0
   36.4500   26.2110   32.0780 C   0  0  0  0  0  0  0  0  0  0  0  0
   37.1480   25.1430   32.6000 C   0  0  0  0  0  0  0  0  0  0  0  0
   37.9600   25.3200   33.3060 H   0  0  0  0  0  0  0  0  0  0  0  0
   36.8450   23.8400   32.2460 C   0  0  0  0  0  0  0  0  0  0  0  0
   37.3060   22.6180   32.5530 N   0  0  0  0  0  0  0  0  0  0  0  0
   36.5940   21.6910   31.8770 C   0  0  0  0  0  0  0  0  0  0  0  0
   36.7640   20.6240   31.9460 H   0  0  0  0  0  0  0  0  0  0  0  0
   35.6750   22.3590   31.1400 N   0  0  0  0  0  0  0  0  0  0  0  0
   35.7980   23.6780   31.3380 C   0  0  0  0  0  0  0  0  0  0  0  0
   35.0840   24.7270   30.8040 C   0  0  0  0  0  3  0  0  0  0  0  0
   38.1010   22.4580   33.2210 H   0  0  0  0  0  0  0  0  0  0  0  0
  1  2  1  0  0  0  0
  2  7  1  0  0  0  0
  2  3  2  0  0  0  0
  3  8  1  0  0  0  0
  4  9  1  0  0  0  0
  4  3  1  0  0  0  0
  5  4  2  0  0  0  0
  6  1  2  0  0  0  0
  6  5  1  0  0  0  0
 10  5  1  0  0  0  0
 11 17  1  0  0  0  0
 12  1  1  0  0  0  0
 12 11  2  0  0  0  0
 13 12  1  0  0  0  0
 14 13  2  0  0  0  0
 14 15  1  0  0  0  0
 15 16  2  0  0  0  0
 16 11  1  0  0  0  0
 18 13  1  0  0  0  0
 19 15  1  0  0  0  0
 20 22  1  0  0  0  0
 21 20  2  0  0  0  0
 22 23  1  0  0  0  0
 22  6  1  0  0  0  0
 24 25  1  0  0  0  0
 24 20  1  0  0  0  0
 25 26  2  0  0  0  0
 27 28  1  0  0  0  0
 28 25  1  0  0  0  0
 28 29  2  0  0  0  0
 29 30  1  0  0  0  0
 31 32  1  0  0  0  0
 31 29  1  0  0  0  0
 32 38  1  0  0  0  0
 33 34  1  0  0  0  0
 33 32  1  0  0  0  0
 35 36  1  0  0  0  0
 35 33  2  0  0  0  0
 36 31  2  0  0  0  0
 37 27  2  0  0  0  0
 37 36  1  0  0  0  0
M  END
>  <minimizedAffinity>
-5.92406082

$$$$

 OpenBabel03272500593D

 38 41  0  0  0  0  0  0  0  0999 V2000
   37.4630   27.2690   32.6660 C   0  0  0  0  0  0  0  0  0  0  0  0
   37.2630   28.2570   31.7450 C   0  0  0  0  0  0  0  0  0  0  0  0
   36.4480   29.3660   32.0070 C   0  0  0  0  0  0  0  0  0  0  0  0
   35.8140   29.4390   33.3070 C   0  0  0  0  0  0  0  0  0  0  0  0
   36.0560   28.4250   34.1750 C   0  0  0  0  0  0  0  0  0  0  0  0
   36.8380   27.3600   33.9160 C   0  0  0  0  0  0  0  0  0  0  0  0
   37.7310   28.2300   30.7480 H   0  0  0  0  0  0  0  0  0  0  0  0
   36.3320   30.1120   31.2310 H   0  0  0  0  0  0  0  0  0  0  0  0
   35.2280   30.3330   33.3640 H   0  0  0  0  0  0  0  0  0  0  0  0
   35.5170   28.6960   35.0700 H   0  0  0  0  0  0  0  0  0  0  0  0
   39.7370   26.4050   32.4270 C   0  0  0  0  0  0  0  0  0  0  0  0
   38.3460   26.2010   32.2590 C   0  0  0  0  0  0  0  0  0  0  0  0
   38.0120   24.9820   31.7240 C   0  0  0  0  0  0  0  0  0  0  0  0
   38.9570   24.0850   31.4020 N   0  0  0  0  0  0  0  0  0  0  0  0
   40.2440   24.2920   31.5640 C   0  0  0  0  0  0  0  0  0  0  0  0
   40.6290   25.4510   32.0760 N   0  0  0  0  0  0  0  0  0  0  0  0
   40.1030   27.3350   32.8420 H   0  0  0  0  0  0  0  0  0  0  0  0
   36.9530   24.8170   31.5920 H   0  0  0  0  0  0  0  0  0  0  0  0
   41.0490   23.6110   31.3240 H   0  0  0  0  0  0  0  0  0  0  0  0
   38.0510   26.6620   35.8070 C   0  0  0  0  0  0  0  0  0  0  0  0
   38.6970   27.7760   35.6840 O   0  0  0  0  0  0  0  0  0  0  0  0
   37.0160   26.3600   34.8350 N   0  0  0  0  0  0  0  0  0  0  0  0
   36.4800   25.4710   34.8500 H   0  0  0  0  0  0  0  0  0  0  0  0
   38.3670   25.8200   36.8390 O   0  0  0  0  0  0  0  0  0  0  0  0
   38.2820   24.4350   36.7880 C   0  0  0  0  0  0  0  0  0  0  0  0
   37.1480   23.7980   36.9790 O   0  0  0  0  0  0  0  0  0  0  0  0
   39.9790   23.5790   35.2360 C   0  0  0  0  0  3  0  0  0  0  0  0
   39.4240   23.5420   36.4960 C   0  0  0  0  0  0  0  0  0  0  0  0
   39.9040   22.6990   37.4760 C   0  0  0  0  0  0  0  0  0  0  0  0
   39.4410   22.6950   38.4630 H   0  0  0  0  0  0  0  0  0  0  0  0
   40.9710   21.8500   37.2380 C   0  0  0  0  0  0  0  0  0  0  0  0
   41.6620   20.9390   37.9390 N   0  0  0  0  0  0  0  0  0  0  0  0
   42.6270   20.4110   37.1550 C   0  0  0  0  0  0  0  0  0  0  0  0
   43.3260   19.6510   37.4790 H   0  0  0  0  0  0  0  0  0  0  0  0
   42.5250   21.0110   35.9460 N   0  0  0  0  0  0  0  0  0  0  0  0
   41.5220   21.9010   35.9570 C   0  0  0  0  0  0  0  0  0  0  0  0
   41.0610   22.7320   34.9620 C   0  0  0  0  0  3  0  0  0  0  0  0
   41.4480   20.7050   38.9410 H   0  0  0  0  0  0  0  0  0  0  0  0
  1  6  1  0  0  0  0
  2  3  1  0  0  0  0
  2  1  2  0  0  0  0
  3  4  2  0  0  0  0
  4  9  1  0  0  0  0
  4  5  1  0  0  0  0
  5 10  1  0  0  0  0
  6  5  2  0  0  0  0
  6 22  1  0  0  0  0
  7  2  1  0  0  0  0
  8  3  1  0  0  0  0
 11 17  1  0  0  0  0
 12 11  1  0  0  0  0
 12  1  1  0  0  0  0
 13 12  2  0  0  0  0
 14 15  2  0  0  0  0
 14 13  1  0  0  0  0
 15 16  1  0  0  0  0
 16 11  2  0  0  0  0
 18 13  1  0  0  0  0
 19 15  1  0  0  0  0
 20 24  1  0  0  0  0
 21 20  2  0  0  0  0
 22 23  1  0  0  0  0
 22 20  1  0  0  0  0
 25 24  1  0  0  0  0
 25 26  2  0  0  0  0
 27 28  1  0  0  0  0
 28 25  1  0  0  0  0
 28 29  2  0  0  0  0
 29 30  1  0  0  0  0
 31 29  1  0  0  0  0
 31 32  1  0  0  0  0
 32 38  1  0  0  0  0
 33 34  1  0  0  0  0
 33 32  1  0  0  0  0
 35 36  1  0  0  0  0
 35 33  2  0  0  0  0
 36 31  2  0  0  0  0
 37 27  2  0  0  0  0
 37 36  1  0  0  0  0
M  END
>  <minimizedAffinity>
-5.90669537

$$$$

 OpenBabel03272500593D

 38 41  0  0  0  0  0  0  0  0999 V2000
   38.6880   24.8230   36.2870 C   0  0  0  0  0  0  0  0  0  0  0  0
   38.0280   25.2580   37.4010 C   0  0  0  0  0  0  0  0  0  0  0  0
   38.0390   24.5370   38.6020 C   0  0  0  0  0  0  0  0  0  0  0  0
   38.7830   23.2950   38.6320 C   0  0  0  0  0  0  0  0  0  0  0  0
   39.4150   22.9210   37.4910 C   0  0  0  0  0  0  0  0  0  0  0  0
   39.3990   23.6180   36.3390 C   0  0  0  0  0  0  0  0  0  0  0  0
   37.4540   26.1980   37.4110 H   0  0  0  0  0  0  0  0  0  0  0  0
   37.4930   24.9390   39.4480 H   0  0  0  0  0  0  0  0  0  0  0  0
   38.7020   22.8570   39.6060 H   0  0  0  0  0  0  0  0  0  0  0  0
   39.9180   22.0010   37.7460 H   0  0  0  0  0  0  0  0  0  0  0  0
   39.7950   26.3180   34.7020 C   0  0  0  0  0  0  0  0  0  0  0  0
   38.6040   25.6850   35.1330 C   0  0  0  0  0  0  0  0  0  0  0  0
   37.5000   25.9770   34.3700 C   0  0  0  0  0  0  0  0  0  0  0  0
   37.5860   26.7980   33.3130 N   0  0  0  0  0  0  0  0  0  0  0  0
   38.7010   27.3780   32.9280 C   0  0  0  0  0  0  0  0  0  0  0  0
   39.8010   27.1360   33.6250 N   0  0  0  0  0  0  0  0  0  0  0  0
   40.7210   26.1530   35.2380 H   0  0  0  0  0  0  0  0  0  0  0  0
   36.5870   25.4980   34.6900 H   0  0  0  0  0  0  0  0  0  0  0  0
   38.8320   28.0470   32.0890 H   0  0  0  0  0  0  0  0  0  0  0  0
   39.3080   22.1230   34.5260 C   0  0  0  0  0  0  0  0  0  0  0  0
   38.1920   21.7180   35.0400 O   0  0  0  0  0  0  0  0  0  0  0  0
   40.0430   23.1650   35.2170 N   0  0  0  0  0  0  0  0  0  0  0  0
   40.9610   23.5160   34.8830 H   0  0  0  0  0  0  0  0  0  0  0  0
   39.7470   21.5550   33.3600 O   0  0  0  0  0  0  0  0  0  0  0  0
   38.9860   21.4210   32.2070 C   0  0  0  0  0  0  0  0  0  0  0  0
   39.2520   20.5100   31.2960 O   0  0  0  0  0  0  0  0  0  0  0  0
   36.5510   21.7050   32.0790 C   0  0  0  0  0  3  0  0  0  0  0  0
   37.8030   22.2500   31.8890 C   0  0  0  0  0  0  0  0  0  0  0  0
   37.9700   23.5330   31.4150 C   0  0  0  0  0  0  0  0  0  0  0  0
   38.9750   23.9330   31.2770 H   0  0  0  0  0  0  0  0  0  0  0  0
   36.8860   24.3370   31.1090 C   0  0  0  0  0  0  0  0  0  0  0  0
   36.7010   25.5830   30.6470 N   0  0  0  0  0  0  0  0  0  0  0  0
   35.3760   25.8270   30.5450 C   0  0  0  0  0  0  0  0  0  0  0  0
   34.9550   26.7620   30.1960 H   0  0  0  0  0  0  0  0  0  0  0  0
   34.7360   24.7070   30.9530 N   0  0  0  0  0  0  0  0  0  0  0  0
   35.6270   23.7710   31.3080 C   0  0  0  0  0  0  0  0  0  0  0  0
   35.4320   22.4920   31.7790 C   0  0  0  0  0  3  0  0  0  0  0  0
   37.4950   26.2310   30.4140 H   0  0  0  0  0  0  0  0  0  0  0  0
  1  6  2  0  0  0  0
  1  2  1  0  0  0  0
  2  7  1  0  0  0  0
  2  3  2  0  0  0  0
  3  4  1  0  0  0  0
  3  8  1  0  0  0  0
  4  9  1  0  0  0  0
  5 10  1  0  0  0  0
  5  4  2  0  0  0  0
  6  5  1  0  0  0  0
 11 12  1  0  0  0  0
 11 17  1  0  0  0  0
 12  1  1  0  0  0  0
 13 18  1  0  0  0  0
 13 12  2  0  0  0  0
 14 13  1  0  0  0  0
 15 14  2  0  0  0  0
 15 16  1  0  0  0  0
 16 11  2  0  0  0  0
 19 15  1  0  0  0  0
 20 21  2  0  0  0  0
 20 22  1  0  0  0  0
 22  6  1  0  0  0  0
 23 22  1  0  0  0  0
 24 20  1  0  0  0  0
 25 24  1  0  0  0  0
 26 25  2  0  0  0  0
 28 27  1  0  0  0  0
 28 25  1  0  0  0  0
 29 28  2  0  0  0  0
 30 29  1  0  0  0  0
 31 36  2  0  0  0  0
 31 29  1  0  0  0  0
 32 31  1  0  0  0  0
 33 32  1  0  0  0  0
 33 35  2  0  0  0  0
 34 33  1  0  0  0  0
 35 36  1  0  0  0  0
 36 37  1  0  0  0  0
 37 27  2  0  0  0  0
 38 32  1  0  0  0  0
M  END
>  <minimizedAffinity>
-5.7584033

$$$$

 OpenBabel03272500593D

 38 41  0  0  0  0  0  0  0  0999 V2000
   39.6410   23.5100   36.3200 C   0  0  0  0  0  0  0  0  0  0  0  0
   39.9120   23.0110   37.5620 C   0  0  0  0  0  0  0  0  0  0  0  0
   39.0730   23.2470   38.6590 C   0  0  0  0  0  0  0  0  0  0  0  0
   37.8870   24.0470   38.4360 C   0  0  0  0  0  0  0  0  0  0  0  0
   37.6770   24.5110   37.1780 C   0  0  0  0  0  0  0  0  0  0  0  0
   38.4890   24.2830   36.1290 C   0  0  0  0  0  0  0  0  0  0  0  0
   40.8050   22.3990   37.7640 H   0  0  0  0  0  0  0  0  0  0  0  0
   39.3480   22.8210   39.6160 H   0  0  0  0  0  0  0  0  0  0  0  0
   37.3460   24.1420   39.3550 H   0  0  0  0  0  0  0  0  0  0  0  0
   36.7420   25.0470   37.2360 H   0  0  0  0  0  0  0  0  0  0  0  0
   41.7280   23.9910   35.1420 C   0  0  0  0  0  0  0  0  0  0  0  0
   40.5860   23.1640   35.2860 C   0  0  0  0  0  0  0  0  0  0  0  0
   40.5340   22.1130   34.4040 C   0  0  0  0  0  0  0  0  0  0  0  0
   41.5040   21.9200   33.4980 N   0  0  0  0  0  0  0  0  0  0  0  0
   42.5560   22.6970   33.3780 C   0  0  0  0  0  0  0  0  0  0  0  0
   42.6630   23.7300   34.2010 N   0  0  0  0  0  0  0  0  0  0  0  0
   41.8630   24.8470   35.7900 H   0  0  0  0  0  0  0  0  0  0  0  0
   39.6670   21.4770   34.5060 H   0  0  0  0  0  0  0  0  0  0  0  0
   43.3670   22.5930   32.6700 H   0  0  0  0  0  0  0  0  0  0  0  0
   38.6260   26.1960   34.7650 C   0  0  0  0  0  0  0  0  0  0  0  0
   39.1300   26.7810   35.8030 O   0  0  0  0  0  0  0  0  0  0  0  0
   38.2250   24.8070   34.8890 N   0  0  0  0  0  0  0  0  0  0  0  0
   37.7830   24.2820   34.1110 H   0  0  0  0  0  0  0  0  0  0  0  0
   38.4930   26.9050   33.6020 O   0  0  0  0  0  0  0  0  0  0  0  0
   37.3080   27.0490   32.8920 C   0  0  0  0  0  0  0  0  0  0  0  0
   36.8010   26.0720   32.1730 O   0  0  0  0  0  0  0  0  0  0  0  0
   36.0640   28.7930   34.0910 C   0  0  0  0  0  3  0  0  0  0  0  0
   36.4880   28.2800   32.8840 C   0  0  0  0  0  0  0  0  0  0  0  0
   36.1660   28.8830   31.6870 C   0  0  0  0  0  0  0  0  0  0  0  0
   36.5190   28.4510   30.7510 H   0  0  0  0  0  0  0  0  0  0  0  0
   35.4020   30.0360   31.6420 C   0  0  0  0  0  0  0  0  0  0  0  0
   34.9250   30.8480   30.6870 N   0  0  0  0  0  0  0  0  0  0  0  0
   34.2210   31.8470   31.2630 C   0  0  0  0  0  0  0  0  0  0  0  0
   33.7300   32.6400   30.7130 H   0  0  0  0  0  0  0  0  0  0  0  0
   34.2660   31.6420   32.6000 N   0  0  0  0  0  0  0  0  0  0  0  0
   34.9820   30.5420   32.8720 C   0  0  0  0  0  0  0  0  0  0  0  0
   35.2880   29.9590   34.0810 C   0  0  0  0  0  3  0  0  0  0  0  0
   35.0990   30.6910   29.6630 H   0  0  0  0  0  0  0  0  0  0  0  0
  1  2  1  0  0  0  0
  2  7  1  0  0  0  0
  2  3  2  0  0  0  0
  3  8  1  0  0  0  0
  4  3  1  0  0  0  0
  4  9  1  0  0  0  0
  5 10  1  0  0  0  0
  5  4  2  0  0  0  0
  6  1  2  0  0  0  0
  6  5  1  0  0  0  0
 11 12  1  0  0  0  0
 11 17  1  0  0  0  0
 12  1  1  0  0  0  0
 13 18  1  0  0  0  0
 13 12  2  0  0  0  0
 14 13  1  0  0  0  0
 15 14  2  0  0  0  0
 15 16  1  0  0  0  0
 16 11  2  0  0  0  0
 19 15  1  0  0  0  0
 20 22  1  0  0  0  0
 20 21  2  0  0  0  0
 22  6  1  0  0  0  0
 23 22  1  0  0  0  0
 24 20  1  0  0  0  0
 25 24  1  0  0  0  0
 26 25  2  0  0  0  0
 28 25  1  0  0  0  0
 28 27  2  0  0  0  0
 29 28  1  0  0  0  0
 30 29  1  0  0  0  0
 31 29  2  0  0  0  0
 31 36  1  0  0  0  0
 32 33  1  0  0  0  0
 32 31  1  0  0  0  0
 33 35  2  0  0  0  0
 34 33  1  0  0  0  0
 35 36  1  0  0  0  0
 36 37  2  0  0  0  0
 37 27  1  0  0  0  0
 38 32  1  0  0  0  0
M  END
>  <minimizedAffinity>
-5.7482686

$$$$

 OpenBabel03272500593D

 38 41  0  0  0  0  0  0  0  0999 V2000
   37.1430   22.0460   33.2060 C   0  0  0  0  0  0  0  0  0  0  0  0
   36.3920   21.0790   33.8090 C   0  0  0  0  0  0  0  0  0  0  0  0
   35.3440   20.4280   33.1450 C   0  0  0  0  0  0  0  0  0  0  0  0
   35.0760   20.8140   31.7750 C   0  0  0  0  0  0  0  0  0  0  0  0
   35.8610   21.7820   31.2370 C   0  0  0  0  0  0  0  0  0  0  0  0
   36.8640   22.4050   31.8820 C   0  0  0  0  0  0  0  0  0  0  0  0
   36.5700   20.7620   34.8490 H   0  0  0  0  0  0  0  0  0  0  0  0
   34.7870   19.6700   33.6830 H   0  0  0  0  0  0  0  0  0  0  0  0
   34.2560   20.2370   31.3990 H   0  0  0  0  0  0  0  0  0  0  0  0
   35.5080   21.8860   30.2230 H   0  0  0  0  0  0  0  0  0  0  0  0
   39.4510   21.9440   34.0050 C   0  0  0  0  0  0  0  0  0  0  0  0
   38.2010   22.6100   34.0110 C   0  0  0  0  0  0  0  0  0  0  0  0
   38.1630   23.7360   34.7950 C   0  0  0  0  0  0  0  0  0  0  0  0
   39.2430   24.1380   35.4830 N   0  0  0  0  0  0  0  0  0  0  0  0
   40.3950   23.5070   35.4660 C   0  0  0  0  0  0  0  0  0  0  0  0
   40.4940   22.4120   34.7270 N   0  0  0  0  0  0  0  0  0  0  0  0
   39.5840   21.0450   33.4170 H   0  0  0  0  0  0  0  0  0  0  0  0
   37.2140   24.2510   34.8060 H   0  0  0  0  0  0  0  0  0  0  0  0
   41.2960   23.7810   35.9970 H   0  0  0  0  0  0  0  0  0  0  0  0
   36.9350   24.6820   31.2950 C   0  0  0  0  0  0  0  0  0  0  0  0
   35.7520   24.7530   31.8130 O   0  0  0  0  0  0  0  0  0  0  0  0
   37.6000   23.3930   31.2800 N   0  0  0  0  0  0  0  0  0  0  0  0
   38.5350   23.2520   30.8510 H   0  0  0  0  0  0  0  0  0  0  0  0
   37.5070   25.8160   30.7840 O   0  0  0  0  0  0  0  0  0  0  0  0
   37.8760   26.9250   31.5330 C   0  0  0  0  0  0  0  0  0  0  0  0
   39.1120   27.1120   31.9420 O   0  0  0  0  0  0  0  0  0  0  0  0
   36.5870   28.1140   33.2510 C   0  0  0  0  0  3  0  0  0  0  0  0
   36.9500   28.0100   31.9260 C   0  0  0  0  0  0  0  0  0  0  0  0
   36.4730   28.8840   30.9730 C   0  0  0  0  0  0  0  0  0  0  0  0
   36.7810   28.7730   29.9330 H   0  0  0  0  0  0  0  0  0  0  0  0
   35.6060   29.9100   31.3040 C   0  0  0  0  0  0  0  0  0  0  0  0
   34.9780   30.8990   30.6510 N   0  0  0  0  0  0  0  0  0  0  0  0
   34.2380   31.6120   31.5290 C   0  0  0  0  0  0  0  0  0  0  0  0
   33.6310   32.4680   31.2590 H   0  0  0  0  0  0  0  0  0  0  0  0
   34.4170   31.0480   32.7460 N   0  0  0  0  0  0  0  0  0  0  0  0
   35.2500   30.0020   32.6500 C   0  0  0  0  0  0  0  0  0  0  0  0
   35.7110   29.1420   33.6210 C   0  0  0  0  0  3  0  0  0  0  0  0
   35.0760   31.0560   29.6170 H   0  0  0  0  0  0  0  0  0  0  0  0
  1  2  1  0  0  0  0
  1 12  1  0  0  0  0
  2  7  1  0  0  0  0
  3  8  1  0  0  0  0
  3  2  2  0  0  0  0
  4  3  1  0  0  0  0
  5  4  2  0  0  0  0
  5  6  1  0  0  0  0
  6  1  2  0  0  0  0
  9  4  1  0  0  0  0
 10  5  1  0  0  0  0
 11 12  2  0  0  0  0
 11 16  1  0  0  0  0
 12 13  1  0  0  0  0
 13 18  1  0  0  0  0
 13 14  2  0  0  0  0
 15 14  1  0  0  0  0
 15 19  1  0  0  0  0
 16 15  2  0  0  0  0
 17 11  1  0  0  0  0
 20 21  2  0  0  0  0
 22 20  1  0  0  0  0
 22  6  1  0  0  0  0
 23 22  1  0  0  0  0
 24 20  1  0  0  0  0
 24 25  1  0  0  0  0
 25 28  1  0  0  0  0
 25 26  2  0  0  0  0
 27 37  1  0  0  0  0
 28 27  2  0  0  0  0
 29 31  2  0  0  0  0
 29 28  1  0  0  0  0
 30 29  1  0  0  0  0
 31 36  1  0  0  0  0
 32 31  1  0  0  0  0
 32 33  1  0  0  0  0
 33 35  2  0  0  0  0
 34 33  1  0  0  0  0
 36 35  1  0  0  0  0
 36 37  2  0  0  0  0
 38 32  1  0  0  0  0
M  END
>  <minimizedAffinity>
-5.66544151

$$$$

 OpenBabel03272500593D

 38 41  0  0  0  0  0  0  0  0999 V2000
   40.0460   25.0620   35.0300 C   0  0  0  0  0  0  0  0  0  0  0  0
   41.3090   24.5610   34.8940 C   0  0  0  0  0  0  0  0  0  0  0  0
   42.3700   25.3380   34.4130 C   0  0  0  0  0  0  0  0  0  0  0  0
   42.0880   26.7130   34.0590 C   0  0  0  0  0  0  0  0  0  0  0  0
   40.8120   27.1470   34.2180 C   0  0  0  0  0  0  0  0  0  0  0  0
   39.7960   26.3940   34.6790 C   0  0  0  0  0  0  0  0  0  0  0  0
   41.5560   23.5200   35.1560 H   0  0  0  0  0  0  0  0  0  0  0  0
   43.3480   24.8770   34.3300 H   0  0  0  0  0  0  0  0  0  0  0  0
   42.9860   27.1800   33.7100 H   0  0  0  0  0  0  0  0  0  0  0  0
   40.8380   28.1860   33.9250 H   0  0  0  0  0  0  0  0  0  0  0  0
   38.5730   23.1410   34.6910 C   0  0  0  0  0  0  0  0  0  0  0  0
   39.0620   24.1480   35.5590 C   0  0  0  0  0  0  0  0  0  0  0  0
   38.5270   24.1150   36.8230 C   0  0  0  0  0  0  0  0  0  0  0  0
   37.6200   23.1880   37.1670 N   0  0  0  0  0  0  0  0  0  0  0  0
   37.1770   22.2610   36.3480 C   0  0  0  0  0  0  0  0  0  0  0  0
   37.6560   22.2420   35.1130 N   0  0  0  0  0  0  0  0  0  0  0  0
   38.9330   23.0820   33.6720 H   0  0  0  0  0  0  0  0  0  0  0  0
   38.8940   24.8780   37.4920 H   0  0  0  0  0  0  0  0  0  0  0  0
   36.4490   21.4920   36.5660 H   0  0  0  0  0  0  0  0  0  0  0  0
   37.7920   26.8630   33.5380 C   0  0  0  0  0  0  0  0  0  0  0  0
   38.4020   26.4230   32.4850 O   0  0  0  0  0  0  0  0  0  0  0  0
   38.5240   26.8950   34.7900 N   0  0  0  0  0  0  0  0  0  0  0  0
   38.1130   27.2660   35.6680 H   0  0  0  0  0  0  0  0  0  0  0  0
   36.4920   27.2770   33.4290 O   0  0  0  0  0  0  0  0  0  0  0  0
   36.0700   28.3860   32.7080 C   0  0  0  0  0  0  0  0  0  0  0  0
   35.7850   28.3190   31.4260 O   0  0  0  0  0  0  0  0  0  0  0  0
   35.7720   30.8070   32.4360 C   0  0  0  0  0  3  0  0  0  0  0  0
   35.8720   29.7300   33.2910 C   0  0  0  0  0  0  0  0  0  0  0  0
   35.7940   29.8820   34.6590 C   0  0  0  0  0  0  0  0  0  0  0  0
   35.8770   29.0080   35.3060 H   0  0  0  0  0  0  0  0  0  0  0  0
   35.6090   31.1250   35.2380 C   0  0  0  0  0  0  0  0  0  0  0  0
   35.4920   31.6070   36.4850 N   0  0  0  0  0  0  0  0  0  0  0  0
   35.3230   32.9470   36.4290 C   0  0  0  0  0  0  0  0  0  0  0  0
   35.2040   33.5810   37.2990 H   0  0  0  0  0  0  0  0  0  0  0  0
   35.3370   33.2920   35.1210 N   0  0  0  0  0  0  0  0  0  0  0  0
   35.5090   32.2030   34.3590 C   0  0  0  0  0  0  0  0  0  0  0  0
   35.5850   32.0800   32.9900 C   0  0  0  0  0  3  0  0  0  0  0  0
   35.5330   30.9990   37.3400 H   0  0  0  0  0  0  0  0  0  0  0  0
  1 12  1  0  0  0  0
  2  1  1  0  0  0  0
  2  7  1  0  0  0  0
  3  2  2  0  0  0  0
  4  5  2  0  0  0  0
  4  3  1  0  0  0  0
  5  6  1  0  0  0  0
  6 22  1  0  0  0  0
  6  1  2  0  0  0  0
  8  3  1  0  0  0  0
  9  4  1  0  0  0  0
 10  5  1  0  0  0  0
 11 16  2  0  0  0  0
 11 12  1  0  0  0  0
 12 13  2  0  0  0  0
 13 14  1  0  0  0  0
 13 18  1  0  0  0  0
 15 19  1  0  0  0  0
 15 14  2  0  0  0  0
 16 15  1  0  0  0  0
 17 11  1  0  0  0  0
 20 22  1  0  0  0  0
 21 20  2  0  0  0  0
 22 23  1  0  0  0  0
 24 20  1  0  0  0  0
 25 28  1  0  0  0  0
 25 24  1  0  0  0  0
 26 25  2  0  0  0  0
 27 37  2  0  0  0  0
 27 28  1  0  0  0  0
 28 29  2  0  0  0  0
 29 31  1  0  0  0  0
 29 30  1  0  0  0  0
 31 32  1  0  0  0  0
 32 38  1  0  0  0  0
 33 32  1  0  0  0  0
 33 34  1  0  0  0  0
 35 33  2  0  0  0  0
 36 35  1  0  0  0  0
 36 31  2  0  0  0  0
 37 36  1  0  0  0  0
M  END
>  <minimizedAffinity>
-5.64519167

$$$$

 OpenBabel03272500593D

 38 41  0  0  0  0  0  0  0  0999 V2000
   33.1450   30.7660   36.0810 C   0  0  0  0  0  0  0  0  0  0  0  0
   32.6490   31.6930   36.9540 C   0  0  0  0  0  0  0  0  0  0  0  0
   33.4220   32.7650   37.4190 C   0  0  0  0  0  0  0  0  0  0  0  0
   34.7840   32.8670   36.9400 C   0  0  0  0  0  0  0  0  0  0  0  0
   35.2130   31.9130   36.0750 C   0  0  0  0  0  0  0  0  0  0  0  0
   34.4660   30.8850   35.6340 C   0  0  0  0  0  0  0  0  0  0  0  0
   31.6170   31.6430   37.3360 H   0  0  0  0  0  0  0  0  0  0  0  0
   32.9660   33.4630   38.1110 H   0  0  0  0  0  0  0  0  0  0  0  0
   35.2490   33.7270   37.3770 H   0  0  0  0  0  0  0  0  0  0  0  0
   36.2250   32.1980   35.8340 H   0  0  0  0  0  0  0  0  0  0  0  0
   32.0320   28.6430   36.5600 C   0  0  0  0  0  0  0  0  0  0  0  0
   32.2230   29.7320   35.6750 C   0  0  0  0  0  0  0  0  0  0  0  0
   31.4800   29.6630   34.5230 C   0  0  0  0  0  0  0  0  0  0  0  0
   30.6540   28.6310   34.2920 N   0  0  0  0  0  0  0  0  0  0  0  0
   30.4910   27.6270   35.1240 C   0  0  0  0  0  0  0  0  0  0  0  0
   31.1810   27.6370   36.2550 N   0  0  0  0  0  0  0  0  0  0  0  0
   32.5730   28.6040   37.4970 H   0  0  0  0  0  0  0  0  0  0  0  0
   31.6180   30.4890   33.8420 H   0  0  0  0  0  0  0  0  0  0  0  0
   29.8430   26.7710   34.9940 H   0  0  0  0  0  0  0  0  0  0  0  0
   34.9730   30.3780   33.3930 C   0  0  0  0  0  0  0  0  0  0  0  0
   34.4730   31.5400   33.1180 O   0  0  0  0  0  0  0  0  0  0  0  0
   34.9750   29.9430   34.7770 N   0  0  0  0  0  0  0  0  0  0  0  0
   35.3280   29.0120   35.0680 H   0  0  0  0  0  0  0  0  0  0  0  0
   35.4740   29.6120   32.3740 O   0  0  0  0  0  0  0  0  0  0  0  0
   36.3980   28.5890   32.5320 C   0  0  0  0  0  0  0  0  0  0  0  0
   36.4340   27.8400   33.6130 O   0  0  0  0  0  0  0  0  0  0  0  0
   38.5280   27.5290   31.9290 C   0  0  0  0  0  3  0  0  0  0  0  0
   37.4060   28.2150   31.5170 C   0  0  0  0  0  0  0  0  0  0  0  0
   37.2090   28.5550   30.1950 C   0  0  0  0  0  0  0  0  0  0  0  0
   36.3100   29.0970   29.9040 H   0  0  0  0  0  0  0  0  0  0  0  0
   38.1310   28.2210   29.2190 C   0  0  0  0  0  0  0  0  0  0  0  0
   38.2460   28.3900   27.8930 N   0  0  0  0  0  0  0  0  0  0  0  0
   39.4010   27.8310   27.4710 C   0  0  0  0  0  0  0  0  0  0  0  0
   39.7350   27.8290   26.4410 H   0  0  0  0  0  0  0  0  0  0  0  0
   40.0080   27.3090   28.5620 N   0  0  0  0  0  0  0  0  0  0  0  0
   39.2600   27.5260   29.6530 C   0  0  0  0  0  0  0  0  0  0  0  0
   39.4820   27.1750   30.9660 C   0  0  0  0  0  3  0  0  0  0  0  0
   37.5230   28.8870   27.3150 H   0  0  0  0  0  0  0  0  0  0  0  0
  1  2  1  0  0  0  0
  2  7  1  0  0  0  0
  2  3  2  0  0  0  0
  3  8  1  0  0  0  0
  4  9  1  0  0  0  0
  4  3  1  0  0  0  0
  5  4  2  0  0  0  0
  6  5  1  0  0  0  0
  6  1  2  0  0  0  0
 10  5  1  0  0  0  0
 11 17  1  0  0  0  0
 12  1  1  0  0  0  0
 12 11  2  0  0  0  0
 13 12  1  0  0  0  0
 14 13  2  0  0  0  0
 14 15  1  0  0  0  0
 15 16  2  0  0  0  0
 16 11  1  0  0  0  0
 18 13  1  0  0  0  0
 19 15  1  0  0  0  0
 20 22  1  0  0  0  0
 21 20  2  0  0  0  0
 22 23  1  0  0  0  0
 22  6  1  0  0  0  0
 24 25  1  0  0  0  0
 24 20  1  0  0  0  0
 25 26  2  0  0  0  0
 28 27  1  0  0  0  0
 28 25  1  0  0  0  0
 29 28  2  0  0  0  0
 30 29  1  0  0  0  0
 31 36  2  0  0  0  0
 31 29  1  0  0  0  0
 32 31  1  0  0  0  0
 33 32  1  0  0  0  0
 33 35  2  0  0  0  0
 34 33  1  0  0  0  0
 35 36  1  0  0  0  0
 36 37  1  0  0  0  0
 37 27  2  0  0  0  0
 38 32  1  0  0  0  0
M  END
>  <minimizedAffinity>
-5.62644768

$$$$

 OpenBabel03272500593D

 38 41  0  0  0  0  0  0  0  0999 V2000
   39.5400   23.9160   35.9350 C   0  0  0  0  0  0  0  0  0  0  0  0
   40.1730   23.2260   36.9300 C   0  0  0  0  0  0  0  0  0  0  0  0
   39.5700   22.9940   38.1740 C   0  0  0  0  0  0  0  0  0  0  0  0
   38.2340   23.5120   38.3790 C   0  0  0  0  0  0  0  0  0  0  0  0
   37.6640   24.1870   37.3490 C   0  0  0  0  0  0  0  0  0  0  0  0
   38.2490   24.4090   36.1570 C   0  0  0  0  0  0  0  0  0  0  0  0
   41.1890   22.8190   36.8060 H   0  0  0  0  0  0  0  0  0  0  0  0
   40.1290   22.4400   38.9190 H   0  0  0  0  0  0  0  0  0  0  0  0
   37.9050   23.2600   39.3660 H   0  0  0  0  0  0  0  0  0  0  0  0
   36.6810   24.4510   37.7060 H   0  0  0  0  0  0  0  0  0  0  0  0
   40.1280   23.0360   33.7320 C   0  0  0  0  0  0  0  0  0  0  0  0
   40.2790   24.0560   34.7030 C   0  0  0  0  0  0  0  0  0  0  0  0
   41.1240   25.0710   34.3310 C   0  0  0  0  0  0  0  0  0  0  0  0
   41.7360   25.0610   33.1370 N   0  0  0  0  0  0  0  0  0  0  0  0
   41.5850   24.1060   32.2480 C   0  0  0  0  0  0  0  0  0  0  0  0
   40.7810   23.0960   32.5500 N   0  0  0  0  0  0  0  0  0  0  0  0
   39.4830   22.1890   33.9300 H   0  0  0  0  0  0  0  0  0  0  0  0
   41.2450   25.8540   35.0650 H   0  0  0  0  0  0  0  0  0  0  0  0
   42.0490   24.0420   31.2730 H   0  0  0  0  0  0  0  0  0  0  0  0
   37.7830   26.5560   35.3170 C   0  0  0  0  0  0  0  0  0  0  0  0
   38.4410   26.9950   36.3410 O   0  0  0  0  0  0  0  0  0  0  0  0
   37.6200   25.1220   35.1700 N   0  0  0  0  0  0  0  0  0  0  0  0
   37.0760   24.6990   34.3940 H   0  0  0  0  0  0  0  0  0  0  0  0
   37.2720   27.4560   34.4210 O   0  0  0  0  0  0  0  0  0  0  0  0
   36.9670   27.1720   33.0970 C   0  0  0  0  0  0  0  0  0  0  0  0
   36.6120   25.9680   32.7050 O   0  0  0  0  0  0  0  0  0  0  0  0
   36.3580   29.3810   32.2170 C   0  0  0  0  0  3  0  0  0  0  0  0
   36.9830   28.1710   32.0070 C   0  0  0  0  0  0  0  0  0  0  0  0
   37.6120   27.8790   30.8150 C   0  0  0  0  0  0  0  0  0  0  0  0
   38.0970   26.9110   30.6820 H   0  0  0  0  0  0  0  0  0  0  0  0
   37.6460   28.7900   29.7740 C   0  0  0  0  0  0  0  0  0  0  0  0
   38.1520   28.8260   28.5330 N   0  0  0  0  0  0  0  0  0  0  0  0
   37.8610   30.0190   27.9680 C   0  0  0  0  0  0  0  0  0  0  0  0
   38.1550   30.3060   26.9660 H   0  0  0  0  0  0  0  0  0  0  0  0
   37.1610   30.7280   28.8840 N   0  0  0  0  0  0  0  0  0  0  0  0
   37.0100   30.0090   30.0050 C   0  0  0  0  0  0  0  0  0  0  0  0
   36.3730   30.3260   31.1840 C   0  0  0  0  0  3  0  0  0  0  0  0
   38.6850   28.0270   28.1080 H   0  0  0  0  0  0  0  0  0  0  0  0
  1  6  2  0  0  0  0
  1  2  1  0  0  0  0
  2  3  2  0  0  0  0
  3  4  1  0  0  0  0
  3  8  1  0  0  0  0
  4  9  1  0  0  0  0
  5 10  1  0  0  0  0
  5  4  2  0  0  0  0
  6  5  1  0  0  0  0
  7  2  1  0  0  0  0
 11 17  1  0  0  0  0
 11 12  1  0  0  0  0
 12  1  1  0  0  0  0
 13 12  2  0  0  0  0
 13 18  1  0  0  0  0
 14 13  1  0  0  0  0
 15 16  1  0  0  0  0
 15 14  2  0  0  0  0
 16 11  2  0  0  0  0
 19 15  1  0  0  0  0
 20 21  2  0  0  0  0
 22 20  1  0  0  0  0
 22  6  1  0  0  0  0
 23 22  1  0  0  0  0
 24 20  1  0  0  0  0
 25 24  1  0  0  0  0
 26 25  2  0  0  0  0
 28 27  1  0  0  0  0
 28 25  1  0  0  0  0
 29 28  2  0  0  0  0
 30 29  1  0  0  0  0
 31 36  2  0  0  0  0
 31 29  1  0  0  0  0
 32 31  1  0  0  0  0
 33 32  1  0  0  0  0
 33 35  2  0  0  0  0
 34 33  1  0  0  0  0
 35 36  1  0  0  0  0
 36 37  1  0  0  0  0
 37 27  2  0  0  0  0
 38 32  1  0  0  0  0
M  END
>  <minimizedAffinity>
-5.57739544

$$$$

 OpenBabel03272500593D

 38 41  0  0  0  0  0  0  0  0999 V2000
   34.0190   31.9850   35.8240 C   0  0  0  0  0  0  0  0  0  0  0  0
   33.8800   33.3050   36.1470 C   0  0  0  0  0  0  0  0  0  0  0  0
   34.9600   34.1970   36.1100 C   0  0  0  0  0  0  0  0  0  0  0  0
   36.2490   33.6740   35.7110 C   0  0  0  0  0  0  0  0  0  0  0  0
   36.3160   32.3540   35.4030 C   0  0  0  0  0  0  0  0  0  0  0  0
   35.2760   31.5010   35.4430 C   0  0  0  0  0  0  0  0  0  0  0  0
   32.9130   33.7340   36.4540 H   0  0  0  0  0  0  0  0  0  0  0  0
   34.7810   35.2310   36.3800 H   0  0  0  0  0  0  0  0  0  0  0  0
   36.9720   34.4630   35.7280 H   0  0  0  0  0  0  0  0  0  0  0  0
   37.3430   32.1930   35.1130 H   0  0  0  0  0  0  0  0  0  0  0  0
   32.0330   31.0960   34.7100 C   0  0  0  0  0  0  0  0  0  0  0  0
   32.8120   31.1950   35.8890 C   0  0  0  0  0  0  0  0  0  0  0  0
   32.3080   30.5020   36.9610 C   0  0  0  0  0  0  0  0  0  0  0  0
   31.1680   29.8010   36.8580 N   0  0  0  0  0  0  0  0  0  0  0  0
   30.4570   29.7220   35.7560 C   0  0  0  0  0  0  0  0  0  0  0  0
   30.8930   30.3700   34.6860 N   0  0  0  0  0  0  0  0  0  0  0  0
   32.3460   31.6070   33.8080 H   0  0  0  0  0  0  0  0  0  0  0  0
   32.8950   30.5710   37.8640 H   0  0  0  0  0  0  0  0  0  0  0  0
   29.5350   29.1760   35.6130 H   0  0  0  0  0  0  0  0  0  0  0  0
   35.4160   29.9120   33.7140 C   0  0  0  0  0  0  0  0  0  0  0  0
   35.2340   30.9100   32.9120 O   0  0  0  0  0  0  0  0  0  0  0  0
   35.4250   30.1720   35.1420 N   0  0  0  0  0  0  0  0  0  0  0  0
   35.5310   29.4170   35.8460 H   0  0  0  0  0  0  0  0  0  0  0  0
   35.5900   28.6590   33.1880 O   0  0  0  0  0  0  0  0  0  0  0  0
   36.8150   28.0240   33.0420 C   0  0  0  0  0  0  0  0  0  0  0  0
   37.5990   28.2470   32.0090 O   0  0  0  0  0  0  0  0  0  0  0  0
   37.7920   27.5450   35.2420 C   0  0  0  0  0  3  0  0  0  0  0  0
   37.3780   27.0660   34.0180 C   0  0  0  0  0  0  0  0  0  0  0  0
   37.4780   25.7300   33.6910 C   0  0  0  0  0  0  0  0  0  0  0  0
   37.1400   25.3860   32.7130 H   0  0  0  0  0  0  0  0  0  0  0  0
   37.9980   24.8060   34.5790 C   0  0  0  0  0  0  0  0  0  0  0  0
   38.2280   23.4850   34.5820 N   0  0  0  0  0  0  0  0  0  0  0  0
   38.7710   23.1300   35.7670 C   0  0  0  0  0  0  0  0  0  0  0  0
   39.0520   22.1170   36.0290 H   0  0  0  0  0  0  0  0  0  0  0  0
   38.8760   24.2580   36.5070 N   0  0  0  0  0  0  0  0  0  0  0  0
   38.4120   25.3070   35.8140 C   0  0  0  0  0  0  0  0  0  0  0  0
   38.3240   26.6350   36.1650 C   0  0  0  0  0  3  0  0  0  0  0  0
   38.0050   22.8630   33.7650 H   0  0  0  0  0  0  0  0  0  0  0  0
  1 12  1  0  0  0  0
  1  2  1  0  0  0  0
  2  7  1  0  0  0  0
  3  2  2  0  0  0  0
  3  8  1  0  0  0  0
  4  9  1  0  0  0  0
  4  3  1  0  0  0  0
  5  6  1  0  0  0  0
  5  4  2  0  0  0  0
  6  1  2  0  0  0  0
 10  5  1  0  0  0  0
 11 12  1  0  0  0  0
 12 13  2  0  0  0  0
 13 18  1  0  0  0  0
 14 13  1  0  0  0  0
 15 14  2  0  0  0  0
 16 11  2  0  0  0  0
 16 15  1  0  0  0  0
 17 11  1  0  0  0  0
 19 15  1  0  0  0  0
 20 22  1  0  0  0  0
 21 20  2  0  0  0  0
 22  6  1  0  0  0  0
 22 23  1  0  0  0  0
 24 20  1  0  0  0  0
 25 24  1  0  0  0  0
 25 28  1  0  0  0  0
 26 25  2  0  0  0  0
 27 37  1  0  0  0  0
 28 27  2  0  0  0  0
 29 28  1  0  0  0  0
 29 31  2  0  0  0  0
 30 29  1  0  0  0  0
 31 32  1  0  0  0  0
 31 36  1  0  0  0  0
 32 33  1  0  0  0  0
 33 34  1  0  0  0  0
 33 35  2  0  0  0  0
 36 37  2  0  0  0  0
 36 35  1  0  0  0  0
 38 32  1  0  0  0  0
M  END
>  <minimizedAffinity>
-5.57242775

$$$$
