
 OpenBabel03272500573D

 38 41  0  0  0  0  0  0  0  0999 V2000
   38.1020   31.9220   47.4500 C   0  0  0  0  0  0  0  0  0  0  0  0
   38.5700   32.8580   48.3280 C   0  0  0  0  0  0  0  0  0  0  0  0
   38.0820   32.9600   49.6370 C   0  0  0  0  0  0  0  0  0  0  0  0
   37.0510   32.0280   50.0430 C   0  0  0  0  0  0  0  0  0  0  0  0
   36.6310   31.1250   49.1220 C   0  0  0  0  0  0  0  0  0  0  0  0
   37.1020   31.0330   47.8640 C   0  0  0  0  0  0  0  0  0  0  0  0
   39.3540   33.5800   48.0500 H   0  0  0  0  0  0  0  0  0  0  0  0
   38.4970   33.7260   50.2810 H   0  0  0  0  0  0  0  0  0  0  0  0
   36.7780   32.2240   51.0600 H   0  0  0  0  0  0  0  0  0  0  0  0
   35.8960   30.5280   49.6400 H   0  0  0  0  0  0  0  0  0  0  0  0
   39.9760   31.2900   46.0140 C   0  0  0  0  0  0  0  0  0  0  0  0
   38.7160   31.9260   46.1440 C   0  0  0  0  0  0  0  0  0  0  0  0
   38.2330   32.4680   44.9800 C   0  0  0  0  0  0  0  0  0  0  0  0
   38.9260   32.3800   43.8340 N   0  0  0  0  0  0  0  0  0  0  0  0
   40.0940   31.7870   43.7320 C   0  0  0  0  0  0  0  0  0  0  0  0
   40.6140   31.2440   44.8230 N   0  0  0  0  0  0  0  0  0  0  0  0
   40.4430   30.8310   46.8750 H   0  0  0  0  0  0  0  0  0  0  0  0
   37.2730   32.9540   45.0690 H   0  0  0  0  0  0  0  0  0  0  0  0
   40.6980   31.6850   42.8410 H   0  0  0  0  0  0  0  0  0  0  0  0
   35.1700   29.9660   47.0510 C   0  0  0  0  0  0  0  0  0  0  0  0
   34.5300   30.6660   47.9310 O   0  0  0  0  0  0  0  0  0  0  0  0
   36.6120   30.1080   46.9800 N   0  0  0  0  0  0  0  0  0  0  0  0
   37.1950   29.5550   46.3230 H   0  0  0  0  0  0  0  0  0  0  0  0
   34.4660   29.1270   46.2290 O   0  0  0  0  0  0  0  0  0  0  0  0
   33.1110   29.2400   45.9530 C   0  0  0  0  0  0  0  0  0  0  0  0
   32.6650   29.8690   44.8870 O   0  0  0  0  0  0  0  0  0  0  0  0
   32.3890   27.7370   47.7540 C   0  0  0  0  0  0  0  0  0  0  0  0
   32.0400   28.6580   46.7910 C   0  0  0  0  0  0  0  0  0  0  0  0
   30.7300   29.0420   46.5960 C   0  0  0  0  0  0  0  0  0  0  0  0
   30.4890   29.7740   45.8250 H   0  0  0  0  0  0  0  0  0  0  0  0
   29.7030   28.5190   47.3620 C   0  0  0  0  0  0  0  0  0  0  0  0
   28.3720   28.6690   47.4330 N   0  0  0  0  0  0  0  0  0  0  0  0
   27.8850   27.8710   48.4080 C   0  0  0  0  0  0  0  0  0  0  0  0
   26.8380   27.8020   48.6720 H   0  0  0  0  0  0  0  0  0  0  0  0
   28.9410   27.2170   48.9460 N   0  0  0  0  0  0  0  0  0  0  0  0
   30.0730   27.5890   48.3320 C   0  0  0  0  0  0  0  0  0  0  0  0
   31.3730   27.1870   48.5470 C   0  0  0  0  0  0  0  0  0  0  0  0
   27.8340   29.3190   46.8060 H   0  0  0  0  0  0  0  0  0  0  0  0
  1  6  2  0  0  0  0
  1  2  1  0  0  0  0
  2  3  2  0  0  0  0
  3  4  1  0  0  0  0
  3  8  1  0  0  0  0
  4  9  1  0  0  0  0
  5 10  1  0  0  0  0
  5  4  2  0  0  0  0
  6  5  1  0  0  0  0
  7  2  1  0  0  0  0
 11 12  1  0  0  0  0
 11 17  1  0  0  0  0
 12  1  1  0  0  0  0
 13 18  1  0  0  0  0
 13 12  2  0  0  0  0
 14 13  1  0  0  0  0
 15 14  2  0  0  0  0
 15 16  1  0  0  0  0
 16 11  2  0  0  0  0
 19 15  1  0  0  0  0
 20 21  2  0  0  0  0
 22 20  1  0  0  0  0
 22  6  1  0  0  0  0
 23 22  1  0  0  0  0
 24 20  1  0  0  0  0
 25 24  1  0  0  0  0
 25 28  1  0  0  0  0
 26 25  2  0  0  0  0
 27 37  1  0  0  0  0
 28 27  2  0  0  0  0
 29 28  1  0  0  0  0
 29 31  2  0  0  0  0
 30 29  1  0  0  0  0
 31 32  1  0  0  0  0
 31 36  1  0  0  0  0
 32 33  1  0  0  0  0
 33 34  1  0  0  0  0
 33 35  2  0  0  0  0
 36 37  2  0  0  0  0
 36 35  1  0  0  0  0
 38 32  1  0  0  0  0
M  END
>  <minimizedAffinity>
-6.41227341

>  <minimizedRMSD>
1.74137008

$$$$
