
 OpenBabel03272508573D

 43 47  0  0  1  0  0  0  0  0999 V2000
   39.0980   31.5080   43.4350 C   0  0  0  0  0  0  0  0  0  0  0  0
   40.0910   30.5810   43.5790 C   0  0  0  0  0  0  0  0  0  0  0  0
   40.8210   30.2430   42.4510 C   0  0  0  0  0  0  0  0  0  0  0  0
   40.5110   30.8500   41.2640 C   0  0  0  0  0  0  0  0  0  0  0  0
   39.4940   31.8000   41.1160 C   0  0  0  0  0  0  0  0  0  0  0  0
   38.8210   32.0870   42.2450 N   0  0  0  0  0  0  0  0  0  0  0  0
   40.3440   30.0950   44.5150 H   0  0  0  0  0  0  0  0  0  0  0  0
   41.6280   29.5220   42.4530 H   0  0  0  0  0  0  0  0  0  0  0  0
   41.0490   30.6270   40.3360 H   0  0  0  0  0  0  0  0  0  0  0  0
   38.3020   31.8940   44.6200 C   0  0  0  0  0  0  0  0  0  0  0  0
   37.1470   32.3410   44.5110 O   0  0  0  0  0  0  0  0  0  0  0  0
   38.9250   31.7290   45.9280 N   0  0  0  0  0  0  0  0  0  0  0  0
   39.9240   31.5570   46.0650 H   0  0  0  0  0  0  0  0  0  0  0  0
   38.4240   31.1670   48.2970 C   0  0  2  0  0  0  0  0  0  0  0  0
   38.6730   32.6320   48.2480 C   0  0  0  0  0  0  0  0  0  0  0  0
   38.0640   31.8190   47.0810 C   0  0  1  0  0  0  0  0  0  0  0  0
   39.3340   30.5370   48.3690 H   0  0  0  0  0  0  0  0  0  0  0  0
   38.0220   33.3270   48.7970 H   0  0  0  0  0  0  0  0  0  0  0  0
   39.7010   32.9730   48.1400 H   0  0  0  0  0  0  0  0  0  0  0  0
   36.9840   32.0940   46.9060 H   0  0  0  0  0  0  0  0  0  0  0  0
   35.0580   30.2070   49.5600 C   0  0  0  0  0  0  0  0  0  0  0  0
   35.3830   29.5730   50.8010 C   0  0  0  0  0  0  0  0  0  0  0  0
   36.7780   29.5000   51.1810 C   0  0  0  0  0  0  0  0  0  0  0  0
   37.7380   30.0320   50.3530 N   0  0  0  0  0  0  0  0  0  0  0  0
   37.3350   30.6160   49.1930 C   0  0  0  0  0  0  0  0  0  0  0  0
   36.0170   30.7240   48.7620 N   0  0  0  0  0  0  0  0  0  0  0  0
   34.0280   30.2610   49.2800 H   0  0  0  0  0  0  0  0  0  0  0  0
   34.6340   29.1680   51.4280 H   0  0  0  0  0  0  0  0  0  0  0  0
   37.0220   29.0230   52.1150 H   0  0  0  0  0  0  0  0  0  0  0  0
   39.1920   32.4250   39.8280 C   0  0  0  0  0  0  0  0  0  0  0  0
   38.7010   33.5780   39.8300 O   0  0  0  0  0  0  0  0  0  0  0  0
   38.7690   30.6020   38.1380 C   0  0  0  0  0  3  0  0  0  0  0  0
   39.4830   31.6650   38.5990 C   0  0  0  0  0  0  0  0  0  0  0  0
   40.5710   32.0420   37.8300 C   0  0  0  0  0  0  0  0  0  0  0  0
   41.1730   32.8930   38.1690 H   0  0  0  0  0  0  0  0  0  0  0  0
   40.9550   31.4170   36.6610 C   0  0  0  0  0  0  0  0  0  0  0  0
   41.9880   31.6760   35.8120 N   0  0  0  0  0  0  0  0  0  0  0  0
   41.8730   30.7500   34.8420 C   0  0  0  0  0  0  0  0  0  0  0  0
   42.6090   30.7600   34.0320 H   0  0  0  0  0  0  0  0  0  0  0  0
   40.8220   29.9550   35.0740 N   0  0  0  0  0  0  0  0  0  0  0  0
   40.2110   30.3460   36.2210 C   0  0  0  0  0  0  0  0  0  0  0  0
   39.1180   29.9480   36.9700 C   0  0  0  0  0  3  0  0  0  0  0  0
   42.7000   32.4450   35.9280 H   0  0  0  0  0  0  0  0  0  0  0  0
  1  2  1  0  0  0  0
  1 10  1  0  0  0  0
  2  7  1  0  0  0  0
  3  8  1  0  0  0  0
  3  2  2  0  0  0  0
  4  3  1  0  0  0  0
  5  4  2  0  0  0  0
  5  6  1  0  0  0  0
  6  1  2  0  0  0  0
  9  4  1  0  0  0  0
 10 12  1  0  0  0  0
 11 10  2  0  0  0  0
 12 13  1  0  0  0  0
 12 16  1  0  0  0  0
 14 17  1  6  0  0  0
 14 25  1  0  0  0  0
 15 14  1  0  0  0  0
 15 18  1  0  0  0  0
 16 20  1  6  0  0  0
 16 15  1  0  0  0  0
 16 14  1  0  0  0  0
 19 15  1  0  0  0  0
 21 22  1  0  0  0  0
 22 23  2  0  0  0  0
 22 28  1  0  0  0  0
 23 29  1  0  0  0  0
 24 23  1  0  0  0  0
 25 24  2  0  0  0  0
 26 25  1  0  0  0  0
 26 21  2  0  0  0  0
 27 21  1  0  0  0  0
 30 31  2  0  0  0  0
 30  5  1  0  0  0  0
 32 33  1  0  0  0  0
 33 30  1  0  0  0  0
 34 35  1  0  0  0  0
 34 33  2  0  0  0  0
 36 34  1  0  0  0  0
 37 43  1  0  0  0  0
 37 36  1  0  0  0  0
 38 40  2  0  0  0  0
 38 37  1  0  0  0  0
 39 38  1  0  0  0  0
 40 41  1  0  0  0  0
 41 36  2  0  0  0  0
 41 42  1  0  0  0  0
 42 32  2  0  0  0  0
M  END
>  <minimizedAffinity>
-4.98293972

>  <minimizedRMSD>
0.641864836

$$$$
