
 OpenBabel03272507303D

 32 35  0  0  0  0  0  0  0  0999 V2000
   35.8960   29.2610   49.7470 C   0  0  0  0  0  0  0  0  0  0  0  0
   34.8780   29.8230   50.4670 C   0  0  0  0  0  0  0  0  0  0  0  0
   33.6840   29.2380   50.0190 C   0  0  0  0  0  0  0  0  0  0  0  0
   34.0710   28.3370   49.0310 C   0  0  0  0  0  0  0  0  0  0  0  0
   35.3560   28.4100   48.9340 O   0  0  0  0  0  0  0  0  0  0  0  0
   34.9180   30.5790   51.2470 H   0  0  0  0  0  0  0  0  0  0  0  0
   32.7080   29.4900   50.4110 H   0  0  0  0  0  0  0  0  0  0  0  0
   37.2830   29.6310   49.9440 C   0  0  0  0  0  0  0  0  0  0  0  0
   37.9280   29.0770   50.8600 O   0  0  0  0  0  0  0  0  0  0  0  0
   37.8340   30.6340   49.0500 C   0  0  0  0  0  0  0  0  0  0  0  0
   38.1740   31.8580   49.6420 C   0  0  0  0  0  0  0  0  0  0  0  0
   38.7090   32.8500   48.8110 C   0  0  0  0  0  0  0  0  0  0  0  0
   38.8630   32.5570   47.4800 N   0  0  0  0  0  0  0  0  0  0  0  0
   38.5230   31.3720   46.9510 C   0  0  0  0  0  0  0  0  0  0  0  0
   38.0130   30.4180   47.7350 N   0  0  0  0  0  0  0  0  0  0  0  0
   38.0500   32.0760   50.6830 H   0  0  0  0  0  0  0  0  0  0  0  0
   38.9870   33.8120   49.2270 H   0  0  0  0  0  0  0  0  0  0  0  0
   38.6860   31.2470   45.8920 H   0  0  0  0  0  0  0  0  0  0  0  0
   33.1310   27.4950   48.2820 C   0  0  0  0  0  0  0  0  0  0  0  0
   31.8990   27.5070   48.5480 O   0  0  0  0  0  0  0  0  0  0  0  0
   33.6750   27.1440   45.9380 C   0  0  0  0  0  0  0  0  0  0  0  0
   33.5750   26.6160   47.2120 C   0  0  0  0  0  0  0  0  0  0  0  0
   33.9080   25.2990   47.3380 C   0  0  0  0  0  0  0  0  0  0  0  0
   33.8380   24.8600   48.3290 H   0  0  0  0  0  0  0  0  0  0  0  0
   34.3240   24.5040   46.2940 C   0  0  0  0  0  0  0  0  0  0  0  0
   34.7030   23.2450   46.1060 N   0  0  0  0  0  0  0  0  0  0  0  0
   35.0180   22.9850   44.8260 C   0  0  0  0  0  0  0  0  0  0  0  0
   35.3540   22.0120   44.4490 H   0  0  0  0  0  0  0  0  0  0  0  0
   34.8380   24.1360   44.1320 N   0  0  0  0  0  0  0  0  0  0  0  0
   34.4180   25.0610   45.0140 C   0  0  0  0  0  0  0  0  0  0  0  0
   34.0870   26.3980   44.8450 C   0  0  0  0  0  0  0  0  0  0  0  0
   34.7500   22.5270   46.8730 H   0  0  0  0  0  0  0  0  0  0  0  0
  1  8  1  0  0  0  0
  1  2  2  0  0  0  0
  2  6  1  0  0  0  0
  3  7  1  0  0  0  0
  3  2  1  0  0  0  0
  4  3  2  0  0  0  0
  5  4  1  0  0  0  0
  5  1  1  0  0  0  0
  8  9  2  0  0  0  0
 10 11  1  0  0  0  0
 10  8  1  0  0  0  0
 11 16  1  0  0  0  0
 12 17  1  0  0  0  0
 12 11  2  0  0  0  0
 13 12  1  0  0  0  0
 14 13  2  0  0  0  0
 14 15  1  0  0  0  0
 15 10  2  0  0  0  0
 18 14  1  0  0  0  0
 19 20  2  0  0  0  0
 19  4  1  0  0  0  0
 21 22  1  0  0  0  0
 22 23  2  0  0  0  0
 22 19  1  0  0  0  0
 23 24  1  0  0  0  0
 25 23  1  0  0  0  0
 26 25  1  0  0  0  0
 26 32  1  0  0  0  0
 27 26  1  0  0  0  0
 28 27  1  0  0  0  0
 29 27  2  0  0  0  0
 29 30  1  0  0  0  0
 30 25  2  0  0  0  0
 31 30  1  0  0  0  0
 31 21  2  0  0  0  0
M  END
>  <minimizedAffinity>
-5.45449162

>  <minimizedRMSD>
1.21992242

$$$$
