
 OpenBabel03272507413D

 44 48  0  0  0  0  0  0  0  0999 V2000
   36.7860   31.2020   50.1130 C   0  0  0  0  0  0  0  0  0  0  0  0
   35.7500   30.3020   49.8760 C   0  0  0  0  0  0  0  0  0  0  0  0
   35.5740   29.1720   50.6390 C   0  0  0  0  0  0  0  0  0  0  0  0
   36.4610   28.9620   51.6490 N   0  0  0  0  0  0  0  0  0  0  0  0
   37.4760   29.8440   51.8820 C   0  0  0  0  0  0  0  0  0  0  0  0
   37.6190   30.9280   51.1250 N   0  0  0  0  0  0  0  0  0  0  0  0
   34.8160   28.4440   50.5230 H   0  0  0  0  0  0  0  0  0  0  0  0
   38.1960   29.6910   52.6880 H   0  0  0  0  0  0  0  0  0  0  0  0
   34.3330   29.2880   48.1330 C   0  0  0  0  0  0  0  0  0  0  0  0
   34.7390   28.0640   48.1180 O   0  0  0  0  0  0  0  0  0  0  0  0
   34.7880   30.4140   48.8540 N   0  0  0  0  0  0  0  0  0  0  0  0
   34.5190   31.3940   48.7590 H   0  0  0  0  0  0  0  0  0  0  0  0
   32.1830   28.5940   47.0450 C   0  0  0  0  0  3  0  0  0  0  0  0
   33.2040   29.5020   47.2290 C   0  0  0  0  0  0  0  0  0  0  0  0
   33.0380   30.6390   46.4650 C   0  0  0  0  0  0  0  0  0  0  0  0
   33.7880   31.4310   46.5300 H   0  0  0  0  0  0  0  0  0  0  0  0
   31.9950   30.8910   45.6010 C   0  0  0  0  0  0  0  0  0  0  0  0
   31.6920   31.9270   44.7990 N   0  0  0  0  0  0  0  0  0  0  0  0
   30.5390   31.6420   44.1660 C   0  0  0  0  0  0  0  0  0  0  0  0
   29.9900   32.2500   43.4400 H   0  0  0  0  0  0  0  0  0  0  0  0
   30.1280   30.4250   44.5780 N   0  0  0  0  0  0  0  0  0  0  0  0
   31.0160   29.9290   45.4750 C   0  0  0  0  0  0  0  0  0  0  0  0
   31.1070   28.7630   46.2040 C   0  0  0  0  0  3  0  0  0  0  0  0
   32.2270   32.8140   44.6610 H   0  0  0  0  0  0  0  0  0  0  0  0
   36.7920   32.2490   49.2580 O   0  0  0  0  0  0  0  0  0  0  0  0
   38.2480   32.2360   47.2680 C   0  0  0  0  0  0  0  0  0  0  0  0
   37.8870   32.6690   48.5360 C   0  0  0  0  0  0  0  0  0  0  0  0
   38.6540   33.6110   49.1970 C   0  0  0  0  0  0  0  0  0  0  0  0
   39.7890   34.1240   48.5890 C   0  0  0  0  0  0  0  0  0  0  0  0
   40.1470   33.6910   47.3250 C   0  0  0  0  0  0  0  0  0  0  0  0
   39.3610   32.7490   46.6910 C   0  0  0  0  0  0  0  0  0  0  0  0
   38.4390   33.9920   50.1730 H   0  0  0  0  0  0  0  0  0  0  0  0
   40.4190   34.8630   49.0720 H   0  0  0  0  0  0  0  0  0  0  0  0
   41.0280   34.0610   46.8050 H   0  0  0  0  0  0  0  0  0  0  0  0
   39.7550   32.2960   45.3450 C   0  0  0  0  0  0  0  0  0  0  0  0
   40.5890   31.2730   44.9710 C   0  0  0  0  0  0  0  0  0  0  0  0
   40.6340   31.2540   43.5780 C   0  0  0  0  0  0  0  0  0  0  0  0
   39.8030   32.2920   43.1870 C   0  0  0  0  0  0  0  0  0  0  0  0
   39.2890   32.9000   44.2490 O   0  0  0  0  0  0  0  0  0  0  0  0
   41.1070   30.6150   45.6500 H   0  0  0  0  0  0  0  0  0  0  0  0
   41.1940   30.5760   42.9480 H   0  0  0  0  0  0  0  0  0  0  0  0
   39.5960   32.5750   42.1540 H   0  0  0  0  0  0  0  0  0  0  0  0
   36.7340   30.4820   46.1440 N   0  0  0  0  0  0  0  0  0  0  0  0
   37.4040   31.2630   46.6550 C   0  0  0  0  0  0  0  0  0  0  0  0
  1  6  1  0  0  0  0
  2  1  2  0  0  0  0
  2  3  1  0  0  0  0
  3  4  2  0  0  0  0
  4  5  1  0  0  0  0
  5  8  1  0  0  0  0
  6  5  2  0  0  0  0
  7  3  1  0  0  0  0
  9 11  1  0  0  0  0
 10  9  2  0  0  0  0
 11  2  1  0  0  0  0
 12 11  1  0  0  0  0
 13 14  1  0  0  0  0
 14  9  1  0  0  0  0
 15 16  1  0  0  0  0
 15 14  2  0  0  0  0
 17 15  1  0  0  0  0
 18 17  1  0  0  0  0
 19 21  2  0  0  0  0
 19 18  1  0  0  0  0
 20 19  1  0  0  0  0
 21 22  1  0  0  0  0
 22 17  2  0  0  0  0
 22 23  1  0  0  0  0
 23 13  2  0  0  0  0
 24 18  1  0  0  0  0
 25  1  1  0  0  0  0
 26 27  1  0  0  0  0
 27 28  2  0  0  0  0
 27 25  1  0  0  0  0
 28 32  1  0  0  0  0
 29 33  1  0  0  0  0
 29 28  1  0  0  0  0
 30 29  2  0  0  0  0
 31 26  2  0  0  0  0
 31 30  1  0  0  0  0
 34 30  1  0  0  0  0
 35 31  1  0  0  0  0
 36 35  2  0  0  0  0
 36 40  1  0  0  0  0
 37 36  1  0  0  0  0
 38 37  2  0  0  0  0
 38 39  1  0  0  0  0
 39 35  1  0  0  0  0
 41 37  1  0  0  0  0
 42 38  1  0  0  0  0
 43 44  3  0  0  0  0
 44 26  1  0  0  0  0
M  END
>  <minimizedAffinity>
-6.39869165

>  <minimizedRMSD>
0.538799644

$$$$
