
 OpenBabel03262523553D

 41 44  0  0  1  0  0  0  0  0999 V2000
   37.7610   30.4210   47.6950 C   0  0  1  0  0  0  0  0  0  0  0  0
   36.9730   30.6250   46.4890 C   0  0  0  0  0  0  0  0  0  0  0  0
   37.8900   30.6260   45.3040 C   0  0  0  0  0  0  0  0  0  0  0  0
   39.1320   31.3880   45.5920 C   0  0  0  0  0  0  0  0  0  0  0  0
   39.0720   32.3200   46.7270 C   0  0  0  0  0  0  0  0  0  0  0  0
   38.4860   31.7240   48.0050 C   0  0  1  0  0  0  0  0  0  0  0  0
   38.5960   29.6810   47.5540 H   0  0  0  0  0  0  0  0  0  0  0  0
   36.2900   29.7340   46.3580 H   0  0  0  0  0  0  0  0  0  0  0  0
   36.3230   31.4990   46.5290 H   0  0  0  0  0  0  0  0  0  0  0  0
   37.3190   31.0990   44.4670 H   0  0  0  0  0  0  0  0  0  0  0  0
   38.0930   29.5720   44.9580 H   0  0  0  0  0  0  0  0  0  0  0  0
   39.3870   31.9700   44.6850 H   0  0  0  0  0  0  0  0  0  0  0  0
   39.9720   30.6670   45.7190 H   0  0  0  0  0  0  0  0  0  0  0  0
   38.4820   33.2450   46.4910 H   0  0  0  0  0  0  0  0  0  0  0  0
   40.0920   32.6760   46.9780 H   0  0  0  0  0  0  0  0  0  0  0  0
   39.3170   31.4690   48.6990 H   0  0  0  0  0  0  0  0  0  0  0  0
   37.0700   29.3640   51.1870 C   0  0  0  0  0  0  0  0  0  0  0  0
   37.7880   29.7260   50.0200 C   0  0  0  0  0  0  0  0  0  0  0  0
   37.0170   30.0660   48.9150 C   0  0  0  0  0  0  0  0  0  0  0  0
   35.6330   30.0410   48.9860 N   0  0  0  0  0  0  0  0  0  0  0  0
   34.9960   29.6920   50.1110 C   0  0  0  0  0  0  0  0  0  0  0  0
   35.7090   29.3470   51.2290 N   0  0  0  0  0  0  0  0  0  0  0  0
   37.6880   29.1010   52.0430 H   0  0  0  0  0  0  0  0  0  0  0  0
   38.8650   29.7320   50.0110 H   0  0  0  0  0  0  0  0  0  0  0  0
   33.9170   29.6690   50.1780 H   0  0  0  0  0  0  0  0  0  0  0  0
   37.9570   33.7910   49.5740 C   0  0  0  0  0  0  0  0  0  0  0  0
   39.1800   33.9590   49.6960 O   0  0  0  0  0  0  0  0  0  0  0  0
   37.6850   32.7020   48.6900 N   0  0  0  0  0  0  0  0  0  0  0  0
   36.6940   32.4440   48.3850 H   0  0  0  0  0  0  0  0  0  0  0  0
   36.4450   34.4250   51.4830 C   0  0  0  0  0  3  0  0  0  0  0  0
   36.8890   34.5190   50.1800 C   0  0  0  0  0  0  0  0  0  0  0  0
   36.2480   35.4190   49.3230 C   0  0  0  0  0  0  0  0  0  0  0  0
   36.5280   35.5580   48.2890 H   0  0  0  0  0  0  0  0  0  0  0  0
   35.1990   36.1930   49.7640 C   0  0  0  0  0  0  0  0  0  0  0  0
   34.4110   37.1270   49.1660 N   0  0  0  0  0  0  0  0  0  0  0  0
   33.5180   37.5830   50.0750 C   0  0  0  0  0  0  0  0  0  0  0  0
   32.7790   38.3370   49.8360 H   0  0  0  0  0  0  0  0  0  0  0  0
   33.7540   36.9300   51.2410 N   0  0  0  0  0  0  0  0  0  0  0  0
   34.7810   36.0730   51.0730 C   0  0  0  0  0  0  0  0  0  0  0  0
   35.3970   35.1850   51.9600 C   0  0  0  0  0  3  0  0  0  0  0  0
   34.5100   37.4110   48.1770 H   0  0  0  0  0  0  0  0  0  0  0  0
  1  7  1  6  0  0  0
  1  6  1  0  0  0  0
  1 19  1  0  0  0  0
  2  9  1  0  0  0  0
  2  1  1  0  0  0  0
  3  4  1  0  0  0  0
  3  2  1  0  0  0  0
  4 13  1  0  0  0  0
  4  5  1  0  0  0  0
  5 15  1  0  0  0  0
  5  6  1  0  0  0  0
  6 28  1  0  0  0  0
  6 16  1  1  0  0  0
  8  2  1  0  0  0  0
 10  3  1  0  0  0  0
 11  3  1  0  0  0  0
 12  4  1  0  0  0  0
 14  5  1  0  0  0  0
 17 22  1  0  0  0  0
 17 23  1  0  0  0  0
 18 17  2  0  0  0  0
 19 20  2  0  0  0  0
 19 18  1  0  0  0  0
 20 21  1  0  0  0  0
 21 25  1  0  0  0  0
 21 22  2  0  0  0  0
 24 18  1  0  0  0  0
 26 27  2  0  0  0  0
 26 31  1  0  0  0  0
 28 26  1  0  0  0  0
 29 28  1  0  0  0  0
 30 40  1  0  0  0  0
 31 30  2  0  0  0  0
 32 34  2  0  0  0  0
 32 31  1  0  0  0  0
 33 32  1  0  0  0  0
 34 39  1  0  0  0  0
 35 34  1  0  0  0  0
 35 36  1  0  0  0  0
 36 38  2  0  0  0  0
 37 36  1  0  0  0  0
 39 38  1  0  0  0  0
 39 40  2  0  0  0  0
 41 35  1  0  0  0  0
M  END
>  <minimizedAffinity>
6.55229568

>  <minimizedRMSD>
0.99309814

$$$$
