
 OpenBabel03272507413D

 44 48  0  0  0  0  0  0  0  0999 V2000
   36.6390   31.1700   50.0860 C   0  0  0  0  0  0  0  0  0  0  0  0
   35.5720   30.2960   49.8910 C   0  0  0  0  0  0  0  0  0  0  0  0
   35.3740   29.1930   50.6870 C   0  0  0  0  0  0  0  0  0  0  0  0
   36.2720   28.9830   51.6880 N   0  0  0  0  0  0  0  0  0  0  0  0
   37.3170   29.8390   51.8800 C   0  0  0  0  0  0  0  0  0  0  0  0
   37.4800   30.8970   51.0910 N   0  0  0  0  0  0  0  0  0  0  0  0
   34.5930   28.4860   50.6030 H   0  0  0  0  0  0  0  0  0  0  0  0
   38.0460   29.6850   52.6790 H   0  0  0  0  0  0  0  0  0  0  0  0
   34.2390   29.3150   48.0640 C   0  0  0  0  0  0  0  0  0  0  0  0
   34.7510   28.1390   47.9430 O   0  0  0  0  0  0  0  0  0  0  0  0
   34.5960   30.4100   48.8820 N   0  0  0  0  0  0  0  0  0  0  0  0
   34.2410   31.3670   48.8730 H   0  0  0  0  0  0  0  0  0  0  0  0
   32.9480   30.5730   46.3210 C   0  0  0  0  0  3  0  0  0  0  0  0
   33.0880   29.5060   47.1820 C   0  0  0  0  0  0  0  0  0  0  0  0
   32.0180   28.6370   47.1190 C   0  0  0  0  0  0  0  0  0  0  0  0
   32.0190   27.7510   47.7600 H   0  0  0  0  0  0  0  0  0  0  0  0
   30.9130   28.7700   46.3090 C   0  0  0  0  0  0  0  0  0  0  0  0
   29.8050   28.0270   46.1290 N   0  0  0  0  0  0  0  0  0  0  0  0
   29.0430   28.6310   45.2000 C   0  0  0  0  0  0  0  0  0  0  0  0
   28.0730   28.3150   44.8010 H   0  0  0  0  0  0  0  0  0  0  0  0
   29.6810   29.7510   44.8020 N   0  0  0  0  0  0  0  0  0  0  0  0
   30.8520   29.8660   45.4760 C   0  0  0  0  0  0  0  0  0  0  0  0
   31.8800   30.7830   45.4790 C   0  0  0  0  0  3  0  0  0  0  0  0
   29.5450   27.1340   46.6060 H   0  0  0  0  0  0  0  0  0  0  0  0
   36.6620   32.1930   49.2030 O   0  0  0  0  0  0  0  0  0  0  0  0
   38.1650   32.1690   47.2480 C   0  0  0  0  0  0  0  0  0  0  0  0
   37.7760   32.6060   48.5070 C   0  0  0  0  0  0  0  0  0  0  0  0
   38.5330   33.5440   49.1840 C   0  0  0  0  0  0  0  0  0  0  0  0
   39.6850   34.0500   48.6030 C   0  0  0  0  0  0  0  0  0  0  0  0
   40.0700   33.6130   47.3480 C   0  0  0  0  0  0  0  0  0  0  0  0
   39.2940   32.6750   46.6960 C   0  0  0  0  0  0  0  0  0  0  0  0
   38.2970   33.9280   50.1540 H   0  0  0  0  0  0  0  0  0  0  0  0
   40.3070   34.7870   49.0990 H   0  0  0  0  0  0  0  0  0  0  0  0
   40.9650   33.9780   46.8480 H   0  0  0  0  0  0  0  0  0  0  0  0
   39.7170   32.2180   45.3610 C   0  0  0  0  0  0  0  0  0  0  0  0
   40.5670   31.2010   45.0090 C   0  0  0  0  0  0  0  0  0  0  0  0
   40.6380   31.1740   43.6170 C   0  0  0  0  0  0  0  0  0  0  0  0
   39.8050   32.2020   43.2040 C   0  0  0  0  0  0  0  0  0  0  0  0
   39.2660   32.8110   44.2530 O   0  0  0  0  0  0  0  0  0  0  0  0
   41.0790   30.5510   45.7010 H   0  0  0  0  0  0  0  0  0  0  0  0
   41.2160   30.4980   43.0010 H   0  0  0  0  0  0  0  0  0  0  0  0
   39.6140   32.4770   42.1660 H   0  0  0  0  0  0  0  0  0  0  0  0
   36.6670   30.4220   46.0910 N   0  0  0  0  0  0  0  0  0  0  0  0
   37.3300   31.2000   46.6170 C   0  0  0  0  0  0  0  0  0  0  0  0
  1  6  1  0  0  0  0
  2  1  2  0  0  0  0
  2  3  1  0  0  0  0
  3  4  2  0  0  0  0
  4  5  1  0  0  0  0
  5  8  1  0  0  0  0
  6  5  2  0  0  0  0
  7  3  1  0  0  0  0
  9 11  1  0  0  0  0
 10  9  2  0  0  0  0
 11  2  1  0  0  0  0
 12 11  1  0  0  0  0
 13 14  1  0  0  0  0
 14  9  1  0  0  0  0
 15 14  2  0  0  0  0
 15 16  1  0  0  0  0
 17 15  1  0  0  0  0
 18 17  1  0  0  0  0
 18 24  1  0  0  0  0
 19 18  1  0  0  0  0
 20 19  1  0  0  0  0
 21 19  2  0  0  0  0
 21 22  1  0  0  0  0
 22 23  1  0  0  0  0
 22 17  2  0  0  0  0
 23 13  2  0  0  0  0
 25  1  1  0  0  0  0
 26 27  1  0  0  0  0
 27 28  2  0  0  0  0
 27 25  1  0  0  0  0
 28 32  1  0  0  0  0
 29 33  1  0  0  0  0
 29 28  1  0  0  0  0
 30 29  2  0  0  0  0
 31 26  2  0  0  0  0
 31 30  1  0  0  0  0
 34 30  1  0  0  0  0
 35 31  1  0  0  0  0
 36 35  2  0  0  0  0
 36 40  1  0  0  0  0
 37 36  1  0  0  0  0
 38 37  2  0  0  0  0
 38 39  1  0  0  0  0
 39 35  1  0  0  0  0
 41 37  1  0  0  0  0
 42 38  1  0  0  0  0
 43 44  3  0  0  0  0
 44 26  1  0  0  0  0
M  END
>  <minimizedAffinity>
-6.27510023

>  <minimizedRMSD>
0.792101562

$$$$
