
 OpenBabel03262523563D

 41 44  0  0  1  0  0  0  0  0999 V2000
   37.7620   30.4210   47.6970 C   0  0  1  0  0  0  0  0  0  0  0  0
   36.9740   30.6240   46.4900 C   0  0  0  0  0  0  0  0  0  0  0  0
   37.8900   30.6250   45.3060 C   0  0  0  0  0  0  0  0  0  0  0  0
   39.1320   31.3870   45.5930 C   0  0  0  0  0  0  0  0  0  0  0  0
   39.0720   32.3200   46.7280 C   0  0  0  0  0  0  0  0  0  0  0  0
   38.4870   31.7240   48.0060 C   0  0  1  0  0  0  0  0  0  0  0  0
   38.5970   29.6810   47.5560 H   0  0  0  0  0  0  0  0  0  0  0  0
   36.2910   29.7330   46.3600 H   0  0  0  0  0  0  0  0  0  0  0  0
   36.3240   31.4980   46.5310 H   0  0  0  0  0  0  0  0  0  0  0  0
   37.3200   31.0980   44.4680 H   0  0  0  0  0  0  0  0  0  0  0  0
   38.0940   29.5710   44.9600 H   0  0  0  0  0  0  0  0  0  0  0  0
   39.3870   31.9690   44.6860 H   0  0  0  0  0  0  0  0  0  0  0  0
   39.9730   30.6670   45.7200 H   0  0  0  0  0  0  0  0  0  0  0  0
   38.4820   33.2440   46.4910 H   0  0  0  0  0  0  0  0  0  0  0  0
   40.0920   32.6760   46.9790 H   0  0  0  0  0  0  0  0  0  0  0  0
   39.3180   31.4690   48.7000 H   0  0  0  0  0  0  0  0  0  0  0  0
   37.0710   29.3670   51.1900 C   0  0  0  0  0  0  0  0  0  0  0  0
   37.7890   29.7290   50.0230 C   0  0  0  0  0  0  0  0  0  0  0  0
   37.0180   30.0660   48.9170 C   0  0  0  0  0  0  0  0  0  0  0  0
   35.6340   30.0390   48.9870 N   0  0  0  0  0  0  0  0  0  0  0  0
   34.9970   29.6900   50.1130 C   0  0  0  0  0  0  0  0  0  0  0  0
   35.7100   29.3480   51.2310 N   0  0  0  0  0  0  0  0  0  0  0  0
   37.6900   29.1060   52.0460 H   0  0  0  0  0  0  0  0  0  0  0  0
   38.8670   29.7360   50.0140 H   0  0  0  0  0  0  0  0  0  0  0  0
   33.9180   29.6650   50.1800 H   0  0  0  0  0  0  0  0  0  0  0  0
   37.9570   33.7910   49.5740 C   0  0  0  0  0  0  0  0  0  0  0  0
   39.1800   33.9600   49.6970 O   0  0  0  0  0  0  0  0  0  0  0  0
   37.6850   32.7020   48.6910 N   0  0  0  0  0  0  0  0  0  0  0  0
   36.6940   32.4440   48.3850 H   0  0  0  0  0  0  0  0  0  0  0  0
   36.4450   34.4250   51.4840 C   0  0  0  0  0  3  0  0  0  0  0  0
   36.8890   34.5190   50.1810 C   0  0  0  0  0  0  0  0  0  0  0  0
   36.2480   35.4190   49.3230 C   0  0  0  0  0  0  0  0  0  0  0  0
   36.5280   35.5580   48.2890 H   0  0  0  0  0  0  0  0  0  0  0  0
   35.1980   36.1930   49.7640 C   0  0  0  0  0  0  0  0  0  0  0  0
   34.4110   37.1260   49.1660 N   0  0  0  0  0  0  0  0  0  0  0  0
   33.5180   37.5830   50.0750 C   0  0  0  0  0  0  0  0  0  0  0  0
   32.7790   38.3360   49.8360 H   0  0  0  0  0  0  0  0  0  0  0  0
   33.7550   36.9300   51.2410 N   0  0  0  0  0  0  0  0  0  0  0  0
   34.7800   36.0730   51.0720 C   0  0  0  0  0  0  0  0  0  0  0  0
   35.3970   35.1860   51.9600 C   0  0  0  0  0  3  0  0  0  0  0  0
   34.5110   37.4110   48.1770 H   0  0  0  0  0  0  0  0  0  0  0  0
  1  7  1  6  0  0  0
  1  6  1  0  0  0  0
  1 19  1  0  0  0  0
  2  9  1  0  0  0  0
  2  1  1  0  0  0  0
  3  4  1  0  0  0  0
  3  2  1  0  0  0  0
  4 13  1  0  0  0  0
  4  5  1  0  0  0  0
  5 15  1  0  0  0  0
  5  6  1  0  0  0  0
  6 28  1  0  0  0  0
  6 16  1  1  0  0  0
  8  2  1  0  0  0  0
 10  3  1  0  0  0  0
 11  3  1  0  0  0  0
 12  4  1  0  0  0  0
 14  5  1  0  0  0  0
 17 22  1  0  0  0  0
 17 23  1  0  0  0  0
 18 17  2  0  0  0  0
 19 20  2  0  0  0  0
 19 18  1  0  0  0  0
 20 21  1  0  0  0  0
 21 25  1  0  0  0  0
 21 22  2  0  0  0  0
 24 18  1  0  0  0  0
 26 27  2  0  0  0  0
 26 31  1  0  0  0  0
 28 26  1  0  0  0  0
 29 28  1  0  0  0  0
 30 40  1  0  0  0  0
 31 30  2  0  0  0  0
 32 34  2  0  0  0  0
 32 31  1  0  0  0  0
 33 32  1  0  0  0  0
 34 39  1  0  0  0  0
 35 34  1  0  0  0  0
 35 36  1  0  0  0  0
 36 38  2  0  0  0  0
 37 36  1  0  0  0  0
 39 38  1  0  0  0  0
 39 40  2  0  0  0  0
 41 35  1  0  0  0  0
M  END
>  <minimizedAffinity>
6.54774714

>  <minimizedRMSD>
1.02207279

$$$$
