
 OpenBabel03272507413D

 44 48  0  0  0  0  0  0  0  0999 V2000
   36.7770   31.1900   50.1080 C   0  0  0  0  0  0  0  0  0  0  0  0
   35.7420   30.2850   49.8850 C   0  0  0  0  0  0  0  0  0  0  0  0
   35.5710   29.1640   50.6610 C   0  0  0  0  0  0  0  0  0  0  0  0
   36.4620   28.9660   51.6700 N   0  0  0  0  0  0  0  0  0  0  0  0
   37.4760   29.8530   51.8890 C   0  0  0  0  0  0  0  0  0  0  0  0
   37.6140   30.9290   51.1190 N   0  0  0  0  0  0  0  0  0  0  0  0
   34.8140   28.4320   50.5560 H   0  0  0  0  0  0  0  0  0  0  0  0
   38.2000   29.7110   52.6940 H   0  0  0  0  0  0  0  0  0  0  0  0
   34.3220   29.2490   48.1570 C   0  0  0  0  0  0  0  0  0  0  0  0
   34.7300   28.0270   48.1540 O   0  0  0  0  0  0  0  0  0  0  0  0
   34.7750   30.3840   48.8650 N   0  0  0  0  0  0  0  0  0  0  0  0
   34.5040   31.3620   48.7610 H   0  0  0  0  0  0  0  0  0  0  0  0
   33.0680   30.5270   46.4010 C   0  0  0  0  0  3  0  0  0  0  0  0
   33.1880   29.4510   47.2550 C   0  0  0  0  0  0  0  0  0  0  0  0
   32.1170   28.5860   47.1630 C   0  0  0  0  0  0  0  0  0  0  0  0
   32.1040   27.6940   47.7950 H   0  0  0  0  0  0  0  0  0  0  0  0
   31.0280   28.7300   46.3330 C   0  0  0  0  0  0  0  0  0  0  0  0
   29.9230   27.9930   46.1270 N   0  0  0  0  0  0  0  0  0  0  0  0
   29.1790   28.6070   45.1890 C   0  0  0  0  0  0  0  0  0  0  0  0
   28.2170   28.2990   44.7680 H   0  0  0  0  0  0  0  0  0  0  0  0
   29.8280   29.7300   44.8130 N   0  0  0  0  0  0  0  0  0  0  0  0
   30.9860   29.8350   45.5110 C   0  0  0  0  0  0  0  0  0  0  0  0
   32.0170   30.7490   45.5420 C   0  0  0  0  0  3  0  0  0  0  0  0
   29.6500   27.0960   46.5890 H   0  0  0  0  0  0  0  0  0  0  0  0
   36.7770   32.2270   49.2410 O   0  0  0  0  0  0  0  0  0  0  0  0
   38.2370   32.2210   47.2540 C   0  0  0  0  0  0  0  0  0  0  0  0
   37.8720   32.6520   48.5220 C   0  0  0  0  0  0  0  0  0  0  0  0
   38.6370   33.5940   49.1860 C   0  0  0  0  0  0  0  0  0  0  0  0
   39.7720   34.1110   48.5810 C   0  0  0  0  0  0  0  0  0  0  0  0
   40.1330   33.6800   47.3170 C   0  0  0  0  0  0  0  0  0  0  0  0
   39.3500   32.7380   46.6790 C   0  0  0  0  0  0  0  0  0  0  0  0
   38.4180   33.9720   50.1620 H   0  0  0  0  0  0  0  0  0  0  0  0
   40.3980   34.8500   49.0660 H   0  0  0  0  0  0  0  0  0  0  0  0
   41.0140   34.0540   46.7990 H   0  0  0  0  0  0  0  0  0  0  0  0
   39.7470   32.2880   45.3330 C   0  0  0  0  0  0  0  0  0  0  0  0
   40.5780   31.2630   44.9600 C   0  0  0  0  0  0  0  0  0  0  0  0
   40.6290   31.2490   43.5670 C   0  0  0  0  0  0  0  0  0  0  0  0
   39.8050   32.2920   43.1750 C   0  0  0  0  0  0  0  0  0  0  0  0
   39.2900   32.8990   44.2380 O   0  0  0  0  0  0  0  0  0  0  0  0
   41.0910   30.5990   45.6380 H   0  0  0  0  0  0  0  0  0  0  0  0
   41.1890   30.5710   42.9360 H   0  0  0  0  0  0  0  0  0  0  0  0
   39.6030   32.5800   42.1430 H   0  0  0  0  0  0  0  0  0  0  0  0
   36.7290   30.4660   46.1240 N   0  0  0  0  0  0  0  0  0  0  0  0
   37.3970   31.2480   46.6380 C   0  0  0  0  0  0  0  0  0  0  0  0
  1  6  1  0  0  0  0
  2  1  2  0  0  0  0
  2  3  1  0  0  0  0
  3  4  2  0  0  0  0
  4  5  1  0  0  0  0
  5  8  1  0  0  0  0
  6  5  2  0  0  0  0
  7  3  1  0  0  0  0
  9 11  1  0  0  0  0
 10  9  2  0  0  0  0
 11  2  1  0  0  0  0
 12 11  1  0  0  0  0
 13 14  1  0  0  0  0
 14  9  1  0  0  0  0
 15 14  2  0  0  0  0
 15 16  1  0  0  0  0
 17 15  1  0  0  0  0
 18 17  1  0  0  0  0
 18 24  1  0  0  0  0
 19 18  1  0  0  0  0
 20 19  1  0  0  0  0
 21 19  2  0  0  0  0
 21 22  1  0  0  0  0
 22 23  1  0  0  0  0
 22 17  2  0  0  0  0
 23 13  2  0  0  0  0
 25  1  1  0  0  0  0
 26 27  1  0  0  0  0
 27 28  2  0  0  0  0
 27 25  1  0  0  0  0
 28 32  1  0  0  0  0
 29 33  1  0  0  0  0
 29 28  1  0  0  0  0
 30 29  2  0  0  0  0
 31 26  2  0  0  0  0
 31 30  1  0  0  0  0
 34 30  1  0  0  0  0
 35 31  1  0  0  0  0
 36 35  2  0  0  0  0
 36 40  1  0  0  0  0
 37 36  1  0  0  0  0
 38 37  2  0  0  0  0
 38 39  1  0  0  0  0
 39 35  1  0  0  0  0
 41 37  1  0  0  0  0
 42 38  1  0  0  0  0
 43 44  3  0  0  0  0
 44 26  1  0  0  0  0
M  END
>  <minimizedAffinity>
-6.34775496

>  <minimizedRMSD>
0.827688694

$$$$
