
 OpenBabel03272507413D

 44 48  0  0  0  0  0  0  0  0999 V2000
   36.7880   31.2020   50.1140 C   0  0  0  0  0  0  0  0  0  0  0  0
   35.7520   30.3010   49.8770 C   0  0  0  0  0  0  0  0  0  0  0  0
   35.5760   29.1720   50.6400 C   0  0  0  0  0  0  0  0  0  0  0  0
   36.4640   28.9610   51.6490 N   0  0  0  0  0  0  0  0  0  0  0  0
   37.4780   29.8440   51.8820 C   0  0  0  0  0  0  0  0  0  0  0  0
   37.6210   30.9280   51.1250 N   0  0  0  0  0  0  0  0  0  0  0  0
   34.8180   28.4430   50.5240 H   0  0  0  0  0  0  0  0  0  0  0  0
   38.1990   29.6910   52.6880 H   0  0  0  0  0  0  0  0  0  0  0  0
   34.3340   29.2880   48.1340 C   0  0  0  0  0  0  0  0  0  0  0  0
   34.7400   28.0640   48.1190 O   0  0  0  0  0  0  0  0  0  0  0  0
   34.7890   30.4140   48.8550 N   0  0  0  0  0  0  0  0  0  0  0  0
   34.5200   31.3930   48.7610 H   0  0  0  0  0  0  0  0  0  0  0  0
   32.1830   28.5950   47.0470 C   0  0  0  0  0  3  0  0  0  0  0  0
   33.2040   29.5020   47.2300 C   0  0  0  0  0  0  0  0  0  0  0  0
   33.0400   30.6390   46.4660 C   0  0  0  0  0  0  0  0  0  0  0  0
   33.7900   31.4300   46.5290 H   0  0  0  0  0  0  0  0  0  0  0  0
   31.9970   30.8910   45.6020 C   0  0  0  0  0  0  0  0  0  0  0  0
   31.6940   31.9260   44.7990 N   0  0  0  0  0  0  0  0  0  0  0  0
   30.5400   31.6420   44.1670 C   0  0  0  0  0  0  0  0  0  0  0  0
   29.9920   32.2500   43.4400 H   0  0  0  0  0  0  0  0  0  0  0  0
   30.1280   30.4250   44.5810 N   0  0  0  0  0  0  0  0  0  0  0  0
   31.0160   29.9310   45.4770 C   0  0  0  0  0  0  0  0  0  0  0  0
   31.1070   28.7650   46.2080 C   0  0  0  0  0  3  0  0  0  0  0  0
   32.2300   32.8130   44.6610 H   0  0  0  0  0  0  0  0  0  0  0  0
   36.7930   32.2490   49.2590 O   0  0  0  0  0  0  0  0  0  0  0  0
   38.2490   32.2360   47.2680 C   0  0  0  0  0  0  0  0  0  0  0  0
   37.8880   32.6690   48.5370 C   0  0  0  0  0  0  0  0  0  0  0  0
   38.6560   33.6110   49.1970 C   0  0  0  0  0  0  0  0  0  0  0  0
   39.7900   34.1240   48.5890 C   0  0  0  0  0  0  0  0  0  0  0  0
   40.1470   33.6910   47.3240 C   0  0  0  0  0  0  0  0  0  0  0  0
   39.3610   32.7490   46.6900 C   0  0  0  0  0  0  0  0  0  0  0  0
   38.4400   33.9920   50.1730 H   0  0  0  0  0  0  0  0  0  0  0  0
   40.4200   34.8630   49.0710 H   0  0  0  0  0  0  0  0  0  0  0  0
   41.0280   34.0610   46.8040 H   0  0  0  0  0  0  0  0  0  0  0  0
   39.7540   32.2960   45.3440 C   0  0  0  0  0  0  0  0  0  0  0  0
   40.5910   31.2760   44.9700 C   0  0  0  0  0  0  0  0  0  0  0  0
   40.6340   31.2560   43.5770 C   0  0  0  0  0  0  0  0  0  0  0  0
   39.7990   32.2910   43.1860 C   0  0  0  0  0  0  0  0  0  0  0  0
   39.2860   32.8980   44.2480 O   0  0  0  0  0  0  0  0  0  0  0  0
   41.1120   30.6190   45.6490 H   0  0  0  0  0  0  0  0  0  0  0  0
   41.1950   30.5790   42.9460 H   0  0  0  0  0  0  0  0  0  0  0  0
   39.5900   32.5720   42.1530 H   0  0  0  0  0  0  0  0  0  0  0  0
   36.7340   30.4820   46.1450 N   0  0  0  0  0  0  0  0  0  0  0  0
   37.4040   31.2630   46.6560 C   0  0  0  0  0  0  0  0  0  0  0  0
  1  6  1  0  0  0  0
  2  1  2  0  0  0  0
  2  3  1  0  0  0  0
  3  4  2  0  0  0  0
  4  5  1  0  0  0  0
  5  8  1  0  0  0  0
  6  5  2  0  0  0  0
  7  3  1  0  0  0  0
  9 11  1  0  0  0  0
 10  9  2  0  0  0  0
 11  2  1  0  0  0  0
 12 11  1  0  0  0  0
 13 14  1  0  0  0  0
 14  9  1  0  0  0  0
 15 16  1  0  0  0  0
 15 14  2  0  0  0  0
 17 15  1  0  0  0  0
 18 17  1  0  0  0  0
 19 21  2  0  0  0  0
 19 18  1  0  0  0  0
 20 19  1  0  0  0  0
 21 22  1  0  0  0  0
 22 17  2  0  0  0  0
 22 23  1  0  0  0  0
 23 13  2  0  0  0  0
 24 18  1  0  0  0  0
 25  1  1  0  0  0  0
 26 27  1  0  0  0  0
 27 28  2  0  0  0  0
 27 25  1  0  0  0  0
 28 32  1  0  0  0  0
 29 33  1  0  0  0  0
 29 28  1  0  0  0  0
 30 29  2  0  0  0  0
 31 26  2  0  0  0  0
 31 30  1  0  0  0  0
 34 30  1  0  0  0  0
 35 31  1  0  0  0  0
 36 35  2  0  0  0  0
 36 40  1  0  0  0  0
 37 36  1  0  0  0  0
 38 37  2  0  0  0  0
 38 39  1  0  0  0  0
 39 35  1  0  0  0  0
 41 37  1  0  0  0  0
 42 38  1  0  0  0  0
 43 44  3  0  0  0  0
 44 26  1  0  0  0  0
M  END
>  <minimizedAffinity>
-6.39804173

>  <minimizedRMSD>
0.719614446

$$$$
