
 OpenBabel03272507413D

 44 48  0  0  0  0  0  0  0  0999 V2000
   36.7780   31.1900   50.1070 C   0  0  0  0  0  0  0  0  0  0  0  0
   35.7430   30.2840   49.8840 C   0  0  0  0  0  0  0  0  0  0  0  0
   35.5720   29.1630   50.6600 C   0  0  0  0  0  0  0  0  0  0  0  0
   36.4630   28.9650   51.6690 N   0  0  0  0  0  0  0  0  0  0  0  0
   37.4770   29.8530   51.8880 C   0  0  0  0  0  0  0  0  0  0  0  0
   37.6150   30.9280   51.1190 N   0  0  0  0  0  0  0  0  0  0  0  0
   34.8150   28.4320   50.5550 H   0  0  0  0  0  0  0  0  0  0  0  0
   38.2010   29.7100   52.6930 H   0  0  0  0  0  0  0  0  0  0  0  0
   34.3220   29.2490   48.1570 C   0  0  0  0  0  0  0  0  0  0  0  0
   34.7310   28.0260   48.1540 O   0  0  0  0  0  0  0  0  0  0  0  0
   34.7760   30.3830   48.8650 N   0  0  0  0  0  0  0  0  0  0  0  0
   34.5050   31.3610   48.7610 H   0  0  0  0  0  0  0  0  0  0  0  0
   33.0680   30.5270   46.4020 C   0  0  0  0  0  3  0  0  0  0  0  0
   33.1880   29.4510   47.2550 C   0  0  0  0  0  0  0  0  0  0  0  0
   32.1170   28.5860   47.1640 C   0  0  0  0  0  0  0  0  0  0  0  0
   32.1040   27.6940   47.7970 H   0  0  0  0  0  0  0  0  0  0  0  0
   31.0270   28.7290   46.3340 C   0  0  0  0  0  0  0  0  0  0  0  0
   29.9220   27.9920   46.1290 N   0  0  0  0  0  0  0  0  0  0  0  0
   29.1780   28.6070   45.1900 C   0  0  0  0  0  0  0  0  0  0  0  0
   28.2150   28.2970   44.7710 H   0  0  0  0  0  0  0  0  0  0  0  0
   29.8270   29.7290   44.8150 N   0  0  0  0  0  0  0  0  0  0  0  0
   30.9850   29.8330   45.5120 C   0  0  0  0  0  0  0  0  0  0  0  0
   32.0160   30.7480   45.5410 C   0  0  0  0  0  3  0  0  0  0  0  0
   29.6490   27.0960   46.5920 H   0  0  0  0  0  0  0  0  0  0  0  0
   36.7770   32.2270   49.2410 O   0  0  0  0  0  0  0  0  0  0  0  0
   38.2380   32.2210   47.2540 C   0  0  0  0  0  0  0  0  0  0  0  0
   37.8730   32.6510   48.5220 C   0  0  0  0  0  0  0  0  0  0  0  0
   38.6370   33.5940   49.1850 C   0  0  0  0  0  0  0  0  0  0  0  0
   39.7720   34.1100   48.5810 C   0  0  0  0  0  0  0  0  0  0  0  0
   40.1330   33.6800   47.3160 C   0  0  0  0  0  0  0  0  0  0  0  0
   39.3500   32.7380   46.6790 C   0  0  0  0  0  0  0  0  0  0  0  0
   38.4190   33.9720   50.1620 H   0  0  0  0  0  0  0  0  0  0  0  0
   40.3990   34.8500   49.0660 H   0  0  0  0  0  0  0  0  0  0  0  0
   41.0140   34.0540   46.7980 H   0  0  0  0  0  0  0  0  0  0  0  0
   39.7470   32.2890   45.3330 C   0  0  0  0  0  0  0  0  0  0  0  0
   40.5780   31.2630   44.9590 C   0  0  0  0  0  0  0  0  0  0  0  0
   40.6280   31.2490   43.5660 C   0  0  0  0  0  0  0  0  0  0  0  0
   39.8050   32.2930   43.1750 C   0  0  0  0  0  0  0  0  0  0  0  0
   39.2900   32.8990   44.2370 O   0  0  0  0  0  0  0  0  0  0  0  0
   41.0900   30.5990   45.6370 H   0  0  0  0  0  0  0  0  0  0  0  0
   41.1880   30.5710   42.9350 H   0  0  0  0  0  0  0  0  0  0  0  0
   39.6030   32.5810   42.1420 H   0  0  0  0  0  0  0  0  0  0  0  0
   36.7290   30.4660   46.1240 N   0  0  0  0  0  0  0  0  0  0  0  0
   37.3970   31.2480   46.6370 C   0  0  0  0  0  0  0  0  0  0  0  0
  1  6  1  0  0  0  0
  2  1  2  0  0  0  0
  2  3  1  0  0  0  0
  3  4  2  0  0  0  0
  4  5  1  0  0  0  0
  5  8  1  0  0  0  0
  6  5  2  0  0  0  0
  7  3  1  0  0  0  0
  9 11  1  0  0  0  0
 10  9  2  0  0  0  0
 11  2  1  0  0  0  0
 12 11  1  0  0  0  0
 13 14  1  0  0  0  0
 14  9  1  0  0  0  0
 15 14  2  0  0  0  0
 15 16  1  0  0  0  0
 17 15  1  0  0  0  0
 18 17  1  0  0  0  0
 18 24  1  0  0  0  0
 19 18  1  0  0  0  0
 20 19  1  0  0  0  0
 21 19  2  0  0  0  0
 21 22  1  0  0  0  0
 22 23  1  0  0  0  0
 22 17  2  0  0  0  0
 23 13  2  0  0  0  0
 25  1  1  0  0  0  0
 26 27  1  0  0  0  0
 27 28  2  0  0  0  0
 27 25  1  0  0  0  0
 28 32  1  0  0  0  0
 29 33  1  0  0  0  0
 29 28  1  0  0  0  0
 30 29  2  0  0  0  0
 31 26  2  0  0  0  0
 31 30  1  0  0  0  0
 34 30  1  0  0  0  0
 35 31  1  0  0  0  0
 36 35  2  0  0  0  0
 36 40  1  0  0  0  0
 37 36  1  0  0  0  0
 38 37  2  0  0  0  0
 38 39  1  0  0  0  0
 39 35  1  0  0  0  0
 41 37  1  0  0  0  0
 42 38  1  0  0  0  0
 43 44  3  0  0  0  0
 44 26  1  0  0  0  0
M  END
>  <minimizedAffinity>
-6.34776831

>  <minimizedRMSD>
0.538154483

$$$$
