
 OpenBabel03272503423D

 43 46  0  0  1  0  0  0  0  0999 V2000
   39.9690   31.3310   41.7090 C   0  0  2  0  0  0  0  0  0  0  0  0
   39.5330   32.4470   42.6820 C   0  0  1  0  0  0  0  0  0  0  0  0
   38.2910   32.9030   41.9860 C   0  0  0  0  0  0  0  0  0  0  0  0
   38.5230   32.8100   40.6350 O   0  0  0  0  0  0  0  0  0  0  0  0
   39.6610   32.0980   40.4080 C   0  0  0  0  0  0  0  0  0  0  0  0
   41.0290   31.1180   41.8020 H   0  0  0  0  0  0  0  0  0  0  0  0
   40.2700   33.2590   42.7220 H   0  0  0  0  0  0  0  0  0  0  0  0
   37.9040   33.8810   42.3090 H   0  0  0  0  0  0  0  0  0  0  0  0
   37.4620   32.1730   42.2190 H   0  0  0  0  0  0  0  0  0  0  0  0
   40.5020   32.8240   40.3100 H   0  0  0  0  0  0  0  0  0  0  0  0
   39.6130   31.4200   39.5410 H   0  0  0  0  0  0  0  0  0  0  0  0
   38.3490   31.1970   45.8320 C   0  0  0  0  0  0  0  0  0  0  0  0
   39.6880   31.0270   46.0070 C   0  0  0  0  0  0  0  0  0  0  0  0
   40.2650   31.4890   44.8160 C   0  0  0  0  0  0  0  0  0  0  0  0
   39.2960   31.9090   43.9920 N   0  0  0  0  0  0  0  0  0  0  0  0
   38.1100   31.7340   44.6090 N   0  0  0  0  0  0  0  0  0  0  0  0
   40.2400   30.6220   46.8680 H   0  0  0  0  0  0  0  0  0  0  0  0
   41.3530   31.4760   44.6620 H   0  0  0  0  0  0  0  0  0  0  0  0
   36.5090   30.6150   49.0510 C   0  0  0  0  0  0  0  0  0  0  0  0
   37.5210   30.9510   48.1630 C   0  0  0  0  0  0  0  0  0  0  0  0
   37.3250   30.8590   46.8050 C   0  0  0  0  0  0  0  0  0  0  0  0
   36.1170   30.4340   46.3800 N   0  0  0  0  0  0  0  0  0  0  0  0
   35.1300   30.1080   47.2630 C   0  0  0  0  0  0  0  0  0  0  0  0
   35.3070   30.1910   48.5690 N   0  0  0  0  0  0  0  0  0  0  0  0
   38.5030   31.2950   48.4730 H   0  0  0  0  0  0  0  0  0  0  0  0
   34.1510   29.7640   46.9310 H   0  0  0  0  0  0  0  0  0  0  0  0
   36.8660   30.7610   50.3820 O   0  0  0  0  0  0  0  0  0  0  0  0
   36.9160   29.6860   51.3020 C   0  0  0  0  0  0  0  0  0  0  0  0
   35.6480   29.2580   51.6400 F   0  0  0  0  0  0  0  0  0  0  0  0
   37.6150   30.0890   52.4100 F   0  0  0  0  0  0  0  0  0  0  0  0
   37.6140   28.6460   50.7170 F   0  0  0  0  0  0  0  0  0  0  0  0
   39.0610   30.3220   41.8610 O   0  0  0  0  0  0  0  0  0  0  0  0
   39.7120   28.0420   41.0050 C   0  0  0  0  0  0  0  0  0  0  0  0
   39.2100   28.9650   41.8990 C   0  0  0  0  0  0  0  0  0  0  0  0
   38.7370   28.4700   43.1230 C   0  0  0  0  0  0  0  0  0  0  0  0
   38.3060   29.0490   43.9520 H   0  0  0  0  0  0  0  0  0  0  0  0
   38.7730   27.1090   43.4220 C   0  0  0  0  0  3  0  0  0  0  0  0
   39.2800   26.2070   42.5110 C   0  0  0  0  0  3  0  0  0  0  0  0
   39.7380   26.7000   41.3200 C   0  0  0  0  0  0  0  0  0  0  0  0
   40.1500   28.6270   39.8340 O   0  0  0  0  0  0  0  0  0  0  0  0
   40.1290   28.1840   38.9230 H   0  0  0  0  0  0  0  0  0  0  0  0
   40.2880   25.9400   40.2710 O   0  0  0  0  0  0  0  0  0  0  0  0
   40.7510   25.0400   40.4410 H   0  0  0  0  0  0  0  0  0  0  0  0
  1  6  1  1  0  0  0
  1 32  1  0  0  0  0
  1  2  1  0  0  0  0
  2  7  1  1  0  0  0
  2 15  1  0  0  0  0
  3  9  1  0  0  0  0
  3  8  1  0  0  0  0
  3  2  1  0  0  0  0
  4  3  1  0  0  0  0
  5  4  1  0  0  0  0
  5  1  1  0  0  0  0
 10  5  1  0  0  0  0
 11  5  1  0  0  0  0
 12 13  1  0  0  0  0
 12 21  1  0  0  0  0
 13 17  1  0  0  0  0
 14 13  2  0  0  0  0
 15 16  1  0  0  0  0
 15 14  1  0  0  0  0
 16 12  2  0  0  0  0
 18 14  1  0  0  0  0
 19 27  1  0  0  0  0
 20 25  1  0  0  0  0
 20 19  2  0  0  0  0
 21 20  1  0  0  0  0
 22 21  2  0  0  0  0
 22 23  1  0  0  0  0
 23 24  2  0  0  0  0
 24 19  1  0  0  0  0
 26 23  1  0  0  0  0
 27 28  1  0  0  0  0
 28 29  1  0  0  0  0
 28 30  1  0  0  0  0
 31 28  1  0  0  0  0
 32 34  1  0  0  0  0
 33 39  2  0  0  0  0
 33 34  1  0  0  0  0
 34 35  2  0  0  0  0
 35 37  1  0  0  0  0
 35 36  1  0  0  0  0
 38 37  2  0  0  0  0
 39 38  1  0  0  0  0
 40 33  1  0  0  0  0
 41 40  1  0  0  0  0
 42 43  1  0  0  0  0
 42 39  1  0  0  0  0
M  END
>  <minimizedAffinity>
-6.42630386

>  <minimizedRMSD>
0.948094547

$$$$
