
 OpenBabel03272509183D

 35 37  0  0  0  0  0  0  0  0999 V2000
   37.8370   31.1270   48.0970 C   0  0  0  0  0  0  0  0  0  0  0  0
   37.1510   31.5080   49.2380 C   0  0  0  0  0  0  0  0  0  0  0  0
   37.5080   32.7700   49.7230 C   0  0  0  0  0  0  0  0  0  0  0  0
   38.4740   33.5610   49.0930 C   0  0  0  0  0  0  0  0  0  0  0  0
   39.1110   33.0820   47.9400 C   0  0  0  0  0  0  0  0  0  0  0  0
   38.7700   31.8460   47.4560 C   0  0  0  0  0  0  0  0  0  0  0  0
   37.0400   33.1810   50.6140 H   0  0  0  0  0  0  0  0  0  0  0  0
   38.7350   34.5360   49.4850 H   0  0  0  0  0  0  0  0  0  0  0  0
   39.8570   33.7200   47.4730 H   0  0  0  0  0  0  0  0  0  0  0  0
   34.8510   30.6560   49.3820 C   0  0  0  0  0  0  0  0  0  0  0  0
   36.1620   30.7040   49.8880 C   0  0  0  0  0  0  0  0  0  0  0  0
   36.4410   29.9480   51.0240 C   0  0  0  0  0  0  0  0  0  0  0  0
   35.4380   29.2120   51.5770 N   0  0  0  0  0  0  0  0  0  0  0  0
   34.1840   29.1960   51.0520 C   0  0  0  0  0  0  0  0  0  0  0  0
   33.8990   29.9130   49.9650 N   0  0  0  0  0  0  0  0  0  0  0  0
   34.6610   31.2500   48.5020 H   0  0  0  0  0  0  0  0  0  0  0  0
   33.3920   28.6060   51.5010 H   0  0  0  0  0  0  0  0  0  0  0  0
   37.8050   29.9580   51.6040 C   0  0  0  0  0  0  0  0  0  0  0  0
   38.5060   29.9960   50.7520 H   0  0  0  0  0  0  0  0  0  0  0  0
   37.9040   29.0230   52.1910 H   0  0  0  0  0  0  0  0  0  0  0  0
   37.9590   30.8030   52.2960 H   0  0  0  0  0  0  0  0  0  0  0  0
   37.5410   29.8640   47.5360 O   0  0  0  0  0  0  0  0  0  0  0  0
   36.5710   29.6800   47.2780 H   0  0  0  0  0  0  0  0  0  0  0  0
   39.4260   31.4030   46.3040 O   0  0  0  0  0  0  0  0  0  0  0  0
   39.4720   32.7220   44.1690 C   0  0  0  0  0  0  0  0  0  0  0  0
   38.9090   31.8620   45.0880 C   0  0  0  0  0  0  0  0  0  0  0  0
   37.6530   31.3220   44.8620 C   0  0  0  0  0  0  0  0  0  0  0  0
   37.1080   30.6340   45.5120 H   0  0  0  0  0  0  0  0  0  0  0  0
   36.9320   31.6280   43.7170 C   0  0  0  0  0  3  0  0  0  0  0  0
   37.5000   32.4920   42.8000 C   0  0  0  0  0  3  0  0  0  0  0  0
   38.7420   33.0190   43.0330 C   0  0  0  0  0  0  0  0  0  0  0  0
   40.7200   33.1790   44.5260 O   0  0  0  0  0  0  0  0  0  0  0  0
   41.5810   32.8620   44.1180 H   0  0  0  0  0  0  0  0  0  0  0  0
   39.3650   33.8910   42.1510 O   0  0  0  0  0  0  0  0  0  0  0  0
   39.9910   33.5890   41.4310 H   0  0  0  0  0  0  0  0  0  0  0  0
  1  2  1  0  0  0  0
  2  3  2  0  0  0  0
  2 11  1  0  0  0  0
  3  7  1  0  0  0  0
  4  8  1  0  0  0  0
  4  3  1  0  0  0  0
  5  4  2  0  0  0  0
  6  5  1  0  0  0  0
  6  1  2  0  0  0  0
  9  5  1  0  0  0  0
 10 11  2  0  0  0  0
 10 15  1  0  0  0  0
 11 12  1  0  0  0  0
 12 13  2  0  0  0  0
 12 18  1  0  0  0  0
 14 17  1  0  0  0  0
 14 13  1  0  0  0  0
 15 14  2  0  0  0  0
 16 10  1  0  0  0  0
 18 20  1  0  0  0  0
 18 21  1  0  0  0  0
 19 18  1  0  0  0  0
 22  1  1  0  0  0  0
 23 22  1  0  0  0  0
 24  6  1  0  0  0  0
 25 32  1  0  0  0  0
 25 26  1  0  0  0  0
 26 24  1  0  0  0  0
 27 26  2  0  0  0  0
 27 28  1  0  0  0  0
 29 27  1  0  0  0  0
 30 31  1  0  0  0  0
 30 29  2  0  0  0  0
 31 25  2  0  0  0  0
 33 32  1  0  0  0  0
 34 31  1  0  0  0  0
 35 34  1  0  0  0  0
M  END
>  <minimizedAffinity>
-5.8982358

>  <minimizedRMSD>
1.0844276

$$$$
