
 OpenBabel03272509183D

 35 37  0  0  0  0  0  0  0  0999 V2000
   38.1220   31.1070   47.8050 C   0  0  0  0  0  0  0  0  0  0  0  0
   37.0700   31.2800   48.6880 C   0  0  0  0  0  0  0  0  0  0  0  0
   37.1250   32.4740   49.4140 C   0  0  0  0  0  0  0  0  0  0  0  0
   38.1610   33.3980   49.2450 C   0  0  0  0  0  0  0  0  0  0  0  0
   39.1810   33.1280   48.3230 C   0  0  0  0  0  0  0  0  0  0  0  0
   39.1380   31.9610   47.6060 C   0  0  0  0  0  0  0  0  0  0  0  0
   36.3550   32.7240   50.1400 H   0  0  0  0  0  0  0  0  0  0  0  0
   38.1830   34.3170   49.8180 H   0  0  0  0  0  0  0  0  0  0  0  0
   39.9720   33.8660   48.2150 H   0  0  0  0  0  0  0  0  0  0  0  0
   34.9090   30.3420   47.9870 C   0  0  0  0  0  0  0  0  0  0  0  0
   36.0070   30.3390   48.8660 C   0  0  0  0  0  0  0  0  0  0  0  0
   36.0060   29.3970   49.8920 C   0  0  0  0  0  0  0  0  0  0  0  0
   34.9520   28.5410   49.9860 N   0  0  0  0  0  0  0  0  0  0  0  0
   33.9120   28.5800   49.1120 C   0  0  0  0  0  0  0  0  0  0  0  0
   33.8960   29.4750   48.1230 N   0  0  0  0  0  0  0  0  0  0  0  0
   34.9340   31.0810   47.2010 H   0  0  0  0  0  0  0  0  0  0  0  0
   33.0770   27.8930   49.1960 H   0  0  0  0  0  0  0  0  0  0  0  0
   37.1350   29.3450   50.8510 C   0  0  0  0  0  0  0  0  0  0  0  0
   38.0480   29.5610   50.2700 H   0  0  0  0  0  0  0  0  0  0  0  0
   37.1380   28.3220   51.2780 H   0  0  0  0  0  0  0  0  0  0  0  0
   37.0070   30.0530   51.6870 H   0  0  0  0  0  0  0  0  0  0  0  0
   38.1490   29.9280   47.0290 O   0  0  0  0  0  0  0  0  0  0  0  0
   37.3380   29.7330   46.4410 H   0  0  0  0  0  0  0  0  0  0  0  0
   40.1720   31.7270   46.6960 O   0  0  0  0  0  0  0  0  0  0  0  0
   39.5850   31.1380   44.3280 C   0  0  0  0  0  0  0  0  0  0  0  0
   39.8850   32.0050   45.3560 C   0  0  0  0  0  0  0  0  0  0  0  0
   39.9340   33.3710   45.1250 C   0  0  0  0  0  0  0  0  0  0  0  0
   40.1600   34.1530   45.8540 H   0  0  0  0  0  0  0  0  0  0  0  0
   39.6840   33.8990   43.8660 C   0  0  0  0  0  3  0  0  0  0  0  0
   39.3830   33.0220   42.8400 C   0  0  0  0  0  3  0  0  0  0  0  0
   39.3380   31.6770   43.0800 C   0  0  0  0  0  0  0  0  0  0  0  0
   39.5730   29.8130   44.7040 O   0  0  0  0  0  0  0  0  0  0  0  0
   38.7410   29.2660   44.8410 H   0  0  0  0  0  0  0  0  0  0  0  0
   39.0420   30.7470   42.0920 O   0  0  0  0  0  0  0  0  0  0  0  0
   38.1160   30.4120   41.9120 H   0  0  0  0  0  0  0  0  0  0  0  0
  1  2  1  0  0  0  0
  2 11  1  0  0  0  0
  2  3  2  0  0  0  0
  3  7  1  0  0  0  0
  4  3  1  0  0  0  0
  4  8  1  0  0  0  0
  5  4  2  0  0  0  0
  6  1  2  0  0  0  0
  6  5  1  0  0  0  0
  9  5  1  0  0  0  0
 10 15  2  0  0  0  0
 10 11  1  0  0  0  0
 11 12  2  0  0  0  0
 12 13  1  0  0  0  0
 12 18  1  0  0  0  0
 14 17  1  0  0  0  0
 14 13  2  0  0  0  0
 15 14  1  0  0  0  0
 16 10  1  0  0  0  0
 18 20  1  0  0  0  0
 18 21  1  0  0  0  0
 19 18  1  0  0  0  0
 22  1  1  0  0  0  0
 23 22  1  0  0  0  0
 24  6  1  0  0  0  0
 25 32  1  0  0  0  0
 25 26  1  0  0  0  0
 26 24  1  0  0  0  0
 27 26  2  0  0  0  0
 27 28  1  0  0  0  0
 29 27  1  0  0  0  0
 30 31  1  0  0  0  0
 30 29  2  0  0  0  0
 31 25  2  0  0  0  0
 32 33  1  0  0  0  0
 34 31  1  0  0  0  0
 35 34  1  0  0  0  0
M  END
>  <minimizedAffinity>
-6.36699677

>  <minimizedRMSD>
0.712305427

$$$$
