
 OpenBabel03272503413D

 43 46  0  0  1  0  0  0  0  0999 V2000
   40.0350   31.1030   41.8130 C   0  0  2  0  0  0  0  0  0  0  0  0
   39.6840   32.3150   42.7030 C   0  0  1  0  0  0  0  0  0  0  0  0
   38.4750   32.8070   41.9760 C   0  0  0  0  0  0  0  0  0  0  0  0
   38.6920   32.6010   40.6350 O   0  0  0  0  0  0  0  0  0  0  0  0
   39.7750   31.7950   40.4600 C   0  0  0  0  0  0  0  0  0  0  0  0
   41.0770   30.8230   41.9200 H   0  0  0  0  0  0  0  0  0  0  0  0
   40.4770   33.0730   42.6840 H   0  0  0  0  0  0  0  0  0  0  0  0
   38.1600   33.8310   42.2280 H   0  0  0  0  0  0  0  0  0  0  0  0
   37.5960   32.1570   42.2610 H   0  0  0  0  0  0  0  0  0  0  0  0
   40.6650   32.4500   40.3100 H   0  0  0  0  0  0  0  0  0  0  0  0
   39.6750   31.0610   39.6440 H   0  0  0  0  0  0  0  0  0  0  0  0
   38.4280   31.2590   45.8950 C   0  0  0  0  0  0  0  0  0  0  0  0
   39.7600   31.2820   46.1700 C   0  0  0  0  0  0  0  0  0  0  0  0
   40.3650   31.6880   44.9720 C   0  0  0  0  0  0  0  0  0  0  0  0
   39.4170   31.8900   44.0480 N   0  0  0  0  0  0  0  0  0  0  0  0
   38.2180   31.6290   44.6070 N   0  0  0  0  0  0  0  0  0  0  0  0
   40.2900   31.0440   47.1040 H   0  0  0  0  0  0  0  0  0  0  0  0
   41.4540   31.7990   44.8880 H   0  0  0  0  0  0  0  0  0  0  0  0
   36.5050   30.6200   49.0550 C   0  0  0  0  0  0  0  0  0  0  0  0
   37.5360   30.9800   48.1980 C   0  0  0  0  0  0  0  0  0  0  0  0
   37.3810   30.8950   46.8350 C   0  0  0  0  0  0  0  0  0  0  0  0
   36.1950   30.4510   46.3720 N   0  0  0  0  0  0  0  0  0  0  0  0
   35.1880   30.1000   47.2230 C   0  0  0  0  0  0  0  0  0  0  0  0
   35.3260   30.1770   48.5340 N   0  0  0  0  0  0  0  0  0  0  0  0
   38.5010   31.3410   48.5390 H   0  0  0  0  0  0  0  0  0  0  0  0
   34.2260   29.7400   46.8600 H   0  0  0  0  0  0  0  0  0  0  0  0
   36.8190   30.7630   50.3960 O   0  0  0  0  0  0  0  0  0  0  0  0
   36.8800   29.6800   51.3060 C   0  0  0  0  0  0  0  0  0  0  0  0
   35.6160   29.2300   51.6320 F   0  0  0  0  0  0  0  0  0  0  0  0
   37.5650   30.0830   52.4230 F   0  0  0  0  0  0  0  0  0  0  0  0
   37.5970   28.6570   50.7160 F   0  0  0  0  0  0  0  0  0  0  0  0
   39.0580   30.1750   42.0370 O   0  0  0  0  0  0  0  0  0  0  0  0
   39.1680   27.8560   43.0190 C   0  0  0  0  0  0  0  0  0  0  0  0
   39.0840   28.8090   42.0260 C   0  0  0  0  0  0  0  0  0  0  0  0
   39.0040   28.3450   40.7050 C   0  0  0  0  0  0  0  0  0  0  0  0
   38.9320   28.9490   39.7900 H   0  0  0  0  0  0  0  0  0  0  0  0
   39.0110   26.9820   40.4110 C   0  0  0  0  0  3  0  0  0  0  0  0
   39.0960   26.0480   41.4230 C   0  0  0  0  0  3  0  0  0  0  0  0
   39.1720   26.5140   42.7070 C   0  0  0  0  0  0  0  0  0  0  0  0
   39.2410   28.4140   44.2790 O   0  0  0  0  0  0  0  0  0  0  0  0
   39.7320   28.0050   45.0660 H   0  0  0  0  0  0  0  0  0  0  0  0
   39.2650   25.7200   43.8660 O   0  0  0  0  0  0  0  0  0  0  0  0
   38.8950   24.7640   43.8950 H   0  0  0  0  0  0  0  0  0  0  0  0
  1  6  1  1  0  0  0
  1 32  1  0  0  0  0
  1  2  1  0  0  0  0
  2  7  1  6  0  0  0
  2 15  1  0  0  0  0
  3  8  1  0  0  0  0
  3  9  1  0  0  0  0
  3  2  1  0  0  0  0
  4  3  1  0  0  0  0
  5  4  1  0  0  0  0
  5  1  1  0  0  0  0
 10  5  1  0  0  0  0
 11  5  1  0  0  0  0
 12 13  1  0  0  0  0
 12 21  1  0  0  0  0
 13 17  1  0  0  0  0
 14 13  2  0  0  0  0
 15 16  1  0  0  0  0
 15 14  1  0  0  0  0
 16 12  2  0  0  0  0
 18 14  1  0  0  0  0
 19 27  1  0  0  0  0
 20 25  1  0  0  0  0
 20 19  2  0  0  0  0
 21 20  1  0  0  0  0
 22 21  2  0  0  0  0
 22 23  1  0  0  0  0
 23 24  2  0  0  0  0
 24 19  1  0  0  0  0
 26 23  1  0  0  0  0
 27 28  1  0  0  0  0
 28 29  1  0  0  0  0
 28 30  1  0  0  0  0
 31 28  1  0  0  0  0
 33 40  1  0  0  0  0
 34 32  1  0  0  0  0
 34 33  2  0  0  0  0
 35 34  1  0  0  0  0
 36 35  1  0  0  0  0
 37 35  2  0  0  0  0
 37 38  1  0  0  0  0
 38 39  2  0  0  0  0
 39 33  1  0  0  0  0
 39 42  1  0  0  0  0
 40 41  1  0  0  0  0
 42 43  1  0  0  0  0
M  END
>  <minimizedAffinity>
-6.51905251

>  <minimizedRMSD>
0.825402558

$$$$
