
 OpenBabel03272503423D

 43 46  0  0  1  0  0  0  0  0999 V2000
   39.9400   30.7950   41.7660 C   0  0  2  0  0  0  0  0  0  0  0  0
   39.8990   32.0270   42.6970 C   0  0  1  0  0  0  0  0  0  0  0  0
   38.8340   32.8160   42.0050 C   0  0  0  0  0  0  0  0  0  0  0  0
   38.9830   32.6080   40.6550 O   0  0  0  0  0  0  0  0  0  0  0  0
   39.8400   31.5730   40.4380 C   0  0  0  0  0  0  0  0  0  0  0  0
   40.8870   30.2710   41.8470 H   0  0  0  0  0  0  0  0  0  0  0  0
   40.8500   32.5740   42.6860 H   0  0  0  0  0  0  0  0  0  0  0  0
   38.7760   33.8770   42.2920 H   0  0  0  0  0  0  0  0  0  0  0  0
   37.8290   32.3850   42.2870 H   0  0  0  0  0  0  0  0  0  0  0  0
   40.8600   32.0010   40.2920 H   0  0  0  0  0  0  0  0  0  0  0  0
   39.5590   30.9100   39.6030 H   0  0  0  0  0  0  0  0  0  0  0  0
   38.4510   31.0820   45.8430 C   0  0  0  0  0  0  0  0  0  0  0  0
   39.7690   31.0370   46.1750 C   0  0  0  0  0  0  0  0  0  0  0  0
   40.4460   31.3940   45.0000 C   0  0  0  0  0  0  0  0  0  0  0  0
   39.5510   31.6350   44.0330 N   0  0  0  0  0  0  0  0  0  0  0  0
   38.3170   31.4460   44.5420 N   0  0  0  0  0  0  0  0  0  0  0  0
   40.2450   30.7830   47.1330 H   0  0  0  0  0  0  0  0  0  0  0  0
   41.5430   31.4450   44.9620 H   0  0  0  0  0  0  0  0  0  0  0  0
   36.3500   30.6270   48.9200 C   0  0  0  0  0  0  0  0  0  0  0  0
   37.4350   30.9220   48.1050 C   0  0  0  0  0  0  0  0  0  0  0  0
   37.3470   30.7880   46.7400 C   0  0  0  0  0  0  0  0  0  0  0  0
   36.1720   30.3630   46.2330 N   0  0  0  0  0  0  0  0  0  0  0  0
   35.1120   30.0780   47.0430 C   0  0  0  0  0  0  0  0  0  0  0  0
   35.1850   30.2010   48.3560 N   0  0  0  0  0  0  0  0  0  0  0  0
   38.3930   31.2650   48.4820 H   0  0  0  0  0  0  0  0  0  0  0  0
   34.1580   29.7340   46.6450 H   0  0  0  0  0  0  0  0  0  0  0  0
   36.6020   30.8130   50.2690 O   0  0  0  0  0  0  0  0  0  0  0  0
   36.7490   29.7480   51.1920 C   0  0  0  0  0  0  0  0  0  0  0  0
   35.5220   29.2560   51.5890 F   0  0  0  0  0  0  0  0  0  0  0  0
   37.4740   30.1960   52.2660 F   0  0  0  0  0  0  0  0  0  0  0  0
   37.4750   28.7430   50.5820 F   0  0  0  0  0  0  0  0  0  0  0  0
   38.7730   30.1210   41.9800 O   0  0  0  0  0  0  0  0  0  0  0  0
   37.5150   28.0730   42.7440 C   0  0  0  0  0  0  0  0  0  0  0  0
   38.5030   28.7860   42.0960 C   0  0  0  0  0  0  0  0  0  0  0  0
   39.4620   28.0470   41.3900 C   0  0  0  0  0  0  0  0  0  0  0  0
   40.3160   28.4370   40.8190 H   0  0  0  0  0  0  0  0  0  0  0  0
   39.4190   26.6530   41.3460 C   0  0  0  0  0  3  0  0  0  0  0  0
   38.4220   25.9630   42.0010 C   0  0  0  0  0  3  0  0  0  0  0  0
   37.4920   26.6960   42.6860 C   0  0  0  0  0  0  0  0  0  0  0  0
   36.6240   28.8910   43.4060 O   0  0  0  0  0  0  0  0  0  0  0  0
   36.1330   28.6420   44.2580 H   0  0  0  0  0  0  0  0  0  0  0  0
   36.4050   26.1740   43.4130 O   0  0  0  0  0  0  0  0  0  0  0  0
   35.9870   25.2670   43.1800 H   0  0  0  0  0  0  0  0  0  0  0  0
  1  6  1  1  0  0  0
  1 32  1  0  0  0  0
  1  2  1  0  0  0  0
  2  7  1  6  0  0  0
  2 15  1  0  0  0  0
  3  9  1  0  0  0  0
  3  8  1  0  0  0  0
  3  2  1  0  0  0  0
  4  3  1  0  0  0  0
  5  4  1  0  0  0  0
  5  1  1  0  0  0  0
 10  5  1  0  0  0  0
 11  5  1  0  0  0  0
 12 13  1  0  0  0  0
 12 21  1  0  0  0  0
 13 17  1  0  0  0  0
 14 13  2  0  0  0  0
 15 16  1  0  0  0  0
 15 14  1  0  0  0  0
 16 12  2  0  0  0  0
 18 14  1  0  0  0  0
 19 27  1  0  0  0  0
 20 25  1  0  0  0  0
 20 19  2  0  0  0  0
 21 20  1  0  0  0  0
 22 21  2  0  0  0  0
 22 23  1  0  0  0  0
 23 24  2  0  0  0  0
 24 19  1  0  0  0  0
 26 23  1  0  0  0  0
 27 28  1  0  0  0  0
 28 29  1  0  0  0  0
 28 30  1  0  0  0  0
 31 28  1  0  0  0  0
 32 34  1  0  0  0  0
 33 40  1  0  0  0  0
 34 33  2  0  0  0  0
 35 34  1  0  0  0  0
 36 35  1  0  0  0  0
 37 35  2  0  0  0  0
 37 38  1  0  0  0  0
 38 39  2  0  0  0  0
 39 33  1  0  0  0  0
 39 42  1  0  0  0  0
 40 41  1  0  0  0  0
 43 42  1  0  0  0  0
M  END
>  <minimizedAffinity>
-6.0995903

>  <minimizedRMSD>
0.415290028

$$$$
