
 OpenBabel03272503413D

 43 46  0  0  1  0  0  0  0  0999 V2000
   39.9050   30.7100   41.8840 C   0  0  2  0  0  0  0  0  0  0  0  0
   39.9190   31.9640   42.7850 C   0  0  1  0  0  0  0  0  0  0  0  0
   38.8640   32.7680   42.0960 C   0  0  0  0  0  0  0  0  0  0  0  0
   38.9780   32.5230   40.7490 O   0  0  0  0  0  0  0  0  0  0  0  0
   39.8000   31.4580   40.5400 C   0  0  0  0  0  0  0  0  0  0  0  0
   40.8370   30.1600   41.9590 H   0  0  0  0  0  0  0  0  0  0  0  0
   40.8850   32.4820   42.7410 H   0  0  0  0  0  0  0  0  0  0  0  0
   38.8430   33.8370   42.3590 H   0  0  0  0  0  0  0  0  0  0  0  0
   37.8530   32.3750   42.4090 H   0  0  0  0  0  0  0  0  0  0  0  0
   40.8280   31.8520   40.3620 H   0  0  0  0  0  0  0  0  0  0  0  0
   39.4820   30.7850   39.7270 H   0  0  0  0  0  0  0  0  0  0  0  0
   38.5110   31.1130   45.9760 C   0  0  0  0  0  0  0  0  0  0  0  0
   39.8330   31.0930   46.2960 C   0  0  0  0  0  0  0  0  0  0  0  0
   40.4950   31.4170   45.1030 C   0  0  0  0  0  0  0  0  0  0  0  0
   39.5880   31.6150   44.1370 N   0  0  0  0  0  0  0  0  0  0  0  0
   38.3610   31.4300   44.6650 N   0  0  0  0  0  0  0  0  0  0  0  0
   40.3210   30.8780   47.2580 H   0  0  0  0  0  0  0  0  0  0  0  0
   41.5910   31.4780   45.0530 H   0  0  0  0  0  0  0  0  0  0  0  0
   36.4730   30.6520   49.0930 C   0  0  0  0  0  0  0  0  0  0  0  0
   37.5480   30.9260   48.2590 C   0  0  0  0  0  0  0  0  0  0  0  0
   37.4190   30.8370   46.8930 C   0  0  0  0  0  0  0  0  0  0  0  0
   36.2150   30.4770   46.4050 N   0  0  0  0  0  0  0  0  0  0  0  0
   35.1650   30.2110   47.2350 C   0  0  0  0  0  0  0  0  0  0  0  0
   35.2770   30.2910   48.5480 N   0  0  0  0  0  0  0  0  0  0  0  0
   38.5290   31.2170   48.6200 H   0  0  0  0  0  0  0  0  0  0  0  0
   34.1870   29.9190   46.8520 H   0  0  0  0  0  0  0  0  0  0  0  0
   36.7660   30.7860   50.4400 O   0  0  0  0  0  0  0  0  0  0  0  0
   36.8280   29.6940   51.3410 C   0  0  0  0  0  0  0  0  0  0  0  0
   35.5660   29.2170   51.6350 F   0  0  0  0  0  0  0  0  0  0  0  0
   37.4820   30.0980   52.4750 F   0  0  0  0  0  0  0  0  0  0  0  0
   37.5770   28.6910   50.7550 F   0  0  0  0  0  0  0  0  0  0  0  0
   38.7230   30.0760   42.1380 O   0  0  0  0  0  0  0  0  0  0  0  0
   39.2040   27.6510   42.6310 C   0  0  0  0  0  0  0  0  0  0  0  0
   38.4290   28.7630   42.3740 C   0  0  0  0  0  0  0  0  0  0  0  0
   37.0400   28.5730   42.3340 C   0  0  0  0  0  0  0  0  0  0  0  0
   36.2700   29.3330   42.1450 H   0  0  0  0  0  0  0  0  0  0  0  0
   36.4700   27.3170   42.5450 C   0  0  0  0  0  3  0  0  0  0  0  0
   37.2680   26.2220   42.7990 C   0  0  0  0  0  3  0  0  0  0  0  0
   38.6200   26.4200   42.8360 C   0  0  0  0  0  0  0  0  0  0  0  0
   40.5530   27.9430   42.6490 O   0  0  0  0  0  0  0  0  0  0  0  0
   41.2880   27.3010   42.3750 H   0  0  0  0  0  0  0  0  0  0  0  0
   39.5900   25.4290   43.0810 O   0  0  0  0  0  0  0  0  0  0  0  0
   39.3770   24.5880   43.6270 H   0  0  0  0  0  0  0  0  0  0  0  0
  1  6  1  1  0  0  0
  1 32  1  0  0  0  0
  1  2  1  0  0  0  0
  2  7  1  6  0  0  0
  2 15  1  0  0  0  0
  3  8  1  0  0  0  0
  3  9  1  0  0  0  0
  3  2  1  0  0  0  0
  4  3  1  0  0  0  0
  5  4  1  0  0  0  0
  5  1  1  0  0  0  0
 10  5  1  0  0  0  0
 11  5  1  0  0  0  0
 12 13  1  0  0  0  0
 12 21  1  0  0  0  0
 13 17  1  0  0  0  0
 14 13  2  0  0  0  0
 15 16  1  0  0  0  0
 15 14  1  0  0  0  0
 16 12  2  0  0  0  0
 18 14  1  0  0  0  0
 19 27  1  0  0  0  0
 20 25  1  0  0  0  0
 20 19  2  0  0  0  0
 21 20  1  0  0  0  0
 22 21  2  0  0  0  0
 22 23  1  0  0  0  0
 23 24  2  0  0  0  0
 24 19  1  0  0  0  0
 26 23  1  0  0  0  0
 27 28  1  0  0  0  0
 28 29  1  0  0  0  0
 28 30  1  0  0  0  0
 31 28  1  0  0  0  0
 32 34  1  0  0  0  0
 33 40  1  0  0  0  0
 33 39  1  0  0  0  0
 34 33  2  0  0  0  0
 35 34  1  0  0  0  0
 35 37  2  0  0  0  0
 36 35  1  0  0  0  0
 37 38  1  0  0  0  0
 38 39  2  0  0  0  0
 39 42  1  0  0  0  0
 41 40  1  0  0  0  0
 42 43  1  0  0  0  0
M  END
>  <minimizedAffinity>
-6.90837336

>  <minimizedRMSD>
0.536236167

$$$$
