
 OpenBabel03272503423D

 43 46  0  0  1  0  0  0  0  0999 V2000
   39.9420   30.7910   41.7650 C   0  0  2  0  0  0  0  0  0  0  0  0
   39.9000   32.0230   42.6950 C   0  0  1  0  0  0  0  0  0  0  0  0
   38.8370   32.8120   42.0020 C   0  0  0  0  0  0  0  0  0  0  0  0
   38.9860   32.6030   40.6530 O   0  0  0  0  0  0  0  0  0  0  0  0
   39.8430   31.5670   40.4370 C   0  0  0  0  0  0  0  0  0  0  0  0
   40.8880   30.2660   41.8470 H   0  0  0  0  0  0  0  0  0  0  0  0
   40.8510   32.5690   42.6840 H   0  0  0  0  0  0  0  0  0  0  0  0
   38.7780   33.8730   42.2890 H   0  0  0  0  0  0  0  0  0  0  0  0
   37.8310   32.3820   42.2840 H   0  0  0  0  0  0  0  0  0  0  0  0
   40.8620   31.9950   40.2910 H   0  0  0  0  0  0  0  0  0  0  0  0
   39.5620   30.9050   39.6020 H   0  0  0  0  0  0  0  0  0  0  0  0
   38.4500   31.0810   45.8410 C   0  0  0  0  0  0  0  0  0  0  0  0
   39.7680   31.0360   46.1740 C   0  0  0  0  0  0  0  0  0  0  0  0
   40.4460   31.3920   44.9990 C   0  0  0  0  0  0  0  0  0  0  0  0
   39.5520   31.6320   44.0320 N   0  0  0  0  0  0  0  0  0  0  0  0
   38.3170   31.4440   44.5400 N   0  0  0  0  0  0  0  0  0  0  0  0
   40.2440   30.7830   47.1330 H   0  0  0  0  0  0  0  0  0  0  0  0
   41.5430   31.4430   44.9620 H   0  0  0  0  0  0  0  0  0  0  0  0
   36.3480   30.6280   48.9170 C   0  0  0  0  0  0  0  0  0  0  0  0
   37.4330   30.9220   48.1030 C   0  0  0  0  0  0  0  0  0  0  0  0
   37.3450   30.7870   46.7370 C   0  0  0  0  0  0  0  0  0  0  0  0
   36.1700   30.3620   46.2300 N   0  0  0  0  0  0  0  0  0  0  0  0
   35.1100   30.0770   47.0400 C   0  0  0  0  0  0  0  0  0  0  0  0
   35.1830   30.2010   48.3520 N   0  0  0  0  0  0  0  0  0  0  0  0
   38.3910   31.2650   48.4800 H   0  0  0  0  0  0  0  0  0  0  0  0
   34.1570   29.7330   46.6410 H   0  0  0  0  0  0  0  0  0  0  0  0
   36.5980   30.8140   50.2660 O   0  0  0  0  0  0  0  0  0  0  0  0
   36.7480   29.7500   51.1890 C   0  0  0  0  0  0  0  0  0  0  0  0
   35.5210   29.2580   51.5890 F   0  0  0  0  0  0  0  0  0  0  0  0
   37.4750   30.1990   52.2610 F   0  0  0  0  0  0  0  0  0  0  0  0
   37.4730   28.7450   50.5780 F   0  0  0  0  0  0  0  0  0  0  0  0
   38.7730   30.1170   41.9790 O   0  0  0  0  0  0  0  0  0  0  0  0
   37.5150   28.0710   42.7420 C   0  0  0  0  0  0  0  0  0  0  0  0
   38.5030   28.7830   42.0950 C   0  0  0  0  0  0  0  0  0  0  0  0
   39.4610   28.0420   41.3900 C   0  0  0  0  0  0  0  0  0  0  0  0
   40.3160   28.4320   40.8190 H   0  0  0  0  0  0  0  0  0  0  0  0
   39.4180   26.6490   41.3470 C   0  0  0  0  0  3  0  0  0  0  0  0
   38.4200   25.9600   42.0030 C   0  0  0  0  0  3  0  0  0  0  0  0
   37.4900   26.6930   42.6870 C   0  0  0  0  0  0  0  0  0  0  0  0
   36.6230   28.8890   43.4050 O   0  0  0  0  0  0  0  0  0  0  0  0
   36.1320   28.6410   44.2570 H   0  0  0  0  0  0  0  0  0  0  0  0
   36.4020   26.1730   43.4130 O   0  0  0  0  0  0  0  0  0  0  0  0
   35.9840   25.2660   43.1810 H   0  0  0  0  0  0  0  0  0  0  0  0
  1  6  1  1  0  0  0
  1 32  1  0  0  0  0
  1  2  1  0  0  0  0
  2  7  1  6  0  0  0
  2 15  1  0  0  0  0
  3  9  1  0  0  0  0
  3  8  1  0  0  0  0
  3  2  1  0  0  0  0
  4  3  1  0  0  0  0
  5  4  1  0  0  0  0
  5  1  1  0  0  0  0
 10  5  1  0  0  0  0
 11  5  1  0  0  0  0
 12 13  1  0  0  0  0
 12 21  1  0  0  0  0
 13 17  1  0  0  0  0
 14 13  2  0  0  0  0
 15 16  1  0  0  0  0
 15 14  1  0  0  0  0
 16 12  2  0  0  0  0
 18 14  1  0  0  0  0
 19 27  1  0  0  0  0
 20 25  1  0  0  0  0
 20 19  2  0  0  0  0
 21 20  1  0  0  0  0
 22 21  2  0  0  0  0
 22 23  1  0  0  0  0
 23 24  2  0  0  0  0
 24 19  1  0  0  0  0
 26 23  1  0  0  0  0
 27 28  1  0  0  0  0
 28 29  1  0  0  0  0
 28 30  1  0  0  0  0
 31 28  1  0  0  0  0
 32 34  1  0  0  0  0
 33 40  1  0  0  0  0
 34 33  2  0  0  0  0
 35 34  1  0  0  0  0
 36 35  1  0  0  0  0
 37 35  2  0  0  0  0
 37 38  1  0  0  0  0
 38 39  2  0  0  0  0
 39 33  1  0  0  0  0
 39 42  1  0  0  0  0
 40 41  1  0  0  0  0
 43 42  1  0  0  0  0
M  END
>  <minimizedAffinity>
-6.10004568

>  <minimizedRMSD>
0.461477697

$$$$
