
 OpenBabel03272509183D

 35 37  0  0  0  0  0  0  0  0999 V2000
   38.1210   31.1900   47.7480 C   0  0  0  0  0  0  0  0  0  0  0  0
   37.1310   31.2540   48.7130 C   0  0  0  0  0  0  0  0  0  0  0  0
   37.1790   32.4060   49.5050 C   0  0  0  0  0  0  0  0  0  0  0  0
   38.1500   33.3950   49.3180 C   0  0  0  0  0  0  0  0  0  0  0  0
   39.1100   33.2340   48.3090 C   0  0  0  0  0  0  0  0  0  0  0  0
   39.0730   32.1090   47.5280 C   0  0  0  0  0  0  0  0  0  0  0  0
   36.4540   32.5710   50.2980 H   0  0  0  0  0  0  0  0  0  0  0  0
   38.1680   34.2790   49.9420 H   0  0  0  0  0  0  0  0  0  0  0  0
   39.8510   34.0200   48.1900 H   0  0  0  0  0  0  0  0  0  0  0  0
   34.9770   30.2340   48.1120 C   0  0  0  0  0  0  0  0  0  0  0  0
   36.1340   30.2460   48.9100 C   0  0  0  0  0  0  0  0  0  0  0  0
   36.2570   29.2520   49.8780 C   0  0  0  0  0  0  0  0  0  0  0  0
   35.2590   28.3340   49.9960 N   0  0  0  0  0  0  0  0  0  0  0  0
   34.1580   28.3610   49.2000 C   0  0  0  0  0  0  0  0  0  0  0  0
   34.0230   29.3050   48.2670 N   0  0  0  0  0  0  0  0  0  0  0  0
   34.9070   31.0140   47.3690 H   0  0  0  0  0  0  0  0  0  0  0  0
   33.3680   27.6240   49.3020 H   0  0  0  0  0  0  0  0  0  0  0  0
   37.4540   29.2120   50.7520 C   0  0  0  0  0  0  0  0  0  0  0  0
   38.3090   29.5100   50.1220 H   0  0  0  0  0  0  0  0  0  0  0  0
   37.5410   28.1700   51.1180 H   0  0  0  0  0  0  0  0  0  0  0  0
   37.3500   29.8660   51.6340 H   0  0  0  0  0  0  0  0  0  0  0  0
   38.1500   30.0600   46.9010 O   0  0  0  0  0  0  0  0  0  0  0  0
   37.3080   29.8540   46.3630 H   0  0  0  0  0  0  0  0  0  0  0  0
   40.0470   31.9850   46.5330 O   0  0  0  0  0  0  0  0  0  0  0  0
   38.4970   32.2500   44.5770 C   0  0  0  0  0  0  0  0  0  0  0  0
   39.5760   31.7120   45.2450 C   0  0  0  0  0  0  0  0  0  0  0  0
   40.3710   30.7550   44.6320 C   0  0  0  0  0  0  0  0  0  0  0  0
   41.2460   30.2590   45.0570 H   0  0  0  0  0  0  0  0  0  0  0  0
   40.1040   30.3140   43.3440 C   0  0  0  0  0  3  0  0  0  0  0  0
   39.0210   30.8570   42.6800 C   0  0  0  0  0  3  0  0  0  0  0  0
   38.2440   31.8020   43.2940 C   0  0  0  0  0  0  0  0  0  0  0  0
   37.8020   33.1870   45.3070 O   0  0  0  0  0  0  0  0  0  0  0  0
   37.8490   34.1780   45.1540 H   0  0  0  0  0  0  0  0  0  0  0  0
   37.1440   32.3840   42.6790 O   0  0  0  0  0  0  0  0  0  0  0  0
   37.1920   33.2380   42.1590 H   0  0  0  0  0  0  0  0  0  0  0  0
  1  2  1  0  0  0  0
  2 11  1  0  0  0  0
  2  3  2  0  0  0  0
  3  7  1  0  0  0  0
  4  3  1  0  0  0  0
  4  8  1  0  0  0  0
  5  4  2  0  0  0  0
  6  1  2  0  0  0  0
  6  5  1  0  0  0  0
  9  5  1  0  0  0  0
 10 15  2  0  0  0  0
 10 11  1  0  0  0  0
 11 12  2  0  0  0  0
 12 13  1  0  0  0  0
 12 18  1  0  0  0  0
 14 17  1  0  0  0  0
 14 13  2  0  0  0  0
 15 14  1  0  0  0  0
 16 10  1  0  0  0  0
 18 20  1  0  0  0  0
 18 21  1  0  0  0  0
 19 18  1  0  0  0  0
 22  1  1  0  0  0  0
 23 22  1  0  0  0  0
 24  6  1  0  0  0  0
 25 26  1  0  0  0  0
 25 32  1  0  0  0  0
 26 24  1  0  0  0  0
 27 28  1  0  0  0  0
 27 26  2  0  0  0  0
 29 27  1  0  0  0  0
 30 31  1  0  0  0  0
 30 29  2  0  0  0  0
 31 25  2  0  0  0  0
 33 32  1  0  0  0  0
 34 31  1  0  0  0  0
 35 34  1  0  0  0  0
M  END
>  <minimizedAffinity>
-6.52865696

>  <minimizedRMSD>
0.772132099

$$$$
