
 OpenBabel03272509183D

 35 37  0  0  0  0  0  0  0  0999 V2000
   38.0660   31.1900   47.7330 C   0  0  0  0  0  0  0  0  0  0  0  0
   37.1070   31.2650   48.7290 C   0  0  0  0  0  0  0  0  0  0  0  0
   37.1990   32.4120   49.5240 C   0  0  0  0  0  0  0  0  0  0  0  0
   38.1800   33.3850   49.3120 C   0  0  0  0  0  0  0  0  0  0  0  0
   39.1060   33.2150   48.2730 C   0  0  0  0  0  0  0  0  0  0  0  0
   39.0260   32.0950   47.4880 C   0  0  0  0  0  0  0  0  0  0  0  0
   36.5020   32.5840   50.3400 H   0  0  0  0  0  0  0  0  0  0  0  0
   38.2320   34.2660   49.9400 H   0  0  0  0  0  0  0  0  0  0  0  0
   39.8560   33.9890   48.1350 H   0  0  0  0  0  0  0  0  0  0  0  0
   34.9330   30.2660   48.1680 C   0  0  0  0  0  0  0  0  0  0  0  0
   36.1010   30.2730   48.9520 C   0  0  0  0  0  0  0  0  0  0  0  0
   36.2240   29.2890   49.9300 C   0  0  0  0  0  0  0  0  0  0  0  0
   35.2160   28.3850   50.0720 N   0  0  0  0  0  0  0  0  0  0  0  0
   34.1050   28.4170   49.2910 C   0  0  0  0  0  0  0  0  0  0  0  0
   33.9700   29.3510   48.3480 N   0  0  0  0  0  0  0  0  0  0  0  0
   34.8630   31.0380   47.4170 H   0  0  0  0  0  0  0  0  0  0  0  0
   33.3080   27.6920   49.4120 H   0  0  0  0  0  0  0  0  0  0  0  0
   37.4320   29.2450   50.7880 C   0  0  0  0  0  0  0  0  0  0  0  0
   38.2820   29.5240   50.1440 H   0  0  0  0  0  0  0  0  0  0  0  0
   37.5110   28.2060   51.1670 H   0  0  0  0  0  0  0  0  0  0  0  0
   37.3480   29.9110   51.6640 H   0  0  0  0  0  0  0  0  0  0  0  0
   38.0500   30.0650   46.8800 O   0  0  0  0  0  0  0  0  0  0  0  0
   37.1890   29.8760   46.3670 H   0  0  0  0  0  0  0  0  0  0  0  0
   39.9660   31.9610   46.4620 O   0  0  0  0  0  0  0  0  0  0  0  0
   39.9440   31.1440   44.0890 C   0  0  0  0  0  0  0  0  0  0  0  0
   39.4490   31.8460   45.1680 C   0  0  0  0  0  0  0  0  0  0  0  0
   38.2750   32.5720   45.0500 C   0  0  0  0  0  0  0  0  0  0  0  0
   37.7880   33.1630   45.8290 H   0  0  0  0  0  0  0  0  0  0  0  0
   37.5710   32.6140   43.8560 C   0  0  0  0  0  3  0  0  0  0  0  0
   38.0720   31.9090   42.7770 C   0  0  0  0  0  3  0  0  0  0  0  0
   39.2330   31.1950   42.9050 C   0  0  0  0  0  0  0  0  0  0  0  0
   41.1150   30.4710   44.3520 O   0  0  0  0  0  0  0  0  0  0  0  0
   41.1840   29.4780   44.4890 H   0  0  0  0  0  0  0  0  0  0  0  0
   39.7850   30.4680   41.8610 O   0  0  0  0  0  0  0  0  0  0  0  0
   39.5940   29.4970   41.7040 H   0  0  0  0  0  0  0  0  0  0  0  0
  1  2  1  0  0  0  0
  2 11  1  0  0  0  0
  2  3  2  0  0  0  0
  3  7  1  0  0  0  0
  4  3  1  0  0  0  0
  4  8  1  0  0  0  0
  5  4  2  0  0  0  0
  6  1  2  0  0  0  0
  6  5  1  0  0  0  0
  9  5  1  0  0  0  0
 10 15  2  0  0  0  0
 10 11  1  0  0  0  0
 11 12  2  0  0  0  0
 12 13  1  0  0  0  0
 12 18  1  0  0  0  0
 14 17  1  0  0  0  0
 14 13  2  0  0  0  0
 15 14  1  0  0  0  0
 16 10  1  0  0  0  0
 18 20  1  0  0  0  0
 18 21  1  0  0  0  0
 19 18  1  0  0  0  0
 22  1  1  0  0  0  0
 23 22  1  0  0  0  0
 24  6  1  0  0  0  0
 25 32  1  0  0  0  0
 25 26  1  0  0  0  0
 26 24  1  0  0  0  0
 27 26  2  0  0  0  0
 27 28  1  0  0  0  0
 29 27  1  0  0  0  0
 30 31  1  0  0  0  0
 30 29  2  0  0  0  0
 31 25  2  0  0  0  0
 32 33  1  0  0  0  0
 34 31  1  0  0  0  0
 35 34  1  0  0  0  0
M  END
>  <minimizedAffinity>
-6.82176304

>  <minimizedRMSD>
0.666526556

$$$$
