
 OpenBabel03272503423D

 43 46  0  0  1  0  0  0  0  0999 V2000
   39.9410   30.7950   41.7670 C   0  0  2  0  0  0  0  0  0  0  0  0
   39.8990   32.0260   42.6980 C   0  0  1  0  0  0  0  0  0  0  0  0
   38.8350   32.8150   42.0050 C   0  0  0  0  0  0  0  0  0  0  0  0
   38.9840   32.6070   40.6560 O   0  0  0  0  0  0  0  0  0  0  0  0
   39.8420   31.5720   40.4390 C   0  0  0  0  0  0  0  0  0  0  0  0
   40.8870   30.2700   41.8480 H   0  0  0  0  0  0  0  0  0  0  0  0
   40.8500   32.5730   42.6860 H   0  0  0  0  0  0  0  0  0  0  0  0
   38.7770   33.8760   42.2920 H   0  0  0  0  0  0  0  0  0  0  0  0
   37.8300   32.3850   42.2870 H   0  0  0  0  0  0  0  0  0  0  0  0
   40.8610   32.0000   40.2930 H   0  0  0  0  0  0  0  0  0  0  0  0
   39.5610   30.9100   39.6040 H   0  0  0  0  0  0  0  0  0  0  0  0
   38.4500   31.0820   45.8430 C   0  0  0  0  0  0  0  0  0  0  0  0
   39.7680   31.0370   46.1760 C   0  0  0  0  0  0  0  0  0  0  0  0
   40.4460   31.3930   45.0010 C   0  0  0  0  0  0  0  0  0  0  0  0
   39.5510   31.6350   44.0340 N   0  0  0  0  0  0  0  0  0  0  0  0
   38.3170   31.4460   44.5420 N   0  0  0  0  0  0  0  0  0  0  0  0
   40.2440   30.7830   47.1340 H   0  0  0  0  0  0  0  0  0  0  0  0
   41.5420   31.4440   44.9640 H   0  0  0  0  0  0  0  0  0  0  0  0
   36.3480   30.6270   48.9190 C   0  0  0  0  0  0  0  0  0  0  0  0
   37.4330   30.9220   48.1050 C   0  0  0  0  0  0  0  0  0  0  0  0
   37.3450   30.7880   46.7400 C   0  0  0  0  0  0  0  0  0  0  0  0
   36.1710   30.3630   46.2320 N   0  0  0  0  0  0  0  0  0  0  0  0
   35.1100   30.0770   47.0420 C   0  0  0  0  0  0  0  0  0  0  0  0
   35.1830   30.2010   48.3550 N   0  0  0  0  0  0  0  0  0  0  0  0
   38.3910   31.2650   48.4820 H   0  0  0  0  0  0  0  0  0  0  0  0
   34.1570   29.7340   46.6430 H   0  0  0  0  0  0  0  0  0  0  0  0
   36.5990   30.8130   50.2690 O   0  0  0  0  0  0  0  0  0  0  0  0
   36.7480   29.7490   51.1910 C   0  0  0  0  0  0  0  0  0  0  0  0
   35.5210   29.2560   51.5900 F   0  0  0  0  0  0  0  0  0  0  0  0
   37.4740   30.1970   52.2640 F   0  0  0  0  0  0  0  0  0  0  0  0
   37.4740   28.7440   50.5810 F   0  0  0  0  0  0  0  0  0  0  0  0
   38.7730   30.1200   41.9810 O   0  0  0  0  0  0  0  0  0  0  0  0
   37.5160   28.0730   42.7430 C   0  0  0  0  0  0  0  0  0  0  0  0
   38.5030   28.7860   42.0960 C   0  0  0  0  0  0  0  0  0  0  0  0
   39.4610   28.0460   41.3910 C   0  0  0  0  0  0  0  0  0  0  0  0
   40.3160   28.4360   40.8190 H   0  0  0  0  0  0  0  0  0  0  0  0
   39.4190   26.6530   41.3460 C   0  0  0  0  0  3  0  0  0  0  0  0
   38.4200   25.9630   42.0020 C   0  0  0  0  0  3  0  0  0  0  0  0
   37.4910   26.6950   42.6860 C   0  0  0  0  0  0  0  0  0  0  0  0
   36.6230   28.8910   43.4060 O   0  0  0  0  0  0  0  0  0  0  0  0
   36.1330   28.6420   44.2580 H   0  0  0  0  0  0  0  0  0  0  0  0
   36.4040   26.1740   43.4130 O   0  0  0  0  0  0  0  0  0  0  0  0
   35.9860   25.2670   43.1800 H   0  0  0  0  0  0  0  0  0  0  0  0
  1  6  1  1  0  0  0
  1 32  1  0  0  0  0
  1  2  1  0  0  0  0
  2  7  1  6  0  0  0
  2 15  1  0  0  0  0
  3  9  1  0  0  0  0
  3  8  1  0  0  0  0
  3  2  1  0  0  0  0
  4  3  1  0  0  0  0
  5  4  1  0  0  0  0
  5  1  1  0  0  0  0
 10  5  1  0  0  0  0
 11  5  1  0  0  0  0
 12 13  1  0  0  0  0
 12 21  1  0  0  0  0
 13 17  1  0  0  0  0
 14 13  2  0  0  0  0
 15 16  1  0  0  0  0
 15 14  1  0  0  0  0
 16 12  2  0  0  0  0
 18 14  1  0  0  0  0
 19 27  1  0  0  0  0
 20 25  1  0  0  0  0
 20 19  2  0  0  0  0
 21 20  1  0  0  0  0
 22 21  2  0  0  0  0
 22 23  1  0  0  0  0
 23 24  2  0  0  0  0
 24 19  1  0  0  0  0
 26 23  1  0  0  0  0
 27 28  1  0  0  0  0
 28 29  1  0  0  0  0
 28 30  1  0  0  0  0
 31 28  1  0  0  0  0
 32 34  1  0  0  0  0
 33 40  1  0  0  0  0
 34 33  2  0  0  0  0
 35 34  1  0  0  0  0
 36 35  1  0  0  0  0
 37 35  2  0  0  0  0
 37 38  1  0  0  0  0
 38 39  2  0  0  0  0
 39 33  1  0  0  0  0
 39 42  1  0  0  0  0
 40 41  1  0  0  0  0
 43 42  1  0  0  0  0
M  END
>  <minimizedAffinity>
-6.09952545

>  <minimizedRMSD>
0.440709233

$$$$
