
 OpenBabel03272503413D

 43 46  0  0  1  0  0  0  0  0999 V2000
   39.9050   30.7100   41.8830 C   0  0  2  0  0  0  0  0  0  0  0  0
   39.9190   31.9640   42.7840 C   0  0  1  0  0  0  0  0  0  0  0  0
   38.8640   32.7680   42.0960 C   0  0  0  0  0  0  0  0  0  0  0  0
   38.9780   32.5230   40.7480 O   0  0  0  0  0  0  0  0  0  0  0  0
   39.8000   31.4590   40.5390 C   0  0  0  0  0  0  0  0  0  0  0  0
   40.8370   30.1600   41.9570 H   0  0  0  0  0  0  0  0  0  0  0  0
   40.8850   32.4820   42.7400 H   0  0  0  0  0  0  0  0  0  0  0  0
   38.8430   33.8360   42.3580 H   0  0  0  0  0  0  0  0  0  0  0  0
   37.8530   32.3740   42.4080 H   0  0  0  0  0  0  0  0  0  0  0  0
   40.8280   31.8530   40.3610 H   0  0  0  0  0  0  0  0  0  0  0  0
   39.4820   30.7850   39.7260 H   0  0  0  0  0  0  0  0  0  0  0  0
   38.5120   31.1120   45.9750 C   0  0  0  0  0  0  0  0  0  0  0  0
   39.8340   31.0920   46.2950 C   0  0  0  0  0  0  0  0  0  0  0  0
   40.4960   31.4160   45.1020 C   0  0  0  0  0  0  0  0  0  0  0  0
   39.5890   31.6140   44.1370 N   0  0  0  0  0  0  0  0  0  0  0  0
   38.3620   31.4300   44.6640 N   0  0  0  0  0  0  0  0  0  0  0  0
   40.3220   30.8760   47.2570 H   0  0  0  0  0  0  0  0  0  0  0  0
   41.5910   31.4770   45.0520 H   0  0  0  0  0  0  0  0  0  0  0  0
   36.4740   30.6520   49.0930 C   0  0  0  0  0  0  0  0  0  0  0  0
   37.5490   30.9250   48.2580 C   0  0  0  0  0  0  0  0  0  0  0  0
   37.4200   30.8370   46.8920 C   0  0  0  0  0  0  0  0  0  0  0  0
   36.2150   30.4770   46.4050 N   0  0  0  0  0  0  0  0  0  0  0  0
   35.1650   30.2110   47.2350 C   0  0  0  0  0  0  0  0  0  0  0  0
   35.2780   30.2920   48.5480 N   0  0  0  0  0  0  0  0  0  0  0  0
   38.5300   31.2170   48.6190 H   0  0  0  0  0  0  0  0  0  0  0  0
   34.1880   29.9200   46.8520 H   0  0  0  0  0  0  0  0  0  0  0  0
   36.7680   30.7860   50.4400 O   0  0  0  0  0  0  0  0  0  0  0  0
   36.8290   29.6940   51.3400 C   0  0  0  0  0  0  0  0  0  0  0  0
   35.5670   29.2180   51.6350 F   0  0  0  0  0  0  0  0  0  0  0  0
   37.4830   30.0980   52.4750 F   0  0  0  0  0  0  0  0  0  0  0  0
   37.5770   28.6910   50.7550 F   0  0  0  0  0  0  0  0  0  0  0  0
   38.7230   30.0760   42.1370 O   0  0  0  0  0  0  0  0  0  0  0  0
   39.2040   27.6520   42.6320 C   0  0  0  0  0  0  0  0  0  0  0  0
   38.4300   28.7630   42.3740 C   0  0  0  0  0  0  0  0  0  0  0  0
   37.0410   28.5720   42.3330 C   0  0  0  0  0  0  0  0  0  0  0  0
   36.2700   29.3340   42.1430 H   0  0  0  0  0  0  0  0  0  0  0  0
   36.4710   27.3170   42.5440 C   0  0  0  0  0  3  0  0  0  0  0  0
   37.2690   26.2220   42.8000 C   0  0  0  0  0  3  0  0  0  0  0  0
   38.6200   26.4200   42.8360 C   0  0  0  0  0  0  0  0  0  0  0  0
   40.5530   27.9430   42.6500 O   0  0  0  0  0  0  0  0  0  0  0  0
   41.2880   27.3000   42.3760 H   0  0  0  0  0  0  0  0  0  0  0  0
   39.5910   25.4290   43.0810 O   0  0  0  0  0  0  0  0  0  0  0  0
   39.3770   24.5890   43.6290 H   0  0  0  0  0  0  0  0  0  0  0  0
  1  6  1  1  0  0  0
  1 32  1  0  0  0  0
  1  2  1  0  0  0  0
  2  7  1  6  0  0  0
  2 15  1  0  0  0  0
  3  8  1  0  0  0  0
  3  9  1  0  0  0  0
  3  2  1  0  0  0  0
  4  3  1  0  0  0  0
  5  4  1  0  0  0  0
  5  1  1  0  0  0  0
 10  5  1  0  0  0  0
 11  5  1  0  0  0  0
 12 13  1  0  0  0  0
 12 21  1  0  0  0  0
 13 17  1  0  0  0  0
 14 13  2  0  0  0  0
 15 16  1  0  0  0  0
 15 14  1  0  0  0  0
 16 12  2  0  0  0  0
 18 14  1  0  0  0  0
 19 27  1  0  0  0  0
 20 25  1  0  0  0  0
 20 19  2  0  0  0  0
 21 20  1  0  0  0  0
 22 21  2  0  0  0  0
 22 23  1  0  0  0  0
 23 24  2  0  0  0  0
 24 19  1  0  0  0  0
 26 23  1  0  0  0  0
 27 28  1  0  0  0  0
 28 29  1  0  0  0  0
 28 30  1  0  0  0  0
 31 28  1  0  0  0  0
 32 34  1  0  0  0  0
 33 40  1  0  0  0  0
 33 39  1  0  0  0  0
 34 33  2  0  0  0  0
 35 34  1  0  0  0  0
 35 37  2  0  0  0  0
 36 35  1  0  0  0  0
 37 38  1  0  0  0  0
 38 39  2  0  0  0  0
 39 42  1  0  0  0  0
 41 40  1  0  0  0  0
 42 43  1  0  0  0  0
M  END
>  <minimizedAffinity>
-6.90829277

>  <minimizedRMSD>
0.277929664

$$$$
