
 OpenBabel03272509183D

 35 37  0  0  0  0  0  0  0  0999 V2000
   38.1320   31.2060   47.7290 C   0  0  0  0  0  0  0  0  0  0  0  0
   37.1080   31.2570   48.6590 C   0  0  0  0  0  0  0  0  0  0  0  0
   37.1380   32.3890   49.4790 C   0  0  0  0  0  0  0  0  0  0  0  0
   38.1240   33.3720   49.3510 C   0  0  0  0  0  0  0  0  0  0  0  0
   39.1190   33.2260   48.3740 C   0  0  0  0  0  0  0  0  0  0  0  0
   39.1000   32.1210   47.5650 C   0  0  0  0  0  0  0  0  0  0  0  0
   36.3870   32.5430   50.2500 H   0  0  0  0  0  0  0  0  0  0  0  0
   38.1280   34.2420   49.9970 H   0  0  0  0  0  0  0  0  0  0  0  0
   39.8710   34.0070   48.3000 H   0  0  0  0  0  0  0  0  0  0  0  0
   34.9580   30.2870   47.9710 C   0  0  0  0  0  0  0  0  0  0  0  0
   36.0960   30.2550   48.7960 C   0  0  0  0  0  0  0  0  0  0  0  0
   36.1850   29.2250   49.7290 C   0  0  0  0  0  0  0  0  0  0  0  0
   35.1730   28.3150   49.7900 N   0  0  0  0  0  0  0  0  0  0  0  0
   34.0920   28.3850   48.9700 C   0  0  0  0  0  0  0  0  0  0  0  0
   33.9900   29.3640   48.0700 N   0  0  0  0  0  0  0  0  0  0  0  0
   34.9140   31.0940   47.2570 H   0  0  0  0  0  0  0  0  0  0  0  0
   33.2920   27.6540   49.0270 H   0  0  0  0  0  0  0  0  0  0  0  0
   37.3600   29.1380   50.6280 C   0  0  0  0  0  0  0  0  0  0  0  0
   38.2340   29.4490   50.0290 H   0  0  0  0  0  0  0  0  0  0  0  0
   37.4270   28.0820   50.9570 H   0  0  0  0  0  0  0  0  0  0  0  0
   37.2430   29.7610   51.5310 H   0  0  0  0  0  0  0  0  0  0  0  0
   38.1810   30.0960   46.8570 O   0  0  0  0  0  0  0  0  0  0  0  0
   37.3580   29.9120   46.2840 H   0  0  0  0  0  0  0  0  0  0  0  0
   40.1080   32.0110   46.6030 O   0  0  0  0  0  0  0  0  0  0  0  0
   38.5410   32.3590   44.6740 C   0  0  0  0  0  0  0  0  0  0  0  0
   39.6790   31.8720   45.2790 C   0  0  0  0  0  0  0  0  0  0  0  0
   40.5930   31.1240   44.5510 C   0  0  0  0  0  0  0  0  0  0  0  0
   41.5250   30.6880   44.9180 H   0  0  0  0  0  0  0  0  0  0  0  0
   40.3890   30.8480   43.2070 C   0  0  0  0  0  3  0  0  0  0  0  0
   39.2450   31.3400   42.6060 C   0  0  0  0  0  3  0  0  0  0  0  0
   38.3520   32.0760   43.3340 C   0  0  0  0  0  0  0  0  0  0  0  0
   37.7280   33.0820   45.5170 O   0  0  0  0  0  0  0  0  0  0  0  0
   37.6470   34.0830   45.5120 H   0  0  0  0  0  0  0  0  0  0  0  0
   37.1860   32.5970   42.7870 O   0  0  0  0  0  0  0  0  0  0  0  0
   37.1250   33.5170   42.3990 H   0  0  0  0  0  0  0  0  0  0  0  0
  1  2  1  0  0  0  0
  2 11  1  0  0  0  0
  2  3  2  0  0  0  0
  3  7  1  0  0  0  0
  4  3  1  0  0  0  0
  4  8  1  0  0  0  0
  5  4  2  0  0  0  0
  6  1  2  0  0  0  0
  6  5  1  0  0  0  0
  9  5  1  0  0  0  0
 10 15  2  0  0  0  0
 10 11  1  0  0  0  0
 11 12  2  0  0  0  0
 12 13  1  0  0  0  0
 12 18  1  0  0  0  0
 14 17  1  0  0  0  0
 14 13  2  0  0  0  0
 15 14  1  0  0  0  0
 16 10  1  0  0  0  0
 18 20  1  0  0  0  0
 18 21  1  0  0  0  0
 19 18  1  0  0  0  0
 22  1  1  0  0  0  0
 23 22  1  0  0  0  0
 24  6  1  0  0  0  0
 25 26  1  0  0  0  0
 25 32  1  0  0  0  0
 26 24  1  0  0  0  0
 27 28  1  0  0  0  0
 27 26  2  0  0  0  0
 29 27  1  0  0  0  0
 30 29  2  0  0  0  0
 30 31  1  0  0  0  0
 31 25  2  0  0  0  0
 33 32  1  0  0  0  0
 34 31  1  0  0  0  0
 35 34  1  0  0  0  0
M  END
>  <minimizedAffinity>
-6.79499149

>  <minimizedRMSD>
0.622445107

$$$$
