
 OpenBabel03272509183D

 35 37  0  0  0  0  0  0  0  0999 V2000
   38.1260   31.1850   47.9160 C   0  0  0  0  0  0  0  0  0  0  0  0
   37.2720   31.5330   48.9490 C   0  0  0  0  0  0  0  0  0  0  0  0
   37.5040   32.8060   49.4770 C   0  0  0  0  0  0  0  0  0  0  0  0
   38.5160   33.6390   48.9880 C   0  0  0  0  0  0  0  0  0  0  0  0
   39.3280   33.1920   47.9370 C   0  0  0  0  0  0  0  0  0  0  0  0
   39.1100   31.9460   47.4120 C   0  0  0  0  0  0  0  0  0  0  0  0
   36.8980   33.1930   50.2930 H   0  0  0  0  0  0  0  0  0  0  0  0
   38.6770   34.6230   49.4120 H   0  0  0  0  0  0  0  0  0  0  0  0
   40.1050   33.8630   47.5800 H   0  0  0  0  0  0  0  0  0  0  0  0
   35.0460   30.5170   48.7240 C   0  0  0  0  0  0  0  0  0  0  0  0
   36.2350   30.6850   49.4540 C   0  0  0  0  0  0  0  0  0  0  0  0
   36.3500   30.0030   50.6630 C   0  0  0  0  0  0  0  0  0  0  0  0
   35.3120   29.2190   51.0660 N   0  0  0  0  0  0  0  0  0  0  0  0
   34.1810   29.0850   50.3260 C   0  0  0  0  0  0  0  0  0  0  0  0
   34.0540   29.7310   49.1660 N   0  0  0  0  0  0  0  0  0  0  0  0
   34.9820   31.0560   47.7910 H   0  0  0  0  0  0  0  0  0  0  0  0
   33.3600   28.4570   50.6570 H   0  0  0  0  0  0  0  0  0  0  0  0
   37.5800   30.1410   51.4780 C   0  0  0  0  0  0  0  0  0  0  0  0
   38.4210   30.1950   50.7660 H   0  0  0  0  0  0  0  0  0  0  0  0
   37.6310   29.2430   52.1250 H   0  0  0  0  0  0  0  0  0  0  0  0
   37.5480   31.0250   52.1380 H   0  0  0  0  0  0  0  0  0  0  0  0
   37.9650   29.9140   47.3220 O   0  0  0  0  0  0  0  0  0  0  0  0
   37.0500   29.6910   46.9300 H   0  0  0  0  0  0  0  0  0  0  0  0
   39.9400   31.5350   46.3640 O   0  0  0  0  0  0  0  0  0  0  0  0
   39.5630   32.8310   44.2490 C   0  0  0  0  0  0  0  0  0  0  0  0
   39.4410   31.7340   45.0730 C   0  0  0  0  0  0  0  0  0  0  0  0
   38.7420   30.6140   44.6480 C   0  0  0  0  0  0  0  0  0  0  0  0
   38.5780   29.6910   45.2070 H   0  0  0  0  0  0  0  0  0  0  0  0
   38.1500   30.5690   43.3940 C   0  0  0  0  0  3  0  0  0  0  0  0
   38.2750   31.6740   42.5720 C   0  0  0  0  0  3  0  0  0  0  0  0
   38.9680   32.7720   43.0030 C   0  0  0  0  0  0  0  0  0  0  0  0
   40.2830   33.8650   44.8030 O   0  0  0  0  0  0  0  0  0  0  0  0
   41.2270   34.1030   44.5510 H   0  0  0  0  0  0  0  0  0  0  0  0
   39.1290   33.9100   42.2250 O   0  0  0  0  0  0  0  0  0  0  0  0
   39.9160   34.0590   41.6230 H   0  0  0  0  0  0  0  0  0  0  0  0
  1  2  1  0  0  0  0
  2 11  1  0  0  0  0
  2  3  2  0  0  0  0
  3  7  1  0  0  0  0
  4  8  1  0  0  0  0
  4  3  1  0  0  0  0
  5  4  2  0  0  0  0
  6  1  2  0  0  0  0
  6  5  1  0  0  0  0
  9  5  1  0  0  0  0
 10 15  2  0  0  0  0
 10 11  1  0  0  0  0
 11 12  2  0  0  0  0
 12 13  1  0  0  0  0
 12 18  1  0  0  0  0
 14 17  1  0  0  0  0
 14 13  2  0  0  0  0
 15 14  1  0  0  0  0
 16 10  1  0  0  0  0
 18 20  1  0  0  0  0
 18 21  1  0  0  0  0
 19 18  1  0  0  0  0
 22  1  1  0  0  0  0
 23 22  1  0  0  0  0
 24  6  1  0  0  0  0
 25 32  1  0  0  0  0
 25 26  1  0  0  0  0
 26 24  1  0  0  0  0
 27 26  2  0  0  0  0
 27 28  1  0  0  0  0
 29 27  1  0  0  0  0
 30 31  1  0  0  0  0
 30 29  2  0  0  0  0
 31 25  2  0  0  0  0
 33 32  1  0  0  0  0
 34 31  1  0  0  0  0
 35 34  1  0  0  0  0
M  END
>  <minimizedAffinity>
-6.35729504

>  <minimizedRMSD>
0.865585804

$$$$
