
 OpenBabel03272509183D

 35 37  0  0  0  0  0  0  0  0999 V2000
   37.9010   31.2350   48.3040 C   0  0  0  0  0  0  0  0  0  0  0  0
   37.1000   31.5690   49.3830 C   0  0  0  0  0  0  0  0  0  0  0  0
   37.3640   32.8340   49.9190 C   0  0  0  0  0  0  0  0  0  0  0  0
   38.3540   33.6710   49.3940 C   0  0  0  0  0  0  0  0  0  0  0  0
   39.1110   33.2380   48.2970 C   0  0  0  0  0  0  0  0  0  0  0  0
   38.8620   32.0000   47.7630 C   0  0  0  0  0  0  0  0  0  0  0  0
   36.8010   33.2090   50.7700 H   0  0  0  0  0  0  0  0  0  0  0  0
   38.5410   34.6470   49.8250 H   0  0  0  0  0  0  0  0  0  0  0  0
   39.8730   33.9110   47.9130 H   0  0  0  0  0  0  0  0  0  0  0  0
   34.8060   30.6900   49.3440 C   0  0  0  0  0  0  0  0  0  0  0  0
   36.0860   30.7180   49.9250 C   0  0  0  0  0  0  0  0  0  0  0  0
   36.3110   29.8960   51.0260 C   0  0  0  0  0  0  0  0  0  0  0  0
   35.2870   29.1190   51.4750 N   0  0  0  0  0  0  0  0  0  0  0  0
   34.0650   29.1240   50.8810 C   0  0  0  0  0  0  0  0  0  0  0  0
   33.8320   29.9040   49.8250 N   0  0  0  0  0  0  0  0  0  0  0  0
   34.6590   31.3360   48.4920 H   0  0  0  0  0  0  0  0  0  0  0  0
   33.2560   28.5000   51.2470 H   0  0  0  0  0  0  0  0  0  0  0  0
   37.6400   29.8820   51.6820 C   0  0  0  0  0  0  0  0  0  0  0  0
   38.3860   29.9790   50.8760 H   0  0  0  0  0  0  0  0  0  0  0  0
   37.7170   28.9130   52.2160 H   0  0  0  0  0  0  0  0  0  0  0  0
   37.7450   30.6840   52.4330 H   0  0  0  0  0  0  0  0  0  0  0  0
   37.7060   29.9750   47.6970 O   0  0  0  0  0  0  0  0  0  0  0  0
   36.7710   29.7620   47.3480 H   0  0  0  0  0  0  0  0  0  0  0  0
   39.6370   31.6040   46.6700 O   0  0  0  0  0  0  0  0  0  0  0  0
   38.1350   32.2310   44.7600 C   0  0  0  0  0  0  0  0  0  0  0  0
   39.3290   32.2090   45.4480 C   0  0  0  0  0  0  0  0  0  0  0  0
   40.4450   32.8520   44.9320 C   0  0  0  0  0  0  0  0  0  0  0  0
   41.4400   32.9030   45.3810 H   0  0  0  0  0  0  0  0  0  0  0  0
   40.3910   33.5280   43.7220 C   0  0  0  0  0  3  0  0  0  0  0  0
   39.1900   33.5480   43.0380 C   0  0  0  0  0  3  0  0  0  0  0  0
   38.0970   32.9100   43.5570 C   0  0  0  0  0  0  0  0  0  0  0  0
   37.1180   31.5530   45.3920 O   0  0  0  0  0  0  0  0  0  0  0  0
   36.3560   31.9910   45.8800 H   0  0  0  0  0  0  0  0  0  0  0  0
   36.8640   32.8930   42.9180 O   0  0  0  0  0  0  0  0  0  0  0  0
   36.1440   33.5660   43.0940 H   0  0  0  0  0  0  0  0  0  0  0  0
  1  2  1  0  0  0  0
  2  3  2  0  0  0  0
  2 11  1  0  0  0  0
  3  7  1  0  0  0  0
  4  8  1  0  0  0  0
  4  3  1  0  0  0  0
  5  4  2  0  0  0  0
  6  5  1  0  0  0  0
  6  1  2  0  0  0  0
  9  5  1  0  0  0  0
 10 15  2  0  0  0  0
 10 11  1  0  0  0  0
 11 12  2  0  0  0  0
 12 13  1  0  0  0  0
 12 18  1  0  0  0  0
 14 17  1  0  0  0  0
 14 13  2  0  0  0  0
 15 14  1  0  0  0  0
 16 10  1  0  0  0  0
 18 20  1  0  0  0  0
 18 21  1  0  0  0  0
 19 18  1  0  0  0  0
 22  1  1  0  0  0  0
 23 22  1  0  0  0  0
 24  6  1  0  0  0  0
 25 32  1  0  0  0  0
 25 26  1  0  0  0  0
 26 24  1  0  0  0  0
 27 28  1  0  0  0  0
 27 26  2  0  0  0  0
 29 27  1  0  0  0  0
 30 31  1  0  0  0  0
 30 29  2  0  0  0  0
 31 25  2  0  0  0  0
 32 33  1  0  0  0  0
 34 35  1  0  0  0  0
 34 31  1  0  0  0  0
M  END
>  <minimizedAffinity>
-6.0720706

>  <minimizedRMSD>
1.09536028

$$$$
