
 OpenBabel03272503423D

 43 46  0  0  1  0  0  0  0  0999 V2000
   39.9060   30.7090   41.8850 C   0  0  2  0  0  0  0  0  0  0  0  0
   39.9200   31.9640   42.7860 C   0  0  1  0  0  0  0  0  0  0  0  0
   38.8650   32.7670   42.0960 C   0  0  0  0  0  0  0  0  0  0  0  0
   38.9790   32.5220   40.7500 O   0  0  0  0  0  0  0  0  0  0  0  0
   39.8010   31.4570   40.5410 C   0  0  0  0  0  0  0  0  0  0  0  0
   40.8380   30.1590   41.9610 H   0  0  0  0  0  0  0  0  0  0  0  0
   40.8860   32.4820   42.7420 H   0  0  0  0  0  0  0  0  0  0  0  0
   38.8430   33.8360   42.3580 H   0  0  0  0  0  0  0  0  0  0  0  0
   37.8530   32.3740   42.4090 H   0  0  0  0  0  0  0  0  0  0  0  0
   40.8290   31.8510   40.3640 H   0  0  0  0  0  0  0  0  0  0  0  0
   39.4830   30.7830   39.7290 H   0  0  0  0  0  0  0  0  0  0  0  0
   38.5110   31.1130   45.9760 C   0  0  0  0  0  0  0  0  0  0  0  0
   39.8320   31.0960   46.2980 C   0  0  0  0  0  0  0  0  0  0  0  0
   40.4950   31.4190   45.1050 C   0  0  0  0  0  0  0  0  0  0  0  0
   39.5880   31.6150   44.1390 N   0  0  0  0  0  0  0  0  0  0  0  0
   38.3610   31.4300   44.6650 N   0  0  0  0  0  0  0  0  0  0  0  0
   40.3200   30.8810   47.2600 H   0  0  0  0  0  0  0  0  0  0  0  0
   41.5900   31.4820   45.0560 H   0  0  0  0  0  0  0  0  0  0  0  0
   36.4710   30.6510   49.0930 C   0  0  0  0  0  0  0  0  0  0  0  0
   37.5470   30.9260   48.2590 C   0  0  0  0  0  0  0  0  0  0  0  0
   37.4180   30.8370   46.8930 C   0  0  0  0  0  0  0  0  0  0  0  0
   36.2140   30.4770   46.4050 N   0  0  0  0  0  0  0  0  0  0  0  0
   35.1640   30.2110   47.2350 C   0  0  0  0  0  0  0  0  0  0  0  0
   35.2760   30.2910   48.5480 N   0  0  0  0  0  0  0  0  0  0  0  0
   38.5270   31.2180   48.6210 H   0  0  0  0  0  0  0  0  0  0  0  0
   34.1870   29.9180   46.8520 H   0  0  0  0  0  0  0  0  0  0  0  0
   36.7640   30.7860   50.4410 O   0  0  0  0  0  0  0  0  0  0  0  0
   36.8270   29.6940   51.3410 C   0  0  0  0  0  0  0  0  0  0  0  0
   35.5660   29.2160   51.6360 F   0  0  0  0  0  0  0  0  0  0  0  0
   37.4810   30.0980   52.4750 F   0  0  0  0  0  0  0  0  0  0  0  0
   37.5760   28.6910   50.7550 F   0  0  0  0  0  0  0  0  0  0  0  0
   38.7230   30.0750   42.1400 O   0  0  0  0  0  0  0  0  0  0  0  0
   39.2040   27.6500   42.6320 C   0  0  0  0  0  0  0  0  0  0  0  0
   38.4300   28.7620   42.3760 C   0  0  0  0  0  0  0  0  0  0  0  0
   37.0410   28.5720   42.3360 C   0  0  0  0  0  0  0  0  0  0  0  0
   36.2700   29.3340   42.1480 H   0  0  0  0  0  0  0  0  0  0  0  0
   36.4700   27.3170   42.5460 C   0  0  0  0  0  0  0  0  0  0  0  0
   37.2680   26.2210   42.8000 C   0  0  0  0  0  0  0  0  0  0  0  0
   38.6210   26.4180   42.8360 C   0  0  0  0  0  0  0  0  0  0  0  0
   40.5530   27.9420   42.6490 O   0  0  0  0  0  0  0  0  0  0  0  0
   41.2880   27.2990   42.3740 H   0  0  0  0  0  0  0  0  0  0  0  0
   39.5900   25.4270   43.0800 O   0  0  0  0  0  0  0  0  0  0  0  0
   39.3770   24.5870   43.6270 H   0  0  0  0  0  0  0  0  0  0  0  0
  1  6  1  1  0  0  0
  1 32  1  0  0  0  0
  1  2  1  0  0  0  0
  2  7  1  6  0  0  0
  2 15  1  0  0  0  0
  3  8  1  0  0  0  0
  3  9  1  0  0  0  0
  3  2  1  0  0  0  0
  4  3  1  0  0  0  0
  5  4  1  0  0  0  0
  5  1  1  0  0  0  0
 10  5  1  0  0  0  0
 11  5  1  0  0  0  0
 12 13  1  0  0  0  0
 12 21  1  0  0  0  0
 13 17  1  0  0  0  0
 14 13  2  0  0  0  0
 15 16  1  0  0  0  0
 15 14  1  0  0  0  0
 16 12  2  0  0  0  0
 18 14  1  0  0  0  0
 19 27  1  0  0  0  0
 20 25  1  0  0  0  0
 20 19  2  0  0  0  0
 21 20  1  0  0  0  0
 22 21  2  0  0  0  0
 22 23  1  0  0  0  0
 23 24  2  0  0  0  0
 24 19  1  0  0  0  0
 26 23  1  0  0  0  0
 27 28  1  0  0  0  0
 28 29  1  0  0  0  0
 28 30  1  0  0  0  0
 31 28  1  0  0  0  0
 32 34  1  0  0  0  0
 33 40  1  0  0  0  0
 33 39  1  0  0  0  0
 34 33  2  0  0  0  0
 35 34  1  0  0  0  0
 35 37  2  0  0  0  0
 36 35  1  0  0  0  0
 37 38  1  0  0  0  0
 38 39  2  0  0  0  0
 39 42  1  0  0  0  0
 41 40  1  0  0  0  0
 42 43  1  0  0  0  0
M  END
>  <minimizedAffinity>
-6.90925169

>  <minimizedRMSD>
0.180005714

$$$$
