
 OpenBabel03272509183D

 35 37  0  0  0  0  0  0  0  0999 V2000
   38.0640   31.1870   47.7330 C   0  0  0  0  0  0  0  0  0  0  0  0
   37.1060   31.2640   48.7290 C   0  0  0  0  0  0  0  0  0  0  0  0
   37.1980   32.4110   49.5230 C   0  0  0  0  0  0  0  0  0  0  0  0
   38.1800   33.3840   49.3100 C   0  0  0  0  0  0  0  0  0  0  0  0
   39.1050   33.2120   48.2720 C   0  0  0  0  0  0  0  0  0  0  0  0
   39.0250   32.0910   47.4880 C   0  0  0  0  0  0  0  0  0  0  0  0
   36.5010   32.5850   50.3390 H   0  0  0  0  0  0  0  0  0  0  0  0
   38.2320   34.2650   49.9380 H   0  0  0  0  0  0  0  0  0  0  0  0
   39.8560   33.9850   48.1330 H   0  0  0  0  0  0  0  0  0  0  0  0
   34.9300   30.2660   48.1700 C   0  0  0  0  0  0  0  0  0  0  0  0
   36.0980   30.2720   48.9530 C   0  0  0  0  0  0  0  0  0  0  0  0
   36.2220   29.2890   49.9310 C   0  0  0  0  0  0  0  0  0  0  0  0
   35.2130   28.3860   50.0740 N   0  0  0  0  0  0  0  0  0  0  0  0
   34.1010   28.4180   49.2930 C   0  0  0  0  0  0  0  0  0  0  0  0
   33.9660   29.3520   48.3510 N   0  0  0  0  0  0  0  0  0  0  0  0
   34.8600   31.0380   47.4190 H   0  0  0  0  0  0  0  0  0  0  0  0
   33.3030   27.6930   49.4150 H   0  0  0  0  0  0  0  0  0  0  0  0
   37.4300   29.2430   50.7880 C   0  0  0  0  0  0  0  0  0  0  0  0
   38.2800   29.5220   50.1430 H   0  0  0  0  0  0  0  0  0  0  0  0
   37.5080   28.2040   51.1670 H   0  0  0  0  0  0  0  0  0  0  0  0
   37.3470   29.9100   51.6640 H   0  0  0  0  0  0  0  0  0  0  0  0
   38.0480   30.0610   46.8810 O   0  0  0  0  0  0  0  0  0  0  0  0
   37.1870   29.8720   46.3680 H   0  0  0  0  0  0  0  0  0  0  0  0
   39.9650   31.9550   46.4620 O   0  0  0  0  0  0  0  0  0  0  0  0
   39.9450   31.1440   44.0870 C   0  0  0  0  0  0  0  0  0  0  0  0
   39.4490   31.8430   45.1680 C   0  0  0  0  0  0  0  0  0  0  0  0
   38.2750   32.5700   45.0510 C   0  0  0  0  0  0  0  0  0  0  0  0
   37.7870   33.1580   45.8300 H   0  0  0  0  0  0  0  0  0  0  0  0
   37.5710   32.6130   43.8570 C   0  0  0  0  0  3  0  0  0  0  0  0
   38.0730   31.9100   42.7760 C   0  0  0  0  0  3  0  0  0  0  0  0
   39.2330   31.1980   42.9040 C   0  0  0  0  0  0  0  0  0  0  0  0
   41.1150   30.4710   44.3500 O   0  0  0  0  0  0  0  0  0  0  0  0
   41.1850   29.4770   44.4830 H   0  0  0  0  0  0  0  0  0  0  0  0
   39.7860   30.4720   41.8580 O   0  0  0  0  0  0  0  0  0  0  0  0
   39.5950   29.5020   41.6990 H   0  0  0  0  0  0  0  0  0  0  0  0
  1  2  1  0  0  0  0
  2 11  1  0  0  0  0
  2  3  2  0  0  0  0
  3  7  1  0  0  0  0
  4  3  1  0  0  0  0
  4  8  1  0  0  0  0
  5  4  2  0  0  0  0
  6  1  2  0  0  0  0
  6  5  1  0  0  0  0
  9  5  1  0  0  0  0
 10 15  2  0  0  0  0
 10 11  1  0  0  0  0
 11 12  2  0  0  0  0
 12 13  1  0  0  0  0
 12 18  1  0  0  0  0
 14 17  1  0  0  0  0
 14 13  2  0  0  0  0
 15 14  1  0  0  0  0
 16 10  1  0  0  0  0
 18 20  1  0  0  0  0
 18 21  1  0  0  0  0
 19 18  1  0  0  0  0
 22  1  1  0  0  0  0
 23 22  1  0  0  0  0
 24  6  1  0  0  0  0
 25 32  1  0  0  0  0
 25 26  1  0  0  0  0
 26 24  1  0  0  0  0
 27 26  2  0  0  0  0
 27 28  1  0  0  0  0
 29 27  1  0  0  0  0
 30 31  1  0  0  0  0
 30 29  2  0  0  0  0
 31 25  2  0  0  0  0
 32 33  1  0  0  0  0
 34 31  1  0  0  0  0
 35 34  1  0  0  0  0
M  END
>  <minimizedAffinity>
-6.81893301

>  <minimizedRMSD>
0.563756943

$$$$
