
 OpenBabel03262522153D

 47 50  0  0  1  0  0  0  0  0999 V2000
   39.5060   32.8970   43.7990 C   0  0  0  0  0  0  0  0  0  0  0  0
   39.5000   33.7870   43.1160 H   0  0  0  0  0  0  0  0  0  0  0  0
   38.4740   32.6340   44.0570 H   0  0  0  0  0  0  0  0  0  0  0  0
   39.0460   29.7450   42.2350 C   0  0  1  0  0  0  0  0  0  0  0  0
   39.0340   31.2450   41.9870 C   0  0  0  0  0  0  0  0  0  0  0  0
   40.0460   31.7170   43.0080 C   0  0  2  0  0  0  0  0  0  0  0  0
   40.3740   30.6720   43.8090 O   0  0  0  0  0  0  0  0  0  0  0  0
   39.3650   29.7110   43.7180 C   0  0  0  0  0  0  0  0  0  0  0  0
   39.9190   29.2790   41.7160 H   0  0  0  0  0  0  0  0  0  0  0  0
   39.4000   31.4070   40.9550 H   0  0  0  0  0  0  0  0  0  0  0  0
   38.0180   31.6580   42.1460 H   0  0  0  0  0  0  0  0  0  0  0  0
   40.9540   32.0500   42.4700 H   0  0  0  0  0  0  0  0  0  0  0  0
   38.4810   29.9310   44.3410 H   0  0  0  0  0  0  0  0  0  0  0  0
   39.8280   28.7360   43.9600 H   0  0  0  0  0  0  0  0  0  0  0  0
   37.8170   29.1930   41.9490 O   0  0  0  0  0  0  0  0  0  0  0  0
   37.2580   27.0160   41.5470 C   0  0  0  0  0  0  0  0  0  0  0  0
   37.4820   28.2770   40.9830 C   0  0  0  0  0  0  0  0  0  0  0  0
   37.3510   28.4430   39.6190 C   0  0  0  0  0  0  0  0  0  0  0  0
   37.5480   29.4620   39.2910 H   0  0  0  0  0  0  0  0  0  0  0  0
   37.0030   27.3850   38.8050 C   0  0  0  0  0  3  0  0  0  0  0  0
   36.7810   26.1350   39.3710 C   0  0  0  0  0  3  0  0  0  0  0  0
   36.9040   25.9280   40.7440 C   0  0  0  0  0  0  0  0  0  0  0  0
   37.3540   26.7020   42.9030 O   0  0  0  0  0  0  0  0  0  0  0  0
   38.2350   26.7890   43.3840 H   0  0  0  0  0  0  0  0  0  0  0  0
   36.6720   24.6590   41.2580 O   0  0  0  0  0  0  0  0  0  0  0  0
   35.7430   24.4370   41.6470 H   0  0  0  0  0  0  0  0  0  0  0  0
   40.5940   33.1450   45.2270 S   0  0  0  0  0  0  0  0  0  0  0  0
   37.7710   31.7650   47.6570 C   0  0  0  0  0  0  0  0  0  0  0  0
   37.9430   32.5170   48.8320 C   0  0  0  0  0  0  0  0  0  0  0  0
   38.9310   33.4810   48.9260 C   0  0  0  0  0  0  0  0  0  0  0  0
   39.7260   33.6530   47.8150 C   0  0  0  0  0  0  0  0  0  0  0  0
   39.5470   32.9150   46.6860 C   0  0  0  0  0  0  0  0  0  0  0  0
   38.5720   31.9610   46.5840 N   0  0  0  0  0  0  0  0  0  0  0  0
   37.2990   32.3560   49.6890 H   0  0  0  0  0  0  0  0  0  0  0  0
   39.0680   34.0640   49.8270 H   0  0  0  0  0  0  0  0  0  0  0  0
   40.4990   34.3940   47.8650 H   0  0  0  0  0  0  0  0  0  0  0  0
   36.7230   30.7870   47.6440 C   0  0  0  0  0  0  0  0  0  0  0  0
   36.2560   30.3810   46.5780 O   0  0  0  0  0  0  0  0  0  0  0  0
   37.0240   29.6190   49.7970 C   0  0  0  0  0  0  0  0  0  0  0  0
   36.1560   30.2240   48.8830 C   0  0  0  0  0  0  0  0  0  0  0  0
   34.7860   30.2810   49.1670 C   0  0  0  0  0  0  0  0  0  0  0  0
   34.3440   29.7310   50.3450 N   0  0  0  0  0  0  0  0  0  0  0  0
   35.2030   29.1560   51.2020 C   0  0  0  0  0  0  0  0  0  0  0  0
   36.5180   29.0970   50.9400 N   0  0  0  0  0  0  0  0  0  0  0  0
   38.0650   29.5890   49.5560 H   0  0  0  0  0  0  0  0  0  0  0  0
   34.1180   30.7510   48.4560 H   0  0  0  0  0  0  0  0  0  0  0  0
   34.8970   28.7120   52.1400 H   0  0  0  0  0  0  0  0  0  0  0  0
  1  3  1  0  0  0  0
  1 27  1  0  0  0  0
  2  1  1  0  0  0  0
  4  9  1  6  0  0  0
  4  8  1  0  0  0  0
  5 11  1  0  0  0  0
  5  4  1  0  0  0  0
  5  6  1  0  0  0  0
  6 12  1  6  0  0  0
  6  1  1  0  0  0  0
  6  7  1  0  0  0  0
  8  7  1  0  0  0  0
  8 14  1  0  0  0  0
  8 13  1  0  0  0  0
 10  5  1  0  0  0  0
 15  4  1  0  0  0  0
 16 23  1  0  0  0  0
 17 16  1  0  0  0  0
 17 15  1  0  0  0  0
 18 17  2  0  0  0  0
 19 18  1  0  0  0  0
 20 21  2  0  0  0  0
 20 18  1  0  0  0  0
 21 22  1  0  0  0  0
 22 25  1  0  0  0  0
 22 16  2  0  0  0  0
 23 24  1  0  0  0  0
 25 26  1  0  0  0  0
 27 32  1  0  0  0  0
 28 29  1  0  0  0  0
 29 30  2  0  0  0  0
 29 34  1  0  0  0  0
 30 35  1  0  0  0  0
 31 36  1  0  0  0  0
 31 30  1  0  0  0  0
 32 31  2  0  0  0  0
 33 32  1  0  0  0  0
 33 28  2  0  0  0  0
 37 28  1  0  0  0  0
 37 40  1  0  0  0  0
 38 37  2  0  0  0  0
 39 44  1  0  0  0  0
 40 41  1  0  0  0  0
 40 39  2  0  0  0  0
 41 42  2  0  0  0  0
 42 43  1  0  0  0  0
 43 47  1  0  0  0  0
 44 43  2  0  0  0  0
 45 39  1  0  0  0  0
 46 41  1  0  0  0  0
M  END
>  <minimizedAffinity>
-5.15326309

>  <minimizedRMSD>
0.509826422

$$$$
