
 OpenBabel03272505323D

 42 45  0  0  0  0  0  0  0  0999 V2000
   37.4030   31.2420   47.0520 N   0  0  0  0  0  0  0  0  0  0  0  0
   36.6840   31.0660   45.9120 C   0  0  0  0  0  0  0  0  0  0  0  0
   37.0830   31.6110   44.6950 C   0  0  0  0  0  0  0  0  0  0  0  0
   38.2640   32.3610   44.6790 C   0  0  0  0  0  0  0  0  0  0  0  0
   38.6640   32.8710   43.6110 O   0  0  0  0  0  0  0  0  0  0  0  0
   38.9870   32.5360   45.8360 N   0  0  0  0  0  0  0  0  0  0  0  0
   38.5020   31.9640   46.9320 C   0  0  0  0  0  0  0  0  0  0  0  0
   39.1910   32.1500   47.9610 O   0  0  0  0  0  0  0  0  0  0  0  0
   35.7710   30.4850   45.9290 H   0  0  0  0  0  0  0  0  0  0  0  0
   37.4770   29.5540   50.3540 C   0  0  0  0  0  0  0  0  0  0  0  0
   37.8910   30.1070   49.1370 C   0  0  0  0  0  0  0  0  0  0  0  0
   36.9940   30.6920   48.2630 C   0  0  0  0  0  0  0  0  0  0  0  0
   35.7080   30.7000   48.6420 N   0  0  0  0  0  0  0  0  0  0  0  0
   35.2650   30.1740   49.8160 C   0  0  0  0  0  0  0  0  0  0  0  0
   36.1800   29.5980   50.6680 N   0  0  0  0  0  0  0  0  0  0  0  0
   38.2410   29.1190   50.9750 H   0  0  0  0  0  0  0  0  0  0  0  0
   38.9450   30.0800   48.8660 H   0  0  0  0  0  0  0  0  0  0  0  0
   34.2070   30.2020   50.0880 H   0  0  0  0  0  0  0  0  0  0  0  0
   36.3470   31.4480   43.4510 C   0  0  0  0  0  0  0  0  0  0  0  0
   36.5630   30.4270   42.5720 C   0  0  0  0  0  0  0  0  0  0  0  0
   35.8790   30.2500   41.3870 C   0  0  0  0  0  0  0  0  0  0  0  0
   34.8880   31.1890   41.0620 C   0  0  0  0  0  0  0  0  0  0  0  0
   34.6990   32.2080   41.9760 C   0  0  0  0  0  0  0  0  0  0  0  0
   35.4030   32.3040   43.0970 N   0  0  0  0  0  0  0  0  0  0  0  0
   37.3220   29.6750   42.7830 H   0  0  0  0  0  0  0  0  0  0  0  0
   36.0910   29.4290   40.7340 H   0  0  0  0  0  0  0  0  0  0  0  0
   34.3560   31.0650   40.1540 H   0  0  0  0  0  0  0  0  0  0  0  0
   32.7260   33.5470   42.6540 C   0  0  0  0  0  0  0  0  0  0  0  0
   33.6880   33.2250   41.7140 C   0  0  0  0  0  0  0  0  0  0  0  0
   33.5750   33.9570   40.5520 C   0  0  0  0  0  0  0  0  0  0  0  0
   34.2840   33.7750   39.7600 H   0  0  0  0  0  0  0  0  0  0  0  0
   32.6010   34.9110   40.3510 C   0  0  0  0  0  3  0  0  0  0  0  0
   31.6750   35.1760   41.3380 C   0  0  0  0  0  3  0  0  0  0  0  0
   31.7260   34.4830   42.5290 C   0  0  0  0  0  0  0  0  0  0  0  0
   32.7650   32.8490   43.8760 O   0  0  0  0  0  0  0  0  0  0  0  0
   33.3140   33.3270   44.6050 H   0  0  0  0  0  0  0  0  0  0  0  0
   30.8210   34.7070   43.5590 O   0  0  0  0  0  0  0  0  0  0  0  0
   30.6520   35.6820   43.8160 H   0  0  0  0  0  0  0  0  0  0  0  0
   40.2010   33.3090   45.8070 C   0  0  0  0  0  0  0  0  0  0  0  0
   40.1630   34.2350   44.8210 F   0  0  0  0  0  0  0  0  0  0  0  0
   41.3320   32.5440   45.5810 F   0  0  0  0  0  0  0  0  0  0  0  0
   40.3250   33.9810   47.0290 F   0  0  0  0  0  0  0  0  0  0  0  0
  1 12  1  0  0  0  0
  2  9  1  0  0  0  0
  2  1  1  0  0  0  0
  3  2  2  0  0  0  0
  4  3  1  0  0  0  0
  4  6  1  0  0  0  0
  5  4  2  0  0  0  0
  6  7  1  0  0  0  0
  7  1  1  0  0  0  0
  7  8  2  0  0  0  0
 10 15  1  0  0  0  0
 10 16  1  0  0  0  0
 11 10  2  0  0  0  0
 12 13  2  0  0  0  0
 12 11  1  0  0  0  0
 13 14  1  0  0  0  0
 14 18  1  0  0  0  0
 14 15  2  0  0  0  0
 17 11  1  0  0  0  0
 19  3  1  0  0  0  0
 20 25  1  0  0  0  0
 20 19  2  0  0  0  0
 21 20  1  0  0  0  0
 22 21  2  0  0  0  0
 22 23  1  0  0  0  0
 23 24  2  0  0  0  0
 24 19  1  0  0  0  0
 26 21  1  0  0  0  0
 27 22  1  0  0  0  0
 28 35  1  0  0  0  0
 29 23  1  0  0  0  0
 29 28  2  0  0  0  0
 30 29  1  0  0  0  0
 31 30  1  0  0  0  0
 32 30  2  0  0  0  0
 32 33  1  0  0  0  0
 33 34  2  0  0  0  0
 34 28  1  0  0  0  0
 34 37  1  0  0  0  0
 35 36  1  0  0  0  0
 37 38  1  0  0  0  0
 39  6  1  0  0  0  0
 39 42  1  0  0  0  0
 40 39  1  0  0  0  0
 41 39  1  0  0  0  0
M  END
>  <minimizedAffinity>
-7.25920582

>  <minimizedRMSD>
0.833305657

$$$$
