
 OpenBabel03272508273D

 40 43  0  0  1  0  0  0  0  0999 V2000
   32.8800   28.9470   47.0260 C   0  0  2  0  0  0  0  0  0  0  0  0
   33.7270   27.8900   47.7260 C   0  0  2  0  0  0  0  0  0  0  0  0
   32.9510   27.4300   48.7550 O   0  0  0  0  0  0  0  0  0  0  0  0
   31.6300   27.6340   48.4980 C   0  0  0  0  0  0  0  0  0  0  0  0
   31.5120   28.2630   47.1240 C   0  0  1  0  0  0  0  0  0  0  0  0
   32.8380   29.8900   47.5880 H   0  0  0  0  0  0  0  0  0  0  0  0
   33.9190   27.0870   47.0010 H   0  0  0  0  0  0  0  0  0  0  0  0
   31.0950   26.6610   48.4580 H   0  0  0  0  0  0  0  0  0  0  0  0
   31.1330   28.3380   49.2060 H   0  0  0  0  0  0  0  0  0  0  0  0
   31.4490   27.4590   46.3760 H   0  0  0  0  0  0  0  0  0  0  0  0
   34.9650   29.9040   48.7840 C   0  0  1  0  0  0  0  0  0  0  0  0
   34.9630   28.5750   48.2180 C   0  0  1  0  0  0  0  0  0  0  0  0
   35.2680   28.6890   49.6760 C   0  0  0  0  0  0  0  0  0  0  0  0
   34.1130   30.4800   49.1900 H   0  0  0  0  0  0  0  0  0  0  0  0
   35.8550   28.3260   47.5740 H   0  0  0  0  0  0  0  0  0  0  0  0
   36.3210   28.5340   50.0130 H   0  0  0  0  0  0  0  0  0  0  0  0
   34.5440   28.4110   50.4390 H   0  0  0  0  0  0  0  0  0  0  0  0
   36.1770   30.8100   48.6430 C   0  0  0  0  0  0  0  0  0  0  0  0
   36.5410   31.5750   49.7550 C   0  0  0  0  0  0  0  0  0  0  0  0
   37.6350   32.3960   49.5780 C   0  0  0  0  0  0  0  0  0  0  0  0
   38.3000   32.4380   48.3770 N   0  0  0  0  0  0  0  0  0  0  0  0
   37.9110   31.6790   47.3240 C   0  0  0  0  0  0  0  0  0  0  0  0
   36.8390   30.8580   47.4580 N   0  0  0  0  0  0  0  0  0  0  0  0
   35.9780   31.4970   50.6700 H   0  0  0  0  0  0  0  0  0  0  0  0
   37.9540   33.0080   50.4200 H   0  0  0  0  0  0  0  0  0  0  0  0
   38.4630   31.7430   46.3960 H   0  0  0  0  0  0  0  0  0  0  0  0
   33.2370   29.1730   45.7170 O   0  0  0  0  0  0  0  0  0  0  0  0
   33.1410   28.3810   45.1580 H   0  0  0  0  0  0  0  0  0  0  0  0
   30.4850   29.1510   47.0090 O   0  0  0  0  0  0  0  0  0  0  0  0
   28.3130   29.0440   47.6980 C   0  0  0  0  0  0  0  0  0  0  0  0
   29.2100   28.8480   46.6390 C   0  0  0  0  0  0  0  0  0  0  0  0
   28.6780   28.4000   45.4510 C   0  0  0  0  0  0  0  0  0  0  0  0
   29.4220   28.2730   44.6870 H   0  0  0  0  0  0  0  0  0  0  0  0
   27.3380   28.1580   45.3050 C   0  0  0  0  0  3  0  0  0  0  0  0
   26.4580   28.3500   46.3440 C   0  0  0  0  0  3  0  0  0  0  0  0
   26.9520   28.7990   47.5530 C   0  0  0  0  0  0  0  0  0  0  0  0
   28.6500   29.4890   48.9700 O   0  0  0  0  0  0  0  0  0  0  0  0
   29.0270   28.8160   49.6300 H   0  0  0  0  0  0  0  0  0  0  0  0
   26.0250   28.9740   48.5580 O   0  0  0  0  0  0  0  0  0  0  0  0
   26.0510   29.7650   49.2090 H   0  0  0  0  0  0  0  0  0  0  0  0
  1  5  1  0  0  0  0
  1  6  1  1  0  0  0
  1  2  1  0  0  0  0
  2  7  1  6  0  0  0
  2 12  1  0  0  0  0
  2  3  1  0  0  0  0
  4  3  1  0  0  0  0
  4  9  1  0  0  0  0
  5 10  1  6  0  0  0
  5  4  1  0  0  0  0
  8  4  1  0  0  0  0
 11 14  1  1  0  0  0
 11 13  1  0  0  0  0
 12 15  1  6  0  0  0
 12 11  1  0  0  0  0
 12 13  1  0  0  0  0
 13 16  1  0  0  0  0
 13 17  1  0  0  0  0
 18 11  1  0  0  0  0
 18 19  1  0  0  0  0
 19 24  1  0  0  0  0
 20 19  2  0  0  0  0
 20 25  1  0  0  0  0
 21 20  1  0  0  0  0
 22 23  1  0  0  0  0
 22 21  2  0  0  0  0
 23 18  2  0  0  0  0
 26 22  1  0  0  0  0
 27  1  1  0  0  0  0
 28 27  1  0  0  0  0
 29  5  1  0  0  0  0
 30 37  1  0  0  0  0
 31 29  1  0  0  0  0
 31 30  2  0  0  0  0
 32 31  1  0  0  0  0
 33 32  1  0  0  0  0
 34 32  2  0  0  0  0
 34 35  1  0  0  0  0
 35 36  2  0  0  0  0
 36 30  1  0  0  0  0
 36 39  1  0  0  0  0
 37 38  1  0  0  0  0
 39 40  1  0  0  0  0
M  END
>  <minimizedAffinity>
-6.01084948

>  <minimizedRMSD>
1.69923365

$$$$
