
 OpenBabel03272506473D

 44 47  0  0  1  0  0  0  0  0999 V2000
   31.6910   28.2860   47.3860 C   0  0  2  0  0  0  0  0  0  0  0  0
   32.9300   27.9950   48.1830 C   0  0  1  0  0  0  0  0  0  0  0  0
   33.1950   26.6640   48.0790 O   0  0  0  0  0  0  0  0  0  0  0  0
   32.4040   26.1090   47.0780 C   0  0  0  0  0  0  0  0  0  0  0  0
   31.8990   27.2550   46.2370 C   0  0  1  0  0  0  0  0  0  0  0  0
   30.7500   28.0520   47.8710 H   0  0  0  0  0  0  0  0  0  0  0  0
   32.8480   28.3600   49.2350 H   0  0  0  0  0  0  0  0  0  0  0  0
   31.6310   25.5390   47.6030 H   0  0  0  0  0  0  0  0  0  0  0  0
   32.9820   25.3750   46.4650 H   0  0  0  0  0  0  0  0  0  0  0  0
   32.6760   27.6400   45.5830 H   0  0  0  0  0  0  0  0  0  0  0  0
   31.7440   29.5890   46.8500 O   0  0  0  0  0  0  0  0  0  0  0  0
   31.9640   30.1760   47.6140 H   0  0  0  0  0  0  0  0  0  0  0  0
   34.3210   28.9050   47.3990 S   0  0  0  0  0  0  0  0  0  0  0  0
   36.3000   29.3330   50.8050 C   0  0  0  0  0  0  0  0  0  0  0  0
   36.9350   30.5690   50.7040 C   0  0  0  0  0  0  0  0  0  0  0  0
   36.7480   31.3030   49.5380 C   0  0  0  0  0  0  0  0  0  0  0  0
   35.9540   30.7820   48.5530 N   0  0  0  0  0  0  0  0  0  0  0  0
   35.3570   29.5770   48.6980 C   0  0  0  0  0  0  0  0  0  0  0  0
   35.5210   28.8370   49.8200 N   0  0  0  0  0  0  0  0  0  0  0  0
   36.4350   28.7490   51.7050 H   0  0  0  0  0  0  0  0  0  0  0  0
   37.5540   30.9400   51.5090 H   0  0  0  0  0  0  0  0  0  0  0  0
   37.2230   32.2610   49.4230 H   0  0  0  0  0  0  0  0  0  0  0  0
   30.7030   26.8990   45.6630 O   0  0  0  0  0  0  0  0  0  0  0  0
   29.6960   29.3370   44.3560 Cl  0  0  0  0  0  0  0  0  0  0  0  0
   28.9240   28.3590   45.5810 C   0  0  0  0  0  0  0  0  0  0  0  0
   29.4930   27.2260   46.1140 C   0  0  0  0  0  0  0  0  0  0  0  0
   28.7650   26.5150   47.0680 C   0  0  0  0  0  0  0  0  0  0  0  0
   27.5180   26.9380   47.4650 C   0  0  0  0  0  0  0  0  0  0  0  0
   26.9360   28.0760   46.9360 C   0  0  0  0  0  0  0  0  0  0  0  0
   27.6470   28.7900   45.9880 C   0  0  0  0  0  0  0  0  0  0  0  0
   29.1070   25.6140   47.5450 H   0  0  0  0  0  0  0  0  0  0  0  0
   26.8940   26.4450   48.1950 H   0  0  0  0  0  0  0  0  0  0  0  0
   25.9500   28.4340   47.2330 H   0  0  0  0  0  0  0  0  0  0  0  0
   27.0100   31.0250   46.3570 C   0  0  0  0  0  0  0  0  0  0  0  0
   27.0540   29.9980   45.4160 C   0  0  0  0  0  0  0  0  0  0  0  0
   26.5730   30.2110   44.1450 C   0  0  0  0  0  0  0  0  0  0  0  0
   26.6590   29.3470   43.5050 H   0  0  0  0  0  0  0  0  0  0  0  0
   26.0500   31.4490   43.8220 C   0  0  0  0  0  3  0  0  0  0  0  0
   25.9950   32.4780   44.7320 C   0  0  0  0  0  3  0  0  0  0  0  0
   26.4830   32.2660   46.0240 C   0  0  0  0  0  0  0  0  0  0  0  0
   27.4530   30.9640   47.6690 O   0  0  0  0  0  0  0  0  0  0  0  0
   27.0250   30.4610   48.4140 H   0  0  0  0  0  0  0  0  0  0  0  0
   26.4000   33.3430   46.8960 O   0  0  0  0  0  0  0  0  0  0  0  0
   26.3470   33.1100   47.8980 H   0  0  0  0  0  0  0  0  0  0  0  0
  1  6  1  1  0  0  0
  1  2  1  0  0  0  0
  2  7  1  1  0  0  0
  3  2  1  0  0  0  0
  4  8  1  0  0  0  0
  4  3  1  0  0  0  0
  5 10  1  6  0  0  0
  5  4  1  0  0  0  0
  5  1  1  0  0  0  0
  9  4  1  0  0  0  0
 11  1  1  0  0  0  0
 11 12  1  0  0  0  0
 13  2  1  0  0  0  0
 13 18  1  0  0  0  0
 14 20  1  0  0  0  0
 15 14  1  0  0  0  0
 15 21  1  0  0  0  0
 16 15  2  0  0  0  0
 17 18  2  0  0  0  0
 17 16  1  0  0  0  0
 18 19  1  0  0  0  0
 19 14  2  0  0  0  0
 22 16  1  0  0  0  0
 23 26  1  0  0  0  0
 23  5  1  0  0  0  0
 24 25  1  0  0  0  0
 25 30  2  0  0  0  0
 25 26  1  0  0  0  0
 26 27  2  0  0  0  0
 27 28  1  0  0  0  0
 27 31  1  0  0  0  0
 28 32  1  0  0  0  0
 29 33  1  0  0  0  0
 29 28  2  0  0  0  0
 30 29  1  0  0  0  0
 34 41  1  0  0  0  0
 35 30  1  0  0  0  0
 35 34  2  0  0  0  0
 36 35  1  0  0  0  0
 37 36  1  0  0  0  0
 38 36  2  0  0  0  0
 38 39  1  0  0  0  0
 39 40  2  0  0  0  0
 40 34  1  0  0  0  0
 40 43  1  0  0  0  0
 41 42  1  0  0  0  0
 43 44  1  0  0  0  0
M  END
>  <minimizedAffinity>
-6.12757874

>  <minimizedRMSD>
0.755274832

$$$$
