
 OpenBabel03272509223D

 48 52  0  0  0  0  0  0  0  0999 V2000
   39.7750   31.9200   46.4230 O   0  0  0  0  0  0  0  0  0  0  0  0
   39.9820   31.4440   43.9760 C   0  0  0  0  0  0  0  0  0  0  0  0
   39.3500   31.8920   45.1210 C   0  0  0  0  0  0  0  0  0  0  0  0
   38.0670   32.4150   45.0060 C   0  0  0  0  0  0  0  0  0  0  0  0
   37.4150   32.4940   43.7730 C   0  0  0  0  0  0  0  0  0  0  0  0
   36.2250   32.9270   43.3440 N   0  0  0  0  0  0  0  0  0  0  0  0
   36.1150   32.7630   42.0180 C   0  0  0  0  0  0  0  0  0  0  0  0
   37.2860   32.2010   41.5880 N   0  0  0  0  0  0  0  0  0  0  0  0
   38.0890   32.0320   42.6520 C   0  0  0  0  0  0  0  0  0  0  0  0
   39.3600   31.5130   42.7540 C   0  0  0  0  0  0  0  0  0  0  0  0
   40.9750   31.0580   44.1790 H   0  0  0  0  0  0  0  0  0  0  0  0
   37.4390   32.8080   45.8210 H   0  0  0  0  0  0  0  0  0  0  0  0
   35.4940   33.3340   43.9640 H   0  0  0  0  0  0  0  0  0  0  0  0
   35.2550   33.0320   41.4280 H   0  0  0  0  0  0  0  0  0  0  0  0
   41.0850   30.0220   41.5750 C   0  0  0  0  0  0  0  0  0  0  0  0
   40.1230   31.0100   41.6170 C   0  0  0  0  0  0  0  0  0  0  0  0
   39.7740   31.6740   40.4380 C   0  0  0  0  0  0  0  0  0  0  0  0
   39.0260   32.4710   40.3500 H   0  0  0  0  0  0  0  0  0  0  0  0
   40.3640   31.3710   39.2300 C   0  0  0  0  0  0  0  0  0  0  0  0
   41.3240   30.3770   39.2170 C   0  0  0  0  0  0  0  0  0  0  0  0
   41.6820   29.7110   40.3710 C   0  0  0  0  0  0  0  0  0  0  0  0
   41.3300   29.4520   42.8180 O   0  0  0  0  0  0  0  0  0  0  0  0
   42.0550   28.7340   42.8380 H   0  0  0  0  0  0  0  0  0  0  0  0
   42.6360   28.7050   40.4350 O   0  0  0  0  0  0  0  0  0  0  0  0
   43.4590   28.7430   39.8360 H   0  0  0  0  0  0  0  0  0  0  0  0
   38.0740   31.4050   48.0680 C   0  0  0  0  0  0  0  0  0  0  0  0
   37.2950   31.6430   49.1860 C   0  0  0  0  0  0  0  0  0  0  0  0
   37.5680   32.8680   49.7990 C   0  0  0  0  0  0  0  0  0  0  0  0
   38.5370   33.7520   49.3170 C   0  0  0  0  0  0  0  0  0  0  0  0
   39.2740   33.4020   48.1640 C   0  0  0  0  0  0  0  0  0  0  0  0
   39.0210   32.1910   47.5360 C   0  0  0  0  0  0  0  0  0  0  0  0
   37.0090   33.1590   50.6930 H   0  0  0  0  0  0  0  0  0  0  0  0
   38.7240   34.6900   49.8120 H   0  0  0  0  0  0  0  0  0  0  0  0
   40.0130   34.1050   47.8150 H   0  0  0  0  0  0  0  0  0  0  0  0
   35.0830   30.6130   49.0190 C   0  0  0  0  0  0  0  0  0  0  0  0
   36.3050   30.7460   49.6850 C   0  0  0  0  0  0  0  0  0  0  0  0
   36.5090   29.9810   50.8370 C   0  0  0  0  0  0  0  0  0  0  0  0
   35.5050   29.1530   51.2360 N   0  0  0  0  0  0  0  0  0  0  0  0
   34.3340   29.0520   50.5630 C   0  0  0  0  0  0  0  0  0  0  0  0
   34.1250   29.7770   49.4630 N   0  0  0  0  0  0  0  0  0  0  0  0
   34.8670   31.1780   48.1240 H   0  0  0  0  0  0  0  0  0  0  0  0
   33.6270   28.3610   50.9870 H   0  0  0  0  0  0  0  0  0  0  0  0
   37.7860   30.0850   51.5800 C   0  0  0  0  0  0  0  0  0  0  0  0
   37.6650   29.5470   52.5510 H   0  0  0  0  0  0  0  0  0  0  0  0
   38.6430   29.6610   51.0010 H   0  0  0  0  0  0  0  0  0  0  0  0
   38.0500   31.1540   51.7430 H   0  0  0  0  0  0  0  0  0  0  0  0
   37.8770   30.1900   47.3720 O   0  0  0  0  0  0  0  0  0  0  0  0
   37.2050   30.2110   46.6060 H   0  0  0  0  0  0  0  0  0  0  0  0
  1 31  1  0  0  0  0
  2 11  1  0  0  0  0
  2  3  1  0  0  0  0
  3  1  1  0  0  0  0
  4  3  2  0  0  0  0
  4 12  1  0  0  0  0
  5  4  1  0  0  0  0
  6  5  1  0  0  0  0
  6 13  1  0  0  0  0
  7  6  1  0  0  0  0
  8  7  2  0  0  0  0
  8  9  1  0  0  0  0
  9 10  1  0  0  0  0
  9  5  2  0  0  0  0
 10  2  2  0  0  0  0
 14  7  1  0  0  0  0
 15 16  1  0  0  0  0
 15 22  1  0  0  0  0
 16 10  1  0  0  0  0
 17 16  2  0  0  0  0
 18 17  1  0  0  0  0
 19 17  1  0  0  0  0
 20 19  2  0  0  0  0
 20 21  1  0  0  0  0
 21 24  1  0  0  0  0
 21 15  2  0  0  0  0
 22 23  1  0  0  0  0
 25 24  1  0  0  0  0
 26 27  1  0  0  0  0
 27 36  1  0  0  0  0
 27 28  2  0  0  0  0
 28 32  1  0  0  0  0
 29 28  1  0  0  0  0
 29 33  1  0  0  0  0
 30 29  2  0  0  0  0
 31 26  2  0  0  0  0
 31 30  1  0  0  0  0
 34 30  1  0  0  0  0
 35 40  2  0  0  0  0
 35 36  1  0  0  0  0
 36 37  2  0  0  0  0
 37 38  1  0  0  0  0
 37 43  1  0  0  0  0
 39 42  1  0  0  0  0
 39 38  2  0  0  0  0
 40 39  1  0  0  0  0
 41 35  1  0  0  0  0
 43 46  1  0  0  0  0
 43 44  1  0  0  0  0
 45 43  1  0  0  0  0
 47 26  1  0  0  0  0
 48 47  1  0  0  0  0
M  END
>  <minimizedAffinity>
-8.34288979

>  <minimizedRMSD>
1.29112685

$$$$
