
 OpenBabel03262521033D

 20 21  0  0  0  0  0  0  0  0999 V2000
   39.6840   23.5170   36.4470 C   0  0  0  0  0  0  0  0  0  0  0  0
   38.8940   24.6000   36.1180 C   0  0  0  0  0  0  0  0  0  0  0  0
   37.9960   24.9830   37.1130 C   0  0  0  0  0  0  0  0  0  0  0  0
   37.3620   25.8400   36.8690 H   0  0  0  0  0  0  0  0  0  0  0  0
   37.9220   24.3090   38.3380 C   0  0  0  0  0  3  0  0  0  0  0  0
   38.7620   23.2270   38.5770 C   0  0  0  0  0  3  0  0  0  0  0  0
   39.6620   22.8230   37.6100 C   0  0  0  0  0  0  0  0  0  0  0  0
   39.8140   26.4040   34.7270 C   0  0  0  0  0  0  0  0  0  0  0  0
   38.9660   25.2940   34.8660 C   0  0  0  0  0  0  0  0  0  0  0  0
   38.2110   24.9090   33.7540 C   0  0  0  0  0  0  0  0  0  0  0  0
   38.3450   25.6320   32.6020 N   0  0  0  0  0  0  0  0  0  0  0  0
   39.1770   26.6960   32.5120 C   0  0  0  0  0  0  0  0  0  0  0  0
   39.9140   27.0840   33.5770 N   0  0  0  0  0  0  0  0  0  0  0  0
   40.4110   26.7380   35.5480 H   0  0  0  0  0  0  0  0  0  0  0  0
   37.5440   24.0590   33.8150 H   0  0  0  0  0  0  0  0  0  0  0  0
   39.1490   27.1380   31.5300 H   0  0  0  0  0  0  0  0  0  0  0  0
   40.6220   23.0580   35.5030 O   0  0  0  0  0  0  0  0  0  0  0  0
   41.6220   23.2390   35.6730 H   0  0  0  0  0  0  0  0  0  0  0  0
   40.4840   21.7410   37.8820 O   0  0  0  0  0  0  0  0  0  0  0  0
   40.4410   20.9610   37.2110 H   0  0  0  0  0  0  0  0  0  0  0  0
  1  7  1  0  0  0  0
  2  1  2  0  0  0  0
  2  3  1  0  0  0  0
  3  5  2  0  0  0  0
  4  3  1  0  0  0  0
  5  6  1  0  0  0  0
  7 19  1  0  0  0  0
  7  6  2  0  0  0  0
  8  9  1  0  0  0  0
  8 14  1  0  0  0  0
  9  2  1  0  0  0  0
 10 15  1  0  0  0  0
 10  9  2  0  0  0  0
 11 10  1  0  0  0  0
 12 11  2  0  0  0  0
 12 13  1  0  0  0  0
 13  8  2  0  0  0  0
 16 12  1  0  0  0  0
 17 18  1  0  0  0  0
 17  1  1  0  0  0  0
 20 19  1  0  0  0  0
M  END
>  <minimizedAffinity>
-4.69210052

$$$$

 OpenBabel03262521033D

 20 21  0  0  0  0  0  0  0  0999 V2000
   39.7730   22.7870   37.4000 C   0  0  0  0  0  0  0  0  0  0  0  0
   40.2130   23.3730   36.2310 C   0  0  0  0  0  0  0  0  0  0  0  0
   39.4060   24.4110   35.7660 C   0  0  0  0  0  0  0  0  0  0  0  0
   39.7410   24.8870   34.8390 H   0  0  0  0  0  0  0  0  0  0  0  0
   38.2510   24.8090   36.4480 C   0  0  0  0  0  3  0  0  0  0  0  0
   37.8890   24.1560   37.6210 C   0  0  0  0  0  3  0  0  0  0  0  0
   38.6670   23.1230   38.1070 C   0  0  0  0  0  0  0  0  0  0  0  0
   41.3230   21.9730   34.5440 C   0  0  0  0  0  0  0  0  0  0  0  0
   41.3950   22.9710   35.5280 C   0  0  0  0  0  0  0  0  0  0  0  0
   42.6470   23.5410   35.7850 C   0  0  0  0  0  0  0  0  0  0  0  0
   43.7190   23.0940   35.0650 N   0  0  0  0  0  0  0  0  0  0  0  0
   43.6010   22.1280   34.1230 C   0  0  0  0  0  0  0  0  0  0  0  0
   42.4010   21.5650   33.8610 N   0  0  0  0  0  0  0  0  0  0  0  0
   40.3890   21.5070   34.3110 H   0  0  0  0  0  0  0  0  0  0  0  0
   42.7510   24.3140   36.5350 H   0  0  0  0  0  0  0  0  0  0  0  0
   44.5500   21.9070   33.6620 H   0  0  0  0  0  0  0  0  0  0  0  0
   40.5240   21.7300   37.9460 O   0  0  0  0  0  0  0  0  0  0  0  0
   41.0770   21.9050   38.7970 H   0  0  0  0  0  0  0  0  0  0  0  0
   38.2770   22.4950   39.2800 O   0  0  0  0  0  0  0  0  0  0  0  0
   38.1470   21.4750   39.2240 H   0  0  0  0  0  0  0  0  0  0  0  0
  1 17  1  0  0  0  0
  1  7  1  0  0  0  0
  2  1  2  0  0  0  0
  3  2  1  0  0  0  0
  3  5  2  0  0  0  0
  4  3  1  0  0  0  0
  5  6  1  0  0  0  0
  6  7  2  0  0  0  0
  7 19  1  0  0  0  0
  8  9  1  0  0  0  0
  9 10  2  0  0  0  0
  9  2  1  0  0  0  0
 10 15  1  0  0  0  0
 11 10  1  0  0  0  0
 12 11  2  0  0  0  0
 13 12  1  0  0  0  0
 13  8  2  0  0  0  0
 14  8  1  0  0  0  0
 16 12  1  0  0  0  0
 17 18  1  0  0  0  0
 20 19  1  0  0  0  0
M  END
>  <minimizedAffinity>
-4.62865734

$$$$

 OpenBabel03262521033D

 20 21  0  0  0  0  0  0  0  0999 V2000
   39.7340   23.3980   36.3990 C   0  0  0  0  0  0  0  0  0  0  0  0
   38.9320   24.4480   35.9990 C   0  0  0  0  0  0  0  0  0  0  0  0
   38.0400   24.8960   36.9730 C   0  0  0  0  0  0  0  0  0  0  0  0
   37.3970   25.7290   36.6730 H   0  0  0  0  0  0  0  0  0  0  0  0
   37.9820   24.3130   38.2440 C   0  0  0  0  0  3  0  0  0  0  0  0
   38.8320   23.2570   38.5530 C   0  0  0  0  0  3  0  0  0  0  0  0
   39.7270   22.7900   37.6090 C   0  0  0  0  0  0  0  0  0  0  0  0
   38.1340   24.5990   33.6810 C   0  0  0  0  0  0  0  0  0  0  0  0
   38.9870   25.0490   34.7000 C   0  0  0  0  0  0  0  0  0  0  0  0
   39.8740   26.0870   34.3950 C   0  0  0  0  0  0  0  0  0  0  0  0
   39.8550   26.5990   33.1280 N   0  0  0  0  0  0  0  0  0  0  0  0
   39.0120   26.1340   32.1750 C   0  0  0  0  0  0  0  0  0  0  0  0
   38.1490   25.1310   32.4510 N   0  0  0  0  0  0  0  0  0  0  0  0
   37.4390   23.8080   33.8640 H   0  0  0  0  0  0  0  0  0  0  0  0
   40.5500   26.4670   35.1490 H   0  0  0  0  0  0  0  0  0  0  0  0
   39.1410   26.6580   31.2430 H   0  0  0  0  0  0  0  0  0  0  0  0
   40.6660   22.8780   35.4820 O   0  0  0  0  0  0  0  0  0  0  0  0
   41.6660   23.0780   35.6290 H   0  0  0  0  0  0  0  0  0  0  0  0
   40.5600   21.7360   37.9520 O   0  0  0  0  0  0  0  0  0  0  0  0
   40.5170   20.9090   37.3400 H   0  0  0  0  0  0  0  0  0  0  0  0
  1  7  1  0  0  0  0
  2  1  2  0  0  0  0
  2  3  1  0  0  0  0
  3  5  2  0  0  0  0
  4  3  1  0  0  0  0
  5  6  1  0  0  0  0
  7 19  1  0  0  0  0
  7  6  2  0  0  0  0
  8 14  1  0  0  0  0
  8  9  1  0  0  0  0
  9  2  1  0  0  0  0
 10  9  2  0  0  0  0
 10 15  1  0  0  0  0
 11 10  1  0  0  0  0
 12 13  1  0  0  0  0
 12 11  2  0  0  0  0
 13  8  2  0  0  0  0
 16 12  1  0  0  0  0
 17 18  1  0  0  0  0
 17  1  1  0  0  0  0
 20 19  1  0  0  0  0
M  END
>  <minimizedAffinity>
-4.5960083

$$$$

 OpenBabel03262521033D

 20 21  0  0  0  0  0  0  0  0999 V2000
   38.7260   23.7980   36.8940 C   0  0  0  0  0  0  0  0  0  0  0  0
   39.2960   24.2490   35.7210 C   0  0  0  0  0  0  0  0  0  0  0  0
   40.6020   23.8060   35.5070 C   0  0  0  0  0  0  0  0  0  0  0  0
   41.0700   24.1550   34.5810 H   0  0  0  0  0  0  0  0  0  0  0  0
   41.2570   22.9740   36.4210 C   0  0  0  0  0  3  0  0  0  0  0  0
   40.5970   22.5720   37.5780 C   0  0  0  0  0  3  0  0  0  0  0  0
   39.3030   22.9940   37.8180 C   0  0  0  0  0  0  0  0  0  0  0  0
   37.9110   24.5410   33.7130 C   0  0  0  0  0  0  0  0  0  0  0  0
   38.6310   25.1000   34.7810 C   0  0  0  0  0  0  0  0  0  0  0  0
   38.6690   26.4950   34.8790 C   0  0  0  0  0  0  0  0  0  0  0  0
   38.0030   27.2260   33.9350 N   0  0  0  0  0  0  0  0  0  0  0  0
   37.3200   26.6430   32.9220 C   0  0  0  0  0  0  0  0  0  0  0  0
   37.2730   25.2970   32.8100 N   0  0  0  0  0  0  0  0  0  0  0  0
   37.8520   23.4800   33.5950 H   0  0  0  0  0  0  0  0  0  0  0  0
   39.2120   26.9710   35.6850 H   0  0  0  0  0  0  0  0  0  0  0  0
   36.8620   27.3770   32.2800 H   0  0  0  0  0  0  0  0  0  0  0  0
   37.4090   24.1920   37.1950 O   0  0  0  0  0  0  0  0  0  0  0  0
   36.6540   23.4950   37.1140 H   0  0  0  0  0  0  0  0  0  0  0  0
   38.6760   22.5730   38.9800 O   0  0  0  0  0  0  0  0  0  0  0  0
   38.3170   23.3180   39.5950 H   0  0  0  0  0  0  0  0  0  0  0  0
  1 17  1  0  0  0  0
  1  7  1  0  0  0  0
  2  1  2  0  0  0  0
  3  2  1  0  0  0  0
  3  5  2  0  0  0  0
  4  3  1  0  0  0  0
  5  6  1  0  0  0  0
  6  7  2  0  0  0  0
  7 19  1  0  0  0  0
  8  9  1  0  0  0  0
  9 10  2  0  0  0  0
  9  2  1  0  0  0  0
 10 15  1  0  0  0  0
 11 10  1  0  0  0  0
 12 11  2  0  0  0  0
 13 12  1  0  0  0  0
 13  8  2  0  0  0  0
 14  8  1  0  0  0  0
 16 12  1  0  0  0  0
 18 17  1  0  0  0  0
 19 20  1  0  0  0  0
M  END
>  <minimizedAffinity>
-4.5726428

$$$$

 OpenBabel03262521033D

 20 21  0  0  0  0  0  0  0  0999 V2000
   37.7940   25.2940   34.2030 C   0  0  0  0  0  0  0  0  0  0  0  0
   38.4640   25.4380   35.4010 C   0  0  0  0  0  0  0  0  0  0  0  0
   38.3910   26.7170   35.9540 C   0  0  0  0  0  0  0  0  0  0  0  0
   38.9170   26.8480   36.9050 H   0  0  0  0  0  0  0  0  0  0  0  0
   37.6890   27.7520   35.3260 C   0  0  0  0  0  3  0  0  0  0  0  0
   37.0450   27.5080   34.1180 C   0  0  0  0  0  3  0  0  0  0  0  0
   37.0990   26.2530   33.5450 C   0  0  0  0  0  0  0  0  0  0  0  0
   40.4230   23.9620   35.5410 C   0  0  0  0  0  0  0  0  0  0  0  0
   39.1840   24.3830   36.0490 C   0  0  0  0  0  0  0  0  0  0  0  0
   38.6960   23.7370   37.1900 C   0  0  0  0  0  0  0  0  0  0  0  0
   39.4530   22.7400   37.7400 N   0  0  0  0  0  0  0  0  0  0  0  0
   40.6450   22.3680   37.2150 C   0  0  0  0  0  0  0  0  0  0  0  0
   41.1320   22.9790   36.1130 N   0  0  0  0  0  0  0  0  0  0  0  0
   40.8380   24.4240   34.6710 H   0  0  0  0  0  0  0  0  0  0  0  0
   37.7460   24.0280   37.6180 H   0  0  0  0  0  0  0  0  0  0  0  0
   41.0940   21.5690   37.7820 H   0  0  0  0  0  0  0  0  0  0  0  0
   37.8130   24.0380   33.5700 O   0  0  0  0  0  0  0  0  0  0  0  0
   36.9530   23.4700   33.5760 H   0  0  0  0  0  0  0  0  0  0  0  0
   36.4450   26.0460   32.3410 O   0  0  0  0  0  0  0  0  0  0  0  0
   37.0240   25.6860   31.5680 H   0  0  0  0  0  0  0  0  0  0  0  0
  1  2  1  0  0  0  0
  2  3  2  0  0  0  0
  2  9  1  0  0  0  0
  3  4  1  0  0  0  0
  5  3  1  0  0  0  0
  6  5  2  0  0  0  0
  7  6  1  0  0  0  0
  7  1  2  0  0  0  0
  8  9  2  0  0  0  0
  8 13  1  0  0  0  0
  9 10  1  0  0  0  0
 10 15  1  0  0  0  0
 10 11  2  0  0  0  0
 12 11  1  0  0  0  0
 12 16  1  0  0  0  0
 13 12  2  0  0  0  0
 14  8  1  0  0  0  0
 17 18  1  0  0  0  0
 17  1  1  0  0  0  0
 19  7  1  0  0  0  0
 20 19  1  0  0  0  0
M  END
>  <minimizedAffinity>
-4.29488945

$$$$

 OpenBabel03262521033D

 20 21  0  0  0  0  0  0  0  0999 V2000
   35.0100   31.3020   35.8960 C   0  0  0  0  0  0  0  0  0  0  0  0
   34.5330   30.3920   34.9740 C   0  0  0  0  0  0  0  0  0  0  0  0
   33.1950   30.0400   35.1500 C   0  0  0  0  0  0  0  0  0  0  0  0
   32.8000   29.3200   34.4270 H   0  0  0  0  0  0  0  0  0  0  0  0
   32.4210   30.5780   36.1840 C   0  0  0  0  0  3  0  0  0  0  0  0
   32.9940   31.4890   37.0650 C   0  0  0  0  0  3  0  0  0  0  0  0
   34.3170   31.8580   36.9170 C   0  0  0  0  0  0  0  0  0  0  0  0
   35.4050   30.5050   32.6800 C   0  0  0  0  0  0  0  0  0  0  0  0
   35.3200   29.8380   33.9120 C   0  0  0  0  0  0  0  0  0  0  0  0
   36.0200   28.6350   34.0510 C   0  0  0  0  0  0  0  0  0  0  0  0
   36.7440   28.1840   32.9830 N   0  0  0  0  0  0  0  0  0  0  0  0
   36.7990   28.8620   31.8120 C   0  0  0  0  0  0  0  0  0  0  0  0
   36.1280   30.0250   31.6590 N   0  0  0  0  0  0  0  0  0  0  0  0
   34.8880   31.4270   32.5240 H   0  0  0  0  0  0  0  0  0  0  0  0
   35.9830   28.0870   34.9830 H   0  0  0  0  0  0  0  0  0  0  0  0
   37.4160   28.3540   31.0900 H   0  0  0  0  0  0  0  0  0  0  0  0
   36.3510   31.7170   35.7970 O   0  0  0  0  0  0  0  0  0  0  0  0
   36.5480   32.6710   35.4600 H   0  0  0  0  0  0  0  0  0  0  0  0
   34.8540   32.7700   37.8130 O   0  0  0  0  0  0  0  0  0  0  0  0
   35.6960   32.4610   38.3200 H   0  0  0  0  0  0  0  0  0  0  0  0
  1  7  1  0  0  0  0
  2  3  1  0  0  0  0
  2  1  2  0  0  0  0
  3  5  2  0  0  0  0
  4  3  1  0  0  0  0
  5  6  1  0  0  0  0
  7  6  2  0  0  0  0
  7 19  1  0  0  0  0
  8  9  1  0  0  0  0
  9 10  2  0  0  0  0
  9  2  1  0  0  0  0
 10 15  1  0  0  0  0
 11 10  1  0  0  0  0
 12 11  2  0  0  0  0
 13 12  1  0  0  0  0
 13  8  2  0  0  0  0
 14  8  1  0  0  0  0
 16 12  1  0  0  0  0
 17  1  1  0  0  0  0
 18 17  1  0  0  0  0
 19 20  1  0  0  0  0
M  END
>  <minimizedAffinity>
-4.29448557

$$$$

 OpenBabel03262521033D

 20 21  0  0  0  0  0  0  0  0999 V2000
   36.3980   28.6050   30.5320 C   0  0  0  0  0  0  0  0  0  0  0  0
   36.1160   27.8290   31.6380 C   0  0  0  0  0  0  0  0  0  0  0  0
   35.7770   28.5540   32.7800 C   0  0  0  0  0  0  0  0  0  0  0  0
   35.5500   27.9540   33.6670 H   0  0  0  0  0  0  0  0  0  0  0  0
   35.7310   29.9520   32.7790 C   0  0  0  0  0  3  0  0  0  0  0  0
   36.0320   30.6470   31.6130 C   0  0  0  0  0  3  0  0  0  0  0  0
   36.3730   29.9580   30.4650 C   0  0  0  0  0  0  0  0  0  0  0  0
   37.2270   25.7300   32.2680 C   0  0  0  0  0  0  0  0  0  0  0  0
   36.1600   26.3970   31.6450 C   0  0  0  0  0  0  0  0  0  0  0  0
   35.1670   25.6160   31.0440 C   0  0  0  0  0  0  0  0  0  0  0  0
   35.2940   24.2570   31.1010 N   0  0  0  0  0  0  0  0  0  0  0  0
   36.3410   23.6560   31.7150 C   0  0  0  0  0  0  0  0  0  0  0  0
   37.3100   24.3940   32.3000 N   0  0  0  0  0  0  0  0  0  0  0  0
   38.0110   26.2830   32.7410 H   0  0  0  0  0  0  0  0  0  0  0  0
   34.3260   26.0870   30.5520 H   0  0  0  0  0  0  0  0  0  0  0  0
   36.2700   22.5830   31.6580 H   0  0  0  0  0  0  0  0  0  0  0  0
   36.7510   27.9610   29.3310 O   0  0  0  0  0  0  0  0  0  0  0  0
   36.0680   27.9470   28.5600 H   0  0  0  0  0  0  0  0  0  0  0  0
   36.6650   30.6830   29.3200 O   0  0  0  0  0  0  0  0  0  0  0  0
   37.5860   30.5030   28.8950 H   0  0  0  0  0  0  0  0  0  0  0  0
  1  2  1  0  0  0  0
  2  9  1  0  0  0  0
  2  3  2  0  0  0  0
  3  4  1  0  0  0  0
  5  3  1  0  0  0  0
  6  5  2  0  0  0  0
  7  1  2  0  0  0  0
  7  6  1  0  0  0  0
  8 13  1  0  0  0  0
  8 14  1  0  0  0  0
  9  8  2  0  0  0  0
 10 11  2  0  0  0  0
 10  9  1  0  0  0  0
 11 12  1  0  0  0  0
 12 13  2  0  0  0  0
 15 10  1  0  0  0  0
 16 12  1  0  0  0  0
 17  1  1  0  0  0  0
 18 17  1  0  0  0  0
 19  7  1  0  0  0  0
 20 19  1  0  0  0  0
M  END
>  <minimizedAffinity>
-4.27983475

$$$$

 OpenBabel03262521033D

 20 21  0  0  0  0  0  0  0  0999 V2000
   37.0360   21.7530   35.7460 C   0  0  0  0  0  0  0  0  0  0  0  0
   37.8930   22.0880   34.7180 C   0  0  0  0  0  0  0  0  0  0  0  0
   37.5170   21.5950   33.4690 C   0  0  0  0  0  0  0  0  0  0  0  0
   38.1860   21.8520   32.6420 H   0  0  0  0  0  0  0  0  0  0  0  0
   36.3600   20.8270   33.2980 C   0  0  0  0  0  3  0  0  0  0  0  0
   35.5580   20.5410   34.3980 C   0  0  0  0  0  3  0  0  0  0  0  0
   35.9040   21.0150   35.6490 C   0  0  0  0  0  0  0  0  0  0  0  0
   40.3050   22.2470   35.1600 C   0  0  0  0  0  0  0  0  0  0  0  0
   39.0790   22.8740   34.8870 C   0  0  0  0  0  0  0  0  0  0  0  0
   39.0690   24.2700   34.7900 C   0  0  0  0  0  0  0  0  0  0  0  0
   40.2500   24.9360   34.9660 N   0  0  0  0  0  0  0  0  0  0  0  0
   41.4100   24.2890   35.2270 C   0  0  0  0  0  0  0  0  0  0  0  0
   41.4390   22.9410   35.3250 N   0  0  0  0  0  0  0  0  0  0  0  0
   40.3640   21.1840   35.2440 H   0  0  0  0  0  0  0  0  0  0  0  0
   38.1470   24.7960   34.5810 H   0  0  0  0  0  0  0  0  0  0  0  0
   42.2320   24.9780   35.3340 H   0  0  0  0  0  0  0  0  0  0  0  0
   37.3340   22.2060   37.0450 O   0  0  0  0  0  0  0  0  0  0  0  0
   36.7620   22.9630   37.4460 H   0  0  0  0  0  0  0  0  0  0  0  0
   35.0810   20.7120   36.7220 O   0  0  0  0  0  0  0  0  0  0  0  0
   35.5330   20.2370   37.5170 H   0  0  0  0  0  0  0  0  0  0  0  0
  1 17  1  0  0  0  0
  2  9  1  0  0  0  0
  2  1  2  0  0  0  0
  3  2  1  0  0  0  0
  4  3  1  0  0  0  0
  5  3  2  0  0  0  0
  5  6  1  0  0  0  0
  6  7  2  0  0  0  0
  7  1  1  0  0  0  0
  7 19  1  0  0  0  0
  8 14  1  0  0  0  0
  8 13  1  0  0  0  0
  9  8  2  0  0  0  0
 10  9  1  0  0  0  0
 10 11  2  0  0  0  0
 11 12  1  0  0  0  0
 12 13  2  0  0  0  0
 12 16  1  0  0  0  0
 15 10  1  0  0  0  0
 17 18  1  0  0  0  0
 19 20  1  0  0  0  0
M  END
>  <minimizedAffinity>
-4.1613183

$$$$

 OpenBabel03262521033D

 20 21  0  0  0  0  0  0  0  0999 V2000
   35.5170   30.0790   32.5690 C   0  0  0  0  0  0  0  0  0  0  0  0
   35.5850   29.7190   33.9000 C   0  0  0  0  0  0  0  0  0  0  0  0
   36.2300   28.5060   34.1380 C   0  0  0  0  0  0  0  0  0  0  0  0
   36.2930   28.2060   35.1890 H   0  0  0  0  0  0  0  0  0  0  0  0
   36.7570   27.7350   33.0960 C   0  0  0  0  0  3  0  0  0  0  0  0
   36.6390   28.1820   31.7850 C   0  0  0  0  0  3  0  0  0  0  0  0
   36.0050   29.3800   31.5160 C   0  0  0  0  0  0  0  0  0  0  0  0
   33.6810   30.4270   35.2830 C   0  0  0  0  0  0  0  0  0  0  0  0
   35.0480   30.5040   34.9710 C   0  0  0  0  0  0  0  0  0  0  0  0
   35.8410   31.3660   35.7370 C   0  0  0  0  0  0  0  0  0  0  0  0
   35.2400   32.0750   36.7390 N   0  0  0  0  0  0  0  0  0  0  0  0
   33.9170   31.9670   37.0040 C   0  0  0  0  0  0  0  0  0  0  0  0
   33.1350   31.1420   36.2750 N   0  0  0  0  0  0  0  0  0  0  0  0
   33.0340   29.7840   34.7260 H   0  0  0  0  0  0  0  0  0  0  0  0
   36.9000   31.4580   35.5330 H   0  0  0  0  0  0  0  0  0  0  0  0
   33.6260   32.6000   37.8260 H   0  0  0  0  0  0  0  0  0  0  0  0
   34.8840   31.2890   32.2320 O   0  0  0  0  0  0  0  0  0  0  0  0
   35.4660   32.0830   31.9280 H   0  0  0  0  0  0  0  0  0  0  0  0
   35.9060   29.7950   30.1980 O   0  0  0  0  0  0  0  0  0  0  0  0
   34.9540   29.9870   29.8560 H   0  0  0  0  0  0  0  0  0  0  0  0
  1  2  1  0  0  0  0
  2  3  2  0  0  0  0
  2  9  1  0  0  0  0
  3  4  1  0  0  0  0
  5  3  1  0  0  0  0
  6  5  2  0  0  0  0
  7  6  1  0  0  0  0
  7  1  2  0  0  0  0
  8 13  1  0  0  0  0
  9  8  2  0  0  0  0
  9 10  1  0  0  0  0
 10 11  2  0  0  0  0
 11 12  1  0  0  0  0
 12 16  1  0  0  0  0
 13 12  2  0  0  0  0
 14  8  1  0  0  0  0
 15 10  1  0  0  0  0
 17  1  1  0  0  0  0
 18 17  1  0  0  0  0
 19  7  1  0  0  0  0
 20 19  1  0  0  0  0
M  END
>  <minimizedAffinity>
-4.15910482

$$$$
