
 OpenBabel03272508053D

 37 40  0  0  0  0  0  0  0  0999 V2000
   38.8400   31.0090   45.7810 C   0  0  0  0  0  0  0  0  0  0  0  0
   39.9400   31.8280   45.9890 C   0  0  0  0  0  0  0  0  0  0  0  0
   40.7870   31.7820   44.8890 C   0  0  0  0  0  0  0  0  0  0  0  0
   40.1550   30.9260   44.0540 N   0  0  0  0  0  0  0  0  0  0  0  0
   39.0190   30.4710   44.5660 N   0  0  0  0  0  0  0  0  0  0  0  0
   40.1470   32.4320   46.8660 H   0  0  0  0  0  0  0  0  0  0  0  0
   41.7110   32.2650   44.6810 H   0  0  0  0  0  0  0  0  0  0  0  0
   37.7450   30.8030   46.7070 C   0  0  0  0  0  0  0  0  0  0  0  0
   37.9740   31.0080   48.0950 C   0  0  0  0  0  0  0  0  0  0  0  0
   36.8960   30.8020   48.9560 C   0  0  0  0  0  0  0  0  0  0  0  0
   35.7020   30.4220   48.4270 N   0  0  0  0  0  0  0  0  0  0  0  0
   35.5130   30.2330   47.1010 C   0  0  0  0  0  0  0  0  0  0  0  0
   36.5440   30.4280   46.2530 N   0  0  0  0  0  0  0  0  0  0  0  0
   38.9180   31.3080   48.4900 H   0  0  0  0  0  0  0  0  0  0  0  0
   34.5400   29.9300   46.7420 H   0  0  0  0  0  0  0  0  0  0  0  0
   37.1150   31.0120   50.4170 C   0  0  0  0  0  0  0  0  0  0  0  0
   36.5970   32.2590   50.6880 F   0  0  0  0  0  0  0  0  0  0  0  0
   36.4370   30.0790   51.1860 F   0  0  0  0  0  0  0  0  0  0  0  0
   38.4580   31.0170   50.7450 F   0  0  0  0  0  0  0  0  0  0  0  0
   40.5730   30.4830   42.7190 C   0  0  0  0  0  0  0  0  0  0  0  0
   40.2010   31.1840   41.5630 C   0  0  0  0  0  0  0  0  0  0  0  0
   40.6090   30.7460   40.3500 C   0  0  0  0  0  0  0  0  0  0  0  0
   41.4090   29.5780   40.2830 C   0  0  0  0  0  0  0  0  0  0  0  0
   41.5710   29.1030   42.0670 S   0  0  0  0  0  0  0  0  0  0  0  0
   39.5840   32.0880   41.5890 H   0  0  0  0  0  0  0  0  0  0  0  0
   40.4300   31.1410   39.3700 H   0  0  0  0  0  0  0  0  0  0  0  0
   41.5150   27.5670   38.9790 C   0  0  0  0  0  0  0  0  0  0  0  0
   42.0200   28.8160   39.2610 C   0  0  0  0  0  0  0  0  0  0  0  0
   43.0860   29.4030   38.6240 C   0  0  0  0  0  0  0  0  0  0  0  0
   43.4470   30.3790   38.8750 H   0  0  0  0  0  0  0  0  0  0  0  0
   43.7240   28.6850   37.6040 C   0  0  0  0  0  3  0  0  0  0  0  0
   43.2470   27.4090   37.2810 C   0  0  0  0  0  3  0  0  0  0  0  0
   42.1550   26.8540   37.9600 C   0  0  0  0  0  0  0  0  0  0  0  0
   40.4380   26.9770   39.6240 O   0  0  0  0  0  0  0  0  0  0  0  0
   39.4740   27.1550   39.4030 H   0  0  0  0  0  0  0  0  0  0  0  0
   41.6740   25.5880   37.6480 O   0  0  0  0  0  0  0  0  0  0  0  0
   41.2100   25.4700   36.7500 H   0  0  0  0  0  0  0  0  0  0  0  0
  1  2  1  0  0  0  0
  1  8  1  0  0  0  0
  2  6  1  0  0  0  0
  3  2  2  0  0  0  0
  4  5  1  0  0  0  0
  4  3  1  0  0  0  0
  5  1  2  0  0  0  0
  7  3  1  0  0  0  0
  8  9  1  0  0  0  0
  9 14  1  0  0  0  0
  9 10  2  0  0  0  0
 10 16  1  0  0  0  0
 11 10  1  0  0  0  0
 12 11  2  0  0  0  0
 13  8  2  0  0  0  0
 13 12  1  0  0  0  0
 15 12  1  0  0  0  0
 16 17  1  0  0  0  0
 16 19  1  0  0  0  0
 16 18  1  0  0  0  0
 20  4  1  0  0  0  0
 21 25  1  0  0  0  0
 21 20  2  0  0  0  0
 22 21  1  0  0  0  0
 23 22  2  0  0  0  0
 23 24  1  0  0  0  0
 24 20  1  0  0  0  0
 26 22  1  0  0  0  0
 27 28  1  0  0  0  0
 27 34  1  0  0  0  0
 28 23  1  0  0  0  0
 29 30  1  0  0  0  0
 29 28  2  0  0  0  0
 31 29  1  0  0  0  0
 32 31  2  0  0  0  0
 32 33  1  0  0  0  0
 33 27  2  0  0  0  0
 35 34  1  0  0  0  0
 36 33  1  0  0  0  0
 37 36  1  0  0  0  0
M  END
>  <minimizedAffinity>
-6.50652409

>  <minimizedRMSD>
0.663318515

$$$$
