
 OpenBabel03272509153D

 49 52  0  0  1  0  0  0  0  0999 V2000
   34.9400   29.9590   46.6280 C   0  0  0  0  0  0  0  0  0  0  0  0
   36.2410   30.5130   46.6960 C   0  0  0  0  0  0  0  0  0  0  0  0
   36.9340   30.6910   45.5030 C   0  0  0  0  0  0  0  0  0  0  0  0
   36.3360   30.3270   44.3370 N   0  0  0  0  0  0  0  0  0  0  0  0
   35.0970   29.8020   44.3080 C   0  0  0  0  0  0  0  0  0  0  0  0
   34.4060   29.6190   45.4330 N   0  0  0  0  0  0  0  0  0  0  0  0
   34.3330   29.8000   47.4900 H   0  0  0  0  0  0  0  0  0  0  0  0
   34.5880   29.4990   43.3920 H   0  0  0  0  0  0  0  0  0  0  0  0
   36.7140   30.8190   48.0270 N   0  0  0  0  0  0  0  0  0  0  0  0
   37.2330   31.9240   48.7800 C   0  0  0  0  0  0  0  0  0  0  0  0
   38.4790   31.3670   49.3940 C   0  0  0  0  0  0  0  0  0  0  0  0
   38.1170   29.9010   49.6590 C   0  0  0  0  0  0  0  0  0  0  0  0
   36.7560   29.7530   49.0680 C   0  0  1  0  0  0  0  0  0  0  0  0
   37.2490   32.9060   48.3620 H   0  0  0  0  0  0  0  0  0  0  0  0
   36.5150   32.0240   49.6550 H   0  0  0  0  0  0  0  0  0  0  0  0
   38.7630   31.8910   50.3330 H   0  0  0  0  0  0  0  0  0  0  0  0
   39.3420   31.3500   48.7300 H   0  0  0  0  0  0  0  0  0  0  0  0
   38.8750   29.2000   49.2980 H   0  0  0  0  0  0  0  0  0  0  0  0
   38.0420   29.7520   50.7690 H   0  0  0  0  0  0  0  0  0  0  0  0
   36.5170   28.7840   48.6410 H   0  0  0  0  0  0  0  0  0  0  0  0
   34.6670   29.2480   50.3140 C   0  0  0  0  0  0  0  0  0  0  0  0
   34.3460   28.2200   49.6310 O   0  0  0  0  0  0  0  0  0  0  0  0
   35.7750   30.1240   50.0860 N   0  0  0  0  0  0  0  0  0  0  0  0
   33.8800   29.2100   51.0450 H   0  0  0  0  0  0  0  0  0  0  0  0
   35.5750   30.8670   50.7810 H   0  0  0  0  0  0  0  0  0  0  0  0
   38.2600   31.2470   45.4560 C   0  0  0  0  0  0  0  0  0  0  0  0
   38.4730   32.4440   46.0760 C   0  0  0  0  0  0  0  0  0  0  0  0
   39.7110   33.0570   46.1140 C   0  0  0  0  0  0  0  0  0  0  0  0
   40.7730   32.4090   45.4850 C   0  0  0  0  0  0  0  0  0  0  0  0
   40.6190   31.1990   44.8400 C   0  0  0  0  0  0  0  0  0  0  0  0
   39.3300   30.6520   44.8530 C   0  0  0  0  0  0  0  0  0  0  0  0
   37.7770   33.1030   46.5610 H   0  0  0  0  0  0  0  0  0  0  0  0
   40.0140   33.9710   46.5600 H   0  0  0  0  0  0  0  0  0  0  0  0
   41.7920   32.7910   45.4500 H   0  0  0  0  0  0  0  0  0  0  0  0
   41.4410   30.6910   44.3460 H   0  0  0  0  0  0  0  0  0  0  0  0
   39.1420   29.3600   44.1570 C   0  0  0  0  0  0  0  0  0  0  0  0
   38.0780   28.9930   44.3210 H   0  0  0  0  0  0  0  0  0  0  0  0
   39.7890   28.5880   44.6350 H   0  0  0  0  0  0  0  0  0  0  0  0
   40.4270   29.0490   41.9630 C   0  0  0  0  0  0  0  0  0  0  0  0
   39.3050   29.3900   42.6910 C   0  0  0  0  0  0  0  0  0  0  0  0
   38.1890   29.7950   41.9450 C   0  0  0  0  0  0  0  0  0  0  0  0
   37.2860   30.0720   42.4610 H   0  0  0  0  0  0  0  0  0  0  0  0
   38.1870   29.8580   40.5570 C   0  0  0  0  0  3  0  0  0  0  0  0
   39.2920   29.5220   39.8260 C   0  0  0  0  0  3  0  0  0  0  0  0
   40.3890   29.1240   40.5670 C   0  0  0  0  0  0  0  0  0  0  0  0
   41.5210   28.6510   42.6910 O   0  0  0  0  0  0  0  0  0  0  0  0
   41.9900   27.7750   42.6130 H   0  0  0  0  0  0  0  0  0  0  0  0
   41.5330   28.7740   39.8510 O   0  0  0  0  0  0  0  0  0  0  0  0
   41.4880   28.3210   38.9420 H   0  0  0  0  0  0  0  0  0  0  0  0
  1  2  1  0  0  0  0
  1  7  1  0  0  0  0
  2  9  1  0  0  0  0
  3  2  2  0  0  0  0
  4  3  1  0  0  0  0
  5  4  2  0  0  0  0
  5  6  1  0  0  0  0
  6  1  2  0  0  0  0
  8  5  1  0  0  0  0
  9 10  1  0  0  0  0
  9 13  1  0  0  0  0
 10 11  1  0  0  0  0
 10 15  1  0  0  0  0
 11 12  1  0  0  0  0
 11 16  1  0  0  0  0
 12 19  1  0  0  0  0
 13 20  1  6  0  0  0
 13 12  1  0  0  0  0
 13 23  1  0  0  0  0
 14 10  1  0  0  0  0
 17 11  1  0  0  0  0
 18 12  1  0  0  0  0
 21 24  1  0  0  0  0
 22 21  2  0  0  0  0
 23 21  1  0  0  0  0
 23 25  1  0  0  0  0
 26  3  1  0  0  0  0
 26 27  1  0  0  0  0
 27 28  2  0  0  0  0
 27 32  1  0  0  0  0
 28 33  1  0  0  0  0
 29 28  1  0  0  0  0
 30 31  1  0  0  0  0
 30 29  2  0  0  0  0
 31 26  2  0  0  0  0
 34 29  1  0  0  0  0
 35 30  1  0  0  0  0
 36 37  1  0  0  0  0
 36 38  1  0  0  0  0
 36 31  1  0  0  0  0
 39 40  1  0  0  0  0
 39 46  1  0  0  0  0
 40 36  1  0  0  0  0
 41 42  1  0  0  0  0
 41 40  2  0  0  0  0
 43 41  1  0  0  0  0
 44 43  2  0  0  0  0
 44 45  1  0  0  0  0
 45 39  2  0  0  0  0
 47 46  1  0  0  0  0
 48 45  1  0  0  0  0
 49 48  1  0  0  0  0
M  END
>  <minimizedAffinity>
-6.50005102

>  <minimizedRMSD>
1.17342973

$$$$
