
 OpenBabel03272506493D

 44 47  0  0  1  0  0  0  0  0999 V2000
   37.8350   24.7700   31.4500 C   0  0  2  0  0  0  0  0  0  0  0  0
   37.6540   23.4080   32.0560 C   0  0  1  0  0  0  0  0  0  0  0  0
   37.7490   23.5330   33.4080 O   0  0  0  0  0  0  0  0  0  0  0  0
   37.7100   24.8790   33.7550 C   0  0  0  0  0  0  0  0  0  0  0  0
   37.1540   25.6200   32.5640 C   0  0  1  0  0  0  0  0  0  0  0  0
   38.8590   25.1130   31.3550 H   0  0  0  0  0  0  0  0  0  0  0  0
   38.3550   22.6570   31.6200 H   0  0  0  0  0  0  0  0  0  0  0  0
   38.7370   25.1380   34.0280 H   0  0  0  0  0  0  0  0  0  0  0  0
   37.0860   25.0450   34.6670 H   0  0  0  0  0  0  0  0  0  0  0  0
   36.0800   25.4820   32.4760 H   0  0  0  0  0  0  0  0  0  0  0  0
   37.0860   24.8850   30.2610 O   0  0  0  0  0  0  0  0  0  0  0  0
   37.3270   24.0910   29.7240 H   0  0  0  0  0  0  0  0  0  0  0  0
   35.9470   22.8500   31.6650 S   0  0  0  0  0  0  0  0  0  0  0  0
   36.3240   19.0050   30.7840 C   0  0  0  0  0  0  0  0  0  0  0  0
   35.8490   18.3260   31.9050 C   0  0  0  0  0  0  0  0  0  0  0  0
   35.3930   19.0840   32.9780 C   0  0  0  0  0  0  0  0  0  0  0  0
   35.4320   20.4480   32.8850 N   0  0  0  0  0  0  0  0  0  0  0  0
   35.9010   21.0610   31.7750 C   0  0  0  0  0  0  0  0  0  0  0  0
   36.3530   20.3530   30.7130 N   0  0  0  0  0  0  0  0  0  0  0  0
   36.6820   18.4320   29.9400 H   0  0  0  0  0  0  0  0  0  0  0  0
   35.8380   17.2450   31.9330 H   0  0  0  0  0  0  0  0  0  0  0  0
   35.0200   18.5950   33.8610 H   0  0  0  0  0  0  0  0  0  0  0  0
   37.6320   26.9070   32.5720 O   0  0  0  0  0  0  0  0  0  0  0  0
   36.8420   28.1690   35.1120 Cl  0  0  0  0  0  0  0  0  0  0  0  0
   36.4750   28.6800   33.4810 C   0  0  0  0  0  0  0  0  0  0  0  0
   36.9120   28.0090   32.3630 C   0  0  0  0  0  0  0  0  0  0  0  0
   36.5750   28.5310   31.1140 C   0  0  0  0  0  0  0  0  0  0  0  0
   35.8260   29.6790   31.0070 C   0  0  0  0  0  0  0  0  0  0  0  0
   35.3820   30.3620   32.1250 C   0  0  0  0  0  0  0  0  0  0  0  0
   35.7090   29.8560   33.3700 C   0  0  0  0  0  0  0  0  0  0  0  0
   36.8680   28.0950   30.1760 H   0  0  0  0  0  0  0  0  0  0  0  0
   35.5250   30.1450   30.0800 H   0  0  0  0  0  0  0  0  0  0  0  0
   34.7870   31.2740   32.0680 H   0  0  0  0  0  0  0  0  0  0  0  0
   33.9290   30.2230   34.8640 C   0  0  0  0  0  0  0  0  0  0  0  0
   35.2490   30.5580   34.5670 C   0  0  0  0  0  0  0  0  0  0  0  0
   35.9290   31.4470   35.3680 C   0  0  0  0  0  0  0  0  0  0  0  0
   36.9400   31.6290   35.0400 H   0  0  0  0  0  0  0  0  0  0  0  0
   35.2850   31.9940   36.4620 C   0  0  0  0  0  3  0  0  0  0  0  0
   33.9840   31.6790   36.7760 C   0  0  0  0  0  3  0  0  0  0  0  0
   33.2900   30.7780   35.9650 C   0  0  0  0  0  0  0  0  0  0  0  0
   33.1190   29.3490   34.1560 O   0  0  0  0  0  0  0  0  0  0  0  0
   32.7220   29.5090   33.2580 H   0  0  0  0  0  0  0  0  0  0  0  0
   31.9820   30.5010   36.3340 O   0  0  0  0  0  0  0  0  0  0  0  0
   31.3500   30.2070   35.5750 H   0  0  0  0  0  0  0  0  0  0  0  0
  1  6  1  6  0  0  0
  1  2  1  0  0  0  0
  1  5  1  0  0  0  0
  2  7  1  6  0  0  0
  2  3  1  0  0  0  0
  3  4  1  0  0  0  0
  4  8  1  0  0  0  0
  4  9  1  0  0  0  0
  5 10  1  6  0  0  0
  5 23  1  0  0  0  0
  5  4  1  0  0  0  0
 11  1  1  0  0  0  0
 12 11  1  0  0  0  0
 13 18  1  0  0  0  0
 13  2  1  0  0  0  0
 14 15  1  0  0  0  0
 15 21  1  0  0  0  0
 15 16  2  0  0  0  0
 16 22  1  0  0  0  0
 17 16  1  0  0  0  0
 18 17  2  0  0  0  0
 19 14  2  0  0  0  0
 19 18  1  0  0  0  0
 20 14  1  0  0  0  0
 25 24  1  0  0  0  0
 26 23  1  0  0  0  0
 26 25  2  0  0  0  0
 27 26  1  0  0  0  0
 28 27  2  0  0  0  0
 28 29  1  0  0  0  0
 29 30  2  0  0  0  0
 30 25  1  0  0  0  0
 30 35  1  0  0  0  0
 31 27  1  0  0  0  0
 32 28  1  0  0  0  0
 33 29  1  0  0  0  0
 34 40  1  0  0  0  0
 35 34  2  0  0  0  0
 35 36  1  0  0  0  0
 36 38  2  0  0  0  0
 37 36  1  0  0  0  0
 38 39  1  0  0  0  0
 40 43  1  0  0  0  0
 40 39  2  0  0  0  0
 41 34  1  0  0  0  0
 42 41  1  0  0  0  0
 44 43  1  0  0  0  0
M  END
>  <minimizedAffinity>
-6.47480297

$$$$

 OpenBabel03272506493D

 44 47  0  0  1  0  0  0  0  0999 V2000
   37.1120   28.0040   32.9470 C   0  0  2  0  0  0  0  0  0  0  0  0
   36.1970   29.0750   32.4260 C   0  0  1  0  0  0  0  0  0  0  0  0
   35.9430   28.8110   31.1150 O   0  0  0  0  0  0  0  0  0  0  0  0
   36.3880   27.5300   30.8040 C   0  0  0  0  0  0  0  0  0  0  0  0
   36.5740   26.8030   32.1130 C   0  0  1  0  0  0  0  0  0  0  0  0
   38.1640   28.1230   32.7100 H   0  0  0  0  0  0  0  0  0  0  0  0
   36.6010   30.0990   32.6120 H   0  0  0  0  0  0  0  0  0  0  0  0
   37.3000   27.6750   30.2160 H   0  0  0  0  0  0  0  0  0  0  0  0
   35.6620   26.9990   30.1400 H   0  0  0  0  0  0  0  0  0  0  0  0
   35.6210   26.5040   32.5390 H   0  0  0  0  0  0  0  0  0  0  0  0
   36.8630   27.7630   34.3130 O   0  0  0  0  0  0  0  0  0  0  0  0
   36.8840   28.6530   34.7420 H   0  0  0  0  0  0  0  0  0  0  0  0
   34.6100   28.9410   33.3410 S   0  0  0  0  0  0  0  0  0  0  0  0
   35.8490   31.5690   36.0370 C   0  0  0  0  0  0  0  0  0  0  0  0
   34.6970   31.9660   36.7140 C   0  0  0  0  0  0  0  0  0  0  0  0
   33.4870   31.4020   36.3250 C   0  0  0  0  0  0  0  0  0  0  0  0
   33.4840   30.4910   35.3050 N   0  0  0  0  0  0  0  0  0  0  0  0
   34.6280   30.1360   34.6780 C   0  0  0  0  0  0  0  0  0  0  0  0
   35.8220   30.6670   35.0320 N   0  0  0  0  0  0  0  0  0  0  0  0
   36.7980   31.9980   36.3260 H   0  0  0  0  0  0  0  0  0  0  0  0
   34.7490   32.6900   37.5150 H   0  0  0  0  0  0  0  0  0  0  0  0
   32.5770   31.6840   36.8240 H   0  0  0  0  0  0  0  0  0  0  0  0
   37.5330   25.8330   31.9560 O   0  0  0  0  0  0  0  0  0  0  0  0
   39.4910   25.4530   34.1230 Cl  0  0  0  0  0  0  0  0  0  0  0  0
   38.3600   24.2970   33.4600 C   0  0  0  0  0  0  0  0  0  0  0  0
   37.4800   24.5960   32.4460 C   0  0  0  0  0  0  0  0  0  0  0  0
   36.6080   23.5930   32.0200 C   0  0  0  0  0  0  0  0  0  0  0  0
   36.6330   22.3440   32.5960 C   0  0  0  0  0  0  0  0  0  0  0  0
   37.5140   22.0330   33.6150 C   0  0  0  0  0  0  0  0  0  0  0  0
   38.3830   23.0180   34.0480 C   0  0  0  0  0  0  0  0  0  0  0  0
   35.8760   23.7170   31.2430 H   0  0  0  0  0  0  0  0  0  0  0  0
   35.9930   21.5180   32.3220 H   0  0  0  0  0  0  0  0  0  0  0  0
   37.5550   21.0510   34.0880 H   0  0  0  0  0  0  0  0  0  0  0  0
   38.7440   22.9290   36.3710 C   0  0  0  0  0  0  0  0  0  0  0  0
   39.3260   22.7120   35.1230 C   0  0  0  0  0  0  0  0  0  0  0  0
   40.6270   22.2700   35.0390 C   0  0  0  0  0  0  0  0  0  0  0  0
   40.9680   22.1400   34.0240 H   0  0  0  0  0  0  0  0  0  0  0  0
   41.3360   22.0460   36.2040 C   0  0  0  0  0  3  0  0  0  0  0  0
   40.7850   22.2510   37.4460 C   0  0  0  0  0  3  0  0  0  0  0  0
   39.4660   22.7000   37.5360 C   0  0  0  0  0  0  0  0  0  0  0  0
   37.4530   23.3700   36.6150 O   0  0  0  0  0  0  0  0  0  0  0  0
   37.1040   24.2880   36.4570 H   0  0  0  0  0  0  0  0  0  0  0  0
   38.9660   22.8890   38.8160 O   0  0  0  0  0  0  0  0  0  0  0  0
   38.2100   23.5810   38.9100 H   0  0  0  0  0  0  0  0  0  0  0  0
  1  6  1  6  0  0  0
  1 11  1  0  0  0  0
  2  7  1  1  0  0  0
  2  1  1  0  0  0  0
  2 13  1  0  0  0  0
  3  2  1  0  0  0  0
  4  3  1  0  0  0  0
  4  5  1  0  0  0  0
  5 10  1  1  0  0  0
  5  1  1  0  0  0  0
  8  4  1  0  0  0  0
  9  4  1  0  0  0  0
 11 12  1  0  0  0  0
 13 18  1  0  0  0  0
 14 20  1  0  0  0  0
 14 15  1  0  0  0  0
 15 21  1  0  0  0  0
 16 15  2  0  0  0  0
 16 22  1  0  0  0  0
 17 16  1  0  0  0  0
 18 19  1  0  0  0  0
 18 17  2  0  0  0  0
 19 14  2  0  0  0  0
 23  5  1  0  0  0  0
 23 26  1  0  0  0  0
 25 30  1  0  0  0  0
 25 24  1  0  0  0  0
 26 25  2  0  0  0  0
 27 26  1  0  0  0  0
 27 28  2  0  0  0  0
 28 29  1  0  0  0  0
 29 30  2  0  0  0  0
 29 33  1  0  0  0  0
 30 35  1  0  0  0  0
 31 27  1  0  0  0  0
 32 28  1  0  0  0  0
 34 41  1  0  0  0  0
 34 40  1  0  0  0  0
 35 34  2  0  0  0  0
 36 35  1  0  0  0  0
 36 38  2  0  0  0  0
 37 36  1  0  0  0  0
 38 39  1  0  0  0  0
 39 40  2  0  0  0  0
 40 43  1  0  0  0  0
 42 41  1  0  0  0  0
 43 44  1  0  0  0  0
M  END
>  <minimizedAffinity>
-6.39814138

$$$$

 OpenBabel03272506493D

 44 47  0  0  1  0  0  0  0  0999 V2000
   37.0020   26.1760   30.7550 C   0  0  2  0  0  0  0  0  0  0  0  0
   37.2550   24.7200   31.0200 C   0  0  1  0  0  0  0  0  0  0  0  0
   38.0280   24.6230   32.1360 O   0  0  0  0  0  0  0  0  0  0  0  0
   38.0810   25.8580   32.7740 C   0  0  0  0  0  0  0  0  0  0  0  0
   36.9390   26.6800   32.2280 C   0  0  1  0  0  0  0  0  0  0  0  0
   37.8030   26.7130   30.2580 H   0  0  0  0  0  0  0  0  0  0  0  0
   37.6800   24.1980   30.1280 H   0  0  0  0  0  0  0  0  0  0  0  0
   39.0810   26.2500   32.5640 H   0  0  0  0  0  0  0  0  0  0  0  0
   38.0090   25.7450   33.8840 H   0  0  0  0  0  0  0  0  0  0  0  0
   35.9870   26.3640   32.6460 H   0  0  0  0  0  0  0  0  0  0  0  0
   35.7400   26.3560   30.1530 O   0  0  0  0  0  0  0  0  0  0  0  0
   35.7220   25.7270   29.3920 H   0  0  0  0  0  0  0  0  0  0  0  0
   35.6360   23.9340   31.3910 S   0  0  0  0  0  0  0  0  0  0  0  0
   37.1040   20.2580   31.2050 C   0  0  0  0  0  0  0  0  0  0  0  0
   36.3710   19.5260   32.1370 C   0  0  0  0  0  0  0  0  0  0  0  0
   35.3830   20.1920   32.8550 C   0  0  0  0  0  0  0  0  0  0  0  0
   35.1780   21.5220   32.6130 N   0  0  0  0  0  0  0  0  0  0  0  0
   35.9150   22.1900   31.6970 C   0  0  0  0  0  0  0  0  0  0  0  0
   36.8840   21.5710   30.9830 N   0  0  0  0  0  0  0  0  0  0  0  0
   37.8760   19.7560   30.6380 H   0  0  0  0  0  0  0  0  0  0  0  0
   36.5690   18.4750   32.2940 H   0  0  0  0  0  0  0  0  0  0  0  0
   34.7970   19.6590   33.5840 H   0  0  0  0  0  0  0  0  0  0  0  0
   37.2620   28.0120   32.3150 O   0  0  0  0  0  0  0  0  0  0  0  0
   35.9330   28.3560   34.9200 Cl  0  0  0  0  0  0  0  0  0  0  0  0
   35.7080   29.2780   33.4510 C   0  0  0  0  0  0  0  0  0  0  0  0
   36.4000   29.0270   32.2890 C   0  0  0  0  0  0  0  0  0  0  0  0
   36.1510   29.8500   31.1890 C   0  0  0  0  0  0  0  0  0  0  0  0
   35.2390   30.8760   31.2680 C   0  0  0  0  0  0  0  0  0  0  0  0
   34.5380   31.1360   32.4310 C   0  0  0  0  0  0  0  0  0  0  0  0
   34.7760   30.3290   33.5290 C   0  0  0  0  0  0  0  0  0  0  0  0
   36.6370   29.7510   30.2360 H   0  0  0  0  0  0  0  0  0  0  0  0
   34.9910   31.5540   30.4640 H   0  0  0  0  0  0  0  0  0  0  0  0
   33.8090   31.9430   32.5200 H   0  0  0  0  0  0  0  0  0  0  0  0
   34.7670   31.4340   35.6060 C   0  0  0  0  0  0  0  0  0  0  0  0
   34.0460   30.5830   34.7700 C   0  0  0  0  0  0  0  0  0  0  0  0
   32.8180   30.1050   35.1700 C   0  0  0  0  0  0  0  0  0  0  0  0
   32.3560   29.4560   34.4420 H   0  0  0  0  0  0  0  0  0  0  0  0
   32.3190   30.4840   36.4020 C   0  0  0  0  0  3  0  0  0  0  0  0
   33.0100   31.3220   37.2440 C   0  0  0  0  0  3  0  0  0  0  0  0
   34.2560   31.8080   36.8430 C   0  0  0  0  0  0  0  0  0  0  0  0
   36.0080   31.9930   35.3450 O   0  0  0  0  0  0  0  0  0  0  0  0
   36.8790   31.5130   35.3270 H   0  0  0  0  0  0  0  0  0  0  0  0
   34.9040   32.6490   37.7360 O   0  0  0  0  0  0  0  0  0  0  0  0
   35.9320   32.6720   37.6720 H   0  0  0  0  0  0  0  0  0  0  0  0
  1  6  1  6  0  0  0
  1  2  1  0  0  0  0
  1  5  1  0  0  0  0
  2  7  1  6  0  0  0
  2 13  1  0  0  0  0
  2  3  1  0  0  0  0
  3  4  1  0  0  0  0
  4  9  1  0  0  0  0
  5 23  1  0  0  0  0
  5 10  1  1  0  0  0
  5  4  1  0  0  0  0
  8  4  1  0  0  0  0
 11  1  1  0  0  0  0
 12 11  1  0  0  0  0
 13 18  1  0  0  0  0
 14 15  1  0  0  0  0
 15 21  1  0  0  0  0
 15 16  2  0  0  0  0
 16 22  1  0  0  0  0
 17 16  1  0  0  0  0
 18 17  2  0  0  0  0
 19 14  2  0  0  0  0
 19 18  1  0  0  0  0
 20 14  1  0  0  0  0
 25 30  1  0  0  0  0
 25 24  1  0  0  0  0
 26 23  1  0  0  0  0
 26 25  2  0  0  0  0
 27 28  2  0  0  0  0
 27 26  1  0  0  0  0
 28 29  1  0  0  0  0
 29 33  1  0  0  0  0
 29 30  2  0  0  0  0
 30 35  1  0  0  0  0
 31 27  1  0  0  0  0
 32 28  1  0  0  0  0
 34 40  1  0  0  0  0
 35 36  1  0  0  0  0
 35 34  2  0  0  0  0
 36 38  2  0  0  0  0
 37 36  1  0  0  0  0
 38 39  1  0  0  0  0
 40 39  2  0  0  0  0
 40 43  1  0  0  0  0
 41 34  1  0  0  0  0
 42 41  1  0  0  0  0
 44 43  1  0  0  0  0
M  END
>  <minimizedAffinity>
-6.38556671

$$$$

 OpenBabel03272506493D

 44 47  0  0  1  0  0  0  0  0999 V2000
   37.8970   23.9630   34.7270 C   0  0  2  0  0  0  0  0  0  0  0  0
   38.2030   22.8520   35.6900 C   0  0  1  0  0  0  0  0  0  0  0  0
   38.8380   21.8620   35.0040 O   0  0  0  0  0  0  0  0  0  0  0  0
   39.2120   22.3330   33.7490 C   0  0  0  0  0  0  0  0  0  0  0  0
   39.1530   23.8400   33.8130 C   0  0  1  0  0  0  0  0  0  0  0  0
   37.0220   23.8210   34.1030 H   0  0  0  0  0  0  0  0  0  0  0  0
   37.2930   22.5090   36.2390 H   0  0  0  0  0  0  0  0  0  0  0  0
   38.5160   21.8680   33.0460 H   0  0  0  0  0  0  0  0  0  0  0  0
   40.2340   21.9750   33.4700 H   0  0  0  0  0  0  0  0  0  0  0  0
   40.0000   24.2470   34.3580 H   0  0  0  0  0  0  0  0  0  0  0  0
   37.9280   25.2090   35.3850 O   0  0  0  0  0  0  0  0  0  0  0  0
   37.3500   25.0980   36.1800 H   0  0  0  0  0  0  0  0  0  0  0  0
   39.3780   23.5090   36.9400 S   0  0  0  0  0  0  0  0  0  0  0  0
   43.0670   22.5720   35.8360 C   0  0  0  0  0  0  0  0  0  0  0  0
   43.3320   21.3510   36.4540 C   0  0  0  0  0  0  0  0  0  0  0  0
   42.3340   20.7920   37.2450 C   0  0  0  0  0  0  0  0  0  0  0  0
   41.1480   21.4600   37.3780 N   0  0  0  0  0  0  0  0  0  0  0  0
   40.9360   22.6430   36.7570 C   0  0  0  0  0  0  0  0  0  0  0  0
   41.8880   23.2140   35.9820 N   0  0  0  0  0  0  0  0  0  0  0  0
   43.8310   23.0210   35.2180 H   0  0  0  0  0  0  0  0  0  0  0  0
   44.2860   20.8600   36.3200 H   0  0  0  0  0  0  0  0  0  0  0  0
   42.5030   19.8510   37.7380 H   0  0  0  0  0  0  0  0  0  0  0  0
   38.9070   24.3340   32.5560 O   0  0  0  0  0  0  0  0  0  0  0  0
   38.8150   27.2740   32.6910 Cl  0  0  0  0  0  0  0  0  0  0  0  0
   37.5760   26.1680   32.1430 C   0  0  0  0  0  0  0  0  0  0  0  0
   37.7400   24.8030   32.1170 C   0  0  0  0  0  0  0  0  0  0  0  0
   36.6850   24.0280   31.6330 C   0  0  0  0  0  0  0  0  0  0  0  0
   35.5190   24.6130   31.2000 C   0  0  0  0  0  0  0  0  0  0  0  0
   35.3440   25.9850   31.2230 C   0  0  0  0  0  0  0  0  0  0  0  0
   36.3820   26.7660   31.6990 C   0  0  0  0  0  0  0  0  0  0  0  0
   36.7050   22.9560   31.5600 H   0  0  0  0  0  0  0  0  0  0  0  0
   34.6610   24.0840   30.8130 H   0  0  0  0  0  0  0  0  0  0  0  0
   34.4300   26.4750   30.8850 H   0  0  0  0  0  0  0  0  0  0  0  0
   36.4830   28.7790   30.4850 C   0  0  0  0  0  0  0  0  0  0  0  0
   36.2210   28.2190   31.7350 C   0  0  0  0  0  0  0  0  0  0  0  0
   35.8670   29.0290   32.7900 C   0  0  0  0  0  0  0  0  0  0  0  0
   35.6900   28.4840   33.7040 H   0  0  0  0  0  0  0  0  0  0  0  0
   35.7760   30.3930   32.5890 C   0  0  0  0  0  3  0  0  0  0  0  0
   36.0290   30.9700   31.3670 C   0  0  0  0  0  3  0  0  0  0  0  0
   36.3890   30.1520   30.2930 C   0  0  0  0  0  0  0  0  0  0  0  0
   36.8480   28.0990   29.3340 O   0  0  0  0  0  0  0  0  0  0  0  0
   37.7250   27.6630   29.1600 H   0  0  0  0  0  0  0  0  0  0  0  0
   36.6310   30.7930   29.0870 O   0  0  0  0  0  0  0  0  0  0  0  0
   37.2740   30.3130   28.4400 H   0  0  0  0  0  0  0  0  0  0  0  0
  1  6  1  6  0  0  0
  1 11  1  0  0  0  0
  1  2  1  0  0  0  0
  2  7  1  1  0  0  0
  2 13  1  0  0  0  0
  3  2  1  0  0  0  0
  4  5  1  0  0  0  0
  4  3  1  0  0  0  0
  5 10  1  1  0  0  0
  5  1  1  0  0  0  0
  8  4  1  0  0  0  0
  9  4  1  0  0  0  0
 11 12  1  0  0  0  0
 14 19  2  0  0  0  0
 14 15  1  0  0  0  0
 15 16  2  0  0  0  0
 16 17  1  0  0  0  0
 16 22  1  0  0  0  0
 18 13  1  0  0  0  0
 18 17  2  0  0  0  0
 19 18  1  0  0  0  0
 20 14  1  0  0  0  0
 21 15  1  0  0  0  0
 23  5  1  0  0  0  0
 25 24  1  0  0  0  0
 26 25  1  0  0  0  0
 26 23  1  0  0  0  0
 27 26  2  0  0  0  0
 28 29  2  0  0  0  0
 28 27  1  0  0  0  0
 29 30  1  0  0  0  0
 30 35  1  0  0  0  0
 30 25  2  0  0  0  0
 31 27  1  0  0  0  0
 32 28  1  0  0  0  0
 33 29  1  0  0  0  0
 34 35  1  0  0  0  0
 35 36  2  0  0  0  0
 36 37  1  0  0  0  0
 38 36  1  0  0  0  0
 39 38  2  0  0  0  0
 40 34  2  0  0  0  0
 40 39  1  0  0  0  0
 41 34  1  0  0  0  0
 42 41  1  0  0  0  0
 43 40  1  0  0  0  0
 44 43  1  0  0  0  0
M  END
>  <minimizedAffinity>
-6.18076277

$$$$

 OpenBabel03272506493D

 44 47  0  0  1  0  0  0  0  0999 V2000
   38.2470   27.5700   30.0360 C   0  0  2  0  0  0  0  0  0  0  0  0
   36.9370   28.2830   29.8630 C   0  0  1  0  0  0  0  0  0  0  0  0
   35.9710   27.5430   30.4720 O   0  0  0  0  0  0  0  0  0  0  0  0
   36.5640   26.5550   31.2520 C   0  0  0  0  0  0  0  0  0  0  0  0
   38.0040   26.9610   31.4490 C   0  0  1  0  0  0  0  0  0  0  0  0
   38.4330   26.7480   29.3530 H   0  0  0  0  0  0  0  0  0  0  0  0
   36.7230   28.5140   28.7920 H   0  0  0  0  0  0  0  0  0  0  0  0
   36.4140   25.6220   30.7010 H   0  0  0  0  0  0  0  0  0  0  0  0
   36.0340   26.4370   32.2290 H   0  0  0  0  0  0  0  0  0  0  0  0
   38.0930   27.7640   32.1750 H   0  0  0  0  0  0  0  0  0  0  0  0
   39.3080   28.4960   30.1100 O   0  0  0  0  0  0  0  0  0  0  0  0
   39.1910   29.0890   29.3280 H   0  0  0  0  0  0  0  0  0  0  0  0
   37.0580   29.8870   30.7520 S   0  0  0  0  0  0  0  0  0  0  0  0
   33.4610   30.6260   32.2430 C   0  0  0  0  0  0  0  0  0  0  0  0
   33.5260   30.2130   33.5720 C   0  0  0  0  0  0  0  0  0  0  0  0
   34.7280   29.6830   34.0300 C   0  0  0  0  0  0  0  0  0  0  0  0
   35.7810   29.5930   33.1620 N   0  0  0  0  0  0  0  0  0  0  0  0
   35.6700   30.0100   31.8800 C   0  0  0  0  0  0  0  0  0  0  0  0
   34.5140   30.5290   31.4030 N   0  0  0  0  0  0  0  0  0  0  0  0
   32.5350   31.0410   31.8700 H   0  0  0  0  0  0  0  0  0  0  0  0
   32.6670   30.3030   34.2220 H   0  0  0  0  0  0  0  0  0  0  0  0
   34.8150   29.3520   35.0500 H   0  0  0  0  0  0  0  0  0  0  0  0
   38.7650   25.8360   31.6470 O   0  0  0  0  0  0  0  0  0  0  0  0
   39.1770   26.0470   34.5550 Cl  0  0  0  0  0  0  0  0  0  0  0  0
   38.5290   24.7060   33.6400 C   0  0  0  0  0  0  0  0  0  0  0  0
   38.3730   24.7280   32.2740 C   0  0  0  0  0  0  0  0  0  0  0  0
   37.8200   23.6030   31.6600 C   0  0  0  0  0  0  0  0  0  0  0  0
   37.4450   22.5070   32.4010 C   0  0  0  0  0  0  0  0  0  0  0  0
   37.5970   22.4740   33.7750 C   0  0  0  0  0  0  0  0  0  0  0  0
   38.1440   23.5830   34.3970 C   0  0  0  0  0  0  0  0  0  0  0  0
   37.6460   23.5140   30.6030 H   0  0  0  0  0  0  0  0  0  0  0  0
   37.0110   21.6020   32.0020 H   0  0  0  0  0  0  0  0  0  0  0  0
   37.3090   21.6180   34.3860 H   0  0  0  0  0  0  0  0  0  0  0  0
   39.3620   22.7260   36.2190 C   0  0  0  0  0  0  0  0  0  0  0  0
   38.3170   23.5720   35.8490 C   0  0  0  0  0  0  0  0  0  0  0  0
   37.6100   24.2530   36.8140 C   0  0  0  0  0  0  0  0  0  0  0  0
   36.8260   24.8740   36.4080 H   0  0  0  0  0  0  0  0  0  0  0  0
   37.9550   24.0860   38.1410 C   0  0  0  0  0  3  0  0  0  0  0  0
   38.9810   23.2590   38.5320 C   0  0  0  0  0  3  0  0  0  0  0  0
   39.7000   22.5650   37.5570 C   0  0  0  0  0  0  0  0  0  0  0  0
   40.1600   21.9780   35.3680 O   0  0  0  0  0  0  0  0  0  0  0  0
   39.8830   21.1700   34.8580 H   0  0  0  0  0  0  0  0  0  0  0  0
   40.7240   21.7480   38.0130 O   0  0  0  0  0  0  0  0  0  0  0  0
   40.9680   20.9490   37.4100 H   0  0  0  0  0  0  0  0  0  0  0  0
  1  6  1  6  0  0  0
  1 11  1  0  0  0  0
  1  5  1  0  0  0  0
  2  7  1  6  0  0  0
  2  1  1  0  0  0  0
  2  3  1  0  0  0  0
  2 13  1  0  0  0  0
  3  4  1  0  0  0  0
  4  5  1  0  0  0  0
  4  9  1  0  0  0  0
  5 23  1  0  0  0  0
  5 10  1  1  0  0  0
  8  4  1  0  0  0  0
 12 11  1  0  0  0  0
 13 18  1  0  0  0  0
 14 15  1  0  0  0  0
 15 16  2  0  0  0  0
 15 21  1  0  0  0  0
 16 22  1  0  0  0  0
 17 16  1  0  0  0  0
 18 17  2  0  0  0  0
 19 18  1  0  0  0  0
 19 14  2  0  0  0  0
 20 14  1  0  0  0  0
 23 26  1  0  0  0  0
 25 30  1  0  0  0  0
 25 24  1  0  0  0  0
 26 25  2  0  0  0  0
 27 26  1  0  0  0  0
 27 28  2  0  0  0  0
 28 29  1  0  0  0  0
 29 33  1  0  0  0  0
 29 30  2  0  0  0  0
 30 35  1  0  0  0  0
 31 27  1  0  0  0  0
 32 28  1  0  0  0  0
 34 40  1  0  0  0  0
 35 34  2  0  0  0  0
 35 36  1  0  0  0  0
 36 38  2  0  0  0  0
 37 36  1  0  0  0  0
 38 39  1  0  0  0  0
 40 43  1  0  0  0  0
 40 39  2  0  0  0  0
 41 34  1  0  0  0  0
 42 41  1  0  0  0  0
 44 43  1  0  0  0  0
M  END
>  <minimizedAffinity>
-6.01780653

$$$$

 OpenBabel03272506493D

 44 47  0  0  1  0  0  0  0  0999 V2000
   37.8490   28.0100   30.3700 C   0  0  2  0  0  0  0  0  0  0  0  0
   36.5380   28.7390   30.4350 C   0  0  1  0  0  0  0  0  0  0  0  0
   35.8330   28.2440   31.4890 O   0  0  0  0  0  0  0  0  0  0  0  0
   36.6650   27.4540   32.2750 C   0  0  0  0  0  0  0  0  0  0  0  0
   38.0830   27.8020   31.8970 C   0  0  1  0  0  0  0  0  0  0  0  0
   37.8240   27.0300   29.9060 H   0  0  0  0  0  0  0  0  0  0  0  0
   35.9870   28.7000   29.4640 H   0  0  0  0  0  0  0  0  0  0  0  0
   36.3660   26.4220   32.0660 H   0  0  0  0  0  0  0  0  0  0  0  0
   36.4770   27.6250   33.3640 H   0  0  0  0  0  0  0  0  0  0  0  0
   38.3830   28.7570   32.3190 H   0  0  0  0  0  0  0  0  0  0  0  0
   38.8580   28.8530   29.8610 O   0  0  0  0  0  0  0  0  0  0  0  0
   38.4850   29.2310   29.0280 H   0  0  0  0  0  0  0  0  0  0  0  0
   36.9020   30.5050   30.7850 S   0  0  0  0  0  0  0  0  0  0  0  0
   37.3790   31.6090   27.0090 C   0  0  0  0  0  0  0  0  0  0  0  0
   36.6410   32.7840   26.8770 C   0  0  0  0  0  0  0  0  0  0  0  0
   35.9660   33.2570   27.9970 C   0  0  0  0  0  0  0  0  0  0  0  0
   36.0590   32.5530   29.1670 N   0  0  0  0  0  0  0  0  0  0  0  0
   36.7890   31.4180   29.2460 C   0  0  0  0  0  0  0  0  0  0  0  0
   37.4570   30.9310   28.1740 N   0  0  0  0  0  0  0  0  0  0  0  0
   37.9100   31.2270   26.1480 H   0  0  0  0  0  0  0  0  0  0  0  0
   36.5960   33.3060   25.9310 H   0  0  0  0  0  0  0  0  0  0  0  0
   35.3850   34.1600   27.9330 H   0  0  0  0  0  0  0  0  0  0  0  0
   38.8910   26.7190   32.1360 O   0  0  0  0  0  0  0  0  0  0  0  0
   39.2490   26.5600   35.0540 Cl  0  0  0  0  0  0  0  0  0  0  0  0
   38.6260   25.3430   33.9640 C   0  0  0  0  0  0  0  0  0  0  0  0
   38.4950   25.5380   32.6090 C   0  0  0  0  0  0  0  0  0  0  0  0
   37.9600   24.4980   31.8480 C   0  0  0  0  0  0  0  0  0  0  0  0
   37.5790   23.3150   32.4360 C   0  0  0  0  0  0  0  0  0  0  0  0
   37.7070   23.1090   33.7980 C   0  0  0  0  0  0  0  0  0  0  0  0
   38.2350   24.1310   34.5650 C   0  0  0  0  0  0  0  0  0  0  0  0
   37.8070   24.5430   30.7850 H   0  0  0  0  0  0  0  0  0  0  0  0
   37.1590   22.4670   31.9170 H   0  0  0  0  0  0  0  0  0  0  0  0
   37.4130   22.1810   34.2890 H   0  0  0  0  0  0  0  0  0  0  0  0
   39.3800   23.0030   36.2830 C   0  0  0  0  0  0  0  0  0  0  0  0
   38.3820   23.9360   36.0070 C   0  0  0  0  0  0  0  0  0  0  0  0
   37.6910   24.5300   37.0390 C   0  0  0  0  0  0  0  0  0  0  0  0
   36.9450   25.2320   36.7030 H   0  0  0  0  0  0  0  0  0  0  0  0
   38.0040   24.1880   38.3410 C   0  0  0  0  0  3  0  0  0  0  0  0
   38.9840   23.2700   38.6400 C   0  0  0  0  0  3  0  0  0  0  0  0
   39.6870   22.6650   37.5960 C   0  0  0  0  0  0  0  0  0  0  0  0
   40.1570   22.3250   35.3570 O   0  0  0  0  0  0  0  0  0  0  0  0
   39.8510   21.5990   34.7500 H   0  0  0  0  0  0  0  0  0  0  0  0
   40.6620   21.7490   37.9610 O   0  0  0  0  0  0  0  0  0  0  0  0
   40.8790   21.0180   37.2690 H   0  0  0  0  0  0  0  0  0  0  0  0
  1  6  1  6  0  0  0
  1  2  1  0  0  0  0
  1  5  1  0  0  0  0
  2  7  1  6  0  0  0
  2 13  1  0  0  0  0
  2  3  1  0  0  0  0
  3  4  1  0  0  0  0
  4  9  1  0  0  0  0
  5 23  1  0  0  0  0
  5  4  1  0  0  0  0
  5 10  1  1  0  0  0
  8  4  1  0  0  0  0
 11  1  1  0  0  0  0
 12 11  1  0  0  0  0
 14 19  1  0  0  0  0
 15 14  2  0  0  0  0
 15 16  1  0  0  0  0
 16 17  2  0  0  0  0
 17 18  1  0  0  0  0
 18 13  1  0  0  0  0
 19 18  2  0  0  0  0
 20 14  1  0  0  0  0
 21 15  1  0  0  0  0
 22 16  1  0  0  0  0
 23 26  1  0  0  0  0
 25 30  1  0  0  0  0
 25 24  1  0  0  0  0
 26 25  2  0  0  0  0
 27 28  2  0  0  0  0
 27 26  1  0  0  0  0
 28 29  1  0  0  0  0
 29 33  1  0  0  0  0
 29 30  2  0  0  0  0
 30 35  1  0  0  0  0
 31 27  1  0  0  0  0
 32 28  1  0  0  0  0
 34 40  1  0  0  0  0
 35 34  2  0  0  0  0
 35 36  1  0  0  0  0
 36 38  2  0  0  0  0
 37 36  1  0  0  0  0
 38 39  1  0  0  0  0
 40 43  1  0  0  0  0
 40 39  2  0  0  0  0
 41 34  1  0  0  0  0
 42 41  1  0  0  0  0
 44 43  1  0  0  0  0
M  END
>  <minimizedAffinity>
-6.00821447

$$$$

 OpenBabel03272506493D

 44 47  0  0  1  0  0  0  0  0999 V2000
   36.3800   27.2260   31.1880 C   0  0  2  0  0  0  0  0  0  0  0  0
   35.5240   28.1790   31.9710 C   0  0  1  0  0  0  0  0  0  0  0  0
   35.9110   28.1200   33.2750 O   0  0  0  0  0  0  0  0  0  0  0  0
   37.1090   27.4200   33.3730 C   0  0  0  0  0  0  0  0  0  0  0  0
   37.7080   27.3840   31.9880 C   0  0  1  0  0  0  0  0  0  0  0  0
   36.0910   26.1810   31.2360 H   0  0  0  0  0  0  0  0  0  0  0  0
   34.4340   27.9920   31.8140 H   0  0  0  0  0  0  0  0  0  0  0  0
   36.8430   26.4450   33.7910 H   0  0  0  0  0  0  0  0  0  0  0  0
   37.8020   27.9030   34.1050 H   0  0  0  0  0  0  0  0  0  0  0  0
   38.1430   28.3420   31.7190 H   0  0  0  0  0  0  0  0  0  0  0  0
   36.5740   27.7000   29.8760 O   0  0  0  0  0  0  0  0  0  0  0  0
   35.6690   27.9110   29.5380 H   0  0  0  0  0  0  0  0  0  0  0  0
   35.8790   29.8750   31.3590 S   0  0  0  0  0  0  0  0  0  0  0  0
   35.3980   32.9920   33.7580 C   0  0  0  0  0  0  0  0  0  0  0  0
   34.1050   32.8660   34.2620 C   0  0  0  0  0  0  0  0  0  0  0  0
   33.3470   31.7770   33.8460 C   0  0  0  0  0  0  0  0  0  0  0  0
   33.9030   30.8860   32.9690 N   0  0  0  0  0  0  0  0  0  0  0  0
   35.1640   31.0490   32.5080 C   0  0  0  0  0  0  0  0  0  0  0  0
   35.9260   32.0990   32.8930 N   0  0  0  0  0  0  0  0  0  0  0  0
   36.0010   33.8320   34.0710 H   0  0  0  0  0  0  0  0  0  0  0  0
   33.7080   33.5970   34.9540 H   0  0  0  0  0  0  0  0  0  0  0  0
   32.3440   31.6480   34.2130 H   0  0  0  0  0  0  0  0  0  0  0  0
   38.4990   26.2690   31.8690 O   0  0  0  0  0  0  0  0  0  0  0  0
   40.2260   25.6000   34.1570 Cl  0  0  0  0  0  0  0  0  0  0  0  0
   38.9740   24.6310   33.4170 C   0  0  0  0  0  0  0  0  0  0  0  0
   38.2200   25.0580   32.3490 C   0  0  0  0  0  0  0  0  0  0  0  0
   37.2310   24.2020   31.8620 C   0  0  0  0  0  0  0  0  0  0  0  0
   37.0210   22.9690   32.4330 C   0  0  0  0  0  0  0  0  0  0  0  0
   37.7740   22.5290   33.5060 C   0  0  0  0  0  0  0  0  0  0  0  0
   38.7570   23.3680   34.0000 C   0  0  0  0  0  0  0  0  0  0  0  0
   36.5800   24.4350   31.0400 H   0  0  0  0  0  0  0  0  0  0  0  0
   36.2790   22.2520   32.1150 H   0  0  0  0  0  0  0  0  0  0  0  0
   37.6290   21.5560   33.9770 H   0  0  0  0  0  0  0  0  0  0  0  0
   38.9080   23.1610   36.3390 C   0  0  0  0  0  0  0  0  0  0  0  0
   39.5680   22.9250   35.1330 C   0  0  0  0  0  0  0  0  0  0  0  0
   40.8170   22.3470   35.1360 C   0  0  0  0  0  0  0  0  0  0  0  0
   41.2270   22.2150   34.1460 H   0  0  0  0  0  0  0  0  0  0  0  0
   41.3970   22.0060   36.3430 C   0  0  0  0  0  3  0  0  0  0  0  0
   40.7680   22.2280   37.5450 C   0  0  0  0  0  3  0  0  0  0  0  0
   39.5000   22.8150   37.5470 C   0  0  0  0  0  0  0  0  0  0  0  0
   37.6550   23.7310   36.4970 O   0  0  0  0  0  0  0  0  0  0  0  0
   37.4190   24.6870   36.3510 H   0  0  0  0  0  0  0  0  0  0  0  0
   38.9170   23.0130   38.7900 O   0  0  0  0  0  0  0  0  0  0  0  0
   38.2320   23.7800   38.8520 H   0  0  0  0  0  0  0  0  0  0  0  0
  1  6  1  1  0  0  0
  1  2  1  0  0  0  0
  1  5  1  0  0  0  0
  2  7  1  6  0  0  0
  2  3  1  0  0  0  0
  3  4  1  0  0  0  0
  4  8  1  0  0  0  0
  4  9  1  0  0  0  0
  5 10  1  6  0  0  0
  5  4  1  0  0  0  0
 11  1  1  0  0  0  0
 12 11  1  0  0  0  0
 13  2  1  0  0  0  0
 13 18  1  0  0  0  0
 14 20  1  0  0  0  0
 14 15  1  0  0  0  0
 15 21  1  0  0  0  0
 16 22  1  0  0  0  0
 16 15  2  0  0  0  0
 17 16  1  0  0  0  0
 18 19  1  0  0  0  0
 18 17  2  0  0  0  0
 19 14  2  0  0  0  0
 23  5  1  0  0  0  0
 23 26  1  0  0  0  0
 25 30  1  0  0  0  0
 25 24  1  0  0  0  0
 26 25  2  0  0  0  0
 27 26  1  0  0  0  0
 27 28  2  0  0  0  0
 28 29  1  0  0  0  0
 29 33  1  0  0  0  0
 29 30  2  0  0  0  0
 30 35  1  0  0  0  0
 31 27  1  0  0  0  0
 32 28  1  0  0  0  0
 34 41  1  0  0  0  0
 34 40  1  0  0  0  0
 35 36  1  0  0  0  0
 35 34  2  0  0  0  0
 36 38  2  0  0  0  0
 37 36  1  0  0  0  0
 38 39  1  0  0  0  0
 39 40  2  0  0  0  0
 40 43  1  0  0  0  0
 42 41  1  0  0  0  0
 43 44  1  0  0  0  0
M  END
>  <minimizedAffinity>
-5.9734869

$$$$

 OpenBabel03272506493D

 44 47  0  0  1  0  0  0  0  0999 V2000
   38.0880   25.2530   33.0490 C   0  0  2  0  0  0  0  0  0  0  0  0
   39.5180   24.8270   32.8760 C   0  0  1  0  0  0  0  0  0  0  0  0
   40.0030   25.4250   31.7540 O   0  0  0  0  0  0  0  0  0  0  0  0
   39.1140   26.4060   31.3290 C   0  0  0  0  0  0  0  0  0  0  0  0
   38.2030   26.7050   32.4940 C   0  0  1  0  0  0  0  0  0  0  0  0
   37.3600   24.7260   32.4420 H   0  0  0  0  0  0  0  0  0  0  0  0
   39.6280   23.7150   32.8810 H   0  0  0  0  0  0  0  0  0  0  0  0
   38.6210   25.9880   30.4460 H   0  0  0  0  0  0  0  0  0  0  0  0
   39.6540   27.3230   30.9870 H   0  0  0  0  0  0  0  0  0  0  0  0
   38.7040   27.3080   33.2450 H   0  0  0  0  0  0  0  0  0  0  0  0
   37.7520   25.3090   34.4170 O   0  0  0  0  0  0  0  0  0  0  0  0
   38.0350   24.4390   34.7900 H   0  0  0  0  0  0  0  0  0  0  0  0
   40.4670   25.4740   34.3100 S   0  0  0  0  0  0  0  0  0  0  0  0
   39.8670   22.5680   36.9380 C   0  0  0  0  0  0  0  0  0  0  0  0
   41.1350   22.0560   37.2100 C   0  0  0  0  0  0  0  0  0  0  0  0
   42.2210   22.6280   36.5560 C   0  0  0  0  0  0  0  0  0  0  0  0
   41.9960   23.6590   35.6850 N   0  0  0  0  0  0  0  0  0  0  0  0
   40.7470   24.1230   35.4550 C   0  0  0  0  0  0  0  0  0  0  0  0
   39.6690   23.5870   36.0740 N   0  0  0  0  0  0  0  0  0  0  0  0
   39.0120   22.1360   37.4380 H   0  0  0  0  0  0  0  0  0  0  0  0
   41.2630   21.2400   37.9070 H   0  0  0  0  0  0  0  0  0  0  0  0
   43.2140   22.2590   36.7400 H   0  0  0  0  0  0  0  0  0  0  0  0
   36.9960   27.1540   32.0180 O   0  0  0  0  0  0  0  0  0  0  0  0
   36.1070   28.0560   34.6760 Cl  0  0  0  0  0  0  0  0  0  0  0  0
   36.1420   28.9530   33.1760 C   0  0  0  0  0  0  0  0  0  0  0  0
   36.5920   28.4230   31.9890 C   0  0  0  0  0  0  0  0  0  0  0  0
   36.5950   29.2490   30.8640 C   0  0  0  0  0  0  0  0  0  0  0  0
   36.1560   30.5500   30.9420 C   0  0  0  0  0  0  0  0  0  0  0  0
   35.7010   31.0920   32.1290 C   0  0  0  0  0  0  0  0  0  0  0  0
   35.6940   30.2860   33.2530 C   0  0  0  0  0  0  0  0  0  0  0  0
   36.9300   28.9430   29.8900 H   0  0  0  0  0  0  0  0  0  0  0  0
   36.1270   31.2490   30.1190 H   0  0  0  0  0  0  0  0  0  0  0  0
   35.3480   32.1200   32.2180 H   0  0  0  0  0  0  0  0  0  0  0  0
   33.8500   30.6050   34.6790 C   0  0  0  0  0  0  0  0  0  0  0  0
   35.2160   30.8350   34.5210 C   0  0  0  0  0  0  0  0  0  0  0  0
   35.9160   31.5060   35.4970 C   0  0  0  0  0  0  0  0  0  0  0  0
   36.9630   31.6250   35.2640 H   0  0  0  0  0  0  0  0  0  0  0  0
   35.2470   31.9390   36.6260 C   0  0  0  0  0  3  0  0  0  0  0  0
   33.9020   31.7240   36.8060 C   0  0  0  0  0  3  0  0  0  0  0  0
   33.1860   31.0450   35.8170 C   0  0  0  0  0  0  0  0  0  0  0  0
   33.0140   29.9490   33.7890 O   0  0  0  0  0  0  0  0  0  0  0  0
   32.7040   30.2920   32.9080 H   0  0  0  0  0  0  0  0  0  0  0  0
   31.8320   30.8590   36.0570 O   0  0  0  0  0  0  0  0  0  0  0  0
   31.2350   30.7610   35.2230 H   0  0  0  0  0  0  0  0  0  0  0  0
  1  6  1  6  0  0  0
  1 11  1  0  0  0  0
  2  7  1  6  0  0  0
  2  1  1  0  0  0  0
  2 13  1  0  0  0  0
  3  2  1  0  0  0  0
  4  3  1  0  0  0  0
  4  5  1  0  0  0  0
  5  1  1  0  0  0  0
  5 10  1  1  0  0  0
  8  4  1  0  0  0  0
  9  4  1  0  0  0  0
 11 12  1  0  0  0  0
 13 18  1  0  0  0  0
 14 15  1  0  0  0  0
 14 20  1  0  0  0  0
 15 21  1  0  0  0  0
 16 22  1  0  0  0  0
 16 15  2  0  0  0  0
 17 16  1  0  0  0  0
 18 17  2  0  0  0  0
 18 19  1  0  0  0  0
 19 14  2  0  0  0  0
 23  5  1  0  0  0  0
 25 30  1  0  0  0  0
 25 24  1  0  0  0  0
 26 23  1  0  0  0  0
 26 25  2  0  0  0  0
 27 28  2  0  0  0  0
 27 26  1  0  0  0  0
 28 29  1  0  0  0  0
 29 33  1  0  0  0  0
 29 30  2  0  0  0  0
 30 35  1  0  0  0  0
 31 27  1  0  0  0  0
 32 28  1  0  0  0  0
 34 40  1  0  0  0  0
 35 34  2  0  0  0  0
 35 36  1  0  0  0  0
 36 38  2  0  0  0  0
 37 36  1  0  0  0  0
 38 39  1  0  0  0  0
 40 43  1  0  0  0  0
 40 39  2  0  0  0  0
 41 34  1  0  0  0  0
 42 41  1  0  0  0  0
 44 43  1  0  0  0  0
M  END
>  <minimizedAffinity>
-5.94842768

$$$$

 OpenBabel03272506493D

 44 47  0  0  1  0  0  0  0  0999 V2000
   37.3340   27.8910   32.6600 C   0  0  2  0  0  0  0  0  0  0  0  0
   36.4880   28.9760   32.0590 C   0  0  1  0  0  0  0  0  0  0  0  0
   36.2600   28.6600   30.7540 O   0  0  0  0  0  0  0  0  0  0  0  0
   36.6520   27.3460   30.5200 C   0  0  0  0  0  0  0  0  0  0  0  0
   36.7630   26.6760   31.8680 C   0  0  1  0  0  0  0  0  0  0  0  0
   38.3960   27.9490   32.4510 H   0  0  0  0  0  0  0  0  0  0  0  0
   36.9340   29.9890   32.2080 H   0  0  0  0  0  0  0  0  0  0  0  0
   37.5860   27.4180   29.9560 H   0  0  0  0  0  0  0  0  0  0  0  0
   35.9210   26.8170   29.8600 H   0  0  0  0  0  0  0  0  0  0  0  0
   35.7840   26.4440   32.2780 H   0  0  0  0  0  0  0  0  0  0  0  0
   37.0330   27.7300   34.0270 O   0  0  0  0  0  0  0  0  0  0  0  0
   37.0830   28.6390   34.4140 H   0  0  0  0  0  0  0  0  0  0  0  0
   34.8690   28.9630   32.9280 S   0  0  0  0  0  0  0  0  0  0  0  0
   33.7830   32.4130   31.3090 C   0  0  0  0  0  0  0  0  0  0  0  0
   32.3900   32.3870   31.2970 C   0  0  0  0  0  0  0  0  0  0  0  0
   31.7570   31.2590   31.8080 C   0  0  0  0  0  0  0  0  0  0  0  0
   32.5240   30.2380   32.2950 N   0  0  0  0  0  0  0  0  0  0  0  0
   33.8750   30.3090   32.2870 C   0  0  0  0  0  0  0  0  0  0  0  0
   34.5220   31.3920   31.7950 N   0  0  0  0  0  0  0  0  0  0  0  0
   34.2930   33.2820   30.9150 H   0  0  0  0  0  0  0  0  0  0  0  0
   31.8250   33.2190   30.9000 H   0  0  0  0  0  0  0  0  0  0  0  0
   30.6820   31.2030   31.8140 H   0  0  0  0  0  0  0  0  0  0  0  0
   37.6790   25.6570   31.7890 O   0  0  0  0  0  0  0  0  0  0  0  0
   39.6090   25.3450   33.9910 Cl  0  0  0  0  0  0  0  0  0  0  0  0
   38.4290   24.1960   33.4040 C   0  0  0  0  0  0  0  0  0  0  0  0
   37.5670   24.4610   32.3660 C   0  0  0  0  0  0  0  0  0  0  0  0
   36.6520   23.4710   32.0070 C   0  0  0  0  0  0  0  0  0  0  0  0
   36.6180   22.2670   32.6700 C   0  0  0  0  0  0  0  0  0  0  0  0
   37.4800   21.9890   33.7150 C   0  0  0  0  0  0  0  0  0  0  0  0
   38.3920   22.9620   34.0820 C   0  0  0  0  0  0  0  0  0  0  0  0
   35.9290   23.5710   31.2180 H   0  0  0  0  0  0  0  0  0  0  0  0
   35.9420   21.4530   32.4520 H   0  0  0  0  0  0  0  0  0  0  0  0
   37.4740   21.0430   34.2570 H   0  0  0  0  0  0  0  0  0  0  0  0
   38.7150   22.9590   36.4130 C   0  0  0  0  0  0  0  0  0  0  0  0
   39.3160   22.6930   35.1830 C   0  0  0  0  0  0  0  0  0  0  0  0
   40.6150   22.2410   35.1370 C   0  0  0  0  0  0  0  0  0  0  0  0
   40.9710   22.0710   34.1320 H   0  0  0  0  0  0  0  0  0  0  0  0
   41.3050   22.0560   36.3200 C   0  0  0  0  0  3  0  0  0  0  0  0
   40.7350   22.3110   37.5450 C   0  0  0  0  0  3  0  0  0  0  0  0
   39.4170   22.7700   37.5970 C   0  0  0  0  0  0  0  0  0  0  0  0
   37.4230   23.4150   36.6200 O   0  0  0  0  0  0  0  0  0  0  0  0
   37.0820   24.3280   36.4220 H   0  0  0  0  0  0  0  0  0  0  0  0
   38.8990   23.0090   38.8610 O   0  0  0  0  0  0  0  0  0  0  0  0
   38.1450   23.7080   38.9170 H   0  0  0  0  0  0  0  0  0  0  0  0
  1  6  1  6  0  0  0
  1 11  1  0  0  0  0
  2  7  1  1  0  0  0
  2  1  1  0  0  0  0
  2 13  1  0  0  0  0
  3  2  1  0  0  0  0
  4  3  1  0  0  0  0
  4  5  1  0  0  0  0
  5 10  1  1  0  0  0
  5  1  1  0  0  0  0
  8  4  1  0  0  0  0
  9  4  1  0  0  0  0
 11 12  1  0  0  0  0
 14 19  1  0  0  0  0
 15 14  2  0  0  0  0
 15 16  1  0  0  0  0
 16 22  1  0  0  0  0
 16 17  2  0  0  0  0
 18 17  1  0  0  0  0
 18 13  1  0  0  0  0
 19 18  2  0  0  0  0
 20 14  1  0  0  0  0
 21 15  1  0  0  0  0
 23  5  1  0  0  0  0
 23 26  1  0  0  0  0
 25 24  1  0  0  0  0
 25 30  1  0  0  0  0
 26 25  2  0  0  0  0
 27 26  1  0  0  0  0
 27 28  2  0  0  0  0
 28 29  1  0  0  0  0
 29 30  2  0  0  0  0
 29 33  1  0  0  0  0
 30 35  1  0  0  0  0
 31 27  1  0  0  0  0
 32 28  1  0  0  0  0
 34 41  1  0  0  0  0
 34 40  1  0  0  0  0
 35 34  2  0  0  0  0
 36 35  1  0  0  0  0
 36 38  2  0  0  0  0
 37 36  1  0  0  0  0
 38 39  1  0  0  0  0
 39 40  2  0  0  0  0
 40 43  1  0  0  0  0
 42 41  1  0  0  0  0
 43 44  1  0  0  0  0
M  END
>  <minimizedAffinity>
-5.7292037

$$$$
