
 OpenBabel03272508283D

 40 43  0  0  1  0  0  0  0  0999 V2000
   33.9730   29.0250   47.3600 C   0  0  2  0  0  0  0  0  0  0  0  0
   34.7520   28.2440   48.4120 C   0  0  2  0  0  0  0  0  0  0  0  0
   33.8690   28.0380   49.4360 O   0  0  0  0  0  0  0  0  0  0  0  0
   32.5840   28.0930   48.9880 C   0  0  0  0  0  0  0  0  0  0  0  0
   32.6180   28.3200   47.4910 C   0  0  1  0  0  0  0  0  0  0  0  0
   33.8440   30.0810   47.6320 H   0  0  0  0  0  0  0  0  0  0  0  0
   35.0480   27.2860   47.9620 H   0  0  0  0  0  0  0  0  0  0  0  0
   32.0790   27.1180   49.1590 H   0  0  0  0  0  0  0  0  0  0  0  0
   31.9900   28.9350   49.4170 H   0  0  0  0  0  0  0  0  0  0  0  0
   32.6640   27.3410   46.9900 H   0  0  0  0  0  0  0  0  0  0  0  0
   35.8010   30.5280   49.0390 C   0  0  1  0  0  0  0  0  0  0  0  0
   35.9040   29.1020   48.8290 C   0  0  1  0  0  0  0  0  0  0  0  0
   36.0490   29.5920   50.2330 C   0  0  0  0  0  0  0  0  0  0  0  0
   34.8920   31.1340   49.2030 H   0  0  0  0  0  0  0  0  0  0  0  0
   36.8680   28.7550   48.3560 H   0  0  0  0  0  0  0  0  0  0  0  0
   37.0650   29.5880   50.6970 H   0  0  0  0  0  0  0  0  0  0  0  0
   35.2580   29.4690   50.9700 H   0  0  0  0  0  0  0  0  0  0  0  0
   36.9890   31.4420   48.7890 C   0  0  0  0  0  0  0  0  0  0  0  0
   37.1900   32.4960   49.6840 C   0  0  0  0  0  0  0  0  0  0  0  0
   38.2690   33.3100   49.4100 C   0  0  0  0  0  0  0  0  0  0  0  0
   39.0720   33.0750   48.3210 N   0  0  0  0  0  0  0  0  0  0  0  0
   38.8400   32.0410   47.4780 C   0  0  0  0  0  0  0  0  0  0  0  0
   37.7890   31.2160   47.7140 N   0  0  0  0  0  0  0  0  0  0  0  0
   36.5230   32.6260   50.5200 H   0  0  0  0  0  0  0  0  0  0  0  0
   38.4620   34.1430   50.0830 H   0  0  0  0  0  0  0  0  0  0  0  0
   39.4980   31.8930   46.6320 H   0  0  0  0  0  0  0  0  0  0  0  0
   34.4810   28.9070   46.0860 O   0  0  0  0  0  0  0  0  0  0  0  0
   34.4710   27.9890   45.7590 H   0  0  0  0  0  0  0  0  0  0  0  0
   31.5940   29.0860   47.0240 O   0  0  0  0  0  0  0  0  0  0  0  0
   30.9460   29.1870   44.8400 C   0  0  0  0  0  0  0  0  0  0  0  0
   30.6550   28.6930   46.1180 C   0  0  0  0  0  0  0  0  0  0  0  0
   29.5200   27.9260   46.2430 C   0  0  0  0  0  0  0  0  0  0  0  0
   29.3620   27.5820   47.2480 H   0  0  0  0  0  0  0  0  0  0  0  0
   28.7100   27.6550   45.1730 C   0  0  0  0  0  3  0  0  0  0  0  0
   28.9950   28.1400   43.9170 C   0  0  0  0  0  3  0  0  0  0  0  0
   30.1260   28.9140   43.7510 C   0  0  0  0  0  0  0  0  0  0  0  0
   32.0400   29.9770   44.5070 O   0  0  0  0  0  0  0  0  0  0  0  0
   31.9900   30.9720   44.7030 H   0  0  0  0  0  0  0  0  0  0  0  0
   30.3610   29.3730   42.4730 O   0  0  0  0  0  0  0  0  0  0  0  0
   31.2980   29.4070   42.0560 H   0  0  0  0  0  0  0  0  0  0  0  0
  1  5  1  0  0  0  0
  1  6  1  1  0  0  0
  1  2  1  0  0  0  0
  2  7  1  6  0  0  0
  2 12  1  0  0  0  0
  2  3  1  0  0  0  0
  4  8  1  0  0  0  0
  4  9  1  0  0  0  0
  4  3  1  0  0  0  0
  5 10  1  6  0  0  0
  5  4  1  0  0  0  0
 11 14  1  6  0  0  0
 11 13  1  0  0  0  0
 12 15  1  6  0  0  0
 12 11  1  0  0  0  0
 12 13  1  0  0  0  0
 13 16  1  0  0  0  0
 13 17  1  0  0  0  0
 18 11  1  0  0  0  0
 18 19  1  0  0  0  0
 19 24  1  0  0  0  0
 20 19  2  0  0  0  0
 20 25  1  0  0  0  0
 21 20  1  0  0  0  0
 22 23  1  0  0  0  0
 22 21  2  0  0  0  0
 23 18  2  0  0  0  0
 26 22  1  0  0  0  0
 27  1  1  0  0  0  0
 28 27  1  0  0  0  0
 29  5  1  0  0  0  0
 30 31  1  0  0  0  0
 31 32  2  0  0  0  0
 31 29  1  0  0  0  0
 32 33  1  0  0  0  0
 34 32  1  0  0  0  0
 35 34  2  0  0  0  0
 36 35  1  0  0  0  0
 36 30  2  0  0  0  0
 37 38  1  0  0  0  0
 37 30  1  0  0  0  0
 39 36  1  0  0  0  0
 40 39  1  0  0  0  0
M  END
>  <minimizedAffinity>
-4.90856314

>  <minimizedRMSD>
0.177418262

$$$$
