
 OpenBabel03272500093D

 41 44  0  0  0  0  0  0  0  0999 V2000
   35.9450   29.2110   33.2140 C   0  0  0  0  0  0  0  0  0  0  0  0
   36.4160   28.7020   32.0140 C   0  0  0  0  0  0  0  0  0  0  0  0
   36.6380   29.5330   30.9370 C   0  0  0  0  0  0  0  0  0  0  0  0
   36.3830   30.8950   31.0660 C   0  0  0  0  0  0  0  0  0  0  0  0
   35.9100   31.3940   32.2760 C   0  0  0  0  0  0  0  0  0  0  0  0
   35.6960   30.5590   33.3310 C   0  0  0  0  0  0  0  0  0  0  0  0
   36.6290   27.6520   31.8650 H   0  0  0  0  0  0  0  0  0  0  0  0
   37.0070   29.1240   30.0040 H   0  0  0  0  0  0  0  0  0  0  0  0
   36.5510   31.5590   30.2320 H   0  0  0  0  0  0  0  0  0  0  0  0
   35.7120   32.4550   32.3730 H   0  0  0  0  0  0  0  0  0  0  0  0
   33.8200   30.9860   34.6330 C   0  0  0  0  0  0  0  0  0  0  0  0
   35.2120   31.0680   34.5890 C   0  0  0  0  0  0  0  0  0  0  0  0
   35.8590   31.5880   35.6910 C   0  0  0  0  0  0  0  0  0  0  0  0
   36.9330   31.6010   35.5390 H   0  0  0  0  0  0  0  0  0  0  0  0
   35.1490   32.0090   36.7950 C   0  0  0  0  0  3  0  0  0  0  0  0
   33.7720   31.9280   36.8390 C   0  0  0  0  0  3  0  0  0  0  0  0
   33.0960   31.4130   35.7530 C   0  0  0  0  0  0  0  0  0  0  0  0
   32.9720   30.4920   33.6260 O   0  0  0  0  0  0  0  0  0  0  0  0
   32.1500   31.0210   33.3510 H   0  0  0  0  0  0  0  0  0  0  0  0
   31.7250   31.3610   35.8650 O   0  0  0  0  0  0  0  0  0  0  0  0
   31.1750   32.1750   36.0910 H   0  0  0  0  0  0  0  0  0  0  0  0
   35.7690   28.2540   34.2080 O   0  0  0  0  0  0  0  0  0  0  0  0
   38.0920   25.5110   34.1460 C   0  0  0  0  0  0  0  0  0  0  0  0
   39.0730   25.8950   35.0620 C   0  0  0  0  0  0  0  0  0  0  0  0
   38.8980   27.1350   35.6970 C   0  0  0  0  0  0  0  0  0  0  0  0
   37.7970   27.8740   35.3850 N   0  0  0  0  0  0  0  0  0  0  0  0
   36.8800   27.4740   34.5030 C   0  0  0  0  0  0  0  0  0  0  0  0
   37.0230   26.2750   33.8710 N   0  0  0  0  0  0  0  0  0  0  0  0
   38.1690   24.5670   33.6220 H   0  0  0  0  0  0  0  0  0  0  0  0
   39.6610   27.4290   36.4070 H   0  0  0  0  0  0  0  0  0  0  0  0
   40.1660   25.0330   35.2940 N   0  0  0  0  0  0  0  0  0  0  0  0
   41.3810   25.2790   34.8160 C   0  0  0  0  0  0  0  0  0  0  0  0
   42.4150   24.3750   35.0860 C   0  0  0  0  0  0  0  0  0  0  0  0
   42.0750   23.3000   35.8320 C   0  0  0  0  0  0  0  0  0  0  0  0
   43.0200   22.4840   36.0720 O   0  0  0  0  0  0  0  0  0  0  0  0
   40.8850   23.0200   36.3260 N   0  0  0  0  0  0  0  0  0  0  0  0
   39.8920   23.9140   36.0500 C   0  0  0  0  0  0  0  0  0  0  0  0
   38.7440   23.6670   36.5110 O   0  0  0  0  0  0  0  0  0  0  0  0
   41.5700   26.1690   34.2230 H   0  0  0  0  0  0  0  0  0  0  0  0
   43.4160   24.5440   34.7120 H   0  0  0  0  0  0  0  0  0  0  0  0
   40.6910   22.1650   36.8990 H   0  0  0  0  0  0  0  0  0  0  0  0
  1  6  1  0  0  0  0
  1 22  1  0  0  0  0
  2  1  2  0  0  0  0
  3  4  2  0  0  0  0
  3  2  1  0  0  0  0
  4  5  1  0  0  0  0
  5 10  1  0  0  0  0
  5  6  2  0  0  0  0
  6 12  1  0  0  0  0
  7  2  1  0  0  0  0
  8  3  1  0  0  0  0
  9  4  1  0  0  0  0
 11 17  1  0  0  0  0
 12 11  2  0  0  0  0
 12 13  1  0  0  0  0
 13 15  2  0  0  0  0
 14 13  1  0  0  0  0
 15 16  1  0  0  0  0
 17 20  1  0  0  0  0
 17 16  2  0  0  0  0
 18 11  1  0  0  0  0
 19 18  1  0  0  0  0
 20 21  1  0  0  0  0
 22 27  1  0  0  0  0
 23 24  1  0  0  0  0
 24 31  1  0  0  0  0
 24 25  2  0  0  0  0
 25 30  1  0  0  0  0
 26 25  1  0  0  0  0
 27 26  2  0  0  0  0
 28 23  2  0  0  0  0
 28 27  1  0  0  0  0
 29 23  1  0  0  0  0
 31 37  1  0  0  0  0
 32 33  2  0  0  0  0
 32 31  1  0  0  0  0
 33 34  1  0  0  0  0
 34 35  2  0  0  0  0
 34 36  1  0  0  0  0
 36 41  1  0  0  0  0
 37 36  1  0  0  0  0
 37 38  2  0  0  0  0
 39 32  1  0  0  0  0
 40 33  1  0  0  0  0
M  END
>  <minimizedAffinity>
-6.4220562

$$$$

 OpenBabel03272500093D

 41 44  0  0  0  0  0  0  0  0999 V2000
   39.3400   26.1280   33.4080 C   0  0  0  0  0  0  0  0  0  0  0  0
   39.9630   26.8190   32.3790 C   0  0  0  0  0  0  0  0  0  0  0  0
   41.2410   27.3100   32.5350 C   0  0  0  0  0  0  0  0  0  0  0  0
   41.9050   27.1040   33.7400 C   0  0  0  0  0  0  0  0  0  0  0  0
   41.2700   26.4080   34.7650 C   0  0  0  0  0  0  0  0  0  0  0  0
   40.0050   25.9300   34.5950 C   0  0  0  0  0  0  0  0  0  0  0  0
   39.4880   27.0040   31.4250 H   0  0  0  0  0  0  0  0  0  0  0  0
   41.7180   27.8480   31.7250 H   0  0  0  0  0  0  0  0  0  0  0  0
   42.9070   27.4810   33.8790 H   0  0  0  0  0  0  0  0  0  0  0  0
   41.7900   26.2500   35.7030 H   0  0  0  0  0  0  0  0  0  0  0  0
   39.8480   23.9070   35.7260 C   0  0  0  0  0  0  0  0  0  0  0  0
   39.3430   25.2050   35.6490 C   0  0  0  0  0  0  0  0  0  0  0  0
   38.3550   25.5620   36.5430 C   0  0  0  0  0  0  0  0  0  0  0  0
   38.0440   26.5900   36.3860 H   0  0  0  0  0  0  0  0  0  0  0  0
   37.8880   24.6630   37.4780 C   0  0  0  0  0  3  0  0  0  0  0  0
   38.3870   23.3790   37.5540 C   0  0  0  0  0  3  0  0  0  0  0  0
   39.3760   22.9920   36.6740 C   0  0  0  0  0  0  0  0  0  0  0  0
   40.8500   23.3430   34.9170 O   0  0  0  0  0  0  0  0  0  0  0  0
   40.7120   22.4260   34.5030 H   0  0  0  0  0  0  0  0  0  0  0  0
   39.8280   21.6990   36.8070 O   0  0  0  0  0  0  0  0  0  0  0  0
   39.2030   20.9080   36.7860 H   0  0  0  0  0  0  0  0  0  0  0  0
   38.0530   25.6960   33.1060 O   0  0  0  0  0  0  0  0  0  0  0  0
   35.4510   27.6340   31.5560 C   0  0  0  0  0  0  0  0  0  0  0  0
   35.2220   28.6630   32.4730 C   0  0  0  0  0  0  0  0  0  0  0  0
   36.0010   28.6570   33.6410 C   0  0  0  0  0  0  0  0  0  0  0  0
   36.9180   27.6630   33.8050 N   0  0  0  0  0  0  0  0  0  0  0  0
   37.1080   26.6960   32.9060 C   0  0  0  0  0  0  0  0  0  0  0  0
   36.3670   26.6760   31.7620 N   0  0  0  0  0  0  0  0  0  0  0  0
   34.8830   27.5820   30.6360 H   0  0  0  0  0  0  0  0  0  0  0  0
   35.8200   29.4560   34.3490 H   0  0  0  0  0  0  0  0  0  0  0  0
   34.2390   29.6330   32.1800 N   0  0  0  0  0  0  0  0  0  0  0  0
   33.0390   29.6250   32.7500 C   0  0  0  0  0  0  0  0  0  0  0  0
   32.1160   30.6180   32.4060 C   0  0  0  0  0  0  0  0  0  0  0  0
   32.5410   31.5260   31.4980 C   0  0  0  0  0  0  0  0  0  0  0  0
   31.6950   32.4250   31.1920 O   0  0  0  0  0  0  0  0  0  0  0  0
   33.7210   31.5700   30.9120 N   0  0  0  0  0  0  0  0  0  0  0  0
   34.6040   30.5920   31.2610 C   0  0  0  0  0  0  0  0  0  0  0  0
   35.7400   30.6130   30.7120 O   0  0  0  0  0  0  0  0  0  0  0  0
   32.7770   28.8560   33.4720 H   0  0  0  0  0  0  0  0  0  0  0  0
   31.1300   30.6410   32.8500 H   0  0  0  0  0  0  0  0  0  0  0  0
   33.9840   32.3060   30.2140 H   0  0  0  0  0  0  0  0  0  0  0  0
  1  6  1  0  0  0  0
  2  3  1  0  0  0  0
  2  1  2  0  0  0  0
  3  4  2  0  0  0  0
  4  9  1  0  0  0  0
  4  5  1  0  0  0  0
  5 10  1  0  0  0  0
  6  5  2  0  0  0  0
  6 12  1  0  0  0  0
  7  2  1  0  0  0  0
  8  3  1  0  0  0  0
 11 17  1  0  0  0  0
 12 11  2  0  0  0  0
 12 13  1  0  0  0  0
 13 15  2  0  0  0  0
 14 13  1  0  0  0  0
 15 16  1  0  0  0  0
 17 20  1  0  0  0  0
 17 16  2  0  0  0  0
 18 11  1  0  0  0  0
 19 18  1  0  0  0  0
 21 20  1  0  0  0  0
 22  1  1  0  0  0  0
 23 28  2  0  0  0  0
 23 24  1  0  0  0  0
 24 25  2  0  0  0  0
 25 26  1  0  0  0  0
 25 30  1  0  0  0  0
 27 22  1  0  0  0  0
 27 26  2  0  0  0  0
 28 27  1  0  0  0  0
 29 23  1  0  0  0  0
 31 24  1  0  0  0  0
 31 32  1  0  0  0  0
 32 39  1  0  0  0  0
 33 32  2  0  0  0  0
 33 40  1  0  0  0  0
 34 33  1  0  0  0  0
 35 34  2  0  0  0  0
 36 37  1  0  0  0  0
 36 34  1  0  0  0  0
 37 31  1  0  0  0  0
 38 37  2  0  0  0  0
 41 36  1  0  0  0  0
M  END
>  <minimizedAffinity>
-6.32385445

$$$$

 OpenBabel03272500093D

 41 44  0  0  0  0  0  0  0  0999 V2000
   36.8100   28.2320   32.6560 C   0  0  0  0  0  0  0  0  0  0  0  0
   37.9630   27.6840   32.1140 C   0  0  0  0  0  0  0  0  0  0  0  0
   38.2820   27.8880   30.7900 C   0  0  0  0  0  0  0  0  0  0  0  0
   37.4330   28.6530   29.9960 C   0  0  0  0  0  0  0  0  0  0  0  0
   36.2790   29.1980   30.5510 C   0  0  0  0  0  0  0  0  0  0  0  0
   35.9770   28.9860   31.8630 C   0  0  0  0  0  0  0  0  0  0  0  0
   38.6530   27.0830   32.6910 H   0  0  0  0  0  0  0  0  0  0  0  0
   39.1860   27.4560   30.3770 H   0  0  0  0  0  0  0  0  0  0  0  0
   37.6680   28.8220   28.9560 H   0  0  0  0  0  0  0  0  0  0  0  0
   35.6190   29.7920   29.9300 H   0  0  0  0  0  0  0  0  0  0  0  0
   35.0230   30.8710   32.8290 C   0  0  0  0  0  0  0  0  0  0  0  0
   34.7870   29.5510   32.4460 C   0  0  0  0  0  0  0  0  0  0  0  0
   33.5270   29.0340   32.6710 C   0  0  0  0  0  0  0  0  0  0  0  0
   33.4650   28.0050   32.3330 H   0  0  0  0  0  0  0  0  0  0  0  0
   32.5410   29.8010   33.2540 C   0  0  0  0  0  3  0  0  0  0  0  0
   32.7750   31.1070   33.6330 C   0  0  0  0  0  3  0  0  0  0  0  0
   34.0240   31.6520   33.4210 C   0  0  0  0  0  0  0  0  0  0  0  0
   36.2260   31.5860   32.6910 O   0  0  0  0  0  0  0  0  0  0  0  0
   36.5930   32.1180   33.4750 H   0  0  0  0  0  0  0  0  0  0  0  0
   34.1870   32.9590   33.8230 O   0  0  0  0  0  0  0  0  0  0  0  0
   33.9790   33.2610   34.7620 H   0  0  0  0  0  0  0  0  0  0  0  0
   36.6190   27.9400   34.0020 O   0  0  0  0  0  0  0  0  0  0  0  0
   39.0360   26.1750   35.9950 C   0  0  0  0  0  0  0  0  0  0  0  0
   38.9240   24.8560   35.5490 C   0  0  0  0  0  0  0  0  0  0  0  0
   37.9830   24.6060   34.5380 C   0  0  0  0  0  0  0  0  0  0  0  0
   37.2500   25.6500   34.0610 N   0  0  0  0  0  0  0  0  0  0  0  0
   37.3850   26.8970   34.5120 C   0  0  0  0  0  0  0  0  0  0  0  0
   38.2900   27.1710   35.4930 N   0  0  0  0  0  0  0  0  0  0  0  0
   39.7430   26.4330   36.7730 H   0  0  0  0  0  0  0  0  0  0  0  0
   37.8990   23.5820   34.1950 H   0  0  0  0  0  0  0  0  0  0  0  0
   39.7460   23.8670   36.1300 N   0  0  0  0  0  0  0  0  0  0  0  0
   40.9460   23.5640   35.6460 C   0  0  0  0  0  0  0  0  0  0  0  0
   41.7020   22.5680   36.2740 C   0  0  0  0  0  0  0  0  0  0  0  0
   41.1280   21.9870   37.3520 C   0  0  0  0  0  0  0  0  0  0  0  0
   41.8220   21.0840   37.9160 O   0  0  0  0  0  0  0  0  0  0  0  0
   39.9440   22.2590   37.8640 N   0  0  0  0  0  0  0  0  0  0  0  0
   39.2240   23.2310   37.2350 C   0  0  0  0  0  0  0  0  0  0  0  0
   38.0870   23.5080   37.7070 O   0  0  0  0  0  0  0  0  0  0  0  0
   41.3340   24.0810   34.7720 H   0  0  0  0  0  0  0  0  0  0  0  0
   42.6830   22.2960   35.9060 H   0  0  0  0  0  0  0  0  0  0  0  0
   39.5600   21.7660   38.7050 H   0  0  0  0  0  0  0  0  0  0  0  0
  1 22  1  0  0  0  0
  2  1  1  0  0  0  0
  2  7  1  0  0  0  0
  3  2  2  0  0  0  0
  4  5  2  0  0  0  0
  4  3  1  0  0  0  0
  5  6  1  0  0  0  0
  6 12  1  0  0  0  0
  6  1  2  0  0  0  0
  8  3  1  0  0  0  0
  9  4  1  0  0  0  0
 10  5  1  0  0  0  0
 11 17  1  0  0  0  0
 12 13  1  0  0  0  0
 12 11  2  0  0  0  0
 13 15  2  0  0  0  0
 14 13  1  0  0  0  0
 15 16  1  0  0  0  0
 17 16  2  0  0  0  0
 17 20  1  0  0  0  0
 18 11  1  0  0  0  0
 18 19  1  0  0  0  0
 20 21  1  0  0  0  0
 22 27  1  0  0  0  0
 23 29  1  0  0  0  0
 24 23  1  0  0  0  0
 24 31  1  0  0  0  0
 25 24  2  0  0  0  0
 26 27  2  0  0  0  0
 26 25  1  0  0  0  0
 27 28  1  0  0  0  0
 28 23  2  0  0  0  0
 30 25  1  0  0  0  0
 31 37  1  0  0  0  0
 32 31  1  0  0  0  0
 32 33  2  0  0  0  0
 33 34  1  0  0  0  0
 34 36  1  0  0  0  0
 34 35  2  0  0  0  0
 36 41  1  0  0  0  0
 37 38  2  0  0  0  0
 37 36  1  0  0  0  0
 39 32  1  0  0  0  0
 40 33  1  0  0  0  0
M  END
>  <minimizedAffinity>
-6.32075071

$$$$

 OpenBabel03272500093D

 41 44  0  0  0  0  0  0  0  0999 V2000
   36.5010   26.6620   31.3770 C   0  0  0  0  0  0  0  0  0  0  0  0
   35.3270   26.2300   30.7770 C   0  0  0  0  0  0  0  0  0  0  0  0
   34.9100   24.9240   30.9090 C   0  0  0  0  0  0  0  0  0  0  0  0
   35.6810   24.0360   31.6530 C   0  0  0  0  0  0  0  0  0  0  0  0
   36.8570   24.4810   32.2520 C   0  0  0  0  0  0  0  0  0  0  0  0
   37.2560   25.7770   32.1110 C   0  0  0  0  0  0  0  0  0  0  0  0
   34.6950   26.8820   30.1890 H   0  0  0  0  0  0  0  0  0  0  0  0
   33.9910   24.5980   30.4360 H   0  0  0  0  0  0  0  0  0  0  0  0
   35.3690   23.0090   31.7660 H   0  0  0  0  0  0  0  0  0  0  0  0
   37.4550   23.7880   32.8300 H   0  0  0  0  0  0  0  0  0  0  0  0
   38.2220   26.5940   34.0590 C   0  0  0  0  0  0  0  0  0  0  0  0
   38.4680   26.2460   32.7310 C   0  0  0  0  0  0  0  0  0  0  0  0
   39.7560   26.3950   32.2570 C   0  0  0  0  0  0  0  0  0  0  0  0
   39.8230   26.0940   31.2170 H   0  0  0  0  0  0  0  0  0  0  0  0
   40.7590   26.8720   33.0740 C   0  0  0  0  0  3  0  0  0  0  0  0
   40.5160   27.2160   34.3880 C   0  0  0  0  0  3  0  0  0  0  0  0
   39.2390   27.0770   34.8900 C   0  0  0  0  0  0  0  0  0  0  0  0
   36.9920   26.5180   34.7360 O   0  0  0  0  0  0  0  0  0  0  0  0
   36.6680   27.3060   35.2890 H   0  0  0  0  0  0  0  0  0  0  0  0
   39.0670   27.4380   36.2080 O   0  0  0  0  0  0  0  0  0  0  0  0
   39.3350   28.3460   36.5540 H   0  0  0  0  0  0  0  0  0  0  0  0
   36.7930   28.0030   31.1550 O   0  0  0  0  0  0  0  0  0  0  0  0
   34.9320   29.2780   33.9560 C   0  0  0  0  0  0  0  0  0  0  0  0
   35.0470   30.6630   33.8190 C   0  0  0  0  0  0  0  0  0  0  0  0
   35.7900   31.1330   32.7250 C   0  0  0  0  0  0  0  0  0  0  0  0
   36.3450   30.2220   31.8770 N   0  0  0  0  0  0  0  0  0  0  0  0
   36.2130   28.9050   32.0400 C   0  0  0  0  0  0  0  0  0  0  0  0
   35.4980   28.4190   33.0930 N   0  0  0  0  0  0  0  0  0  0  0  0
   34.3730   28.8510   34.7780 H   0  0  0  0  0  0  0  0  0  0  0  0
   35.8760   32.2080   32.6220 H   0  0  0  0  0  0  0  0  0  0  0  0
   34.4210   31.4970   34.7700 N   0  0  0  0  0  0  0  0  0  0  0  0
   33.1810   31.9470   34.6170 C   0  0  0  0  0  0  0  0  0  0  0  0
   32.6300   32.7730   35.6020 C   0  0  0  0  0  0  0  0  0  0  0  0
   33.4320   33.0470   36.6550 C   0  0  0  0  0  0  0  0  0  0  0  0
   32.9230   33.7980   37.5460 O   0  0  0  0  0  0  0  0  0  0  0  0
   34.6650   32.6200   36.8460 N   0  0  0  0  0  0  0  0  0  0  0  0
   35.1830   31.8180   35.8730 C   0  0  0  0  0  0  0  0  0  0  0  0
   36.3610   31.3980   36.0330 O   0  0  0  0  0  0  0  0  0  0  0  0
   32.6020   31.6780   33.7370 H   0  0  0  0  0  0  0  0  0  0  0  0
   31.6220   33.1570   35.5090 H   0  0  0  0  0  0  0  0  0  0  0  0
   35.2320   32.8730   37.6900 H   0  0  0  0  0  0  0  0  0  0  0  0
  1  6  1  0  0  0  0
  2  3  1  0  0  0  0
  2  1  2  0  0  0  0
  3  4  2  0  0  0  0
  4  9  1  0  0  0  0
  4  5  1  0  0  0  0
  5 10  1  0  0  0  0
  6  5  2  0  0  0  0
  6 12  1  0  0  0  0
  7  2  1  0  0  0  0
  8  3  1  0  0  0  0
 11 18  1  0  0  0  0
 11 17  1  0  0  0  0
 12 11  2  0  0  0  0
 13 12  1  0  0  0  0
 13 15  2  0  0  0  0
 14 13  1  0  0  0  0
 15 16  1  0  0  0  0
 16 17  2  0  0  0  0
 17 20  1  0  0  0  0
 18 19  1  0  0  0  0
 20 21  1  0  0  0  0
 22  1  1  0  0  0  0
 22 27  1  0  0  0  0
 23 29  1  0  0  0  0
 24 23  1  0  0  0  0
 24 31  1  0  0  0  0
 25 24  2  0  0  0  0
 26 27  2  0  0  0  0
 26 25  1  0  0  0  0
 27 28  1  0  0  0  0
 28 23  2  0  0  0  0
 30 25  1  0  0  0  0
 31 37  1  0  0  0  0
 32 31  1  0  0  0  0
 32 33  2  0  0  0  0
 33 34  1  0  0  0  0
 34 36  1  0  0  0  0
 34 35  2  0  0  0  0
 36 41  1  0  0  0  0
 37 38  2  0  0  0  0
 37 36  1  0  0  0  0
 39 32  1  0  0  0  0
 40 33  1  0  0  0  0
M  END
>  <minimizedAffinity>
-6.28919268

$$$$

 OpenBabel03272500093D

 41 44  0  0  0  0  0  0  0  0999 V2000
   37.9960   23.5740   33.1580 C   0  0  0  0  0  0  0  0  0  0  0  0
   36.9800   23.6260   32.2160 C   0  0  0  0  0  0  0  0  0  0  0  0
   36.1620   22.5380   32.0030 C   0  0  0  0  0  0  0  0  0  0  0  0
   36.3640   21.3800   32.7470 C   0  0  0  0  0  0  0  0  0  0  0  0
   37.3870   21.3390   33.6910 C   0  0  0  0  0  0  0  0  0  0  0  0
   38.1880   22.4230   33.8880 C   0  0  0  0  0  0  0  0  0  0  0  0
   36.7840   24.5030   31.6140 H   0  0  0  0  0  0  0  0  0  0  0  0
   35.3710   22.5910   31.2650 H   0  0  0  0  0  0  0  0  0  0  0  0
   35.7330   20.5190   32.5930 H   0  0  0  0  0  0  0  0  0  0  0  0
   37.5430   20.4360   34.2680 H   0  0  0  0  0  0  0  0  0  0  0  0
   38.7240   22.6160   36.1410 C   0  0  0  0  0  0  0  0  0  0  0  0
   39.2450   22.3910   34.8660 C   0  0  0  0  0  0  0  0  0  0  0  0
   40.6050   22.1820   34.7580 C   0  0  0  0  0  0  0  0  0  0  0  0
   40.8900   22.0190   33.7230 H   0  0  0  0  0  0  0  0  0  0  0  0
   41.4140   22.1960   35.8730 C   0  0  0  0  0  3  0  0  0  0  0  0
   40.8990   22.4190   37.1340 C   0  0  0  0  0  3  0  0  0  0  0  0
   39.5440   22.6310   37.2750 C   0  0  0  0  0  0  0  0  0  0  0  0
   37.3780   22.8490   36.4710 O   0  0  0  0  0  0  0  0  0  0  0  0
   37.1320   23.6160   37.0900 H   0  0  0  0  0  0  0  0  0  0  0  0
   39.0980   22.8460   38.5600 O   0  0  0  0  0  0  0  0  0  0  0  0
   39.4890   23.5650   39.1490 H   0  0  0  0  0  0  0  0  0  0  0  0
   38.7390   24.7450   33.2600 O   0  0  0  0  0  0  0  0  0  0  0  0
   36.6820   27.2020   34.8900 C   0  0  0  0  0  0  0  0  0  0  0  0
   36.5550   28.2080   33.9300 C   0  0  0  0  0  0  0  0  0  0  0  0
   37.2070   28.0020   32.7040 C   0  0  0  0  0  0  0  0  0  0  0  0
   37.9120   26.8490   32.5300 N   0  0  0  0  0  0  0  0  0  0  0  0
   38.0110   25.9090   33.4710 C   0  0  0  0  0  0  0  0  0  0  0  0
   37.3880   26.0820   34.6720 N   0  0  0  0  0  0  0  0  0  0  0  0
   36.2030   27.3010   35.8560 H   0  0  0  0  0  0  0  0  0  0  0  0
   37.1060   28.7840   31.9620 H   0  0  0  0  0  0  0  0  0  0  0  0
   35.7930   29.3550   34.2390 N   0  0  0  0  0  0  0  0  0  0  0  0
   36.1600   30.2210   35.1780 C   0  0  0  0  0  0  0  0  0  0  0  0
   35.3500   31.3350   35.4300 C   0  0  0  0  0  0  0  0  0  0  0  0
   34.2350   31.4330   34.6720 C   0  0  0  0  0  0  0  0  0  0  0  0
   33.5060   32.4480   34.9090 O   0  0  0  0  0  0  0  0  0  0  0  0
   33.8370   30.5990   33.7320 N   0  0  0  0  0  0  0  0  0  0  0  0
   34.6400   29.5210   33.5040 C   0  0  0  0  0  0  0  0  0  0  0  0
   34.2790   28.7080   32.6090 O   0  0  0  0  0  0  0  0  0  0  0  0
   37.0740   30.0670   35.7430 H   0  0  0  0  0  0  0  0  0  0  0  0
   35.6180   32.0590   36.1880 H   0  0  0  0  0  0  0  0  0  0  0  0
   32.9570   30.7380   33.1810 H   0  0  0  0  0  0  0  0  0  0  0  0
  1 22  1  0  0  0  0
  1  6  1  0  0  0  0
  2  1  2  0  0  0  0
  3  2  1  0  0  0  0
  3  4  2  0  0  0  0
  4  5  1  0  0  0  0
  5  6  2  0  0  0  0
  5 10  1  0  0  0  0
  6 12  1  0  0  0  0
  7  2  1  0  0  0  0
  8  3  1  0  0  0  0
  9  4  1  0  0  0  0
 11 18  1  0  0  0  0
 11 17  1  0  0  0  0
 12 11  2  0  0  0  0
 13 12  1  0  0  0  0
 13 15  2  0  0  0  0
 14 13  1  0  0  0  0
 15 16  1  0  0  0  0
 16 17  2  0  0  0  0
 17 20  1  0  0  0  0
 18 19  1  0  0  0  0
 20 21  1  0  0  0  0
 22 27  1  0  0  0  0
 23 29  1  0  0  0  0
 24 31  1  0  0  0  0
 24 23  2  0  0  0  0
 25 24  1  0  0  0  0
 26 25  2  0  0  0  0
 26 27  1  0  0  0  0
 27 28  2  0  0  0  0
 28 23  1  0  0  0  0
 30 25  1  0  0  0  0
 31 32  1  0  0  0  0
 32 33  2  0  0  0  0
 32 39  1  0  0  0  0
 33 40  1  0  0  0  0
 34 35  2  0  0  0  0
 34 33  1  0  0  0  0
 36 34  1  0  0  0  0
 37 36  1  0  0  0  0
 37 31  1  0  0  0  0
 38 37  2  0  0  0  0
 41 36  1  0  0  0  0
M  END
>  <minimizedAffinity>
-6.18166494

$$$$

 OpenBabel03272500093D

 41 44  0  0  0  0  0  0  0  0999 V2000
   37.6480   23.2670   33.3040 C   0  0  0  0  0  0  0  0  0  0  0  0
   37.1380   22.9620   32.0520 C   0  0  0  0  0  0  0  0  0  0  0  0
   36.4830   21.7700   31.8310 C   0  0  0  0  0  0  0  0  0  0  0  0
   36.3370   20.8700   32.8820 C   0  0  0  0  0  0  0  0  0  0  0  0
   36.8530   21.1880   34.1350 C   0  0  0  0  0  0  0  0  0  0  0  0
   37.4990   22.3700   34.3370 C   0  0  0  0  0  0  0  0  0  0  0  0
   37.2270   23.6290   31.2040 H   0  0  0  0  0  0  0  0  0  0  0  0
   36.0880   21.5430   30.8480 H   0  0  0  0  0  0  0  0  0  0  0  0
   35.8270   19.9320   32.7260 H   0  0  0  0  0  0  0  0  0  0  0  0
   36.7390   20.4840   34.9510 H   0  0  0  0  0  0  0  0  0  0  0  0
   39.3780   22.3520   35.7030 C   0  0  0  0  0  0  0  0  0  0  0  0
   38.0310   22.7090   35.6320 C   0  0  0  0  0  0  0  0  0  0  0  0
   37.4650   23.2960   36.7440 C   0  0  0  0  0  0  0  0  0  0  0  0
   36.4190   23.5280   36.5700 H   0  0  0  0  0  0  0  0  0  0  0  0
   38.2090   23.5200   37.8830 C   0  0  0  0  0  3  0  0  0  0  0  0
   39.5410   23.1670   37.9530 C   0  0  0  0  0  3  0  0  0  0  0  0
   40.1360   22.5780   36.8570 C   0  0  0  0  0  0  0  0  0  0  0  0
   40.1440   21.7470   34.6900 O   0  0  0  0  0  0  0  0  0  0  0  0
   40.7290   20.9460   34.9070 H   0  0  0  0  0  0  0  0  0  0  0  0
   41.4670   22.2530   36.9960 O   0  0  0  0  0  0  0  0  0  0  0  0
   41.8010   21.6790   37.7540 H   0  0  0  0  0  0  0  0  0  0  0  0
   38.2840   24.5020   33.3750 O   0  0  0  0  0  0  0  0  0  0  0  0
   36.6980   27.7260   33.5230 C   0  0  0  0  0  0  0  0  0  0  0  0
   36.0040   27.8020   32.3130 C   0  0  0  0  0  0  0  0  0  0  0  0
   36.1080   26.7000   31.4510 C   0  0  0  0  0  0  0  0  0  0  0  0
   36.8680   25.6390   31.8430 N   0  0  0  0  0  0  0  0  0  0  0  0
   37.5160   25.6010   33.0070 C   0  0  0  0  0  0  0  0  0  0  0  0
   37.4340   26.6570   33.8650 N   0  0  0  0  0  0  0  0  0  0  0  0
   36.6590   28.5430   34.2320 H   0  0  0  0  0  0  0  0  0  0  0  0
   35.5680   26.7630   30.5140 H   0  0  0  0  0  0  0  0  0  0  0  0
   35.2510   28.9630   32.0300 N   0  0  0  0  0  0  0  0  0  0  0  0
   34.1220   29.2520   32.6680 C   0  0  0  0  0  0  0  0  0  0  0  0
   33.4300   30.4200   32.3290 C   0  0  0  0  0  0  0  0  0  0  0  0
   33.9890   31.1730   31.3550 C   0  0  0  0  0  0  0  0  0  0  0  0
   33.3530   32.2320   31.0540 O   0  0  0  0  0  0  0  0  0  0  0  0
   35.1060   30.9220   30.7000 N   0  0  0  0  0  0  0  0  0  0  0  0
   35.7630   29.7790   31.0460 C   0  0  0  0  0  0  0  0  0  0  0  0
   36.8350   29.5180   30.4320 O   0  0  0  0  0  0  0  0  0  0  0  0
   33.7410   28.5910   33.4400 H   0  0  0  0  0  0  0  0  0  0  0  0
   32.5070   30.6860   32.8280 H   0  0  0  0  0  0  0  0  0  0  0  0
   35.4830   31.5520   29.9530 H   0  0  0  0  0  0  0  0  0  0  0  0
  1 22  1  0  0  0  0
  1  6  1  0  0  0  0
  2  1  2  0  0  0  0
  3  2  1  0  0  0  0
  3  4  2  0  0  0  0
  4  5  1  0  0  0  0
  5  6  2  0  0  0  0
  5 10  1  0  0  0  0
  6 12  1  0  0  0  0
  7  2  1  0  0  0  0
  8  3  1  0  0  0  0
  9  4  1  0  0  0  0
 11 17  1  0  0  0  0
 12 11  2  0  0  0  0
 12 13  1  0  0  0  0
 13 15  2  0  0  0  0
 14 13  1  0  0  0  0
 15 16  1  0  0  0  0
 17 20  1  0  0  0  0
 17 16  2  0  0  0  0
 18 19  1  0  0  0  0
 18 11  1  0  0  0  0
 20 21  1  0  0  0  0
 23 28  1  0  0  0  0
 23 29  1  0  0  0  0
 24 23  2  0  0  0  0
 25 26  2  0  0  0  0
 25 24  1  0  0  0  0
 26 27  1  0  0  0  0
 27 22  1  0  0  0  0
 27 28  2  0  0  0  0
 30 25  1  0  0  0  0
 31 24  1  0  0  0  0
 31 32  1  0  0  0  0
 32 39  1  0  0  0  0
 33 32  2  0  0  0  0
 33 40  1  0  0  0  0
 34 33  1  0  0  0  0
 35 34  2  0  0  0  0
 36 37  1  0  0  0  0
 36 34  1  0  0  0  0
 37 31  1  0  0  0  0
 38 37  2  0  0  0  0
 41 36  1  0  0  0  0
M  END
>  <minimizedAffinity>
-6.17954111

$$$$

 OpenBabel03272500093D

 41 44  0  0  0  0  0  0  0  0999 V2000
   36.4620   26.6500   31.5650 C   0  0  0  0  0  0  0  0  0  0  0  0
   35.3020   26.2110   30.9460 C   0  0  0  0  0  0  0  0  0  0  0  0
   34.9670   24.8740   30.9500 C   0  0  0  0  0  0  0  0  0  0  0  0
   35.8060   23.9650   31.5860 C   0  0  0  0  0  0  0  0  0  0  0  0
   36.9670   24.4180   32.2060 C   0  0  0  0  0  0  0  0  0  0  0  0
   37.2850   25.7430   32.1910 C   0  0  0  0  0  0  0  0  0  0  0  0
   34.6190   26.8780   30.4390 H   0  0  0  0  0  0  0  0  0  0  0  0
   34.0580   24.5420   30.4630 H   0  0  0  0  0  0  0  0  0  0  0  0
   35.5580   22.9140   31.5990 H   0  0  0  0  0  0  0  0  0  0  0  0
   37.6190   23.7080   32.6990 H   0  0  0  0  0  0  0  0  0  0  0  0
   38.2100   26.5590   34.1600 C   0  0  0  0  0  0  0  0  0  0  0  0
   38.4820   26.2210   32.8340 C   0  0  0  0  0  0  0  0  0  0  0  0
   39.7760   26.3850   32.3840 C   0  0  0  0  0  0  0  0  0  0  0  0
   39.8640   26.0910   31.3430 H   0  0  0  0  0  0  0  0  0  0  0  0
   40.7610   26.8670   33.2200 C   0  0  0  0  0  3  0  0  0  0  0  0
   40.4920   27.2010   34.5310 C   0  0  0  0  0  3  0  0  0  0  0  0
   39.2080   27.0480   35.0110 C   0  0  0  0  0  0  0  0  0  0  0  0
   36.9690   26.4680   34.8150 O   0  0  0  0  0  0  0  0  0  0  0  0
   36.6290   27.2500   35.3670 H   0  0  0  0  0  0  0  0  0  0  0  0
   39.0100   27.4000   36.3280 O   0  0  0  0  0  0  0  0  0  0  0  0
   39.2630   28.3090   36.6820 H   0  0  0  0  0  0  0  0  0  0  0  0
   36.6690   28.0230   31.4770 O   0  0  0  0  0  0  0  0  0  0  0  0
   34.9020   29.4310   34.2740 C   0  0  0  0  0  0  0  0  0  0  0  0
   34.0600   30.3760   33.6830 C   0  0  0  0  0  0  0  0  0  0  0  0
   34.1290   30.5040   32.2880 C   0  0  0  0  0  0  0  0  0  0  0  0
   35.0010   29.7090   31.6050 N   0  0  0  0  0  0  0  0  0  0  0  0
   35.7910   28.8170   32.2040 C   0  0  0  0  0  0  0  0  0  0  0  0
   35.7450   28.6710   33.5580 N   0  0  0  0  0  0  0  0  0  0  0  0
   34.8970   29.2840   35.3460 H   0  0  0  0  0  0  0  0  0  0  0  0
   33.4740   31.2370   31.8340 H   0  0  0  0  0  0  0  0  0  0  0  0
   33.2020   31.1350   34.5080 N   0  0  0  0  0  0  0  0  0  0  0  0
   33.5600   32.3080   35.0190 C   0  0  0  0  0  0  0  0  0  0  0  0
   32.6560   33.0020   35.8300 C   0  0  0  0  0  0  0  0  0  0  0  0
   31.4610   32.3990   36.0260 C   0  0  0  0  0  0  0  0  0  0  0  0
   30.6460   33.0370   36.7650 O   0  0  0  0  0  0  0  0  0  0  0  0
   31.0670   31.2400   35.5380 N   0  0  0  0  0  0  0  0  0  0  0  0
   31.9640   30.5810   34.7510 C   0  0  0  0  0  0  0  0  0  0  0  0
   31.6090   29.4690   34.2720 O   0  0  0  0  0  0  0  0  0  0  0  0
   34.5430   32.7230   34.8110 H   0  0  0  0  0  0  0  0  0  0  0  0
   32.9150   33.9590   36.2630 H   0  0  0  0  0  0  0  0  0  0  0  0
   30.1220   30.8310   35.7320 H   0  0  0  0  0  0  0  0  0  0  0  0
  1  6  1  0  0  0  0
  2  3  1  0  0  0  0
  2  1  2  0  0  0  0
  3  4  2  0  0  0  0
  4  9  1  0  0  0  0
  4  5  1  0  0  0  0
  5 10  1  0  0  0  0
  6  5  2  0  0  0  0
  6 12  1  0  0  0  0
  7  2  1  0  0  0  0
  8  3  1  0  0  0  0
 11 18  1  0  0  0  0
 11 17  1  0  0  0  0
 12 11  2  0  0  0  0
 13 12  1  0  0  0  0
 13 15  2  0  0  0  0
 14 13  1  0  0  0  0
 15 16  1  0  0  0  0
 16 17  2  0  0  0  0
 17 20  1  0  0  0  0
 18 19  1  0  0  0  0
 20 21  1  0  0  0  0
 22  1  1  0  0  0  0
 22 27  1  0  0  0  0
 23 29  1  0  0  0  0
 24 23  1  0  0  0  0
 24 31  1  0  0  0  0
 25 24  2  0  0  0  0
 26 27  2  0  0  0  0
 26 25  1  0  0  0  0
 27 28  1  0  0  0  0
 28 23  2  0  0  0  0
 30 25  1  0  0  0  0
 31 37  1  0  0  0  0
 31 32  1  0  0  0  0
 32 33  2  0  0  0  0
 33 34  1  0  0  0  0
 33 40  1  0  0  0  0
 34 35  2  0  0  0  0
 36 41  1  0  0  0  0
 36 34  1  0  0  0  0
 37 36  1  0  0  0  0
 38 37  2  0  0  0  0
 39 32  1  0  0  0  0
M  END
>  <minimizedAffinity>
-6.04806566

$$$$

 OpenBabel03272500093D

 41 44  0  0  0  0  0  0  0  0999 V2000
   35.5860   30.2620   32.4280 C   0  0  0  0  0  0  0  0  0  0  0  0
   36.4760   30.2540   31.3650 C   0  0  0  0  0  0  0  0  0  0  0  0
   37.0370   31.4270   30.9100 C   0  0  0  0  0  0  0  0  0  0  0  0
   36.7020   32.6260   31.5310 C   0  0  0  0  0  0  0  0  0  0  0  0
   35.8080   32.6210   32.5980 C   0  0  0  0  0  0  0  0  0  0  0  0
   35.2610   31.4530   33.0350 C   0  0  0  0  0  0  0  0  0  0  0  0
   36.7670   29.3480   30.8500 H   0  0  0  0  0  0  0  0  0  0  0  0
   37.7320   31.4090   30.0790 H   0  0  0  0  0  0  0  0  0  0  0  0
   37.1330   33.5540   31.1870 H   0  0  0  0  0  0  0  0  0  0  0  0
   35.5480   33.5570   33.0790 H   0  0  0  0  0  0  0  0  0  0  0  0
   35.0030   31.7750   35.3210 C   0  0  0  0  0  0  0  0  0  0  0  0
   34.3390   31.4380   34.1420 C   0  0  0  0  0  0  0  0  0  0  0  0
   32.9880   31.1680   34.2220 C   0  0  0  0  0  0  0  0  0  0  0  0
   32.5840   30.9210   33.2450 H   0  0  0  0  0  0  0  0  0  0  0  0
   32.3240   31.2300   35.4280 C   0  0  0  0  0  3  0  0  0  0  0  0
   32.9810   31.5620   36.5950 C   0  0  0  0  0  3  0  0  0  0  0  0
   34.3320   31.8380   36.5480 C   0  0  0  0  0  0  0  0  0  0  0  0
   36.3670   32.0850   35.4610 O   0  0  0  0  0  0  0  0  0  0  0  0
   36.9130   31.6520   36.2000 H   0  0  0  0  0  0  0  0  0  0  0  0
   34.9240   32.1630   37.7480 O   0  0  0  0  0  0  0  0  0  0  0  0
   34.8560   31.5650   38.5570 H   0  0  0  0  0  0  0  0  0  0  0  0
   35.1010   29.0050   32.7730 O   0  0  0  0  0  0  0  0  0  0  0  0
   37.4910   27.3890   34.9200 C   0  0  0  0  0  0  0  0  0  0  0  0
   37.9270   26.3020   34.1600 C   0  0  0  0  0  0  0  0  0  0  0  0
   37.3620   26.1520   32.8830 C   0  0  0  0  0  0  0  0  0  0  0  0
   36.4380   27.0650   32.4710 N   0  0  0  0  0  0  0  0  0  0  0  0
   36.0460   28.0920   33.2250 C   0  0  0  0  0  0  0  0  0  0  0  0
   36.5770   28.2630   34.4690 N   0  0  0  0  0  0  0  0  0  0  0  0
   37.8870   27.5600   35.9120 H   0  0  0  0  0  0  0  0  0  0  0  0
   37.7030   25.3080   32.2970 H   0  0  0  0  0  0  0  0  0  0  0  0
   38.8920   25.4300   34.7070 N   0  0  0  0  0  0  0  0  0  0  0  0
   38.5600   24.3580   35.4190 C   0  0  0  0  0  0  0  0  0  0  0  0
   39.5750   23.5420   35.9320 C   0  0  0  0  0  0  0  0  0  0  0  0
   40.8390   23.9270   35.6480 C   0  0  0  0  0  0  0  0  0  0  0  0
   41.7530   23.1790   36.1180 O   0  0  0  0  0  0  0  0  0  0  0  0
   41.2100   24.9800   34.9460 N   0  0  0  0  0  0  0  0  0  0  0  0
   40.2050   25.7620   34.4570 C   0  0  0  0  0  0  0  0  0  0  0  0
   40.5360   26.7750   33.7820 O   0  0  0  0  0  0  0  0  0  0  0  0
   37.5160   24.1190   35.6020 H   0  0  0  0  0  0  0  0  0  0  0  0
   39.3400   22.6610   36.5170 H   0  0  0  0  0  0  0  0  0  0  0  0
   42.2130   25.2200   34.7640 H   0  0  0  0  0  0  0  0  0  0  0  0
  1 22  1  0  0  0  0
  1  6  1  0  0  0  0
  2  1  2  0  0  0  0
  3  2  1  0  0  0  0
  3  4  2  0  0  0  0
  4  5  1  0  0  0  0
  5  6  2  0  0  0  0
  5 10  1  0  0  0  0
  6 12  1  0  0  0  0
  7  2  1  0  0  0  0
  8  3  1  0  0  0  0
  9  4  1  0  0  0  0
 11 18  1  0  0  0  0
 11 17  1  0  0  0  0
 12 13  1  0  0  0  0
 12 11  2  0  0  0  0
 13 15  2  0  0  0  0
 14 13  1  0  0  0  0
 15 16  1  0  0  0  0
 17 16  2  0  0  0  0
 17 20  1  0  0  0  0
 18 19  1  0  0  0  0
 20 21  1  0  0  0  0
 22 27  1  0  0  0  0
 23 29  1  0  0  0  0
 24 31  1  0  0  0  0
 24 23  2  0  0  0  0
 25 24  1  0  0  0  0
 26 25  2  0  0  0  0
 26 27  1  0  0  0  0
 27 28  2  0  0  0  0
 28 23  1  0  0  0  0
 30 25  1  0  0  0  0
 31 32  1  0  0  0  0
 32 39  1  0  0  0  0
 32 33  2  0  0  0  0
 33 40  1  0  0  0  0
 34 33  1  0  0  0  0
 34 35  2  0  0  0  0
 36 34  1  0  0  0  0
 37 31  1  0  0  0  0
 37 36  1  0  0  0  0
 38 37  2  0  0  0  0
 41 36  1  0  0  0  0
M  END
>  <minimizedAffinity>
-5.97281313

$$$$

 OpenBabel03272500093D

 41 44  0  0  0  0  0  0  0  0999 V2000
   40.3770   27.2010   32.3060 C   0  0  0  0  0  0  0  0  0  0  0  0
   41.2750   27.5460   31.3080 C   0  0  0  0  0  0  0  0  0  0  0  0
   42.6200   27.6640   31.5820 C   0  0  0  0  0  0  0  0  0  0  0  0
   43.0710   27.4320   32.8780 C   0  0  0  0  0  0  0  0  0  0  0  0
   42.1600   27.0860   33.8720 C   0  0  0  0  0  0  0  0  0  0  0  0
   40.8330   26.9740   33.5840 C   0  0  0  0  0  0  0  0  0  0  0  0
   40.9720   27.7350   30.2870 H   0  0  0  0  0  0  0  0  0  0  0  0
   43.3120   27.9330   30.7940 H   0  0  0  0  0  0  0  0  0  0  0  0
   44.1210   27.5210   33.1110 H   0  0  0  0  0  0  0  0  0  0  0  0
   42.5150   26.9080   34.8800 H   0  0  0  0  0  0  0  0  0  0  0  0
   39.9240   25.2350   34.8270 C   0  0  0  0  0  0  0  0  0  0  0  0
   39.8850   26.6120   34.6060 C   0  0  0  0  0  0  0  0  0  0  0  0
   39.0010   27.3570   35.3590 C   0  0  0  0  0  0  0  0  0  0  0  0
   39.0610   28.4090   35.0980 H   0  0  0  0  0  0  0  0  0  0  0  0
   38.1880   26.7560   36.2960 C   0  0  0  0  0  3  0  0  0  0  0  0
   38.2270   25.3940   36.5150 C   0  0  0  0  0  3  0  0  0  0  0  0
   39.1000   24.6220   35.7780 C   0  0  0  0  0  0  0  0  0  0  0  0
   40.7460   24.3000   34.1740 O   0  0  0  0  0  0  0  0  0  0  0  0
   40.3470   23.4390   33.8120 H   0  0  0  0  0  0  0  0  0  0  0  0
   39.0870   23.2720   36.0480 O   0  0  0  0  0  0  0  0  0  0  0  0
   38.2400   22.7270   36.0140 H   0  0  0  0  0  0  0  0  0  0  0  0
   39.0550   27.1220   31.8810 O   0  0  0  0  0  0  0  0  0  0  0  0
   36.6580   24.5010   32.4440 C   0  0  0  0  0  0  0  0  0  0  0  0
   37.3130   23.3570   31.9820 C   0  0  0  0  0  0  0  0  0  0  0  0
   38.6080   23.5300   31.4710 C   0  0  0  0  0  0  0  0  0  0  0  0
   39.1390   24.7850   31.4580 N   0  0  0  0  0  0  0  0  0  0  0  0
   38.4830   25.8550   31.9090 C   0  0  0  0  0  0  0  0  0  0  0  0
   37.2240   25.7180   32.4110 N   0  0  0  0  0  0  0  0  0  0  0  0
   35.6570   24.4350   32.8500 H   0  0  0  0  0  0  0  0  0  0  0  0
   39.1120   22.6410   31.1140 H   0  0  0  0  0  0  0  0  0  0  0  0
   36.6470   22.1140   32.0530 N   0  0  0  0  0  0  0  0  0  0  0  0
   35.9490   21.6220   31.0360 C   0  0  0  0  0  0  0  0  0  0  0  0
   35.3140   20.3840   31.1830 C   0  0  0  0  0  0  0  0  0  0  0  0
   35.4740   19.7800   32.3820 C   0  0  0  0  0  0  0  0  0  0  0  0
   34.8940   18.6560   32.5060 O   0  0  0  0  0  0  0  0  0  0  0  0
   36.1580   20.2330   33.4140 N   0  0  0  0  0  0  0  0  0  0  0  0
   36.7680   21.4420   33.2490 C   0  0  0  0  0  0  0  0  0  0  0  0
   37.4280   21.8960   34.2240 O   0  0  0  0  0  0  0  0  0  0  0  0
   35.8700   22.1730   30.1030 H   0  0  0  0  0  0  0  0  0  0  0  0
   34.7370   19.9530   30.3740 H   0  0  0  0  0  0  0  0  0  0  0  0
   36.2400   19.7100   34.3180 H   0  0  0  0  0  0  0  0  0  0  0  0
  1  6  1  0  0  0  0
  2  3  1  0  0  0  0
  2  1  2  0  0  0  0
  3  4  2  0  0  0  0
  4  9  1  0  0  0  0
  4  5  1  0  0  0  0
  5 10  1  0  0  0  0
  6  5  2  0  0  0  0
  6 12  1  0  0  0  0
  7  2  1  0  0  0  0
  8  3  1  0  0  0  0
 11 17  1  0  0  0  0
 12 11  2  0  0  0  0
 12 13  1  0  0  0  0
 13 15  2  0  0  0  0
 14 13  1  0  0  0  0
 15 16  1  0  0  0  0
 17 20  1  0  0  0  0
 17 16  2  0  0  0  0
 18 11  1  0  0  0  0
 19 18  1  0  0  0  0
 21 20  1  0  0  0  0
 22 27  1  0  0  0  0
 22  1  1  0  0  0  0
 23 29  1  0  0  0  0
 24 31  1  0  0  0  0
 24 23  2  0  0  0  0
 25 24  1  0  0  0  0
 26 25  2  0  0  0  0
 26 27  1  0  0  0  0
 27 28  2  0  0  0  0
 28 23  1  0  0  0  0
 30 25  1  0  0  0  0
 31 37  1  0  0  0  0
 32 33  2  0  0  0  0
 32 31  1  0  0  0  0
 33 34  1  0  0  0  0
 34 35  2  0  0  0  0
 34 36  1  0  0  0  0
 36 41  1  0  0  0  0
 37 36  1  0  0  0  0
 37 38  2  0  0  0  0
 39 32  1  0  0  0  0
 40 33  1  0  0  0  0
M  END
>  <minimizedAffinity>
-5.96374273

$$$$
