
 OpenBabel03272508063D

 37 40  0  0  0  0  0  0  0  0999 V2000
   38.8400   31.0080   45.7810 C   0  0  0  0  0  0  0  0  0  0  0  0
   39.9400   31.8270   45.9890 C   0  0  0  0  0  0  0  0  0  0  0  0
   40.7880   31.7820   44.8900 C   0  0  0  0  0  0  0  0  0  0  0  0
   40.1540   30.9260   44.0540 N   0  0  0  0  0  0  0  0  0  0  0  0
   39.0190   30.4710   44.5660 N   0  0  0  0  0  0  0  0  0  0  0  0
   40.1480   32.4310   46.8660 H   0  0  0  0  0  0  0  0  0  0  0  0
   41.7110   32.2640   44.6810 H   0  0  0  0  0  0  0  0  0  0  0  0
   37.7450   30.8030   46.7070 C   0  0  0  0  0  0  0  0  0  0  0  0
   37.9740   31.0080   48.0950 C   0  0  0  0  0  0  0  0  0  0  0  0
   36.8960   30.8020   48.9560 C   0  0  0  0  0  0  0  0  0  0  0  0
   35.7020   30.4220   48.4270 N   0  0  0  0  0  0  0  0  0  0  0  0
   35.5130   30.2330   47.1020 C   0  0  0  0  0  0  0  0  0  0  0  0
   36.5440   30.4280   46.2530 N   0  0  0  0  0  0  0  0  0  0  0  0
   38.9180   31.3080   48.4900 H   0  0  0  0  0  0  0  0  0  0  0  0
   34.5400   29.9300   46.7420 H   0  0  0  0  0  0  0  0  0  0  0  0
   37.1150   31.0120   50.4170 C   0  0  0  0  0  0  0  0  0  0  0  0
   36.5980   32.2580   50.6890 F   0  0  0  0  0  0  0  0  0  0  0  0
   36.4370   30.0790   51.1870 F   0  0  0  0  0  0  0  0  0  0  0  0
   38.4580   31.0170   50.7450 F   0  0  0  0  0  0  0  0  0  0  0  0
   40.5730   30.4830   42.7190 C   0  0  0  0  0  0  0  0  0  0  0  0
   40.2010   31.1840   41.5630 C   0  0  0  0  0  0  0  0  0  0  0  0
   40.6090   30.7460   40.3500 C   0  0  0  0  0  0  0  0  0  0  0  0
   41.4080   29.5780   40.2820 C   0  0  0  0  0  0  0  0  0  0  0  0
   41.5700   29.1030   42.0660 S   0  0  0  0  0  0  0  0  0  0  0  0
   39.5840   32.0880   41.5900 H   0  0  0  0  0  0  0  0  0  0  0  0
   40.4300   31.1410   39.3700 H   0  0  0  0  0  0  0  0  0  0  0  0
   41.5140   27.5670   38.9800 C   0  0  0  0  0  0  0  0  0  0  0  0
   42.0190   28.8160   39.2600 C   0  0  0  0  0  0  0  0  0  0  0  0
   43.0870   29.4030   38.6250 C   0  0  0  0  0  0  0  0  0  0  0  0
   43.4460   30.3780   38.8740 H   0  0  0  0  0  0  0  0  0  0  0  0
   43.7240   28.6840   37.6050 C   0  0  0  0  0  3  0  0  0  0  0  0
   43.2470   27.4080   37.2830 C   0  0  0  0  0  3  0  0  0  0  0  0
   42.1540   26.8540   37.9600 C   0  0  0  0  0  0  0  0  0  0  0  0
   40.4370   26.9780   39.6240 O   0  0  0  0  0  0  0  0  0  0  0  0
   39.4730   27.1550   39.4020 H   0  0  0  0  0  0  0  0  0  0  0  0
   41.6740   25.5880   37.6470 O   0  0  0  0  0  0  0  0  0  0  0  0
   41.2100   25.4710   36.7510 H   0  0  0  0  0  0  0  0  0  0  0  0
  1  2  1  0  0  0  0
  1  8  1  0  0  0  0
  2  6  1  0  0  0  0
  3  2  2  0  0  0  0
  4  5  1  0  0  0  0
  4  3  1  0  0  0  0
  5  1  2  0  0  0  0
  7  3  1  0  0  0  0
  8  9  1  0  0  0  0
  9 14  1  0  0  0  0
  9 10  2  0  0  0  0
 10 16  1  0  0  0  0
 11 10  1  0  0  0  0
 12 11  2  0  0  0  0
 13  8  2  0  0  0  0
 13 12  1  0  0  0  0
 15 12  1  0  0  0  0
 16 17  1  0  0  0  0
 16 19  1  0  0  0  0
 16 18  1  0  0  0  0
 20  4  1  0  0  0  0
 21 25  1  0  0  0  0
 21 20  2  0  0  0  0
 22 21  1  0  0  0  0
 23 22  2  0  0  0  0
 23 24  1  0  0  0  0
 24 20  1  0  0  0  0
 26 22  1  0  0  0  0
 27 28  1  0  0  0  0
 27 34  1  0  0  0  0
 28 23  1  0  0  0  0
 29 30  1  0  0  0  0
 29 28  2  0  0  0  0
 31 29  1  0  0  0  0
 32 31  2  0  0  0  0
 32 33  1  0  0  0  0
 33 27  2  0  0  0  0
 35 34  1  0  0  0  0
 36 33  1  0  0  0  0
 37 36  1  0  0  0  0
M  END
>  <minimizedAffinity>
-6.50675821

>  <minimizedRMSD>
0.320953578

$$$$
