
 OpenBabel03272509153D

 49 52  0  0  1  0  0  0  0  0999 V2000
   34.9890   29.9800   46.6990 C   0  0  0  0  0  0  0  0  0  0  0  0
   36.2880   30.5400   46.7600 C   0  0  0  0  0  0  0  0  0  0  0  0
   36.9800   30.7050   45.5640 C   0  0  0  0  0  0  0  0  0  0  0  0
   36.3810   30.3240   44.4020 N   0  0  0  0  0  0  0  0  0  0  0  0
   35.1450   29.7950   44.3810 C   0  0  0  0  0  0  0  0  0  0  0  0
   34.4550   29.6240   45.5090 N   0  0  0  0  0  0  0  0  0  0  0  0
   34.3830   29.8300   47.5640 H   0  0  0  0  0  0  0  0  0  0  0  0
   34.6350   29.4800   43.4700 H   0  0  0  0  0  0  0  0  0  0  0  0
   36.7620   30.8630   48.0860 N   0  0  0  0  0  0  0  0  0  0  0  0
   37.2270   31.9900   48.8400 C   0  0  0  0  0  0  0  0  0  0  0  0
   38.5110   31.5010   49.4330 C   0  0  0  0  0  0  0  0  0  0  0  0
   38.2360   30.0160   49.6930 C   0  0  0  0  0  0  0  0  0  0  0  0
   36.8780   29.7940   49.1190 C   0  0  1  0  0  0  0  0  0  0  0  0
   37.1820   32.9740   48.4280 H   0  0  0  0  0  0  0  0  0  0  0  0
   36.5170   32.0440   49.7250 H   0  0  0  0  0  0  0  0  0  0  0  0
   38.7780   32.0340   50.3720 H   0  0  0  0  0  0  0  0  0  0  0  0
   39.3640   31.5370   48.7570 H   0  0  0  0  0  0  0  0  0  0  0  0
   39.0280   29.3600   49.3160 H   0  0  0  0  0  0  0  0  0  0  0  0
   38.1850   29.8550   50.8030 H   0  0  0  0  0  0  0  0  0  0  0  0
   36.6870   28.8160   48.6880 H   0  0  0  0  0  0  0  0  0  0  0  0
   34.8260   29.1740   50.3740 C   0  0  0  0  0  0  0  0  0  0  0  0
   34.5430   28.1460   49.6750 O   0  0  0  0  0  0  0  0  0  0  0  0
   35.8910   30.1020   50.1520 N   0  0  0  0  0  0  0  0  0  0  0  0
   34.0480   29.0880   51.1110 H   0  0  0  0  0  0  0  0  0  0  0  0
   35.6650   30.8240   50.8630 H   0  0  0  0  0  0  0  0  0  0  0  0
   38.3040   31.2640   45.5090 C   0  0  0  0  0  0  0  0  0  0  0  0
   38.5310   32.4350   46.1710 C   0  0  0  0  0  0  0  0  0  0  0  0
   39.7690   33.0480   46.2060 C   0  0  0  0  0  0  0  0  0  0  0  0
   40.8160   32.4280   45.5270 C   0  0  0  0  0  0  0  0  0  0  0  0
   40.6480   31.2450   44.8370 C   0  0  0  0  0  0  0  0  0  0  0  0
   39.3600   30.6960   44.8570 C   0  0  0  0  0  0  0  0  0  0  0  0
   37.8450   33.0730   46.6990 H   0  0  0  0  0  0  0  0  0  0  0  0
   40.0820   33.9430   46.6820 H   0  0  0  0  0  0  0  0  0  0  0  0
   41.8340   32.8120   45.4840 H   0  0  0  0  0  0  0  0  0  0  0  0
   41.4580   30.7580   44.3030 H   0  0  0  0  0  0  0  0  0  0  0  0
   39.1570   29.4320   44.1140 C   0  0  0  0  0  0  0  0  0  0  0  0
   38.0790   29.0920   44.2350 H   0  0  0  0  0  0  0  0  0  0  0  0
   39.7680   28.6280   44.5840 H   0  0  0  0  0  0  0  0  0  0  0  0
   40.4840   29.1260   41.9450 C   0  0  0  0  0  0  0  0  0  0  0  0
   39.3640   29.5060   42.6550 C   0  0  0  0  0  0  0  0  0  0  0  0
   38.2950   30.0020   41.8950 C   0  0  0  0  0  0  0  0  0  0  0  0
   37.3950   30.3120   42.3960 H   0  0  0  0  0  0  0  0  0  0  0  0
   38.3360   30.1140   40.5100 C   0  0  0  0  0  3  0  0  0  0  0  0
   39.4410   29.7400   39.7970 C   0  0  0  0  0  3  0  0  0  0  0  0
   40.4920   29.2520   40.5520 C   0  0  0  0  0  0  0  0  0  0  0  0
   41.5320   28.6380   42.6860 O   0  0  0  0  0  0  0  0  0  0  0  0
   41.9520   27.7400   42.5880 H   0  0  0  0  0  0  0  0  0  0  0  0
   41.6330   28.8620   39.8530 O   0  0  0  0  0  0  0  0  0  0  0  0
   41.5890   28.4440   38.9290 H   0  0  0  0  0  0  0  0  0  0  0  0
  1  2  1  0  0  0  0
  1  7  1  0  0  0  0
  2  9  1  0  0  0  0
  3  2  2  0  0  0  0
  4  3  1  0  0  0  0
  5  4  2  0  0  0  0
  5  6  1  0  0  0  0
  6  1  2  0  0  0  0
  8  5  1  0  0  0  0
  9 10  1  0  0  0  0
  9 13  1  0  0  0  0
 10 11  1  0  0  0  0
 10 15  1  0  0  0  0
 11 12  1  0  0  0  0
 11 16  1  0  0  0  0
 12 19  1  0  0  0  0
 13 20  1  6  0  0  0
 13 12  1  0  0  0  0
 13 23  1  0  0  0  0
 14 10  1  0  0  0  0
 17 11  1  0  0  0  0
 18 12  1  0  0  0  0
 21 24  1  0  0  0  0
 22 21  2  0  0  0  0
 23 21  1  0  0  0  0
 23 25  1  0  0  0  0
 26  3  1  0  0  0  0
 26 27  1  0  0  0  0
 27 28  2  0  0  0  0
 27 32  1  0  0  0  0
 28 33  1  0  0  0  0
 29 28  1  0  0  0  0
 30 31  1  0  0  0  0
 30 29  2  0  0  0  0
 31 26  2  0  0  0  0
 34 29  1  0  0  0  0
 35 30  1  0  0  0  0
 36 37  1  0  0  0  0
 36 38  1  0  0  0  0
 36 31  1  0  0  0  0
 39 40  1  0  0  0  0
 39 46  1  0  0  0  0
 40 36  1  0  0  0  0
 41 42  1  0  0  0  0
 41 40  2  0  0  0  0
 43 41  1  0  0  0  0
 44 43  2  0  0  0  0
 44 45  1  0  0  0  0
 45 39  2  0  0  0  0
 47 46  1  0  0  0  0
 48 45  1  0  0  0  0
 49 48  1  0  0  0  0
M  END
>  <minimizedAffinity>
-6.55358315

>  <minimizedRMSD>
1.12002456

$$$$
