
 OpenBabel03272508063D

 37 40  0  0  0  0  0  0  0  0999 V2000
   38.8100   31.0920   45.6500 C   0  0  0  0  0  0  0  0  0  0  0  0
   39.8460   32.0040   45.7900 C   0  0  0  0  0  0  0  0  0  0  0  0
   40.6860   31.9500   44.6850 C   0  0  0  0  0  0  0  0  0  0  0  0
   40.1140   30.9960   43.9150 N   0  0  0  0  0  0  0  0  0  0  0  0
   39.0210   30.4910   44.4690 N   0  0  0  0  0  0  0  0  0  0  0  0
   40.0130   32.6790   46.6230 H   0  0  0  0  0  0  0  0  0  0  0  0
   41.5690   32.4860   44.4350 H   0  0  0  0  0  0  0  0  0  0  0  0
   37.7410   30.8670   46.6000 C   0  0  0  0  0  0  0  0  0  0  0  0
   37.9870   31.1090   47.9790 C   0  0  0  0  0  0  0  0  0  0  0  0
   36.9340   30.8820   48.8640 C   0  0  0  0  0  0  0  0  0  0  0  0
   35.7450   30.4470   48.3660 N   0  0  0  0  0  0  0  0  0  0  0  0
   35.5390   30.2240   47.0490 C   0  0  0  0  0  0  0  0  0  0  0  0
   36.5470   30.4380   46.1770 N   0  0  0  0  0  0  0  0  0  0  0  0
   38.9270   31.4510   48.3490 H   0  0  0  0  0  0  0  0  0  0  0  0
   34.5710   29.8790   46.7150 H   0  0  0  0  0  0  0  0  0  0  0  0
   37.1720   31.1300   50.3170 C   0  0  0  0  0  0  0  0  0  0  0  0
   36.6610   32.3850   50.5610 F   0  0  0  0  0  0  0  0  0  0  0  0
   36.5010   30.2210   51.1190 F   0  0  0  0  0  0  0  0  0  0  0  0
   38.5190   31.1410   50.6270 F   0  0  0  0  0  0  0  0  0  0  0  0
   40.5560   30.4980   42.6070 C   0  0  0  0  0  0  0  0  0  0  0  0
   40.2180   31.1600   41.4190 C   0  0  0  0  0  0  0  0  0  0  0  0
   40.6470   30.6720   40.2310 C   0  0  0  0  0  0  0  0  0  0  0  0
   41.4310   29.4930   40.2250 C   0  0  0  0  0  0  0  0  0  0  0  0
   41.5480   29.0820   42.0280 S   0  0  0  0  0  0  0  0  0  0  0  0
   39.6140   32.0730   41.3980 H   0  0  0  0  0  0  0  0  0  0  0  0
   40.4950   31.0330   39.2340 H   0  0  0  0  0  0  0  0  0  0  0  0
   41.4930   27.4660   38.9430 C   0  0  0  0  0  0  0  0  0  0  0  0
   42.0540   28.6850   39.2450 C   0  0  0  0  0  0  0  0  0  0  0  0
   43.1910   29.2010   38.6700 C   0  0  0  0  0  0  0  0  0  0  0  0
   43.5930   30.1560   38.9360 H   0  0  0  0  0  0  0  0  0  0  0  0
   43.8430   28.4370   37.6940 C   0  0  0  0  0  3  0  0  0  0  0  0
   43.3110   27.1890   37.3530 C   0  0  0  0  0  3  0  0  0  0  0  0
   42.1500   26.7060   37.9670 C   0  0  0  0  0  0  0  0  0  0  0  0
   40.3460   26.9480   39.5250 O   0  0  0  0  0  0  0  0  0  0  0  0
   39.4100   27.1800   39.2450 H   0  0  0  0  0  0  0  0  0  0  0  0
   41.6120   25.4690   37.6340 O   0  0  0  0  0  0  0  0  0  0  0  0
   41.1960   25.3710   36.7110 H   0  0  0  0  0  0  0  0  0  0  0  0
  1  2  1  0  0  0  0
  1  8  1  0  0  0  0
  2  6  1  0  0  0  0
  3  2  2  0  0  0  0
  4  5  1  0  0  0  0
  4  3  1  0  0  0  0
  5  1  2  0  0  0  0
  7  3  1  0  0  0  0
  8  9  1  0  0  0  0
  9 14  1  0  0  0  0
  9 10  2  0  0  0  0
 10 16  1  0  0  0  0
 11 10  1  0  0  0  0
 12 11  2  0  0  0  0
 13  8  2  0  0  0  0
 13 12  1  0  0  0  0
 15 12  1  0  0  0  0
 16 17  1  0  0  0  0
 16 19  1  0  0  0  0
 16 18  1  0  0  0  0
 20  4  1  0  0  0  0
 21 20  2  0  0  0  0
 22 21  1  0  0  0  0
 23 22  2  0  0  0  0
 23 24  1  0  0  0  0
 24 20  1  0  0  0  0
 25 21  1  0  0  0  0
 26 22  1  0  0  0  0
 27 28  1  0  0  0  0
 27 34  1  0  0  0  0
 28 23  1  0  0  0  0
 29 30  1  0  0  0  0
 29 28  2  0  0  0  0
 31 29  1  0  0  0  0
 32 31  2  0  0  0  0
 32 33  1  0  0  0  0
 33 27  2  0  0  0  0
 35 34  1  0  0  0  0
 36 33  1  0  0  0  0
 37 36  1  0  0  0  0
M  END
>  <minimizedAffinity>
-6.48864698

>  <minimizedRMSD>
1.40384841

$$$$
