
 OpenBabel03272505313D

 42 45  0  0  0  0  0  0  0  0999 V2000
   37.4030   31.2400   47.0380 N   0  0  0  0  0  0  0  0  0  0  0  0
   36.7030   31.0530   45.8880 C   0  0  0  0  0  0  0  0  0  0  0  0
   37.1170   31.5940   44.6750 C   0  0  0  0  0  0  0  0  0  0  0  0
   38.2940   32.3500   44.6730 C   0  0  0  0  0  0  0  0  0  0  0  0
   38.7070   32.8580   43.6080 O   0  0  0  0  0  0  0  0  0  0  0  0
   38.9980   32.5360   45.8400 N   0  0  0  0  0  0  0  0  0  0  0  0
   38.4990   31.9670   46.9310 C   0  0  0  0  0  0  0  0  0  0  0  0
   39.1720   32.1630   47.9700 O   0  0  0  0  0  0  0  0  0  0  0  0
   35.7930   30.4660   45.8950 H   0  0  0  0  0  0  0  0  0  0  0  0
   37.4340   29.5520   50.3410 C   0  0  0  0  0  0  0  0  0  0  0  0
   37.8630   30.1010   49.1280 C   0  0  0  0  0  0  0  0  0  0  0  0
   36.9790   30.6930   48.2460 C   0  0  0  0  0  0  0  0  0  0  0  0
   35.6900   30.7120   48.6140 N   0  0  0  0  0  0  0  0  0  0  0  0
   35.2320   30.1900   49.7840 C   0  0  0  0  0  0  0  0  0  0  0  0
   36.1340   29.6060   50.6440 N   0  0  0  0  0  0  0  0  0  0  0  0
   38.1880   29.1110   50.9690 H   0  0  0  0  0  0  0  0  0  0  0  0
   38.9190   30.0640   48.8660 H   0  0  0  0  0  0  0  0  0  0  0  0
   34.1720   30.2270   50.0470 H   0  0  0  0  0  0  0  0  0  0  0  0
   36.4010   31.4200   43.4210 C   0  0  0  0  0  0  0  0  0  0  0  0
   36.5960   30.3640   42.5780 C   0  0  0  0  0  0  0  0  0  0  0  0
   35.9300   30.1770   41.3840 C   0  0  0  0  0  0  0  0  0  0  0  0
   34.9830   31.1420   41.0090 C   0  0  0  0  0  0  0  0  0  0  0  0
   34.8140   32.1950   41.8870 C   0  0  0  0  0  0  0  0  0  0  0  0
   35.4980   32.2990   43.0210 N   0  0  0  0  0  0  0  0  0  0  0  0
   37.3220   29.5920   42.8280 H   0  0  0  0  0  0  0  0  0  0  0  0
   36.1250   29.3280   40.7610 H   0  0  0  0  0  0  0  0  0  0  0  0
   34.4660   31.0090   40.0940 H   0  0  0  0  0  0  0  0  0  0  0  0
   32.8820   33.6310   42.4810 C   0  0  0  0  0  0  0  0  0  0  0  0
   33.8490   33.2410   41.5730 C   0  0  0  0  0  0  0  0  0  0  0  0
   33.7880   33.9390   40.3860 C   0  0  0  0  0  0  0  0  0  0  0  0
   34.5050   33.7030   39.6150 H   0  0  0  0  0  0  0  0  0  0  0  0
   32.8560   34.9230   40.1330 C   0  0  0  0  0  3  0  0  0  0  0  0
   31.9210   35.2550   41.0920 C   0  0  0  0  0  3  0  0  0  0  0  0
   31.9200   34.5990   42.3060 C   0  0  0  0  0  0  0  0  0  0  0  0
   32.8680   32.9710   43.7250 O   0  0  0  0  0  0  0  0  0  0  0  0
   33.4220   33.4510   44.4510 H   0  0  0  0  0  0  0  0  0  0  0  0
   31.0050   34.8900   43.3090 O   0  0  0  0  0  0  0  0  0  0  0  0
   30.8690   35.8780   43.5310 H   0  0  0  0  0  0  0  0  0  0  0  0
   40.2080   33.3160   45.8260 C   0  0  0  0  0  0  0  0  0  0  0  0
   40.1680   34.2540   44.8510 F   0  0  0  0  0  0  0  0  0  0  0  0
   41.3440   32.5600   45.5950 F   0  0  0  0  0  0  0  0  0  0  0  0
   40.3230   33.9740   47.0560 F   0  0  0  0  0  0  0  0  0  0  0  0
  1 12  1  0  0  0  0
  2  9  1  0  0  0  0
  2  1  1  0  0  0  0
  3  2  2  0  0  0  0
  4  3  1  0  0  0  0
  4  6  1  0  0  0  0
  5  4  2  0  0  0  0
  6  7  1  0  0  0  0
  7  1  1  0  0  0  0
  7  8  2  0  0  0  0
 10 15  1  0  0  0  0
 10 16  1  0  0  0  0
 11 10  2  0  0  0  0
 12 13  2  0  0  0  0
 12 11  1  0  0  0  0
 13 14  1  0  0  0  0
 14 18  1  0  0  0  0
 14 15  2  0  0  0  0
 17 11  1  0  0  0  0
 19  3  1  0  0  0  0
 20 25  1  0  0  0  0
 20 19  2  0  0  0  0
 21 20  1  0  0  0  0
 22 21  2  0  0  0  0
 22 23  1  0  0  0  0
 23 24  2  0  0  0  0
 24 19  1  0  0  0  0
 26 21  1  0  0  0  0
 27 22  1  0  0  0  0
 28 35  1  0  0  0  0
 29 23  1  0  0  0  0
 29 28  2  0  0  0  0
 30 29  1  0  0  0  0
 31 30  1  0  0  0  0
 32 30  2  0  0  0  0
 32 33  1  0  0  0  0
 33 34  2  0  0  0  0
 34 28  1  0  0  0  0
 34 37  1  0  0  0  0
 35 36  1  0  0  0  0
 37 38  1  0  0  0  0
 39  6  1  0  0  0  0
 39 42  1  0  0  0  0
 40 39  1  0  0  0  0
 41 39  1  0  0  0  0
M  END
>  <minimizedAffinity>
-7.25525236

>  <minimizedRMSD>
0.858337164

$$$$
