
 OpenBabel03272508063D

 37 40  0  0  0  0  0  0  0  0999 V2000
   38.8430   30.9220   45.8190 C   0  0  0  0  0  0  0  0  0  0  0  0
   39.9980   31.6500   46.0720 C   0  0  0  0  0  0  0  0  0  0  0  0
   40.8460   31.6010   44.9740 C   0  0  0  0  0  0  0  0  0  0  0  0
   40.1600   30.8360   44.0930 N   0  0  0  0  0  0  0  0  0  0  0  0
   38.9920   30.4370   44.5770 N   0  0  0  0  0  0  0  0  0  0  0  0
   40.2410   32.1920   46.9790 H   0  0  0  0  0  0  0  0  0  0  0  0
   41.8030   32.0270   44.7930 H   0  0  0  0  0  0  0  0  0  0  0  0
   37.7310   30.7480   46.7300 C   0  0  0  0  0  0  0  0  0  0  0  0
   37.9470   30.9430   48.1210 C   0  0  0  0  0  0  0  0  0  0  0  0
   36.8530   30.7670   48.9670 C   0  0  0  0  0  0  0  0  0  0  0  0
   35.6550   30.4230   48.4220 N   0  0  0  0  0  0  0  0  0  0  0  0
   35.4780   30.2430   47.0940 C   0  0  0  0  0  0  0  0  0  0  0  0
   36.5260   30.4090   46.2590 N   0  0  0  0  0  0  0  0  0  0  0  0
   38.8950   31.2130   48.5290 H   0  0  0  0  0  0  0  0  0  0  0  0
   34.5010   29.9710   46.7210 H   0  0  0  0  0  0  0  0  0  0  0  0
   37.0590   30.9670   50.4320 C   0  0  0  0  0  0  0  0  0  0  0  0
   36.5600   32.2210   50.7030 F   0  0  0  0  0  0  0  0  0  0  0  0
   36.3560   30.0430   51.1900 F   0  0  0  0  0  0  0  0  0  0  0  0
   38.3980   30.9470   50.7750 F   0  0  0  0  0  0  0  0  0  0  0  0
   40.5550   30.4340   42.7380 C   0  0  0  0  0  0  0  0  0  0  0  0
   40.1920   31.1900   41.6140 C   0  0  0  0  0  0  0  0  0  0  0  0
   40.5780   30.7880   40.3810 C   0  0  0  0  0  0  0  0  0  0  0  0
   41.3440   29.6020   40.2610 C   0  0  0  0  0  0  0  0  0  0  0  0
   41.5070   29.0530   42.0230 S   0  0  0  0  0  0  0  0  0  0  0  0
   39.6020   32.1090   41.6810 H   0  0  0  0  0  0  0  0  0  0  0  0
   40.4020   31.2260   39.4190 H   0  0  0  0  0  0  0  0  0  0  0  0
   43.1350   29.2760   38.6990 C   0  0  0  0  0  0  0  0  0  0  0  0
   41.9250   28.8630   39.2040 C   0  0  0  0  0  0  0  0  0  0  0  0
   41.2110   27.7730   38.7670 C   0  0  0  0  0  0  0  0  0  0  0  0
   40.2710   27.4870   39.1880 H   0  0  0  0  0  0  0  0  0  0  0  0
   41.7470   27.0090   37.7210 C   0  0  0  0  0  0  0  0  0  0  0  0
   42.9770   27.3900   37.1730 C   0  0  0  0  0  0  0  0  0  0  0  0
   43.6660   28.5090   37.6550 C   0  0  0  0  0  0  0  0  0  0  0  0
   43.8530   30.3770   39.1440 O   0  0  0  0  0  0  0  0  0  0  0  0
   44.4570   30.3780   39.9460 H   0  0  0  0  0  0  0  0  0  0  0  0
   44.8880   28.8960   37.1180 O   0  0  0  0  0  0  0  0  0  0  0  0
   45.6890   28.2950   37.2940 H   0  0  0  0  0  0  0  0  0  0  0  0
  1  2  1  0  0  0  0
  1  8  1  0  0  0  0
  2  6  1  0  0  0  0
  3  2  2  0  0  0  0
  4  5  1  0  0  0  0
  4  3  1  0  0  0  0
  5  1  2  0  0  0  0
  7  3  1  0  0  0  0
  8  9  1  0  0  0  0
  9 14  1  0  0  0  0
  9 10  2  0  0  0  0
 10 16  1  0  0  0  0
 11 10  1  0  0  0  0
 12 11  2  0  0  0  0
 13  8  2  0  0  0  0
 13 12  1  0  0  0  0
 15 12  1  0  0  0  0
 16 17  1  0  0  0  0
 16 19  1  0  0  0  0
 16 18  1  0  0  0  0
 20  4  1  0  0  0  0
 21 25  1  0  0  0  0
 21 20  2  0  0  0  0
 22 21  1  0  0  0  0
 23 22  2  0  0  0  0
 23 24  1  0  0  0  0
 24 20  1  0  0  0  0
 26 22  1  0  0  0  0
 27 34  1  0  0  0  0
 27 28  1  0  0  0  0
 28 23  1  0  0  0  0
 29 30  1  0  0  0  0
 29 28  2  0  0  0  0
 31 29  1  0  0  0  0
 32 33  1  0  0  0  0
 32 31  2  0  0  0  0
 33 27  2  0  0  0  0
 34 35  1  0  0  0  0
 36 37  1  0  0  0  0
 36 33  1  0  0  0  0
M  END
>  <minimizedAffinity>
-6.73995924

>  <minimizedRMSD>
0.369899511

$$$$
