
 OpenBabel03272506093D

 46 49  0  0  0  0  0  0  0  0999 V2000
   34.2280   28.0830   49.1320 C   0  0  0  0  0  0  0  0  0  0  0  0
   35.0820   28.0350   48.4310 H   0  0  0  0  0  0  0  0  0  0  0  0
   34.2800   27.1000   49.6890 H   0  0  0  0  0  0  0  0  0  0  0  0
   32.9100   28.1250   48.3920 C   0  0  0  0  0  0  0  0  0  0  0  0
   32.8800   28.6260   47.0310 C   0  0  0  0  0  0  0  0  0  0  0  0
   31.1680   28.4670   46.6490 S   0  0  0  0  0  0  0  0  0  0  0  0
   30.6980   27.7620   48.3220 C   0  0  0  0  0  0  0  0  0  0  0  0
   31.7600   27.7490   48.8560 N   0  0  0  0  0  0  0  0  0  0  0  0
   29.4150   27.3370   48.8540 N   0  0  0  0  0  0  0  0  0  0  0  0
   28.4670   26.8490   47.9200 C   0  0  0  0  0  0  0  0  0  0  0  0
   27.0770   26.7560   48.4420 C   0  0  0  0  0  0  0  0  0  0  0  0
   26.8920   27.4600   49.7140 N   0  0  0  0  0  0  0  0  0  0  0  0
   27.8550   26.8410   50.6100 C   0  0  0  0  0  0  0  0  0  0  0  0
   29.1950   27.4430   50.2890 C   0  0  0  0  0  0  0  0  0  0  0  0
   33.7110   28.9770   46.4800 H   0  0  0  0  0  0  0  0  0  0  0  0
   28.4520   27.5430   47.0470 H   0  0  0  0  0  0  0  0  0  0  0  0
   28.8010   25.8580   47.5000 H   0  0  0  0  0  0  0  0  0  0  0  0
   26.8680   25.6860   48.6940 H   0  0  0  0  0  0  0  0  0  0  0  0
   26.2970   27.0900   47.7520 H   0  0  0  0  0  0  0  0  0  0  0  0
   25.9120   27.3090   50.0140 H   0  0  0  0  0  0  0  0  0  0  0  0
   27.6250   27.0670   51.6750 H   0  0  0  0  0  0  0  0  0  0  0  0
   27.8870   25.7480   50.4960 H   0  0  0  0  0  0  0  0  0  0  0  0
   29.1390   28.5250   50.6070 H   0  0  0  0  0  0  0  0  0  0  0  0
   29.9640   26.9500   50.8900 H   0  0  0  0  0  0  0  0  0  0  0  0
   34.3360   29.1870   50.0980 C   0  0  0  0  0  0  0  0  0  0  0  0
   34.2520   28.8070   51.1500 H   0  0  0  0  0  0  0  0  0  0  0  0
   33.6170   30.0060   49.8980 H   0  0  0  0  0  0  0  0  0  0  0  0
   37.6870   30.4560   51.0590 C   0  0  0  0  0  0  0  0  0  0  0  0
   38.1840   30.9280   49.8550 C   0  0  0  0  0  0  0  0  0  0  0  0
   37.3890   30.8190   48.7220 C   0  0  0  0  0  0  0  0  0  0  0  0
   36.1660   30.2520   48.8690 N   0  0  0  0  0  0  0  0  0  0  0  0
   35.7190   29.8030   50.0600 C   0  0  0  0  0  0  0  0  0  0  0  0
   36.4700   29.9050   51.1370 N   0  0  0  0  0  0  0  0  0  0  0  0
   38.3390   30.5560   51.9330 H   0  0  0  0  0  0  0  0  0  0  0  0
   39.1390   31.3600   49.7980 H   0  0  0  0  0  0  0  0  0  0  0  0
   38.5330   32.3100   47.0200 C   0  0  0  0  0  0  0  0  0  0  0  0
   37.7340   31.2580   47.3860 C   0  0  0  0  0  0  0  0  0  0  0  0
   37.2270   30.5690   46.3060 C   0  0  0  0  0  0  0  0  0  0  0  0
   36.5800   29.7150   46.4110 H   0  0  0  0  0  0  0  0  0  0  0  0
   37.4950   30.9020   44.9950 C   0  0  0  0  0  3  0  0  0  0  0  0
   38.2940   31.9550   44.6830 C   0  0  0  0  0  3  0  0  0  0  0  0
   38.8250   32.6770   45.7260 C   0  0  0  0  0  0  0  0  0  0  0  0
   39.1000   33.0780   48.0000 O   0  0  0  0  0  0  0  0  0  0  0  0
   38.7490   33.9890   48.2380 H   0  0  0  0  0  0  0  0  0  0  0  0
   39.6430   33.7540   45.4430 O   0  0  0  0  0  0  0  0  0  0  0  0
   40.5640   33.6950   45.0370 H   0  0  0  0  0  0  0  0  0  0  0  0
  1  3  1  0  0  0  0
  1 25  1  0  0  0  0
  2  1  1  0  0  0  0
  4  8  1  0  0  0  0
  4  1  1  0  0  0  0
  5  4  2  0  0  0  0
  6  5  1  0  0  0  0
  6  7  1  0  0  0  0
  7  9  1  0  0  0  0
  7  8  2  0  0  0  0
  9 14  1  0  0  0  0
 10 11  1  0  0  0  0
 10  9  1  0  0  0  0
 11 18  1  0  0  0  0
 11 12  1  0  0  0  0
 12 20  1  0  0  0  0
 12 13  1  0  0  0  0
 13 21  1  0  0  0  0
 14 23  1  0  0  0  0
 14 13  1  0  0  0  0
 14 24  1  0  0  0  0
 15  5  1  0  0  0  0
 16 10  1  0  0  0  0
 17 10  1  0  0  0  0
 19 11  1  0  0  0  0
 22 13  1  0  0  0  0
 25 26  1  0  0  0  0
 27 25  1  0  0  0  0
 28 33  1  0  0  0  0
 28 34  1  0  0  0  0
 29 28  2  0  0  0  0
 30 31  2  0  0  0  0
 30 29  1  0  0  0  0
 31 32  1  0  0  0  0
 32 25  1  0  0  0  0
 32 33  2  0  0  0  0
 35 29  1  0  0  0  0
 36 37  1  0  0  0  0
 36 43  1  0  0  0  0
 37 30  1  0  0  0  0
 38 39  1  0  0  0  0
 38 37  2  0  0  0  0
 40 38  1  0  0  0  0
 41 40  2  0  0  0  0
 41 42  1  0  0  0  0
 42 36  2  0  0  0  0
 43 44  1  0  0  0  0
 45 42  1  0  0  0  0
 46 45  1  0  0  0  0
M  END
>  <minimizedAffinity>
-7.99443007

>  <minimizedRMSD>
1.99648941

$$$$
