
 OpenBabel03272508283D

 40 43  0  0  1  0  0  0  0  0999 V2000
   33.8940   29.0380   47.3380 C   0  0  2  0  0  0  0  0  0  0  0  0
   34.6970   28.2180   48.3420 C   0  0  2  0  0  0  0  0  0  0  0  0
   33.8340   27.9630   49.3720 O   0  0  0  0  0  0  0  0  0  0  0  0
   32.5410   28.0290   48.9510 C   0  0  0  0  0  0  0  0  0  0  0  0
   32.5450   28.3200   47.4640 C   0  0  1  0  0  0  0  0  0  0  0  0
   33.7630   30.0810   47.6580 H   0  0  0  0  0  0  0  0  0  0  0  0
   34.9900   27.2820   47.8450 H   0  0  0  0  0  0  0  0  0  0  0  0
   32.0450   27.0450   49.0900 H   0  0  0  0  0  0  0  0  0  0  0  0
   31.9500   28.8480   49.4260 H   0  0  0  0  0  0  0  0  0  0  0  0
   32.5870   27.3630   46.9210 H   0  0  0  0  0  0  0  0  0  0  0  0
   35.7520   30.4870   49.0100 C   0  0  1  0  0  0  0  0  0  0  0  0
   35.8520   29.0650   48.7740 C   0  0  1  0  0  0  0  0  0  0  0  0
   35.9980   29.5290   50.1860 C   0  0  0  0  0  0  0  0  0  0  0  0
   34.8450   31.0930   49.1850 H   0  0  0  0  0  0  0  0  0  0  0  0
   36.8140   28.7240   48.2940 H   0  0  0  0  0  0  0  0  0  0  0  0
   37.0150   29.5140   50.6490 H   0  0  0  0  0  0  0  0  0  0  0  0
   35.2070   29.3950   50.9210 H   0  0  0  0  0  0  0  0  0  0  0  0
   36.9440   31.4020   48.7750 C   0  0  0  0  0  0  0  0  0  0  0  0
   37.1480   32.4380   49.6900 C   0  0  0  0  0  0  0  0  0  0  0  0
   38.2290   33.2550   49.4300 C   0  0  0  0  0  0  0  0  0  0  0  0
   39.0310   33.0380   48.3360 N   0  0  0  0  0  0  0  0  0  0  0  0
   38.7950   32.0200   47.4740 C   0  0  0  0  0  0  0  0  0  0  0  0
   37.7410   31.1940   47.6960 N   0  0  0  0  0  0  0  0  0  0  0  0
   36.4830   32.5550   50.5290 H   0  0  0  0  0  0  0  0  0  0  0  0
   38.4260   34.0740   50.1190 H   0  0  0  0  0  0  0  0  0  0  0  0
   39.4520   31.8860   46.6250 H   0  0  0  0  0  0  0  0  0  0  0  0
   34.3780   28.9780   46.0510 O   0  0  0  0  0  0  0  0  0  0  0  0
   34.3660   28.0750   45.6860 H   0  0  0  0  0  0  0  0  0  0  0  0
   31.5080   29.0990   47.0500 O   0  0  0  0  0  0  0  0  0  0  0  0
   30.7420   29.9620   45.0830 C   0  0  0  0  0  0  0  0  0  0  0  0
   30.7260   28.8680   45.9580 C   0  0  0  0  0  0  0  0  0  0  0  0
   29.9590   27.7880   45.5880 C   0  0  0  0  0  0  0  0  0  0  0  0
   29.9960   26.9890   46.3040 H   0  0  0  0  0  0  0  0  0  0  0  0
   29.2430   27.7760   44.4210 C   0  0  0  0  0  3  0  0  0  0  0  0
   29.2570   28.8510   43.5610 C   0  0  0  0  0  3  0  0  0  0  0  0
   30.0150   29.9540   43.8980 C   0  0  0  0  0  0  0  0  0  0  0  0
   31.4500   31.1410   45.2760 O   0  0  0  0  0  0  0  0  0  0  0  0
   31.0530   31.8460   45.8880 H   0  0  0  0  0  0  0  0  0  0  0  0
   29.9920   30.9990   42.9990 O   0  0  0  0  0  0  0  0  0  0  0  0
   30.8250   31.5470   42.7580 H   0  0  0  0  0  0  0  0  0  0  0  0
  1  5  1  0  0  0  0
  1  6  1  1  0  0  0
  1  2  1  0  0  0  0
  2  7  1  6  0  0  0
  2 12  1  0  0  0  0
  2  3  1  0  0  0  0
  4  8  1  0  0  0  0
  4  3  1  0  0  0  0
  4  9  1  0  0  0  0
  5 10  1  6  0  0  0
  5  4  1  0  0  0  0
 11 14  1  6  0  0  0
 11 13  1  0  0  0  0
 12 15  1  6  0  0  0
 12 11  1  0  0  0  0
 12 13  1  0  0  0  0
 13 16  1  0  0  0  0
 13 17  1  0  0  0  0
 18 11  1  0  0  0  0
 18 19  1  0  0  0  0
 19 24  1  0  0  0  0
 20 19  2  0  0  0  0
 20 25  1  0  0  0  0
 21 20  1  0  0  0  0
 22 23  1  0  0  0  0
 22 21  2  0  0  0  0
 23 18  2  0  0  0  0
 26 22  1  0  0  0  0
 27  1  1  0  0  0  0
 28 27  1  0  0  0  0
 29  5  1  0  0  0  0
 30 37  1  0  0  0  0
 30 31  1  0  0  0  0
 31 29  1  0  0  0  0
 32 31  2  0  0  0  0
 32 33  1  0  0  0  0
 34 32  1  0  0  0  0
 35 36  1  0  0  0  0
 35 34  2  0  0  0  0
 36 30  2  0  0  0  0
 37 38  1  0  0  0  0
 39 36  1  0  0  0  0
 40 39  1  0  0  0  0
M  END
>  <minimizedAffinity>
-4.98518944

>  <minimizedRMSD>
0.284208834

$$$$
