
 OpenBabel03272505523D

 46 49  0  0  1  0  0  0  0  0999 V2000
   37.2790   29.2700   50.5590 C   0  0  0  0  0  0  0  0  0  0  0  0
   37.4290   30.6510   50.8360 C   0  0  0  0  0  0  0  0  0  0  0  0
   36.6710   31.5320   50.0740 C   0  0  0  0  0  0  0  0  0  0  0  0
   35.8430   31.0220   49.1210 N   0  0  0  0  0  0  0  0  0  0  0  0
   35.7330   29.7170   48.8950 C   0  0  0  0  0  0  0  0  0  0  0  0
   36.4490   28.8400   49.6110 N   0  0  0  0  0  0  0  0  0  0  0  0
   34.8510   29.2470   47.8890 N   0  0  0  0  0  0  0  0  0  0  0  0
   34.2280   27.9390   47.9740 C   0  0  0  0  0  0  0  0  0  0  0  0
   32.7470   28.0580   47.8220 C   0  0  0  0  0  0  0  0  0  0  0  0
   32.2720   29.2640   47.3480 N   0  0  0  0  0  0  0  0  0  0  0  0
   33.0930   30.1320   46.5430 C   0  0  0  0  0  0  0  0  0  0  0  0
   34.5290   30.0520   46.7270 C   0  0  2  0  0  0  0  0  0  0  0  0
   37.8180   28.4720   51.0860 H   0  0  0  0  0  0  0  0  0  0  0  0
   38.1120   30.9190   51.6080 H   0  0  0  0  0  0  0  0  0  0  0  0
   36.7710   32.5820   50.2700 H   0  0  0  0  0  0  0  0  0  0  0  0
   34.7220   27.1560   47.4100 H   0  0  0  0  0  0  0  0  0  0  0  0
   34.3870   27.6160   49.0590 H   0  0  0  0  0  0  0  0  0  0  0  0
   32.1840   27.7730   48.7350 H   0  0  0  0  0  0  0  0  0  0  0  0
   32.4580   27.2530   47.0820 H   0  0  0  0  0  0  0  0  0  0  0  0
   31.4070   29.6720   47.7100 H   0  0  0  0  0  0  0  0  0  0  0  0
   32.7870   31.1620   46.9410 H   0  0  0  0  0  0  0  0  0  0  0  0
   32.6250   30.1380   45.5730 H   0  0  0  0  0  0  0  0  0  0  0  0
   35.0080   31.0640   46.8950 H   0  0  0  0  0  0  0  0  0  0  0  0
   35.2560   29.4790   45.6020 N   0  0  2  0  0  0  0  0  0  0  0  0
   36.3730   30.3410   45.2070 C   0  0  0  0  0  0  0  0  0  0  0  0
   36.4770   30.2660   43.6940 C   0  0  0  0  0  0  0  0  0  0  0  0
   35.5190   29.1900   43.3490 C   0  0  0  0  0  0  0  0  0  0  0  0
   34.4510   29.2940   44.4550 C   0  0  1  0  0  0  0  0  0  0  0  0
   36.0950   31.3740   45.5010 H   0  0  0  0  0  0  0  0  0  0  0  0
   37.3060   30.0420   45.7010 H   0  0  0  0  0  0  0  0  0  0  0  0
   37.5230   30.0800   43.3820 H   0  0  0  0  0  0  0  0  0  0  0  0
   36.1750   31.2290   43.2240 H   0  0  0  0  0  0  0  0  0  0  0  0
   35.0490   29.2910   42.3520 H   0  0  0  0  0  0  0  0  0  0  0  0
   36.0150   28.1990   43.4800 H   0  0  0  0  0  0  0  0  0  0  0  0
   33.9170   30.1840   44.0860 H   0  0  0  0  0  0  0  0  0  0  0  0
   32.4350   27.9570   43.8180 C   0  0  0  0  0  0  0  0  0  0  0  0
   33.7400   28.0310   44.2930 C   0  0  0  0  0  0  0  0  0  0  0  0
   34.2710   26.7900   44.5580 C   0  0  0  0  0  0  0  0  0  0  0  0
   35.2840   26.7090   44.9190 H   0  0  0  0  0  0  0  0  0  0  0  0
   33.6250   25.5860   44.3900 C   0  0  0  0  0  3  0  0  0  0  0  0
   32.3300   25.5830   43.9170 C   0  0  0  0  0  3  0  0  0  0  0  0
   31.7280   26.7890   43.6260 C   0  0  0  0  0  0  0  0  0  0  0  0
   31.7290   29.1030   43.4930 O   0  0  0  0  0  0  0  0  0  0  0  0
   31.0570   29.4560   44.1380 H   0  0  0  0  0  0  0  0  0  0  0  0
   30.4410   26.7450   43.1580 O   0  0  0  0  0  0  0  0  0  0  0  0
   29.7460   26.3150   43.7580 H   0  0  0  0  0  0  0  0  0  0  0  0
  1  2  1  0  0  0  0
  1 13  1  0  0  0  0
  2 14  1  0  0  0  0
  3 15  1  0  0  0  0
  3  2  2  0  0  0  0
  4  3  1  0  0  0  0
  5  4  2  0  0  0  0
  5  6  1  0  0  0  0
  6  1  2  0  0  0  0
  7  8  1  0  0  0  0
  7  5  1  0  0  0  0
  8 17  1  0  0  0  0
  9  8  1  0  0  0  0
  9 18  1  0  0  0  0
 10 20  1  0  0  0  0
 10  9  1  0  0  0  0
 11 12  1  0  0  0  0
 11 21  1  0  0  0  0
 11 10  1  0  0  0  0
 12 23  1  1  0  0  0
 12  7  1  0  0  0  0
 16  8  1  0  0  0  0
 19  9  1  0  0  0  0
 22 11  1  0  0  0  0
 24 25  1  6  0  0  0
 24 12  1  0  0  0  0
 25 29  1  0  0  0  0
 25 30  1  0  0  0  0
 26 25  1  0  0  0  0
 27 34  1  0  0  0  0
 27 26  1  0  0  0  0
 27 28  1  0  0  0  0
 28 35  1  6  0  0  0
 28 24  1  0  0  0  0
 31 26  1  0  0  0  0
 32 26  1  0  0  0  0
 33 27  1  0  0  0  0
 36 37  1  0  0  0  0
 37 28  1  0  0  0  0
 37 38  2  0  0  0  0
 38 39  1  0  0  0  0
 40 38  1  0  0  0  0
 41 40  2  0  0  0  0
 42 36  2  0  0  0  0
 42 41  1  0  0  0  0
 43 36  1  0  0  0  0
 43 44  1  0  0  0  0
 45 42  1  0  0  0  0
 45 46  1  0  0  0  0
M  END
>  <minimizedAffinity>
-4.79752016

>  <minimizedRMSD>
0.688571215

$$$$
