
 OpenBabel03272504573D

 35 37  0  0  1  0  0  0  0  0999 V2000
   37.0460   31.5480   48.6580 C   0  0  1  0  0  0  0  0  0  0  0  0
   36.2720   30.9020   47.6260 C   0  0  0  0  0  0  0  0  0  0  0  0
   37.2570   30.1130   48.4330 C   0  0  2  0  0  0  0  0  0  0  0  0
   36.6160   31.7960   49.6880 H   0  0  0  0  0  0  0  0  0  0  0  0
   36.5580   31.1360   46.5790 H   0  0  0  0  0  0  0  0  0  0  0  0
   35.2370   31.1240   47.8120 H   0  0  0  0  0  0  0  0  0  0  0  0
   37.9290   29.5960   47.7610 H   0  0  0  0  0  0  0  0  0  0  0  0
   38.1910   32.4580   48.3110 C   0  0  0  0  0  0  0  0  0  0  0  0
   38.5460   33.4000   49.2930 C   0  0  0  0  0  0  0  0  0  0  0  0
   39.5950   34.2220   48.9520 C   0  0  0  0  0  0  0  0  0  0  0  0
   40.2070   34.0950   47.7530 N   0  0  0  0  0  0  0  0  0  0  0  0
   39.8350   33.1720   46.8340 C   0  0  0  0  0  0  0  0  0  0  0  0
   38.7920   32.3340   47.1350 N   0  0  0  0  0  0  0  0  0  0  0  0
   40.4720   33.0060   45.6010 N   0  0  0  0  0  0  0  0  0  0  0  0
   38.0680   33.5140   50.2530 H   0  0  0  0  0  0  0  0  0  0  0  0
   39.9040   34.9690   49.6850 H   0  0  0  0  0  0  0  0  0  0  0  0
   41.5150   33.1960   45.6560 H   0  0  0  0  0  0  0  0  0  0  0  0
   39.9900   32.7330   44.7420 H   0  0  0  0  0  0  0  0  0  0  0  0
   36.6860   29.2760   49.4020 O   0  0  0  0  0  0  0  0  0  0  0  0
   34.5800   27.8690   49.8730 O   0  0  0  0  0  0  0  0  0  0  0  0
   35.0540   29.0780   49.1320 P   0  0  1  0  0  0  0  0  0  0  0  0
   34.1880   30.4040   49.8110 O   0  0  0  0  0  0  0  0  0  0  0  0
   33.4930   30.7360   49.2220 H   0  0  0  0  0  0  0  0  0  0  0  0
   34.7920   28.9960   47.4680 O   0  0  0  0  0  0  0  0  0  0  0  0
   32.7500   27.7820   46.8620 C   0  0  0  0  0  0  0  0  0  0  0  0
   33.5010   28.9480   46.9060 C   0  0  0  0  0  0  0  0  0  0  0  0
   32.9310   30.0910   46.3670 C   0  0  0  0  0  0  0  0  0  0  0  0
   33.4560   31.0480   46.3620 H   0  0  0  0  0  0  0  0  0  0  0  0
   31.6760   30.1440   45.7960 C   0  0  0  0  0  3  0  0  0  0  0  0
   30.9450   28.9630   45.7640 C   0  0  0  0  0  3  0  0  0  0  0  0
   31.4850   27.7970   46.2950 C   0  0  0  0  0  0  0  0  0  0  0  0
   33.2780   26.6100   47.3880 O   0  0  0  0  0  0  0  0  0  0  0  0
   34.2370   26.3570   47.4380 H   0  0  0  0  0  0  0  0  0  0  0  0
   30.7230   26.6490   46.2410 O   0  0  0  0  0  0  0  0  0  0  0  0
   29.7300   26.6810   46.0710 H   0  0  0  0  0  0  0  0  0  0  0  0
  1  4  1  1  0  0  0
  2  6  1  0  0  0  0
  2  3  1  0  0  0  0
  2  1  1  0  0  0  0
  3  7  1  6  0  0  0
  3  1  1  0  0  0  0
  3 19  1  0  0  0  0
  5  2  1  0  0  0  0
  8  1  1  0  0  0  0
  8  9  1  0  0  0  0
  9 15  1  0  0  0  0
 10  9  2  0  0  0  0
 10 16  1  0  0  0  0
 11 10  1  0  0  0  0
 12 13  1  0  0  0  0
 12 11  2  0  0  0  0
 13  8  2  0  0  0  0
 14 17  1  0  0  0  0
 14 12  1  0  0  0  0
 18 14  1  0  0  0  0
 21 19  1  0  0  0  0
 21 22  1  0  0  0  0
 21 20  2  1  0  0  0
 23 22  1  0  0  0  0
 24 21  1  0  0  0  0
 25 26  1  0  0  0  0
 25 32  1  0  0  0  0
 26 24  1  0  0  0  0
 27 26  2  0  0  0  0
 28 27  1  0  0  0  0
 29 27  1  0  0  0  0
 30 29  2  0  0  0  0
 30 31  1  0  0  0  0
 31 25  2  0  0  0  0
 32 33  1  0  0  0  0
 34 31  1  0  0  0  0
 35 34  1  0  0  0  0
M  END
>  <minimizedAffinity>
-5.07409811

>  <minimizedRMSD>
0.776207685

$$$$
