
 OpenBabel03272509153D

 49 52  0  0  1  0  0  0  0  0999 V2000
   34.7080   30.1290   46.7570 C   0  0  0  0  0  0  0  0  0  0  0  0
   36.0530   30.5660   46.8160 C   0  0  0  0  0  0  0  0  0  0  0  0
   36.7450   30.7020   45.6170 C   0  0  0  0  0  0  0  0  0  0  0  0
   36.1030   30.4120   44.4530 N   0  0  0  0  0  0  0  0  0  0  0  0
   34.8230   29.9990   44.4330 C   0  0  0  0  0  0  0  0  0  0  0  0
   34.1320   29.8580   45.5640 N   0  0  0  0  0  0  0  0  0  0  0  0
   34.1000   30.0090   47.6240 H   0  0  0  0  0  0  0  0  0  0  0  0
   34.2780   29.7580   43.5190 H   0  0  0  0  0  0  0  0  0  0  0  0
   36.5680   30.8060   48.1450 N   0  0  0  0  0  0  0  0  0  0  0  0
   37.0460   31.8860   48.9580 C   0  0  0  0  0  0  0  0  0  0  0  0
   38.3540   31.3760   49.4740 C   0  0  0  0  0  0  0  0  0  0  0  0
   38.1050   29.8720   49.6420 C   0  0  0  0  0  0  0  0  0  0  0  0
   36.7310   29.6720   49.0990 C   0  0  1  0  0  0  0  0  0  0  0  0
   36.9760   32.8950   48.6160 H   0  0  0  0  0  0  0  0  0  0  0  0
   36.3650   31.8710   49.8680 H   0  0  0  0  0  0  0  0  0  0  0  0
   38.6470   31.8480   50.4380 H   0  0  0  0  0  0  0  0  0  0  0  0
   39.1840   31.4680   48.7740 H   0  0  0  0  0  0  0  0  0  0  0  0
   38.8910   29.2540   49.1960 H   0  0  0  0  0  0  0  0  0  0  0  0
   38.0930   29.6370   50.7390 H   0  0  0  0  0  0  0  0  0  0  0  0
   36.5370   28.7220   48.6090 H   0  0  0  0  0  0  0  0  0  0  0  0
   34.6840   28.9840   50.3280 C   0  0  0  0  0  0  0  0  0  0  0  0
   34.3530   28.0480   49.5290 O   0  0  0  0  0  0  0  0  0  0  0  0
   35.7760   29.8970   50.1830 N   0  0  0  0  0  0  0  0  0  0  0  0
   33.9190   28.8430   51.0700 H   0  0  0  0  0  0  0  0  0  0  0  0
   35.5890   30.5430   50.9730 H   0  0  0  0  0  0  0  0  0  0  0  0
   38.1140   31.1400   45.5610 C   0  0  0  0  0  0  0  0  0  0  0  0
   38.4050   32.3900   46.0240 C   0  0  0  0  0  0  0  0  0  0  0  0
   39.6880   32.9040   46.0410 C   0  0  0  0  0  0  0  0  0  0  0  0
   40.7140   32.0940   45.5570 C   0  0  0  0  0  0  0  0  0  0  0  0
   40.4820   30.8230   45.0730 C   0  0  0  0  0  0  0  0  0  0  0  0
   39.1520   30.3860   45.0960 C   0  0  0  0  0  0  0  0  0  0  0  0
   37.7480   33.1630   46.3820 H   0  0  0  0  0  0  0  0  0  0  0  0
   40.0500   33.8430   46.3750 H   0  0  0  0  0  0  0  0  0  0  0  0
   41.7620   32.3860   45.5210 H   0  0  0  0  0  0  0  0  0  0  0  0
   41.2760   30.1880   44.6920 H   0  0  0  0  0  0  0  0  0  0  0  0
   38.8820   29.0290   44.5710 C   0  0  0  0  0  0  0  0  0  0  0  0
   37.7600   28.8450   44.5570 H   0  0  0  0  0  0  0  0  0  0  0  0
   39.2890   28.2730   45.2810 H   0  0  0  0  0  0  0  0  0  0  0  0
   39.5520   27.5560   42.5850 C   0  0  0  0  0  0  0  0  0  0  0  0
   39.3180   28.7790   43.1840 C   0  0  0  0  0  0  0  0  0  0  0  0
   39.5010   29.9060   42.3710 C   0  0  0  0  0  0  0  0  0  0  0  0
   39.3320   30.8840   42.7860 H   0  0  0  0  0  0  0  0  0  0  0  0
   39.8940   29.8260   41.0400 C   0  0  0  0  0  3  0  0  0  0  0  0
   40.1260   28.6210   40.4370 C   0  0  0  0  0  3  0  0  0  0  0  0
   39.9450   27.5130   41.2440 C   0  0  0  0  0  0  0  0  0  0  0  0
   39.3710   26.4510   43.3780 O   0  0  0  0  0  0  0  0  0  0  0  0
   38.7440   25.6970   43.2000 H   0  0  0  0  0  0  0  0  0  0  0  0
   40.1750   26.2690   40.6570 O   0  0  0  0  0  0  0  0  0  0  0  0
   39.9650   26.0810   39.6810 H   0  0  0  0  0  0  0  0  0  0  0  0
  1  2  1  0  0  0  0
  1  7  1  0  0  0  0
  2  9  1  0  0  0  0
  3  2  2  0  0  0  0
  4  3  1  0  0  0  0
  5  4  2  0  0  0  0
  5  6  1  0  0  0  0
  6  1  2  0  0  0  0
  8  5  1  0  0  0  0
  9 10  1  0  0  0  0
  9 13  1  0  0  0  0
 10 11  1  0  0  0  0
 10 15  1  0  0  0  0
 11 12  1  0  0  0  0
 11 16  1  0  0  0  0
 12 19  1  0  0  0  0
 13 20  1  6  0  0  0
 13 12  1  0  0  0  0
 13 23  1  0  0  0  0
 14 10  1  0  0  0  0
 17 11  1  0  0  0  0
 18 12  1  0  0  0  0
 21 24  1  0  0  0  0
 22 21  2  0  0  0  0
 23 21  1  0  0  0  0
 23 25  1  0  0  0  0
 26  3  1  0  0  0  0
 26 27  1  0  0  0  0
 27 28  2  0  0  0  0
 27 32  1  0  0  0  0
 28 33  1  0  0  0  0
 29 28  1  0  0  0  0
 30 31  1  0  0  0  0
 30 29  2  0  0  0  0
 31 26  2  0  0  0  0
 34 29  1  0  0  0  0
 35 30  1  0  0  0  0
 36 31  1  0  0  0  0
 36 38  1  0  0  0  0
 37 36  1  0  0  0  0
 39 40  1  0  0  0  0
 39 46  1  0  0  0  0
 40 36  1  0  0  0  0
 41 42  1  0  0  0  0
 41 40  2  0  0  0  0
 43 41  1  0  0  0  0
 44 43  2  0  0  0  0
 44 45  1  0  0  0  0
 45 39  2  0  0  0  0
 47 46  1  0  0  0  0
 48 45  1  0  0  0  0
 49 48  1  0  0  0  0
M  END
>  <minimizedAffinity>
-6.08620358

>  <minimizedRMSD>
1.16558456

$$$$
