
 OpenBabel03272501083D

 42 45  0  0  1  0  0  0  0  0999 V2000
   38.0950   32.3540   46.3450 O   0  0  0  0  0  0  0  0  0  0  0  0
   38.8580   32.4080   47.4660 C   0  0  2  0  0  0  0  0  0  0  0  0
   37.9960   32.6210   48.7520 C   0  0  2  0  0  0  0  0  0  0  0  0
   38.9550   33.2850   49.6170 C   0  0  0  0  0  0  0  0  0  0  0  0
   39.7610   34.0950   48.8400 O   0  0  0  0  0  0  0  0  0  0  0  0
   39.5520   33.7990   47.5220 C   0  0  0  0  0  0  0  0  0  0  0  0
   39.6070   31.6350   47.6330 H   0  0  0  0  0  0  0  0  0  0  0  0
   37.1800   33.3290   48.4440 H   0  0  0  0  0  0  0  0  0  0  0  0
   38.3890   33.9870   50.2980 H   0  0  0  0  0  0  0  0  0  0  0  0
   39.6080   32.6680   50.2280 H   0  0  0  0  0  0  0  0  0  0  0  0
   38.8930   34.4830   46.9890 H   0  0  0  0  0  0  0  0  0  0  0  0
   40.5380   33.7580   47.0160 H   0  0  0  0  0  0  0  0  0  0  0  0
   37.3750   29.3770   50.5560 C   0  0  0  0  0  0  0  0  0  0  0  0
   38.0320   30.5750   50.1610 C   0  0  0  0  0  0  0  0  0  0  0  0
   37.3770   31.4010   49.2000 C   0  0  0  0  0  0  0  0  0  0  0  0
   36.1520   31.0090   48.7040 N   0  0  0  0  0  0  0  0  0  0  0  0
   35.5790   29.8720   49.1100 C   0  0  0  0  0  0  0  0  0  0  0  0
   36.1700   29.0530   50.0270 N   0  0  0  0  0  0  0  0  0  0  0  0
   37.9190   28.7970   51.2830 H   0  0  0  0  0  0  0  0  0  0  0  0
   38.9790   30.8320   50.5760 H   0  0  0  0  0  0  0  0  0  0  0  0
   34.6190   29.5230   48.7480 H   0  0  0  0  0  0  0  0  0  0  0  0
   40.1960   32.5060   44.0860 Cl  0  0  0  0  0  0  0  0  0  0  0  0
   38.8250   31.4370   44.1110 C   0  0  0  0  0  0  0  0  0  0  0  0
   38.0260   31.5710   45.2420 C   0  0  0  0  0  0  0  0  0  0  0  0
   36.9160   30.7390   45.2750 C   0  0  0  0  0  0  0  0  0  0  0  0
   36.6290   29.8440   44.2580 C   0  0  0  0  0  0  0  0  0  0  0  0
   37.4530   29.7570   43.1720 C   0  0  0  0  0  0  0  0  0  0  0  0
   38.5540   30.5590   43.1050 C   0  0  0  0  0  0  0  0  0  0  0  0
   36.1820   30.7000   46.0690 H   0  0  0  0  0  0  0  0  0  0  0  0
   35.7730   29.1830   44.2540 H   0  0  0  0  0  0  0  0  0  0  0  0
   37.3120   29.0920   42.3320 H   0  0  0  0  0  0  0  0  0  0  0  0
   40.6250   29.7630   41.8650 C   0  0  0  0  0  0  0  0  0  0  0  0
   39.4890   30.5300   41.9790 C   0  0  0  0  0  0  0  0  0  0  0  0
   39.1050   31.4040   40.9620 C   0  0  0  0  0  0  0  0  0  0  0  0
   38.2290   32.0400   40.9720 H   0  0  0  0  0  0  0  0  0  0  0  0
   39.9140   31.4720   39.8260 C   0  0  0  0  0  0  0  0  0  0  0  0
   41.0610   30.7160   39.6800 C   0  0  0  0  0  0  0  0  0  0  0  0
   41.3890   29.8700   40.7200 C   0  0  0  0  0  0  0  0  0  0  0  0
   40.8950   28.9410   42.9380 O   0  0  0  0  0  0  0  0  0  0  0  0
   41.6450   28.2650   42.8150 H   0  0  0  0  0  0  0  0  0  0  0  0
   42.5310   29.0740   40.6480 O   0  0  0  0  0  0  0  0  0  0  0  0
   43.3600   29.4830   40.2290 H   0  0  0  0  0  0  0  0  0  0  0  0
  1  2  1  0  0  0  0
  2  6  1  0  0  0  0
  2  7  1  1  0  0  0
  2  3  1  0  0  0  0
  3  8  1  6  0  0  0
  3 15  1  0  0  0  0
  3  4  1  0  0  0  0
  4 10  1  0  0  0  0
  4  9  1  0  0  0  0
  5  4  1  0  0  0  0
  6  5  1  0  0  0  0
 11  6  1  0  0  0  0
 12  6  1  0  0  0  0
 13 19  1  0  0  0  0
 14 13  1  0  0  0  0
 14 20  1  0  0  0  0
 15 14  2  0  0  0  0
 16 17  2  0  0  0  0
 16 15  1  0  0  0  0
 17 18  1  0  0  0  0
 18 13  2  0  0  0  0
 21 17  1  0  0  0  0
 22 23  1  0  0  0  0
 23 24  1  0  0  0  0
 24 25  2  0  0  0  0
 24  1  1  0  0  0  0
 25 29  1  0  0  0  0
 26 25  1  0  0  0  0
 27 26  2  0  0  0  0
 28 27  1  0  0  0  0
 28 23  2  0  0  0  0
 30 26  1  0  0  0  0
 31 27  1  0  0  0  0
 32 33  1  0  0  0  0
 32 39  1  0  0  0  0
 33 28  1  0  0  0  0
 34 35  1  0  0  0  0
 34 33  2  0  0  0  0
 36 34  1  0  0  0  0
 37 36  2  0  0  0  0
 37 38  1  0  0  0  0
 38 32  2  0  0  0  0
 40 39  1  0  0  0  0
 41 38  1  0  0  0  0
 42 41  1  0  0  0  0
M  END
>  <minimizedAffinity>
-6.53183365

>  <minimizedRMSD>
1.68967688

$$$$
