
 OpenBabel03272509153D

 49 52  0  0  1  0  0  0  0  0999 V2000
   34.8530   30.0500   46.6830 C   0  0  0  0  0  0  0  0  0  0  0  0
   36.1740   30.5500   46.7790 C   0  0  0  0  0  0  0  0  0  0  0  0
   36.8900   30.7200   45.5980 C   0  0  0  0  0  0  0  0  0  0  0  0
   36.2930   30.4020   44.4180 N   0  0  0  0  0  0  0  0  0  0  0  0
   35.0340   29.9280   44.3630 C   0  0  0  0  0  0  0  0  0  0  0  0
   34.3220   29.7540   45.4760 N   0  0  0  0  0  0  0  0  0  0  0  0
   34.2280   29.9000   47.5350 H   0  0  0  0  0  0  0  0  0  0  0  0
   34.5260   29.6630   43.4360 H   0  0  0  0  0  0  0  0  0  0  0  0
   36.6410   30.8120   48.1210 N   0  0  0  0  0  0  0  0  0  0  0  0
   37.0950   31.9050   48.9310 C   0  0  0  0  0  0  0  0  0  0  0  0
   38.3810   31.3980   49.5030 C   0  0  0  0  0  0  0  0  0  0  0  0
   38.1190   29.8990   49.6890 C   0  0  0  0  0  0  0  0  0  0  0  0
   36.7640   29.6950   49.1000 C   0  0  1  0  0  0  0  0  0  0  0  0
   37.0420   32.9070   48.5680 H   0  0  0  0  0  0  0  0  0  0  0  0
   36.3820   31.9090   49.8150 H   0  0  0  0  0  0  0  0  0  0  0  0
   38.6420   31.8860   50.4680 H   0  0  0  0  0  0  0  0  0  0  0  0
   39.2360   31.4740   48.8320 H   0  0  0  0  0  0  0  0  0  0  0  0
   38.9170   29.2700   49.2830 H   0  0  0  0  0  0  0  0  0  0  0  0
   38.0660   29.6840   50.7890 H   0  0  0  0  0  0  0  0  0  0  0  0
   36.5830   28.7370   48.6210 H   0  0  0  0  0  0  0  0  0  0  0  0
   34.6950   29.0140   50.2950 C   0  0  0  0  0  0  0  0  0  0  0  0
   34.4080   28.0390   49.5260 O   0  0  0  0  0  0  0  0  0  0  0  0
   35.7720   29.9430   50.1450 N   0  0  0  0  0  0  0  0  0  0  0  0
   33.9100   28.8870   51.0190 H   0  0  0  0  0  0  0  0  0  0  0  0
   35.5480   30.6170   50.9010 H   0  0  0  0  0  0  0  0  0  0  0  0
   38.2380   31.2220   45.5780 C   0  0  0  0  0  0  0  0  0  0  0  0
   38.4790   32.4280   46.1690 C   0  0  0  0  0  0  0  0  0  0  0  0
   39.7390   32.9930   46.2300 C   0  0  0  0  0  0  0  0  0  0  0  0
   40.7930   32.2860   45.6560 C   0  0  0  0  0  0  0  0  0  0  0  0
   40.6110   31.0630   45.0420 C   0  0  0  0  0  0  0  0  0  0  0  0
   39.3020   30.5670   45.0290 C   0  0  0  0  0  0  0  0  0  0  0  0
   37.7940   33.1290   46.6110 H   0  0  0  0  0  0  0  0  0  0  0  0
   40.0640   33.9080   46.6580 H   0  0  0  0  0  0  0  0  0  0  0  0
   41.8280   32.6250   45.6430 H   0  0  0  0  0  0  0  0  0  0  0  0
   41.4270   30.5080   44.5900 H   0  0  0  0  0  0  0  0  0  0  0  0
   39.0850   29.2620   44.3660 C   0  0  0  0  0  0  0  0  0  0  0  0
   37.9810   28.9940   44.4120 H   0  0  0  0  0  0  0  0  0  0  0  0
   39.6000   28.4640   44.9480 H   0  0  0  0  0  0  0  0  0  0  0  0
   39.9050   28.1260   42.2220 C   0  0  0  0  0  0  0  0  0  0  0  0
   39.4220   29.2070   42.9300 C   0  0  0  0  0  0  0  0  0  0  0  0
   39.2120   30.3800   42.1910 C   0  0  0  0  0  0  0  0  0  0  0  0
   38.8360   31.2540   42.6930 H   0  0  0  0  0  0  0  0  0  0  0  0
   39.4680   30.4740   40.8290 C   0  0  0  0  0  3  0  0  0  0  0  0
   39.9460   29.4090   40.1190 C   0  0  0  0  0  3  0  0  0  0  0  0
   40.1510   28.2550   40.8520 C   0  0  0  0  0  0  0  0  0  0  0  0
   40.1100   26.9740   42.9420 O   0  0  0  0  0  0  0  0  0  0  0  0
   39.6890   26.0890   42.7640 H   0  0  0  0  0  0  0  0  0  0  0  0
   40.6380   27.1500   40.1550 O   0  0  0  0  0  0  0  0  0  0  0  0
   40.3830   26.9600   39.1900 H   0  0  0  0  0  0  0  0  0  0  0  0
  1  2  1  0  0  0  0
  1  7  1  0  0  0  0
  2  9  1  0  0  0  0
  3  2  2  0  0  0  0
  4  3  1  0  0  0  0
  5  4  2  0  0  0  0
  5  6  1  0  0  0  0
  6  1  2  0  0  0  0
  8  5  1  0  0  0  0
  9 10  1  0  0  0  0
  9 13  1  0  0  0  0
 10 11  1  0  0  0  0
 10 15  1  0  0  0  0
 11 12  1  0  0  0  0
 11 16  1  0  0  0  0
 12 19  1  0  0  0  0
 13 20  1  6  0  0  0
 13 12  1  0  0  0  0
 13 23  1  0  0  0  0
 14 10  1  0  0  0  0
 17 11  1  0  0  0  0
 18 12  1  0  0  0  0
 21 24  1  0  0  0  0
 22 21  2  0  0  0  0
 23 21  1  0  0  0  0
 23 25  1  0  0  0  0
 26  3  1  0  0  0  0
 26 27  1  0  0  0  0
 27 28  2  0  0  0  0
 27 32  1  0  0  0  0
 28 33  1  0  0  0  0
 29 28  1  0  0  0  0
 30 29  2  0  0  0  0
 31 30  1  0  0  0  0
 31 26  2  0  0  0  0
 34 29  1  0  0  0  0
 35 30  1  0  0  0  0
 36 37  1  0  0  0  0
 36 38  1  0  0  0  0
 36 31  1  0  0  0  0
 39 40  1  0  0  0  0
 39 46  1  0  0  0  0
 40 36  1  0  0  0  0
 41 42  1  0  0  0  0
 41 40  2  0  0  0  0
 43 41  1  0  0  0  0
 44 43  2  0  0  0  0
 44 45  1  0  0  0  0
 45 39  2  0  0  0  0
 47 46  1  0  0  0  0
 48 45  1  0  0  0  0
 49 48  1  0  0  0  0
M  END
>  <minimizedAffinity>
-6.32823849

>  <minimizedRMSD>
1.02278042

$$$$
