
 OpenBabel03272508283D

 40 43  0  0  1  0  0  0  0  0999 V2000
   32.9740   28.8670   47.0610 C   0  0  2  0  0  0  0  0  0  0  0  0
   33.7970   27.8780   47.8800 C   0  0  2  0  0  0  0  0  0  0  0  0
   33.0000   27.5340   48.9370 O   0  0  0  0  0  0  0  0  0  0  0  0
   31.6850   27.7250   48.6380 C   0  0  0  0  0  0  0  0  0  0  0  0
   31.5960   28.2120   47.2060 C   0  0  1  0  0  0  0  0  0  0  0  0
   32.9350   29.8630   47.5230 H   0  0  0  0  0  0  0  0  0  0  0  0
   33.9900   27.0030   47.2440 H   0  0  0  0  0  0  0  0  0  0  0  0
   31.1390   26.7590   48.6900 H   0  0  0  0  0  0  0  0  0  0  0  0
   31.1870   28.5040   49.2630 H   0  0  0  0  0  0  0  0  0  0  0  0
   31.5340   27.3360   46.5430 H   0  0  0  0  0  0  0  0  0  0  0  0
   35.0270   29.9390   48.8530 C   0  0  1  0  0  0  0  0  0  0  0  0
   35.0330   28.5970   48.3190 C   0  0  1  0  0  0  0  0  0  0  0  0
   35.3780   28.7520   49.7640 C   0  0  0  0  0  0  0  0  0  0  0  0
   34.1770   30.5100   49.2690 H   0  0  0  0  0  0  0  0  0  0  0  0
   35.9110   28.3470   47.6550 H   0  0  0  0  0  0  0  0  0  0  0  0
   36.4430   28.6230   50.0750 H   0  0  0  0  0  0  0  0  0  0  0  0
   34.6810   28.4800   50.5550 H   0  0  0  0  0  0  0  0  0  0  0  0
   36.2180   30.8630   48.6560 C   0  0  0  0  0  0  0  0  0  0  0  0
   36.5880   31.6750   49.7310 C   0  0  0  0  0  0  0  0  0  0  0  0
   37.6620   32.5100   49.5030 C   0  0  0  0  0  0  0  0  0  0  0  0
   38.3030   32.5200   48.2890 N   0  0  0  0  0  0  0  0  0  0  0  0
   37.9100   31.7150   47.2720 C   0  0  0  0  0  0  0  0  0  0  0  0
   36.8570   30.8790   47.4570 N   0  0  0  0  0  0  0  0  0  0  0  0
   36.0440   31.6190   50.6600 H   0  0  0  0  0  0  0  0  0  0  0  0
   37.9840   33.1590   50.3160 H   0  0  0  0  0  0  0  0  0  0  0  0
   38.4430   31.7560   46.3320 H   0  0  0  0  0  0  0  0  0  0  0  0
   33.3540   28.9540   45.7410 O   0  0  0  0  0  0  0  0  0  0  0  0
   33.2570   28.1100   45.2650 H   0  0  0  0  0  0  0  0  0  0  0  0
   30.5820   29.0940   46.9840 O   0  0  0  0  0  0  0  0  0  0  0  0
   28.6210   29.6050   45.9390 C   0  0  0  0  0  0  0  0  0  0  0  0
   29.2630   28.7760   46.8680 C   0  0  0  0  0  0  0  0  0  0  0  0
   28.4880   27.8200   47.4850 C   0  0  0  0  0  0  0  0  0  0  0  0
   29.0460   27.2240   48.1820 H   0  0  0  0  0  0  0  0  0  0  0  0
   27.1550   27.6810   47.2060 C   0  0  0  0  0  3  0  0  0  0  0  0
   26.5250   28.4940   46.2940 C   0  0  0  0  0  3  0  0  0  0  0  0
   27.2670   29.4670   45.6540 C   0  0  0  0  0  0  0  0  0  0  0  0
   29.2230   30.6250   45.2140 O   0  0  0  0  0  0  0  0  0  0  0  0
   29.3640   31.5210   45.6700 H   0  0  0  0  0  0  0  0  0  0  0  0
   26.5840   30.2510   44.7500 O   0  0  0  0  0  0  0  0  0  0  0  0
   26.9810   30.5440   43.8520 H   0  0  0  0  0  0  0  0  0  0  0  0
  1  5  1  0  0  0  0
  1  6  1  1  0  0  0
  1  2  1  0  0  0  0
  2  7  1  6  0  0  0
  2 12  1  0  0  0  0
  2  3  1  0  0  0  0
  4  8  1  0  0  0  0
  4  3  1  0  0  0  0
  4  9  1  0  0  0  0
  5 10  1  6  0  0  0
  5  4  1  0  0  0  0
 11 14  1  1  0  0  0
 11 13  1  0  0  0  0
 12 15  1  6  0  0  0
 12 11  1  0  0  0  0
 12 13  1  0  0  0  0
 13 16  1  0  0  0  0
 13 17  1  0  0  0  0
 18 11  1  0  0  0  0
 18 19  1  0  0  0  0
 19 24  1  0  0  0  0
 20 19  2  0  0  0  0
 20 25  1  0  0  0  0
 21 20  1  0  0  0  0
 22 23  1  0  0  0  0
 22 21  2  0  0  0  0
 23 18  2  0  0  0  0
 26 22  1  0  0  0  0
 27  1  1  0  0  0  0
 28 27  1  0  0  0  0
 29  5  1  0  0  0  0
 30 31  1  0  0  0  0
 31 29  1  0  0  0  0
 31 32  2  0  0  0  0
 32 33  1  0  0  0  0
 34 32  1  0  0  0  0
 35 34  2  0  0  0  0
 36 30  2  0  0  0  0
 36 35  1  0  0  0  0
 37 38  1  0  0  0  0
 37 30  1  0  0  0  0
 39 36  1  0  0  0  0
 40 39  1  0  0  0  0
M  END
>  <minimizedAffinity>
-5.69817781

>  <minimizedRMSD>
1.58963645

$$$$
