
 OpenBabel03272510173D

 30 32  0  0  0  0  0  0  0  0999 V2000
   37.2150   29.5370   51.1870 Br  0  0  0  0  0  0  0  0  0  0  0  0
   35.9700   29.3720   49.7440 C   0  0  0  0  0  0  0  0  0  0  0  0
   36.0500   30.1980   48.6210 C   0  0  0  0  0  0  0  0  0  0  0  0
   35.1180   30.0160   47.6220 C   0  0  0  0  0  0  0  0  0  0  0  0
   34.1170   29.0590   47.6850 C   0  0  0  0  0  0  0  0  0  0  0  0
   34.0650   28.2620   48.8040 C   0  0  0  0  0  0  0  0  0  0  0  0
   34.9840   28.4240   49.8150 C   0  0  0  0  0  0  0  0  0  0  0  0
   35.1730   30.6550   46.7450 H   0  0  0  0  0  0  0  0  0  0  0  0
   33.2880   27.5110   48.8640 H   0  0  0  0  0  0  0  0  0  0  0  0
   34.9220   27.7780   50.6950 H   0  0  0  0  0  0  0  0  0  0  0  0
   38.0120   33.1820   49.3960 C   0  0  0  0  0  0  0  0  0  0  0  0
   39.0360   33.1560   48.4270 C   0  0  0  0  0  0  0  0  0  0  0  0
   39.0470   32.1000   47.5010 C   0  0  0  0  0  0  0  0  0  0  0  0
   38.0620   31.1530   47.5890 N   0  0  0  0  0  0  0  0  0  0  0  0
   37.0920   31.2100   48.5340 C   0  0  0  0  0  0  0  0  0  0  0  0
   37.0700   32.2170   49.4290 N   0  0  0  0  0  0  0  0  0  0  0  0
   38.0470   34.0180   50.0890 H   0  0  0  0  0  0  0  0  0  0  0  0
   39.8220   33.8680   48.3190 H   0  0  0  0  0  0  0  0  0  0  0  0
   39.7710   31.9680   46.7170 H   0  0  0  0  0  0  0  0  0  0  0  0
   33.1100   27.8060   45.8010 C   0  0  0  0  0  0  0  0  0  0  0  0
   33.1770   28.9490   46.5680 C   0  0  0  0  0  0  0  0  0  0  0  0
   32.3410   29.9940   46.2720 C   0  0  0  0  0  0  0  0  0  0  0  0
   32.3380   30.9070   46.8200 H   0  0  0  0  0  0  0  0  0  0  0  0
   31.4660   29.8350   45.1970 C   0  0  0  0  0  3  0  0  0  0  0  0
   31.3940   28.6890   44.4220 C   0  0  0  0  0  3  0  0  0  0  0  0
   32.2420   27.6520   44.7390 C   0  0  0  0  0  0  0  0  0  0  0  0
   33.9690   26.7570   46.1230 O   0  0  0  0  0  0  0  0  0  0  0  0
   34.4640   26.2200   45.4250 H   0  0  0  0  0  0  0  0  0  0  0  0
   32.2370   26.4550   44.0080 O   0  0  0  0  0  0  0  0  0  0  0  0
   32.8600   26.3580   43.1940 H   0  0  0  0  0  0  0  0  0  0  0  0
  2  7  1  0  0  0  0
  2  1  1  0  0  0  0
  3  2  2  0  0  0  0
  4  5  2  0  0  0  0
  4  3  1  0  0  0  0
  5  6  1  0  0  0  0
  6  9  1  0  0  0  0
  6  7  2  0  0  0  0
  7 10  1  0  0  0  0
  8  4  1  0  0  0  0
 11 16  1  0  0  0  0
 11 17  1  0  0  0  0
 12 11  2  0  0  0  0
 13 14  2  0  0  0  0
 13 12  1  0  0  0  0
 14 15  1  0  0  0  0
 15  3  1  0  0  0  0
 15 16  2  0  0  0  0
 18 12  1  0  0  0  0
 19 13  1  0  0  0  0
 20 27  1  0  0  0  0
 20 21  1  0  0  0  0
 21  5  1  0  0  0  0
 22 21  2  0  0  0  0
 22 23  1  0  0  0  0
 24 22  1  0  0  0  0
 25 26  1  0  0  0  0
 25 24  2  0  0  0  0
 26 20  2  0  0  0  0
 28 27  1  0  0  0  0
 29 26  1  0  0  0  0
 30 29  1  0  0  0  0
M  END
>  <minimizedAffinity>
-6.00312614

>  <minimizedRMSD>
0.278851151

$$$$
