
 OpenBabel03272504573D

 35 37  0  0  1  0  0  0  0  0999 V2000
   37.1520   31.6350   48.5870 C   0  0  1  0  0  0  0  0  0  0  0  0
   36.3710   30.9120   47.6120 C   0  0  0  0  0  0  0  0  0  0  0  0
   37.3600   30.1860   48.4730 C   0  0  2  0  0  0  0  0  0  0  0  0
   36.7280   31.9640   49.5970 H   0  0  0  0  0  0  0  0  0  0  0  0
   36.6520   31.0630   46.5480 H   0  0  0  0  0  0  0  0  0  0  0  0
   35.3380   31.1510   47.7860 H   0  0  0  0  0  0  0  0  0  0  0  0
   38.0270   29.6180   47.8400 H   0  0  0  0  0  0  0  0  0  0  0  0
   38.2970   32.5130   48.1640 C   0  0  0  0  0  0  0  0  0  0  0  0
   38.7160   33.4710   49.1040 C   0  0  0  0  0  0  0  0  0  0  0  0
   39.7630   34.2630   48.6940 C   0  0  0  0  0  0  0  0  0  0  0  0
   40.3150   34.0940   47.4720 N   0  0  0  0  0  0  0  0  0  0  0  0
   39.8830   33.1570   46.5950 C   0  0  0  0  0  0  0  0  0  0  0  0
   38.8390   32.3480   46.9650 N   0  0  0  0  0  0  0  0  0  0  0  0
   40.4580   32.9480   45.3380 N   0  0  0  0  0  0  0  0  0  0  0  0
   38.2860   33.6180   50.0830 H   0  0  0  0  0  0  0  0  0  0  0  0
   40.1210   35.0210   49.3930 H   0  0  0  0  0  0  0  0  0  0  0  0
   41.5070   33.1180   45.3400 H   0  0  0  0  0  0  0  0  0  0  0  0
   39.9310   32.6640   44.5090 H   0  0  0  0  0  0  0  0  0  0  0  0
   36.7920   29.4290   49.5070 O   0  0  0  0  0  0  0  0  0  0  0  0
   34.7030   28.0390   50.0930 O   0  0  0  0  0  0  0  0  0  0  0  0
   35.1680   29.1740   49.2380 P   0  0  1  0  0  0  0  0  0  0  0  0
   34.2690   30.5460   49.7660 O   0  0  0  0  0  0  0  0  0  0  0  0
   33.5780   30.8030   49.1370 H   0  0  0  0  0  0  0  0  0  0  0  0
   34.9320   28.9170   47.5870 O   0  0  0  0  0  0  0  0  0  0  0  0
   33.0840   27.4060   47.0300 C   0  0  0  0  0  0  0  0  0  0  0  0
   33.6610   28.6680   47.0340 C   0  0  0  0  0  0  0  0  0  0  0  0
   32.9340   29.7020   46.4630 C   0  0  0  0  0  0  0  0  0  0  0  0
   33.3180   30.7230   46.4260 H   0  0  0  0  0  0  0  0  0  0  0  0
   31.6840   29.5570   45.8960 C   0  0  0  0  0  3  0  0  0  0  0  0
   31.1290   28.2830   45.9050 C   0  0  0  0  0  3  0  0  0  0  0  0
   31.8290   27.2230   46.4680 C   0  0  0  0  0  0  0  0  0  0  0  0
   33.7730   26.3380   47.5890 O   0  0  0  0  0  0  0  0  0  0  0  0
   34.7580   26.2260   47.6420 H   0  0  0  0  0  0  0  0  0  0  0  0
   31.2380   25.9770   46.4540 O   0  0  0  0  0  0  0  0  0  0  0  0
   30.2510   25.8630   46.2880 H   0  0  0  0  0  0  0  0  0  0  0  0
  1  4  1  1  0  0  0
  2  6  1  0  0  0  0
  2  3  1  0  0  0  0
  2  1  1  0  0  0  0
  3  7  1  6  0  0  0
  3  1  1  0  0  0  0
  3 19  1  0  0  0  0
  5  2  1  0  0  0  0
  8  1  1  0  0  0  0
  8  9  1  0  0  0  0
  9 15  1  0  0  0  0
 10  9  2  0  0  0  0
 10 16  1  0  0  0  0
 11 10  1  0  0  0  0
 12 13  1  0  0  0  0
 12 11  2  0  0  0  0
 13  8  2  0  0  0  0
 14 17  1  0  0  0  0
 14 12  1  0  0  0  0
 18 14  1  0  0  0  0
 21 19  1  0  0  0  0
 21 22  1  0  0  0  0
 21 20  2  1  0  0  0
 23 22  1  0  0  0  0
 24 21  1  0  0  0  0
 25 26  1  0  0  0  0
 25 32  1  0  0  0  0
 26 24  1  0  0  0  0
 27 26  2  0  0  0  0
 28 27  1  0  0  0  0
 29 30  2  0  0  0  0
 29 27  1  0  0  0  0
 30 31  1  0  0  0  0
 31 25  2  0  0  0  0
 32 33  1  0  0  0  0
 34 31  1  0  0  0  0
 35 34  1  0  0  0  0
M  END
>  <minimizedAffinity>
-4.95135307

>  <minimizedRMSD>
0.863648057

$$$$
