
 OpenBabel03272508273D

 40 43  0  0  1  0  0  0  0  0999 V2000
   32.9210   28.9100   47.0110 C   0  0  2  0  0  0  0  0  0  0  0  0
   33.7560   27.8740   47.7540 C   0  0  2  0  0  0  0  0  0  0  0  0
   32.9620   27.4380   48.7800 O   0  0  0  0  0  0  0  0  0  0  0  0
   31.6450   27.6320   48.4920 C   0  0  0  0  0  0  0  0  0  0  0  0
   31.5520   28.2250   47.1000 C   0  0  1  0  0  0  0  0  0  0  0  0
   32.8660   29.8670   47.5470 H   0  0  0  0  0  0  0  0  0  0  0  0
   33.9640   27.0520   47.0540 H   0  0  0  0  0  0  0  0  0  0  0  0
   31.1140   26.6570   48.4670 H   0  0  0  0  0  0  0  0  0  0  0  0
   31.1340   28.3530   49.1720 H   0  0  0  0  0  0  0  0  0  0  0  0
   31.5060   27.4010   46.3720 H   0  0  0  0  0  0  0  0  0  0  0  0
   34.9680   29.9150   48.7900 C   0  0  1  0  0  0  0  0  0  0  0  0
   34.9810   28.5750   48.2520 C   0  0  1  0  0  0  0  0  0  0  0  0
   35.2610   28.7210   49.7120 C   0  0  0  0  0  0  0  0  0  0  0  0
   34.1070   30.4960   49.1680 H   0  0  0  0  0  0  0  0  0  0  0  0
   35.8840   28.3150   47.6280 H   0  0  0  0  0  0  0  0  0  0  0  0
   36.3090   28.5780   50.0700 H   0  0  0  0  0  0  0  0  0  0  0  0
   34.5260   28.4560   50.4690 H   0  0  0  0  0  0  0  0  0  0  0  0
   36.1780   30.8240   48.6490 C   0  0  0  0  0  0  0  0  0  0  0  0
   36.5360   31.5940   49.7590 C   0  0  0  0  0  0  0  0  0  0  0  0
   37.6300   32.4170   49.5830 C   0  0  0  0  0  0  0  0  0  0  0  0
   38.2990   32.4550   48.3840 N   0  0  0  0  0  0  0  0  0  0  0  0
   37.9160   31.6910   47.3330 C   0  0  0  0  0  0  0  0  0  0  0  0
   36.8460   30.8670   47.4670 N   0  0  0  0  0  0  0  0  0  0  0  0
   35.9700   31.5180   50.6720 H   0  0  0  0  0  0  0  0  0  0  0  0
   37.9430   33.0340   50.4230 H   0  0  0  0  0  0  0  0  0  0  0  0
   38.4720   31.7520   46.4070 H   0  0  0  0  0  0  0  0  0  0  0  0
   33.3020   29.1030   45.7030 O   0  0  0  0  0  0  0  0  0  0  0  0
   33.2190   28.2960   45.1630 H   0  0  0  0  0  0  0  0  0  0  0  0
   30.5260   29.1060   46.9430 O   0  0  0  0  0  0  0  0  0  0  0  0
   28.3370   28.9920   47.5720 C   0  0  0  0  0  0  0  0  0  0  0  0
   29.2630   28.7930   46.5390 C   0  0  0  0  0  0  0  0  0  0  0  0
   28.7660   28.3340   45.3410 C   0  0  0  0  0  0  0  0  0  0  0  0
   29.5310   28.2070   44.5990 H   0  0  0  0  0  0  0  0  0  0  0  0
   27.4320   28.0840   45.1620 C   0  0  0  0  0  3  0  0  0  0  0  0
   26.5230   28.2780   46.1750 C   0  0  0  0  0  3  0  0  0  0  0  0
   26.9820   28.7380   47.3940 C   0  0  0  0  0  0  0  0  0  0  0  0
   28.6380   29.4470   48.8500 O   0  0  0  0  0  0  0  0  0  0  0  0
   29.0010   28.7820   49.5250 H   0  0  0  0  0  0  0  0  0  0  0  0
   26.0270   28.9150   48.3720 O   0  0  0  0  0  0  0  0  0  0  0  0
   26.0310   29.7100   49.0180 H   0  0  0  0  0  0  0  0  0  0  0  0
  1  5  1  0  0  0  0
  1  6  1  1  0  0  0
  1  2  1  0  0  0  0
  2  7  1  6  0  0  0
  2 12  1  0  0  0  0
  2  3  1  0  0  0  0
  4  3  1  0  0  0  0
  4  9  1  0  0  0  0
  5 10  1  6  0  0  0
  5  4  1  0  0  0  0
  8  4  1  0  0  0  0
 11 14  1  1  0  0  0
 11 13  1  0  0  0  0
 12 15  1  6  0  0  0
 12 11  1  0  0  0  0
 12 13  1  0  0  0  0
 13 16  1  0  0  0  0
 13 17  1  0  0  0  0
 18 11  1  0  0  0  0
 18 19  1  0  0  0  0
 19 24  1  0  0  0  0
 20 19  2  0  0  0  0
 20 25  1  0  0  0  0
 21 20  1  0  0  0  0
 22 23  1  0  0  0  0
 22 21  2  0  0  0  0
 23 18  2  0  0  0  0
 26 22  1  0  0  0  0
 27  1  1  0  0  0  0
 28 27  1  0  0  0  0
 29  5  1  0  0  0  0
 30 37  1  0  0  0  0
 31 29  1  0  0  0  0
 31 30  2  0  0  0  0
 32 31  1  0  0  0  0
 33 32  1  0  0  0  0
 34 32  2  0  0  0  0
 34 35  1  0  0  0  0
 35 36  2  0  0  0  0
 36 30  1  0  0  0  0
 36 39  1  0  0  0  0
 37 38  1  0  0  0  0
 39 40  1  0  0  0  0
M  END
>  <minimizedAffinity>
-6.01395988

>  <minimizedRMSD>
2.35369682

$$$$
