
 OpenBabel03272508283D

 40 43  0  0  1  0  0  0  0  0999 V2000
   32.9740   28.8670   47.0620 C   0  0  2  0  0  0  0  0  0  0  0  0
   33.7960   27.8780   47.8810 C   0  0  2  0  0  0  0  0  0  0  0  0
   32.9990   27.5340   48.9380 O   0  0  0  0  0  0  0  0  0  0  0  0
   31.6850   27.7250   48.6390 C   0  0  0  0  0  0  0  0  0  0  0  0
   31.5960   28.2110   47.2060 C   0  0  1  0  0  0  0  0  0  0  0  0
   32.9350   29.8630   47.5230 H   0  0  0  0  0  0  0  0  0  0  0  0
   33.9900   27.0020   47.2450 H   0  0  0  0  0  0  0  0  0  0  0  0
   31.1380   26.7600   48.6900 H   0  0  0  0  0  0  0  0  0  0  0  0
   31.1860   28.5040   49.2630 H   0  0  0  0  0  0  0  0  0  0  0  0
   31.5340   27.3350   46.5430 H   0  0  0  0  0  0  0  0  0  0  0  0
   35.0270   29.9390   48.8540 C   0  0  1  0  0  0  0  0  0  0  0  0
   35.0330   28.5970   48.3200 C   0  0  1  0  0  0  0  0  0  0  0  0
   35.3770   28.7520   49.7650 C   0  0  0  0  0  0  0  0  0  0  0  0
   34.1770   30.5100   49.2690 H   0  0  0  0  0  0  0  0  0  0  0  0
   35.9110   28.3470   47.6570 H   0  0  0  0  0  0  0  0  0  0  0  0
   36.4420   28.6230   50.0760 H   0  0  0  0  0  0  0  0  0  0  0  0
   34.6810   28.4800   50.5550 H   0  0  0  0  0  0  0  0  0  0  0  0
   36.2180   30.8620   48.6560 C   0  0  0  0  0  0  0  0  0  0  0  0
   36.5880   31.6750   49.7310 C   0  0  0  0  0  0  0  0  0  0  0  0
   37.6620   32.5090   49.5040 C   0  0  0  0  0  0  0  0  0  0  0  0
   38.3030   32.5190   48.2890 N   0  0  0  0  0  0  0  0  0  0  0  0
   37.9100   31.7150   47.2720 C   0  0  0  0  0  0  0  0  0  0  0  0
   36.8570   30.8780   47.4570 N   0  0  0  0  0  0  0  0  0  0  0  0
   36.0440   31.6190   50.6600 H   0  0  0  0  0  0  0  0  0  0  0  0
   37.9840   33.1580   50.3160 H   0  0  0  0  0  0  0  0  0  0  0  0
   38.4430   31.7550   46.3320 H   0  0  0  0  0  0  0  0  0  0  0  0
   33.3540   28.9530   45.7420 O   0  0  0  0  0  0  0  0  0  0  0  0
   33.2570   28.1080   45.2660 H   0  0  0  0  0  0  0  0  0  0  0  0
   30.5820   29.0930   46.9840 O   0  0  0  0  0  0  0  0  0  0  0  0
   28.6220   29.6040   45.9380 C   0  0  0  0  0  0  0  0  0  0  0  0
   29.2630   28.7760   46.8680 C   0  0  0  0  0  0  0  0  0  0  0  0
   28.4880   27.8200   47.4840 C   0  0  0  0  0  0  0  0  0  0  0  0
   29.0460   27.2240   48.1830 H   0  0  0  0  0  0  0  0  0  0  0  0
   27.1550   27.6810   47.2060 C   0  0  0  0  0  3  0  0  0  0  0  0
   26.5240   28.4940   46.2930 C   0  0  0  0  0  3  0  0  0  0  0  0
   27.2680   29.4660   45.6530 C   0  0  0  0  0  0  0  0  0  0  0  0
   29.2230   30.6250   45.2130 O   0  0  0  0  0  0  0  0  0  0  0  0
   29.3640   31.5200   45.6690 H   0  0  0  0  0  0  0  0  0  0  0  0
   26.5830   30.2510   44.7490 O   0  0  0  0  0  0  0  0  0  0  0  0
   26.9820   30.5430   43.8510 H   0  0  0  0  0  0  0  0  0  0  0  0
  1  5  1  0  0  0  0
  1  6  1  1  0  0  0
  1  2  1  0  0  0  0
  2  7  1  6  0  0  0
  2 12  1  0  0  0  0
  2  3  1  0  0  0  0
  4  8  1  0  0  0  0
  4  3  1  0  0  0  0
  4  9  1  0  0  0  0
  5 10  1  6  0  0  0
  5  4  1  0  0  0  0
 11 14  1  1  0  0  0
 11 13  1  0  0  0  0
 12 15  1  6  0  0  0
 12 11  1  0  0  0  0
 12 13  1  0  0  0  0
 13 16  1  0  0  0  0
 13 17  1  0  0  0  0
 18 11  1  0  0  0  0
 18 19  1  0  0  0  0
 19 24  1  0  0  0  0
 20 19  2  0  0  0  0
 20 25  1  0  0  0  0
 21 20  1  0  0  0  0
 22 23  1  0  0  0  0
 22 21  2  0  0  0  0
 23 18  2  0  0  0  0
 26 22  1  0  0  0  0
 27  1  1  0  0  0  0
 28 27  1  0  0  0  0
 29  5  1  0  0  0  0
 30 31  1  0  0  0  0
 31 29  1  0  0  0  0
 31 32  2  0  0  0  0
 32 33  1  0  0  0  0
 34 32  1  0  0  0  0
 35 34  2  0  0  0  0
 36 30  2  0  0  0  0
 36 35  1  0  0  0  0
 37 38  1  0  0  0  0
 37 30  1  0  0  0  0
 39 36  1  0  0  0  0
 40 39  1  0  0  0  0
M  END
>  <minimizedAffinity>
-5.69821978

>  <minimizedRMSD>
1.61492169

$$$$
