
 OpenBabel03272509153D

 49 52  0  0  1  0  0  0  0  0999 V2000
   34.8960   30.0730   46.8190 C   0  0  0  0  0  0  0  0  0  0  0  0
   36.2070   30.5940   46.9410 C   0  0  0  0  0  0  0  0  0  0  0  0
   36.9270   30.8190   45.7720 C   0  0  0  0  0  0  0  0  0  0  0  0
   36.3430   30.5300   44.5770 N   0  0  0  0  0  0  0  0  0  0  0  0
   35.0940   30.0350   44.4980 C   0  0  0  0  0  0  0  0  0  0  0  0
   34.3780   29.8090   45.5990 N   0  0  0  0  0  0  0  0  0  0  0  0
   34.2690   29.8820   47.6610 H   0  0  0  0  0  0  0  0  0  0  0  0
   34.5970   29.7930   43.5580 H   0  0  0  0  0  0  0  0  0  0  0  0
   36.6600   30.8190   48.2950 N   0  0  0  0  0  0  0  0  0  0  0  0
   37.0900   31.8910   49.1440 C   0  0  0  0  0  0  0  0  0  0  0  0
   38.3810   31.3860   49.7080 C   0  0  0  0  0  0  0  0  0  0  0  0
   38.1420   29.8780   49.8420 C   0  0  0  0  0  0  0  0  0  0  0  0
   36.7950   29.6710   49.2370 C   0  0  1  0  0  0  0  0  0  0  0  0
   37.0240   32.9040   48.8150 H   0  0  0  0  0  0  0  0  0  0  0  0
   36.3710   31.8540   50.0230 H   0  0  0  0  0  0  0  0  0  0  0  0
   38.6270   31.8460   50.6910 H   0  0  0  0  0  0  0  0  0  0  0  0
   39.2390   31.4990   49.0470 H   0  0  0  0  0  0  0  0  0  0  0  0
   38.9530   29.2750   49.4210 H   0  0  0  0  0  0  0  0  0  0  0  0
   38.0850   29.6250   50.9340 H   0  0  0  0  0  0  0  0  0  0  0  0
   36.6330   28.7270   48.7250 H   0  0  0  0  0  0  0  0  0  0  0  0
   34.7040   28.9440   50.3640 C   0  0  0  0  0  0  0  0  0  0  0  0
   34.4170   28.0180   49.5350 O   0  0  0  0  0  0  0  0  0  0  0  0
   35.7920   29.8680   50.2820 N   0  0  0  0  0  0  0  0  0  0  0  0
   33.9080   28.7820   51.0690 H   0  0  0  0  0  0  0  0  0  0  0  0
   35.5650   30.4990   51.0740 H   0  0  0  0  0  0  0  0  0  0  0  0
   38.2650   31.3470   45.7790 C   0  0  0  0  0  0  0  0  0  0  0  0
   38.4650   32.5730   46.3440 C   0  0  0  0  0  0  0  0  0  0  0  0
   39.7110   33.1640   46.4270 C   0  0  0  0  0  0  0  0  0  0  0  0
   40.7950   32.4630   45.9040 C   0  0  0  0  0  0  0  0  0  0  0  0
   40.6560   31.2210   45.3180 C   0  0  0  0  0  0  0  0  0  0  0  0
   39.3570   30.7000   45.2790 C   0  0  0  0  0  0  0  0  0  0  0  0
   37.7540   33.2710   46.7470 H   0  0  0  0  0  0  0  0  0  0  0  0
   40.0060   34.0960   46.8410 H   0  0  0  0  0  0  0  0  0  0  0  0
   41.8230   32.8230   45.9120 H   0  0  0  0  0  0  0  0  0  0  0  0
   41.4960   30.6710   44.9060 H   0  0  0  0  0  0  0  0  0  0  0  0
   39.1850   29.3740   44.6450 C   0  0  0  0  0  0  0  0  0  0  0  0
   38.1220   29.0080   44.8150 H   0  0  0  0  0  0  0  0  0  0  0  0
   39.8320   28.6310   45.1660 H   0  0  0  0  0  0  0  0  0  0  0  0
   38.5090   28.7810   42.2460 C   0  0  0  0  0  0  0  0  0  0  0  0
   39.3620   29.3340   43.1800 C   0  0  0  0  0  0  0  0  0  0  0  0
   40.5200   29.9390   42.6720 C   0  0  0  0  0  0  0  0  0  0  0  0
   41.2210   30.3870   43.3560 H   0  0  0  0  0  0  0  0  0  0  0  0
   40.8150   29.9950   41.3150 C   0  0  0  0  0  3  0  0  0  0  0  0
   39.9760   29.4510   40.3820 C   0  0  0  0  0  3  0  0  0  0  0  0
   38.8370   28.8550   40.8890 C   0  0  0  0  0  0  0  0  0  0  0  0
   37.3740   28.1880   42.7400 O   0  0  0  0  0  0  0  0  0  0  0  0
   36.4370   28.4340   42.5080 H   0  0  0  0  0  0  0  0  0  0  0  0
   37.9620   28.2920   39.9610 O   0  0  0  0  0  0  0  0  0  0  0  0
   37.8170   28.6910   39.0370 H   0  0  0  0  0  0  0  0  0  0  0  0
  1  2  1  0  0  0  0
  1  7  1  0  0  0  0
  2  9  1  0  0  0  0
  3 26  1  0  0  0  0
  3  2  2  0  0  0  0
  4  3  1  0  0  0  0
  5  4  2  0  0  0  0
  5  6  1  0  0  0  0
  6  1  2  0  0  0  0
  8  5  1  0  0  0  0
  9 10  1  0  0  0  0
  9 13  1  0  0  0  0
 10 11  1  0  0  0  0
 10 15  1  0  0  0  0
 11 12  1  0  0  0  0
 11 16  1  0  0  0  0
 12 19  1  0  0  0  0
 13 20  1  6  0  0  0
 13 12  1  0  0  0  0
 13 23  1  0  0  0  0
 14 10  1  0  0  0  0
 17 11  1  0  0  0  0
 18 12  1  0  0  0  0
 21 24  1  0  0  0  0
 22 21  2  0  0  0  0
 23 21  1  0  0  0  0
 23 25  1  0  0  0  0
 26 27  1  0  0  0  0
 27 28  2  0  0  0  0
 27 32  1  0  0  0  0
 28 33  1  0  0  0  0
 29 34  1  0  0  0  0
 29 28  1  0  0  0  0
 30 29  2  0  0  0  0
 31 30  1  0  0  0  0
 31 26  2  0  0  0  0
 35 30  1  0  0  0  0
 36 37  1  0  0  0  0
 36 38  1  0  0  0  0
 36 31  1  0  0  0  0
 39 46  1  0  0  0  0
 39 40  1  0  0  0  0
 40 36  1  0  0  0  0
 41 40  2  0  0  0  0
 41 42  1  0  0  0  0
 43 41  1  0  0  0  0
 44 45  1  0  0  0  0
 44 43  2  0  0  0  0
 45 39  2  0  0  0  0
 47 46  1  0  0  0  0
 48 45  1  0  0  0  0
 49 48  1  0  0  0  0
M  END
>  <minimizedAffinity>
-5.92515945

>  <minimizedRMSD>
0.901853085

$$$$
