
 OpenBabel03272509153D

 49 52  0  0  1  0  0  0  0  0999 V2000
   34.7640   30.0810   46.8860 C   0  0  0  0  0  0  0  0  0  0  0  0
   36.0960   30.5570   46.9420 C   0  0  0  0  0  0  0  0  0  0  0  0
   36.7790   30.7210   45.7410 C   0  0  0  0  0  0  0  0  0  0  0  0
   36.1400   30.4180   44.5780 N   0  0  0  0  0  0  0  0  0  0  0  0
   34.8730   29.9660   44.5610 C   0  0  0  0  0  0  0  0  0  0  0  0
   34.1920   29.7990   45.6940 N   0  0  0  0  0  0  0  0  0  0  0  0
   34.1640   29.9380   47.7550 H   0  0  0  0  0  0  0  0  0  0  0  0
   34.3320   29.7130   43.6480 H   0  0  0  0  0  0  0  0  0  0  0  0
   36.6090   30.8060   48.2700 N   0  0  0  0  0  0  0  0  0  0  0  0
   37.0700   31.8940   49.0830 C   0  0  0  0  0  0  0  0  0  0  0  0
   38.3880   31.4060   49.5960 C   0  0  0  0  0  0  0  0  0  0  0  0
   38.1650   29.8980   49.7640 C   0  0  0  0  0  0  0  0  0  0  0  0
   36.7930   29.6750   49.2230 C   0  0  1  0  0  0  0  0  0  0  0  0
   36.9820   32.9020   48.7400 H   0  0  0  0  0  0  0  0  0  0  0  0
   36.3920   31.8670   49.9940 H   0  0  0  0  0  0  0  0  0  0  0  0
   38.6740   31.8830   50.5590 H   0  0  0  0  0  0  0  0  0  0  0  0
   39.2150   31.5130   48.8950 H   0  0  0  0  0  0  0  0  0  0  0  0
   38.9600   29.2940   49.3160 H   0  0  0  0  0  0  0  0  0  0  0  0
   38.1590   29.6620   50.8610 H   0  0  0  0  0  0  0  0  0  0  0  0
   36.6150   28.7220   48.7340 H   0  0  0  0  0  0  0  0  0  0  0  0
   34.7350   28.9780   50.4290 C   0  0  0  0  0  0  0  0  0  0  0  0
   34.3980   28.0650   49.6050 O   0  0  0  0  0  0  0  0  0  0  0  0
   35.8370   29.8830   50.3090 N   0  0  0  0  0  0  0  0  0  0  0  0
   33.9660   28.8270   51.1640 H   0  0  0  0  0  0  0  0  0  0  0  0
   35.6540   30.5110   51.1140 H   0  0  0  0  0  0  0  0  0  0  0  0
   38.1340   31.2000   45.6810 C   0  0  0  0  0  0  0  0  0  0  0  0
   38.4220   32.3800   46.3040 C   0  0  0  0  0  0  0  0  0  0  0  0
   39.6930   32.9200   46.3310 C   0  0  0  0  0  0  0  0  0  0  0  0
   40.7090   32.2160   45.6880 C   0  0  0  0  0  0  0  0  0  0  0  0
   40.4790   31.0200   45.0390 C   0  0  0  0  0  0  0  0  0  0  0  0
   39.1610   30.5480   45.0640 C   0  0  0  0  0  0  0  0  0  0  0  0
   37.7690   33.0750   46.8000 H   0  0  0  0  0  0  0  0  0  0  0  0
   40.0530   33.8130   46.7780 H   0  0  0  0  0  0  0  0  0  0  0  0
   41.7480   32.5390   45.6430 H   0  0  0  0  0  0  0  0  0  0  0  0
   41.2650   30.4680   44.5330 H   0  0  0  0  0  0  0  0  0  0  0  0
   38.8920   29.2720   44.3640 C   0  0  0  0  0  0  0  0  0  0  0  0
   37.7750   29.0580   44.3850 H   0  0  0  0  0  0  0  0  0  0  0  0
   39.3560   28.4350   44.9360 H   0  0  0  0  0  0  0  0  0  0  0  0
   38.7250   30.0000   41.9140 C   0  0  0  0  0  0  0  0  0  0  0  0
   39.2530   29.2350   42.9340 C   0  0  0  0  0  0  0  0  0  0  0  0
   40.2590   28.3310   42.5660 C   0  0  0  0  0  0  0  0  0  0  0  0
   40.7090   27.7090   43.3210 H   0  0  0  0  0  0  0  0  0  0  0  0
   40.7160   28.1950   41.2600 C   0  0  0  0  0  3  0  0  0  0  0  0
   40.2000   28.9490   40.2430 C   0  0  0  0  0  3  0  0  0  0  0  0
   39.2070   29.8380   40.6120 C   0  0  0  0  0  0  0  0  0  0  0  0
   37.7400   30.8860   42.2730 O   0  0  0  0  0  0  0  0  0  0  0  0
   37.7620   31.8740   42.1380 H   0  0  0  0  0  0  0  0  0  0  0  0
   38.6610   30.6210   39.5960 O   0  0  0  0  0  0  0  0  0  0  0  0
   39.2130   30.9540   38.8110 H   0  0  0  0  0  0  0  0  0  0  0  0
  1  2  1  0  0  0  0
  1  7  1  0  0  0  0
  2  9  1  0  0  0  0
  3  2  2  0  0  0  0
  4  3  1  0  0  0  0
  5  4  2  0  0  0  0
  5  6  1  0  0  0  0
  6  1  2  0  0  0  0
  8  5  1  0  0  0  0
  9 10  1  0  0  0  0
  9 13  1  0  0  0  0
 10 11  1  0  0  0  0
 10 15  1  0  0  0  0
 11 12  1  0  0  0  0
 11 16  1  0  0  0  0
 12 19  1  0  0  0  0
 13 20  1  6  0  0  0
 13 12  1  0  0  0  0
 13 23  1  0  0  0  0
 14 10  1  0  0  0  0
 17 11  1  0  0  0  0
 18 12  1  0  0  0  0
 21 24  1  0  0  0  0
 22 21  2  0  0  0  0
 23 21  1  0  0  0  0
 23 25  1  0  0  0  0
 26  3  1  0  0  0  0
 26 27  1  0  0  0  0
 27 28  2  0  0  0  0
 27 32  1  0  0  0  0
 28 33  1  0  0  0  0
 29 28  1  0  0  0  0
 30 31  1  0  0  0  0
 30 29  2  0  0  0  0
 31 26  2  0  0  0  0
 34 29  1  0  0  0  0
 35 30  1  0  0  0  0
 36 37  1  0  0  0  0
 36 38  1  0  0  0  0
 36 31  1  0  0  0  0
 39 46  1  0  0  0  0
 39 40  1  0  0  0  0
 40 36  1  0  0  0  0
 41 40  2  0  0  0  0
 41 42  1  0  0  0  0
 43 41  1  0  0  0  0
 44 45  1  0  0  0  0
 44 43  2  0  0  0  0
 45 39  2  0  0  0  0
 47 46  1  0  0  0  0
 48 45  1  0  0  0  0
 49 48  1  0  0  0  0
M  END
>  <minimizedAffinity>
-6.09589815

>  <minimizedRMSD>
0.945359111

$$$$
