
 OpenBabel03272510173D

 30 32  0  0  0  0  0  0  0  0999 V2000
   37.2710   29.5090   51.1830 Br  0  0  0  0  0  0  0  0  0  0  0  0
   36.0610   29.2950   49.7170 C   0  0  0  0  0  0  0  0  0  0  0  0
   36.1290   30.1250   48.5960 C   0  0  0  0  0  0  0  0  0  0  0  0
   35.2230   29.9060   47.5800 C   0  0  0  0  0  0  0  0  0  0  0  0
   34.2610   28.9090   47.6240 C   0  0  0  0  0  0  0  0  0  0  0  0
   34.2200   28.1090   48.7420 C   0  0  0  0  0  0  0  0  0  0  0  0
   35.1130   28.3080   49.7690 C   0  0  0  0  0  0  0  0  0  0  0  0
   35.2690   30.5480   46.7030 H   0  0  0  0  0  0  0  0  0  0  0  0
   33.4740   27.3280   48.7870 H   0  0  0  0  0  0  0  0  0  0  0  0
   35.0610   27.6590   50.6480 H   0  0  0  0  0  0  0  0  0  0  0  0
   37.9610   33.1790   49.4160 C   0  0  0  0  0  0  0  0  0  0  0  0
   38.9970   33.2010   48.4590 C   0  0  0  0  0  0  0  0  0  0  0  0
   39.0600   32.1530   47.5260 C   0  0  0  0  0  0  0  0  0  0  0  0
   38.1130   31.1660   47.5950 N   0  0  0  0  0  0  0  0  0  0  0  0
   37.1310   31.1780   48.5290 C   0  0  0  0  0  0  0  0  0  0  0  0
   37.0580   32.1760   49.4300 N   0  0  0  0  0  0  0  0  0  0  0  0
   37.9540   34.0090   50.1150 H   0  0  0  0  0  0  0  0  0  0  0  0
   39.7550   33.9440   48.3650 H   0  0  0  0  0  0  0  0  0  0  0  0
   39.7980   32.0550   46.7490 H   0  0  0  0  0  0  0  0  0  0  0  0
   31.9880   28.6450   46.6780 C   0  0  0  0  0  0  0  0  0  0  0  0
   33.3480   28.7620   46.4900 C   0  0  0  0  0  0  0  0  0  0  0  0
   33.8420   28.7380   45.2110 C   0  0  0  0  0  0  0  0  0  0  0  0
   34.8790   28.8230   44.9900 H   0  0  0  0  0  0  0  0  0  0  0  0
   32.9270   28.5950   44.1690 C   0  0  0  0  0  3  0  0  0  0  0  0
   31.5580   28.4770   44.3520 C   0  0  0  0  0  3  0  0  0  0  0  0
   31.0850   28.5030   45.6450 C   0  0  0  0  0  0  0  0  0  0  0  0
   31.5080   28.6710   47.9870 O   0  0  0  0  0  0  0  0  0  0  0  0
   30.7880   28.0460   48.3220 H   0  0  0  0  0  0  0  0  0  0  0  0
   29.7140   28.3900   45.9220 O   0  0  0  0  0  0  0  0  0  0  0  0
   29.3070   27.4570   46.0790 H   0  0  0  0  0  0  0  0  0  0  0  0
  2  7  1  0  0  0  0
  2  1  1  0  0  0  0
  3  2  2  0  0  0  0
  4  5  2  0  0  0  0
  4  3  1  0  0  0  0
  5  6  1  0  0  0  0
  6  9  1  0  0  0  0
  6  7  2  0  0  0  0
  7 10  1  0  0  0  0
  8  4  1  0  0  0  0
 11 16  1  0  0  0  0
 11 17  1  0  0  0  0
 12 11  2  0  0  0  0
 13 14  2  0  0  0  0
 13 12  1  0  0  0  0
 14 15  1  0  0  0  0
 15  3  1  0  0  0  0
 15 16  2  0  0  0  0
 18 12  1  0  0  0  0
 19 13  1  0  0  0  0
 20 27  1  0  0  0  0
 21 20  1  0  0  0  0
 21  5  1  0  0  0  0
 22 21  2  0  0  0  0
 23 22  1  0  0  0  0
 24 25  2  0  0  0  0
 24 22  1  0  0  0  0
 25 26  1  0  0  0  0
 26 29  1  0  0  0  0
 26 20  2  0  0  0  0
 27 28  1  0  0  0  0
 29 30  1  0  0  0  0
M  END
>  <minimizedAffinity>
-6.31410408

>  <minimizedRMSD>
0.449267596

$$$$
