
 OpenBabel03272505313D

 42 45  0  0  0  0  0  0  0  0999 V2000
   37.4390   31.0620   47.3360 N   0  0  0  0  0  0  0  0  0  0  0  0
   36.8730   30.6920   46.1570 C   0  0  0  0  0  0  0  0  0  0  0  0
   37.3370   31.1660   44.9340 C   0  0  0  0  0  0  0  0  0  0  0  0
   38.4220   32.0500   44.9530 C   0  0  0  0  0  0  0  0  0  0  0  0
   38.8750   32.5030   43.8800 O   0  0  0  0  0  0  0  0  0  0  0  0
   38.9900   32.4200   46.1490 N   0  0  0  0  0  0  0  0  0  0  0  0
   38.4560   31.8990   47.2470 C   0  0  0  0  0  0  0  0  0  0  0  0
   39.0040   32.2640   48.3130 O   0  0  0  0  0  0  0  0  0  0  0  0
   36.0340   30.0080   46.1470 H   0  0  0  0  0  0  0  0  0  0  0  0
   37.3300   29.5330   50.7130 C   0  0  0  0  0  0  0  0  0  0  0  0
   37.8090   30.0150   49.4900 C   0  0  0  0  0  0  0  0  0  0  0  0
   36.9660   30.5820   48.5530 C   0  0  0  0  0  0  0  0  0  0  0  0
   35.6660   30.6430   48.8770 N   0  0  0  0  0  0  0  0  0  0  0  0
   35.1600   30.1860   50.0550 C   0  0  0  0  0  0  0  0  0  0  0  0
   36.0220   29.6260   50.9710 N   0  0  0  0  0  0  0  0  0  0  0  0
   38.0540   29.1070   51.3850 H   0  0  0  0  0  0  0  0  0  0  0  0
   38.8710   29.9460   49.2650 H   0  0  0  0  0  0  0  0  0  0  0  0
   34.0930   30.2560   50.2810 H   0  0  0  0  0  0  0  0  0  0  0  0
   36.7640   30.7980   43.6480 C   0  0  0  0  0  0  0  0  0  0  0  0
   37.2090   29.7530   42.8930 C   0  0  0  0  0  0  0  0  0  0  0  0
   36.6830   29.3840   41.6720 C   0  0  0  0  0  0  0  0  0  0  0  0
   35.6110   30.1380   41.1710 C   0  0  0  0  0  0  0  0  0  0  0  0
   35.1880   31.1870   41.9640 C   0  0  0  0  0  0  0  0  0  0  0  0
   35.7520   31.4750   43.1310 N   0  0  0  0  0  0  0  0  0  0  0  0
   38.0390   29.1400   43.2410 H   0  0  0  0  0  0  0  0  0  0  0  0
   37.0730   28.5530   41.1210 H   0  0  0  0  0  0  0  0  0  0  0  0
   35.1980   29.8650   40.2340 H   0  0  0  0  0  0  0  0  0  0  0  0
   33.9250   33.3210   41.9670 C   0  0  0  0  0  0  0  0  0  0  0  0
   34.0790   32.0210   41.5170 C   0  0  0  0  0  0  0  0  0  0  0  0
   33.0960   31.6350   40.6330 C   0  0  0  0  0  0  0  0  0  0  0  0
   33.1350   30.6350   40.2280 H   0  0  0  0  0  0  0  0  0  0  0  0
   32.0660   32.4600   40.2390 C   0  0  0  0  0  3  0  0  0  0  0  0
   31.9790   33.7460   40.7330 C   0  0  0  0  0  3  0  0  0  0  0  0
   32.9270   34.2030   41.6240 C   0  0  0  0  0  0  0  0  0  0  0  0
   34.8860   33.8020   42.8760 O   0  0  0  0  0  0  0  0  0  0  0  0
   35.6710   34.2930   42.4220 H   0  0  0  0  0  0  0  0  0  0  0  0
   32.8930   35.4860   42.1530 O   0  0  0  0  0  0  0  0  0  0  0  0
   32.7470   36.2520   41.4910 H   0  0  0  0  0  0  0  0  0  0  0  0
   40.1060   33.3310   46.1560 C   0  0  0  0  0  0  0  0  0  0  0  0
   39.9580   34.2850   45.2090 F   0  0  0  0  0  0  0  0  0  0  0  0
   41.3180   32.7130   45.9030 F   0  0  0  0  0  0  0  0  0  0  0  0
   40.1520   33.9620   47.4050 F   0  0  0  0  0  0  0  0  0  0  0  0
  1 12  1  0  0  0  0
  2  1  1  0  0  0  0
  3  4  1  0  0  0  0
  3  2  2  0  0  0  0
  4  6  1  0  0  0  0
  5  4  2  0  0  0  0
  6 39  1  0  0  0  0
  6  7  1  0  0  0  0
  7  1  1  0  0  0  0
  7  8  2  0  0  0  0
  9  2  1  0  0  0  0
 10 15  1  0  0  0  0
 10 16  1  0  0  0  0
 11 10  2  0  0  0  0
 12 13  2  0  0  0  0
 12 11  1  0  0  0  0
 13 14  1  0  0  0  0
 14 18  1  0  0  0  0
 14 15  2  0  0  0  0
 17 11  1  0  0  0  0
 19  3  1  0  0  0  0
 20 25  1  0  0  0  0
 20 19  2  0  0  0  0
 21 20  1  0  0  0  0
 22 21  2  0  0  0  0
 22 23  1  0  0  0  0
 23 24  2  0  0  0  0
 24 19  1  0  0  0  0
 26 21  1  0  0  0  0
 27 22  1  0  0  0  0
 28 35  1  0  0  0  0
 29 23  1  0  0  0  0
 29 28  2  0  0  0  0
 30 29  1  0  0  0  0
 31 30  1  0  0  0  0
 32 30  2  0  0  0  0
 32 33  1  0  0  0  0
 33 34  2  0  0  0  0
 34 28  1  0  0  0  0
 34 37  1  0  0  0  0
 36 35  1  0  0  0  0
 38 37  1  0  0  0  0
 39 42  1  0  0  0  0
 40 39  1  0  0  0  0
 41 39  1  0  0  0  0
M  END
>  <minimizedAffinity>
-6.8371973

>  <minimizedRMSD>
0.284896165

$$$$
