
 OpenBabel03272509153D

 49 52  0  0  1  0  0  0  0  0999 V2000
   34.7340   30.1190   46.7440 C   0  0  0  0  0  0  0  0  0  0  0  0
   36.0750   30.5700   46.8060 C   0  0  0  0  0  0  0  0  0  0  0  0
   36.7680   30.7150   45.6090 C   0  0  0  0  0  0  0  0  0  0  0  0
   36.1300   30.4200   44.4430 N   0  0  0  0  0  0  0  0  0  0  0  0
   34.8540   29.9940   44.4200 C   0  0  0  0  0  0  0  0  0  0  0  0
   34.1630   29.8450   45.5500 N   0  0  0  0  0  0  0  0  0  0  0  0
   34.1260   29.9920   47.6100 H   0  0  0  0  0  0  0  0  0  0  0  0
   34.3130   29.7480   43.5050 H   0  0  0  0  0  0  0  0  0  0  0  0
   36.5850   30.8130   48.1370 N   0  0  0  0  0  0  0  0  0  0  0  0
   37.0700   31.8940   48.9450 C   0  0  0  0  0  0  0  0  0  0  0  0
   38.3700   31.3730   49.4710 C   0  0  0  0  0  0  0  0  0  0  0  0
   38.1040   29.8730   49.6470 C   0  0  0  0  0  0  0  0  0  0  0  0
   36.7310   29.6840   49.0980 C   0  0  1  0  0  0  0  0  0  0  0  0
   37.0120   32.9010   48.5960 H   0  0  0  0  0  0  0  0  0  0  0  0
   36.3850   31.8920   49.8510 H   0  0  0  0  0  0  0  0  0  0  0  0
   38.6630   31.8480   50.4330 H   0  0  0  0  0  0  0  0  0  0  0  0
   39.2050   31.4520   48.7750 H   0  0  0  0  0  0  0  0  0  0  0  0
   38.8860   29.2440   49.2100 H   0  0  0  0  0  0  0  0  0  0  0  0
   38.0840   29.6450   50.7460 H   0  0  0  0  0  0  0  0  0  0  0  0
   36.5300   28.7330   48.6140 H   0  0  0  0  0  0  0  0  0  0  0  0
   34.6810   29.0160   50.3310 C   0  0  0  0  0  0  0  0  0  0  0  0
   34.3510   28.0680   49.5450 O   0  0  0  0  0  0  0  0  0  0  0  0
   35.7730   29.9250   50.1760 N   0  0  0  0  0  0  0  0  0  0  0  0
   33.9130   28.8860   51.0730 H   0  0  0  0  0  0  0  0  0  0  0  0
   35.5840   30.5830   50.9550 H   0  0  0  0  0  0  0  0  0  0  0  0
   38.1320   31.1660   45.5550 C   0  0  0  0  0  0  0  0  0  0  0  0
   38.4130   32.4110   46.0400 C   0  0  0  0  0  0  0  0  0  0  0  0
   39.6910   32.9350   46.0610 C   0  0  0  0  0  0  0  0  0  0  0  0
   40.7230   32.1440   45.5590 C   0  0  0  0  0  0  0  0  0  0  0  0
   40.5010   30.8800   45.0530 C   0  0  0  0  0  0  0  0  0  0  0  0
   39.1750   30.4300   45.0730 C   0  0  0  0  0  0  0  0  0  0  0  0
   37.7510   33.1700   46.4140 H   0  0  0  0  0  0  0  0  0  0  0  0
   40.0460   33.8720   46.4110 H   0  0  0  0  0  0  0  0  0  0  0  0
   41.7680   32.4460   45.5240 H   0  0  0  0  0  0  0  0  0  0  0  0
   41.3000   30.2590   44.6580 H   0  0  0  0  0  0  0  0  0  0  0  0
   38.9160   29.0800   44.5250 C   0  0  0  0  0  0  0  0  0  0  0  0
   37.7950   28.8920   44.4990 H   0  0  0  0  0  0  0  0  0  0  0  0
   39.3200   28.3150   45.2260 H   0  0  0  0  0  0  0  0  0  0  0  0
   39.6280   27.6440   42.5270 C   0  0  0  0  0  0  0  0  0  0  0  0
   39.3640   28.8540   43.1370 C   0  0  0  0  0  0  0  0  0  0  0  0
   39.5250   29.9920   42.3360 C   0  0  0  0  0  0  0  0  0  0  0  0
   39.3330   30.9620   42.7600 H   0  0  0  0  0  0  0  0  0  0  0  0
   39.9270   29.9350   41.0070 C   0  0  0  0  0  3  0  0  0  0  0  0
   40.1890   28.7420   40.3930 C   0  0  0  0  0  3  0  0  0  0  0  0
   40.0280   27.6230   41.1880 C   0  0  0  0  0  0  0  0  0  0  0  0
   39.4690   26.5260   43.3080 O   0  0  0  0  0  0  0  0  0  0  0  0
   38.8610   25.7600   43.1190 H   0  0  0  0  0  0  0  0  0  0  0  0
   40.2890   26.3900   40.5900 O   0  0  0  0  0  0  0  0  0  0  0  0
   40.0890   26.2070   39.6110 H   0  0  0  0  0  0  0  0  0  0  0  0
  1  2  1  0  0  0  0
  1  7  1  0  0  0  0
  2  9  1  0  0  0  0
  3  2  2  0  0  0  0
  4  3  1  0  0  0  0
  5  4  2  0  0  0  0
  5  6  1  0  0  0  0
  6  1  2  0  0  0  0
  8  5  1  0  0  0  0
  9 10  1  0  0  0  0
  9 13  1  0  0  0  0
 10 11  1  0  0  0  0
 10 15  1  0  0  0  0
 11 12  1  0  0  0  0
 11 16  1  0  0  0  0
 12 19  1  0  0  0  0
 13 20  1  6  0  0  0
 13 12  1  0  0  0  0
 13 23  1  0  0  0  0
 14 10  1  0  0  0  0
 17 11  1  0  0  0  0
 18 12  1  0  0  0  0
 21 24  1  0  0  0  0
 22 21  2  0  0  0  0
 23 21  1  0  0  0  0
 23 25  1  0  0  0  0
 26  3  1  0  0  0  0
 26 27  1  0  0  0  0
 27 28  2  0  0  0  0
 27 32  1  0  0  0  0
 28 33  1  0  0  0  0
 29 28  1  0  0  0  0
 30 31  1  0  0  0  0
 30 29  2  0  0  0  0
 31 26  2  0  0  0  0
 34 29  1  0  0  0  0
 35 30  1  0  0  0  0
 36 31  1  0  0  0  0
 36 38  1  0  0  0  0
 37 36  1  0  0  0  0
 39 40  1  0  0  0  0
 39 46  1  0  0  0  0
 40 36  1  0  0  0  0
 41 42  1  0  0  0  0
 41 40  2  0  0  0  0
 43 41  1  0  0  0  0
 44 43  2  0  0  0  0
 44 45  1  0  0  0  0
 45 39  2  0  0  0  0
 47 46  1  0  0  0  0
 48 45  1  0  0  0  0
 49 48  1  0  0  0  0
M  END
>  <minimizedAffinity>
-6.13411903

>  <minimizedRMSD>
1.11378324

$$$$
