
 OpenBabel03272508063D

 37 40  0  0  0  0  0  0  0  0999 V2000
   38.8710   30.8850   45.7980 C   0  0  0  0  0  0  0  0  0  0  0  0
   40.0560   31.5540   46.0740 C   0  0  0  0  0  0  0  0  0  0  0  0
   40.9040   31.5020   44.9760 C   0  0  0  0  0  0  0  0  0  0  0  0
   40.1880   30.7940   44.0720 N   0  0  0  0  0  0  0  0  0  0  0  0
   39.0020   30.4310   44.5420 N   0  0  0  0  0  0  0  0  0  0  0  0
   40.3200   32.0570   46.9980 H   0  0  0  0  0  0  0  0  0  0  0  0
   41.8780   31.8910   44.8100 H   0  0  0  0  0  0  0  0  0  0  0  0
   37.7500   30.7310   46.7020 C   0  0  0  0  0  0  0  0  0  0  0  0
   37.9590   30.9330   48.0930 C   0  0  0  0  0  0  0  0  0  0  0  0
   36.8570   30.7770   48.9320 C   0  0  0  0  0  0  0  0  0  0  0  0
   35.6580   30.4450   48.3800 N   0  0  0  0  0  0  0  0  0  0  0  0
   35.4890   30.2590   47.0520 C   0  0  0  0  0  0  0  0  0  0  0  0
   36.5440   30.4050   46.2250 N   0  0  0  0  0  0  0  0  0  0  0  0
   38.9080   31.1930   48.5060 H   0  0  0  0  0  0  0  0  0  0  0  0
   34.5110   29.9960   46.6740 H   0  0  0  0  0  0  0  0  0  0  0  0
   37.0540   30.9840   50.3970 C   0  0  0  0  0  0  0  0  0  0  0  0
   36.5570   32.2410   50.6590 F   0  0  0  0  0  0  0  0  0  0  0  0
   36.3450   30.0660   51.1560 F   0  0  0  0  0  0  0  0  0  0  0  0
   38.3920   30.9630   50.7480 F   0  0  0  0  0  0  0  0  0  0  0  0
   40.5680   30.4170   42.7060 C   0  0  0  0  0  0  0  0  0  0  0  0
   40.1930   31.1910   41.5990 C   0  0  0  0  0  0  0  0  0  0  0  0
   40.5650   30.8120   40.3550 C   0  0  0  0  0  0  0  0  0  0  0  0
   41.3310   29.6290   40.2060 C   0  0  0  0  0  0  0  0  0  0  0  0
   41.5140   29.0500   41.9560 S   0  0  0  0  0  0  0  0  0  0  0  0
   39.6020   32.1080   41.6890 H   0  0  0  0  0  0  0  0  0  0  0  0
   40.3790   31.2670   39.4030 H   0  0  0  0  0  0  0  0  0  0  0  0
   43.1370   29.2950   38.6620 C   0  0  0  0  0  0  0  0  0  0  0  0
   41.9010   28.9100   39.1300 C   0  0  0  0  0  0  0  0  0  0  0  0
   41.1540   27.8670   38.6380 C   0  0  0  0  0  0  0  0  0  0  0  0
   40.1970   27.6010   39.0320 H   0  0  0  0  0  0  0  0  0  0  0  0
   41.6790   27.1250   37.5720 C   0  0  0  0  0  3  0  0  0  0  0  0
   42.9330   27.4780   37.0610 C   0  0  0  0  0  3  0  0  0  0  0  0
   43.6560   28.5500   37.5970 C   0  0  0  0  0  0  0  0  0  0  0  0
   43.8870   30.3480   39.1610 O   0  0  0  0  0  0  0  0  0  0  0  0
   44.4770   30.2940   39.9730 H   0  0  0  0  0  0  0  0  0  0  0  0
   44.9010   28.9080   37.0970 O   0  0  0  0  0  0  0  0  0  0  0  0
   45.6750   28.2700   37.2620 H   0  0  0  0  0  0  0  0  0  0  0  0
  1  2  1  0  0  0  0
  1  8  1  0  0  0  0
  2  6  1  0  0  0  0
  3  2  2  0  0  0  0
  4  5  1  0  0  0  0
  4  3  1  0  0  0  0
  5  1  2  0  0  0  0
  7  3  1  0  0  0  0
  8  9  1  0  0  0  0
  9 14  1  0  0  0  0
  9 10  2  0  0  0  0
 10 16  1  0  0  0  0
 11 10  1  0  0  0  0
 12 11  2  0  0  0  0
 13  8  2  0  0  0  0
 13 12  1  0  0  0  0
 15 12  1  0  0  0  0
 16 17  1  0  0  0  0
 16 19  1  0  0  0  0
 16 18  1  0  0  0  0
 20  4  1  0  0  0  0
 21 25  1  0  0  0  0
 21 20  2  0  0  0  0
 22 21  1  0  0  0  0
 23 22  2  0  0  0  0
 23 24  1  0  0  0  0
 24 20  1  0  0  0  0
 26 22  1  0  0  0  0
 27 28  1  0  0  0  0
 27 34  1  0  0  0  0
 28 23  1  0  0  0  0
 29 30  1  0  0  0  0
 29 28  2  0  0  0  0
 31 29  1  0  0  0  0
 32 31  2  0  0  0  0
 32 33  1  0  0  0  0
 33 27  2  0  0  0  0
 34 35  1  0  0  0  0
 36 37  1  0  0  0  0
 36 33  1  0  0  0  0
M  END
>  <minimizedAffinity>
-6.73234367

>  <minimizedRMSD>
0.86759603

$$$$
