
 OpenBabel03272505523D

 46 49  0  0  1  0  0  0  0  0999 V2000
   37.1870   29.2130   50.4140 C   0  0  0  0  0  0  0  0  0  0  0  0
   37.3230   30.5690   50.7980 C   0  0  0  0  0  0  0  0  0  0  0  0
   36.5650   31.5000   50.0990 C   0  0  0  0  0  0  0  0  0  0  0  0
   35.7490   31.0600   49.1020 N   0  0  0  0  0  0  0  0  0  0  0  0
   35.6520   29.7750   48.7740 C   0  0  0  0  0  0  0  0  0  0  0  0
   36.3690   28.8510   49.4280 N   0  0  0  0  0  0  0  0  0  0  0  0
   34.7830   29.3770   47.7270 N   0  0  0  0  0  0  0  0  0  0  0  0
   34.1700   28.0620   47.7050 C   0  0  0  0  0  0  0  0  0  0  0  0
   32.6890   28.1820   47.5490 C   0  0  0  0  0  0  0  0  0  0  0  0
   32.2090   29.4170   47.1650 N   0  0  0  0  0  0  0  0  0  0  0  0
   33.0290   30.3500   46.4370 C   0  0  0  0  0  0  0  0  0  0  0  0
   34.4640   30.2670   46.6280 C   0  0  2  0  0  0  0  0  0  0  0  0
   37.7280   28.3800   50.8830 H   0  0  0  0  0  0  0  0  0  0  0  0
   37.9970   30.7820   51.5950 H   0  0  0  0  0  0  0  0  0  0  0  0
   36.6540   32.5330   50.3760 H   0  0  0  0  0  0  0  0  0  0  0  0
   34.6750   27.3280   47.0870 H   0  0  0  0  0  0  0  0  0  0  0  0
   34.3220   27.6570   48.7630 H   0  0  0  0  0  0  0  0  0  0  0  0
   32.1210   27.8220   48.4310 H   0  0  0  0  0  0  0  0  0  0  0  0
   32.4140   27.4340   46.7460 H   0  0  0  0  0  0  0  0  0  0  0  0
   31.3370   29.7890   47.5490 H   0  0  0  0  0  0  0  0  0  0  0  0
   32.7110   31.3450   46.9100 H   0  0  0  0  0  0  0  0  0  0  0  0
   32.5700   30.4270   45.4660 H   0  0  0  0  0  0  0  0  0  0  0  0
   34.9340   31.2670   46.8780 H   0  0  0  0  0  0  0  0  0  0  0  0
   35.2060   29.7880   45.4690 N   0  0  2  0  0  0  0  0  0  0  0  0
   36.5680   30.3300   45.4580 C   0  0  0  0  0  0  0  0  0  0  0  0
   36.9270   30.5960   44.0080 C   0  0  0  0  0  0  0  0  0  0  0  0
   35.7970   29.9880   43.2690 C   0  0  0  0  0  0  0  0  0  0  0  0
   34.6100   30.1470   44.2390 C   0  0  1  0  0  0  0  0  0  0  0  0
   36.5300   31.2940   46.0060 H   0  0  0  0  0  0  0  0  0  0  0  0
   37.2760   29.6450   45.9420 H   0  0  0  0  0  0  0  0  0  0  0  0
   37.9240   30.1760   43.7680 H   0  0  0  0  0  0  0  0  0  0  0  0
   36.9900   31.6890   43.8050 H   0  0  0  0  0  0  0  0  0  0  0  0
   35.5660   30.4700   42.2990 H   0  0  0  0  0  0  0  0  0  0  0  0
   35.9730   28.8930   43.1610 H   0  0  0  0  0  0  0  0  0  0  0  0
   34.4150   31.2210   44.0870 H   0  0  0  0  0  0  0  0  0  0  0  0
   33.7100   27.8640   43.7540 C   0  0  0  0  0  0  0  0  0  0  0  0
   33.6270   29.2470   43.6460 C   0  0  0  0  0  0  0  0  0  0  0  0
   32.5130   29.6520   42.9480 C   0  0  0  0  0  0  0  0  0  0  0  0
   32.3250   30.7040   42.8050 H   0  0  0  0  0  0  0  0  0  0  0  0
   31.5620   28.8210   42.3990 C   0  0  0  0  0  3  0  0  0  0  0  0
   31.7040   27.4570   42.5410 C   0  0  0  0  0  3  0  0  0  0  0  0
   32.7970   26.9730   43.2300 C   0  0  0  0  0  0  0  0  0  0  0  0
   34.7620   27.2630   44.4230 O   0  0  0  0  0  0  0  0  0  0  0  0
   35.5120   26.8730   43.8960 H   0  0  0  0  0  0  0  0  0  0  0  0
   32.9030   25.6120   43.3500 O   0  0  0  0  0  0  0  0  0  0  0  0
   32.9570   25.0770   42.4920 H   0  0  0  0  0  0  0  0  0  0  0  0
  1  2  1  0  0  0  0
  1 13  1  0  0  0  0
  2 14  1  0  0  0  0
  3 15  1  0  0  0  0
  3  2  2  0  0  0  0
  4  3  1  0  0  0  0
  5  4  2  0  0  0  0
  5  6  1  0  0  0  0
  6  1  2  0  0  0  0
  7  5  1  0  0  0  0
  8  7  1  0  0  0  0
  8 17  1  0  0  0  0
  9  8  1  0  0  0  0
  9 18  1  0  0  0  0
 10  9  1  0  0  0  0
 10 20  1  0  0  0  0
 11 12  1  0  0  0  0
 11 21  1  0  0  0  0
 11 10  1  0  0  0  0
 12 23  1  1  0  0  0
 12  7  1  0  0  0  0
 16  8  1  0  0  0  0
 19  9  1  0  0  0  0
 22 11  1  0  0  0  0
 24 25  1  6  0  0  0
 24 12  1  0  0  0  0
 25 30  1  0  0  0  0
 25 29  1  0  0  0  0
 26 25  1  0  0  0  0
 27 26  1  0  0  0  0
 27 28  1  0  0  0  0
 28 35  1  1  0  0  0
 28 24  1  0  0  0  0
 31 26  1  0  0  0  0
 32 26  1  0  0  0  0
 33 27  1  0  0  0  0
 34 27  1  0  0  0  0
 36 43  1  0  0  0  0
 37 36  1  0  0  0  0
 37 28  1  0  0  0  0
 38 37  2  0  0  0  0
 39 38  1  0  0  0  0
 40 41  2  0  0  0  0
 40 38  1  0  0  0  0
 41 42  1  0  0  0  0
 42 45  1  0  0  0  0
 42 36  2  0  0  0  0
 44 43  1  0  0  0  0
 46 45  1  0  0  0  0
M  END
>  <minimizedAffinity>
-4.49525261

>  <minimizedRMSD>
1.11763132

$$$$
