
 OpenBabel03272506483D

 44 47  0  0  1  0  0  0  0  0999 V2000
   31.9870   28.3780   47.5120 C   0  0  2  0  0  0  0  0  0  0  0  0
   33.2450   28.1840   48.3090 C   0  0  1  0  0  0  0  0  0  0  0  0
   33.6000   26.8720   48.2220 O   0  0  0  0  0  0  0  0  0  0  0  0
   32.8470   26.2510   47.2310 C   0  0  0  0  0  0  0  0  0  0  0  0
   32.2620   27.3480   46.3760 C   0  0  1  0  0  0  0  0  0  0  0  0
   31.0650   28.0860   48.0030 H   0  0  0  0  0  0  0  0  0  0  0  0
   33.1400   28.5560   49.3560 H   0  0  0  0  0  0  0  0  0  0  0  0
   32.1160   25.6360   47.7660 H   0  0  0  0  0  0  0  0  0  0  0  0
   33.4720   25.5500   46.6260 H   0  0  0  0  0  0  0  0  0  0  0  0
   33.0090   27.7760   45.7140 H   0  0  0  0  0  0  0  0  0  0  0  0
   31.9480   29.6730   46.9580 O   0  0  0  0  0  0  0  0  0  0  0  0
   32.1290   30.2850   47.7130 H   0  0  0  0  0  0  0  0  0  0  0  0
   34.5670   29.1760   47.5070 S   0  0  0  0  0  0  0  0  0  0  0  0
   37.0110   29.2490   50.6260 C   0  0  0  0  0  0  0  0  0  0  0  0
   37.4160   30.5770   50.7400 C   0  0  0  0  0  0  0  0  0  0  0  0
   36.9170   31.4910   49.8170 C   0  0  0  0  0  0  0  0  0  0  0  0
   36.0590   31.0460   48.8500 N   0  0  0  0  0  0  0  0  0  0  0  0
   35.6930   29.7460   48.7810 C   0  0  0  0  0  0  0  0  0  0  0  0
   36.1620   28.8320   49.6620 N   0  0  0  0  0  0  0  0  0  0  0  0
   37.3890   28.5260   51.3350 H   0  0  0  0  0  0  0  0  0  0  0  0
   38.0980   30.8830   51.5220 H   0  0  0  0  0  0  0  0  0  0  0  0
   37.2080   32.5250   49.8730 H   0  0  0  0  0  0  0  0  0  0  0  0
   31.0920   26.9020   45.8110 O   0  0  0  0  0  0  0  0  0  0  0  0
   29.9330   29.1110   44.2480 Cl  0  0  0  0  0  0  0  0  0  0  0  0
   29.2220   28.2260   45.5770 C   0  0  0  0  0  0  0  0  0  0  0  0
   29.8620   27.1980   46.2280 C   0  0  0  0  0  0  0  0  0  0  0  0
   29.1780   26.5500   47.2580 C   0  0  0  0  0  0  0  0  0  0  0  0
   27.9060   26.9330   47.6110 C   0  0  0  0  0  0  0  0  0  0  0  0
   27.2530   27.9660   46.9630 C   0  0  0  0  0  0  0  0  0  0  0  0
   27.9180   28.6160   45.9390 C   0  0  0  0  0  0  0  0  0  0  0  0
   29.5780   25.7320   47.8290 H   0  0  0  0  0  0  0  0  0  0  0  0
   27.3130   26.4840   48.3940 H   0  0  0  0  0  0  0  0  0  0  0  0
   26.2450   28.2890   47.2230 H   0  0  0  0  0  0  0  0  0  0  0  0
   26.5230   29.2350   44.1490 C   0  0  0  0  0  0  0  0  0  0  0  0
   27.2500   29.7120   45.2400 C   0  0  0  0  0  0  0  0  0  0  0  0
   27.2610   31.0590   45.5200 C   0  0  0  0  0  0  0  0  0  0  0  0
   27.8560   31.3070   46.3860 H   0  0  0  0  0  0  0  0  0  0  0  0
   26.5470   31.9210   44.7110 C   0  0  0  0  0  3  0  0  0  0  0  0
   25.8220   31.4760   43.6300 C   0  0  0  0  0  3  0  0  0  0  0  0
   25.8080   30.1100   43.3410 C   0  0  0  0  0  0  0  0  0  0  0  0
   26.4150   27.9150   43.7410 O   0  0  0  0  0  0  0  0  0  0  0  0
   27.1300   27.3690   43.3160 H   0  0  0  0  0  0  0  0  0  0  0  0
   25.0590   29.7240   42.2380 O   0  0  0  0  0  0  0  0  0  0  0  0
   25.3570   28.8550   41.7710 H   0  0  0  0  0  0  0  0  0  0  0  0
  1  6  1  1  0  0  0
  1  2  1  0  0  0  0
  2  7  1  1  0  0  0
  3  2  1  0  0  0  0
  4  8  1  0  0  0  0
  4  3  1  0  0  0  0
  5 10  1  6  0  0  0
  5  4  1  0  0  0  0
  5  1  1  0  0  0  0
  9  4  1  0  0  0  0
 11  1  1  0  0  0  0
 11 12  1  0  0  0  0
 13  2  1  0  0  0  0
 13 18  1  0  0  0  0
 14 15  1  0  0  0  0
 14 20  1  0  0  0  0
 15 21  1  0  0  0  0
 16 22  1  0  0  0  0
 16 15  2  0  0  0  0
 17 16  1  0  0  0  0
 18 17  2  0  0  0  0
 18 19  1  0  0  0  0
 19 14  2  0  0  0  0
 23 26  1  0  0  0  0
 23  5  1  0  0  0  0
 24 25  1  0  0  0  0
 25 30  2  0  0  0  0
 25 26  1  0  0  0  0
 26 27  2  0  0  0  0
 27 28  1  0  0  0  0
 27 31  1  0  0  0  0
 28 32  1  0  0  0  0
 29 33  1  0  0  0  0
 29 28  2  0  0  0  0
 30 29  1  0  0  0  0
 34 35  1  0  0  0  0
 35 36  2  0  0  0  0
 35 30  1  0  0  0  0
 36 37  1  0  0  0  0
 38 36  1  0  0  0  0
 39 38  2  0  0  0  0
 40 39  1  0  0  0  0
 40 34  2  0  0  0  0
 41 34  1  0  0  0  0
 42 41  1  0  0  0  0
 43 40  1  0  0  0  0
 44 43  1  0  0  0  0
M  END
>  <minimizedAffinity>
-5.57290411

>  <minimizedRMSD>
0.367806047

$$$$
