
 OpenBabel03272508063D

 37 40  0  0  0  0  0  0  0  0999 V2000
   38.8990   30.8920   45.7800 C   0  0  0  0  0  0  0  0  0  0  0  0
   40.0870   31.5560   46.0480 C   0  0  0  0  0  0  0  0  0  0  0  0
   40.9290   31.5000   44.9450 C   0  0  0  0  0  0  0  0  0  0  0  0
   40.2040   30.7950   44.0460 N   0  0  0  0  0  0  0  0  0  0  0  0
   39.0200   30.4370   44.5240 N   0  0  0  0  0  0  0  0  0  0  0  0
   40.3590   32.0590   46.9700 H   0  0  0  0  0  0  0  0  0  0  0  0
   41.9030   31.8860   44.7720 H   0  0  0  0  0  0  0  0  0  0  0  0
   37.7830   30.7430   46.6900 C   0  0  0  0  0  0  0  0  0  0  0  0
   37.9980   30.9580   48.0790 C   0  0  0  0  0  0  0  0  0  0  0  0
   36.9000   30.8070   48.9250 C   0  0  0  0  0  0  0  0  0  0  0  0
   35.7000   30.4660   48.3820 N   0  0  0  0  0  0  0  0  0  0  0  0
   35.5240   30.2660   47.0570 C   0  0  0  0  0  0  0  0  0  0  0  0
   36.5750   30.4080   46.2220 N   0  0  0  0  0  0  0  0  0  0  0  0
   38.9470   31.2260   48.4850 H   0  0  0  0  0  0  0  0  0  0  0  0
   34.5460   29.9970   46.6860 H   0  0  0  0  0  0  0  0  0  0  0  0
   37.1030   31.0290   50.3870 C   0  0  0  0  0  0  0  0  0  0  0  0
   36.5870   32.2790   50.6410 F   0  0  0  0  0  0  0  0  0  0  0  0
   36.4150   30.1050   51.1570 F   0  0  0  0  0  0  0  0  0  0  0  0
   38.4440   31.0330   50.7280 F   0  0  0  0  0  0  0  0  0  0  0  0
   40.5750   30.4150   42.6770 C   0  0  0  0  0  0  0  0  0  0  0  0
   40.1970   31.1910   41.5730 C   0  0  0  0  0  0  0  0  0  0  0  0
   40.5600   30.8090   40.3270 C   0  0  0  0  0  0  0  0  0  0  0  0
   41.3190   29.6230   40.1730 C   0  0  0  0  0  0  0  0  0  0  0  0
   41.5100   29.0430   41.9230 S   0  0  0  0  0  0  0  0  0  0  0  0
   39.6110   32.1110   41.6650 H   0  0  0  0  0  0  0  0  0  0  0  0
   40.3700   31.2640   39.3750 H   0  0  0  0  0  0  0  0  0  0  0  0
   43.1500   29.2210   38.6760 C   0  0  0  0  0  0  0  0  0  0  0  0
   41.8800   28.9000   39.0950 C   0  0  0  0  0  0  0  0  0  0  0  0
   41.0870   27.9180   38.5490 C   0  0  0  0  0  0  0  0  0  0  0  0
   40.1030   27.7020   38.9070 H   0  0  0  0  0  0  0  0  0  0  0  0
   41.6000   27.1750   37.4780 C   0  0  0  0  0  3  0  0  0  0  0  0
   42.8890   27.4650   37.0160 C   0  0  0  0  0  3  0  0  0  0  0  0
   43.6570   28.4750   37.6050 C   0  0  0  0  0  0  0  0  0  0  0  0
   43.9470   30.2120   39.2290 O   0  0  0  0  0  0  0  0  0  0  0  0
   44.5060   30.0990   40.0570 H   0  0  0  0  0  0  0  0  0  0  0  0
   44.9380   28.7710   37.1540 O   0  0  0  0  0  0  0  0  0  0  0  0
   45.6660   28.0820   37.3230 H   0  0  0  0  0  0  0  0  0  0  0  0
  1  2  1  0  0  0  0
  1  8  1  0  0  0  0
  2  6  1  0  0  0  0
  3  2  2  0  0  0  0
  4  5  1  0  0  0  0
  4  3  1  0  0  0  0
  5  1  2  0  0  0  0
  7  3  1  0  0  0  0
  8  9  1  0  0  0  0
  9 14  1  0  0  0  0
  9 10  2  0  0  0  0
 10 16  1  0  0  0  0
 11 10  1  0  0  0  0
 12 11  2  0  0  0  0
 13  8  2  0  0  0  0
 13 12  1  0  0  0  0
 15 12  1  0  0  0  0
 16 17  1  0  0  0  0
 16 19  1  0  0  0  0
 16 18  1  0  0  0  0
 20  4  1  0  0  0  0
 21 25  1  0  0  0  0
 21 20  2  0  0  0  0
 22 21  1  0  0  0  0
 23 22  2  0  0  0  0
 23 24  1  0  0  0  0
 24 20  1  0  0  0  0
 26 22  1  0  0  0  0
 27 28  1  0  0  0  0
 27 34  1  0  0  0  0
 28 23  1  0  0  0  0
 29 30  1  0  0  0  0
 29 28  2  0  0  0  0
 31 29  1  0  0  0  0
 32 31  2  0  0  0  0
 32 33  1  0  0  0  0
 33 27  2  0  0  0  0
 34 35  1  0  0  0  0
 36 37  1  0  0  0  0
 36 33  1  0  0  0  0
M  END
>  <minimizedAffinity>
-6.71250486

>  <minimizedRMSD>
0.0743605942

$$$$
