
 OpenBabel03272508273D

 40 43  0  0  1  0  0  0  0  0999 V2000
   33.7450   28.8220   47.3000 C   0  0  2  0  0  0  0  0  0  0  0  0
   34.5120   28.0890   48.3940 C   0  0  2  0  0  0  0  0  0  0  0  0
   33.6500   28.0210   49.4550 O   0  0  0  0  0  0  0  0  0  0  0  0
   32.3570   28.1130   49.0390 C   0  0  0  0  0  0  0  0  0  0  0  0
   32.3570   28.2110   47.5270 C   0  0  1  0  0  0  0  0  0  0  0  0
   33.6830   29.9030   47.4840 H   0  0  0  0  0  0  0  0  0  0  0  0
   34.7400   27.0800   48.0210 H   0  0  0  0  0  0  0  0  0  0  0  0
   31.8050   27.1880   49.3060 H   0  0  0  0  0  0  0  0  0  0  0  0
   31.8250   29.0210   49.4090 H   0  0  0  0  0  0  0  0  0  0  0  0
   32.3330   27.1920   47.1110 H   0  0  0  0  0  0  0  0  0  0  0  0
   35.6610   30.2890   49.1340 C   0  0  1  0  0  0  0  0  0  0  0  0
   35.7220   28.9110   48.7060 C   0  0  1  0  0  0  0  0  0  0  0  0
   36.1320   29.2010   50.1130 C   0  0  0  0  0  0  0  0  0  0  0  0
   34.8000   30.8410   49.5530 H   0  0  0  0  0  0  0  0  0  0  0  0
   36.5780   28.6600   48.0150 H   0  0  0  0  0  0  0  0  0  0  0  0
   37.2170   29.1600   50.3710 H   0  0  0  0  0  0  0  0  0  0  0  0
   35.4950   28.9540   50.9600 H   0  0  0  0  0  0  0  0  0  0  0  0
   36.7800   31.2610   48.7980 C   0  0  0  0  0  0  0  0  0  0  0  0
   37.0740   32.2530   49.7380 C   0  0  0  0  0  0  0  0  0  0  0  0
   38.0840   33.1240   49.3860 C   0  0  0  0  0  0  0  0  0  0  0  0
   38.7360   32.9990   48.1830 N   0  0  0  0  0  0  0  0  0  0  0  0
   38.4180   32.0220   47.3010 C   0  0  0  0  0  0  0  0  0  0  0  0
   37.4300   31.1450   47.6110 N   0  0  0  0  0  0  0  0  0  0  0  0
   36.5250   32.2970   50.6640 H   0  0  0  0  0  0  0  0  0  0  0  0
   38.3460   33.9110   50.0900 H   0  0  0  0  0  0  0  0  0  0  0  0
   38.9570   31.9610   46.3650 H   0  0  0  0  0  0  0  0  0  0  0  0
   34.2050   28.5680   46.0280 O   0  0  0  0  0  0  0  0  0  0  0  0
   34.1330   27.6280   45.7820 H   0  0  0  0  0  0  0  0  0  0  0  0
   31.3630   28.9930   47.0230 O   0  0  0  0  0  0  0  0  0  0  0  0
   30.2250   28.2400   45.1970 C   0  0  0  0  0  0  0  0  0  0  0  0
   30.1600   28.5520   46.5620 C   0  0  0  0  0  0  0  0  0  0  0  0
   28.9450   28.3700   47.1820 C   0  0  0  0  0  0  0  0  0  0  0  0
   28.9710   28.6300   48.2230 H   0  0  0  0  0  0  0  0  0  0  0  0
   27.8500   27.9060   46.5040 C   0  0  0  0  0  3  0  0  0  0  0  0
   27.9140   27.5990   45.1650 C   0  0  0  0  0  3  0  0  0  0  0  0
   29.1150   27.7680   44.5060 C   0  0  0  0  0  0  0  0  0  0  0  0
   31.3520   28.3540   44.3940 O   0  0  0  0  0  0  0  0  0  0  0  0
   31.5920   29.2700   44.0280 H   0  0  0  0  0  0  0  0  0  0  0  0
   29.1180   27.4440   43.1660 O   0  0  0  0  0  0  0  0  0  0  0  0
   29.8990   26.9580   42.7110 H   0  0  0  0  0  0  0  0  0  0  0  0
  1  6  1  1  0  0  0
  1  5  1  0  0  0  0
  1  2  1  0  0  0  0
  2  7  1  6  0  0  0
  2 12  1  0  0  0  0
  2  3  1  0  0  0  0
  4  8  1  0  0  0  0
  4  9  1  0  0  0  0
  4  3  1  0  0  0  0
  5 10  1  6  0  0  0
  5  4  1  0  0  0  0
 11 14  1  1  0  0  0
 11 13  1  0  0  0  0
 12 15  1  6  0  0  0
 12 11  1  0  0  0  0
 12 13  1  0  0  0  0
 13 16  1  0  0  0  0
 13 17  1  0  0  0  0
 18 11  1  0  0  0  0
 18 19  1  0  0  0  0
 19 24  1  0  0  0  0
 20 19  2  0  0  0  0
 20 25  1  0  0  0  0
 21 20  1  0  0  0  0
 22 23  1  0  0  0  0
 22 21  2  0  0  0  0
 23 18  2  0  0  0  0
 26 22  1  0  0  0  0
 27  1  1  0  0  0  0
 28 27  1  0  0  0  0
 29  5  1  0  0  0  0
 30 31  1  0  0  0  0
 31 29  1  0  0  0  0
 31 32  2  0  0  0  0
 32 33  1  0  0  0  0
 34 32  1  0  0  0  0
 35 34  2  0  0  0  0
 36 35  1  0  0  0  0
 36 30  2  0  0  0  0
 37 30  1  0  0  0  0
 38 37  1  0  0  0  0
 39 36  1  0  0  0  0
 40 39  1  0  0  0  0
M  END
>  <minimizedAffinity>
-5.11282206

>  <minimizedRMSD>
1.10837591

$$$$
