
 OpenBabel03272508283D

 40 43  0  0  1  0  0  0  0  0999 V2000
   32.5980   29.0530   47.2050 C   0  0  2  0  0  0  0  0  0  0  0  0
   33.5930   27.9250   47.4540 C   0  0  2  0  0  0  0  0  0  0  0  0
   33.0020   27.1230   48.3920 O   0  0  0  0  0  0  0  0  0  0  0  0
   31.6480   27.2680   48.3730 C   0  0  0  0  0  0  0  0  0  0  0  0
   31.2960   28.2450   47.2690 C   0  0  1  0  0  0  0  0  0  0  0  0
   32.5880   29.7910   48.0180 H   0  0  0  0  0  0  0  0  0  0  0  0
   33.7190   27.3800   46.5080 H   0  0  0  0  0  0  0  0  0  0  0  0
   31.1660   26.3000   48.1180 H   0  0  0  0  0  0  0  0  0  0  0  0
   31.2240   27.6940   49.3120 H   0  0  0  0  0  0  0  0  0  0  0  0
   31.1680   27.6820   46.3320 H   0  0  0  0  0  0  0  0  0  0  0  0
   34.8790   29.8240   48.6580 C   0  0  1  0  0  0  0  0  0  0  0  0
   34.8490   28.5560   47.9670 C   0  0  1  0  0  0  0  0  0  0  0  0
   35.2050   28.5280   49.4170 C   0  0  0  0  0  0  0  0  0  0  0  0
   34.0450   30.3600   49.1470 H   0  0  0  0  0  0  0  0  0  0  0  0
   35.7160   28.3680   47.2700 H   0  0  0  0  0  0  0  0  0  0  0  0
   36.2690   28.3370   49.7010 H   0  0  0  0  0  0  0  0  0  0  0  0
   34.5070   28.1790   50.1750 H   0  0  0  0  0  0  0  0  0  0  0  0
   36.0910   30.7360   48.5630 C   0  0  0  0  0  0  0  0  0  0  0  0
   36.4370   31.4670   49.7030 C   0  0  0  0  0  0  0  0  0  0  0  0
   37.5320   32.2950   49.5680 C   0  0  0  0  0  0  0  0  0  0  0  0
   38.2140   32.3740   48.3780 N   0  0  0  0  0  0  0  0  0  0  0  0
   37.8430   31.6480   47.2970 C   0  0  0  0  0  0  0  0  0  0  0  0
   36.7710   30.8210   47.3900 N   0  0  0  0  0  0  0  0  0  0  0  0
   35.8610   31.3600   50.6070 H   0  0  0  0  0  0  0  0  0  0  0  0
   37.8370   32.8820   50.4320 H   0  0  0  0  0  0  0  0  0  0  0  0
   38.4090   31.7410   46.3800 H   0  0  0  0  0  0  0  0  0  0  0  0
   32.7460   29.6720   45.9850 O   0  0  0  0  0  0  0  0  0  0  0  0
   32.6120   29.0640   45.2350 H   0  0  0  0  0  0  0  0  0  0  0  0
   30.2180   29.0290   47.5470 O   0  0  0  0  0  0  0  0  0  0  0  0
   28.5050   28.6890   49.0130 C   0  0  0  0  0  0  0  0  0  0  0  0
   28.9340   28.5970   47.6820 C   0  0  0  0  0  0  0  0  0  0  0  0
   28.0270   28.1040   46.7710 C   0  0  0  0  0  0  0  0  0  0  0  0
   28.4250   28.0630   45.7750 H   0  0  0  0  0  0  0  0  0  0  0  0
   26.7660   27.7230   47.1420 C   0  0  0  0  0  3  0  0  0  0  0  0
   26.3440   27.8140   48.4480 C   0  0  0  0  0  3  0  0  0  0  0  0
   27.2240   28.3020   49.3930 C   0  0  0  0  0  0  0  0  0  0  0  0
   29.2650   29.1560   50.0780 O   0  0  0  0  0  0  0  0  0  0  0  0
   29.9320   28.5220   50.5080 H   0  0  0  0  0  0  0  0  0  0  0  0
   26.7480   28.3700   50.6840 O   0  0  0  0  0  0  0  0  0  0  0  0
   26.9500   29.1540   51.3130 H   0  0  0  0  0  0  0  0  0  0  0  0
  1  5  1  0  0  0  0
  1  2  1  0  0  0  0
  1  6  1  1  0  0  0
  2  7  1  6  0  0  0
  2 12  1  0  0  0  0
  2  3  1  0  0  0  0
  4  3  1  0  0  0  0
  4  9  1  0  0  0  0
  5 10  1  6  0  0  0
  5 29  1  0  0  0  0
  5  4  1  0  0  0  0
  8  4  1  0  0  0  0
 11 14  1  1  0  0  0
 11 13  1  0  0  0  0
 12 15  1  6  0  0  0
 12 11  1  0  0  0  0
 12 13  1  0  0  0  0
 13 16  1  0  0  0  0
 13 17  1  0  0  0  0
 18 11  1  0  0  0  0
 18 19  1  0  0  0  0
 19 24  1  0  0  0  0
 20 19  2  0  0  0  0
 20 25  1  0  0  0  0
 21 20  1  0  0  0  0
 22 23  1  0  0  0  0
 22 21  2  0  0  0  0
 23 18  2  0  0  0  0
 26 22  1  0  0  0  0
 27  1  1  0  0  0  0
 28 27  1  0  0  0  0
 29 31  1  0  0  0  0
 30 36  1  0  0  0  0
 30 37  1  0  0  0  0
 31 30  2  0  0  0  0
 32 34  2  0  0  0  0
 32 31  1  0  0  0  0
 33 32  1  0  0  0  0
 34 35  1  0  0  0  0
 35 36  2  0  0  0  0
 36 39  1  0  0  0  0
 37 38  1  0  0  0  0
 39 40  1  0  0  0  0
M  END
>  <minimizedAffinity>
-6.37966251

>  <minimizedRMSD>
2.36269665

$$$$
