
 OpenBabel03272510173D

 30 32  0  0  0  0  0  0  0  0999 V2000
   37.2270   29.5690   51.1900 Br  0  0  0  0  0  0  0  0  0  0  0  0
   36.0170   29.3770   49.7210 C   0  0  0  0  0  0  0  0  0  0  0  0
   36.1100   30.1980   48.5960 C   0  0  0  0  0  0  0  0  0  0  0  0
   35.2020   29.9960   47.5780 C   0  0  0  0  0  0  0  0  0  0  0  0
   34.2140   29.0250   47.6240 C   0  0  0  0  0  0  0  0  0  0  0  0
   34.1480   28.2340   48.7470 C   0  0  0  0  0  0  0  0  0  0  0  0
   35.0430   28.4150   49.7760 C   0  0  0  0  0  0  0  0  0  0  0  0
   35.2680   30.6310   46.6970 H   0  0  0  0  0  0  0  0  0  0  0  0
   33.3820   27.4720   48.7950 H   0  0  0  0  0  0  0  0  0  0  0  0
   34.9710   27.7740   50.6590 H   0  0  0  0  0  0  0  0  0  0  0  0
   38.0240   33.2020   49.4090 C   0  0  0  0  0  0  0  0  0  0  0  0
   39.0570   33.1970   48.4500 C   0  0  0  0  0  0  0  0  0  0  0  0
   39.0900   32.1470   47.5170 C   0  0  0  0  0  0  0  0  0  0  0  0
   38.1180   31.1860   47.5890 N   0  0  0  0  0  0  0  0  0  0  0  0
   37.1390   31.2240   48.5250 C   0  0  0  0  0  0  0  0  0  0  0  0
   37.0950   32.2240   49.4270 N   0  0  0  0  0  0  0  0  0  0  0  0
   38.0410   34.0330   50.1080 H   0  0  0  0  0  0  0  0  0  0  0  0
   39.8340   33.9200   48.3540 H   0  0  0  0  0  0  0  0  0  0  0  0
   39.8230   32.0300   46.7380 H   0  0  0  0  0  0  0  0  0  0  0  0
   32.5780   29.9710   46.0240 C   0  0  0  0  0  0  0  0  0  0  0  0
   33.3010   28.8940   46.4880 C   0  0  0  0  0  0  0  0  0  0  0  0
   33.1520   27.6810   45.8660 C   0  0  0  0  0  0  0  0  0  0  0  0
   33.6780   26.8080   46.1690 H   0  0  0  0  0  0  0  0  0  0  0  0
   32.2680   27.6130   44.7880 C   0  0  0  0  0  3  0  0  0  0  0  0
   31.5400   28.6930   44.3180 C   0  0  0  0  0  3  0  0  0  0  0  0
   31.7040   29.9010   44.9580 C   0  0  0  0  0  0  0  0  0  0  0  0
   32.7450   31.1940   46.6730 O   0  0  0  0  0  0  0  0  0  0  0  0
   31.9740   31.8070   46.8950 H   0  0  0  0  0  0  0  0  0  0  0  0
   31.0060   31.0450   44.5480 O   0  0  0  0  0  0  0  0  0  0  0  0
   30.0900   31.2550   44.9680 H   0  0  0  0  0  0  0  0  0  0  0  0
  2  7  1  0  0  0  0
  2  1  1  0  0  0  0
  3  2  2  0  0  0  0
  4  5  2  0  0  0  0
  4  3  1  0  0  0  0
  5  6  1  0  0  0  0
  6  9  1  0  0  0  0
  6  7  2  0  0  0  0
  7 10  1  0  0  0  0
  8  4  1  0  0  0  0
 11 16  1  0  0  0  0
 11 17  1  0  0  0  0
 12 11  2  0  0  0  0
 13 14  2  0  0  0  0
 13 12  1  0  0  0  0
 14 15  1  0  0  0  0
 15  3  1  0  0  0  0
 15 16  2  0  0  0  0
 18 12  1  0  0  0  0
 19 13  1  0  0  0  0
 20 21  1  0  0  0  0
 20 27  1  0  0  0  0
 21  5  1  0  0  0  0
 22 23  1  0  0  0  0
 22 21  2  0  0  0  0
 24 22  1  0  0  0  0
 25 24  2  0  0  0  0
 25 26  1  0  0  0  0
 26 20  2  0  0  0  0
 27 28  1  0  0  0  0
 29 26  1  0  0  0  0
 29 30  1  0  0  0  0
M  END
>  <minimizedAffinity>
-6.61380816

>  <minimizedRMSD>
0.558301806

$$$$
