
 OpenBabel03272506473D

 44 47  0  0  1  0  0  0  0  0999 V2000
   32.1320   28.4190   47.4020 C   0  0  2  0  0  0  0  0  0  0  0  0
   33.3540   28.3410   48.2710 C   0  0  1  0  0  0  0  0  0  0  0  0
   33.8040   27.0560   48.2500 O   0  0  0  0  0  0  0  0  0  0  0  0
   33.1520   26.3510   47.2440 C   0  0  0  0  0  0  0  0  0  0  0  0
   32.5400   27.3750   46.3200 C   0  0  1  0  0  0  0  0  0  0  0  0
   31.2070   28.0780   47.8540 H   0  0  0  0  0  0  0  0  0  0  0  0
   33.1660   28.7380   49.2970 H   0  0  0  0  0  0  0  0  0  0  0  0
   32.4370   25.7030   47.7610 H   0  0  0  0  0  0  0  0  0  0  0  0
   33.8570   25.6770   46.6990 H   0  0  0  0  0  0  0  0  0  0  0  0
   33.2920   27.8340   45.6840 H   0  0  0  0  0  0  0  0  0  0  0  0
   32.0340   29.6900   46.8010 O   0  0  0  0  0  0  0  0  0  0  0  0
   32.1300   30.3370   47.5420 H   0  0  0  0  0  0  0  0  0  0  0  0
   34.6470   29.3990   47.5060 S   0  0  0  0  0  0  0  0  0  0  0  0
   37.1090   29.2760   50.6090 C   0  0  0  0  0  0  0  0  0  0  0  0
   37.5830   30.5790   50.7490 C   0  0  0  0  0  0  0  0  0  0  0  0
   37.1270   31.5370   49.8490 C   0  0  0  0  0  0  0  0  0  0  0  0
   36.2410   31.1590   48.8780 N   0  0  0  0  0  0  0  0  0  0  0  0
   35.8080   29.8810   48.7840 C   0  0  0  0  0  0  0  0  0  0  0  0
   36.2330   28.9250   49.6430 N   0  0  0  0  0  0  0  0  0  0  0  0
   37.4520   28.5190   51.3000 H   0  0  0  0  0  0  0  0  0  0  0  0
   38.2840   30.8310   51.5330 H   0  0  0  0  0  0  0  0  0  0  0  0
   37.4720   32.5530   49.9260 H   0  0  0  0  0  0  0  0  0  0  0  0
   31.4380   26.8300   45.7110 O   0  0  0  0  0  0  0  0  0  0  0  0
   30.0220   28.6400   43.8690 Cl  0  0  0  0  0  0  0  0  0  0  0  0
   29.4110   27.8460   45.3020 C   0  0  0  0  0  0  0  0  0  0  0  0
   30.1710   27.0080   46.0840 C   0  0  0  0  0  0  0  0  0  0  0  0
   29.5620   26.4130   47.1890 C   0  0  0  0  0  0  0  0  0  0  0  0
   28.2430   26.6630   47.4870 C   0  0  0  0  0  0  0  0  0  0  0  0
   27.4700   27.5040   46.7090 C   0  0  0  0  0  0  0  0  0  0  0  0
   28.0610   28.1000   45.6090 C   0  0  0  0  0  0  0  0  0  0  0  0
   30.0560   25.7380   47.8630 H   0  0  0  0  0  0  0  0  0  0  0  0
   27.7010   26.2430   48.3220 H   0  0  0  0  0  0  0  0  0  0  0  0
   26.4220   27.7200   46.9230 H   0  0  0  0  0  0  0  0  0  0  0  0
   27.3170   30.3030   45.2510 C   0  0  0  0  0  0  0  0  0  0  0  0
   27.2650   28.9950   44.7710 C   0  0  0  0  0  0  0  0  0  0  0  0
   26.5280   28.7060   43.6450 C   0  0  0  0  0  0  0  0  0  0  0  0
   26.5640   27.6640   43.3700 H   0  0  0  0  0  0  0  0  0  0  0  0
   25.8480   29.7250   43.0070 C   0  0  0  0  0  3  0  0  0  0  0  0
   25.8830   31.0230   43.4600 C   0  0  0  0  0  3  0  0  0  0  0  0
   26.6290   31.3210   44.6020 C   0  0  0  0  0  0  0  0  0  0  0  0
   28.0120   30.7480   46.3650 O   0  0  0  0  0  0  0  0  0  0  0  0
   27.7820   30.5640   47.3150 H   0  0  0  0  0  0  0  0  0  0  0  0
   26.6250   32.6480   45.0090 O   0  0  0  0  0  0  0  0  0  0  0  0
   26.7900   32.8130   46.0130 H   0  0  0  0  0  0  0  0  0  0  0  0
  1  6  1  1  0  0  0
  1  2  1  0  0  0  0
  2  7  1  1  0  0  0
  3  2  1  0  0  0  0
  4  8  1  0  0  0  0
  4  3  1  0  0  0  0
  5 10  1  6  0  0  0
  5  4  1  0  0  0  0
  5  1  1  0  0  0  0
  9  4  1  0  0  0  0
 11  1  1  0  0  0  0
 11 12  1  0  0  0  0
 13  2  1  0  0  0  0
 13 18  1  0  0  0  0
 14 15  1  0  0  0  0
 14 20  1  0  0  0  0
 15 21  1  0  0  0  0
 16 22  1  0  0  0  0
 16 15  2  0  0  0  0
 17 16  1  0  0  0  0
 18 17  2  0  0  0  0
 18 19  1  0  0  0  0
 19 14  2  0  0  0  0
 23 26  1  0  0  0  0
 23  5  1  0  0  0  0
 24 25  1  0  0  0  0
 25 30  2  0  0  0  0
 25 26  1  0  0  0  0
 26 27  2  0  0  0  0
 27 28  1  0  0  0  0
 27 31  1  0  0  0  0
 28 32  1  0  0  0  0
 29 33  1  0  0  0  0
 29 28  2  0  0  0  0
 30 29  1  0  0  0  0
 34 41  1  0  0  0  0
 35 34  1  0  0  0  0
 35 30  1  0  0  0  0
 36 35  2  0  0  0  0
 37 36  1  0  0  0  0
 38 39  2  0  0  0  0
 38 36  1  0  0  0  0
 39 40  1  0  0  0  0
 40 43  1  0  0  0  0
 40 34  2  0  0  0  0
 41 42  1  0  0  0  0
 43 44  1  0  0  0  0
M  END
>  <minimizedAffinity>
-5.56792116

>  <minimizedRMSD>
0.643311024

$$$$
