
 OpenBabel03272509153D

 49 52  0  0  1  0  0  0  0  0999 V2000
   34.8020   30.0770   46.7730 C   0  0  0  0  0  0  0  0  0  0  0  0
   36.1310   30.5570   46.8580 C   0  0  0  0  0  0  0  0  0  0  0  0
   36.8390   30.7220   45.6710 C   0  0  0  0  0  0  0  0  0  0  0  0
   36.2260   30.4170   44.4950 N   0  0  0  0  0  0  0  0  0  0  0  0
   34.9600   29.9630   44.4510 C   0  0  0  0  0  0  0  0  0  0  0  0
   34.2550   29.7940   45.5690 N   0  0  0  0  0  0  0  0  0  0  0  0
   34.1830   29.9330   47.6290 H   0  0  0  0  0  0  0  0  0  0  0  0
   34.4390   29.7090   43.5270 H   0  0  0  0  0  0  0  0  0  0  0  0
   36.6150   30.8070   48.1960 N   0  0  0  0  0  0  0  0  0  0  0  0
   37.0650   31.8940   49.0150 C   0  0  0  0  0  0  0  0  0  0  0  0
   38.3670   31.3990   49.5600 C   0  0  0  0  0  0  0  0  0  0  0  0
   38.1290   29.8940   49.7280 C   0  0  0  0  0  0  0  0  0  0  0  0
   36.7690   29.6770   49.1570 C   0  0  1  0  0  0  0  0  0  0  0  0
   36.9920   32.9010   48.6680 H   0  0  0  0  0  0  0  0  0  0  0  0
   36.3650   31.8750   49.9110 H   0  0  0  0  0  0  0  0  0  0  0  0
   38.6340   31.8770   50.5290 H   0  0  0  0  0  0  0  0  0  0  0  0
   39.2100   31.4970   48.8780 H   0  0  0  0  0  0  0  0  0  0  0  0
   38.9310   29.2820   49.3010 H   0  0  0  0  0  0  0  0  0  0  0  0
   38.0960   29.6610   50.8260 H   0  0  0  0  0  0  0  0  0  0  0  0
   36.5950   28.7240   48.6670 H   0  0  0  0  0  0  0  0  0  0  0  0
   34.7020   28.9750   50.3430 C   0  0  0  0  0  0  0  0  0  0  0  0
   34.3960   28.0340   49.5390 O   0  0  0  0  0  0  0  0  0  0  0  0
   35.7890   29.8960   50.2200 N   0  0  0  0  0  0  0  0  0  0  0  0
   33.9220   28.8280   51.0690 H   0  0  0  0  0  0  0  0  0  0  0  0
   35.5800   30.5420   51.0040 H   0  0  0  0  0  0  0  0  0  0  0  0
   38.1930   31.2040   45.6400 C   0  0  0  0  0  0  0  0  0  0  0  0
   38.4600   32.4000   46.2420 C   0  0  0  0  0  0  0  0  0  0  0  0
   39.7280   32.9450   46.2940 C   0  0  0  0  0  0  0  0  0  0  0  0
   40.7650   32.2290   45.6990 C   0  0  0  0  0  0  0  0  0  0  0  0
   40.5570   31.0170   45.0740 C   0  0  0  0  0  0  0  0  0  0  0  0
   39.2410   30.5400   45.0710 C   0  0  0  0  0  0  0  0  0  0  0  0
   37.7900   33.1050   46.7000 H   0  0  0  0  0  0  0  0  0  0  0  0
   40.0720   33.8500   46.7290 H   0  0  0  0  0  0  0  0  0  0  0  0
   41.8040   32.5540   45.6770 H   0  0  0  0  0  0  0  0  0  0  0  0
   41.3600   30.4540   44.6060 H   0  0  0  0  0  0  0  0  0  0  0  0
   38.9960   29.2460   44.3950 C   0  0  0  0  0  0  0  0  0  0  0  0
   37.8860   29.0050   44.4310 H   0  0  0  0  0  0  0  0  0  0  0  0
   39.4860   28.4310   44.9760 H   0  0  0  0  0  0  0  0  0  0  0  0
   39.8600   28.1220   42.2610 C   0  0  0  0  0  0  0  0  0  0  0  0
   39.3440   29.1940   42.9620 C   0  0  0  0  0  0  0  0  0  0  0  0
   39.1090   30.3570   42.2180 C   0  0  0  0  0  0  0  0  0  0  0  0
   38.7050   31.2240   42.7130 H   0  0  0  0  0  0  0  0  0  0  0  0
   39.3700   30.4530   40.8560 C   0  0  0  0  0  3  0  0  0  0  0  0
   39.8800   29.3980   40.1540 C   0  0  0  0  0  3  0  0  0  0  0  0
   40.1110   28.2530   40.8930 C   0  0  0  0  0  0  0  0  0  0  0  0
   40.0900   26.9800   42.9870 O   0  0  0  0  0  0  0  0  0  0  0  0
   39.6940   26.0830   42.8110 H   0  0  0  0  0  0  0  0  0  0  0  0
   40.6310   27.1590   40.2030 O   0  0  0  0  0  0  0  0  0  0  0  0
   40.3870   26.9580   39.2370 H   0  0  0  0  0  0  0  0  0  0  0  0
  1  2  1  0  0  0  0
  1  7  1  0  0  0  0
  2  9  1  0  0  0  0
  3  2  2  0  0  0  0
  4  3  1  0  0  0  0
  5  4  2  0  0  0  0
  5  6  1  0  0  0  0
  6  1  2  0  0  0  0
  8  5  1  0  0  0  0
  9 10  1  0  0  0  0
  9 13  1  0  0  0  0
 10 11  1  0  0  0  0
 10 15  1  0  0  0  0
 11 12  1  0  0  0  0
 11 16  1  0  0  0  0
 12 19  1  0  0  0  0
 13 20  1  6  0  0  0
 13 12  1  0  0  0  0
 13 23  1  0  0  0  0
 14 10  1  0  0  0  0
 17 11  1  0  0  0  0
 18 12  1  0  0  0  0
 21 24  1  0  0  0  0
 22 21  2  0  0  0  0
 23 21  1  0  0  0  0
 23 25  1  0  0  0  0
 26  3  1  0  0  0  0
 26 27  1  0  0  0  0
 27 28  2  0  0  0  0
 27 32  1  0  0  0  0
 28 33  1  0  0  0  0
 29 28  1  0  0  0  0
 30 29  2  0  0  0  0
 31 30  1  0  0  0  0
 31 26  2  0  0  0  0
 34 29  1  0  0  0  0
 35 30  1  0  0  0  0
 36 37  1  0  0  0  0
 36 38  1  0  0  0  0
 36 31  1  0  0  0  0
 39 40  1  0  0  0  0
 39 46  1  0  0  0  0
 40 36  1  0  0  0  0
 41 42  1  0  0  0  0
 41 40  2  0  0  0  0
 43 41  1  0  0  0  0
 44 43  2  0  0  0  0
 44 45  1  0  0  0  0
 45 39  2  0  0  0  0
 47 46  1  0  0  0  0
 48 45  1  0  0  0  0
 49 48  1  0  0  0  0
M  END
>  <minimizedAffinity>
-6.31969643

>  <minimizedRMSD>
1.00022924

$$$$
