
 OpenBabel03272508063D

 37 40  0  0  0  0  0  0  0  0999 V2000
   38.9070   30.8960   45.7740 C   0  0  0  0  0  0  0  0  0  0  0  0
   40.0920   31.5690   46.0330 C   0  0  0  0  0  0  0  0  0  0  0  0
   40.9310   31.5090   44.9280 C   0  0  0  0  0  0  0  0  0  0  0  0
   40.2070   30.7930   44.0370 N   0  0  0  0  0  0  0  0  0  0  0  0
   39.0260   30.4320   44.5210 N   0  0  0  0  0  0  0  0  0  0  0  0
   40.3640   32.0810   46.9500 H   0  0  0  0  0  0  0  0  0  0  0  0
   41.9030   31.8990   44.7490 H   0  0  0  0  0  0  0  0  0  0  0  0
   37.7940   30.7490   46.6900 C   0  0  0  0  0  0  0  0  0  0  0  0
   38.0150   30.9680   48.0770 C   0  0  0  0  0  0  0  0  0  0  0  0
   36.9200   30.8170   48.9280 C   0  0  0  0  0  0  0  0  0  0  0  0
   35.7190   30.4740   48.3900 N   0  0  0  0  0  0  0  0  0  0  0  0
   35.5380   30.2700   47.0660 C   0  0  0  0  0  0  0  0  0  0  0  0
   36.5860   30.4120   46.2280 N   0  0  0  0  0  0  0  0  0  0  0  0
   38.9660   31.2380   48.4780 H   0  0  0  0  0  0  0  0  0  0  0  0
   34.5580   29.9990   46.7000 H   0  0  0  0  0  0  0  0  0  0  0  0
   37.1300   31.0430   50.3880 C   0  0  0  0  0  0  0  0  0  0  0  0
   36.6060   32.2900   50.6440 F   0  0  0  0  0  0  0  0  0  0  0  0
   36.4520   30.1150   51.1630 F   0  0  0  0  0  0  0  0  0  0  0  0
   38.4720   31.0580   50.7230 F   0  0  0  0  0  0  0  0  0  0  0  0
   40.5750   30.4040   42.6700 C   0  0  0  0  0  0  0  0  0  0  0  0
   40.2150   31.1850   41.5630 C   0  0  0  0  0  0  0  0  0  0  0  0
   40.5760   30.7950   40.3190 C   0  0  0  0  0  0  0  0  0  0  0  0
   41.3140   29.5940   40.1700 C   0  0  0  0  0  0  0  0  0  0  0  0
   41.4870   29.0140   41.9220 S   0  0  0  0  0  0  0  0  0  0  0  0
   39.6460   32.1160   41.6530 H   0  0  0  0  0  0  0  0  0  0  0  0
   40.3970   31.2520   39.3660 H   0  0  0  0  0  0  0  0  0  0  0  0
   41.1280   27.8320   38.5530 C   0  0  0  0  0  0  0  0  0  0  0  0
   41.8640   28.8600   39.0940 C   0  0  0  0  0  0  0  0  0  0  0  0
   43.1150   29.2470   38.6770 C   0  0  0  0  0  0  0  0  0  0  0  0
   43.6540   30.0540   39.1270 H   0  0  0  0  0  0  0  0  0  0  0  0
   43.7020   28.5480   37.6140 C   0  0  0  0  0  3  0  0  0  0  0  0
   42.9910   27.4940   37.0300 C   0  0  0  0  0  3  0  0  0  0  0  0
   41.7200   27.1370   37.4920 C   0  0  0  0  0  0  0  0  0  0  0  0
   39.8660   27.4440   38.9770 O   0  0  0  0  0  0  0  0  0  0  0  0
   39.0090   27.8870   38.6970 H   0  0  0  0  0  0  0  0  0  0  0  0
   41.0060   26.0920   36.9190 O   0  0  0  0  0  0  0  0  0  0  0  0
   40.6540   26.2260   35.9740 H   0  0  0  0  0  0  0  0  0  0  0  0
  1  2  1  0  0  0  0
  1  8  1  0  0  0  0
  2  6  1  0  0  0  0
  3  2  2  0  0  0  0
  4  5  1  0  0  0  0
  4  3  1  0  0  0  0
  5  1  2  0  0  0  0
  7  3  1  0  0  0  0
  8  9  1  0  0  0  0
  9 14  1  0  0  0  0
  9 10  2  0  0  0  0
 10 16  1  0  0  0  0
 11 10  1  0  0  0  0
 12 11  2  0  0  0  0
 13  8  2  0  0  0  0
 13 12  1  0  0  0  0
 15 12  1  0  0  0  0
 16 17  1  0  0  0  0
 16 19  1  0  0  0  0
 16 18  1  0  0  0  0
 20  4  1  0  0  0  0
 21 25  1  0  0  0  0
 21 20  2  0  0  0  0
 22 21  1  0  0  0  0
 23 22  2  0  0  0  0
 23 24  1  0  0  0  0
 24 20  1  0  0  0  0
 26 22  1  0  0  0  0
 27 34  1  0  0  0  0
 27 28  1  0  0  0  0
 28 23  1  0  0  0  0
 29 28  2  0  0  0  0
 29 30  1  0  0  0  0
 31 29  1  0  0  0  0
 32 33  1  0  0  0  0
 32 31  2  0  0  0  0
 33 27  2  0  0  0  0
 35 34  1  0  0  0  0
 36 33  1  0  0  0  0
 37 36  1  0  0  0  0
M  END
>  <minimizedAffinity>
-6.3915596

>  <minimizedRMSD>
0.873797476

$$$$
