
 OpenBabel03272506093D

 46 49  0  0  0  0  0  0  0  0999 V2000
   34.7910   28.4140   49.2750 C   0  0  0  0  0  0  0  0  0  0  0  0
   35.7130   28.2190   48.6960 H   0  0  0  0  0  0  0  0  0  0  0  0
   34.7910   27.6030   50.0640 H   0  0  0  0  0  0  0  0  0  0  0  0
   33.5560   28.2300   48.4240 C   0  0  0  0  0  0  0  0  0  0  0  0
   33.6590   28.3930   46.9860 C   0  0  0  0  0  0  0  0  0  0  0  0
   31.9960   28.0850   46.4910 S   0  0  0  0  0  0  0  0  0  0  0  0
   31.3680   27.7800   48.2310 C   0  0  0  0  0  0  0  0  0  0  0  0
   32.3690   27.9340   48.8520 N   0  0  0  0  0  0  0  0  0  0  0  0
   30.0420   27.4470   48.7240 N   0  0  0  0  0  0  0  0  0  0  0  0
   29.2000   26.7170   47.8470 C   0  0  0  0  0  0  0  0  0  0  0  0
   27.7660   26.6990   48.2400 C   0  0  0  0  0  0  0  0  0  0  0  0
   27.4430   27.6770   49.2830 N   0  0  0  0  0  0  0  0  0  0  0  0
   28.3180   27.3240   50.3890 C   0  0  0  0  0  0  0  0  0  0  0  0
   29.6750   27.8810   50.0640 C   0  0  0  0  0  0  0  0  0  0  0  0
   34.5360   28.6330   46.4490 H   0  0  0  0  0  0  0  0  0  0  0  0
   29.2660   27.1830   46.8360 H   0  0  0  0  0  0  0  0  0  0  0  0
   29.5890   25.6670   47.7100 H   0  0  0  0  0  0  0  0  0  0  0  0
   27.5460   25.7120   48.7200 H   0  0  0  0  0  0  0  0  0  0  0  0
   27.0570   26.8310   47.4190 H   0  0  0  0  0  0  0  0  0  0  0  0
   26.4400   27.5650   49.5140 H   0  0  0  0  0  0  0  0  0  0  0  0
   27.9770   27.7870   51.3410 H   0  0  0  0  0  0  0  0  0  0  0  0
   28.3750   26.2370   50.5440 H   0  0  0  0  0  0  0  0  0  0  0  0
   29.5730   29.0050   50.1060 H   0  0  0  0  0  0  0  0  0  0  0  0
   30.3850   27.5740   50.8360 H   0  0  0  0  0  0  0  0  0  0  0  0
   34.7960   29.7270   49.9400 C   0  0  0  0  0  0  0  0  0  0  0  0
   35.0130   29.6200   51.0350 H   0  0  0  0  0  0  0  0  0  0  0  0
   33.8670   30.3030   49.7590 H   0  0  0  0  0  0  0  0  0  0  0  0
   37.5390   32.2140   49.7190 C   0  0  0  0  0  0  0  0  0  0  0  0
   37.9910   32.0460   48.4200 C   0  0  0  0  0  0  0  0  0  0  0  0
   37.3700   31.0960   47.6210 C   0  0  0  0  0  0  0  0  0  0  0  0
   36.3510   30.3870   48.1690 N   0  0  0  0  0  0  0  0  0  0  0  0
   35.9420   30.5800   49.4390 C   0  0  0  0  0  0  0  0  0  0  0  0
   36.5280   31.4810   50.2010 N   0  0  0  0  0  0  0  0  0  0  0  0
   38.0500   32.9710   50.3240 H   0  0  0  0  0  0  0  0  0  0  0  0
   38.7840   32.6240   48.0460 H   0  0  0  0  0  0  0  0  0  0  0  0
   36.8460   30.6600   45.1780 C   0  0  0  0  0  0  0  0  0  0  0  0
   37.6980   30.7850   46.2450 C   0  0  0  0  0  0  0  0  0  0  0  0
   39.0170   30.5780   45.9060 C   0  0  0  0  0  0  0  0  0  0  0  0
   39.8200   30.6360   46.6210 H   0  0  0  0  0  0  0  0  0  0  0  0
   39.4380   30.2780   44.6260 C   0  0  0  0  0  3  0  0  0  0  0  0
   38.5530   30.1650   43.6020 C   0  0  0  0  0  3  0  0  0  0  0  0
   37.2240   30.3620   43.8890 C   0  0  0  0  0  0  0  0  0  0  0  0
   35.5070   30.8410   45.3810 O   0  0  0  0  0  0  0  0  0  0  0  0
   34.8620   30.0710   45.4320 H   0  0  0  0  0  0  0  0  0  0  0  0
   36.2980   30.2540   42.8680 O   0  0  0  0  0  0  0  0  0  0  0  0
   36.2090   30.8950   42.0940 H   0  0  0  0  0  0  0  0  0  0  0  0
  1 25  1  0  0  0  0
  1  3  1  0  0  0  0
  2  1  1  0  0  0  0
  4  8  1  0  0  0  0
  4  1  1  0  0  0  0
  5  4  2  0  0  0  0
  6  5  1  0  0  0  0
  6  7  1  0  0  0  0
  7  9  1  0  0  0  0
  7  8  2  0  0  0  0
  9 14  1  0  0  0  0
 10 11  1  0  0  0  0
 10  9  1  0  0  0  0
 11 18  1  0  0  0  0
 11 12  1  0  0  0  0
 12 20  1  0  0  0  0
 12 13  1  0  0  0  0
 13 22  1  0  0  0  0
 13 21  1  0  0  0  0
 14 23  1  0  0  0  0
 14 13  1  0  0  0  0
 14 24  1  0  0  0  0
 15  5  1  0  0  0  0
 16 10  1  0  0  0  0
 17 10  1  0  0  0  0
 19 11  1  0  0  0  0
 25 26  1  0  0  0  0
 27 25  1  0  0  0  0
 28 33  1  0  0  0  0
 28 34  1  0  0  0  0
 29 28  2  0  0  0  0
 30 31  2  0  0  0  0
 30 29  1  0  0  0  0
 31 32  1  0  0  0  0
 32 25  1  0  0  0  0
 32 33  2  0  0  0  0
 35 29  1  0  0  0  0
 36 43  1  0  0  0  0
 36 37  1  0  0  0  0
 37 30  1  0  0  0  0
 38 37  2  0  0  0  0
 38 39  1  0  0  0  0
 40 38  1  0  0  0  0
 41 42  1  0  0  0  0
 41 40  2  0  0  0  0
 42 36  2  0  0  0  0
 43 44  1  0  0  0  0
 45 42  1  0  0  0  0
 46 45  1  0  0  0  0
M  END
>  <minimizedAffinity>
-6.91035748

>  <minimizedRMSD>
1.28760099

$$$$
