
 OpenBabel03272510173D

 30 32  0  0  0  0  0  0  0  0999 V2000
   37.2130   29.5380   51.1890 Br  0  0  0  0  0  0  0  0  0  0  0  0
   35.9680   29.3740   49.7450 C   0  0  0  0  0  0  0  0  0  0  0  0
   36.0490   30.1990   48.6220 C   0  0  0  0  0  0  0  0  0  0  0  0
   35.1170   30.0170   47.6230 C   0  0  0  0  0  0  0  0  0  0  0  0
   34.1160   29.0600   47.6860 C   0  0  0  0  0  0  0  0  0  0  0  0
   34.0630   28.2630   48.8050 C   0  0  0  0  0  0  0  0  0  0  0  0
   34.9820   28.4260   49.8160 C   0  0  0  0  0  0  0  0  0  0  0  0
   35.1730   30.6560   46.7450 H   0  0  0  0  0  0  0  0  0  0  0  0
   33.2860   27.5120   48.8650 H   0  0  0  0  0  0  0  0  0  0  0  0
   34.9200   27.7800   50.6960 H   0  0  0  0  0  0  0  0  0  0  0  0
   38.0110   33.1830   49.3970 C   0  0  0  0  0  0  0  0  0  0  0  0
   39.0360   33.1560   48.4280 C   0  0  0  0  0  0  0  0  0  0  0  0
   39.0470   32.0990   47.5030 C   0  0  0  0  0  0  0  0  0  0  0  0
   38.0620   31.1520   47.5910 N   0  0  0  0  0  0  0  0  0  0  0  0
   37.0910   31.2110   48.5350 C   0  0  0  0  0  0  0  0  0  0  0  0
   37.0690   32.2180   49.4290 N   0  0  0  0  0  0  0  0  0  0  0  0
   38.0460   34.0190   50.0890 H   0  0  0  0  0  0  0  0  0  0  0  0
   39.8220   33.8680   48.3200 H   0  0  0  0  0  0  0  0  0  0  0  0
   39.7710   31.9670   46.7190 H   0  0  0  0  0  0  0  0  0  0  0  0
   33.1090   27.8060   45.8020 C   0  0  0  0  0  0  0  0  0  0  0  0
   33.1760   28.9490   46.5690 C   0  0  0  0  0  0  0  0  0  0  0  0
   32.3410   29.9950   46.2710 C   0  0  0  0  0  0  0  0  0  0  0  0
   32.3370   30.9070   46.8190 H   0  0  0  0  0  0  0  0  0  0  0  0
   31.4660   29.8350   45.1970 C   0  0  0  0  0  3  0  0  0  0  0  0
   31.3950   28.6880   44.4220 C   0  0  0  0  0  3  0  0  0  0  0  0
   32.2420   27.6520   44.7400 C   0  0  0  0  0  0  0  0  0  0  0  0
   33.9680   26.7560   46.1250 O   0  0  0  0  0  0  0  0  0  0  0  0
   34.4640   26.2190   45.4280 H   0  0  0  0  0  0  0  0  0  0  0  0
   32.2370   26.4550   44.0090 O   0  0  0  0  0  0  0  0  0  0  0  0
   32.8600   26.3570   43.1960 H   0  0  0  0  0  0  0  0  0  0  0  0
  2  7  1  0  0  0  0
  2  1  1  0  0  0  0
  3  2  2  0  0  0  0
  4  5  2  0  0  0  0
  4  3  1  0  0  0  0
  5  6  1  0  0  0  0
  6  9  1  0  0  0  0
  6  7  2  0  0  0  0
  7 10  1  0  0  0  0
  8  4  1  0  0  0  0
 11 16  1  0  0  0  0
 11 17  1  0  0  0  0
 12 11  2  0  0  0  0
 13 14  2  0  0  0  0
 13 12  1  0  0  0  0
 14 15  1  0  0  0  0
 15  3  1  0  0  0  0
 15 16  2  0  0  0  0
 18 12  1  0  0  0  0
 19 13  1  0  0  0  0
 20 27  1  0  0  0  0
 20 21  1  0  0  0  0
 21  5  1  0  0  0  0
 22 21  2  0  0  0  0
 22 23  1  0  0  0  0
 24 22  1  0  0  0  0
 25 26  1  0  0  0  0
 25 24  2  0  0  0  0
 26 20  2  0  0  0  0
 28 27  1  0  0  0  0
 29 26  1  0  0  0  0
 30 29  1  0  0  0  0
M  END
>  <minimizedAffinity>
-6.00282145

>  <minimizedRMSD>
0.604711831

$$$$
