
 OpenBabel03272508283D

 40 43  0  0  1  0  0  0  0  0999 V2000
   33.5580   28.9560   47.1810 C   0  0  2  0  0  0  0  0  0  0  0  0
   34.3560   28.0670   48.1280 C   0  0  2  0  0  0  0  0  0  0  0  0
   33.5040   27.7810   49.1600 O   0  0  0  0  0  0  0  0  0  0  0  0
   32.2060   27.8990   48.7650 C   0  0  0  0  0  0  0  0  0  0  0  0
   32.1940   28.2650   47.2950 C   0  0  1  0  0  0  0  0  0  0  0  0
   33.4580   29.9840   47.5550 H   0  0  0  0  0  0  0  0  0  0  0  0
   34.6170   27.1510   47.5810 H   0  0  0  0  0  0  0  0  0  0  0  0
   31.6880   26.9220   48.8630 H   0  0  0  0  0  0  0  0  0  0  0  0
   31.6440   28.7080   49.2910 H   0  0  0  0  0  0  0  0  0  0  0  0
   32.2030   27.3360   46.7040 H   0  0  0  0  0  0  0  0  0  0  0  0
   35.4640   30.2550   48.9600 C   0  0  1  0  0  0  0  0  0  0  0  0
   35.5390   28.8630   48.5820 C   0  0  1  0  0  0  0  0  0  0  0  0
   35.7600   29.1860   50.0240 C   0  0  0  0  0  0  0  0  0  0  0  0
   34.5720   30.8450   49.2400 H   0  0  0  0  0  0  0  0  0  0  0  0
   36.4730   28.5670   48.0230 H   0  0  0  0  0  0  0  0  0  0  0  0
   36.7980   29.1210   50.4310 H   0  0  0  0  0  0  0  0  0  0  0  0
   35.0060   28.9830   50.7810 H   0  0  0  0  0  0  0  0  0  0  0  0
   36.6500   31.1840   48.7560 C   0  0  0  0  0  0  0  0  0  0  0  0
   36.9130   32.1220   49.7580 C   0  0  0  0  0  0  0  0  0  0  0  0
   37.9870   32.9550   49.5250 C   0  0  0  0  0  0  0  0  0  0  0  0
   38.7270   32.8470   48.3740 N   0  0  0  0  0  0  0  0  0  0  0  0
   38.4370   31.9230   47.4270 C   0  0  0  0  0  0  0  0  0  0  0  0
   37.3880   31.0830   47.6200 N   0  0  0  0  0  0  0  0  0  0  0  0
   36.2940   32.1550   50.6400 H   0  0  0  0  0  0  0  0  0  0  0  0
   38.2270   33.7000   50.2820 H   0  0  0  0  0  0  0  0  0  0  0  0
   39.0460   31.8730   46.5350 H   0  0  0  0  0  0  0  0  0  0  0  0
   34.0190   28.9490   45.8850 O   0  0  0  0  0  0  0  0  0  0  0  0
   33.9790   28.0660   45.4750 H   0  0  0  0  0  0  0  0  0  0  0  0
   31.1700   29.0890   46.9380 O   0  0  0  0  0  0  0  0  0  0  0  0
   28.9230   28.8260   47.2190 C   0  0  0  0  0  0  0  0  0  0  0  0
   30.0080   28.7010   46.3410 C   0  0  0  0  0  0  0  0  0  0  0  0
   29.7340   28.2290   45.0790 C   0  0  0  0  0  0  0  0  0  0  0  0
   30.6110   28.1600   44.4640 H   0  0  0  0  0  0  0  0  0  0  0  0
   28.4640   27.8960   44.6920 C   0  0  0  0  0  3  0  0  0  0  0  0
   27.3980   28.0180   45.5530 C   0  0  0  0  0  3  0  0  0  0  0  0
   27.6310   28.4880   46.8290 C   0  0  0  0  0  0  0  0  0  0  0  0
   28.9900   29.2810   48.5290 O   0  0  0  0  0  0  0  0  0  0  0  0
   29.2870   28.6300   49.2500 H   0  0  0  0  0  0  0  0  0  0  0  0
   26.5260   28.5890   47.6480 O   0  0  0  0  0  0  0  0  0  0  0  0
   26.3780   29.3740   48.2910 H   0  0  0  0  0  0  0  0  0  0  0  0
  1  5  1  0  0  0  0
  1  6  1  1  0  0  0
  1  2  1  0  0  0  0
  2  7  1  6  0  0  0
  2 12  1  0  0  0  0
  2  3  1  0  0  0  0
  4  8  1  0  0  0  0
  4  3  1  0  0  0  0
  4  9  1  0  0  0  0
  5 10  1  6  0  0  0
  5  4  1  0  0  0  0
 11 14  1  1  0  0  0
 11 13  1  0  0  0  0
 12 15  1  6  0  0  0
 12 11  1  0  0  0  0
 12 13  1  0  0  0  0
 13 16  1  0  0  0  0
 13 17  1  0  0  0  0
 18 11  1  0  0  0  0
 18 19  1  0  0  0  0
 19 24  1  0  0  0  0
 20 19  2  0  0  0  0
 20 25  1  0  0  0  0
 21 20  1  0  0  0  0
 22 23  1  0  0  0  0
 22 21  2  0  0  0  0
 23 18  2  0  0  0  0
 26 22  1  0  0  0  0
 27  1  1  0  0  0  0
 28 27  1  0  0  0  0
 29  5  1  0  0  0  0
 30 37  1  0  0  0  0
 31 29  1  0  0  0  0
 31 30  2  0  0  0  0
 32 31  1  0  0  0  0
 33 32  1  0  0  0  0
 34 32  2  0  0  0  0
 34 35  1  0  0  0  0
 35 36  2  0  0  0  0
 36 30  1  0  0  0  0
 36 39  1  0  0  0  0
 37 38  1  0  0  0  0
 39 40  1  0  0  0  0
M  END
>  <minimizedAffinity>
-5.77362156

>  <minimizedRMSD>
1.65376782

$$$$
