
 OpenBabel03272509153D

 49 52  0  0  1  0  0  0  0  0999 V2000
   34.9430   29.9570   46.6860 C   0  0  0  0  0  0  0  0  0  0  0  0
   36.2400   30.5150   46.7860 C   0  0  0  0  0  0  0  0  0  0  0  0
   36.9540   30.7140   45.6090 C   0  0  0  0  0  0  0  0  0  0  0  0
   36.3780   30.3650   44.4260 N   0  0  0  0  0  0  0  0  0  0  0  0
   35.1420   29.8360   44.3670 C   0  0  0  0  0  0  0  0  0  0  0  0
   34.4320   29.6340   45.4770 N   0  0  0  0  0  0  0  0  0  0  0  0
   34.3210   29.7830   47.5350 H   0  0  0  0  0  0  0  0  0  0  0  0
   34.6510   29.5460   43.4380 H   0  0  0  0  0  0  0  0  0  0  0  0
   36.6890   30.8030   48.1300 N   0  0  0  0  0  0  0  0  0  0  0  0
   37.1310   31.9100   48.9260 C   0  0  0  0  0  0  0  0  0  0  0  0
   38.4090   31.4150   49.5250 C   0  0  0  0  0  0  0  0  0  0  0  0
   38.1430   29.9190   49.7350 C   0  0  0  0  0  0  0  0  0  0  0  0
   36.7970   29.7040   49.1310 C   0  0  1  0  0  0  0  0  0  0  0  0
   37.0830   32.9060   48.5430 H   0  0  0  0  0  0  0  0  0  0  0  0
   36.4050   31.9310   49.8000 H   0  0  0  0  0  0  0  0  0  0  0  0
   38.6550   31.9210   50.4850 H   0  0  0  0  0  0  0  0  0  0  0  0
   39.2730   31.4780   48.8660 H   0  0  0  0  0  0  0  0  0  0  0  0
   38.9470   29.2830   49.3530 H   0  0  0  0  0  0  0  0  0  0  0  0
   38.0750   29.7240   50.8390 H   0  0  0  0  0  0  0  0  0  0  0  0
   36.6230   28.7370   48.6680 H   0  0  0  0  0  0  0  0  0  0  0  0
   34.7160   29.0410   50.3150 C   0  0  0  0  0  0  0  0  0  0  0  0
   34.4430   28.0470   49.5650 O   0  0  0  0  0  0  0  0  0  0  0  0
   35.7900   29.9720   50.1570 N   0  0  0  0  0  0  0  0  0  0  0  0
   33.9220   28.9270   51.0310 H   0  0  0  0  0  0  0  0  0  0  0  0
   35.5530   30.6620   50.8940 H   0  0  0  0  0  0  0  0  0  0  0  0
   38.2790   31.2750   45.5940 C   0  0  0  0  0  0  0  0  0  0  0  0
   38.4980   32.4130   46.3150 C   0  0  0  0  0  0  0  0  0  0  0  0
   39.7360   33.0230   46.3920 C   0  0  0  0  0  0  0  0  0  0  0  0
   40.7900   32.4370   45.6940 C   0  0  0  0  0  0  0  0  0  0  0  0
   40.6290   31.2890   44.9460 C   0  0  0  0  0  0  0  0  0  0  0  0
   39.3410   30.7390   44.9270 C   0  0  0  0  0  0  0  0  0  0  0  0
   37.8070   33.0240   46.8660 H   0  0  0  0  0  0  0  0  0  0  0  0
   40.0440   33.8940   46.9130 H   0  0  0  0  0  0  0  0  0  0  0  0
   41.8080   32.8220   45.6790 H   0  0  0  0  0  0  0  0  0  0  0  0
   41.4450   30.8280   44.3970 H   0  0  0  0  0  0  0  0  0  0  0  0
   39.1460   29.5130   44.1210 C   0  0  0  0  0  0  0  0  0  0  0  0
   38.0640   29.1750   44.2030 H   0  0  0  0  0  0  0  0  0  0  0  0
   39.7420   28.6830   44.5650 H   0  0  0  0  0  0  0  0  0  0  0  0
   40.4930   29.2430   41.9590 C   0  0  0  0  0  0  0  0  0  0  0  0
   39.3850   29.6530   42.6710 C   0  0  0  0  0  0  0  0  0  0  0  0
   38.3630   30.2560   41.9230 C   0  0  0  0  0  0  0  0  0  0  0  0
   37.4740   30.5940   42.4280 H   0  0  0  0  0  0  0  0  0  0  0  0
   38.4370   30.4400   40.5480 C   0  0  0  0  0  3  0  0  0  0  0  0
   39.5300   30.0370   39.8330 C   0  0  0  0  0  3  0  0  0  0  0  0
   40.5340   29.4440   40.5760 C   0  0  0  0  0  0  0  0  0  0  0  0
   41.4950   28.6520   42.6870 O   0  0  0  0  0  0  0  0  0  0  0  0
   41.8590   27.7350   42.5460 H   0  0  0  0  0  0  0  0  0  0  0  0
   41.6620   29.0220   39.8740 O   0  0  0  0  0  0  0  0  0  0  0  0
   41.6090   28.6590   38.9260 H   0  0  0  0  0  0  0  0  0  0  0  0
  1  2  1  0  0  0  0
  1  7  1  0  0  0  0
  2  9  1  0  0  0  0
  3  2  2  0  0  0  0
  4  3  1  0  0  0  0
  5  4  2  0  0  0  0
  5  6  1  0  0  0  0
  6  1  2  0  0  0  0
  8  5  1  0  0  0  0
  9 10  1  0  0  0  0
  9 13  1  0  0  0  0
 10 11  1  0  0  0  0
 10 15  1  0  0  0  0
 11 12  1  0  0  0  0
 11 16  1  0  0  0  0
 12 19  1  0  0  0  0
 13 20  1  6  0  0  0
 13 12  1  0  0  0  0
 13 23  1  0  0  0  0
 14 10  1  0  0  0  0
 17 11  1  0  0  0  0
 18 12  1  0  0  0  0
 21 24  1  0  0  0  0
 22 21  2  0  0  0  0
 23 21  1  0  0  0  0
 23 25  1  0  0  0  0
 26  3  1  0  0  0  0
 26 27  1  0  0  0  0
 27 28  2  0  0  0  0
 27 32  1  0  0  0  0
 28 33  1  0  0  0  0
 29 28  1  0  0  0  0
 30 29  2  0  0  0  0
 31 30  1  0  0  0  0
 31 26  2  0  0  0  0
 34 29  1  0  0  0  0
 35 30  1  0  0  0  0
 36 37  1  0  0  0  0
 36 38  1  0  0  0  0
 36 31  1  0  0  0  0
 39 40  1  0  0  0  0
 39 46  1  0  0  0  0
 40 36  1  0  0  0  0
 41 42  1  0  0  0  0
 41 40  2  0  0  0  0
 43 41  1  0  0  0  0
 44 43  2  0  0  0  0
 44 45  1  0  0  0  0
 45 39  2  0  0  0  0
 47 46  1  0  0  0  0
 48 45  1  0  0  0  0
 49 48  1  0  0  0  0
M  END
>  <minimizedAffinity>
-6.57323599

>  <minimizedRMSD>
1.0723269

$$$$
