
 OpenBabel03272508053D

 37 40  0  0  0  0  0  0  0  0999 V2000
   38.8720   30.8850   45.7970 C   0  0  0  0  0  0  0  0  0  0  0  0
   40.0560   31.5540   46.0730 C   0  0  0  0  0  0  0  0  0  0  0  0
   40.9040   31.5030   44.9750 C   0  0  0  0  0  0  0  0  0  0  0  0
   40.1880   30.7950   44.0710 N   0  0  0  0  0  0  0  0  0  0  0  0
   39.0030   30.4320   44.5410 N   0  0  0  0  0  0  0  0  0  0  0  0
   40.3200   32.0580   46.9970 H   0  0  0  0  0  0  0  0  0  0  0  0
   41.8780   31.8920   44.8090 H   0  0  0  0  0  0  0  0  0  0  0  0
   37.7500   30.7310   46.7010 C   0  0  0  0  0  0  0  0  0  0  0  0
   37.9590   30.9330   48.0920 C   0  0  0  0  0  0  0  0  0  0  0  0
   36.8570   30.7770   48.9310 C   0  0  0  0  0  0  0  0  0  0  0  0
   35.6580   30.4450   48.3790 N   0  0  0  0  0  0  0  0  0  0  0  0
   35.4890   30.2580   47.0510 C   0  0  0  0  0  0  0  0  0  0  0  0
   36.5450   30.4050   46.2230 N   0  0  0  0  0  0  0  0  0  0  0  0
   38.9070   31.1950   48.5050 H   0  0  0  0  0  0  0  0  0  0  0  0
   34.5110   29.9950   46.6730 H   0  0  0  0  0  0  0  0  0  0  0  0
   37.0540   30.9850   50.3960 C   0  0  0  0  0  0  0  0  0  0  0  0
   36.5580   32.2420   50.6570 F   0  0  0  0  0  0  0  0  0  0  0  0
   36.3440   30.0680   51.1540 F   0  0  0  0  0  0  0  0  0  0  0  0
   38.3910   30.9630   50.7470 F   0  0  0  0  0  0  0  0  0  0  0  0
   40.5690   30.4170   42.7050 C   0  0  0  0  0  0  0  0  0  0  0  0
   40.1940   31.1920   41.5980 C   0  0  0  0  0  0  0  0  0  0  0  0
   40.5660   30.8120   40.3540 C   0  0  0  0  0  0  0  0  0  0  0  0
   41.3320   29.6290   40.2050 C   0  0  0  0  0  0  0  0  0  0  0  0
   41.5150   29.0500   41.9560 S   0  0  0  0  0  0  0  0  0  0  0  0
   39.6030   32.1090   41.6880 H   0  0  0  0  0  0  0  0  0  0  0  0
   40.3800   31.2660   39.4020 H   0  0  0  0  0  0  0  0  0  0  0  0
   43.1370   29.2940   38.6610 C   0  0  0  0  0  0  0  0  0  0  0  0
   41.9020   28.9100   39.1290 C   0  0  0  0  0  0  0  0  0  0  0  0
   41.1540   27.8680   38.6360 C   0  0  0  0  0  0  0  0  0  0  0  0
   40.1960   27.6040   39.0310 H   0  0  0  0  0  0  0  0  0  0  0  0
   41.6770   27.1260   37.5690 C   0  0  0  0  0  3  0  0  0  0  0  0
   42.9320   27.4780   37.0590 C   0  0  0  0  0  3  0  0  0  0  0  0
   43.6560   28.5490   37.5950 C   0  0  0  0  0  0  0  0  0  0  0  0
   43.8890   30.3460   39.1610 O   0  0  0  0  0  0  0  0  0  0  0  0
   44.4790   30.2900   39.9720 H   0  0  0  0  0  0  0  0  0  0  0  0
   44.9010   28.9070   37.0940 O   0  0  0  0  0  0  0  0  0  0  0  0
   45.6750   28.2670   37.2600 H   0  0  0  0  0  0  0  0  0  0  0  0
  1  2  1  0  0  0  0
  1  8  1  0  0  0  0
  2  6  1  0  0  0  0
  3  2  2  0  0  0  0
  4  5  1  0  0  0  0
  4  3  1  0  0  0  0
  5  1  2  0  0  0  0
  7  3  1  0  0  0  0
  8  9  1  0  0  0  0
  9 14  1  0  0  0  0
  9 10  2  0  0  0  0
 10 16  1  0  0  0  0
 11 10  1  0  0  0  0
 12 11  2  0  0  0  0
 13  8  2  0  0  0  0
 13 12  1  0  0  0  0
 15 12  1  0  0  0  0
 16 17  1  0  0  0  0
 16 19  1  0  0  0  0
 16 18  1  0  0  0  0
 20  4  1  0  0  0  0
 21 25  1  0  0  0  0
 21 20  2  0  0  0  0
 22 21  1  0  0  0  0
 23 22  2  0  0  0  0
 23 24  1  0  0  0  0
 24 20  1  0  0  0  0
 26 22  1  0  0  0  0
 27 28  1  0  0  0  0
 27 34  1  0  0  0  0
 28 23  1  0  0  0  0
 29 30  1  0  0  0  0
 29 28  2  0  0  0  0
 31 29  1  0  0  0  0
 32 31  2  0  0  0  0
 32 33  1  0  0  0  0
 33 27  2  0  0  0  0
 34 35  1  0  0  0  0
 36 37  1  0  0  0  0
 36 33  1  0  0  0  0
M  END
>  <minimizedAffinity>
-6.73250437

>  <minimizedRMSD>
0.748795271

$$$$
