
 OpenBabel03272506483D

 44 47  0  0  1  0  0  0  0  0999 V2000
   31.6900   28.4160   47.4340 C   0  0  2  0  0  0  0  0  0  0  0  0
   32.9010   28.0010   48.2190 C   0  0  1  0  0  0  0  0  0  0  0  0
   33.0260   26.6490   48.1150 O   0  0  0  0  0  0  0  0  0  0  0  0
   32.1720   26.1770   47.1240 C   0  0  0  0  0  0  0  0  0  0  0  0
   31.7780   27.3670   46.2850 C   0  0  1  0  0  0  0  0  0  0  0  0
   30.7350   28.2800   47.9290 H   0  0  0  0  0  0  0  0  0  0  0  0
   32.8680   28.3740   49.2710 H   0  0  0  0  0  0  0  0  0  0  0  0
   31.3510   25.6900   47.6580 H   0  0  0  0  0  0  0  0  0  0  0  0
   32.6650   25.3860   46.5070 H   0  0  0  0  0  0  0  0  0  0  0  0
   32.5840   27.6690   45.6220 H   0  0  0  0  0  0  0  0  0  0  0  0
   31.8700   29.7050   46.8940 O   0  0  0  0  0  0  0  0  0  0  0  0
   32.1570   30.2680   47.6540 H   0  0  0  0  0  0  0  0  0  0  0  0
   34.3690   28.7620   47.4180 S   0  0  0  0  0  0  0  0  0  0  0  0
   36.3220   29.3680   50.8120 C   0  0  0  0  0  0  0  0  0  0  0  0
   36.9250   30.6160   50.6670 C   0  0  0  0  0  0  0  0  0  0  0  0
   36.7240   31.3000   49.4730 C   0  0  0  0  0  0  0  0  0  0  0  0
   35.9490   30.7220   48.5060 N   0  0  0  0  0  0  0  0  0  0  0  0
   35.3820   29.5080   48.6940 C   0  0  0  0  0  0  0  0  0  0  0  0
   35.5590   28.8160   49.8430 N   0  0  0  0  0  0  0  0  0  0  0  0
   36.4670   28.8220   51.7340 H   0  0  0  0  0  0  0  0  0  0  0  0
   37.5310   31.0330   51.4590 H   0  0  0  0  0  0  0  0  0  0  0  0
   37.1760   32.2650   49.3240 H   0  0  0  0  0  0  0  0  0  0  0  0
   30.5460   27.1340   45.7250 O   0  0  0  0  0  0  0  0  0  0  0  0
   29.5510   29.7320   44.7600 Cl  0  0  0  0  0  0  0  0  0  0  0  0
   28.8100   28.6370   45.9040 C   0  0  0  0  0  0  0  0  0  0  0  0
   29.3700   27.4370   46.2720 C   0  0  0  0  0  0  0  0  0  0  0  0
   28.6680   26.6370   47.1760 C   0  0  0  0  0  0  0  0  0  0  0  0
   27.4560   27.0420   47.6830 C   0  0  0  0  0  0  0  0  0  0  0  0
   26.8840   28.2480   47.3190 C   0  0  0  0  0  0  0  0  0  0  0  0
   27.5680   29.0490   46.4240 C   0  0  0  0  0  0  0  0  0  0  0  0
   29.0060   25.6800   47.5270 H   0  0  0  0  0  0  0  0  0  0  0  0
   26.8540   26.4830   48.3830 H   0  0  0  0  0  0  0  0  0  0  0  0
   25.9240   28.5920   47.7060 H   0  0  0  0  0  0  0  0  0  0  0  0
   26.7910   31.1540   47.1330 C   0  0  0  0  0  0  0  0  0  0  0  0
   26.9850   30.3300   46.0250 C   0  0  0  0  0  0  0  0  0  0  0  0
   26.6320   30.7720   44.7700 C   0  0  0  0  0  0  0  0  0  0  0  0
   26.8280   30.0480   43.9940 H   0  0  0  0  0  0  0  0  0  0  0  0
   26.0910   32.0350   44.6300 C   0  0  0  0  0  3  0  0  0  0  0  0
   25.8910   32.8680   45.7060 C   0  0  0  0  0  3  0  0  0  0  0  0
   26.2460   32.4230   46.9820 C   0  0  0  0  0  0  0  0  0  0  0  0
   27.0940   30.8520   48.4510 O   0  0  0  0  0  0  0  0  0  0  0  0
   26.6130   30.2050   49.0330 H   0  0  0  0  0  0  0  0  0  0  0  0
   26.0200   33.3080   48.0260 O   0  0  0  0  0  0  0  0  0  0  0  0
   25.8710   32.8850   48.9530 H   0  0  0  0  0  0  0  0  0  0  0  0
  1  6  1  1  0  0  0
  1  2  1  0  0  0  0
  2  7  1  1  0  0  0
  3  2  1  0  0  0  0
  4  8  1  0  0  0  0
  4  3  1  0  0  0  0
  5 10  1  6  0  0  0
  5  4  1  0  0  0  0
  5  1  1  0  0  0  0
  9  4  1  0  0  0  0
 11  1  1  0  0  0  0
 11 12  1  0  0  0  0
 13  2  1  0  0  0  0
 13 18  1  0  0  0  0
 14 20  1  0  0  0  0
 15 14  1  0  0  0  0
 15 21  1  0  0  0  0
 16 15  2  0  0  0  0
 17 18  2  0  0  0  0
 17 16  1  0  0  0  0
 18 19  1  0  0  0  0
 19 14  2  0  0  0  0
 22 16  1  0  0  0  0
 23 26  1  0  0  0  0
 23  5  1  0  0  0  0
 24 25  1  0  0  0  0
 25 26  2  0  0  0  0
 25 30  1  0  0  0  0
 26 27  1  0  0  0  0
 27 31  1  0  0  0  0
 27 28  2  0  0  0  0
 28 32  1  0  0  0  0
 29 28  1  0  0  0  0
 29 33  1  0  0  0  0
 30 29  2  0  0  0  0
 34 41  1  0  0  0  0
 35 30  1  0  0  0  0
 35 34  2  0  0  0  0
 36 35  1  0  0  0  0
 37 36  1  0  0  0  0
 38 36  2  0  0  0  0
 38 39  1  0  0  0  0
 39 40  2  0  0  0  0
 40 34  1  0  0  0  0
 40 43  1  0  0  0  0
 41 42  1  0  0  0  0
 43 44  1  0  0  0  0
M  END
>  <minimizedAffinity>
-6.35263824

>  <minimizedRMSD>
1.21051681

$$$$
