
 OpenBabel03262521033D

 20 21  0  0  0  0  0  0  0  0999 V2000
   38.8810   31.8850   47.7670 C   0  0  0  0  0  0  0  0  0  0  0  0
   38.3550   32.1200   49.0220 C   0  0  0  0  0  0  0  0  0  0  0  0
   38.6780   33.3660   49.5590 C   0  0  0  0  0  0  0  0  0  0  0  0
   38.2690   33.5700   50.5530 H   0  0  0  0  0  0  0  0  0  0  0  0
   39.4730   34.2840   48.8640 C   0  0  0  0  0  3  0  0  0  0  0  0
   39.9590   33.9540   47.6030 C   0  0  0  0  0  3  0  0  0  0  0  0
   39.6560   32.7280   47.0430 C   0  0  0  0  0  0  0  0  0  0  0  0
   36.1990   30.9950   49.3700 C   0  0  0  0  0  0  0  0  0  0  0  0
   37.5400   31.1850   49.7380 C   0  0  0  0  0  0  0  0  0  0  0  0
   38.0310   30.4370   50.8140 C   0  0  0  0  0  0  0  0  0  0  0  0
   37.1790   29.5690   51.4370 N   0  0  0  0  0  0  0  0  0  0  0  0
   35.8910   29.4180   51.0460 C   0  0  0  0  0  0  0  0  0  0  0  0
   35.3990   30.1320   50.0110 N   0  0  0  0  0  0  0  0  0  0  0  0
   35.7770   31.5440   48.5560 H   0  0  0  0  0  0  0  0  0  0  0  0
   39.0590   30.5500   51.1330 H   0  0  0  0  0  0  0  0  0  0  0  0
   35.3760   28.6920   51.6540 H   0  0  0  0  0  0  0  0  0  0  0  0
   38.6070   30.6520   47.1450 O   0  0  0  0  0  0  0  0  0  0  0  0
   37.9490   30.6350   46.3530 H   0  0  0  0  0  0  0  0  0  0  0  0
   40.1560   32.4320   45.7850 O   0  0  0  0  0  0  0  0  0  0  0  0
   40.7170   31.5710   45.7130 H   0  0  0  0  0  0  0  0  0  0  0  0
  1  2  1  0  0  0  0
  2  3  2  0  0  0  0
  2  9  1  0  0  0  0
  3  4  1  0  0  0  0
  5  3  1  0  0  0  0
  6  5  2  0  0  0  0
  7  6  1  0  0  0  0
  7  1  2  0  0  0  0
  8  9  2  0  0  0  0
  8 13  1  0  0  0  0
  9 10  1  0  0  0  0
 10 15  1  0  0  0  0
 10 11  2  0  0  0  0
 12 11  1  0  0  0  0
 12 16  1  0  0  0  0
 13 12  2  0  0  0  0
 14  8  1  0  0  0  0
 17  1  1  0  0  0  0
 18 17  1  0  0  0  0
 19  7  1  0  0  0  0
 20 19  1  0  0  0  0
M  END
>  <minimizedAffinity>
-5.40077114

>  <minimizedRMSD>
2.97300696

$$$$
