
 OpenBabel03272508273D

 40 43  0  0  1  0  0  0  0  0999 V2000
   33.7920   28.8880   47.2890 C   0  0  2  0  0  0  0  0  0  0  0  0
   34.5520   28.1140   48.3600 C   0  0  2  0  0  0  0  0  0  0  0  0
   33.6770   27.9850   49.4030 O   0  0  0  0  0  0  0  0  0  0  0  0
   32.3890   28.0790   48.9710 C   0  0  0  0  0  0  0  0  0  0  0  0
   32.4100   28.2480   47.4660 C   0  0  1  0  0  0  0  0  0  0  0  0
   33.7110   29.9580   47.5230 H   0  0  0  0  0  0  0  0  0  0  0  0
   34.8000   27.1280   47.9430 H   0  0  0  0  0  0  0  0  0  0  0  0
   31.8450   27.1350   49.1860 H   0  0  0  0  0  0  0  0  0  0  0  0
   31.8380   28.9610   49.3750 H   0  0  0  0  0  0  0  0  0  0  0  0
   32.4060   27.2500   47.0020 H   0  0  0  0  0  0  0  0  0  0  0  0
   35.6690   30.3300   49.1030 C   0  0  1  0  0  0  0  0  0  0  0  0
   35.7470   28.9370   48.7290 C   0  0  1  0  0  0  0  0  0  0  0  0
   36.0580   29.2740   50.1500 C   0  0  0  0  0  0  0  0  0  0  0  0
   34.7870   30.9030   49.4390 H   0  0  0  0  0  0  0  0  0  0  0  0
   36.6470   28.6540   48.1100 H   0  0  0  0  0  0  0  0  0  0  0  0
   37.1220   29.2330   50.4870 H   0  0  0  0  0  0  0  0  0  0  0  0
   35.3600   29.0620   50.9580 H   0  0  0  0  0  0  0  0  0  0  0  0
   36.8200   31.2800   48.8140 C   0  0  0  0  0  0  0  0  0  0  0  0
   37.0610   32.2980   49.7410 C   0  0  0  0  0  0  0  0  0  0  0  0
   38.1030   33.1480   49.4320 C   0  0  0  0  0  0  0  0  0  0  0  0
   38.8330   32.9790   48.2810 N   0  0  0  0  0  0  0  0  0  0  0  0
   38.5640   31.9780   47.4100 C   0  0  0  0  0  0  0  0  0  0  0  0
   37.5480   31.1200   47.6790 N   0  0  0  0  0  0  0  0  0  0  0  0
   36.4510   32.3770   50.6260 H   0  0  0  0  0  0  0  0  0  0  0  0
   38.3250   33.9550   50.1280 H   0  0  0  0  0  0  0  0  0  0  0  0
   39.1650   31.8820   46.5150 H   0  0  0  0  0  0  0  0  0  0  0  0
   34.2740   28.7010   46.0140 O   0  0  0  0  0  0  0  0  0  0  0  0
   34.2190   27.7720   45.7230 H   0  0  0  0  0  0  0  0  0  0  0  0
   31.4120   29.0400   46.9840 O   0  0  0  0  0  0  0  0  0  0  0  0
   30.3520   28.4570   45.0520 C   0  0  0  0  0  0  0  0  0  0  0  0
   30.2420   28.6040   46.4410 C   0  0  0  0  0  0  0  0  0  0  0  0
   29.0240   28.2940   47.0030 C   0  0  0  0  0  0  0  0  0  0  0  0
   29.0150   28.4310   48.0680 H   0  0  0  0  0  0  0  0  0  0  0  0
   27.9670   27.8650   46.2450 C   0  0  0  0  0  3  0  0  0  0  0  0
   28.0750   27.7210   44.8810 C   0  0  0  0  0  3  0  0  0  0  0  0
   29.2810   28.0210   44.2800 C   0  0  0  0  0  0  0  0  0  0  0  0
   31.4900   28.7160   44.2990 O   0  0  0  0  0  0  0  0  0  0  0  0
   31.6930   29.6790   44.0500 H   0  0  0  0  0  0  0  0  0  0  0  0
   29.3310   27.8580   42.9120 O   0  0  0  0  0  0  0  0  0  0  0  0
   30.1420   27.4660   42.4250 H   0  0  0  0  0  0  0  0  0  0  0  0
  1  5  1  0  0  0  0
  1  6  1  1  0  0  0
  1  2  1  0  0  0  0
  2  7  1  6  0  0  0
  2 12  1  0  0  0  0
  2  3  1  0  0  0  0
  4  8  1  0  0  0  0
  4  9  1  0  0  0  0
  4  3  1  0  0  0  0
  5 10  1  6  0  0  0
  5  4  1  0  0  0  0
 11 14  1  1  0  0  0
 11 13  1  0  0  0  0
 12 15  1  6  0  0  0
 12 11  1  0  0  0  0
 12 13  1  0  0  0  0
 13 16  1  0  0  0  0
 13 17  1  0  0  0  0
 18 11  1  0  0  0  0
 18 19  1  0  0  0  0
 19 24  1  0  0  0  0
 20 19  2  0  0  0  0
 20 25  1  0  0  0  0
 21 20  1  0  0  0  0
 22 23  1  0  0  0  0
 22 21  2  0  0  0  0
 23 18  2  0  0  0  0
 26 22  1  0  0  0  0
 27  1  1  0  0  0  0
 28 27  1  0  0  0  0
 29  5  1  0  0  0  0
 30 31  1  0  0  0  0
 31 29  1  0  0  0  0
 31 32  2  0  0  0  0
 32 33  1  0  0  0  0
 34 32  1  0  0  0  0
 35 34  2  0  0  0  0
 36 35  1  0  0  0  0
 36 30  2  0  0  0  0
 37 30  1  0  0  0  0
 38 37  1  0  0  0  0
 39 36  1  0  0  0  0
 40 39  1  0  0  0  0
M  END
>  <minimizedAffinity>
-5.07558155

>  <minimizedRMSD>
0.811401963

$$$$
