
 OpenBabel03272508583D

 43 47  0  0  1  0  0  0  0  0999 V2000
   39.1260   31.4130   43.3330 C   0  0  0  0  0  0  0  0  0  0  0  0
   40.1280   30.4950   43.4890 C   0  0  0  0  0  0  0  0  0  0  0  0
   40.8730   30.1570   42.3690 C   0  0  0  0  0  0  0  0  0  0  0  0
   40.5480   30.7760   41.1710 C   0  0  0  0  0  0  0  0  0  0  0  0
   39.5360   31.7050   41.0100 C   0  0  0  0  0  0  0  0  0  0  0  0
   38.8510   31.9890   42.1310 N   0  0  0  0  0  0  0  0  0  0  0  0
   40.3510   30.0310   44.4390 H   0  0  0  0  0  0  0  0  0  0  0  0
   41.6850   29.4430   42.3870 H   0  0  0  0  0  0  0  0  0  0  0  0
   41.1260   30.5180   40.2930 H   0  0  0  0  0  0  0  0  0  0  0  0
   38.3210   31.8270   44.5040 C   0  0  0  0  0  0  0  0  0  0  0  0
   37.2210   32.3750   44.3960 O   0  0  0  0  0  0  0  0  0  0  0  0
   38.9070   31.5500   45.8100 N   0  0  0  0  0  0  0  0  0  0  0  0
   39.8830   31.2690   45.9830 H   0  0  0  0  0  0  0  0  0  0  0  0
   38.4040   31.0770   48.2010 C   0  0  2  0  0  0  0  0  0  0  0  0
   38.6590   32.5380   48.1000 C   0  0  0  0  0  0  0  0  0  0  0  0
   38.0390   31.6800   46.9610 C   0  0  1  0  0  0  0  0  0  0  0  0
   39.3480   30.4870   48.2930 H   0  0  0  0  0  0  0  0  0  0  0  0
   39.6840   32.9090   47.9560 H   0  0  0  0  0  0  0  0  0  0  0  0
   37.9880   33.2960   48.5290 H   0  0  0  0  0  0  0  0  0  0  0  0
   36.9550   31.9130   46.7590 H   0  0  0  0  0  0  0  0  0  0  0  0
   35.0560   30.2220   49.5410 C   0  0  0  0  0  0  0  0  0  0  0  0
   35.3950   29.5630   50.7650 C   0  0  0  0  0  0  0  0  0  0  0  0
   36.7790   29.4320   51.1110 C   0  0  0  0  0  0  0  0  0  0  0  0
   37.7350   29.9400   50.2630 N   0  0  0  0  0  0  0  0  0  0  0  0
   37.3320   30.5530   49.1180 C   0  0  0  0  0  0  0  0  0  0  0  0
   36.0160   30.7130   48.7240 N   0  0  0  0  0  0  0  0  0  0  0  0
   34.0010   30.3000   49.3160 H   0  0  0  0  0  0  0  0  0  0  0  0
   34.6480   29.1690   51.4220 H   0  0  0  0  0  0  0  0  0  0  0  0
   37.0760   28.9510   52.0090 H   0  0  0  0  0  0  0  0  0  0  0  0
   39.2810   32.2850   39.7130 C   0  0  0  0  0  0  0  0  0  0  0  0
   38.6360   33.3600   39.6670 O   0  0  0  0  0  0  0  0  0  0  0  0
   39.7100   31.7310   38.4540 C   0  0  0  0  0  0  0  0  0  0  0  0
   38.9070   30.7630   37.8630 C   0  0  0  0  0  0  0  0  0  0  0  0
   37.9860   30.4540   38.3680 H   0  0  0  0  0  0  0  0  0  0  0  0
   39.1530   30.1220   36.6610 C   0  0  0  0  0  3  0  0  0  0  0  0
   40.3000   30.4710   35.9790 C   0  0  0  0  0  0  0  0  0  0  0  0
   40.5500   29.8580   34.8100 N   0  0  0  0  0  0  0  0  0  0  0  0
   41.6800   30.1960   34.1280 C   0  0  0  0  0  0  0  0  0  0  0  0
   41.8370   29.6700   33.1870 H   0  0  0  0  0  0  0  0  0  0  0  0
   42.5680   31.1560   34.6170 C   0  0  0  0  0  3  0  0  0  0  0  0
   42.2800   31.7770   35.8380 C   0  0  0  0  0  3  0  0  0  0  0  0
   41.1190   31.4290   36.5380 C   0  0  0  0  0  0  0  0  0  0  0  0
   40.8650   32.0620   37.7370 C   0  0  0  0  0  3  0  0  0  0  0  0
  1  2  1  0  0  0  0
  1 10  1  0  0  0  0
  2  7  1  0  0  0  0
  3  8  1  0  0  0  0
  3  2  2  0  0  0  0
  4  3  1  0  0  0  0
  5  4  2  0  0  0  0
  5  6  1  0  0  0  0
  6  1  2  0  0  0  0
  9  4  1  0  0  0  0
 10 12  1  0  0  0  0
 11 10  2  0  0  0  0
 12 13  1  0  0  0  0
 12 16  1  0  0  0  0
 14 17  1  6  0  0  0
 14 25  1  0  0  0  0
 15 14  1  0  0  0  0
 15 19  1  0  0  0  0
 16 20  1  6  0  0  0
 16 15  1  0  0  0  0
 16 14  1  0  0  0  0
 18 15  1  0  0  0  0
 21 22  1  0  0  0  0
 22 23  2  0  0  0  0
 22 28  1  0  0  0  0
 23 29  1  0  0  0  0
 24 23  1  0  0  0  0
 25 24  2  0  0  0  0
 26 25  1  0  0  0  0
 26 21  2  0  0  0  0
 27 21  1  0  0  0  0
 30  5  1  0  0  0  0
 31 30  2  0  0  0  0
 32 30  1  0  0  0  0
 33 34  1  0  0  0  0
 33 32  1  0  0  0  0
 35 33  2  0  0  0  0
 36 42  1  0  0  0  0
 36 35  1  0  0  0  0
 37 36  2  0  0  0  0
 38 40  2  0  0  0  0
 38 37  1  0  0  0  0
 39 38  1  0  0  0  0
 40 41  1  0  0  0  0
 41 42  2  0  0  0  0
 42 43  1  0  0  0  0
 43 32  2  0  0  0  0
M  END
>  <minimizedAffinity>
-4.96999168

>  <minimizedRMSD>
0.501300037

$$$$
