
 OpenBabel03272507303D

 32 35  0  0  0  0  0  0  0  0999 V2000
   35.8110   29.1450   49.8080 C   0  0  0  0  0  0  0  0  0  0  0  0
   34.7370   29.6370   50.5070 C   0  0  0  0  0  0  0  0  0  0  0  0
   33.5900   29.0240   49.9790 C   0  0  0  0  0  0  0  0  0  0  0  0
   34.0640   28.1850   48.9750 C   0  0  0  0  0  0  0  0  0  0  0  0
   35.3490   28.3050   48.9310 O   0  0  0  0  0  0  0  0  0  0  0  0
   34.6050   30.3510   51.3240 H   0  0  0  0  0  0  0  0  0  0  0  0
   32.5690   29.1490   50.2580 H   0  0  0  0  0  0  0  0  0  0  0  0
   37.1620   29.5710   50.1000 C   0  0  0  0  0  0  0  0  0  0  0  0
   37.7590   29.0530   51.0690 O   0  0  0  0  0  0  0  0  0  0  0  0
   37.7400   30.5840   49.2380 C   0  0  0  0  0  0  0  0  0  0  0  0
   38.0680   31.8020   49.8480 C   0  0  0  0  0  0  0  0  0  0  0  0
   38.6280   32.7990   49.0360 C   0  0  0  0  0  0  0  0  0  0  0  0
   38.8170   32.5200   47.7050 N   0  0  0  0  0  0  0  0  0  0  0  0
   38.4860   31.3400   47.1700 C   0  0  0  0  0  0  0  0  0  0  0  0
   37.9520   30.3780   47.9250 N   0  0  0  0  0  0  0  0  0  0  0  0
   37.8950   31.9550   50.8960 H   0  0  0  0  0  0  0  0  0  0  0  0
   38.8780   33.7260   49.5010 H   0  0  0  0  0  0  0  0  0  0  0  0
   38.6930   31.2700   46.1110 H   0  0  0  0  0  0  0  0  0  0  0  0
   33.2010   27.3390   48.1450 C   0  0  0  0  0  0  0  0  0  0  0  0
   31.9600   27.2460   48.4080 O   0  0  0  0  0  0  0  0  0  0  0  0
   33.6840   26.5760   47.0110 C   0  0  0  0  0  0  0  0  0  0  0  0
   33.6830   27.2240   45.7700 C   0  0  0  0  0  0  0  0  0  0  0  0
   33.3490   28.2490   45.6040 H   0  0  0  0  0  0  0  0  0  0  0  0
   34.1380   26.5370   44.6360 C   0  0  0  0  0  3  0  0  0  0  0  0
   34.5830   25.2360   44.7390 C   0  0  0  0  0  0  0  0  0  0  0  0
   35.0070   24.6230   43.6200 N   0  0  0  0  0  0  0  0  0  0  0  0
   35.4640   23.3390   43.6160 C   0  0  0  0  0  0  0  0  0  0  0  0
   35.8100   22.8270   42.7330 H   0  0  0  0  0  0  0  0  0  0  0  0
   35.4770   22.6820   44.8180 C   0  0  0  0  0  3  0  0  0  0  0  0
   35.0420   23.2980   45.9800 C   0  0  0  0  0  3  0  0  0  0  0  0
   34.5810   24.5970   45.9750 C   0  0  0  0  0  0  0  0  0  0  0  0
   34.1340   25.2740   47.0810 C   0  0  0  0  0  3  0  0  0  0  0  0
  1  8  1  0  0  0  0
  1  2  2  0  0  0  0
  2  6  1  0  0  0  0
  3  7  1  0  0  0  0
  3  2  1  0  0  0  0
  4  3  2  0  0  0  0
  5  4  1  0  0  0  0
  5  1  1  0  0  0  0
  8  9  2  0  0  0  0
 10 11  1  0  0  0  0
 10  8  1  0  0  0  0
 11 16  1  0  0  0  0
 12 17  1  0  0  0  0
 12 11  2  0  0  0  0
 13 12  1  0  0  0  0
 14 13  2  0  0  0  0
 14 15  1  0  0  0  0
 15 10  2  0  0  0  0
 18 14  1  0  0  0  0
 19 20  2  0  0  0  0
 19  4  1  0  0  0  0
 21 32  1  0  0  0  0
 21 19  1  0  0  0  0
 22 21  2  0  0  0  0
 23 22  1  0  0  0  0
 24 25  2  0  0  0  0
 24 22  1  0  0  0  0
 25 31  1  0  0  0  0
 26 25  1  0  0  0  0
 27 26  2  0  0  0  0
 27 29  1  0  0  0  0
 28 27  1  0  0  0  0
 29 30  2  0  0  0  0
 31 30  1  0  0  0  0
 31 32  2  0  0  0  0
M  END
>  <minimizedAffinity>
-5.61467218

>  <minimizedRMSD>
1.17290056

$$$$
