
 OpenBabel03272508583D

 43 47  0  0  1  0  0  0  0  0999 V2000
   39.0570   31.3670   43.3790 C   0  0  0  0  0  0  0  0  0  0  0  0
   40.0750   30.4690   43.5410 C   0  0  0  0  0  0  0  0  0  0  0  0
   40.8500   30.1650   42.4310 C   0  0  0  0  0  0  0  0  0  0  0  0
   40.5360   30.7940   41.2360 C   0  0  0  0  0  0  0  0  0  0  0  0
   39.5070   31.7030   41.0690 C   0  0  0  0  0  0  0  0  0  0  0  0
   38.7940   31.9560   42.1800 N   0  0  0  0  0  0  0  0  0  0  0  0
   40.2900   29.9960   44.4890 H   0  0  0  0  0  0  0  0  0  0  0  0
   41.6770   29.4680   42.4560 H   0  0  0  0  0  0  0  0  0  0  0  0
   41.1370   30.5620   40.3670 H   0  0  0  0  0  0  0  0  0  0  0  0
   38.2200   31.7470   44.5380 C   0  0  0  0  0  0  0  0  0  0  0  0
   37.0320   32.0590   44.4290 O   0  0  0  0  0  0  0  0  0  0  0  0
   38.8860   31.7330   45.8360 N   0  0  0  0  0  0  0  0  0  0  0  0
   39.9030   31.6660   45.9890 H   0  0  0  0  0  0  0  0  0  0  0  0
   38.4190   31.1510   48.2100 C   0  0  2  0  0  0  0  0  0  0  0  0
   38.6990   32.6110   48.1760 C   0  0  0  0  0  0  0  0  0  0  0  0
   38.0420   31.8220   47.0090 C   0  0  1  0  0  0  0  0  0  0  0  0
   39.3530   30.5400   48.2550 H   0  0  0  0  0  0  0  0  0  0  0  0
   39.7280   32.9700   48.0310 H   0  0  0  0  0  0  0  0  0  0  0  0
   38.0500   33.3580   48.6550 H   0  0  0  0  0  0  0  0  0  0  0  0
   36.9590   32.0830   46.8400 H   0  0  0  0  0  0  0  0  0  0  0  0
   35.0840   30.2250   49.5360 C   0  0  0  0  0  0  0  0  0  0  0  0
   35.4330   29.5640   50.7570 C   0  0  0  0  0  0  0  0  0  0  0  0
   36.8180   29.4580   51.1050 C   0  0  0  0  0  0  0  0  0  0  0  0
   37.7660   29.9880   50.2630 N   0  0  0  0  0  0  0  0  0  0  0  0
   37.3550   30.6010   49.1210 C   0  0  0  0  0  0  0  0  0  0  0  0
   36.0370   30.7380   48.7250 N   0  0  0  0  0  0  0  0  0  0  0  0
   34.0290   30.2840   49.3080 H   0  0  0  0  0  0  0  0  0  0  0  0
   34.6920   29.1520   51.4090 H   0  0  0  0  0  0  0  0  0  0  0  0
   37.1210   28.9760   52.0010 H   0  0  0  0  0  0  0  0  0  0  0  0
   39.2660   32.2970   39.7750 C   0  0  0  0  0  0  0  0  0  0  0  0
   38.6500   33.3890   39.7370 O   0  0  0  0  0  0  0  0  0  0  0  0
   39.6780   31.7400   38.5130 C   0  0  0  0  0  0  0  0  0  0  0  0
   38.8720   30.7600   37.9410 C   0  0  0  0  0  0  0  0  0  0  0  0
   37.9620   30.4480   38.4640 H   0  0  0  0  0  0  0  0  0  0  0  0
   39.1030   30.1140   36.7390 C   0  0  0  0  0  3  0  0  0  0  0  0
   40.2360   30.4670   36.0370 C   0  0  0  0  0  0  0  0  0  0  0  0
   40.4710   29.8480   34.8680 N   0  0  0  0  0  0  0  0  0  0  0  0
   41.5870   30.1890   34.1650 C   0  0  0  0  0  0  0  0  0  0  0  0
   41.7320   29.6590   33.2240 H   0  0  0  0  0  0  0  0  0  0  0  0
   42.4760   31.1590   34.6340 C   0  0  0  0  0  3  0  0  0  0  0  0
   42.2040   31.7860   35.8540 C   0  0  0  0  0  3  0  0  0  0  0  0
   41.0570   31.4350   36.5760 C   0  0  0  0  0  0  0  0  0  0  0  0
   40.8190   32.0740   37.7750 C   0  0  0  0  0  3  0  0  0  0  0  0
  1  2  1  0  0  0  0
  1 10  1  0  0  0  0
  2  7  1  0  0  0  0
  3  8  1  0  0  0  0
  3  2  2  0  0  0  0
  4  3  1  0  0  0  0
  5  4  2  0  0  0  0
  5  6  1  0  0  0  0
  6  1  2  0  0  0  0
  9  4  1  0  0  0  0
 10 12  1  0  0  0  0
 11 10  2  0  0  0  0
 12 13  1  0  0  0  0
 12 16  1  0  0  0  0
 14 17  1  6  0  0  0
 14 25  1  0  0  0  0
 15 14  1  0  0  0  0
 15 19  1  0  0  0  0
 16 20  1  6  0  0  0
 16 15  1  0  0  0  0
 16 14  1  0  0  0  0
 18 15  1  0  0  0  0
 21 22  1  0  0  0  0
 22 23  2  0  0  0  0
 22 28  1  0  0  0  0
 23 29  1  0  0  0  0
 24 23  1  0  0  0  0
 25 24  2  0  0  0  0
 26 25  1  0  0  0  0
 26 21  2  0  0  0  0
 27 21  1  0  0  0  0
 30  5  1  0  0  0  0
 31 30  2  0  0  0  0
 32 30  1  0  0  0  0
 33 34  1  0  0  0  0
 33 32  1  0  0  0  0
 35 33  2  0  0  0  0
 36 42  1  0  0  0  0
 36 35  1  0  0  0  0
 37 36  2  0  0  0  0
 38 40  2  0  0  0  0
 38 37  1  0  0  0  0
 39 38  1  0  0  0  0
 40 41  1  0  0  0  0
 41 42  2  0  0  0  0
 42 43  1  0  0  0  0
 43 32  2  0  0  0  0
M  END
>  <minimizedAffinity>
-4.95906115

>  <minimizedRMSD>
1.08899546

$$$$
