
 OpenBabel03272508573D

 43 47  0  0  1  0  0  0  0  0999 V2000
   39.1690   31.3310   43.3830 C   0  0  0  0  0  0  0  0  0  0  0  0
   40.1770   30.4260   43.5680 C   0  0  0  0  0  0  0  0  0  0  0  0
   40.9340   30.0680   42.4620 C   0  0  0  0  0  0  0  0  0  0  0  0
   40.6130   30.6550   41.2470 C   0  0  0  0  0  0  0  0  0  0  0  0
   39.5940   31.5700   41.0570 C   0  0  0  0  0  0  0  0  0  0  0  0
   38.8980   31.8760   42.1650 N   0  0  0  0  0  0  0  0  0  0  0  0
   40.3970   29.9880   44.5310 H   0  0  0  0  0  0  0  0  0  0  0  0
   41.7520   29.3620   42.5040 H   0  0  0  0  0  0  0  0  0  0  0  0
   41.2000   30.3810   40.3800 H   0  0  0  0  0  0  0  0  0  0  0  0
   38.3510   31.7660   44.5370 C   0  0  0  0  0  0  0  0  0  0  0  0
   37.2600   32.3280   44.4070 O   0  0  0  0  0  0  0  0  0  0  0  0
   38.9120   31.4920   45.8550 N   0  0  0  0  0  0  0  0  0  0  0  0
   39.8810   31.2000   46.0460 H   0  0  0  0  0  0  0  0  0  0  0  0
   38.3830   31.0780   48.2510 C   0  0  2  0  0  0  0  0  0  0  0  0
   38.6240   32.5380   48.1140 C   0  0  0  0  0  0  0  0  0  0  0  0
   38.0280   31.6440   46.9910 C   0  0  1  0  0  0  0  0  0  0  0  0
   39.3310   30.5000   48.3710 H   0  0  0  0  0  0  0  0  0  0  0  0
   39.6470   32.9160   47.9740 H   0  0  0  0  0  0  0  0  0  0  0  0
   37.9400   33.3000   48.5130 H   0  0  0  0  0  0  0  0  0  0  0  0
   36.9440   31.8600   46.7680 H   0  0  0  0  0  0  0  0  0  0  0  0
   35.0260   30.2230   49.5700 C   0  0  0  0  0  0  0  0  0  0  0  0
   35.3560   29.6010   50.8150 C   0  0  0  0  0  0  0  0  0  0  0  0
   36.7360   29.4950   51.1830 C   0  0  0  0  0  0  0  0  0  0  0  0
   37.6970   29.9900   50.3340 N   0  0  0  0  0  0  0  0  0  0  0  0
   37.3040   30.5670   49.1670 C   0  0  0  0  0  0  0  0  0  0  0  0
   35.9920   30.7020   48.7520 N   0  0  0  0  0  0  0  0  0  0  0  0
   33.9730   30.2840   49.3290 H   0  0  0  0  0  0  0  0  0  0  0  0
   34.6040   29.2170   51.4730 H   0  0  0  0  0  0  0  0  0  0  0  0
   37.0260   29.0410   52.0970 H   0  0  0  0  0  0  0  0  0  0  0  0
   39.3440   32.1170   39.7440 C   0  0  0  0  0  0  0  0  0  0  0  0
   38.6200   33.1380   39.6610 O   0  0  0  0  0  0  0  0  0  0  0  0
   39.8630   31.5870   38.5090 C   0  0  0  0  0  0  0  0  0  0  0  0
   39.0910   30.6500   37.8300 C   0  0  0  0  0  0  0  0  0  0  0  0
   38.1270   30.3480   38.2530 H   0  0  0  0  0  0  0  0  0  0  0  0
   39.4200   30.0340   36.6350 C   0  0  0  0  0  3  0  0  0  0  0  0
   40.6240   30.3760   36.0560 C   0  0  0  0  0  0  0  0  0  0  0  0
   40.9550   29.7880   34.8950 N   0  0  0  0  0  0  0  0  0  0  0  0
   42.1420   30.1180   34.3140 C   0  0  0  0  0  0  0  0  0  0  0  0
   42.3640   29.6140   33.3740 H   0  0  0  0  0  0  0  0  0  0  0  0
   43.0060   31.0470   34.8980 C   0  0  0  0  0  3  0  0  0  0  0  0
   42.6340   31.6440   36.1070 C   0  0  0  0  0  3  0  0  0  0  0  0
   41.4140   31.3030   36.7030 C   0  0  0  0  0  0  0  0  0  0  0  0
   41.0770   31.9110   37.8940 C   0  0  0  0  0  3  0  0  0  0  0  0
  1  2  1  0  0  0  0
  1 10  1  0  0  0  0
  2  7  1  0  0  0  0
  3  8  1  0  0  0  0
  3  2  2  0  0  0  0
  4  3  1  0  0  0  0
  5  4  2  0  0  0  0
  5  6  1  0  0  0  0
  6  1  2  0  0  0  0
  9  4  1  0  0  0  0
 10 12  1  0  0  0  0
 11 10  2  0  0  0  0
 12 13  1  0  0  0  0
 12 16  1  0  0  0  0
 14 17  1  6  0  0  0
 14 25  1  0  0  0  0
 15 14  1  0  0  0  0
 15 19  1  0  0  0  0
 16 20  1  6  0  0  0
 16 15  1  0  0  0  0
 16 14  1  0  0  0  0
 18 15  1  0  0  0  0
 21 22  1  0  0  0  0
 22 23  2  0  0  0  0
 22 28  1  0  0  0  0
 23 29  1  0  0  0  0
 24 23  1  0  0  0  0
 25 24  2  0  0  0  0
 26 25  1  0  0  0  0
 26 21  2  0  0  0  0
 27 21  1  0  0  0  0
 30  5  1  0  0  0  0
 31 30  2  0  0  0  0
 32 30  1  0  0  0  0
 33 34  1  0  0  0  0
 33 32  2  0  0  0  0
 35 33  1  0  0  0  0
 36 35  2  0  0  0  0
 36 42  1  0  0  0  0
 37 36  1  0  0  0  0
 38 37  2  0  0  0  0
 38 40  1  0  0  0  0
 39 38  1  0  0  0  0
 40 41  2  0  0  0  0
 41 42  1  0  0  0  0
 42 43  2  0  0  0  0
 43 32  1  0  0  0  0
M  END
>  <minimizedAffinity>
-4.98004389

>  <minimizedRMSD>
0.904191136

$$$$
