
 OpenBabel03272508583D

 43 47  0  0  1  0  0  0  0  0999 V2000
   39.1240   31.4120   43.3340 C   0  0  0  0  0  0  0  0  0  0  0  0
   40.1260   30.4950   43.4890 C   0  0  0  0  0  0  0  0  0  0  0  0
   40.8720   30.1580   42.3690 C   0  0  0  0  0  0  0  0  0  0  0  0
   40.5480   30.7770   41.1710 C   0  0  0  0  0  0  0  0  0  0  0  0
   39.5350   31.7050   41.0110 C   0  0  0  0  0  0  0  0  0  0  0  0
   38.8490   31.9890   42.1310 N   0  0  0  0  0  0  0  0  0  0  0  0
   40.3490   30.0310   44.4400 H   0  0  0  0  0  0  0  0  0  0  0  0
   41.6840   29.4450   42.3880 H   0  0  0  0  0  0  0  0  0  0  0  0
   41.1260   30.5200   40.2940 H   0  0  0  0  0  0  0  0  0  0  0  0
   38.3180   31.8270   44.5040 C   0  0  0  0  0  0  0  0  0  0  0  0
   37.2150   32.3680   44.3950 O   0  0  0  0  0  0  0  0  0  0  0  0
   38.9070   31.5550   45.8100 N   0  0  0  0  0  0  0  0  0  0  0  0
   39.8850   31.2810   45.9830 H   0  0  0  0  0  0  0  0  0  0  0  0
   38.4050   31.0800   48.2010 C   0  0  2  0  0  0  0  0  0  0  0  0
   38.6610   32.5410   48.1020 C   0  0  0  0  0  0  0  0  0  0  0  0
   38.0400   31.6850   46.9620 C   0  0  1  0  0  0  0  0  0  0  0  0
   39.3480   30.4880   48.2910 H   0  0  0  0  0  0  0  0  0  0  0  0
   39.6860   32.9110   47.9580 H   0  0  0  0  0  0  0  0  0  0  0  0
   37.9900   33.2980   48.5320 H   0  0  0  0  0  0  0  0  0  0  0  0
   36.9560   31.9190   46.7610 H   0  0  0  0  0  0  0  0  0  0  0  0
   35.0560   30.2240   49.5400 C   0  0  0  0  0  0  0  0  0  0  0  0
   35.3950   29.5640   50.7640 C   0  0  0  0  0  0  0  0  0  0  0  0
   36.7790   29.4330   51.1090 C   0  0  0  0  0  0  0  0  0  0  0  0
   37.7350   29.9410   50.2620 N   0  0  0  0  0  0  0  0  0  0  0  0
   37.3330   30.5550   49.1170 C   0  0  0  0  0  0  0  0  0  0  0  0
   36.0170   30.7150   48.7230 N   0  0  0  0  0  0  0  0  0  0  0  0
   34.0010   30.3020   49.3150 H   0  0  0  0  0  0  0  0  0  0  0  0
   34.6480   29.1690   51.4200 H   0  0  0  0  0  0  0  0  0  0  0  0
   37.0760   28.9500   52.0070 H   0  0  0  0  0  0  0  0  0  0  0  0
   39.2800   32.2860   39.7140 C   0  0  0  0  0  0  0  0  0  0  0  0
   38.6360   33.3610   39.6680 O   0  0  0  0  0  0  0  0  0  0  0  0
   39.7090   31.7320   38.4550 C   0  0  0  0  0  0  0  0  0  0  0  0
   38.9050   30.7640   37.8630 C   0  0  0  0  0  0  0  0  0  0  0  0
   37.9860   30.4540   38.3700 H   0  0  0  0  0  0  0  0  0  0  0  0
   39.1510   30.1220   36.6610 C   0  0  0  0  0  3  0  0  0  0  0  0
   40.2980   30.4720   35.9790 C   0  0  0  0  0  0  0  0  0  0  0  0
   40.5480   29.8590   34.8110 N   0  0  0  0  0  0  0  0  0  0  0  0
   41.6770   30.1970   34.1280 C   0  0  0  0  0  0  0  0  0  0  0  0
   41.8340   29.6710   33.1870 H   0  0  0  0  0  0  0  0  0  0  0  0
   42.5660   31.1570   34.6170 C   0  0  0  0  0  3  0  0  0  0  0  0
   42.2790   31.7790   35.8380 C   0  0  0  0  0  3  0  0  0  0  0  0
   41.1170   31.4300   36.5380 C   0  0  0  0  0  0  0  0  0  0  0  0
   40.8640   32.0640   37.7370 C   0  0  0  0  0  3  0  0  0  0  0  0
  1  2  1  0  0  0  0
  1 10  1  0  0  0  0
  2  7  1  0  0  0  0
  3  8  1  0  0  0  0
  3  2  2  0  0  0  0
  4  3  1  0  0  0  0
  5  4  2  0  0  0  0
  5  6  1  0  0  0  0
  6  1  2  0  0  0  0
  9  4  1  0  0  0  0
 10 12  1  0  0  0  0
 11 10  2  0  0  0  0
 12 13  1  0  0  0  0
 12 16  1  0  0  0  0
 14 17  1  6  0  0  0
 14 25  1  0  0  0  0
 15 14  1  0  0  0  0
 15 19  1  0  0  0  0
 16 20  1  6  0  0  0
 16 15  1  0  0  0  0
 16 14  1  0  0  0  0
 18 15  1  0  0  0  0
 21 22  1  0  0  0  0
 22 23  2  0  0  0  0
 22 28  1  0  0  0  0
 23 29  1  0  0  0  0
 24 23  1  0  0  0  0
 25 24  2  0  0  0  0
 26 25  1  0  0  0  0
 26 21  2  0  0  0  0
 27 21  1  0  0  0  0
 30  5  1  0  0  0  0
 31 30  2  0  0  0  0
 32 30  1  0  0  0  0
 33 34  1  0  0  0  0
 33 32  1  0  0  0  0
 35 33  2  0  0  0  0
 36 42  1  0  0  0  0
 36 35  1  0  0  0  0
 37 36  2  0  0  0  0
 38 40  2  0  0  0  0
 38 37  1  0  0  0  0
 39 38  1  0  0  0  0
 40 41  1  0  0  0  0
 41 42  2  0  0  0  0
 42 43  1  0  0  0  0
 43 32  2  0  0  0  0
M  END
>  <minimizedAffinity>
-4.96936035

>  <minimizedRMSD>
0.724615812

$$$$
