
 OpenBabel03272508573D

 43 47  0  0  1  0  0  0  0  0999 V2000
   39.1570   31.4510   43.2350 C   0  0  0  0  0  0  0  0  0  0  0  0
   40.2120   30.5850   43.3250 C   0  0  0  0  0  0  0  0  0  0  0  0
   40.8940   30.2780   42.1580 C   0  0  0  0  0  0  0  0  0  0  0  0
   40.4580   30.8700   40.9820 C   0  0  0  0  0  0  0  0  0  0  0  0
   39.3920   31.7460   40.8880 C   0  0  0  0  0  0  0  0  0  0  0  0
   38.7720   32.0050   42.0530 N   0  0  0  0  0  0  0  0  0  0  0  0
   40.5230   30.1410   44.2600 H   0  0  0  0  0  0  0  0  0  0  0  0
   41.7400   29.6050   42.1220 H   0  0  0  0  0  0  0  0  0  0  0  0
   40.9860   30.6350   40.0680 H   0  0  0  0  0  0  0  0  0  0  0  0
   38.4140   31.8340   44.4570 C   0  0  0  0  0  0  0  0  0  0  0  0
   37.3440   32.4460   44.4220 O   0  0  0  0  0  0  0  0  0  0  0  0
   39.0250   31.4430   45.7220 N   0  0  0  0  0  0  0  0  0  0  0  0
   39.9890   31.1000   45.8430 H   0  0  0  0  0  0  0  0  0  0  0  0
   38.7270   31.1520   48.1750 C   0  0  2  0  0  0  0  0  0  0  0  0
   38.7160   32.6160   47.9160 C   0  0  0  0  0  0  0  0  0  0  0  0
   38.2030   31.5470   46.9090 C   0  0  1  0  0  0  0  0  0  0  0  0
   39.7630   30.7430   48.2630 H   0  0  0  0  0  0  0  0  0  0  0  0
   39.6510   33.1380   47.6700 H   0  0  0  0  0  0  0  0  0  0  0  0
   37.9420   33.2900   48.3110 H   0  0  0  0  0  0  0  0  0  0  0  0
   37.0870   31.5690   46.7560 H   0  0  0  0  0  0  0  0  0  0  0  0
   35.9310   29.2440   49.6870 C   0  0  0  0  0  0  0  0  0  0  0  0
   36.1710   29.4400   51.0840 C   0  0  0  0  0  0  0  0  0  0  0  0
   37.2930   30.2380   51.4800 C   0  0  0  0  0  0  0  0  0  0  0  0
   38.1010   30.7870   50.5140 N   0  0  0  0  0  0  0  0  0  0  0  0
   37.8080   30.5550   49.2070 C   0  0  0  0  0  0  0  0  0  0  0  0
   36.7440   29.7960   48.7560 N   0  0  0  0  0  0  0  0  0  0  0  0
   35.0750   28.6360   49.4290 H   0  0  0  0  0  0  0  0  0  0  0  0
   35.5390   29.0100   51.8320 H   0  0  0  0  0  0  0  0  0  0  0  0
   37.5070   30.4090   52.5050 H   0  0  0  0  0  0  0  0  0  0  0  0
   39.0200   32.3040   39.6100 C   0  0  0  0  0  0  0  0  0  0  0  0
   39.9010   32.3690   38.7190 O   0  0  0  0  0  0  0  0  0  0  0  0
   37.7110   32.7950   39.2640 C   0  0  0  0  0  0  0  0  0  0  0  0
   36.6390   31.9140   39.3570 C   0  0  0  0  0  0  0  0  0  0  0  0
   36.8240   30.8850   39.6840 H   0  0  0  0  0  0  0  0  0  0  0  0
   35.3170   32.2040   39.0700 C   0  0  0  0  0  3  0  0  0  0  0  0
   35.0250   33.4850   38.6540 C   0  0  0  0  0  0  0  0  0  0  0  0
   33.7450   33.7810   38.3730 N   0  0  0  0  0  0  0  0  0  0  0  0
   33.4450   35.0440   37.9610 C   0  0  0  0  0  0  0  0  0  0  0  0
   32.3930   35.2330   37.7470 H   0  0  0  0  0  0  0  0  0  0  0  0
   34.4340   36.0220   37.8280 C   0  0  0  0  0  3  0  0  0  0  0  0
   35.7580   35.6850   38.1280 C   0  0  0  0  0  3  0  0  0  0  0  0
   36.0640   34.3860   38.5510 C   0  0  0  0  0  0  0  0  0  0  0  0
   37.3800   34.0880   38.8380 C   0  0  0  0  0  3  0  0  0  0  0  0
  1  2  1  0  0  0  0
  1 10  1  0  0  0  0
  2  7  1  0  0  0  0
  3  2  2  0  0  0  0
  4  3  1  0  0  0  0
  5  4  2  0  0  0  0
  5  6  1  0  0  0  0
  6  1  2  0  0  0  0
  8  3  1  0  0  0  0
  9  4  1  0  0  0  0
 10 12  1  0  0  0  0
 11 10  2  0  0  0  0
 12 13  1  0  0  0  0
 12 16  1  0  0  0  0
 14 17  1  6  0  0  0
 14 25  1  0  0  0  0
 15 14  1  0  0  0  0
 15 19  1  0  0  0  0
 16 20  1  6  0  0  0
 16 15  1  0  0  0  0
 16 14  1  0  0  0  0
 18 15  1  0  0  0  0
 21 22  1  0  0  0  0
 22 23  2  0  0  0  0
 22 28  1  0  0  0  0
 23 29  1  0  0  0  0
 24 23  1  0  0  0  0
 25 24  2  0  0  0  0
 26 25  1  0  0  0  0
 26 21  2  0  0  0  0
 27 21  1  0  0  0  0
 30  5  1  0  0  0  0
 31 30  2  0  0  0  0
 32 33  1  0  0  0  0
 32 30  1  0  0  0  0
 33 34  1  0  0  0  0
 35 33  2  0  0  0  0
 36 35  1  0  0  0  0
 37 36  2  0  0  0  0
 38 37  1  0  0  0  0
 39 38  1  0  0  0  0
 40 38  2  0  0  0  0
 40 41  1  0  0  0  0
 41 42  2  0  0  0  0
 42 36  1  0  0  0  0
 42 43  1  0  0  0  0
 43 32  2  0  0  0  0
M  END
>  <minimizedAffinity>
-5.37500954

>  <minimizedRMSD>
3.63239408

$$$$
