
 OpenBabel03272508573D

 43 47  0  0  1  0  0  0  0  0999 V2000
   39.1230   31.4620   43.3060 C   0  0  0  0  0  0  0  0  0  0  0  0
   40.1230   30.5400   43.4450 C   0  0  0  0  0  0  0  0  0  0  0  0
   40.8550   30.2060   42.3150 C   0  0  0  0  0  0  0  0  0  0  0  0
   40.5190   30.8320   41.1240 C   0  0  0  0  0  0  0  0  0  0  0  0
   39.5090   31.7660   40.9800 C   0  0  0  0  0  0  0  0  0  0  0  0
   38.8370   32.0470   42.1100 N   0  0  0  0  0  0  0  0  0  0  0  0
   40.3550   30.0710   44.3910 H   0  0  0  0  0  0  0  0  0  0  0  0
   41.6640   29.4890   42.3200 H   0  0  0  0  0  0  0  0  0  0  0  0
   41.0860   30.5780   40.2380 H   0  0  0  0  0  0  0  0  0  0  0  0
   38.3320   31.8740   44.4870 C   0  0  0  0  0  0  0  0  0  0  0  0
   37.2480   32.4550   44.3940 O   0  0  0  0  0  0  0  0  0  0  0  0
   38.9130   31.5500   45.7860 N   0  0  0  0  0  0  0  0  0  0  0  0
   39.8810   31.2380   45.9500 H   0  0  0  0  0  0  0  0  0  0  0  0
   38.4160   31.0630   48.1750 C   0  0  2  0  0  0  0  0  0  0  0  0
   38.6840   32.5220   48.0840 C   0  0  0  0  0  0  0  0  0  0  0  0
   38.0510   31.6800   46.9410 C   0  0  1  0  0  0  0  0  0  0  0  0
   39.3540   30.4620   48.2580 H   0  0  0  0  0  0  0  0  0  0  0  0
   39.7110   32.8850   47.9390 H   0  0  0  0  0  0  0  0  0  0  0  0
   38.0220   33.2830   48.5220 H   0  0  0  0  0  0  0  0  0  0  0  0
   36.9680   31.9240   46.7460 H   0  0  0  0  0  0  0  0  0  0  0  0
   35.0650   30.2350   49.5260 C   0  0  0  0  0  0  0  0  0  0  0  0
   35.4030   29.5560   50.7390 C   0  0  0  0  0  0  0  0  0  0  0  0
   36.7870   29.4040   51.0740 C   0  0  0  0  0  0  0  0  0  0  0  0
   37.7440   29.9090   50.2270 N   0  0  0  0  0  0  0  0  0  0  0  0
   37.3430   30.5410   49.0920 C   0  0  0  0  0  0  0  0  0  0  0  0
   36.0270   30.7230   48.7080 N   0  0  0  0  0  0  0  0  0  0  0  0
   34.0100   30.3290   49.3080 H   0  0  0  0  0  0  0  0  0  0  0  0
   34.6550   29.1640   51.3960 H   0  0  0  0  0  0  0  0  0  0  0  0
   37.0830   28.9070   51.9650 H   0  0  0  0  0  0  0  0  0  0  0  0
   39.2420   32.3540   39.6890 C   0  0  0  0  0  0  0  0  0  0  0  0
   38.6890   33.4800   39.6600 O   0  0  0  0  0  0  0  0  0  0  0  0
   39.5610   31.7550   38.4180 C   0  0  0  0  0  0  0  0  0  0  0  0
   40.6250   32.2850   37.6980 C   0  0  0  0  0  0  0  0  0  0  0  0
   41.1790   33.1330   38.1130 H   0  0  0  0  0  0  0  0  0  0  0  0
   41.0760   31.8430   36.4660 C   0  0  0  0  0  3  0  0  0  0  0  0
   40.4160   30.7780   35.8930 C   0  0  0  0  0  0  0  0  0  0  0  0
   40.8450   30.3380   34.6990 N   0  0  0  0  0  0  0  0  0  0  0  0
   40.2000   29.2850   34.1240 C   0  0  0  0  0  0  0  0  0  0  0  0
   40.5870   28.9670   33.1570 H   0  0  0  0  0  0  0  0  0  0  0  0
   39.1150   28.6640   34.7480 C   0  0  0  0  0  3  0  0  0  0  0  0
   38.6910   29.1450   35.9930 C   0  0  0  0  0  3  0  0  0  0  0  0
   39.3550   30.2280   36.5820 C   0  0  0  0  0  0  0  0  0  0  0  0
   38.9120   30.6750   37.8090 C   0  0  0  0  0  3  0  0  0  0  0  0
  1  2  1  0  0  0  0
  1 10  1  0  0  0  0
  2  7  1  0  0  0  0
  3  8  1  0  0  0  0
  3  2  2  0  0  0  0
  4  3  1  0  0  0  0
  5  4  2  0  0  0  0
  5  6  1  0  0  0  0
  6  1  2  0  0  0  0
  9  4  1  0  0  0  0
 10 12  1  0  0  0  0
 11 10  2  0  0  0  0
 12 13  1  0  0  0  0
 12 16  1  0  0  0  0
 14 17  1  6  0  0  0
 14 25  1  0  0  0  0
 15 14  1  0  0  0  0
 15 19  1  0  0  0  0
 16 20  1  6  0  0  0
 16 15  1  0  0  0  0
 16 14  1  0  0  0  0
 18 15  1  0  0  0  0
 21 22  1  0  0  0  0
 22 23  2  0  0  0  0
 22 28  1  0  0  0  0
 23 29  1  0  0  0  0
 24 23  1  0  0  0  0
 25 24  2  0  0  0  0
 26 25  1  0  0  0  0
 26 21  2  0  0  0  0
 27 21  1  0  0  0  0
 30  5  1  0  0  0  0
 31 30  2  0  0  0  0
 32 30  1  0  0  0  0
 33 34  1  0  0  0  0
 33 32  2  0  0  0  0
 35 33  1  0  0  0  0
 36 35  2  0  0  0  0
 36 42  1  0  0  0  0
 37 36  1  0  0  0  0
 38 37  2  0  0  0  0
 38 40  1  0  0  0  0
 39 38  1  0  0  0  0
 40 41  2  0  0  0  0
 41 42  1  0  0  0  0
 42 43  2  0  0  0  0
 43 32  1  0  0  0  0
M  END
>  <minimizedAffinity>
-4.92530537

>  <minimizedRMSD>
0.346532255

$$$$
