
 OpenBabel03272507303D

 32 35  0  0  0  0  0  0  0  0999 V2000
   35.9290   29.2540   49.7920 C   0  0  0  0  0  0  0  0  0  0  0  0
   34.9500   29.7020   50.6430 C   0  0  0  0  0  0  0  0  0  0  0  0
   33.7360   29.1610   50.1910 C   0  0  0  0  0  0  0  0  0  0  0  0
   34.0760   28.4060   49.0730 C   0  0  0  0  0  0  0  0  0  0  0  0
   35.3530   28.5050   48.9010 O   0  0  0  0  0  0  0  0  0  0  0  0
   34.9250   30.3430   51.5270 H   0  0  0  0  0  0  0  0  0  0  0  0
   32.7540   29.2800   50.5890 H   0  0  0  0  0  0  0  0  0  0  0  0
   37.3150   29.6260   49.9710 C   0  0  0  0  0  0  0  0  0  0  0  0
   37.9740   29.0670   50.8750 O   0  0  0  0  0  0  0  0  0  0  0  0
   37.8520   30.6350   49.0800 C   0  0  0  0  0  0  0  0  0  0  0  0
   38.1840   31.8650   49.6650 C   0  0  0  0  0  0  0  0  0  0  0  0
   38.7060   32.8580   48.8240 C   0  0  0  0  0  0  0  0  0  0  0  0
   38.8570   32.5650   47.4910 N   0  0  0  0  0  0  0  0  0  0  0  0
   38.5240   31.3750   46.9800 C   0  0  0  0  0  0  0  0  0  0  0  0
   38.0260   30.4160   47.7630 N   0  0  0  0  0  0  0  0  0  0  0  0
   38.0420   32.0280   50.7160 H   0  0  0  0  0  0  0  0  0  0  0  0
   38.9590   33.7940   49.2700 H   0  0  0  0  0  0  0  0  0  0  0  0
   38.6980   31.2950   45.9160 H   0  0  0  0  0  0  0  0  0  0  0  0
   33.1060   27.6540   48.2710 C   0  0  0  0  0  0  0  0  0  0  0  0
   31.8690   27.6960   48.5660 O   0  0  0  0  0  0  0  0  0  0  0  0
   33.4740   26.8390   47.1300 C   0  0  0  0  0  0  0  0  0  0  0  0
   33.2340   27.3840   45.8630 C   0  0  0  0  0  0  0  0  0  0  0  0
   32.7950   28.3660   45.6820 H   0  0  0  0  0  0  0  0  0  0  0  0
   33.5680   26.6420   44.7230 C   0  0  0  0  0  3  0  0  0  0  0  0
   34.1300   25.3880   44.8430 C   0  0  0  0  0  0  0  0  0  0  0  0
   34.4310   24.7200   43.7160 N   0  0  0  0  0  0  0  0  0  0  0  0
   34.9870   23.4750   43.7270 C   0  0  0  0  0  0  0  0  0  0  0  0
   35.2370   22.9210   42.8380 H   0  0  0  0  0  0  0  0  0  0  0  0
   35.2330   22.9190   44.9550 C   0  0  0  0  0  3  0  0  0  0  0  0
   34.9280   23.5930   46.1260 C   0  0  0  0  0  3  0  0  0  0  0  0
   34.3660   24.8520   46.1050 C   0  0  0  0  0  0  0  0  0  0  0  0
   34.0360   25.5820   47.2180 C   0  0  0  0  0  3  0  0  0  0  0  0
  1  8  1  0  0  0  0
  1  2  2  0  0  0  0
  2  6  1  0  0  0  0
  3  7  1  0  0  0  0
  3  2  1  0  0  0  0
  4  3  2  0  0  0  0
  5  4  1  0  0  0  0
  5  1  1  0  0  0  0
  8  9  2  0  0  0  0
 10 11  1  0  0  0  0
 10  8  1  0  0  0  0
 11 16  1  0  0  0  0
 12 17  1  0  0  0  0
 12 11  2  0  0  0  0
 13 12  1  0  0  0  0
 14 13  2  0  0  0  0
 14 15  1  0  0  0  0
 15 10  2  0  0  0  0
 18 14  1  0  0  0  0
 19 20  2  0  0  0  0
 19  4  1  0  0  0  0
 21 32  1  0  0  0  0
 21 19  1  0  0  0  0
 22 21  2  0  0  0  0
 23 22  1  0  0  0  0
 24 25  2  0  0  0  0
 24 22  1  0  0  0  0
 25 31  1  0  0  0  0
 26 27  2  0  0  0  0
 26 25  1  0  0  0  0
 27 29  1  0  0  0  0
 28 27  1  0  0  0  0
 29 30  2  0  0  0  0
 31 30  1  0  0  0  0
 31 32  2  0  0  0  0
M  END
>  <minimizedAffinity>
-5.60184908

>  <minimizedRMSD>
1.62444854

$$$$
