
 OpenBabel03272507313D

 32 35  0  0  0  0  0  0  0  0999 V2000
   35.8830   29.2480   49.7500 C   0  0  0  0  0  0  0  0  0  0  0  0
   34.8240   29.7610   50.4580 C   0  0  0  0  0  0  0  0  0  0  0  0
   33.6640   29.1440   49.9650 C   0  0  0  0  0  0  0  0  0  0  0  0
   34.1150   28.2810   48.9710 C   0  0  0  0  0  0  0  0  0  0  0  0
   35.4000   28.3930   48.9010 O   0  0  0  0  0  0  0  0  0  0  0  0
   34.7110   30.4930   51.2620 H   0  0  0  0  0  0  0  0  0  0  0  0
   32.6490   29.2800   50.2600 H   0  0  0  0  0  0  0  0  0  0  0  0
   37.2410   29.6730   50.0080 C   0  0  0  0  0  0  0  0  0  0  0  0
   37.8500   29.1790   50.9830 O   0  0  0  0  0  0  0  0  0  0  0  0
   37.8110   30.6550   49.1080 C   0  0  0  0  0  0  0  0  0  0  0  0
   38.1540   31.8900   49.6760 C   0  0  0  0  0  0  0  0  0  0  0  0
   38.7080   32.8590   48.8260 C   0  0  0  0  0  0  0  0  0  0  0  0
   38.8770   32.5380   47.5020 N   0  0  0  0  0  0  0  0  0  0  0  0
   38.5330   31.3440   47.0070 C   0  0  0  0  0  0  0  0  0  0  0  0
   38.0050   30.4090   47.7990 N   0  0  0  0  0  0  0  0  0  0  0  0
   37.9960   32.0770   50.7210 H   0  0  0  0  0  0  0  0  0  0  0  0
   38.9680   33.7990   49.2580 H   0  0  0  0  0  0  0  0  0  0  0  0
   38.7250   31.2410   45.9480 H   0  0  0  0  0  0  0  0  0  0  0  0
   33.2320   27.4220   48.1750 C   0  0  0  0  0  0  0  0  0  0  0  0
   32.0000   27.3280   48.4740 O   0  0  0  0  0  0  0  0  0  0  0  0
   33.6860   26.6470   47.0370 C   0  0  0  0  0  0  0  0  0  0  0  0
   33.6760   27.2900   45.7930 C   0  0  0  0  0  0  0  0  0  0  0  0
   33.3540   28.3190   45.6280 H   0  0  0  0  0  0  0  0  0  0  0  0
   34.1030   26.5910   44.6560 C   0  0  0  0  0  3  0  0  0  0  0  0
   34.5300   25.2850   44.7580 C   0  0  0  0  0  0  0  0  0  0  0  0
   34.9270   24.6600   43.6340 N   0  0  0  0  0  0  0  0  0  0  0  0
   35.3670   23.3700   43.6290 C   0  0  0  0  0  0  0  0  0  0  0  0
   35.6900   22.8490   42.7430 H   0  0  0  0  0  0  0  0  0  0  0  0
   35.3870   22.7170   44.8330 C   0  0  0  0  0  3  0  0  0  0  0  0
   34.9800   23.3450   45.9990 C   0  0  0  0  0  3  0  0  0  0  0  0
   34.5370   24.6510   45.9960 C   0  0  0  0  0  0  0  0  0  0  0  0
   34.1190   25.3390   47.1060 C   0  0  0  0  0  3  0  0  0  0  0  0
  1  8  1  0  0  0  0
  1  2  2  0  0  0  0
  2  6  1  0  0  0  0
  3  7  1  0  0  0  0
  3  2  1  0  0  0  0
  4  3  2  0  0  0  0
  5  4  1  0  0  0  0
  5  1  1  0  0  0  0
  8  9  2  0  0  0  0
 10 11  1  0  0  0  0
 10  8  1  0  0  0  0
 11 16  1  0  0  0  0
 12 17  1  0  0  0  0
 12 11  2  0  0  0  0
 13 12  1  0  0  0  0
 14 13  2  0  0  0  0
 14 15  1  0  0  0  0
 15 10  2  0  0  0  0
 18 14  1  0  0  0  0
 19 20  2  0  0  0  0
 19  4  1  0  0  0  0
 21 32  1  0  0  0  0
 21 19  1  0  0  0  0
 22 21  2  0  0  0  0
 23 22  1  0  0  0  0
 24 25  2  0  0  0  0
 24 22  1  0  0  0  0
 25 31  1  0  0  0  0
 26 25  1  0  0  0  0
 27 26  2  0  0  0  0
 27 29  1  0  0  0  0
 28 27  1  0  0  0  0
 29 30  2  0  0  0  0
 31 30  1  0  0  0  0
 31 32  2  0  0  0  0
M  END
>  <minimizedAffinity>
-5.62423038

>  <minimizedRMSD>
1.23538721

$$$$
