
 OpenBabel03272508573D

 43 47  0  0  1  0  0  0  0  0999 V2000
   39.1380   31.3840   43.3580 C   0  0  0  0  0  0  0  0  0  0  0  0
   40.1460   30.4760   43.5240 C   0  0  0  0  0  0  0  0  0  0  0  0
   40.8940   30.1310   42.4090 C   0  0  0  0  0  0  0  0  0  0  0  0
   40.5660   30.7320   41.2030 C   0  0  0  0  0  0  0  0  0  0  0  0
   39.5460   31.6510   41.0310 C   0  0  0  0  0  0  0  0  0  0  0  0
   38.8590   31.9440   42.1480 N   0  0  0  0  0  0  0  0  0  0  0  0
   40.3730   30.0260   44.4810 H   0  0  0  0  0  0  0  0  0  0  0  0
   41.7120   29.4230   42.4360 H   0  0  0  0  0  0  0  0  0  0  0  0
   41.1450   30.4680   40.3290 H   0  0  0  0  0  0  0  0  0  0  0  0
   38.3290   31.8070   44.5230 C   0  0  0  0  0  0  0  0  0  0  0  0
   37.2330   32.3610   44.4070 O   0  0  0  0  0  0  0  0  0  0  0  0
   38.9060   31.5300   45.8330 N   0  0  0  0  0  0  0  0  0  0  0  0
   39.8800   31.2440   46.0120 H   0  0  0  0  0  0  0  0  0  0  0  0
   38.3950   31.0790   48.2260 C   0  0  2  0  0  0  0  0  0  0  0  0
   38.6460   32.5390   48.1120 C   0  0  0  0  0  0  0  0  0  0  0  0
   38.0330   31.6690   46.9790 C   0  0  1  0  0  0  0  0  0  0  0  0
   39.3390   30.4910   48.3270 H   0  0  0  0  0  0  0  0  0  0  0  0
   39.6710   32.9110   47.9700 H   0  0  0  0  0  0  0  0  0  0  0  0
   37.9710   33.2990   48.5310 H   0  0  0  0  0  0  0  0  0  0  0  0
   36.9500   31.8970   46.7700 H   0  0  0  0  0  0  0  0  0  0  0  0
   35.0430   30.2140   49.5530 C   0  0  0  0  0  0  0  0  0  0  0  0
   35.3790   29.5800   50.7910 C   0  0  0  0  0  0  0  0  0  0  0  0
   36.7610   29.4700   51.1510 C   0  0  0  0  0  0  0  0  0  0  0  0
   37.7190   29.9720   50.3020 N   0  0  0  0  0  0  0  0  0  0  0  0
   37.3200   30.5600   49.1430 C   0  0  0  0  0  0  0  0  0  0  0  0
   36.0060   30.6990   48.7350 N   0  0  0  0  0  0  0  0  0  0  0  0
   33.9900   30.2770   49.3180 H   0  0  0  0  0  0  0  0  0  0  0  0
   34.6300   29.1910   51.4490 H   0  0  0  0  0  0  0  0  0  0  0  0
   37.0550   29.0070   52.0600 H   0  0  0  0  0  0  0  0  0  0  0  0
   39.2870   32.2130   39.7270 C   0  0  0  0  0  0  0  0  0  0  0  0
   38.6930   33.3160   39.6710 O   0  0  0  0  0  0  0  0  0  0  0  0
   39.6590   31.6120   38.4720 C   0  0  0  0  0  0  0  0  0  0  0  0
   40.7280   32.1650   37.7760 C   0  0  0  0  0  0  0  0  0  0  0  0
   41.2470   33.0320   38.2000 H   0  0  0  0  0  0  0  0  0  0  0  0
   41.2270   31.7250   36.5630 C   0  0  0  0  0  3  0  0  0  0  0  0
   40.6130   30.6360   35.9820 C   0  0  0  0  0  0  0  0  0  0  0  0
   41.0870   30.1970   34.8050 N   0  0  0  0  0  0  0  0  0  0  0  0
   40.4900   29.1220   34.2220 C   0  0  0  0  0  0  0  0  0  0  0  0
   40.9110   28.8060   33.2690 H   0  0  0  0  0  0  0  0  0  0  0  0
   39.4050   28.4760   34.8210 C   0  0  0  0  0  3  0  0  0  0  0  0
   38.9320   28.9560   36.0480 C   0  0  0  0  0  3  0  0  0  0  0  0
   39.5490   30.0620   36.6450 C   0  0  0  0  0  0  0  0  0  0  0  0
   39.0580   30.5080   37.8540 C   0  0  0  0  0  3  0  0  0  0  0  0
  1  2  1  0  0  0  0
  1 10  1  0  0  0  0
  2  7  1  0  0  0  0
  3  8  1  0  0  0  0
  3  2  2  0  0  0  0
  4  3  1  0  0  0  0
  5  4  2  0  0  0  0
  5  6  1  0  0  0  0
  6  1  2  0  0  0  0
  9  4  1  0  0  0  0
 10 12  1  0  0  0  0
 11 10  2  0  0  0  0
 12 13  1  0  0  0  0
 12 16  1  0  0  0  0
 14 17  1  6  0  0  0
 14 25  1  0  0  0  0
 15 14  1  0  0  0  0
 15 19  1  0  0  0  0
 16 20  1  6  0  0  0
 16 15  1  0  0  0  0
 16 14  1  0  0  0  0
 18 15  1  0  0  0  0
 21 22  1  0  0  0  0
 22 23  2  0  0  0  0
 22 28  1  0  0  0  0
 23 29  1  0  0  0  0
 24 23  1  0  0  0  0
 25 24  2  0  0  0  0
 26 25  1  0  0  0  0
 26 21  2  0  0  0  0
 27 21  1  0  0  0  0
 30  5  1  0  0  0  0
 31 30  2  0  0  0  0
 32 30  1  0  0  0  0
 33 34  1  0  0  0  0
 33 32  2  0  0  0  0
 35 33  1  0  0  0  0
 36 35  2  0  0  0  0
 36 42  1  0  0  0  0
 37 36  1  0  0  0  0
 38 37  2  0  0  0  0
 38 40  1  0  0  0  0
 39 38  1  0  0  0  0
 40 41  2  0  0  0  0
 41 42  1  0  0  0  0
 42 43  2  0  0  0  0
 43 32  1  0  0  0  0
M  END
>  <minimizedAffinity>
-4.93197536

>  <minimizedRMSD>
0.572666407

$$$$
