
 OpenBabel03272508583D

 43 47  0  0  1  0  0  0  0  0999 V2000
   39.1470   31.4230   43.3360 C   0  0  0  0  0  0  0  0  0  0  0  0
   40.1450   30.5000   43.4880 C   0  0  0  0  0  0  0  0  0  0  0  0
   40.8810   30.1550   42.3640 C   0  0  0  0  0  0  0  0  0  0  0  0
   40.5520   30.7700   41.1660 C   0  0  0  0  0  0  0  0  0  0  0  0
   39.5440   31.7040   41.0090 C   0  0  0  0  0  0  0  0  0  0  0  0
   38.8680   31.9960   42.1330 N   0  0  0  0  0  0  0  0  0  0  0  0
   40.3730   30.0390   44.4390 H   0  0  0  0  0  0  0  0  0  0  0  0
   41.6900   29.4370   42.3800 H   0  0  0  0  0  0  0  0  0  0  0  0
   41.1230   30.5070   40.2850 H   0  0  0  0  0  0  0  0  0  0  0  0
   38.3520   31.8460   44.5100 C   0  0  0  0  0  0  0  0  0  0  0  0
   37.2780   32.4440   44.4070 O   0  0  0  0  0  0  0  0  0  0  0  0
   38.9150   31.5130   45.8130 N   0  0  0  0  0  0  0  0  0  0  0  0
   39.8760   31.1860   45.9870 H   0  0  0  0  0  0  0  0  0  0  0  0
   38.4060   31.0630   48.2070 C   0  0  2  0  0  0  0  0  0  0  0  0
   38.6640   32.5230   48.0930 C   0  0  0  0  0  0  0  0  0  0  0  0
   38.0450   31.6560   46.9610 C   0  0  1  0  0  0  0  0  0  0  0  0
   39.3480   30.4710   48.3070 H   0  0  0  0  0  0  0  0  0  0  0  0
   39.6890   32.8900   47.9490 H   0  0  0  0  0  0  0  0  0  0  0  0
   37.9920   33.2850   48.5140 H   0  0  0  0  0  0  0  0  0  0  0  0
   36.9620   31.8890   46.7540 H   0  0  0  0  0  0  0  0  0  0  0  0
   35.0530   30.2200   49.5440 C   0  0  0  0  0  0  0  0  0  0  0  0
   35.3880   29.5780   50.7780 C   0  0  0  0  0  0  0  0  0  0  0  0
   36.7700   29.4540   51.1310 C   0  0  0  0  0  0  0  0  0  0  0  0
   37.7290   29.9520   50.2810 N   0  0  0  0  0  0  0  0  0  0  0  0
   37.3310   30.5490   49.1260 C   0  0  0  0  0  0  0  0  0  0  0  0
   36.0160   30.7010   48.7240 N   0  0  0  0  0  0  0  0  0  0  0  0
   33.9990   30.2930   49.3130 H   0  0  0  0  0  0  0  0  0  0  0  0
   34.6380   29.1910   51.4360 H   0  0  0  0  0  0  0  0  0  0  0  0
   37.0640   28.9850   52.0370 H   0  0  0  0  0  0  0  0  0  0  0  0
   39.2830   32.2810   39.7110 C   0  0  0  0  0  0  0  0  0  0  0  0
   38.6320   33.3520   39.6650 O   0  0  0  0  0  0  0  0  0  0  0  0
   39.7130   31.7270   38.4520 C   0  0  0  0  0  0  0  0  0  0  0  0
   38.9090   30.7600   37.8590 C   0  0  0  0  0  0  0  0  0  0  0  0
   37.9870   30.4520   38.3630 H   0  0  0  0  0  0  0  0  0  0  0  0
   39.1560   30.1210   36.6570 C   0  0  0  0  0  3  0  0  0  0  0  0
   40.3040   30.4690   35.9770 C   0  0  0  0  0  0  0  0  0  0  0  0
   40.5560   29.8560   34.8080 N   0  0  0  0  0  0  0  0  0  0  0  0
   41.6860   30.1920   34.1280 C   0  0  0  0  0  0  0  0  0  0  0  0
   41.8440   29.6680   33.1860 H   0  0  0  0  0  0  0  0  0  0  0  0
   42.5760   31.1510   34.6180 C   0  0  0  0  0  3  0  0  0  0  0  0
   42.2870   31.7730   35.8390 C   0  0  0  0  0  3  0  0  0  0  0  0
   41.1230   31.4250   36.5380 C   0  0  0  0  0  0  0  0  0  0  0  0
   40.8690   32.0580   37.7370 C   0  0  0  0  0  3  0  0  0  0  0  0
  1  2  1  0  0  0  0
  1 10  1  0  0  0  0
  2  7  1  0  0  0  0
  3  8  1  0  0  0  0
  3  2  2  0  0  0  0
  4  3  1  0  0  0  0
  5  4  2  0  0  0  0
  5  6  1  0  0  0  0
  6  1  2  0  0  0  0
  9  4  1  0  0  0  0
 10 12  1  0  0  0  0
 11 10  2  0  0  0  0
 12 13  1  0  0  0  0
 12 16  1  0  0  0  0
 14 17  1  6  0  0  0
 14 25  1  0  0  0  0
 15 14  1  0  0  0  0
 15 19  1  0  0  0  0
 16 20  1  6  0  0  0
 16 15  1  0  0  0  0
 16 14  1  0  0  0  0
 18 15  1  0  0  0  0
 21 22  1  0  0  0  0
 22 23  2  0  0  0  0
 22 28  1  0  0  0  0
 23 29  1  0  0  0  0
 24 23  1  0  0  0  0
 25 24  2  0  0  0  0
 26 25  1  0  0  0  0
 26 21  2  0  0  0  0
 27 21  1  0  0  0  0
 30  5  1  0  0  0  0
 31 30  2  0  0  0  0
 32 30  1  0  0  0  0
 33 34  1  0  0  0  0
 33 32  1  0  0  0  0
 35 33  2  0  0  0  0
 36 42  1  0  0  0  0
 36 35  1  0  0  0  0
 37 36  2  0  0  0  0
 38 40  2  0  0  0  0
 38 37  1  0  0  0  0
 39 38  1  0  0  0  0
 40 41  1  0  0  0  0
 41 42  2  0  0  0  0
 42 43  1  0  0  0  0
 43 32  2  0  0  0  0
M  END
>  <minimizedAffinity>
-4.97038937

>  <minimizedRMSD>
0.870558679

$$$$
