
 OpenBabel03272507313D

 32 35  0  0  0  0  0  0  0  0999 V2000
   33.5270   28.0610   48.8020 C   0  0  0  0  0  0  0  0  0  0  0  0
   32.1660   27.8890   48.8460 C   0  0  0  0  0  0  0  0  0  0  0  0
   31.8620   26.8140   47.9960 C   0  0  0  0  0  0  0  0  0  0  0  0
   33.0900   26.4030   47.4870 C   0  0  0  0  0  0  0  0  0  0  0  0
   34.0040   27.1640   47.9920 O   0  0  0  0  0  0  0  0  0  0  0  0
   31.3390   28.3790   49.3650 H   0  0  0  0  0  0  0  0  0  0  0  0
   30.9150   26.3820   47.7660 H   0  0  0  0  0  0  0  0  0  0  0  0
   34.1830   29.0950   49.5710 C   0  0  0  0  0  0  0  0  0  0  0  0
   33.6500   29.4830   50.6340 O   0  0  0  0  0  0  0  0  0  0  0  0
   35.4300   29.6200   49.0510 C   0  0  0  0  0  0  0  0  0  0  0  0
   36.5400   29.5390   49.9030 C   0  0  0  0  0  0  0  0  0  0  0  0
   37.7590   30.0390   49.4240 C   0  0  0  0  0  0  0  0  0  0  0  0
   37.7870   30.5740   48.1590 N   0  0  0  0  0  0  0  0  0  0  0  0
   36.6990   30.6290   47.3840 C   0  0  0  0  0  0  0  0  0  0  0  0
   35.5300   30.1580   47.8210 N   0  0  0  0  0  0  0  0  0  0  0  0
   36.4500   29.1070   50.8820 H   0  0  0  0  0  0  0  0  0  0  0  0
   38.6040   29.9780   50.0720 H   0  0  0  0  0  0  0  0  0  0  0  0
   36.8770   31.0780   46.4160 H   0  0  0  0  0  0  0  0  0  0  0  0
   33.2520   25.2930   46.5420 C   0  0  0  0  0  0  0  0  0  0  0  0
   32.4190   25.1430   45.5920 O   0  0  0  0  0  0  0  0  0  0  0  0
   34.3290   24.3270   46.6230 C   0  0  0  0  0  0  0  0  0  0  0  0
   34.3040   23.4450   47.7100 C   0  0  0  0  0  0  0  0  0  0  0  0
   33.5400   23.4370   48.4880 H   0  0  0  0  0  0  0  0  0  0  0  0
   35.3190   22.4890   47.8410 C   0  0  0  0  0  3  0  0  0  0  0  0
   36.3340   22.4140   46.9100 C   0  0  0  0  0  0  0  0  0  0  0  0
   37.2840   21.4780   47.0850 N   0  0  0  0  0  0  0  0  0  0  0  0
   38.3280   21.3230   46.2210 C   0  0  0  0  0  0  0  0  0  0  0  0
   39.1000   20.5810   46.3410 H   0  0  0  0  0  0  0  0  0  0  0  0
   38.3750   22.1730   45.1480 C   0  0  0  0  0  3  0  0  0  0  0  0
   37.4060   23.1430   44.9540 C   0  0  0  0  0  3  0  0  0  0  0  0
   36.3530   23.2920   45.8330 C   0  0  0  0  0  0  0  0  0  0  0  0
   35.3570   24.2270   45.7080 C   0  0  0  0  0  3  0  0  0  0  0  0
  1  2  2  0  0  0  0
  1  8  1  0  0  0  0
  2  6  1  0  0  0  0
  3  2  1  0  0  0  0
  4  5  1  0  0  0  0
  4  3  2  0  0  0  0
  5  1  1  0  0  0  0
  7  3  1  0  0  0  0
  8  9  2  0  0  0  0
 10  8  1  0  0  0  0
 10 11  1  0  0  0  0
 11 16  1  0  0  0  0
 12 11  2  0  0  0  0
 12 17  1  0  0  0  0
 13 12  1  0  0  0  0
 14 15  1  0  0  0  0
 14 13  2  0  0  0  0
 15 10  2  0  0  0  0
 18 14  1  0  0  0  0
 19 21  1  0  0  0  0
 19  4  1  0  0  0  0
 20 19  2  0  0  0  0
 21 22  1  0  0  0  0
 22 24  2  0  0  0  0
 22 23  1  0  0  0  0
 25 26  1  0  0  0  0
 25 24  1  0  0  0  0
 27 28  1  0  0  0  0
 27 26  2  0  0  0  0
 29 27  1  0  0  0  0
 30 29  2  0  0  0  0
 30 31  1  0  0  0  0
 31 25  2  0  0  0  0
 32 31  1  0  0  0  0
 32 21  2  0  0  0  0
M  END
>  <minimizedAffinity>
-4.95884371

>  <minimizedRMSD>
3.02115488

$$$$
