
 OpenBabel03262520363D

 45 48  0  0  0  0  0  0  0  0999 V2000
   37.1910   25.4520   32.8120 C   0  0  0  0  0  0  0  0  0  0  0  0
   36.6970   26.7220   33.1480 C   0  0  0  0  0  0  0  0  0  0  0  0
   36.9430   27.2900   34.3810 C   0  0  0  0  0  0  0  0  0  0  0  0
   37.6870   26.5920   35.2980 C   0  0  0  0  0  0  0  0  0  0  0  0
   38.1700   25.3580   34.9770 C   0  0  0  0  0  0  0  0  0  0  0  0
   37.9500   24.7540   33.7620 C   0  0  0  0  0  0  0  0  0  0  0  0
   36.5260   28.2720   34.5570 H   0  0  0  0  0  0  0  0  0  0  0  0
   37.8820   27.0340   36.2650 H   0  0  0  0  0  0  0  0  0  0  0  0
   38.7590   24.7850   35.6780 H   0  0  0  0  0  0  0  0  0  0  0  0
   38.3460   23.7640   33.5280 H   0  0  0  0  0  0  0  0  0  0  0  0
   36.9280   24.6810   31.2700 S   0  0  0  0  0  0  0  0  0  0  0  0
   35.5530   24.9180   30.7780 O   0  0  0  0  0  0  0  0  0  0  0  0
   37.9690   25.2330   30.2840 O   0  0  0  0  0  0  0  0  0  0  0  0
   37.1540   22.9540   31.3980 C   0  0  0  0  0  0  0  0  0  0  0  0
   38.3430   22.2910   31.1750 C   0  0  0  0  0  0  0  0  0  0  0  0
   39.1920   22.8900   30.9010 H   0  0  0  0  0  0  0  0  0  0  0  0
   38.3730   20.9070   31.3150 C   0  0  0  0  0  3  0  0  0  0  0  0
   37.2520   20.1720   31.6710 C   0  0  0  0  0  0  0  0  0  0  0  0
   37.2960   18.8360   31.8030 N   0  0  0  0  0  0  0  0  0  0  0  0
   36.1970   18.1330   32.1490 C   0  0  0  0  0  0  0  0  0  0  0  0
   36.1590   17.0590   32.2730 H   0  0  0  0  0  0  0  0  0  0  0  0
   34.9740   18.7600   32.3850 C   0  0  0  0  0  3  0  0  0  0  0  0
   34.9100   20.1280   32.2550 C   0  0  0  0  0  3  0  0  0  0  0  0
   36.0510   20.8130   31.9000 C   0  0  0  0  0  0  0  0  0  0  0  0
   36.0520   22.1720   31.7540 C   0  0  0  0  0  3  0  0  0  0  0  0
   35.9700   27.2880   32.1170 O   0  0  0  0  0  0  0  0  0  0  0  0
   37.9220   28.8760   31.3430 O   0  0  0  0  0  0  0  0  0  0  0  0
   36.5170   28.4000   30.9880 P   0  0  1  0  0  0  0  0  0  0  0  0
   36.4710   27.7290   29.4220 O   0  0  0  0  0  0  0  0  0  0  0  0
   36.5260   26.7440   29.4870 H   0  0  0  0  0  0  0  0  0  0  0  0
   35.5610   29.8090   30.9840 O   0  0  0  0  0  0  0  0  0  0  0  0
   36.1360   30.7340   31.8710 C   0  0  0  0  0  0  0  0  0  0  0  0
   37.1260   30.3160   32.2120 H   0  0  0  0  0  0  0  0  0  0  0  0
   36.3770   31.6410   31.3160 H   0  0  0  0  0  0  0  0  0  0  0  0
   35.5870   30.6580   34.2590 C   0  0  0  0  0  3  0  0  0  0  0  0
   35.2720   31.0030   33.0430 C   0  0  0  0  0  3  0  0  0  0  0  0
   34.0400   32.1020   37.2560 C   0  0  0  0  0  0  0  0  0  0  0  0
   32.7810   31.4610   37.2750 C   0  0  0  0  0  0  0  0  0  0  0  0
   32.4960   30.5460   36.2510 C   0  0  0  0  0  0  0  0  0  0  0  0
   33.4860   30.3660   35.3240 N   0  0  0  0  0  0  0  0  0  0  0  0
   34.6530   30.9780   35.3330 C   0  0  0  0  0  0  0  0  0  0  0  0
   34.9100   31.8420   36.3080 N   0  0  0  0  0  0  0  0  0  0  0  0
   34.2260   32.8000   38.0600 H   0  0  0  0  0  0  0  0  0  0  0  0
   32.0300   31.6390   38.0320 H   0  0  0  0  0  0  0  0  0  0  0  0
   31.5450   30.0060   36.1910 H   0  0  0  0  0  0  0  0  0  0  0  0
  1  2  2  0  0  0  0
  1  6  1  0  0  0  0
  2  3  1  0  0  0  0
  3  7  1  0  0  0  0
  3  4  2  0  0  0  0
  4  8  1  0  0  0  0
  5  4  1  0  0  0  0
  5  9  1  0  0  0  0
  6  5  2  0  0  0  0
 10  6  1  0  0  0  0
 11 14  1  0  0  0  0
 11  1  1  0  0  0  0
 12 11  2  0  0  0  0
 13 11  2  0  0  0  0
 14 25  1  0  0  0  0
 15 17  1  0  0  0  0
 15 14  2  0  0  0  0
 16 15  1  0  0  0  0
 17 18  2  0  0  0  0
 18 19  1  0  0  0  0
 18 24  1  0  0  0  0
 19 20  2  0  0  0  0
 20 21  1  0  0  0  0
 20 22  1  0  0  0  0
 23 22  2  0  0  0  0
 24 23  1  0  0  0  0
 25 24  2  0  0  0  0
 26  2  1  0  0  0  0
 28 27  2  1  0  0  0
 28 26  1  0  0  0  0
 29 30  1  0  0  0  0
 29 28  1  0  0  0  0
 31 28  1  0  0  0  0
 31 32  1  0  0  0  0
 32 33  1  0  0  0  0
 32 36  1  0  0  0  0
 34 32  1  0  0  0  0
 35 41  1  0  0  0  0
 36 35  2  0  0  0  0
 37 38  1  0  0  0  0
 37 43  1  0  0  0  0
 38 44  1  0  0  0  0
 39 38  2  0  0  0  0
 40 41  2  0  0  0  0
 40 39  1  0  0  0  0
 41 42  1  0  0  0  0
 42 37  2  0  0  0  0
 45 39  1  0  0  0  0
M  END
>  <minimizedAffinity>
-6.44401836

$$$$

 OpenBabel03262520363D

 45 48  0  0  0  0  0  0  0  0999 V2000
   37.3630   26.0570   33.0750 C   0  0  0  0  0  0  0  0  0  0  0  0
   36.5860   26.9200   32.2860 C   0  0  0  0  0  0  0  0  0  0  0  0
   35.7430   26.4400   31.3060 C   0  0  0  0  0  0  0  0  0  0  0  0
   35.6650   25.0860   31.1000 C   0  0  0  0  0  0  0  0  0  0  0  0
   36.4170   24.2430   31.8630 C   0  0  0  0  0  0  0  0  0  0  0  0
   37.2700   24.6770   32.8500 C   0  0  0  0  0  0  0  0  0  0  0  0
   35.1800   27.1730   30.7440 H   0  0  0  0  0  0  0  0  0  0  0  0
   35.0050   24.7060   30.3330 H   0  0  0  0  0  0  0  0  0  0  0  0
   36.3770   23.1720   31.7250 H   0  0  0  0  0  0  0  0  0  0  0  0
   37.8630   23.9830   33.4490 H   0  0  0  0  0  0  0  0  0  0  0  0
   38.4400   26.5960   34.3370 S   0  0  0  0  0  0  0  0  0  0  0  0
   39.6710   27.1930   33.7740 O   0  0  0  0  0  0  0  0  0  0  0  0
   37.6800   27.6130   35.2020 O   0  0  0  0  0  0  0  0  0  0  0  0
   38.9160   25.2580   35.3520 C   0  0  0  0  0  0  0  0  0  0  0  0
   38.1340   24.6930   36.3390 C   0  0  0  0  0  0  0  0  0  0  0  0
   37.1570   25.1150   36.4880 H   0  0  0  0  0  0  0  0  0  0  0  0
   38.6470   23.6280   37.0710 C   0  0  0  0  0  3  0  0  0  0  0  0
   39.9160   23.1140   36.8440 C   0  0  0  0  0  0  0  0  0  0  0  0
   40.4000   22.0850   37.5590 N   0  0  0  0  0  0  0  0  0  0  0  0
   41.6360   21.5950   37.3290 C   0  0  0  0  0  0  0  0  0  0  0  0
   42.0880   20.7710   37.8640 H   0  0  0  0  0  0  0  0  0  0  0  0
   42.4620   22.1340   36.3430 C   0  0  0  0  0  3  0  0  0  0  0  0
   41.9840   23.1880   35.6000 C   0  0  0  0  0  3  0  0  0  0  0  0
   40.7170   23.6620   35.8630 C   0  0  0  0  0  0  0  0  0  0  0  0
   40.1860   24.7070   35.1610 C   0  0  0  0  0  3  0  0  0  0  0  0
   36.7800   28.2480   32.6190 O   0  0  0  0  0  0  0  0  0  0  0  0
   35.9270   30.7210   32.3160 O   0  0  0  0  0  0  0  0  0  0  0  0
   35.5970   29.3830   32.9700 P   0  0  1  0  0  0  0  0  0  0  0  0
   34.0660   28.8180   32.4790 O   0  0  0  0  0  0  0  0  0  0  0  0
   34.1790   28.1580   31.7510 H   0  0  0  0  0  0  0  0  0  0  0  0
   35.5240   29.7140   34.6390 O   0  0  0  0  0  0  0  0  0  0  0  0
   34.2300   30.1710   34.9410 C   0  0  0  0  0  0  0  0  0  0  0  0
   33.6090   30.0940   34.0030 H   0  0  0  0  0  0  0  0  0  0  0  0
   33.7760   29.4800   35.6500 H   0  0  0  0  0  0  0  0  0  0  0  0
   34.8220   31.9410   36.5310 C   0  0  0  0  0  3  0  0  0  0  0  0
   34.2280   31.5680   35.4340 C   0  0  0  0  0  3  0  0  0  0  0  0
   33.9540   35.0850   38.2100 C   0  0  0  0  0  0  0  0  0  0  0  0
   34.7340   36.0230   37.4990 C   0  0  0  0  0  0  0  0  0  0  0  0
   35.5430   35.5470   36.4560 C   0  0  0  0  0  0  0  0  0  0  0  0
   35.4890   34.1990   36.2330 N   0  0  0  0  0  0  0  0  0  0  0  0
   34.7500   33.3460   36.9130 C   0  0  0  0  0  0  0  0  0  0  0  0
   33.9890   33.8100   37.8980 N   0  0  0  0  0  0  0  0  0  0  0  0
   33.3430   35.4870   39.0060 H   0  0  0  0  0  0  0  0  0  0  0  0
   34.7420   37.0830   37.7150 H   0  0  0  0  0  0  0  0  0  0  0  0
   36.1780   36.2070   35.8540 H   0  0  0  0  0  0  0  0  0  0  0  0
  1 11  1  0  0  0  0
  2 26  1  0  0  0  0
  2  1  2  0  0  0  0
  3  2  1  0  0  0  0
  4  3  2  0  0  0  0
  4  5  1  0  0  0  0
  5  6  2  0  0  0  0
  6  1  1  0  0  0  0
  6 10  1  0  0  0  0
  7  3  1  0  0  0  0
  8  4  1  0  0  0  0
  9  5  1  0  0  0  0
 11 13  2  0  0  0  0
 11 14  1  0  0  0  0
 12 11  2  0  0  0  0
 14 15  1  0  0  0  0
 15 16  1  0  0  0  0
 15 17  2  0  0  0  0
 18 17  1  0  0  0  0
 18 19  1  0  0  0  0
 20 19  2  0  0  0  0
 20 21  1  0  0  0  0
 22 20  1  0  0  0  0
 23 24  1  0  0  0  0
 23 22  2  0  0  0  0
 24 18  2  0  0  0  0
 25 14  2  0  0  0  0
 25 24  1  0  0  0  0
 26 28  1  0  0  0  0
 28 27  2  6  0  0  0
 28 31  1  0  0  0  0
 29 28  1  0  0  0  0
 30 29  1  0  0  0  0
 31 32  1  0  0  0  0
 32 36  1  0  0  0  0
 32 34  1  0  0  0  0
 33 32  1  0  0  0  0
 35 41  1  0  0  0  0
 36 35  2  0  0  0  0
 37 43  1  0  0  0  0
 38 44  1  0  0  0  0
 38 37  2  0  0  0  0
 39 38  1  0  0  0  0
 40 39  2  0  0  0  0
 40 41  1  0  0  0  0
 41 42  2  0  0  0  0
 42 37  1  0  0  0  0
 45 39  1  0  0  0  0
M  END
>  <minimizedAffinity>
-6.34640741

$$$$

 OpenBabel03262520363D

 45 48  0  0  0  0  0  0  0  0999 V2000
   39.7450   23.2180   36.6720 C   0  0  0  0  0  0  0  0  0  0  0  0
   38.7900   24.1370   36.2090 C   0  0  0  0  0  0  0  0  0  0  0  0
   37.8480   24.6860   37.0530 C   0  0  0  0  0  0  0  0  0  0  0  0
   37.8470   24.3220   38.3760 C   0  0  0  0  0  0  0  0  0  0  0  0
   38.7720   23.4310   38.8310 C   0  0  0  0  0  0  0  0  0  0  0  0
   39.7290   22.8580   38.0270 C   0  0  0  0  0  0  0  0  0  0  0  0
   37.1490   25.3860   36.6150 H   0  0  0  0  0  0  0  0  0  0  0  0
   37.1100   24.7500   39.0400 H   0  0  0  0  0  0  0  0  0  0  0  0
   38.7960   23.1240   39.8670 H   0  0  0  0  0  0  0  0  0  0  0  0
   40.4600   22.1460   38.4140 H   0  0  0  0  0  0  0  0  0  0  0  0
   40.9700   22.4940   35.6630 S   0  0  0  0  0  0  0  0  0  0  0  0
   41.5470   21.2880   36.2980 O   0  0  0  0  0  0  0  0  0  0  0  0
   40.3250   22.1500   34.3120 O   0  0  0  0  0  0  0  0  0  0  0  0
   42.2760   23.6180   35.3790 C   0  0  0  0  0  0  0  0  0  0  0  0
   42.4470   24.3610   34.2290 C   0  0  0  0  0  0  0  0  0  0  0  0
   41.7150   24.2330   33.4520 H   0  0  0  0  0  0  0  0  0  0  0  0
   43.5380   25.2190   34.1420 C   0  0  0  0  0  3  0  0  0  0  0  0
   44.4600   25.3540   35.1710 C   0  0  0  0  0  0  0  0  0  0  0  0
   45.5090   26.1860   35.0750 N   0  0  0  0  0  0  0  0  0  0  0  0
   46.3990   26.3070   36.0820 C   0  0  0  0  0  0  0  0  0  0  0  0
   47.2640   26.9560   36.0730 H   0  0  0  0  0  0  0  0  0  0  0  0
   46.2670   25.5770   37.2630 C   0  0  0  0  0  3  0  0  0  0  0  0
   45.1980   24.7190   37.3800 C   0  0  0  0  0  3  0  0  0  0  0  0
   44.3100   24.6210   36.3310 C   0  0  0  0  0  0  0  0  0  0  0  0
   43.2290   23.7870   36.3860 C   0  0  0  0  0  3  0  0  0  0  0  0
   38.9270   24.3950   34.8580 O   0  0  0  0  0  0  0  0  0  0  0  0
   37.4160   26.4430   34.1820 O   0  0  0  0  0  0  0  0  0  0  0  0
   38.8350   25.8890   34.1020 P   0  0  1  0  0  0  0  0  0  0  0  0
   39.9590   26.9720   34.7880 O   0  0  0  0  0  0  0  0  0  0  0  0
   40.1600   26.6910   35.7140 H   0  0  0  0  0  0  0  0  0  0  0  0
   39.1700   25.7690   32.4370 O   0  0  0  0  0  0  0  0  0  0  0  0
   37.9570   25.5650   31.7580 C   0  0  0  0  0  0  0  0  0  0  0  0
   37.1510   26.1220   32.3160 H   0  0  0  0  0  0  0  0  0  0  0  0
   38.0220   26.0460   30.7820 H   0  0  0  0  0  0  0  0  0  0  0  0
   36.3750   23.6950   31.6570 C   0  0  0  0  0  3  0  0  0  0  0  0
   37.6020   24.1310   31.6570 C   0  0  0  0  0  3  0  0  0  0  0  0
   36.6710   20.1500   30.7610 C   0  0  0  0  0  0  0  0  0  0  0  0
   35.5890   19.5780   31.4650 C   0  0  0  0  0  0  0  0  0  0  0  0
   34.7820   20.4300   32.2330 C   0  0  0  0  0  0  0  0  0  0  0  0
   35.1350   21.7510   32.2200 N   0  0  0  0  0  0  0  0  0  0  0  0
   36.1510   22.2580   31.5520 C   0  0  0  0  0  0  0  0  0  0  0  0
   36.9080   21.4400   30.8280 N   0  0  0  0  0  0  0  0  0  0  0  0
   37.2710   19.4640   30.1790 H   0  0  0  0  0  0  0  0  0  0  0  0
   35.3510   18.5230   31.4430 H   0  0  0  0  0  0  0  0  0  0  0  0
   33.9230   20.0680   32.8090 H   0  0  0  0  0  0  0  0  0  0  0  0
  1  6  1  0  0  0  0
  2  1  2  0  0  0  0
  2  3  1  0  0  0  0
  3  4  2  0  0  0  0
  4  5  1  0  0  0  0
  4  8  1  0  0  0  0
  5  9  1  0  0  0  0
  6 10  1  0  0  0  0
  6  5  2  0  0  0  0
  7  3  1  0  0  0  0
 11 12  2  0  0  0  0
 11  1  1  0  0  0  0
 13 11  2  0  0  0  0
 14 11  1  0  0  0  0
 14 25  1  0  0  0  0
 15 14  2  0  0  0  0
 16 15  1  0  0  0  0
 17 15  1  0  0  0  0
 17 18  2  0  0  0  0
 18 24  1  0  0  0  0
 19 18  1  0  0  0  0
 19 20  2  0  0  0  0
 20 22  1  0  0  0  0
 21 20  1  0  0  0  0
 22 23  2  0  0  0  0
 24 25  2  0  0  0  0
 24 23  1  0  0  0  0
 26  2  1  0  0  0  0
 28 27  2  1  0  0  0
 28 29  1  0  0  0  0
 28 26  1  0  0  0  0
 29 30  1  0  0  0  0
 31 28  1  0  0  0  0
 32 33  1  0  0  0  0
 32 31  1  0  0  0  0
 34 32  1  0  0  0  0
 36 35  2  0  0  0  0
 36 32  1  0  0  0  0
 37 42  2  0  0  0  0
 37 38  1  0  0  0  0
 38 39  2  0  0  0  0
 39 45  1  0  0  0  0
 40 39  1  0  0  0  0
 41 35  1  0  0  0  0
 41 40  2  0  0  0  0
 42 41  1  0  0  0  0
 43 37  1  0  0  0  0
 44 38  1  0  0  0  0
M  END
>  <minimizedAffinity>
-6.32243061

$$$$

 OpenBabel03262520363D

 45 48  0  0  0  0  0  0  0  0999 V2000
   37.6600   27.7000   33.7090 C   0  0  0  0  0  0  0  0  0  0  0  0
   38.8890   27.1860   33.2660 C   0  0  0  0  0  0  0  0  0  0  0  0
   39.8360   26.7140   34.1510 C   0  0  0  0  0  0  0  0  0  0  0  0
   39.5660   26.7490   35.4960 C   0  0  0  0  0  0  0  0  0  0  0  0
   38.3740   27.2460   35.9320 C   0  0  0  0  0  0  0  0  0  0  0  0
   37.4020   27.7270   35.0870 C   0  0  0  0  0  0  0  0  0  0  0  0
   40.7550   26.3350   33.7260 H   0  0  0  0  0  0  0  0  0  0  0  0
   40.3050   26.3790   36.1920 H   0  0  0  0  0  0  0  0  0  0  0  0
   38.1320   27.2870   36.9840 H   0  0  0  0  0  0  0  0  0  0  0  0
   36.4540   28.1210   35.4600 H   0  0  0  0  0  0  0  0  0  0  0  0
   36.4160   28.3020   32.6460 S   0  0  0  0  0  0  0  0  0  0  0  0
   36.9800   29.1930   31.6080 O   0  0  0  0  0  0  0  0  0  0  0  0
   35.7120   27.0930   32.0120 O   0  0  0  0  0  0  0  0  0  0  0  0
   35.2310   29.2190   33.5430 C   0  0  0  0  0  0  0  0  0  0  0  0
   33.8650   29.1410   33.3630 C   0  0  0  0  0  0  0  0  0  0  0  0
   33.5100   28.4610   32.6100 H   0  0  0  0  0  0  0  0  0  0  0  0
   33.0400   29.9350   34.1520 C   0  0  0  0  0  3  0  0  0  0  0  0
   33.5410   30.8000   35.1150 C   0  0  0  0  0  0  0  0  0  0  0  0
   32.7330   31.5600   35.8710 N   0  0  0  0  0  0  0  0  0  0  0  0
   33.2330   32.3990   36.8020 C   0  0  0  0  0  0  0  0  0  0  0  0
   32.6440   33.0380   37.4450 H   0  0  0  0  0  0  0  0  0  0  0  0
   34.6060   32.5110   37.0200 C   0  0  0  0  0  3  0  0  0  0  0  0
   35.4500   31.7400   36.2550 C   0  0  0  0  0  3  0  0  0  0  0  0
   34.9030   30.8960   35.3130 C   0  0  0  0  0  0  0  0  0  0  0  0
   35.6880   30.1050   34.5220 C   0  0  0  0  0  3  0  0  0  0  0  0
   39.0030   27.2230   31.8890 O   0  0  0  0  0  0  0  0  0  0  0  0
   38.9790   26.3520   29.4030 O   0  0  0  0  0  0  0  0  0  0  0  0
   39.1490   25.9110   30.8540 P   0  0  1  0  0  0  0  0  0  0  0  0
   40.6470   25.1320   31.0900 O   0  0  0  0  0  0  0  0  0  0  0  0
   41.2960   25.7780   31.4630 H   0  0  0  0  0  0  0  0  0  0  0  0
   37.9160   24.7670   31.1160 O   0  0  0  0  0  0  0  0  0  0  0  0
   38.4950   23.6160   31.6770 C   0  0  0  0  0  0  0  0  0  0  0  0
   37.9540   22.7190   31.2610 H   0  0  0  0  0  0  0  0  0  0  0  0
   39.5200   23.5330   31.3130 H   0  0  0  0  0  0  0  0  0  0  0  0
   39.3180   23.0530   33.9160 C   0  0  0  0  0  3  0  0  0  0  0  0
   38.4200   23.6100   33.1550 C   0  0  0  0  0  3  0  0  0  0  0  0
   39.8420   22.7970   37.5380 C   0  0  0  0  0  0  0  0  0  0  0  0
   38.6230   23.2950   38.0470 C   0  0  0  0  0  0  0  0  0  0  0  0
   37.6480   23.7080   37.1280 C   0  0  0  0  0  0  0  0  0  0  0  0
   37.9870   23.5830   35.8080 N   0  0  0  0  0  0  0  0  0  0  0  0
   39.1340   23.1130   35.3620 C   0  0  0  0  0  0  0  0  0  0  0  0
   40.0490   22.7250   36.2440 N   0  0  0  0  0  0  0  0  0  0  0  0
   40.5700   22.4870   38.2760 H   0  0  0  0  0  0  0  0  0  0  0  0
   38.4020   23.3750   39.1030 H   0  0  0  0  0  0  0  0  0  0  0  0
   36.6750   24.1060   37.4380 H   0  0  0  0  0  0  0  0  0  0  0  0
  1  6  1  0  0  0  0
  2  1  2  0  0  0  0
  2  3  1  0  0  0  0
  3  4  2  0  0  0  0
  4  5  1  0  0  0  0
  4  8  1  0  0  0  0
  5  9  1  0  0  0  0
  6 10  1  0  0  0  0
  6  5  2  0  0  0  0
  7  3  1  0  0  0  0
 11 14  1  0  0  0  0
 11  1  1  0  0  0  0
 12 11  2  0  0  0  0
 13 11  2  0  0  0  0
 14 25  1  0  0  0  0
 15 14  2  0  0  0  0
 15 17  1  0  0  0  0
 16 15  1  0  0  0  0
 17 18  2  0  0  0  0
 18 24  1  0  0  0  0
 18 19  1  0  0  0  0
 19 20  2  0  0  0  0
 20 22  1  0  0  0  0
 20 21  1  0  0  0  0
 23 22  2  0  0  0  0
 24 23  1  0  0  0  0
 25 24  2  0  0  0  0
 26  2  1  0  0  0  0
 28 27  2  6  0  0  0
 28 29  1  0  0  0  0
 28 31  1  0  0  0  0
 28 26  1  0  0  0  0
 29 30  1  0  0  0  0
 31 32  1  0  0  0  0
 32 36  1  0  0  0  0
 33 32  1  0  0  0  0
 34 32  1  0  0  0  0
 35 41  1  0  0  0  0
 36 35  2  0  0  0  0
 37 38  1  0  0  0  0
 37 43  1  0  0  0  0
 38 44  1  0  0  0  0
 39 45  1  0  0  0  0
 39 38  2  0  0  0  0
 40 39  1  0  0  0  0
 41 40  2  0  0  0  0
 41 42  1  0  0  0  0
 42 37  2  0  0  0  0
M  END
>  <minimizedAffinity>
-6.30784273

$$$$

 OpenBabel03262520363D

 45 48  0  0  0  0  0  0  0  0999 V2000
   39.2520   23.6540   36.1170 C   0  0  0  0  0  0  0  0  0  0  0  0
   38.2510   24.6040   36.3730 C   0  0  0  0  0  0  0  0  0  0  0  0
   37.7480   24.7990   37.6420 C   0  0  0  0  0  0  0  0  0  0  0  0
   38.2410   24.0450   38.6770 C   0  0  0  0  0  0  0  0  0  0  0  0
   39.2150   23.1220   38.4350 C   0  0  0  0  0  0  0  0  0  0  0  0
   39.7440   22.8920   37.1870 C   0  0  0  0  0  0  0  0  0  0  0  0
   36.9790   25.5510   37.7520 H   0  0  0  0  0  0  0  0  0  0  0  0
   37.8500   24.1960   39.6730 H   0  0  0  0  0  0  0  0  0  0  0  0
   39.6230   22.5130   39.2280 H   0  0  0  0  0  0  0  0  0  0  0  0
   40.5230   22.1470   37.0160 H   0  0  0  0  0  0  0  0  0  0  0  0
   39.9390   23.3630   34.5410 S   0  0  0  0  0  0  0  0  0  0  0  0
   40.5600   24.5880   33.9910 O   0  0  0  0  0  0  0  0  0  0  0  0
   40.9730   22.2350   34.6790 O   0  0  0  0  0  0  0  0  0  0  0  0
   38.7060   22.8440   33.4180 C   0  0  0  0  0  0  0  0  0  0  0  0
   38.5510   23.3230   32.1330 C   0  0  0  0  0  0  0  0  0  0  0  0
   39.2460   24.0740   31.8060 H   0  0  0  0  0  0  0  0  0  0  0  0
   37.5200   22.8150   31.3500 C   0  0  0  0  0  3  0  0  0  0  0  0
   36.6440   21.8440   31.8150 C   0  0  0  0  0  0  0  0  0  0  0  0
   35.6520   21.3630   31.0480 N   0  0  0  0  0  0  0  0  0  0  0  0
   34.8060   20.4190   31.5120 C   0  0  0  0  0  0  0  0  0  0  0  0
   33.9890   19.9870   30.9520 H   0  0  0  0  0  0  0  0  0  0  0  0
   34.9250   19.9060   32.8030 C   0  0  0  0  0  3  0  0  0  0  0  0
   35.9340   20.3870   33.6040 C   0  0  0  0  0  3  0  0  0  0  0  0
   36.7790   21.3500   33.0960 C   0  0  0  0  0  0  0  0  0  0  0  0
   37.8000   21.8690   33.8410 C   0  0  0  0  0  3  0  0  0  0  0  0
   37.8640   25.2760   35.2280 O   0  0  0  0  0  0  0  0  0  0  0  0
   36.5380   27.5150   34.8250 O   0  0  0  0  0  0  0  0  0  0  0  0
   37.9400   26.9280   34.9550 P   0  0  1  0  0  0  0  0  0  0  0  0
   38.8170   27.6970   36.1990 O   0  0  0  0  0  0  0  0  0  0  0  0
   38.7730   27.1450   37.0180 H   0  0  0  0  0  0  0  0  0  0  0  0
   38.7070   27.2830   33.4770 O   0  0  0  0  0  0  0  0  0  0  0  0
   37.8130   26.9820   32.4350 C   0  0  0  0  0  0  0  0  0  0  0  0
   38.2610   26.1460   31.8260 H   0  0  0  0  0  0  0  0  0  0  0  0
   36.9020   26.5720   32.8690 H   0  0  0  0  0  0  0  0  0  0  0  0
   38.1120   28.3250   30.4050 C   0  0  0  0  0  3  0  0  0  0  0  0
   37.5470   28.1510   31.5660 C   0  0  0  0  0  3  0  0  0  0  0  0
   36.7850   31.5950   29.4050 C   0  0  0  0  0  0  0  0  0  0  0  0
   37.2100   31.6860   28.0610 C   0  0  0  0  0  0  0  0  0  0  0  0
   37.9460   30.6160   27.5320 C   0  0  0  0  0  0  0  0  0  0  0  0
   38.1790   29.5760   28.3900 N   0  0  0  0  0  0  0  0  0  0  0  0
   37.7690   29.5180   29.6400 C   0  0  0  0  0  0  0  0  0  0  0  0
   37.0720   30.5380   30.1290 N   0  0  0  0  0  0  0  0  0  0  0  0
   36.2190   32.4380   29.7790 H   0  0  0  0  0  0  0  0  0  0  0  0
   37.0000   32.5330   27.4220 H   0  0  0  0  0  0  0  0  0  0  0  0
   38.3130   30.6050   26.5000 H   0  0  0  0  0  0  0  0  0  0  0  0
  1  2  2  0  0  0  0
  1  6  1  0  0  0  0
  2  3  1  0  0  0  0
  3  7  1  0  0  0  0
  3  4  2  0  0  0  0
  4  8  1  0  0  0  0
  5  4  1  0  0  0  0
  5  9  1  0  0  0  0
  6  5  2  0  0  0  0
 10  6  1  0  0  0  0
 11 13  2  0  0  0  0
 11  1  1  0  0  0  0
 12 11  2  0  0  0  0
 14 25  1  0  0  0  0
 14 11  1  0  0  0  0
 15 14  2  0  0  0  0
 16 15  1  0  0  0  0
 17 18  2  0  0  0  0
 17 15  1  0  0  0  0
 18 24  1  0  0  0  0
 19 20  2  0  0  0  0
 19 18  1  0  0  0  0
 20 22  1  0  0  0  0
 21 20  1  0  0  0  0
 22 23  2  0  0  0  0
 24 23  1  0  0  0  0
 24 25  2  0  0  0  0
 26  2  1  0  0  0  0
 28 27  2  6  0  0  0
 28 26  1  0  0  0  0
 28 29  1  0  0  0  0
 29 30  1  0  0  0  0
 31 28  1  0  0  0  0
 32 34  1  0  0  0  0
 32 31  1  0  0  0  0
 33 32  1  0  0  0  0
 35 36  2  0  0  0  0
 36 32  1  0  0  0  0
 37 43  1  0  0  0  0
 37 42  1  0  0  0  0
 38 37  2  0  0  0  0
 39 38  1  0  0  0  0
 39 40  2  0  0  0  0
 40 41  1  0  0  0  0
 41 42  2  0  0  0  0
 41 35  1  0  0  0  0
 44 38  1  0  0  0  0
 45 39  1  0  0  0  0
M  END
>  <minimizedAffinity>
-6.28202152

$$$$

 OpenBabel03262520363D

 45 48  0  0  0  0  0  0  0  0999 V2000
   38.7810   25.6550   33.7670 C   0  0  0  0  0  0  0  0  0  0  0  0
   37.5780   26.3710   33.6570 C   0  0  0  0  0  0  0  0  0  0  0  0
   37.2220   27.3320   34.5790 C   0  0  0  0  0  0  0  0  0  0  0  0
   38.0670   27.5920   35.6290 C   0  0  0  0  0  0  0  0  0  0  0  0
   39.2370   26.9020   35.7410 C   0  0  0  0  0  0  0  0  0  0  0  0
   39.6320   25.9350   34.8460 C   0  0  0  0  0  0  0  0  0  0  0  0
   36.2790   27.8360   34.4190 H   0  0  0  0  0  0  0  0  0  0  0  0
   37.7910   28.3450   36.3530 H   0  0  0  0  0  0  0  0  0  0  0  0
   39.9220   27.0840   36.5560 H   0  0  0  0  0  0  0  0  0  0  0  0
   40.5730   25.3940   34.9570 H   0  0  0  0  0  0  0  0  0  0  0  0
   39.2980   24.4360   32.6320 S   0  0  0  0  0  0  0  0  0  0  0  0
   39.2060   24.9250   31.2390 O   0  0  0  0  0  0  0  0  0  0  0  0
   40.7420   24.0460   32.9850 O   0  0  0  0  0  0  0  0  0  0  0  0
   38.2960   23.0110   32.7610 C   0  0  0  0  0  0  0  0  0  0  0  0
   37.6580   22.5910   33.9100 C   0  0  0  0  0  0  0  0  0  0  0  0
   37.7930   23.1930   34.7900 H   0  0  0  0  0  0  0  0  0  0  0  0
   36.8910   21.4330   33.8630 C   0  0  0  0  0  3  0  0  0  0  0  0
   36.7440   20.6850   32.7030 C   0  0  0  0  0  0  0  0  0  0  0  0
   36.0000   19.5680   32.6710 N   0  0  0  0  0  0  0  0  0  0  0  0
   35.8660   18.8500   31.5370 C   0  0  0  0  0  0  0  0  0  0  0  0
   35.2840   17.9440   31.4390 H   0  0  0  0  0  0  0  0  0  0  0  0
   36.4920   19.2360   30.3520 C   0  0  0  0  0  3  0  0  0  0  0  0
   37.2590   20.3780   30.3640 C   0  0  0  0  0  3  0  0  0  0  0  0
   37.3730   21.0850   31.5410 C   0  0  0  0  0  0  0  0  0  0  0  0
   38.1200   22.2270   31.6190 C   0  0  0  0  0  3  0  0  0  0  0  0
   36.8450   25.9890   32.5490 O   0  0  0  0  0  0  0  0  0  0  0  0
   37.1920   27.9790   30.8580 O   0  0  0  0  0  0  0  0  0  0  0  0
   36.1570   26.9980   31.3990 P   0  0  1  0  0  0  0  0  0  0  0  0
   35.4620   26.0790   30.1420 O   0  0  0  0  0  0  0  0  0  0  0  0
   35.9120   25.2010   30.0920 H   0  0  0  0  0  0  0  0  0  0  0  0
   34.9350   27.9730   32.0740 O   0  0  0  0  0  0  0  0  0  0  0  0
   35.3800   29.3060   32.0640 C   0  0  0  0  0  0  0  0  0  0  0  0
   36.5040   29.2960   32.1430 H   0  0  0  0  0  0  0  0  0  0  0  0
   35.1590   29.7350   31.0870 H   0  0  0  0  0  0  0  0  0  0  0  0
   35.2740   30.0830   34.3870 C   0  0  0  0  0  3  0  0  0  0  0  0
   34.8030   30.1000   33.1720 C   0  0  0  0  0  3  0  0  0  0  0  0
   32.7890   31.5680   36.6400 C   0  0  0  0  0  0  0  0  0  0  0  0
   33.5510   32.5480   37.3120 C   0  0  0  0  0  0  0  0  0  0  0  0
   34.9060   32.6740   36.9720 C   0  0  0  0  0  0  0  0  0  0  0  0
   35.3560   31.8160   36.0060 N   0  0  0  0  0  0  0  0  0  0  0  0
   34.6200   30.9100   35.3940 C   0  0  0  0  0  0  0  0  0  0  0  0
   33.3390   30.8020   35.7260 N   0  0  0  0  0  0  0  0  0  0  0  0
   31.7490   31.5000   36.9270 H   0  0  0  0  0  0  0  0  0  0  0  0
   33.1480   33.2040   38.0720 H   0  0  0  0  0  0  0  0  0  0  0  0
   35.5680   33.4080   37.4440 H   0  0  0  0  0  0  0  0  0  0  0  0
  1  6  1  0  0  0  0
  2  1  2  0  0  0  0
  2  3  1  0  0  0  0
  3  4  2  0  0  0  0
  4  5  1  0  0  0  0
  4  8  1  0  0  0  0
  5  9  1  0  0  0  0
  6 10  1  0  0  0  0
  6  5  2  0  0  0  0
  7  3  1  0  0  0  0
 11 14  1  0  0  0  0
 11 13  2  0  0  0  0
 11  1  1  0  0  0  0
 12 11  2  0  0  0  0
 14 15  1  0  0  0  0
 15 16  1  0  0  0  0
 17 15  2  0  0  0  0
 18 17  1  0  0  0  0
 19 18  1  0  0  0  0
 20 19  2  0  0  0  0
 21 20  1  0  0  0  0
 22 23  2  0  0  0  0
 22 20  1  0  0  0  0
 23 24  1  0  0  0  0
 24 25  1  0  0  0  0
 24 18  2  0  0  0  0
 25 14  2  0  0  0  0
 26  2  1  0  0  0  0
 28 27  2  6  0  0  0
 28 31  1  0  0  0  0
 28 26  1  0  0  0  0
 29 28  1  0  0  0  0
 30 29  1  0  0  0  0
 32 31  1  0  0  0  0
 32 33  1  0  0  0  0
 32 36  1  0  0  0  0
 34 32  1  0  0  0  0
 35 41  1  0  0  0  0
 36 35  2  0  0  0  0
 37 43  1  0  0  0  0
 37 38  1  0  0  0  0
 38 44  1  0  0  0  0
 39 38  2  0  0  0  0
 39 45  1  0  0  0  0
 40 39  1  0  0  0  0
 41 42  1  0  0  0  0
 41 40  2  0  0  0  0
 42 37  2  0  0  0  0
M  END
>  <minimizedAffinity>
-6.19500256

$$$$

 OpenBabel03262520363D

 45 48  0  0  0  0  0  0  0  0999 V2000
   37.9940   26.5790   33.0360 C   0  0  0  0  0  0  0  0  0  0  0  0
   39.3850   26.7090   33.1740 C   0  0  0  0  0  0  0  0  0  0  0  0
   39.9650   27.0270   34.3850 C   0  0  0  0  0  0  0  0  0  0  0  0
   39.1580   27.2200   35.4780 C   0  0  0  0  0  0  0  0  0  0  0  0
   37.8070   27.0950   35.3500 C   0  0  0  0  0  0  0  0  0  0  0  0
   37.1860   26.7800   34.1640 C   0  0  0  0  0  0  0  0  0  0  0  0
   41.0430   27.1060   34.4040 H   0  0  0  0  0  0  0  0  0  0  0  0
   39.6080   27.4690   36.4290 H   0  0  0  0  0  0  0  0  0  0  0  0
   37.1460   27.2410   36.1920 H   0  0  0  0  0  0  0  0  0  0  0  0
   36.1020   26.6860   34.0850 H   0  0  0  0  0  0  0  0  0  0  0  0
   37.1980   26.1700   31.5400 S   0  0  0  0  0  0  0  0  0  0  0  0
   35.7730   26.5690   31.5620 O   0  0  0  0  0  0  0  0  0  0  0  0
   37.9490   26.8730   30.3990 O   0  0  0  0  0  0  0  0  0  0  0  0
   37.2600   24.4470   31.2600 C   0  0  0  0  0  0  0  0  0  0  0  0
   38.2550   23.7920   30.5630 C   0  0  0  0  0  0  0  0  0  0  0  0
   39.0490   24.3960   30.1640 H   0  0  0  0  0  0  0  0  0  0  0  0
   38.1730   22.4120   30.4190 C   0  0  0  0  0  3  0  0  0  0  0  0
   37.1270   21.6700   30.9520 C   0  0  0  0  0  0  0  0  0  0  0  0
   37.0610   20.3370   30.8060 N   0  0  0  0  0  0  0  0  0  0  0  0
   36.0380   19.6280   31.3280 C   0  0  0  0  0  0  0  0  0  0  0  0
   35.9200   18.5560   31.2490 H   0  0  0  0  0  0  0  0  0  0  0  0
   35.0110   20.2470   32.0400 C   0  0  0  0  0  3  0  0  0  0  0  0
   35.0620   21.6120   32.2000 C   0  0  0  0  0  3  0  0  0  0  0  0
   36.1210   22.3030   31.6530 C   0  0  0  0  0  0  0  0  0  0  0  0
   36.2290   23.6590   31.7770 C   0  0  0  0  0  3  0  0  0  0  0  0
   40.0510   26.4840   31.9840 O   0  0  0  0  0  0  0  0  0  0  0  0
   41.8610   25.5850   30.2950 O   0  0  0  0  0  0  0  0  0  0  0  0
   41.4700   25.6170   31.7700 P   0  0  1  0  0  0  0  0  0  0  0  0
   42.7190   26.2780   32.7240 O   0  0  0  0  0  0  0  0  0  0  0  0
   42.5250   27.2310   32.9010 H   0  0  0  0  0  0  0  0  0  0  0  0
   41.2790   23.9850   32.2130 O   0  0  0  0  0  0  0  0  0  0  0  0
   42.0940   23.7340   33.3300 C   0  0  0  0  0  0  0  0  0  0  0  0
   42.6020   22.7400   33.1720 H   0  0  0  0  0  0  0  0  0  0  0  0
   42.8950   24.4730   33.3460 H   0  0  0  0  0  0  0  0  0  0  0  0
   40.0790   23.3340   34.6680 C   0  0  0  0  0  3  0  0  0  0  0  0
   41.3240   23.7100   34.5950 C   0  0  0  0  0  3  0  0  0  0  0  0
   39.4050   23.0570   38.2640 C   0  0  0  0  0  0  0  0  0  0  0  0
   38.0490   23.4440   38.3390 C   0  0  0  0  0  0  0  0  0  0  0  0
   37.3990   23.7920   37.1460 C   0  0  0  0  0  0  0  0  0  0  0  0
   38.1620   23.7190   36.0130 N   0  0  0  0  0  0  0  0  0  0  0  0
   39.4260   23.3530   35.9730 C   0  0  0  0  0  0  0  0  0  0  0  0
   40.0300   23.0260   37.1100 N   0  0  0  0  0  0  0  0  0  0  0  0
   39.8740   22.7950   39.2030 H   0  0  0  0  0  0  0  0  0  0  0  0
   37.4880   23.4870   39.2630 H   0  0  0  0  0  0  0  0  0  0  0  0
   36.3490   24.1030   37.1150 H   0  0  0  0  0  0  0  0  0  0  0  0
  1  2  2  0  0  0  0
  1  6  1  0  0  0  0
  2  3  1  0  0  0  0
  3  7  1  0  0  0  0
  3  4  2  0  0  0  0
  4  8  1  0  0  0  0
  5  4  1  0  0  0  0
  5  9  1  0  0  0  0
  6  5  2  0  0  0  0
 10  6  1  0  0  0  0
 11 12  2  0  0  0  0
 11  1  1  0  0  0  0
 13 11  2  0  0  0  0
 14 11  1  0  0  0  0
 14 25  1  0  0  0  0
 15 14  2  0  0  0  0
 16 15  1  0  0  0  0
 17 15  1  0  0  0  0
 17 18  2  0  0  0  0
 18 24  1  0  0  0  0
 19 18  1  0  0  0  0
 19 20  2  0  0  0  0
 20 22  1  0  0  0  0
 21 20  1  0  0  0  0
 22 23  2  0  0  0  0
 24 25  2  0  0  0  0
 24 23  1  0  0  0  0
 26  2  1  0  0  0  0
 28 27  2  6  0  0  0
 28 26  1  0  0  0  0
 28 31  1  0  0  0  0
 28 29  1  0  0  0  0
 29 30  1  0  0  0  0
 31 32  1  0  0  0  0
 32 34  1  0  0  0  0
 32 36  1  0  0  0  0
 33 32  1  0  0  0  0
 35 41  1  0  0  0  0
 36 35  2  0  0  0  0
 37 38  1  0  0  0  0
 37 43  1  0  0  0  0
 38 44  1  0  0  0  0
 39 38  2  0  0  0  0
 40 39  1  0  0  0  0
 41 40  2  0  0  0  0
 41 42  1  0  0  0  0
 42 37  2  0  0  0  0
 45 39  1  0  0  0  0
M  END
>  <minimizedAffinity>
-6.13218784

$$$$

 OpenBabel03262520363D

 45 48  0  0  0  0  0  0  0  0999 V2000
   39.6930   26.4180   33.7540 C   0  0  0  0  0  0  0  0  0  0  0  0
   38.3890   26.5200   33.2440 C   0  0  0  0  0  0  0  0  0  0  0  0
   37.3430   26.9750   34.0190 C   0  0  0  0  0  0  0  0  0  0  0  0
   37.5870   27.3350   35.3210 C   0  0  0  0  0  0  0  0  0  0  0  0
   38.8520   27.2380   35.8220 C   0  0  0  0  0  0  0  0  0  0  0  0
   39.9240   26.7910   35.0860 C   0  0  0  0  0  0  0  0  0  0  0  0
   36.3710   27.0230   33.5480 H   0  0  0  0  0  0  0  0  0  0  0  0
   36.7700   27.6920   35.9320 H   0  0  0  0  0  0  0  0  0  0  0  0
   39.0750   27.5140   36.8420 H   0  0  0  0  0  0  0  0  0  0  0  0
   40.9270   26.7210   35.5090 H   0  0  0  0  0  0  0  0  0  0  0  0
   41.0620   25.8630   32.8270 S   0  0  0  0  0  0  0  0  0  0  0  0
   40.9480   24.4210   32.5120 O   0  0  0  0  0  0  0  0  0  0  0  0
   41.1330   26.7040   31.5430 O   0  0  0  0  0  0  0  0  0  0  0  0
   42.5450   26.0950   33.7190 C   0  0  0  0  0  0  0  0  0  0  0  0
   43.4720   27.0860   33.4720 C   0  0  0  0  0  0  0  0  0  0  0  0
   43.2590   27.7640   32.6660 H   0  0  0  0  0  0  0  0  0  0  0  0
   44.6120   27.1480   34.2670 C   0  0  0  0  0  3  0  0  0  0  0  0
   44.8480   26.2500   35.2990 C   0  0  0  0  0  0  0  0  0  0  0  0
   45.9520   26.3230   36.0590 N   0  0  0  0  0  0  0  0  0  0  0  0
   46.1700   25.4430   37.0580 C   0  0  0  0  0  0  0  0  0  0  0  0
   47.0350   25.4410   37.7080 H   0  0  0  0  0  0  0  0  0  0  0  0
   45.2610   24.4250   37.3450 C   0  0  0  0  0  3  0  0  0  0  0  0
   44.1230   24.3350   36.5770 C   0  0  0  0  0  3  0  0  0  0  0  0
   43.9350   25.2510   35.5650 C   0  0  0  0  0  0  0  0  0  0  0  0
   42.8260   25.2140   34.7670 C   0  0  0  0  0  3  0  0  0  0  0  0
   38.3140   26.1200   31.9230 O   0  0  0  0  0  0  0  0  0  0  0  0
   35.9080   25.9220   30.8690 O   0  0  0  0  0  0  0  0  0  0  0  0
   37.1540   25.1220   31.2360 P   0  0  1  0  0  0  0  0  0  0  0  0
   37.7930   24.3160   29.8760 O   0  0  0  0  0  0  0  0  0  0  0  0
   38.5390   24.8470   29.5040 H   0  0  0  0  0  0  0  0  0  0  0  0
   36.6120   23.9430   32.3390 O   0  0  0  0  0  0  0  0  0  0  0  0
   37.4160   22.7990   32.1890 C   0  0  0  0  0  0  0  0  0  0  0  0
   36.7330   21.9090   32.0820 H   0  0  0  0  0  0  0  0  0  0  0  0
   37.9500   22.8740   31.2420 H   0  0  0  0  0  0  0  0  0  0  0  0
   38.1060   23.0890   34.5240 C   0  0  0  0  0  3  0  0  0  0  0  0
   38.3290   22.5990   33.3380 C   0  0  0  0  0  3  0  0  0  0  0  0
   39.7960   22.8700   37.7730 C   0  0  0  0  0  0  0  0  0  0  0  0
   41.0180   22.2530   37.4270 C   0  0  0  0  0  0  0  0  0  0  0  0
   41.2310   21.9270   36.0790 C   0  0  0  0  0  0  0  0  0  0  0  0
   40.2110   22.2470   35.2250 N   0  0  0  0  0  0  0  0  0  0  0  0
   39.0800   22.8230   35.5770 C   0  0  0  0  0  0  0  0  0  0  0  0
   38.8920   23.1270   36.8560 N   0  0  0  0  0  0  0  0  0  0  0  0
   39.6670   23.1080   38.8200 H   0  0  0  0  0  0  0  0  0  0  0  0
   41.7950   22.0200   38.1420 H   0  0  0  0  0  0  0  0  0  0  0  0
   42.1500   21.4470   35.7260 H   0  0  0  0  0  0  0  0  0  0  0  0
  1  6  1  0  0  0  0
  2  1  2  0  0  0  0
  2  3  1  0  0  0  0
  3  4  2  0  0  0  0
  4  5  1  0  0  0  0
  4  8  1  0  0  0  0
  5  9  1  0  0  0  0
  6 10  1  0  0  0  0
  6  5  2  0  0  0  0
  7  3  1  0  0  0  0
 11 14  1  0  0  0  0
 11  1  1  0  0  0  0
 12 11  2  0  0  0  0
 13 11  2  0  0  0  0
 14 25  1  0  0  0  0
 15 14  2  0  0  0  0
 15 17  1  0  0  0  0
 16 15  1  0  0  0  0
 17 18  2  0  0  0  0
 18 24  1  0  0  0  0
 18 19  1  0  0  0  0
 19 20  2  0  0  0  0
 20 22  1  0  0  0  0
 20 21  1  0  0  0  0
 23 22  2  0  0  0  0
 24 23  1  0  0  0  0
 25 24  2  0  0  0  0
 26  2  1  0  0  0  0
 28 27  2  6  0  0  0
 28 26  1  0  0  0  0
 28 31  1  0  0  0  0
 29 28  1  0  0  0  0
 30 29  1  0  0  0  0
 32 31  1  0  0  0  0
 32 36  1  0  0  0  0
 33 32  1  0  0  0  0
 34 32  1  0  0  0  0
 35 41  1  0  0  0  0
 36 35  2  0  0  0  0
 37 43  1  0  0  0  0
 38 37  1  0  0  0  0
 38 44  1  0  0  0  0
 39 38  2  0  0  0  0
 40 41  2  0  0  0  0
 40 39  1  0  0  0  0
 41 42  1  0  0  0  0
 42 37  2  0  0  0  0
 45 39  1  0  0  0  0
M  END
>  <minimizedAffinity>
-6.09888649

$$$$

 OpenBabel03262520363D

 45 48  0  0  0  0  0  0  0  0999 V2000
   37.2170   26.0870   32.9620 C   0  0  0  0  0  0  0  0  0  0  0  0
   36.4680   26.9210   32.1170 C   0  0  0  0  0  0  0  0  0  0  0  0
   35.6510   26.4050   31.1320 C   0  0  0  0  0  0  0  0  0  0  0  0
   35.5730   25.0440   30.9780 C   0  0  0  0  0  0  0  0  0  0  0  0
   36.2980   24.2290   31.7960 C   0  0  0  0  0  0  0  0  0  0  0  0
   37.1240   24.6980   32.7900 C   0  0  0  0  0  0  0  0  0  0  0  0
   35.1090   27.1170   30.5260 H   0  0  0  0  0  0  0  0  0  0  0  0
   34.9340   24.6360   30.2070 H   0  0  0  0  0  0  0  0  0  0  0  0
   36.2570   23.1540   31.6990 H   0  0  0  0  0  0  0  0  0  0  0  0
   37.6950   24.0270   33.4330 H   0  0  0  0  0  0  0  0  0  0  0  0
   38.2590   26.6710   34.2330 S   0  0  0  0  0  0  0  0  0  0  0  0
   39.4930   27.2740   33.6820 O   0  0  0  0  0  0  0  0  0  0  0  0
   37.4660   27.6960   35.0580 O   0  0  0  0  0  0  0  0  0  0  0  0
   38.7330   25.3640   35.2900 C   0  0  0  0  0  0  0  0  0  0  0  0
   37.9900   24.8930   36.3530 C   0  0  0  0  0  0  0  0  0  0  0  0
   37.0470   25.3730   36.5390 H   0  0  0  0  0  0  0  0  0  0  0  0
   38.4970   23.8420   37.1090 C   0  0  0  0  0  3  0  0  0  0  0  0
   39.7220   23.2510   36.8330 C   0  0  0  0  0  0  0  0  0  0  0  0
   40.1990   22.2370   37.5720 N   0  0  0  0  0  0  0  0  0  0  0  0
   41.3920   21.6710   37.2930 C   0  0  0  0  0  0  0  0  0  0  0  0
   41.8360   20.8530   37.8440 H   0  0  0  0  0  0  0  0  0  0  0  0
   42.1780   22.1130   36.2290 C   0  0  0  0  0  3  0  0  0  0  0  0
   41.7050   23.1510   35.4610 C   0  0  0  0  0  3  0  0  0  0  0  0
   40.4830   23.7050   35.7750 C   0  0  0  0  0  0  0  0  0  0  0  0
   39.9590   24.7380   35.0510 C   0  0  0  0  0  3  0  0  0  0  0  0
   36.6590   28.2600   32.4030 O   0  0  0  0  0  0  0  0  0  0  0  0
   35.9570   30.7250   33.0090 O   0  0  0  0  0  0  0  0  0  0  0  0
   35.5570   29.5050   32.1850 P   0  0  1  0  0  0  0  0  0  0  0  0
   35.4200   29.8960   30.5310 O   0  0  0  0  0  0  0  0  0  0  0  0
   36.2520   29.6360   30.0650 H   0  0  0  0  0  0  0  0  0  0  0  0
   34.0100   29.0760   32.7520 O   0  0  0  0  0  0  0  0  0  0  0  0
   33.9170   29.4510   34.1040 C   0  0  0  0  0  0  0  0  0  0  0  0
   34.2920   28.5900   34.7280 H   0  0  0  0  0  0  0  0  0  0  0  0
   34.6160   30.2680   34.2840 H   0  0  0  0  0  0  0  0  0  0  0  0
   31.6660   28.9160   34.9140 C   0  0  0  0  0  3  0  0  0  0  0  0
   32.5320   29.7960   34.4990 C   0  0  0  0  0  3  0  0  0  0  0  0
   28.3140   30.4020   34.8080 C   0  0  0  0  0  0  0  0  0  0  0  0
   27.8510   30.1780   36.1230 C   0  0  0  0  0  0  0  0  0  0  0  0
   28.7080   29.5170   37.0160 C   0  0  0  0  0  0  0  0  0  0  0  0
   29.9250   29.1530   36.5100 N   0  0  0  0  0  0  0  0  0  0  0  0
   30.3310   29.3770   35.2760 C   0  0  0  0  0  0  0  0  0  0  0  0
   29.5100   30.0030   34.4410 N   0  0  0  0  0  0  0  0  0  0  0  0
   27.6280   30.9130   34.1470 H   0  0  0  0  0  0  0  0  0  0  0  0
   26.8760   30.4860   36.4760 H   0  0  0  0  0  0  0  0  0  0  0  0
   28.4280   29.3040   38.0540 H   0  0  0  0  0  0  0  0  0  0  0  0
  1 11  1  0  0  0  0
  2 26  1  0  0  0  0
  2  1  2  0  0  0  0
  3  2  1  0  0  0  0
  4  3  2  0  0  0  0
  4  5  1  0  0  0  0
  5  6  2  0  0  0  0
  6  1  1  0  0  0  0
  6 10  1  0  0  0  0
  7  3  1  0  0  0  0
  8  4  1  0  0  0  0
  9  5  1  0  0  0  0
 11 13  2  0  0  0  0
 11 14  1  0  0  0  0
 12 11  2  0  0  0  0
 14 15  1  0  0  0  0
 15 16  1  0  0  0  0
 15 17  2  0  0  0  0
 18 17  1  0  0  0  0
 18 19  1  0  0  0  0
 20 19  2  0  0  0  0
 20 21  1  0  0  0  0
 22 20  1  0  0  0  0
 23 24  1  0  0  0  0
 23 22  2  0  0  0  0
 24 18  2  0  0  0  0
 25 14  2  0  0  0  0
 25 24  1  0  0  0  0
 28 26  1  0  0  0  0
 28 31  1  0  0  0  0
 28 27  2  1  0  0  0
 29 28  1  0  0  0  0
 30 29  1  0  0  0  0
 31 32  1  0  0  0  0
 32 34  1  0  0  0  0
 32 36  1  0  0  0  0
 32 33  1  0  0  0  0
 35 41  1  0  0  0  0
 36 35  2  0  0  0  0
 37 38  1  0  0  0  0
 38 44  1  0  0  0  0
 38 39  2  0  0  0  0
 39 45  1  0  0  0  0
 40 39  1  0  0  0  0
 41 40  2  0  0  0  0
 42 37  2  0  0  0  0
 42 41  1  0  0  0  0
 43 37  1  0  0  0  0
M  END
>  <minimizedAffinity>
-6.09566641

$$$$
