
 OpenBabel03272507163D

 29 32  0  0  1  0  0  0  0  0999 V2000
   37.0320   30.8840   50.6270 C   0  0  1  0  0  0  0  0  0  0  0  0
   36.2350   29.6790   50.5490 C   0  0  2  0  0  0  0  0  0  0  0  0
   37.6120   29.5740   51.1740 C   0  0  0  0  0  0  0  0  0  0  0  0
   36.8950   31.6950   51.3970 H   0  0  0  0  0  0  0  0  0  0  0  0
   35.3540   29.6090   51.2190 H   0  0  0  0  0  0  0  0  0  0  0  0
   37.6260   29.5090   52.2800 H   0  0  0  0  0  0  0  0  0  0  0  0
   38.4000   29.0660   50.6180 H   0  0  0  0  0  0  0  0  0  0  0  0
   37.8010   31.3880   49.4260 C   0  0  0  0  0  0  0  0  0  0  0  0
   38.2360   32.7120   49.4980 C   0  0  0  0  0  0  0  0  0  0  0  0
   38.9240   33.1730   48.3700 C   0  0  0  0  0  0  0  0  0  0  0  0
   39.1330   32.3560   47.3050 N   0  0  0  0  0  0  0  0  0  0  0  0
   38.6880   31.0650   47.2810 C   0  0  0  0  0  0  0  0  0  0  0  0
   38.0130   30.5750   48.3570 N   0  0  0  0  0  0  0  0  0  0  0  0
   38.0330   33.3050   50.3790 H   0  0  0  0  0  0  0  0  0  0  0  0
   39.2790   34.1790   48.3720 H   0  0  0  0  0  0  0  0  0  0  0  0
   38.8540   30.4150   46.4330 H   0  0  0  0  0  0  0  0  0  0  0  0
   36.1010   29.0260   49.3170 O   0  0  0  0  0  0  0  0  0  0  0  0
   34.9100   28.8390   48.6630 C   0  0  0  0  0  0  0  0  0  0  0  0
   34.7480   29.7790   47.6520 C   0  0  0  0  0  0  0  0  0  0  0  0
   35.4490   30.5780   47.3800 H   0  0  0  0  0  0  0  0  0  0  0  0
   33.6210   29.8080   46.8350 C   0  0  0  0  0  0  0  0  0  0  0  0
   32.6390   28.8630   47.0510 C   0  0  0  0  0  0  0  0  0  0  0  0
   31.5220   28.8480   46.2830 N   0  0  0  0  0  0  0  0  0  0  0  0
   30.5580   27.9100   46.5050 C   0  0  0  0  0  0  0  0  0  0  0  0
   29.6670   27.8980   45.8920 H   0  0  0  0  0  0  0  0  0  0  0  0
   30.7090   26.9590   47.5180 C   0  0  0  0  0  0  0  0  0  0  0  0
   31.8320   26.9530   48.3090 C   0  0  0  0  0  0  0  0  0  0  0  0
   32.7850   27.9090   48.0630 C   0  0  0  0  0  0  0  0  0  0  0  0
   33.9140   27.9130   48.8490 C   0  0  0  0  0  0  0  0  0  0  0  0
  1  3  1  0  0  0  0
  1  4  1  1  0  0  0
  2  1  1  0  0  0  0
  2  3  1  0  0  0  0
  2  5  1  1  0  0  0
  3  6  1  0  0  0  0
  7  3  1  0  0  0  0
  8  9  1  0  0  0  0
  8  1  1  0  0  0  0
  9 14  1  0  0  0  0
 10 15  1  0  0  0  0
 10  9  2  0  0  0  0
 11 10  1  0  0  0  0
 12 11  2  0  0  0  0
 12 13  1  0  0  0  0
 13  8  2  0  0  0  0
 16 12  1  0  0  0  0
 17  2  1  0  0  0  0
 18 29  1  0  0  0  0
 18 17  1  0  0  0  0
 19 18  2  0  0  0  0
 20 19  1  0  0  0  0
 21 22  2  0  0  0  0
 21 19  1  0  0  0  0
 22 28  1  0  0  0  0
 23 24  2  0  0  0  0
 23 22  1  0  0  0  0
 24 26  1  0  0  0  0
 25 24  1  0  0  0  0
 26 27  2  0  0  0  0
 28 27  1  0  0  0  0
 28 29  2  0  0  0  0
M  END
>  <minimizedAffinity>
-6.10980034

>  <minimizedRMSD>
2.45802259

$$$$
