
 OpenBabel03272508553D

 41 45  0  0  1  0  0  0  0  0999 V2000
   39.0830   31.5340   43.3760 C   0  0  0  0  0  0  0  0  0  0  0  0
   40.0610   30.5860   43.5030 C   0  0  0  0  0  0  0  0  0  0  0  0
   40.7900   30.2270   42.3760 C   0  0  0  0  0  0  0  0  0  0  0  0
   40.4840   30.8490   41.2050 C   0  0  0  0  0  0  0  0  0  0  0  0
   39.5000   31.8110   41.0610 C   0  0  0  0  0  0  0  0  0  0  0  0
   38.8400   32.1010   42.1960 N   0  0  0  0  0  0  0  0  0  0  0  0
   40.3320   30.0690   44.4220 H   0  0  0  0  0  0  0  0  0  0  0  0
   41.5730   29.4760   42.4460 H   0  0  0  0  0  0  0  0  0  0  0  0
   41.0570   30.5620   40.3350 H   0  0  0  0  0  0  0  0  0  0  0  0
   39.1700   32.4780   39.8100 C   0  0  0  0  0  0  0  0  0  0  0  0
   38.3240   33.5610   39.7430 C   0  0  0  0  0  0  0  0  0  0  0  0
   37.8630   33.9650   40.6330 H   0  0  0  0  0  0  0  0  0  0  0  0
   37.9900   34.2160   38.5770 C   0  0  0  0  0  3  0  0  0  0  0  0
   38.5700   33.7190   37.4050 C   0  0  0  0  0  0  0  0  0  0  0  0
   38.3240   34.2730   36.1940 N   0  0  0  0  0  0  0  0  0  0  0  0
   38.8670   33.8160   35.0570 C   0  0  0  0  0  0  0  0  0  0  0  0
   38.6000   34.3380   34.1290 H   0  0  0  0  0  0  0  0  0  0  0  0
   39.7300   32.7240   35.0600 C   0  0  0  0  0  3  0  0  0  0  0  0
   40.0050   32.1310   36.2780 C   0  0  0  0  0  3  0  0  0  0  0  0
   39.4300   32.6270   37.4280 C   0  0  0  0  0  0  0  0  0  0  0  0
   39.7280   32.0070   38.6420 C   0  0  0  0  0  3  0  0  0  0  0  0
   38.3100   31.8960   44.5730 C   0  0  0  0  0  0  0  0  0  0  0  0
   37.1310   32.3530   44.4780 O   0  0  0  0  0  0  0  0  0  0  0  0
   38.9180   31.7210   45.8620 N   0  0  0  0  0  0  0  0  0  0  0  0
   39.9300   31.5050   46.0030 H   0  0  0  0  0  0  0  0  0  0  0  0
   38.4400   31.1880   48.2500 C   0  0  2  0  0  0  0  0  0  0  0  0
   38.7380   32.6270   48.1960 C   0  0  0  0  0  0  0  0  0  0  0  0
   38.0640   31.8550   47.0310 C   0  0  1  0  0  0  0  0  0  0  0  0
   39.3730   30.5590   48.2940 H   0  0  0  0  0  0  0  0  0  0  0  0
   39.7540   32.9830   48.0290 H   0  0  0  0  0  0  0  0  0  0  0  0
   38.0570   33.2780   48.7990 H   0  0  0  0  0  0  0  0  0  0  0  0
   37.0010   32.1370   46.8570 H   0  0  0  0  0  0  0  0  0  0  0  0
   35.1280   30.2150   49.5530 C   0  0  0  0  0  0  0  0  0  0  0  0
   35.4630   29.5420   50.7730 C   0  0  0  0  0  0  0  0  0  0  0  0
   36.8650   29.4520   51.1150 C   0  0  0  0  0  0  0  0  0  0  0  0
   37.7910   29.9980   50.2830 N   0  0  0  0  0  0  0  0  0  0  0  0
   37.3880   30.6240   49.1370 C   0  0  0  0  0  0  0  0  0  0  0  0
   36.0710   30.7490   48.7440 N   0  0  0  0  0  0  0  0  0  0  0  0
   34.0950   30.2890   49.2860 H   0  0  0  0  0  0  0  0  0  0  0  0
   34.7010   29.1270   51.3970 H   0  0  0  0  0  0  0  0  0  0  0  0
   37.1070   28.9510   52.0230 H   0  0  0  0  0  0  0  0  0  0  0  0
  1  2  1  0  0  0  0
  1 22  1  0  0  0  0
  2  7  1  0  0  0  0
  3  8  1  0  0  0  0
  3  2  2  0  0  0  0
  4  3  1  0  0  0  0
  5  4  2  0  0  0  0
  5  6  1  0  0  0  0
  6  1  2  0  0  0  0
  9  4  1  0  0  0  0
 10  5  1  0  0  0  0
 11 10  1  0  0  0  0
 11 12  1  0  0  0  0
 13 11  2  0  0  0  0
 14 20  1  0  0  0  0
 14 13  1  0  0  0  0
 15 14  2  0  0  0  0
 16 18  2  0  0  0  0
 16 15  1  0  0  0  0
 17 16  1  0  0  0  0
 18 19  1  0  0  0  0
 19 20  2  0  0  0  0
 20 21  1  0  0  0  0
 21 10  2  0  0  0  0
 22 24  1  0  0  0  0
 23 22  2  0  0  0  0
 24 25  1  0  0  0  0
 24 28  1  0  0  0  0
 26 29  1  6  0  0  0
 26 37  1  0  0  0  0
 27 26  1  0  0  0  0
 27 31  1  0  0  0  0
 28 32  1  6  0  0  0
 28 27  1  0  0  0  0
 28 26  1  0  0  0  0
 30 27  1  0  0  0  0
 33 34  1  0  0  0  0
 34 35  2  0  0  0  0
 34 40  1  0  0  0  0
 35 41  1  0  0  0  0
 36 35  1  0  0  0  0
 37 36  2  0  0  0  0
 38 37  1  0  0  0  0
 38 33  2  0  0  0  0
 39 33  1  0  0  0  0
M  END
>  <minimizedAffinity>
-5.32298565

>  <minimizedRMSD>
0.198986828

$$$$
