
 OpenBabel03272505313D

 43 47  0  0  0  0  0  0  0  0999 V2000
   37.3590   31.1480   47.1070 N   0  0  0  0  0  0  0  0  0  0  0  0
   36.7430   30.8890   45.9210 C   0  0  0  0  0  0  0  0  0  0  0  0
   37.2050   31.4050   44.7270 C   0  0  0  0  0  0  0  0  0  0  0  0
   38.3480   32.2170   44.7830 C   0  0  0  0  0  0  0  0  0  0  0  0
   38.8100   32.7150   43.7210 O   0  0  0  0  0  0  0  0  0  0  0  0
   38.9650   32.4750   45.9760 N   0  0  0  0  0  0  0  0  0  0  0  0
   38.4230   31.9190   47.0490 C   0  0  0  0  0  0  0  0  0  0  0  0
   39.0130   32.1760   48.1240 O   0  0  0  0  0  0  0  0  0  0  0  0
   35.8660   30.2640   45.8940 H   0  0  0  0  0  0  0  0  0  0  0  0
   37.2310   29.4090   50.3950 C   0  0  0  0  0  0  0  0  0  0  0  0
   37.7020   29.9500   49.1900 C   0  0  0  0  0  0  0  0  0  0  0  0
   36.8740   30.6120   48.3060 C   0  0  0  0  0  0  0  0  0  0  0  0
   35.5870   30.7170   48.6540 N   0  0  0  0  0  0  0  0  0  0  0  0
   35.0870   30.2070   49.8120 C   0  0  0  0  0  0  0  0  0  0  0  0
   35.9220   29.5560   50.6720 N   0  0  0  0  0  0  0  0  0  0  0  0
   37.8800   28.8910   51.0860 H   0  0  0  0  0  0  0  0  0  0  0  0
   38.7420   29.8160   49.0030 H   0  0  0  0  0  0  0  0  0  0  0  0
   34.0420   30.3020   50.0760 H   0  0  0  0  0  0  0  0  0  0  0  0
   36.5890   31.1650   43.4290 C   0  0  0  0  0  0  0  0  0  0  0  0
   36.8080   30.0350   42.6940 C   0  0  0  0  0  0  0  0  0  0  0  0
   36.2380   29.7850   41.4630 C   0  0  0  0  0  0  0  0  0  0  0  0
   35.3780   30.7520   40.9290 C   0  0  0  0  0  0  0  0  0  0  0  0
   35.1850   31.8800   41.7050 C   0  0  0  0  0  0  0  0  0  0  0  0
   35.7670   32.0560   42.8860 N   0  0  0  0  0  0  0  0  0  0  0  0
   37.4640   29.2580   43.0620 H   0  0  0  0  0  0  0  0  0  0  0  0
   36.4200   28.8820   40.8870 H   0  0  0  0  0  0  0  0  0  0  0  0
   34.9240   30.5870   39.9810 H   0  0  0  0  0  0  0  0  0  0  0  0
   34.3060   32.9460   41.2370 C   0  0  0  0  0  0  0  0  0  0  0  0
   34.5970   33.6200   40.0610 C   0  0  0  0  0  0  0  0  0  0  0  0
   35.4890   33.3420   39.4910 H   0  0  0  0  0  0  0  0  0  0  0  0
   33.8590   34.6430   39.5020 C   0  0  0  0  0  3  0  0  0  0  0  0
   32.7220   35.0360   40.1780 C   0  0  0  0  0  0  0  0  0  0  0  0
   31.9470   36.0270   39.6990 N   0  0  0  0  0  0  0  0  0  0  0  0
   30.8270   36.4350   40.3360 C   0  0  0  0  0  0  0  0  0  0  0  0
   30.2100   37.2360   39.9420 H   0  0  0  0  0  0  0  0  0  0  0  0
   30.5000   35.7820   41.5250 C   0  0  0  0  0  3  0  0  0  0  0  0
   31.2570   34.7570   42.0660 C   0  0  0  0  0  3  0  0  0  0  0  0
   32.3830   34.4000   41.3550 C   0  0  0  0  0  0  0  0  0  0  0  0
   33.1590   33.3790   41.8700 C   0  0  0  0  0  3  0  0  0  0  0  0
   40.1370   33.3090   46.0200 C   0  0  0  0  0  0  0  0  0  0  0  0
   40.0680   34.2860   45.0930 F   0  0  0  0  0  0  0  0  0  0  0  0
   41.3190   32.6180   45.7510 F   0  0  0  0  0  0  0  0  0  0  0  0
   40.2220   33.9020   47.2740 F   0  0  0  0  0  0  0  0  0  0  0  0
  1 12  1  0  0  0  0
  2  1  1  0  0  0  0
  3  4  1  0  0  0  0
  3  2  2  0  0  0  0
  4  6  1  0  0  0  0
  5  4  2  0  0  0  0
  6 40  1  0  0  0  0
  6  7  1  0  0  0  0
  7  1  1  0  0  0  0
  7  8  2  0  0  0  0
  9  2  1  0  0  0  0
 10 15  1  0  0  0  0
 10 16  1  0  0  0  0
 11 10  2  0  0  0  0
 12 13  2  0  0  0  0
 12 11  1  0  0  0  0
 13 14  1  0  0  0  0
 14 18  1  0  0  0  0
 14 15  2  0  0  0  0
 17 11  1  0  0  0  0
 19  3  1  0  0  0  0
 20 25  1  0  0  0  0
 20 19  2  0  0  0  0
 21 20  1  0  0  0  0
 22 21  2  0  0  0  0
 22 23  1  0  0  0  0
 23 24  2  0  0  0  0
 24 19  1  0  0  0  0
 26 21  1  0  0  0  0
 27 22  1  0  0  0  0
 28 23  1  0  0  0  0
 28 39  1  0  0  0  0
 29 28  2  0  0  0  0
 30 29  1  0  0  0  0
 31 29  1  0  0  0  0
 31 32  2  0  0  0  0
 32 38  1  0  0  0  0
 33 32  1  0  0  0  0
 33 34  2  0  0  0  0
 34 36  1  0  0  0  0
 35 34  1  0  0  0  0
 36 37  2  0  0  0  0
 38 39  2  0  0  0  0
 38 37  1  0  0  0  0
 40 43  1  0  0  0  0
 41 40  1  0  0  0  0
 42 40  1  0  0  0  0
M  END
>  <minimizedAffinity>
-7.07871914

>  <minimizedRMSD>
0.606509566

$$$$
