
 OpenBabel03272510083D

 47 52  0  0  0  0  0  0  0  0999 V2000
   35.5680   29.9910   47.4350 C   0  0  0  0  0  0  0  0  0  0  0  0
   35.6160   29.9160   48.7910 N   0  0  0  0  0  0  0  0  0  0  0  0
   36.7360   30.2800   49.4390 C   0  0  0  0  0  0  0  0  0  0  0  0
   37.8660   30.7340   48.8260 N   0  0  0  0  0  0  0  0  0  0  0  0
   37.8520   30.8210   47.4800 C   0  0  0  0  0  0  0  0  0  0  0  0
   38.9410   31.2870   46.7610 C   0  0  0  0  0  0  0  0  0  0  0  0
   38.8840   31.3790   45.3670 C   0  0  0  0  0  0  0  0  0  0  0  0
   37.7130   30.9950   44.7030 C   0  0  0  0  0  0  0  0  0  0  0  0
   36.6490   30.5340   45.4690 C   0  0  0  0  0  0  0  0  0  0  0  0
   36.7030   30.4460   46.8230 C   0  0  0  0  0  0  0  0  0  0  0  0
   36.8380   30.2420   50.5240 H   0  0  0  0  0  0  0  0  0  0  0  0
   39.8040   31.5600   47.3540 H   0  0  0  0  0  0  0  0  0  0  0  0
   39.7920   31.7570   44.9220 H   0  0  0  0  0  0  0  0  0  0  0  0
   37.8850   31.1450   43.6500 H   0  0  0  0  0  0  0  0  0  0  0  0
   33.9550   28.3330   46.3610 C   0  0  0  0  0  0  0  0  0  0  0  0
   34.3320   29.6030   46.8510 C   0  0  0  0  0  0  0  0  0  0  0  0
   33.3920   30.6620   46.7560 C   0  0  0  0  0  0  0  0  0  0  0  0
   32.1760   30.4290   46.2020 N   0  0  0  0  0  0  0  0  0  0  0  0
   31.8750   29.1790   45.7440 C   0  0  0  0  0  0  0  0  0  0  0  0
   32.7340   28.1590   45.8210 N   0  0  0  0  0  0  0  0  0  0  0  0
   30.5760   28.9950   45.1370 N   0  0  0  0  0  0  0  0  0  0  0  0
   29.3300   29.2000   45.8120 C   0  0  0  0  0  0  0  0  0  0  0  0
   28.2980   29.1590   44.7310 C   0  0  0  0  0  0  0  0  0  0  0  0
   29.0480   29.1440   43.4030 C   0  0  0  0  0  0  0  0  0  0  0  0
   30.3610   28.5750   43.7400 C   0  0  0  0  0  0  0  0  0  0  0  0
   34.7170   27.5750   46.4700 H   0  0  0  0  0  0  0  0  0  0  0  0
   33.5860   31.6570   47.1030 H   0  0  0  0  0  0  0  0  0  0  0  0
   29.1940   28.4130   46.5880 H   0  0  0  0  0  0  0  0  0  0  0  0
   29.3050   30.2000   46.3010 H   0  0  0  0  0  0  0  0  0  0  0  0
   27.6120   30.0430   44.7700 H   0  0  0  0  0  0  0  0  0  0  0  0
   27.6340   28.2680   44.7760 H   0  0  0  0  0  0  0  0  0  0  0  0
   29.1590   30.1660   42.9920 H   0  0  0  0  0  0  0  0  0  0  0  0
   28.4950   28.4880   42.6960 H   0  0  0  0  0  0  0  0  0  0  0  0
   31.2180   28.8590   43.1330 H   0  0  0  0  0  0  0  0  0  0  0  0
   30.3700   27.4520   43.7650 H   0  0  0  0  0  0  0  0  0  0  0  0
   35.6840   30.1920   44.4390 C   0  0  0  0  0  0  0  0  0  0  0  0
   34.6260   30.8590   43.8530 C   0  0  0  0  0  0  0  0  0  0  0  0
   34.5400   31.8680   44.2940 H   0  0  0  0  0  0  0  0  0  0  0  0
   33.7770   30.3860   42.8920 C   0  0  0  0  0  3  0  0  0  0  0  0
   33.9970   29.1030   42.4590 C   0  0  0  0  0  0  0  0  0  0  0  0
   33.1810   28.6050   41.5160 N   0  0  0  0  0  0  0  0  0  0  0  0
   33.3340   27.3460   41.0370 C   0  0  0  0  0  0  0  0  0  0  0  0
   32.6640   26.9400   40.2630 H   0  0  0  0  0  0  0  0  0  0  0  0
   34.3620   26.5350   41.5270 C   0  0  0  0  0  3  0  0  0  0  0  0
   35.2330   27.0000   42.5030 C   0  0  0  0  0  3  0  0  0  0  0  0
   34.9980   28.2830   42.9220 C   0  0  0  0  0  0  0  0  0  0  0  0
   35.7910   28.8800   43.8950 C   0  0  0  0  0  3  0  0  0  0  0  0
  1  2  1  0  0  0  0
  2  3  2  0  0  0  0
  3 11  1  0  0  0  0
  4  3  1  0  0  0  0
  5  4  2  0  0  0  0
  6 12  1  0  0  0  0
  6  5  1  0  0  0  0
  7  6  2  0  0  0  0
  8  7  1  0  0  0  0
  8  9  2  0  0  0  0
  9 10  1  0  0  0  0
 10  1  2  0  0  0  0
 10  5  1  0  0  0  0
 13  7  1  0  0  0  0
 14  8  1  0  0  0  0
 15 26  1  0  0  0  0
 15 16  1  0  0  0  0
 16  1  1  0  0  0  0
 17 16  2  0  0  0  0
 17 27  1  0  0  0  0
 18 17  1  0  0  0  0
 19 20  1  0  0  0  0
 19 18  2  0  0  0  0
 20 15  2  0  0  0  0
 21 19  1  0  0  0  0
 21 22  1  0  0  0  0
 22 29  1  0  0  0  0
 22 28  1  0  0  0  0
 23 30  1  0  0  0  0
 23 31  1  0  0  0  0
 23 22  1  0  0  0  0
 24 25  1  0  0  0  0
 24 23  1  0  0  0  0
 25 35  1  0  0  0  0
 25 21  1  0  0  0  0
 32 24  1  0  0  0  0
 33 24  1  0  0  0  0
 34 25  1  0  0  0  0
 36  9  1  0  0  0  0
 37 38  1  0  0  0  0
 37 36  2  0  0  0  0
 39 37  1  0  0  0  0
 40 39  2  0  0  0  0
 40 46  1  0  0  0  0
 41 40  1  0  0  0  0
 42 41  2  0  0  0  0
 42 44  1  0  0  0  0
 43 42  1  0  0  0  0
 44 45  2  0  0  0  0
 45 46  1  0  0  0  0
 46 47  2  0  0  0  0
 47 36  1  0  0  0  0
M  END
>  <minimizedAffinity>
-4.8025403

>  <minimizedRMSD>
3.4626205

$$$$
