
 OpenBabel03272505273D

 34 37  0  0  0  0  0  0  0  0999 V2000
   37.3710   31.0670   47.1480 N   0  0  0  0  0  0  0  0  0  0  0  0
   36.7650   30.7620   45.9680 C   0  0  0  0  0  0  0  0  0  0  0  0
   37.2130   31.2520   44.7530 C   0  0  0  0  0  0  0  0  0  0  0  0
   38.3420   32.0940   44.7810 C   0  0  0  0  0  0  0  0  0  0  0  0
   38.7820   32.5590   43.7060 O   0  0  0  0  0  0  0  0  0  0  0  0
   38.9510   32.4010   45.9600 N   0  0  0  0  0  0  0  0  0  0  0  0
   38.4220   31.8660   47.0650 C   0  0  0  0  0  0  0  0  0  0  0  0
   39.0080   32.1720   48.1290 O   0  0  0  0  0  0  0  0  0  0  0  0
   35.9110   30.1260   45.9360 H   0  0  0  0  0  0  0  0  0  0  0  0
   36.5600   30.9240   43.4880 C   0  0  0  0  0  0  0  0  0  0  0  0
   36.9800   29.7310   42.8900 C   0  0  0  0  0  0  0  0  0  0  0  0
   37.7350   29.0770   43.3130 H   0  0  0  0  0  0  0  0  0  0  0  0
   36.4460   29.2930   41.6850 C   0  0  0  0  0  3  0  0  0  0  0  0
   35.4770   30.0620   41.0730 C   0  0  0  0  0  0  0  0  0  0  0  0
   34.9170   29.6810   39.8890 N   0  0  0  0  0  0  0  0  0  0  0  0
   33.9720   30.4320   39.2930 C   0  0  0  0  0  0  0  0  0  0  0  0
   33.6250   29.9940   38.3560 H   0  0  0  0  0  0  0  0  0  0  0  0
   33.5440   31.6150   39.8680 C   0  0  0  0  0  3  0  0  0  0  0  0
   34.0950   32.0240   41.0680 C   0  0  0  0  0  3  0  0  0  0  0  0
   35.0620   31.2520   41.6750 C   0  0  0  0  0  0  0  0  0  0  0  0
   35.5900   31.6940   42.8730 C   0  0  0  0  0  3  0  0  0  0  0  0
   37.2630   29.4630   50.4920 C   0  0  0  0  0  0  0  0  0  0  0  0
   37.7390   29.9570   49.2700 C   0  0  0  0  0  0  0  0  0  0  0  0
   36.9050   30.5660   48.3660 C   0  0  0  0  0  0  0  0  0  0  0  0
   35.5940   30.6740   48.6950 N   0  0  0  0  0  0  0  0  0  0  0  0
   35.0990   30.2040   49.8730 C   0  0  0  0  0  0  0  0  0  0  0  0
   35.9310   29.5990   50.7730 N   0  0  0  0  0  0  0  0  0  0  0  0
   37.8670   28.9760   51.2430 H   0  0  0  0  0  0  0  0  0  0  0  0
   38.7800   29.7730   49.1840 H   0  0  0  0  0  0  0  0  0  0  0  0
   34.0410   30.3390   50.0410 H   0  0  0  0  0  0  0  0  0  0  0  0
   40.1110   33.2640   45.9810 C   0  0  0  0  0  0  0  0  0  0  0  0
   39.9780   34.2410   45.0370 F   0  0  0  0  0  0  0  0  0  0  0  0
   41.2930   32.5930   45.7030 F   0  0  0  0  0  0  0  0  0  0  0  0
   40.1890   33.8780   47.2240 F   0  0  0  0  0  0  0  0  0  0  0  0
  1 24  1  0  0  0  0
  2  1  1  0  0  0  0
  3  4  1  0  0  0  0
  3  2  2  0  0  0  0
  4  6  1  0  0  0  0
  5  4  2  0  0  0  0
  6 31  1  0  0  0  0
  6  7  1  0  0  0  0
  7  1  1  0  0  0  0
  7  8  2  0  0  0  0
  9  2  1  0  0  0  0
 10  3  1  0  0  0  0
 11 12  1  0  0  0  0
 11 10  1  0  0  0  0
 13 11  2  0  0  0  0
 14 20  1  0  0  0  0
 14 13  1  0  0  0  0
 15 14  2  0  0  0  0
 16 18  2  0  0  0  0
 16 15  1  0  0  0  0
 17 16  1  0  0  0  0
 18 19  1  0  0  0  0
 19 20  2  0  0  0  0
 20 21  1  0  0  0  0
 21 10  2  0  0  0  0
 22 27  1  0  0  0  0
 22 28  1  0  0  0  0
 23 22  2  0  0  0  0
 24 25  2  0  0  0  0
 24 23  1  0  0  0  0
 25 26  1  0  0  0  0
 26 30  1  0  0  0  0
 26 27  2  0  0  0  0
 29 23  1  0  0  0  0
 31 34  1  0  0  0  0
 32 31  1  0  0  0  0
 33 31  1  0  0  0  0
M  END
>  <minimizedAffinity>
-6.21747684

>  <minimizedRMSD>
0.375812173

$$$$
