
 OpenBabel03272503133D

 49 54  0  0  0  0  0  0  0  0999 V2000
   39.0500   32.2390   42.6070 C   0  0  0  0  0  0  0  0  0  0  0  0
   39.6390   31.5450   43.6510 C   0  0  0  0  0  0  0  0  0  0  0  0
   40.5570   30.5600   43.4650 C   0  0  0  0  0  0  0  0  0  0  0  0
   40.9440   30.2100   42.1760 C   0  0  0  0  0  0  0  0  0  0  0  0
   41.8010   29.3070   41.7050 N   0  0  0  0  0  0  0  0  0  0  0  0
   41.7790   29.4020   40.3700 C   0  0  0  0  0  0  0  0  0  0  0  0
   40.9110   30.3620   40.0070 N   0  0  0  0  0  0  0  0  0  0  0  0
   40.3590   30.9000   41.1290 C   0  0  0  0  0  0  0  0  0  0  0  0
   39.4220   31.9060   41.2970 C   0  0  0  0  0  0  0  0  0  0  0  0
   38.3310   33.0110   42.7540 H   0  0  0  0  0  0  0  0  0  0  0  0
   40.9980   30.0380   44.2960 H   0  0  0  0  0  0  0  0  0  0  0  0
   42.4030   28.6280   42.2260 H   0  0  0  0  0  0  0  0  0  0  0  0
   42.2920   28.8880   39.5870 H   0  0  0  0  0  0  0  0  0  0  0  0
   39.2030   31.9470   44.9750 C   0  0  0  0  0  0  0  0  0  0  0  0
   38.1110   32.5840   45.1240 O   0  0  0  0  0  0  0  0  0  0  0  0
   39.9290   31.6740   46.1790 N   0  0  0  0  0  0  0  0  0  0  0  0
   40.8100   31.1610   46.1090 H   0  0  0  0  0  0  0  0  0  0  0  0
   38.1010   30.1750   47.5100 F   0  0  0  0  0  0  0  0  0  0  0  0
   38.3720   31.4190   48.0170 C   0  0  0  0  0  0  0  0  0  0  0  0
   37.7200   31.8330   49.1450 C   0  0  0  0  0  0  0  0  0  0  0  0
   38.0330   33.0820   49.6020 C   0  0  0  0  0  0  0  0  0  0  0  0
   38.9450   33.8950   48.9820 C   0  0  0  0  0  0  0  0  0  0  0  0
   39.5950   33.4500   47.8360 C   0  0  0  0  0  0  0  0  0  0  0  0
   39.2880   32.1820   47.3580 C   0  0  0  0  0  0  0  0  0  0  0  0
   37.5240   33.4350   50.5030 H   0  0  0  0  0  0  0  0  0  0  0  0
   39.1990   34.8730   49.3270 H   0  0  0  0  0  0  0  0  0  0  0  0
   40.3340   33.9940   47.2550 H   0  0  0  0  0  0  0  0  0  0  0  0
   36.0830   29.3400   51.4730 C   0  0  0  0  0  0  0  0  0  0  0  0
   37.0530   30.2020   50.8990 C   0  0  0  0  0  0  0  0  0  0  0  0
   36.7570   30.9340   49.7700 C   0  0  0  0  0  0  0  0  0  0  0  0
   35.4950   30.7850   49.2370 N   0  0  0  0  0  0  0  0  0  0  0  0
   34.5860   29.9630   49.7940 C   0  0  0  0  0  0  0  0  0  0  0  0
   34.8760   29.2600   50.8850 N   0  0  0  0  0  0  0  0  0  0  0  0
   36.3070   28.7620   52.3590 H   0  0  0  0  0  0  0  0  0  0  0  0
   38.0350   30.2920   51.3470 H   0  0  0  0  0  0  0  0  0  0  0  0
   33.6600   29.9910   49.2260 H   0  0  0  0  0  0  0  0  0  0  0  0
   38.8460   32.5860   40.2480 O   0  0  0  0  0  0  0  0  0  0  0  0
   37.5360   32.9440   40.1130 C   0  0  0  0  0  0  0  0  0  0  0  0
   36.5440   32.1330   40.6640 C   0  0  0  0  0  0  0  0  0  0  0  0
   36.8150   31.2140   41.2020 H   0  0  0  0  0  0  0  0  0  0  0  0
   35.2100   32.4440   40.5590 C   0  0  0  0  0  3  0  0  0  0  0  0
   34.7870   33.5800   39.8990 C   0  0  0  0  0  0  0  0  0  0  0  0
   33.5010   33.9280   39.7680 N   0  0  0  0  0  0  0  0  0  0  0  0
   33.0980   35.0320   39.1250 C   0  0  0  0  0  0  0  0  0  0  0  0
   32.0430   35.3090   39.0240 H   0  0  0  0  0  0  0  0  0  0  0  0
   34.0180   35.9010   38.5440 C   0  0  0  0  0  3  0  0  0  0  0  0
   35.3560   35.5620   38.6670 C   0  0  0  0  0  3  0  0  0  0  0  0
   35.7470   34.4220   39.3310 C   0  0  0  0  0  0  0  0  0  0  0  0
   37.0760   34.0540   39.4710 C   0  0  0  0  0  3  0  0  0  0  0  0
  1 10  1  0  0  0  0
  1  2  1  0  0  0  0
  2 14  1  0  0  0  0
  3  2  2  0  0  0  0
  3 11  1  0  0  0  0
  4  3  1  0  0  0  0
  5  4  1  0  0  0  0
  5 12  1  0  0  0  0
  6  5  1  0  0  0  0
  7  6  2  0  0  0  0
  7  8  1  0  0  0  0
  8  9  1  0  0  0  0
  8  4  2  0  0  0  0
  9  1  2  0  0  0  0
 13  6  1  0  0  0  0
 14 15  2  0  0  0  0
 14 16  1  0  0  0  0
 16 24  1  0  0  0  0
 17 16  1  0  0  0  0
 18 19  1  0  0  0  0
 19 20  1  0  0  0  0
 20 21  2  0  0  0  0
 20 30  1  0  0  0  0
 21 25  1  0  0  0  0
 22 26  1  0  0  0  0
 22 21  1  0  0  0  0
 23 22  2  0  0  0  0
 24 23  1  0  0  0  0
 24 19  2  0  0  0  0
 27 23  1  0  0  0  0
 28 34  1  0  0  0  0
 29 35  1  0  0  0  0
 29 28  1  0  0  0  0
 30 29  2  0  0  0  0
 31 30  1  0  0  0  0
 31 32  2  0  0  0  0
 32 33  1  0  0  0  0
 33 28  2  0  0  0  0
 36 32  1  0  0  0  0
 37  9  1  0  0  0  0
 38 37  1  0  0  0  0
 38 39  1  0  0  0  0
 39 40  1  0  0  0  0
 41 39  2  0  0  0  0
 42 41  1  0  0  0  0
 43 42  1  0  0  0  0
 44 43  2  0  0  0  0
 45 44  1  0  0  0  0
 46 47  2  0  0  0  0
 46 44  1  0  0  0  0
 47 48  1  0  0  0  0
 48 49  1  0  0  0  0
 48 42  2  0  0  0  0
 49 38  2  0  0  0  0
M  END
>  <minimizedAffinity>
-7.65857697

>  <minimizedRMSD>
2.12182021

$$$$
