
 OpenBabel03262523073D

 44 49  0  0  0  0  0  0  0  0999 V2000
   38.4900   26.8140   31.1120 C   0  0  0  0  0  0  0  0  0  0  0  0
   39.1400   26.2250   30.0500 C   0  0  0  0  0  0  0  0  0  0  0  0
   39.8680   25.0960   30.2620 C   0  0  0  0  0  0  0  0  0  0  0  0
   39.9470   24.5610   31.5090 N   0  0  0  0  0  0  0  0  0  0  0  0
   39.3100   25.1500   32.5100 C   0  0  0  0  0  0  0  0  0  0  0  0
   38.5740   26.2760   32.3410 N   0  0  0  0  0  0  0  0  0  0  0  0
   39.0770   26.6480   29.0640 H   0  0  0  0  0  0  0  0  0  0  0  0
   40.4130   24.5630   29.4900 H   0  0  0  0  0  0  0  0  0  0  0  0
   39.3890   24.5830   33.8550 C   0  0  0  0  0  0  0  0  0  0  0  0
   40.2920   23.6080   34.1730 C   0  0  0  0  0  0  0  0  0  0  0  0
   40.4760   22.9880   35.3880 C   0  0  0  0  0  0  0  0  0  0  0  0
   39.6160   23.4380   36.3840 C   0  0  0  0  0  0  0  0  0  0  0  0
   39.7420   22.8710   37.6060 N   0  0  0  0  0  0  0  0  0  0  0  0
   38.9590   23.2310   38.6490 C   0  0  0  0  0  0  0  0  0  0  0  0
   37.9920   24.2210   38.4540 C   0  0  0  0  0  0  0  0  0  0  0  0
   37.8710   24.7970   37.2000 C   0  0  0  0  0  0  0  0  0  0  0  0
   38.6770   24.4200   36.1390 C   0  0  0  0  0  0  0  0  0  0  0  0
   38.5530   24.9990   34.8850 C   0  0  0  0  0  0  0  0  0  0  0  0
   40.9400   23.2930   33.3550 H   0  0  0  0  0  0  0  0  0  0  0  0
   41.2160   22.2330   35.5250 H   0  0  0  0  0  0  0  0  0  0  0  0
   39.1610   22.7010   39.5700 H   0  0  0  0  0  0  0  0  0  0  0  0
   37.3950   24.4780   39.3020 H   0  0  0  0  0  0  0  0  0  0  0  0
   37.1300   25.5580   37.0440 H   0  0  0  0  0  0  0  0  0  0  0  0
   37.8150   25.7680   34.7010 H   0  0  0  0  0  0  0  0  0  0  0  0
   37.0380   29.8950   29.7200 C   0  0  0  0  0  0  0  0  0  0  0  0
   36.1500   30.2870   30.7220 C   0  0  0  0  0  0  0  0  0  0  0  0
   36.0570   29.4810   31.8760 C   0  0  0  0  0  0  0  0  0  0  0  0
   36.8510   28.3810   31.9130 N   0  0  0  0  0  0  0  0  0  0  0  0
   37.6950   28.0300   30.9360 C   0  0  0  0  0  0  0  0  0  0  0  0
   37.7860   28.7900   29.8380 N   0  0  0  0  0  0  0  0  0  0  0  0
   37.1140   30.5150   28.8240 H   0  0  0  0  0  0  0  0  0  0  0  0
   35.5500   31.1690   30.6310 H   0  0  0  0  0  0  0  0  0  0  0  0
   35.1680   29.7950   32.9760 C   0  0  0  0  0  0  0  0  0  0  0  0
   33.8830   29.3180   33.0970 C   0  0  0  0  0  0  0  0  0  0  0  0
   33.4810   28.6640   32.3380 H   0  0  0  0  0  0  0  0  0  0  0  0
   33.0950   29.6690   34.1890 C   0  0  0  0  0  3  0  0  0  0  0  0
   33.5510   30.4930   35.1800 C   0  0  0  0  0  0  0  0  0  0  0  0
   32.8620   30.8820   36.2630 N   0  0  0  0  0  0  0  0  0  0  0  0
   33.4030   31.7080   37.2010 C   0  0  0  0  0  0  0  0  0  0  0  0
   32.8160   32.0000   38.0610 H   0  0  0  0  0  0  0  0  0  0  0  0
   34.6920   32.2070   37.1110 C   0  0  0  0  0  3  0  0  0  0  0  0
   35.4150   31.8180   36.0030 C   0  0  0  0  0  3  0  0  0  0  0  0
   34.8490   30.9790   35.0640 C   0  0  0  0  0  0  0  0  0  0  0  0
   35.6210   30.6250   33.9770 C   0  0  0  0  0  3  0  0  0  0  0  0
  1  6  1  0  0  0  0
  2  3  1  0  0  0  0
  2  1  2  0  0  0  0
  3  4  2  0  0  0  0
  4  5  1  0  0  0  0
  5  9  1  0  0  0  0
  6  5  2  0  0  0  0
  7  2  1  0  0  0  0
  8  3  1  0  0  0  0
  9 10  2  0  0  0  0
  9 18  1  0  0  0  0
 10 11  1  0  0  0  0
 11 20  1  0  0  0  0
 11 12  2  0  0  0  0
 12 13  1  0  0  0  0
 13 14  2  0  0  0  0
 14 21  1  0  0  0  0
 15 14  1  0  0  0  0
 15 22  1  0  0  0  0
 16 15  2  0  0  0  0
 17 12  1  0  0  0  0
 17 16  1  0  0  0  0
 18 17  2  0  0  0  0
 19 10  1  0  0  0  0
 23 16  1  0  0  0  0
 24 18  1  0  0  0  0
 25 30  2  0  0  0  0
 25 26  1  0  0  0  0
 26 27  2  0  0  0  0
 27 28  1  0  0  0  0
 27 33  1  0  0  0  0
 29  1  1  0  0  0  0
 29 28  2  0  0  0  0
 30 29  1  0  0  0  0
 31 25  1  0  0  0  0
 32 26  1  0  0  0  0
 33 34  2  0  0  0  0
 33 44  1  0  0  0  0
 34 36  1  0  0  0  0
 35 34  1  0  0  0  0
 36 37  2  0  0  0  0
 37 38  1  0  0  0  0
 38 39  2  0  0  0  0
 39 40  1  0  0  0  0
 41 39  1  0  0  0  0
 42 41  2  0  0  0  0
 43 37  1  0  0  0  0
 43 42  1  0  0  0  0
 44 43  2  0  0  0  0
M  END
>  <minimizedAffinity>
-7.58692884

$$$$

 OpenBabel03262523073D

 44 49  0  0  0  0  0  0  0  0999 V2000
   36.7220   25.3550   31.7950 C   0  0  0  0  0  0  0  0  0  0  0  0
   36.1180   24.4280   30.9740 C   0  0  0  0  0  0  0  0  0  0  0  0
   36.2980   23.1040   31.2250 C   0  0  0  0  0  0  0  0  0  0  0  0
   37.0660   22.7080   32.2750 N   0  0  0  0  0  0  0  0  0  0  0  0
   37.6330   23.6240   33.0460 C   0  0  0  0  0  0  0  0  0  0  0  0
   37.4790   24.9530   32.8310 N   0  0  0  0  0  0  0  0  0  0  0  0
   35.5120   24.7420   30.1440 H   0  0  0  0  0  0  0  0  0  0  0  0
   35.8650   22.3040   30.6350 H   0  0  0  0  0  0  0  0  0  0  0  0
   38.4600   23.2080   34.1770 C   0  0  0  0  0  0  0  0  0  0  0  0
   38.0760   23.4320   35.4700 C   0  0  0  0  0  0  0  0  0  0  0  0
   38.7490   23.0980   36.6230 C   0  0  0  0  0  0  0  0  0  0  0  0
   39.9630   22.4570   36.3990 C   0  0  0  0  0  0  0  0  0  0  0  0
   40.6790   22.0990   37.4910 N   0  0  0  0  0  0  0  0  0  0  0  0
   41.8740   21.4720   37.3920 C   0  0  0  0  0  0  0  0  0  0  0  0
   42.3800   21.1850   36.1210 C   0  0  0  0  0  0  0  0  0  0  0  0
   41.6400   21.5540   35.0100 C   0  0  0  0  0  0  0  0  0  0  0  0
   40.4190   22.1970   35.1210 C   0  0  0  0  0  0  0  0  0  0  0  0
   39.6810   22.5650   34.0070 C   0  0  0  0  0  0  0  0  0  0  0  0
   37.1170   23.9360   35.5870 H   0  0  0  0  0  0  0  0  0  0  0  0
   38.3540   23.3220   37.5870 H   0  0  0  0  0  0  0  0  0  0  0  0
   42.3430   21.2420   38.3390 H   0  0  0  0  0  0  0  0  0  0  0  0
   43.3250   20.6880   36.0850 H   0  0  0  0  0  0  0  0  0  0  0  0
   42.0230   21.3360   34.0310 H   0  0  0  0  0  0  0  0  0  0  0  0
   40.0440   22.3570   33.0100 H   0  0  0  0  0  0  0  0  0  0  0  0
   36.9420   28.7340   30.3540 C   0  0  0  0  0  0  0  0  0  0  0  0
   36.1800   29.4900   31.2450 C   0  0  0  0  0  0  0  0  0  0  0  0
   35.5930   28.8260   32.3420 C   0  0  0  0  0  0  0  0  0  0  0  0
   35.8230   27.4920   32.4370 N   0  0  0  0  0  0  0  0  0  0  0  0
   36.5600   26.7920   31.5660 C   0  0  0  0  0  0  0  0  0  0  0  0
   37.1190   27.4170   30.5230 N   0  0  0  0  0  0  0  0  0  0  0  0
   37.4000   29.2440   29.5030 H   0  0  0  0  0  0  0  0  0  0  0  0
   36.0360   30.5430   31.1140 H   0  0  0  0  0  0  0  0  0  0  0  0
   34.7820   29.5140   33.3270 C   0  0  0  0  0  0  0  0  0  0  0  0
   33.4100   29.4410   33.3920 C   0  0  0  0  0  0  0  0  0  0  0  0
   32.8710   28.8410   32.6750 H   0  0  0  0  0  0  0  0  0  0  0  0
   32.7080   30.1350   34.3730 C   0  0  0  0  0  3  0  0  0  0  0  0
   33.3370   30.9100   35.3070 C   0  0  0  0  0  0  0  0  0  0  0  0
   32.7410   31.6100   36.2830 N   0  0  0  0  0  0  0  0  0  0  0  0
   33.4550   32.3560   37.1710 C   0  0  0  0  0  0  0  0  0  0  0  0
   32.9390   32.9080   37.9450 H   0  0  0  0  0  0  0  0  0  0  0  0
   34.8350   32.4520   37.1350 C   0  0  0  0  0  3  0  0  0  0  0  0
   35.4660   31.7390   36.1370 C   0  0  0  0  0  3  0  0  0  0  0  0
   34.7240   30.9870   35.2470 C   0  0  0  0  0  0  0  0  0  0  0  0
   35.4110   30.2960   34.2700 C   0  0  0  0  0  3  0  0  0  0  0  0
  1  6  1  0  0  0  0
  2  3  1  0  0  0  0
  2  1  2  0  0  0  0
  3  4  2  0  0  0  0
  4  5  1  0  0  0  0
  5  9  1  0  0  0  0
  6  5  2  0  0  0  0
  7  2  1  0  0  0  0
  8  3  1  0  0  0  0
  9 10  1  0  0  0  0
 10 19  1  0  0  0  0
 10 11  2  0  0  0  0
 11 20  1  0  0  0  0
 12 11  1  0  0  0  0
 12 13  1  0  0  0  0
 14 13  2  0  0  0  0
 14 21  1  0  0  0  0
 15 14  1  0  0  0  0
 16 17  1  0  0  0  0
 16 15  2  0  0  0  0
 17 12  2  0  0  0  0
 18  9  2  0  0  0  0
 18 17  1  0  0  0  0
 22 15  1  0  0  0  0
 23 16  1  0  0  0  0
 24 18  1  0  0  0  0
 25 30  2  0  0  0  0
 25 26  1  0  0  0  0
 26 27  2  0  0  0  0
 27 28  1  0  0  0  0
 27 33  1  0  0  0  0
 29  1  1  0  0  0  0
 29 28  2  0  0  0  0
 30 29  1  0  0  0  0
 31 25  1  0  0  0  0
 32 26  1  0  0  0  0
 33 34  2  0  0  0  0
 33 44  1  0  0  0  0
 34 36  1  0  0  0  0
 35 34  1  0  0  0  0
 36 37  2  0  0  0  0
 37 38  1  0  0  0  0
 38 39  2  0  0  0  0
 39 40  1  0  0  0  0
 41 39  1  0  0  0  0
 42 41  2  0  0  0  0
 43 37  1  0  0  0  0
 43 42  1  0  0  0  0
 44 43  2  0  0  0  0
M  END
>  <minimizedAffinity>
-7.50066328

$$$$

 OpenBabel03262523073D

 44 49  0  0  0  0  0  0  0  0999 V2000
   37.7470   27.8950   31.0840 C   0  0  0  0  0  0  0  0  0  0  0  0
   37.9340   28.7590   30.0270 C   0  0  0  0  0  0  0  0  0  0  0  0
   37.2860   29.9540   30.0260 C   0  0  0  0  0  0  0  0  0  0  0  0
   36.4670   30.2860   31.0580 N   0  0  0  0  0  0  0  0  0  0  0  0
   36.3070   29.4350   32.0610 C   0  0  0  0  0  0  0  0  0  0  0  0
   36.9340   28.2340   32.1000 N   0  0  0  0  0  0  0  0  0  0  0  0
   38.5820   28.4960   29.2110 H   0  0  0  0  0  0  0  0  0  0  0  0
   37.3700   30.6970   29.2400 H   0  0  0  0  0  0  0  0  0  0  0  0
   35.4280   29.7820   33.1760 C   0  0  0  0  0  0  0  0  0  0  0  0
   34.1790   29.2430   33.3010 C   0  0  0  0  0  0  0  0  0  0  0  0
   33.2510   29.4780   34.2910 C   0  0  0  0  0  0  0  0  0  0  0  0
   33.6800   30.3800   35.2600 C   0  0  0  0  0  0  0  0  0  0  0  0
   32.8170   30.6580   36.2650 N   0  0  0  0  0  0  0  0  0  0  0  0
   33.1280   31.5190   37.2600 C   0  0  0  0  0  0  0  0  0  0  0  0
   34.3800   32.1390   37.2470 C   0  0  0  0  0  0  0  0  0  0  0  0
   35.2570   31.8480   36.2150 C   0  0  0  0  0  0  0  0  0  0  0  0
   34.9290   30.9650   35.2000 C   0  0  0  0  0  0  0  0  0  0  0  0
   35.8090   30.6770   34.1690 C   0  0  0  0  0  0  0  0  0  0  0  0
   33.8950   28.5440   32.5150 H   0  0  0  0  0  0  0  0  0  0  0  0
   32.2980   29.0000   34.2910 H   0  0  0  0  0  0  0  0  0  0  0  0
   32.3510   31.6530   38.0010 H   0  0  0  0  0  0  0  0  0  0  0  0
   34.5880   32.8120   38.0510 H   0  0  0  0  0  0  0  0  0  0  0  0
   36.2210   32.3210   36.2000 H   0  0  0  0  0  0  0  0  0  0  0  0
   36.7860   31.1390   34.1300 H   0  0  0  0  0  0  0  0  0  0  0  0
   39.4540   24.7810   30.1200 C   0  0  0  0  0  0  0  0  0  0  0  0
   39.6730   24.1660   31.3520 C   0  0  0  0  0  0  0  0  0  0  0  0
   39.2280   24.8320   32.5130 C   0  0  0  0  0  0  0  0  0  0  0  0
   38.6180   26.0300   32.3280 N   0  0  0  0  0  0  0  0  0  0  0  0
   38.4210   26.5970   31.1320 C   0  0  0  0  0  0  0  0  0  0  0  0
   38.8410   25.9690   30.0270 N   0  0  0  0  0  0  0  0  0  0  0  0
   39.7960   24.2690   29.2180 H   0  0  0  0  0  0  0  0  0  0  0  0
   40.1630   23.2170   31.4310 H   0  0  0  0  0  0  0  0  0  0  0  0
   39.4050   24.2840   33.8430 C   0  0  0  0  0  0  0  0  0  0  0  0
   40.3270   23.3170   34.1680 C   0  0  0  0  0  0  0  0  0  0  0  0
   40.9780   22.9190   33.4050 H   0  0  0  0  0  0  0  0  0  0  0  0
   40.4310   22.8450   35.4730 C   0  0  0  0  0  3  0  0  0  0  0  0
   39.6330   23.3120   36.4810 C   0  0  0  0  0  0  0  0  0  0  0  0
   39.6650   22.9140   37.7620 N   0  0  0  0  0  0  0  0  0  0  0  0
   38.8280   23.4400   38.6980 C   0  0  0  0  0  0  0  0  0  0  0  0
   38.8830   23.0940   39.7220 H   0  0  0  0  0  0  0  0  0  0  0  0
   37.8880   24.4130   38.4060 C   0  0  0  0  0  3  0  0  0  0  0  0
   37.8410   24.8340   37.0940 C   0  0  0  0  0  3  0  0  0  0  0  0
   38.6990   24.2890   36.1590 C   0  0  0  0  0  0  0  0  0  0  0  0
   38.6040   24.7500   34.8620 C   0  0  0  0  0  3  0  0  0  0  0  0
  1 29  1  0  0  0  0
  1  6  1  0  0  0  0
  2  1  2  0  0  0  0
  3  2  1  0  0  0  0
  3  4  2  0  0  0  0
  4  5  1  0  0  0  0
  5  6  2  0  0  0  0
  5  9  1  0  0  0  0
  7  2  1  0  0  0  0
  8  3  1  0  0  0  0
  9 10  2  0  0  0  0
  9 18  1  0  0  0  0
 10 11  1  0  0  0  0
 11 12  2  0  0  0  0
 12 13  1  0  0  0  0
 13 14  2  0  0  0  0
 14 21  1  0  0  0  0
 15 14  1  0  0  0  0
 15 22  1  0  0  0  0
 16 15  2  0  0  0  0
 17 12  1  0  0  0  0
 17 16  1  0  0  0  0
 18 17  2  0  0  0  0
 19 10  1  0  0  0  0
 20 11  1  0  0  0  0
 23 16  1  0  0  0  0
 24 18  1  0  0  0  0
 25 26  1  0  0  0  0
 26 32  1  0  0  0  0
 26 27  2  0  0  0  0
 27 33  1  0  0  0  0
 28 27  1  0  0  0  0
 29 28  2  0  0  0  0
 30 25  2  0  0  0  0
 30 29  1  0  0  0  0
 31 25  1  0  0  0  0
 33 34  2  0  0  0  0
 33 44  1  0  0  0  0
 34 36  1  0  0  0  0
 35 34  1  0  0  0  0
 36 37  2  0  0  0  0
 37 38  1  0  0  0  0
 38 39  2  0  0  0  0
 39 40  1  0  0  0  0
 41 39  1  0  0  0  0
 42 41  2  0  0  0  0
 43 37  1  0  0  0  0
 43 42  1  0  0  0  0
 44 43  2  0  0  0  0
M  END
>  <minimizedAffinity>
-7.455163

$$$$

 OpenBabel03262523073D

 44 49  0  0  0  0  0  0  0  0999 V2000
   36.7960   26.8240   31.7430 C   0  0  0  0  0  0  0  0  0  0  0  0
   37.3840   27.4940   30.6920 C   0  0  0  0  0  0  0  0  0  0  0  0
   37.2190   28.8390   30.5880 C   0  0  0  0  0  0  0  0  0  0  0  0
   36.4820   29.5080   31.5150 N   0  0  0  0  0  0  0  0  0  0  0  0
   35.9300   28.8360   32.5140 C   0  0  0  0  0  0  0  0  0  0  0  0
   36.0700   27.4950   32.6530 N   0  0  0  0  0  0  0  0  0  0  0  0
   37.9660   26.9650   29.9600 H   0  0  0  0  0  0  0  0  0  0  0  0
   37.6410   29.4500   29.7980 H   0  0  0  0  0  0  0  0  0  0  0  0
   35.1360   29.5460   33.5150 C   0  0  0  0  0  0  0  0  0  0  0  0
   33.7790   29.4050   33.5890 C   0  0  0  0  0  0  0  0  0  0  0  0
   32.9120   30.0070   34.4730 C   0  0  0  0  0  0  0  0  0  0  0  0
   33.5360   30.8540   35.3830 C   0  0  0  0  0  0  0  0  0  0  0  0
   32.7430   31.4810   36.2830 N   0  0  0  0  0  0  0  0  0  0  0  0
   33.2420   32.3270   37.2130 C   0  0  0  0  0  0  0  0  0  0  0  0
   34.6200   32.5570   37.2430 C   0  0  0  0  0  0  0  0  0  0  0  0
   35.4240   31.9110   36.3190 C   0  0  0  0  0  0  0  0  0  0  0  0
   34.9040   31.0480   35.3700 C   0  0  0  0  0  0  0  0  0  0  0  0
   35.7110   30.4030   34.4470 C   0  0  0  0  0  0  0  0  0  0  0  0
   33.3420   28.7300   32.8530 H   0  0  0  0  0  0  0  0  0  0  0  0
   31.8620   29.8250   34.4410 H   0  0  0  0  0  0  0  0  0  0  0  0
   32.5020   32.7610   37.8720 H   0  0  0  0  0  0  0  0  0  0  0  0
   34.9750   33.2310   37.9940 H   0  0  0  0  0  0  0  0  0  0  0  0
   36.4830   32.0840   36.3370 H   0  0  0  0  0  0  0  0  0  0  0  0
   36.7820   30.5600   34.4430 H   0  0  0  0  0  0  0  0  0  0  0  0
   36.6000   23.1900   31.1960 C   0  0  0  0  0  0  0  0  0  0  0  0
   37.2890   22.6840   32.2980 C   0  0  0  0  0  0  0  0  0  0  0  0
   37.8190   23.6040   33.2270 C   0  0  0  0  0  0  0  0  0  0  0  0
   37.6110   24.9190   32.9650 N   0  0  0  0  0  0  0  0  0  0  0  0
   36.9440   25.3760   31.8980 C   0  0  0  0  0  0  0  0  0  0  0  0
   36.4390   24.5080   31.0130 N   0  0  0  0  0  0  0  0  0  0  0  0
   36.1870   22.4830   30.4740 H   0  0  0  0  0  0  0  0  0  0  0  0
   37.4200   21.6320   32.4480 H   0  0  0  0  0  0  0  0  0  0  0  0
   38.5520   23.1870   34.4060 C   0  0  0  0  0  0  0  0  0  0  0  0
   38.1150   23.3710   35.6970 C   0  0  0  0  0  0  0  0  0  0  0  0
   37.1680   23.8550   35.8790 H   0  0  0  0  0  0  0  0  0  0  0  0
   38.8830   22.9380   36.7740 C   0  0  0  0  0  3  0  0  0  0  0  0
   40.0900   22.3190   36.6050 C   0  0  0  0  0  0  0  0  0  0  0  0
   40.8920   21.8730   37.5830 N   0  0  0  0  0  0  0  0  0  0  0  0
   42.0810   21.2660   37.3160 C   0  0  0  0  0  0  0  0  0  0  0  0
   42.7020   20.9190   38.1320 H   0  0  0  0  0  0  0  0  0  0  0  0
   42.5510   21.0650   36.0290 C   0  0  0  0  0  3  0  0  0  0  0  0
   41.7400   21.5180   35.0110 C   0  0  0  0  0  3  0  0  0  0  0  0
   40.5370   22.1300   35.3020 C   0  0  0  0  0  0  0  0  0  0  0  0
   39.7690   22.5630   34.2420 C   0  0  0  0  0  3  0  0  0  0  0  0
  1 29  1  0  0  0  0
  1  6  1  0  0  0  0
  2  1  2  0  0  0  0
  3  2  1  0  0  0  0
  3  4  2  0  0  0  0
  4  5  1  0  0  0  0
  5  6  2  0  0  0  0
  5  9  1  0  0  0  0
  7  2  1  0  0  0  0
  8  3  1  0  0  0  0
  9 10  2  0  0  0  0
  9 18  1  0  0  0  0
 10 11  1  0  0  0  0
 11 12  2  0  0  0  0
 12 13  1  0  0  0  0
 13 14  2  0  0  0  0
 14 15  1  0  0  0  0
 14 21  1  0  0  0  0
 15 22  1  0  0  0  0
 16 23  1  0  0  0  0
 16 15  2  0  0  0  0
 17 12  1  0  0  0  0
 17 16  1  0  0  0  0
 18 17  2  0  0  0  0
 19 10  1  0  0  0  0
 20 11  1  0  0  0  0
 24 18  1  0  0  0  0
 25 26  1  0  0  0  0
 26 32  1  0  0  0  0
 26 27  2  0  0  0  0
 27 33  1  0  0  0  0
 28 27  1  0  0  0  0
 29 28  2  0  0  0  0
 30 25  2  0  0  0  0
 30 29  1  0  0  0  0
 31 25  1  0  0  0  0
 33 34  1  0  0  0  0
 34 35  1  0  0  0  0
 34 36  2  0  0  0  0
 37 36  1  0  0  0  0
 37 38  1  0  0  0  0
 39 38  2  0  0  0  0
 39 40  1  0  0  0  0
 41 39  1  0  0  0  0
 42 43  1  0  0  0  0
 42 41  2  0  0  0  0
 43 37  2  0  0  0  0
 44 33  2  0  0  0  0
 44 43  1  0  0  0  0
M  END
>  <minimizedAffinity>
-7.4111824

$$$$

 OpenBabel03262523073D

 44 49  0  0  0  0  0  0  0  0999 V2000
   37.8670   26.1310   33.8400 C   0  0  0  0  0  0  0  0  0  0  0  0
   38.6650   26.1990   34.9620 C   0  0  0  0  0  0  0  0  0  0  0  0
   39.1910   25.0530   35.4710 C   0  0  0  0  0  0  0  0  0  0  0  0
   38.9290   23.8600   34.8750 N   0  0  0  0  0  0  0  0  0  0  0  0
   38.1580   23.8270   33.7980 C   0  0  0  0  0  0  0  0  0  0  0  0
   37.6150   24.9460   33.2590 N   0  0  0  0  0  0  0  0  0  0  0  0
   38.8720   27.1430   35.4320 H   0  0  0  0  0  0  0  0  0  0  0  0
   39.8280   25.0080   36.3480 H   0  0  0  0  0  0  0  0  0  0  0  0
   37.8700   22.5490   33.1500 C   0  0  0  0  0  0  0  0  0  0  0  0
   38.6420   22.0700   32.1290 C   0  0  0  0  0  0  0  0  0  0  0  0
   38.4890   20.8930   31.4330 C   0  0  0  0  0  0  0  0  0  0  0  0
   37.4040   20.1290   31.8510 C   0  0  0  0  0  0  0  0  0  0  0  0
   37.1940   18.9560   31.2090 N   0  0  0  0  0  0  0  0  0  0  0  0
   36.1700   18.1340   31.5330 C   0  0  0  0  0  0  0  0  0  0  0  0
   35.3050   18.5110   32.5640 C   0  0  0  0  0  0  0  0  0  0  0  0
   35.5280   19.7120   33.2160 C   0  0  0  0  0  0  0  0  0  0  0  0
   36.5790   20.5470   32.8770 C   0  0  0  0  0  0  0  0  0  0  0  0
   36.7990   21.7480   33.5320 C   0  0  0  0  0  0  0  0  0  0  0  0
   39.4770   22.7080   31.8420 H   0  0  0  0  0  0  0  0  0  0  0  0
   39.1540   20.6160   30.6470 H   0  0  0  0  0  0  0  0  0  0  0  0
   36.1130   17.2290   30.9430 H   0  0  0  0  0  0  0  0  0  0  0  0
   34.5090   17.8340   32.7900 H   0  0  0  0  0  0  0  0  0  0  0  0
   34.8670   20.0070   34.0090 H   0  0  0  0  0  0  0  0  0  0  0  0
   36.1480   22.0690   34.3340 H   0  0  0  0  0  0  0  0  0  0  0  0
   36.9850   28.8390   31.5100 C   0  0  0  0  0  0  0  0  0  0  0  0
   36.1060   29.6120   32.2680 C   0  0  0  0  0  0  0  0  0  0  0  0
   35.8230   29.1920   33.5840 C   0  0  0  0  0  0  0  0  0  0  0  0
   36.4370   28.0580   34.0050 N   0  0  0  0  0  0  0  0  0  0  0  0
   37.2770   27.3360   33.2540 C   0  0  0  0  0  0  0  0  0  0  0  0
   37.5500   27.7280   32.0040 N   0  0  0  0  0  0  0  0  0  0  0  0
   37.2090   29.1590   30.4900 H   0  0  0  0  0  0  0  0  0  0  0  0
   35.6530   30.4990   31.8760 H   0  0  0  0  0  0  0  0  0  0  0  0
   34.9250   29.9210   34.4580 C   0  0  0  0  0  0  0  0  0  0  0  0
   33.6200   29.5610   34.7050 C   0  0  0  0  0  0  0  0  0  0  0  0
   33.2070   28.6840   34.2300 H   0  0  0  0  0  0  0  0  0  0  0  0
   32.8250   30.3180   35.5600 C   0  0  0  0  0  3  0  0  0  0  0  0
   33.2940   31.4390   36.1880 C   0  0  0  0  0  0  0  0  0  0  0  0
   32.5990   32.2240   37.0250 N   0  0  0  0  0  0  0  0  0  0  0  0
   33.1540   33.3230   37.6050 C   0  0  0  0  0  0  0  0  0  0  0  0
   32.5630   33.9330   38.2750 H   0  0  0  0  0  0  0  0  0  0  0  0
   34.4630   33.7130   37.3800 C   0  0  0  0  0  3  0  0  0  0  0  0
   35.1930   32.9180   36.5220 C   0  0  0  0  0  3  0  0  0  0  0  0
   34.6120   31.8060   35.9430 C   0  0  0  0  0  0  0  0  0  0  0  0
   35.3910   31.0500   35.0930 C   0  0  0  0  0  3  0  0  0  0  0  0
  1  2  1  0  0  0  0
  2  7  1  0  0  0  0
  2  3  2  0  0  0  0
  3  8  1  0  0  0  0
  4  3  1  0  0  0  0
  5  4  2  0  0  0  0
  6  5  1  0  0  0  0
  6  1  2  0  0  0  0
  9 18  1  0  0  0  0
  9  5  1  0  0  0  0
 10  9  2  0  0  0  0
 11 12  2  0  0  0  0
 11 10  1  0  0  0  0
 12 17  1  0  0  0  0
 13 14  2  0  0  0  0
 13 12  1  0  0  0  0
 14 15  1  0  0  0  0
 15 22  1  0  0  0  0
 15 16  2  0  0  0  0
 16 23  1  0  0  0  0
 17 16  1  0  0  0  0
 17 18  2  0  0  0  0
 18 24  1  0  0  0  0
 19 10  1  0  0  0  0
 20 11  1  0  0  0  0
 21 14  1  0  0  0  0
 25 30  2  0  0  0  0
 25 26  1  0  0  0  0
 26 27  2  0  0  0  0
 27 28  1  0  0  0  0
 27 33  1  0  0  0  0
 29  1  1  0  0  0  0
 29 28  2  0  0  0  0
 30 29  1  0  0  0  0
 31 25  1  0  0  0  0
 32 26  1  0  0  0  0
 33 34  2  0  0  0  0
 33 44  1  0  0  0  0
 34 36  1  0  0  0  0
 35 34  1  0  0  0  0
 36 37  2  0  0  0  0
 37 38  1  0  0  0  0
 38 39  2  0  0  0  0
 39 40  1  0  0  0  0
 41 39  1  0  0  0  0
 42 41  2  0  0  0  0
 43 37  1  0  0  0  0
 43 42  1  0  0  0  0
 44 43  2  0  0  0  0
M  END
>  <minimizedAffinity>
-7.315135

$$$$

 OpenBabel03262523073D

 44 49  0  0  0  0  0  0  0  0999 V2000
   36.2940   28.4570   31.8190 C   0  0  0  0  0  0  0  0  0  0  0  0
   36.7880   29.1820   30.7570 C   0  0  0  0  0  0  0  0  0  0  0  0
   36.7440   30.5410   30.8050 C   0  0  0  0  0  0  0  0  0  0  0  0
   36.2170   31.1670   31.8900 N   0  0  0  0  0  0  0  0  0  0  0  0
   35.7490   30.4420   32.8950 C   0  0  0  0  0  0  0  0  0  0  0  0
   35.7750   29.0870   32.8880 N   0  0  0  0  0  0  0  0  0  0  0  0
   37.2050   28.6870   29.8990 H   0  0  0  0  0  0  0  0  0  0  0  0
   37.1070   31.1940   30.0190 H   0  0  0  0  0  0  0  0  0  0  0  0
   35.1810   31.1060   34.0670 C   0  0  0  0  0  0  0  0  0  0  0  0
   34.2460   30.4970   34.8560 C   0  0  0  0  0  0  0  0  0  0  0  0
   33.6300   30.9990   35.9800 C   0  0  0  0  0  0  0  0  0  0  0  0
   34.0380   32.2850   36.3160 C   0  0  0  0  0  0  0  0  0  0  0  0
   33.4720   32.8420   37.4130 N   0  0  0  0  0  0  0  0  0  0  0  0
   33.7920   34.0870   37.8320 C   0  0  0  0  0  0  0  0  0  0  0  0
   34.7390   34.8180   37.1090 C   0  0  0  0  0  0  0  0  0  0  0  0
   35.3140   34.2400   35.9890 C   0  0  0  0  0  0  0  0  0  0  0  0
   34.9780   32.9650   35.5670 C   0  0  0  0  0  0  0  0  0  0  0  0
   35.5550   32.3900   34.4460 C   0  0  0  0  0  0  0  0  0  0  0  0
   33.9630   29.4910   34.5460 H   0  0  0  0  0  0  0  0  0  0  0  0
   32.9090   30.4330   36.5240 H   0  0  0  0  0  0  0  0  0  0  0  0
   33.2690   34.4140   38.7210 H   0  0  0  0  0  0  0  0  0  0  0  0
   34.9660   35.7970   37.4730 H   0  0  0  0  0  0  0  0  0  0  0  0
   36.0420   34.7970   35.4290 H   0  0  0  0  0  0  0  0  0  0  0  0
   36.2910   32.9290   33.8640 H   0  0  0  0  0  0  0  0  0  0  0  0
   35.5450   24.9290   31.0900 C   0  0  0  0  0  0  0  0  0  0  0  0
   36.4640   24.2550   31.8950 C   0  0  0  0  0  0  0  0  0  0  0  0
   37.3390   25.0260   32.6870 C   0  0  0  0  0  0  0  0  0  0  0  0
   37.2110   26.3740   32.5970 N   0  0  0  0  0  0  0  0  0  0  0  0
   36.3190   26.9930   31.8150 C   0  0  0  0  0  0  0  0  0  0  0  0
   35.4850   26.2670   31.0610 N   0  0  0  0  0  0  0  0  0  0  0  0
   34.8640   24.3370   30.4750 H   0  0  0  0  0  0  0  0  0  0  0  0
   36.5150   23.1860   31.9200 H   0  0  0  0  0  0  0  0  0  0  0  0
   38.3320   24.4290   33.5580 C   0  0  0  0  0  0  0  0  0  0  0  0
   39.5760   24.0100   33.1460 C   0  0  0  0  0  0  0  0  0  0  0  0
   39.8620   24.1180   32.1110 H   0  0  0  0  0  0  0  0  0  0  0  0
   40.4710   23.4460   34.0510 C   0  0  0  0  0  3  0  0  0  0  0  0
   40.1630   23.2850   35.3740 C   0  0  0  0  0  0  0  0  0  0  0  0
   40.9620   22.7530   36.3100 N   0  0  0  0  0  0  0  0  0  0  0  0
   40.5660   22.6330   37.6080 C   0  0  0  0  0  0  0  0  0  0  0  0
   41.2390   22.1990   38.3360 H   0  0  0  0  0  0  0  0  0  0  0  0
   39.3230   23.0440   38.0570 C   0  0  0  0  0  3  0  0  0  0  0  0
   38.4880   23.5930   37.1070 C   0  0  0  0  0  3  0  0  0  0  0  0
   38.9080   23.7070   35.7960 C   0  0  0  0  0  0  0  0  0  0  0  0
   38.0280   24.2630   34.8910 C   0  0  0  0  0  3  0  0  0  0  0  0
  1  6  1  0  0  0  0
  2  3  1  0  0  0  0
  2  1  2  0  0  0  0
  3  4  2  0  0  0  0
  4  5  1  0  0  0  0
  5  9  1  0  0  0  0
  6  5  2  0  0  0  0
  7  2  1  0  0  0  0
  8  3  1  0  0  0  0
  9 18  2  0  0  0  0
  9 10  1  0  0  0  0
 10 11  2  0  0  0  0
 11 12  1  0  0  0  0
 11 20  1  0  0  0  0
 12 13  1  0  0  0  0
 13 14  2  0  0  0  0
 14 21  1  0  0  0  0
 15 22  1  0  0  0  0
 15 14  1  0  0  0  0
 16 15  2  0  0  0  0
 17 16  1  0  0  0  0
 17 12  2  0  0  0  0
 18 17  1  0  0  0  0
 19 10  1  0  0  0  0
 23 16  1  0  0  0  0
 24 18  1  0  0  0  0
 25 26  1  0  0  0  0
 26 32  1  0  0  0  0
 26 27  2  0  0  0  0
 27 33  1  0  0  0  0
 28 27  1  0  0  0  0
 29  1  1  0  0  0  0
 29 28  2  0  0  0  0
 30 25  2  0  0  0  0
 30 29  1  0  0  0  0
 31 25  1  0  0  0  0
 33 44  1  0  0  0  0
 34 33  2  0  0  0  0
 34 36  1  0  0  0  0
 35 34  1  0  0  0  0
 36 37  2  0  0  0  0
 37 43  1  0  0  0  0
 37 38  1  0  0  0  0
 38 39  2  0  0  0  0
 39 41  1  0  0  0  0
 39 40  1  0  0  0  0
 42 41  2  0  0  0  0
 43 42  1  0  0  0  0
 44 43  2  0  0  0  0
M  END
>  <minimizedAffinity>
-7.28075075

$$$$

 OpenBabel03262523073D

 44 49  0  0  0  0  0  0  0  0999 V2000
   37.0940   27.1490   33.7550 C   0  0  0  0  0  0  0  0  0  0  0  0
   37.2070   27.3150   32.3920 C   0  0  0  0  0  0  0  0  0  0  0  0
   36.6720   28.4220   31.8130 C   0  0  0  0  0  0  0  0  0  0  0  0
   36.0360   29.3500   32.5760 N   0  0  0  0  0  0  0  0  0  0  0  0
   35.9430   29.1630   33.8840 C   0  0  0  0  0  0  0  0  0  0  0  0
   36.4630   28.0730   34.5000 N   0  0  0  0  0  0  0  0  0  0  0  0
   37.7100   26.5810   31.7890 H   0  0  0  0  0  0  0  0  0  0  0  0
   36.7100   28.6380   30.7510 H   0  0  0  0  0  0  0  0  0  0  0  0
   35.2620   30.1550   34.7130 C   0  0  0  0  0  0  0  0  0  0  0  0
   35.9510   31.0030   35.5340 C   0  0  0  0  0  0  0  0  0  0  0  0
   35.4440   31.9770   36.3630 C   0  0  0  0  0  0  0  0  0  0  0  0
   34.0570   32.0760   36.3310 C   0  0  0  0  0  0  0  0  0  0  0  0
   33.4890   33.0150   37.1230 N   0  0  0  0  0  0  0  0  0  0  0  0
   32.1500   33.1990   37.1720 C   0  0  0  0  0  0  0  0  0  0  0  0
   31.3310   32.3930   36.3770 C   0  0  0  0  0  0  0  0  0  0  0  0
   31.9200   31.4350   35.5690 C   0  0  0  0  0  0  0  0  0  0  0  0
   33.2920   31.2540   35.5270 C   0  0  0  0  0  0  0  0  0  0  0  0
   33.8780   30.2940   34.7170 C   0  0  0  0  0  0  0  0  0  0  0  0
   37.0340   30.8820   35.5200 H   0  0  0  0  0  0  0  0  0  0  0  0
   36.0780   32.5860   36.9660 H   0  0  0  0  0  0  0  0  0  0  0  0
   31.8260   33.9810   37.8450 H   0  0  0  0  0  0  0  0  0  0  0  0
   30.2780   32.5700   36.4430 H   0  0  0  0  0  0  0  0  0  0  0  0
   31.2960   30.8130   34.9560 H   0  0  0  0  0  0  0  0  0  0  0  0
   33.2720   29.6540   34.0900 H   0  0  0  0  0  0  0  0  0  0  0  0
   38.6920   24.9370   36.2230 C   0  0  0  0  0  0  0  0  0  0  0  0
   38.6640   23.7000   35.5790 C   0  0  0  0  0  0  0  0  0  0  0  0
   38.0910   23.6370   34.2920 C   0  0  0  0  0  0  0  0  0  0  0  0
   37.6100   24.8000   33.7840 N   0  0  0  0  0  0  0  0  0  0  0  0
   37.6520   25.9740   34.4260 C   0  0  0  0  0  0  0  0  0  0  0  0
   38.1940   26.0400   35.6480 N   0  0  0  0  0  0  0  0  0  0  0  0
   39.1360   24.9910   37.2200 H   0  0  0  0  0  0  0  0  0  0  0  0
   39.0610   22.8160   36.0350 H   0  0  0  0  0  0  0  0  0  0  0  0
   38.0090   22.4040   33.5340 C   0  0  0  0  0  0  0  0  0  0  0  0
   39.0020   21.9340   32.7070 C   0  0  0  0  0  0  0  0  0  0  0  0
   39.9160   22.4970   32.5920 H   0  0  0  0  0  0  0  0  0  0  0  0
   38.8420   20.7380   32.0140 C   0  0  0  0  0  3  0  0  0  0  0  0
   37.7070   19.9820   32.1210 C   0  0  0  0  0  0  0  0  0  0  0  0
   37.4700   18.8210   31.4920 N   0  0  0  0  0  0  0  0  0  0  0  0
   36.3040   18.1380   31.6610 C   0  0  0  0  0  0  0  0  0  0  0  0
   36.1490   17.2040   31.1360 H   0  0  0  0  0  0  0  0  0  0  0  0
   35.2840   18.5820   32.4850 C   0  0  0  0  0  3  0  0  0  0  0  0
   35.5110   19.7740   33.1400 C   0  0  0  0  0  3  0  0  0  0  0  0
   36.7000   20.4520   32.9550 C   0  0  0  0  0  0  0  0  0  0  0  0
   36.8680   21.6390   33.6370 C   0  0  0  0  0  3  0  0  0  0  0  0
  1 29  1  0  0  0  0
  1  6  1  0  0  0  0
  2  1  2  0  0  0  0
  3  2  1  0  0  0  0
  3  4  2  0  0  0  0
  4  5  1  0  0  0  0
  5  6  2  0  0  0  0
  5  9  1  0  0  0  0
  7  2  1  0  0  0  0
  8  3  1  0  0  0  0
  9 18  2  0  0  0  0
  9 10  1  0  0  0  0
 10 11  2  0  0  0  0
 11 20  1  0  0  0  0
 12 11  1  0  0  0  0
 12 13  1  0  0  0  0
 13 14  2  0  0  0  0
 14 21  1  0  0  0  0
 15 22  1  0  0  0  0
 15 14  1  0  0  0  0
 16 15  2  0  0  0  0
 17 16  1  0  0  0  0
 17 12  2  0  0  0  0
 18 17  1  0  0  0  0
 19 10  1  0  0  0  0
 23 16  1  0  0  0  0
 24 18  1  0  0  0  0
 25 31  1  0  0  0  0
 26 32  1  0  0  0  0
 26 25  2  0  0  0  0
 27 26  1  0  0  0  0
 28 27  2  0  0  0  0
 28 29  1  0  0  0  0
 29 30  2  0  0  0  0
 30 25  1  0  0  0  0
 33 44  1  0  0  0  0
 33 27  1  0  0  0  0
 34 33  2  0  0  0  0
 35 34  1  0  0  0  0
 36 37  2  0  0  0  0
 36 34  1  0  0  0  0
 37 43  1  0  0  0  0
 38 39  2  0  0  0  0
 38 37  1  0  0  0  0
 39 41  1  0  0  0  0
 40 39  1  0  0  0  0
 41 42  2  0  0  0  0
 43 42  1  0  0  0  0
 43 44  2  0  0  0  0
M  END
>  <minimizedAffinity>
-7.27173233

$$$$

 OpenBabel03262523073D

 44 49  0  0  0  0  0  0  0  0999 V2000
   38.5340   26.5560   32.1210 C   0  0  0  0  0  0  0  0  0  0  0  0
   39.8150   26.7600   32.5860 C   0  0  0  0  0  0  0  0  0  0  0  0
   40.5590   25.6880   32.9670 C   0  0  0  0  0  0  0  0  0  0  0  0
   40.0390   24.4350   32.8870 N   0  0  0  0  0  0  0  0  0  0  0  0
   38.8040   24.2710   32.4360 C   0  0  0  0  0  0  0  0  0  0  0  0
   38.0300   25.3120   32.0460 N   0  0  0  0  0  0  0  0  0  0  0  0
   40.2260   27.7510   32.6490 H   0  0  0  0  0  0  0  0  0  0  0  0
   41.5740   25.7490   33.3450 H   0  0  0  0  0  0  0  0  0  0  0  0
   38.2360   22.9270   32.3460 C   0  0  0  0  0  0  0  0  0  0  0  0
   39.0270   21.8140   32.3020 C   0  0  0  0  0  0  0  0  0  0  0  0
   38.6310   20.4970   32.2180 C   0  0  0  0  0  0  0  0  0  0  0  0
   37.2520   20.3270   32.1740 C   0  0  0  0  0  0  0  0  0  0  0  0
   36.7920   19.0570   32.0910 N   0  0  0  0  0  0  0  0  0  0  0  0
   35.4700   18.7740   32.0410 C   0  0  0  0  0  0  0  0  0  0  0  0
   34.5540   19.8290   32.0790 C   0  0  0  0  0  0  0  0  0  0  0  0
   35.0330   21.1260   32.1660 C   0  0  0  0  0  0  0  0  0  0  0  0
   36.3880   21.4050   32.2140 C   0  0  0  0  0  0  0  0  0  0  0  0
   36.8650   22.7040   32.3000 C   0  0  0  0  0  0  0  0  0  0  0  0
   40.0990   22.0050   32.3400 H   0  0  0  0  0  0  0  0  0  0  0  0
   39.3390   19.7010   32.1890 H   0  0  0  0  0  0  0  0  0  0  0  0
   35.2360   17.7200   31.9760 H   0  0  0  0  0  0  0  0  0  0  0  0
   33.5190   19.5640   32.0390 H   0  0  0  0  0  0  0  0  0  0  0  0
   34.3350   21.9400   32.1950 H   0  0  0  0  0  0  0  0  0  0  0  0
   36.1820   23.5420   32.3320 H   0  0  0  0  0  0  0  0  0  0  0  0
   36.9750   29.2290   30.1290 C   0  0  0  0  0  0  0  0  0  0  0  0
   36.0590   29.7770   31.0270 C   0  0  0  0  0  0  0  0  0  0  0  0
   35.9860   29.2180   32.3200 C   0  0  0  0  0  0  0  0  0  0  0  0
   36.8230   28.1820   32.5820 N   0  0  0  0  0  0  0  0  0  0  0  0
   37.6920   27.6770   31.6990 C   0  0  0  0  0  0  0  0  0  0  0  0
   37.7660   28.2020   30.4710 N   0  0  0  0  0  0  0  0  0  0  0  0
   37.0360   29.6570   29.1260 H   0  0  0  0  0  0  0  0  0  0  0  0
   35.4250   30.5960   30.7580 H   0  0  0  0  0  0  0  0  0  0  0  0
   35.0710   29.7100   33.3310 C   0  0  0  0  0  0  0  0  0  0  0  0
   33.7340   29.3920   33.3890 C   0  0  0  0  0  0  0  0  0  0  0  0
   33.3060   28.7360   32.6470 H   0  0  0  0  0  0  0  0  0  0  0  0
   32.9240   29.9090   34.3960 C   0  0  0  0  0  3  0  0  0  0  0  0
   33.4110   30.7450   35.3630 C   0  0  0  0  0  0  0  0  0  0  0  0
   32.7040   31.2870   36.3660 N   0  0  0  0  0  0  0  0  0  0  0  0
   33.2780   32.1110   37.2850 C   0  0  0  0  0  0  0  0  0  0  0  0
   32.6760   32.5300   38.0810 H   0  0  0  0  0  0  0  0  0  0  0  0
   34.6200   32.4520   37.2570 C   0  0  0  0  0  3  0  0  0  0  0  0
   35.3620   31.9040   36.2320 C   0  0  0  0  0  3  0  0  0  0  0  0
   34.7610   31.0700   35.3100 C   0  0  0  0  0  0  0  0  0  0  0  0
   35.5550   30.5530   34.3070 C   0  0  0  0  0  3  0  0  0  0  0  0
  1  2  1  0  0  0  0
  2  7  1  0  0  0  0
  2  3  2  0  0  0  0
  3  8  1  0  0  0  0
  4  3  1  0  0  0  0
  5  4  2  0  0  0  0
  6  1  2  0  0  0  0
  6  5  1  0  0  0  0
  9  5  1  0  0  0  0
 10 19  1  0  0  0  0
 10  9  1  0  0  0  0
 11 10  2  0  0  0  0
 12 17  1  0  0  0  0
 12 11  1  0  0  0  0
 13 12  2  0  0  0  0
 14 15  2  0  0  0  0
 14 13  1  0  0  0  0
 15 16  1  0  0  0  0
 16 23  1  0  0  0  0
 16 17  2  0  0  0  0
 17 18  1  0  0  0  0
 18 24  1  0  0  0  0
 18  9  2  0  0  0  0
 20 11  1  0  0  0  0
 21 14  1  0  0  0  0
 22 15  1  0  0  0  0
 25 30  2  0  0  0  0
 25 26  1  0  0  0  0
 26 27  2  0  0  0  0
 27 28  1  0  0  0  0
 27 33  1  0  0  0  0
 29  1  1  0  0  0  0
 29 28  2  0  0  0  0
 30 29  1  0  0  0  0
 31 25  1  0  0  0  0
 32 26  1  0  0  0  0
 33 34  2  0  0  0  0
 33 44  1  0  0  0  0
 34 36  1  0  0  0  0
 35 34  1  0  0  0  0
 36 37  2  0  0  0  0
 37 38  1  0  0  0  0
 38 39  2  0  0  0  0
 39 40  1  0  0  0  0
 41 39  1  0  0  0  0
 42 41  2  0  0  0  0
 43 37  1  0  0  0  0
 43 42  1  0  0  0  0
 44 43  2  0  0  0  0
M  END
>  <minimizedAffinity>
-7.16794205

$$$$

 OpenBabel03262523073D

 44 49  0  0  0  0  0  0  0  0999 V2000
   36.4730   26.8930   31.5280 C   0  0  0  0  0  0  0  0  0  0  0  0
   35.5300   26.0540   30.9760 C   0  0  0  0  0  0  0  0  0  0  0  0
   35.5690   24.7270   31.2710 C   0  0  0  0  0  0  0  0  0  0  0  0
   36.5300   24.2430   32.1020 N   0  0  0  0  0  0  0  0  0  0  0  0
   37.4220   25.0750   32.6180 C   0  0  0  0  0  0  0  0  0  0  0  0
   37.4180   26.4030   32.3490 N   0  0  0  0  0  0  0  0  0  0  0  0
   34.7710   26.4370   30.3180 H   0  0  0  0  0  0  0  0  0  0  0  0
   34.8720   23.9920   30.8850 H   0  0  0  0  0  0  0  0  0  0  0  0
   38.4590   24.5640   33.5130 C   0  0  0  0  0  0  0  0  0  0  0  0
   39.7700   24.5000   33.1330 C   0  0  0  0  0  0  0  0  0  0  0  0
   40.8430   24.0460   33.8660 C   0  0  0  0  0  0  0  0  0  0  0  0
   40.5060   23.6070   35.1420 C   0  0  0  0  0  0  0  0  0  0  0  0
   41.5130   23.1460   35.9190 N   0  0  0  0  0  0  0  0  0  0  0  0
   41.3010   22.6940   37.1760 C   0  0  0  0  0  0  0  0  0  0  0  0
   39.9990   22.7060   37.6850 C   0  0  0  0  0  0  0  0  0  0  0  0
   38.9740   23.1810   36.8830 C   0  0  0  0  0  0  0  0  0  0  0  0
   39.2020   23.6400   35.5970 C   0  0  0  0  0  0  0  0  0  0  0  0
   38.1740   24.1140   34.7970 C   0  0  0  0  0  0  0  0  0  0  0  0
   39.9770   24.8570   32.1240 H   0  0  0  0  0  0  0  0  0  0  0  0
   41.8320   24.0400   33.4680 H   0  0  0  0  0  0  0  0  0  0  0  0
   42.1900   22.3530   37.6900 H   0  0  0  0  0  0  0  0  0  0  0  0
   39.8730   22.3420   38.6820 H   0  0  0  0  0  0  0  0  0  0  0  0
   37.9720   23.1920   37.2680 H   0  0  0  0  0  0  0  0  0  0  0  0
   37.1560   24.1370   35.1610 H   0  0  0  0  0  0  0  0  0  0  0  0
   36.7750   30.1370   29.8180 C   0  0  0  0  0  0  0  0  0  0  0  0
   36.4360   31.0400   30.8260 C   0  0  0  0  0  0  0  0  0  0  0  0
   36.1040   30.5210   32.0940 C   0  0  0  0  0  0  0  0  0  0  0  0
   36.1430   29.1710   32.2270 N   0  0  0  0  0  0  0  0  0  0  0  0
   36.4730   28.3280   31.2410 C   0  0  0  0  0  0  0  0  0  0  0  0
   36.7890   28.8150   30.0350 N   0  0  0  0  0  0  0  0  0  0  0  0
   37.0340   30.5330   28.8340 H   0  0  0  0  0  0  0  0  0  0  0  0
   36.4240   32.0970   30.6570 H   0  0  0  0  0  0  0  0  0  0  0  0
   35.7370   31.3680   33.2120 C   0  0  0  0  0  0  0  0  0  0  0  0
   36.2090   32.6450   33.4060 C   0  0  0  0  0  0  0  0  0  0  0  0
   36.9020   33.0740   32.6980 H   0  0  0  0  0  0  0  0  0  0  0  0
   35.8040   33.3920   34.5080 C   0  0  0  0  0  3  0  0  0  0  0  0
   34.9290   32.9010   35.4380 C   0  0  0  0  0  0  0  0  0  0  0  0
   34.4870   33.5490   36.5260 N   0  0  0  0  0  0  0  0  0  0  0  0
   33.6120   32.9750   37.3970 C   0  0  0  0  0  0  0  0  0  0  0  0
   33.2780   33.5290   38.2650 H   0  0  0  0  0  0  0  0  0  0  0  0
   33.1170   31.6930   37.2320 C   0  0  0  0  0  3  0  0  0  0  0  0
   33.5610   31.0120   36.1190 C   0  0  0  0  0  3  0  0  0  0  0  0
   34.4480   31.6110   35.2460 C   0  0  0  0  0  0  0  0  0  0  0  0
   34.8560   30.8790   34.1510 C   0  0  0  0  0  3  0  0  0  0  0  0
  1  6  1  0  0  0  0
  2  3  1  0  0  0  0
  2  1  2  0  0  0  0
  3  4  2  0  0  0  0
  4  5  1  0  0  0  0
  5  9  1  0  0  0  0
  6  5  2  0  0  0  0
  7  2  1  0  0  0  0
  8  3  1  0  0  0  0
  9 18  1  0  0  0  0
 10  9  2  0  0  0  0
 10 11  1  0  0  0  0
 11 12  2  0  0  0  0
 12 17  1  0  0  0  0
 12 13  1  0  0  0  0
 13 14  2  0  0  0  0
 14 15  1  0  0  0  0
 14 21  1  0  0  0  0
 15 22  1  0  0  0  0
 16 23  1  0  0  0  0
 16 15  2  0  0  0  0
 17 16  1  0  0  0  0
 18 24  1  0  0  0  0
 18 17  2  0  0  0  0
 19 10  1  0  0  0  0
 20 11  1  0  0  0  0
 25 30  2  0  0  0  0
 25 26  1  0  0  0  0
 26 27  2  0  0  0  0
 27 28  1  0  0  0  0
 27 33  1  0  0  0  0
 29  1  1  0  0  0  0
 29 28  2  0  0  0  0
 30 29  1  0  0  0  0
 31 25  1  0  0  0  0
 32 26  1  0  0  0  0
 33 34  2  0  0  0  0
 33 44  1  0  0  0  0
 34 36  1  0  0  0  0
 35 34  1  0  0  0  0
 36 37  2  0  0  0  0
 37 38  1  0  0  0  0
 38 39  2  0  0  0  0
 39 40  1  0  0  0  0
 41 39  1  0  0  0  0
 42 41  2  0  0  0  0
 43 37  1  0  0  0  0
 43 42  1  0  0  0  0
 44 43  2  0  0  0  0
M  END
>  <minimizedAffinity>
-7.14450598

$$$$
