
 OpenBabel03272505313D

 43 47  0  0  0  0  0  0  0  0999 V2000
   37.3920   31.1800   47.0950 N   0  0  0  0  0  0  0  0  0  0  0  0
   36.7200   30.9440   45.9350 C   0  0  0  0  0  0  0  0  0  0  0  0
   37.1400   31.4600   44.7260 C   0  0  0  0  0  0  0  0  0  0  0  0
   38.3010   32.2480   44.7390 C   0  0  0  0  0  0  0  0  0  0  0  0
   38.7280   32.7450   43.6620 O   0  0  0  0  0  0  0  0  0  0  0  0
   38.9740   32.4840   45.9060 N   0  0  0  0  0  0  0  0  0  0  0  0
   38.4670   31.9290   46.9970 C   0  0  0  0  0  0  0  0  0  0  0  0
   39.1090   32.1660   48.0480 O   0  0  0  0  0  0  0  0  0  0  0  0
   35.8300   30.3370   45.9410 H   0  0  0  0  0  0  0  0  0  0  0  0
   37.3890   29.5130   50.4220 C   0  0  0  0  0  0  0  0  0  0  0  0
   37.8190   30.0530   49.2020 C   0  0  0  0  0  0  0  0  0  0  0  0
   36.9470   30.6450   48.3100 C   0  0  0  0  0  0  0  0  0  0  0  0
   35.6590   30.6800   48.6660 N   0  0  0  0  0  0  0  0  0  0  0  0
   35.1980   30.1690   49.8400 C   0  0  0  0  0  0  0  0  0  0  0  0
   36.0760   29.5890   50.7070 N   0  0  0  0  0  0  0  0  0  0  0  0
   38.0730   29.0500   51.1200 H   0  0  0  0  0  0  0  0  0  0  0  0
   38.8640   29.9770   49.0100 H   0  0  0  0  0  0  0  0  0  0  0  0
   34.1510   30.2080   50.1100 H   0  0  0  0  0  0  0  0  0  0  0  0
   36.4650   31.2430   43.4540 C   0  0  0  0  0  0  0  0  0  0  0  0
   36.7420   30.1910   42.6290 C   0  0  0  0  0  0  0  0  0  0  0  0
   36.1180   29.9640   41.4200 C   0  0  0  0  0  0  0  0  0  0  0  0
   35.1340   30.8720   41.0100 C   0  0  0  0  0  0  0  0  0  0  0  0
   34.8850   31.9220   41.8730 C   0  0  0  0  0  0  0  0  0  0  0  0
   35.5260   32.0800   43.0270 N   0  0  0  0  0  0  0  0  0  0  0  0
   37.4930   29.4620   42.9010 H   0  0  0  0  0  0  0  0  0  0  0  0
   36.3470   29.1230   40.7710 H   0  0  0  0  0  0  0  0  0  0  0  0
   34.6350   30.7230   40.0810 H   0  0  0  0  0  0  0  0  0  0  0  0
   33.8770   32.9220   41.5360 C   0  0  0  0  0  0  0  0  0  0  0  0
   33.4590   33.8340   42.4930 C   0  0  0  0  0  0  0  0  0  0  0  0
   33.8900   33.7950   43.4970 H   0  0  0  0  0  0  0  0  0  0  0  0
   32.5180   34.8280   42.3150 C   0  0  0  0  0  3  0  0  0  0  0  0
   31.9380   34.9270   41.0670 C   0  0  0  0  0  0  0  0  0  0  0  0
   31.0130   35.8700   40.8120 N   0  0  0  0  0  0  0  0  0  0  0  0
   30.4260   35.9930   39.6010 C   0  0  0  0  0  0  0  0  0  0  0  0
   29.6820   36.7560   39.4060 H   0  0  0  0  0  0  0  0  0  0  0  0
   30.8210   35.0920   38.6110 C   0  0  0  0  0  3  0  0  0  0  0  0
   31.7670   34.1010   38.8130 C   0  0  0  0  0  3  0  0  0  0  0  0
   32.3180   34.0440   40.0770 C   0  0  0  0  0  0  0  0  0  0  0  0
   33.2650   33.0650   40.3090 C   0  0  0  0  0  3  0  0  0  0  0  0
   40.1640   33.2930   45.9060 C   0  0  0  0  0  0  0  0  0  0  0  0
   40.0980   34.2440   44.9520 F   0  0  0  0  0  0  0  0  0  0  0  0
   41.3260   32.5700   45.6370 F   0  0  0  0  0  0  0  0  0  0  0  0
   40.2840   33.9200   47.1400 F   0  0  0  0  0  0  0  0  0  0  0  0
  1 12  1  0  0  0  0
  2  9  1  0  0  0  0
  2  1  1  0  0  0  0
  3  4  1  0  0  0  0
  3  2  2  0  0  0  0
  4  6  1  0  0  0  0
  5  4  2  0  0  0  0
  6  7  1  0  0  0  0
  7  1  1  0  0  0  0
  7  8  2  0  0  0  0
 10 15  1  0  0  0  0
 10 16  1  0  0  0  0
 11 10  2  0  0  0  0
 12 13  2  0  0  0  0
 12 11  1  0  0  0  0
 13 14  1  0  0  0  0
 14 18  1  0  0  0  0
 14 15  2  0  0  0  0
 17 11  1  0  0  0  0
 19  3  1  0  0  0  0
 20 25  1  0  0  0  0
 20 19  2  0  0  0  0
 21 20  1  0  0  0  0
 22 21  2  0  0  0  0
 22 23  1  0  0  0  0
 23 24  2  0  0  0  0
 24 19  1  0  0  0  0
 26 21  1  0  0  0  0
 27 22  1  0  0  0  0
 28 23  1  0  0  0  0
 28 29  1  0  0  0  0
 29 30  1  0  0  0  0
 31 29  2  0  0  0  0
 32 31  1  0  0  0  0
 33 32  1  0  0  0  0
 34 33  2  0  0  0  0
 35 34  1  0  0  0  0
 36 37  2  0  0  0  0
 36 34  1  0  0  0  0
 37 38  1  0  0  0  0
 38 39  1  0  0  0  0
 38 32  2  0  0  0  0
 39 28  2  0  0  0  0
 40  6  1  0  0  0  0
 40 43  1  0  0  0  0
 41 40  1  0  0  0  0
 42 40  1  0  0  0  0
M  END
>  <minimizedAffinity>
-6.87359953

>  <minimizedRMSD>
0.663043559

$$$$
