
 OpenBabel03272509583D

 49 53  0  0  0  0  0  0  0  0999 V2000
   33.5640   27.6330   47.6330 C   0  0  0  0  0  0  0  0  0  0  0  0
   33.8580   26.6980   48.1070 H   0  0  0  0  0  0  0  0  0  0  0  0
   33.7430   27.5000   46.5430 H   0  0  0  0  0  0  0  0  0  0  0  0
   32.0980   27.8470   47.7860 C   0  0  0  0  0  0  0  0  0  0  0  0
   31.5450   27.5780   49.0230 C   0  0  0  0  0  0  0  0  0  0  0  0
   30.1970   27.7430   49.2700 C   0  0  0  0  0  0  0  0  0  0  0  0
   29.4080   28.1750   48.2860 N   0  0  0  0  0  0  0  0  0  0  0  0
   29.9610   28.4370   47.0740 C   0  0  0  0  0  0  0  0  0  0  0  0
   31.2710   28.2810   46.8170 N   0  0  0  0  0  0  0  0  0  0  0  0
   32.1450   27.2260   49.8500 H   0  0  0  0  0  0  0  0  0  0  0  0
   29.7470   27.5330   50.2450 H   0  0  0  0  0  0  0  0  0  0  0  0
   29.0600   28.9160   45.9930 C   0  0  0  0  0  0  0  0  0  0  0  0
   28.2560   29.5740   46.3830 H   0  0  0  0  0  0  0  0  0  0  0  0
   29.6740   29.5580   45.3270 H   0  0  0  0  0  0  0  0  0  0  0  0
   28.4820   27.7670   45.2220 C   0  0  0  0  0  0  0  0  0  0  0  0
   29.1360   26.5650   45.0590 C   0  0  0  0  0  0  0  0  0  0  0  0
   30.1130   26.4370   45.5060 H   0  0  0  0  0  0  0  0  0  0  0  0
   28.4880   25.5880   44.3220 C   0  0  0  0  0  3  0  0  0  0  0  0
   27.2310   25.7940   43.7650 C   0  0  0  0  0  0  0  0  0  0  0  0
   26.6090   24.8480   43.0550 N   0  0  0  0  0  0  0  0  0  0  0  0
   25.3910   25.0970   42.5340 C   0  0  0  0  0  0  0  0  0  0  0  0
   24.8340   24.3660   41.9470 H   0  0  0  0  0  0  0  0  0  0  0  0
   24.7200   26.3100   42.6940 C   0  0  0  0  0  3  0  0  0  0  0  0
   25.3330   27.2910   43.4140 C   0  0  0  0  0  3  0  0  0  0  0  0
   26.5820   27.0160   43.9380 C   0  0  0  0  0  0  0  0  0  0  0  0
   27.2200   27.9780   44.6630 C   0  0  0  0  0  3  0  0  0  0  0  0
   34.3790   28.7550   48.1900 C   0  0  0  0  0  0  0  0  0  0  0  0
   33.8020   29.6930   48.3090 H   0  0  0  0  0  0  0  0  0  0  0  0
   35.1950   28.9790   47.4720 H   0  0  0  0  0  0  0  0  0  0  0  0
   35.0160   28.3890   49.3990 O   0  0  0  0  0  0  0  0  0  0  0  0
   37.3370   30.1660   51.5070 C   0  0  0  0  0  0  0  0  0  0  0  0
   38.0800   30.8750   50.5300 C   0  0  0  0  0  0  0  0  0  0  0  0
   37.7200   30.6830   49.1990 C   0  0  0  0  0  0  0  0  0  0  0  0
   36.6790   29.8250   48.9690 N   0  0  0  0  0  0  0  0  0  0  0  0
   35.9960   29.1730   49.9040 C   0  0  0  0  0  0  0  0  0  0  0  0
   36.3360   29.3500   51.1950 N   0  0  0  0  0  0  0  0  0  0  0  0
   37.6710   30.3650   52.5130 H   0  0  0  0  0  0  0  0  0  0  0  0
   38.8920   31.5400   50.7390 H   0  0  0  0  0  0  0  0  0  0  0  0
   38.9030   33.3190   49.0520 F   0  0  0  0  0  0  0  0  0  0  0  0
   38.9150   32.5360   47.9810 C   0  0  0  0  0  0  0  0  0  0  0  0
   38.3590   31.3150   48.0750 C   0  0  0  0  0  0  0  0  0  0  0  0
   38.4260   30.5700   46.8920 C   0  0  0  0  0  0  0  0  0  0  0  0
   39.0060   31.0530   45.7520 C   0  0  0  0  0  0  0  0  0  0  0  0
   39.5620   32.3120   45.7100 C   0  0  0  0  0  0  0  0  0  0  0  0
   39.5060   33.0460   46.8500 C   0  0  0  0  0  0  0  0  0  0  0  0
   38.0170   29.5680   46.8230 H   0  0  0  0  0  0  0  0  0  0  0  0
   39.0540   30.4630   44.8290 H   0  0  0  0  0  0  0  0  0  0  0  0
   40.0150   32.6740   44.8030 H   0  0  0  0  0  0  0  0  0  0  0  0
   39.9380   34.0390   46.8350 H   0  0  0  0  0  0  0  0  0  0  0  0
  1  4  1  0  0  0  0
  1  2  1  0  0  0  0
  1 27  1  0  0  0  0
  3  1  1  0  0  0  0
  4  5  1  0  0  0  0
  5  6  2  0  0  0  0
  5 10  1  0  0  0  0
  6 11  1  0  0  0  0
  7  6  1  0  0  0  0
  8  7  2  0  0  0  0
  9  8  1  0  0  0  0
  9  4  2  0  0  0  0
 12 13  1  0  0  0  0
 12  8  1  0  0  0  0
 14 12  1  0  0  0  0
 15 12  1  0  0  0  0
 16 15  1  0  0  0  0
 16 17  1  0  0  0  0
 18 16  2  0  0  0  0
 19 25  1  0  0  0  0
 19 18  1  0  0  0  0
 20 19  2  0  0  0  0
 21 23  2  0  0  0  0
 21 20  1  0  0  0  0
 22 21  1  0  0  0  0
 23 24  1  0  0  0  0
 24 25  2  0  0  0  0
 25 26  1  0  0  0  0
 26 15  2  0  0  0  0
 27 28  1  0  0  0  0
 27 30  1  0  0  0  0
 29 27  1  0  0  0  0
 30 35  1  0  0  0  0
 31 37  1  0  0  0  0
 32 38  1  0  0  0  0
 32 31  2  0  0  0  0
 33 32  1  0  0  0  0
 34 33  2  0  0  0  0
 34 35  1  0  0  0  0
 35 36  2  0  0  0  0
 36 31  1  0  0  0  0
 40 41  1  0  0  0  0
 40 39  1  0  0  0  0
 41 33  1  0  0  0  0
 42 41  2  0  0  0  0
 43 42  1  0  0  0  0
 44 43  2  0  0  0  0
 44 45  1  0  0  0  0
 45 40  2  0  0  0  0
 46 42  1  0  0  0  0
 47 43  1  0  0  0  0
 48 44  1  0  0  0  0
 49 45  1  0  0  0  0
M  END
>  <minimizedAffinity>
-7.15483332

>  <minimizedRMSD>
1.00415242

$$$$
