
 OpenBabel03272505323D

 43 47  0  0  0  0  0  0  0  0999 V2000
   37.3970   31.2390   47.0290 N   0  0  0  0  0  0  0  0  0  0  0  0
   36.6900   31.0570   45.8800 C   0  0  0  0  0  0  0  0  0  0  0  0
   37.0960   31.5960   44.6760 C   0  0  0  0  0  0  0  0  0  0  0  0
   38.2790   32.3510   44.6830 C   0  0  0  0  0  0  0  0  0  0  0  0
   38.6940   32.8670   43.6100 O   0  0  0  0  0  0  0  0  0  0  0  0
   38.9870   32.5320   45.8380 N   0  0  0  0  0  0  0  0  0  0  0  0
   38.4900   31.9610   46.9250 C   0  0  0  0  0  0  0  0  0  0  0  0
   39.1640   32.1470   47.9660 O   0  0  0  0  0  0  0  0  0  0  0  0
   35.7830   30.4750   45.8910 H   0  0  0  0  0  0  0  0  0  0  0  0
   37.4370   29.5270   50.3330 C   0  0  0  0  0  0  0  0  0  0  0  0
   37.8520   30.0900   49.1180 C   0  0  0  0  0  0  0  0  0  0  0  0
   36.9670   30.6810   48.2390 C   0  0  0  0  0  0  0  0  0  0  0  0
   35.6800   30.6930   48.6020 N   0  0  0  0  0  0  0  0  0  0  0  0
   35.2330   30.1600   49.7710 C   0  0  0  0  0  0  0  0  0  0  0  0
   36.1240   29.5800   50.6260 N   0  0  0  0  0  0  0  0  0  0  0  0
   38.1300   29.0650   51.0210 H   0  0  0  0  0  0  0  0  0  0  0  0
   38.8970   30.0310   48.9190 H   0  0  0  0  0  0  0  0  0  0  0  0
   34.1870   30.1800   50.0470 H   0  0  0  0  0  0  0  0  0  0  0  0
   36.3840   31.4360   43.4160 C   0  0  0  0  0  0  0  0  0  0  0  0
   36.5910   30.3870   42.5670 C   0  0  0  0  0  0  0  0  0  0  0  0
   35.9300   30.2130   41.3680 C   0  0  0  0  0  0  0  0  0  0  0  0
   34.9850   31.1750   40.9950 C   0  0  0  0  0  0  0  0  0  0  0  0
   34.8070   32.2210   41.8820 C   0  0  0  0  0  0  0  0  0  0  0  0
   35.4790   32.3260   43.0230 N   0  0  0  0  0  0  0  0  0  0  0  0
   37.3100   29.6160   42.8100 H   0  0  0  0  0  0  0  0  0  0  0  0
   36.1030   29.3730   40.7010 H   0  0  0  0  0  0  0  0  0  0  0  0
   34.4590   31.0690   40.0760 H   0  0  0  0  0  0  0  0  0  0  0  0
   33.8430   33.2760   41.5840 C   0  0  0  0  0  0  0  0  0  0  0  0
   32.9550   33.7000   42.5610 C   0  0  0  0  0  0  0  0  0  0  0  0
   32.9850   33.2360   43.5510 H   0  0  0  0  0  0  0  0  0  0  0  0
   31.9960   34.6820   42.4200 C   0  0  0  0  0  3  0  0  0  0  0  0
   31.9110   35.3030   41.1910 C   0  0  0  0  0  0  0  0  0  0  0  0
   31.0010   36.2710   40.9730 N   0  0  0  0  0  0  0  0  0  0  0  0
   30.8930   36.8990   39.7810 C   0  0  0  0  0  0  0  0  0  0  0  0
   30.1570   37.6780   39.6150 H   0  0  0  0  0  0  0  0  0  0  0  0
   31.7690   36.5000   38.7720 C   0  0  0  0  0  3  0  0  0  0  0  0
   32.7250   35.5110   38.9360 C   0  0  0  0  0  3  0  0  0  0  0  0
   32.7710   34.9200   40.1820 C   0  0  0  0  0  0  0  0  0  0  0  0
   33.7140   33.9300   40.3770 C   0  0  0  0  0  3  0  0  0  0  0  0
   40.1990   33.3070   45.8320 C   0  0  0  0  0  0  0  0  0  0  0  0
   40.1710   34.2370   44.8550 F   0  0  0  0  0  0  0  0  0  0  0  0
   41.3430   32.5450   45.5930 F   0  0  0  0  0  0  0  0  0  0  0  0
   40.3240   33.9610   47.0520 F   0  0  0  0  0  0  0  0  0  0  0  0
  1 12  1  0  0  0  0
  2  9  1  0  0  0  0
  2  1  1  0  0  0  0
  3  4  1  0  0  0  0
  3  2  2  0  0  0  0
  4  6  1  0  0  0  0
  5  4  2  0  0  0  0
  6  7  1  0  0  0  0
  7  1  1  0  0  0  0
  7  8  2  0  0  0  0
 10 15  1  0  0  0  0
 10 16  1  0  0  0  0
 11 10  2  0  0  0  0
 12 13  2  0  0  0  0
 12 11  1  0  0  0  0
 13 14  1  0  0  0  0
 14 18  1  0  0  0  0
 14 15  2  0  0  0  0
 17 11  1  0  0  0  0
 19  3  1  0  0  0  0
 20 25  1  0  0  0  0
 20 19  2  0  0  0  0
 21 20  1  0  0  0  0
 22 21  2  0  0  0  0
 22 23  1  0  0  0  0
 23 24  2  0  0  0  0
 24 19  1  0  0  0  0
 26 21  1  0  0  0  0
 27 22  1  0  0  0  0
 28 23  1  0  0  0  0
 28 29  1  0  0  0  0
 29 30  1  0  0  0  0
 31 29  2  0  0  0  0
 32 31  1  0  0  0  0
 33 32  1  0  0  0  0
 34 33  2  0  0  0  0
 35 34  1  0  0  0  0
 36 37  2  0  0  0  0
 36 34  1  0  0  0  0
 37 38  1  0  0  0  0
 38 39  1  0  0  0  0
 38 32  2  0  0  0  0
 39 28  2  0  0  0  0
 40  6  1  0  0  0  0
 40 43  1  0  0  0  0
 41 40  1  0  0  0  0
 42 40  1  0  0  0  0
M  END
>  <minimizedAffinity>
-7.04423714

>  <minimizedRMSD>
0.99648118

$$$$
