
 OpenBabel03272504483D

 30 33  0  0  0  0  0  0  0  0999 V2000
   32.6990   27.8150   48.7500 C   0  0  0  0  0  0  0  0  0  0  0  0
   33.8750   28.2370   48.1320 C   0  0  0  0  0  0  0  0  0  0  0  0
   34.0450   27.9120   46.7940 C   0  0  0  0  0  0  0  0  0  0  0  0
   33.0440   27.2040   46.1850 N   0  0  0  0  0  0  0  0  0  0  0  0
   31.9290   26.8130   46.8030 C   0  0  0  0  0  0  0  0  0  0  0  0
   31.7610   27.1220   48.0880 N   0  0  0  0  0  0  0  0  0  0  0  0
   32.6040   28.0870   49.7930 H   0  0  0  0  0  0  0  0  0  0  0  0
   34.9030   28.1680   46.1730 H   0  0  0  0  0  0  0  0  0  0  0  0
   34.9430   28.9910   48.7750 C   0  0  0  0  0  0  0  0  0  0  0  0
   35.1520   28.8380   50.1500 C   0  0  0  0  0  0  0  0  0  0  0  0
   34.5610   28.1900   50.7630 H   0  0  0  0  0  0  0  0  0  0  0  0
   36.1700   29.5680   50.7150 C   0  0  0  0  0  0  0  0  0  0  0  0
   36.9600   30.4170   49.9680 C   0  0  0  0  0  0  0  0  0  0  0  0
   37.9690   31.1490   50.4870 N   0  0  0  0  0  0  0  0  0  0  0  0
   38.7170   31.9680   49.7260 C   0  0  0  0  0  0  0  0  0  0  0  0
   39.5180   32.5370   50.1930 H   0  0  0  0  0  0  0  0  0  0  0  0
   38.5180   32.1240   48.3650 C   0  0  0  0  0  0  0  0  0  0  0  0
   37.4810   31.3810   47.7930 C   0  0  0  0  0  0  0  0  0  0  0  0
   36.7420   30.5560   48.6180 C   0  0  0  0  0  0  0  0  0  0  0  0
   35.7260   29.8370   48.0170 C   0  0  0  0  0  0  0  0  0  0  0  0
   30.9090   26.0620   46.0850 C   0  0  0  0  0  0  0  0  0  0  0  0
   30.8260   24.7020   46.2260 C   0  0  0  0  0  0  0  0  0  0  0  0
   29.8660   23.9680   45.5560 C   0  0  0  0  0  0  0  0  0  0  0  0
   29.0090   24.6720   44.7490 C   0  0  0  0  0  0  0  0  0  0  0  0
   29.0650   26.0500   44.5840 C   0  0  0  0  0  0  0  0  0  0  0  0
   30.0430   26.7030   45.2820 N   0  0  0  0  0  0  0  0  0  0  0  0
   31.5020   24.1450   46.8630 H   0  0  0  0  0  0  0  0  0  0  0  0
   29.7860   22.9000   45.6530 H   0  0  0  0  0  0  0  0  0  0  0  0
   28.2140   24.1840   44.1740 H   0  0  0  0  0  0  0  0  0  0  0  0
   28.3900   26.6100   43.9480 H   0  0  0  0  0  0  0  0  0  0  0  0
  1  7  1  0  0  0  0
  2  1  1  0  0  0  0
  2  9  1  0  0  0  0
  3  2  2  0  0  0  0
  4  3  1  0  0  0  0
  4  5  2  0  0  0  0
  5  6  1  0  0  0  0
  6  1  2  0  0  0  0
  8  3  1  0  0  0  0
  9 10  1  0  0  0  0
 10 12  2  0  0  0  0
 10 11  1  0  0  0  0
 13 14  1  0  0  0  0
 13 12  1  0  0  0  0
 15 16  1  0  0  0  0
 15 14  2  0  0  0  0
 17 15  1  0  0  0  0
 18 17  2  0  0  0  0
 18 19  1  0  0  0  0
 19 13  2  0  0  0  0
 20 19  1  0  0  0  0
 20  9  2  0  0  0  0
 21 22  1  0  0  0  0
 21  5  1  0  0  0  0
 22 27  1  0  0  0  0
 23 28  1  0  0  0  0
 23 22  2  0  0  0  0
 24 23  1  0  0  0  0
 25 24  2  0  0  0  0
 25 26  1  0  0  0  0
 26 21  2  0  0  0  0
 29 24  1  0  0  0  0
 30 25  1  0  0  0  0
M  END
>  <minimizedAffinity>
-5.73539257

>  <minimizedRMSD>
7.32804346

$$$$
