
 OpenBabel03272504043D

 44 48  0  0  0  0  0  0  0  0999 V2000
   34.3020   28.5100   48.7100 C   0  0  0  0  0  0  0  0  0  0  0  0
   33.5040   27.7840   49.0150 H   0  0  0  0  0  0  0  0  0  0  0  0
   35.2390   27.8920   48.7270 H   0  0  0  0  0  0  0  0  0  0  0  0
   33.9720   28.9960   47.4000 C   0  0  0  0  0  0  0  0  0  0  0  0
   32.6790   29.0060   46.9530 C   0  0  0  0  0  0  0  0  0  0  0  0
   32.3370   29.4790   45.6740 C   0  0  0  0  0  0  0  0  0  0  0  0
   33.4080   29.9300   44.9050 N   0  0  0  0  0  0  0  0  0  0  0  0
   34.6590   29.9010   45.3870 C   0  0  0  0  0  0  0  0  0  0  0  0
   34.9350   29.4410   46.6120 N   0  0  0  0  0  0  0  0  0  0  0  0
   31.9050   28.6370   47.6120 H   0  0  0  0  0  0  0  0  0  0  0  0
   31.3170   29.4720   45.3590 H   0  0  0  0  0  0  0  0  0  0  0  0
   35.7430   30.3890   44.5350 C   0  0  0  0  0  0  0  0  0  0  0  0
   35.4460   31.1240   43.3870 C   0  0  0  0  0  0  0  0  0  0  0  0
   34.3990   31.3030   43.1760 H   0  0  0  0  0  0  0  0  0  0  0  0
   36.4310   31.6060   42.5510 C   0  0  0  0  0  0  0  0  0  0  0  0
   37.7630   31.3460   42.8700 C   0  0  0  0  0  0  0  0  0  0  0  0
   38.7090   31.8150   42.0570 N   0  0  0  0  0  0  0  0  0  0  0  0
   40.0210   31.5890   42.3240 C   0  0  0  0  0  0  0  0  0  0  0  0
   40.8330   31.9420   41.7050 H   0  0  0  0  0  0  0  0  0  0  0  0
   40.2970   30.8650   43.4540 C   0  0  0  0  0  0  0  0  0  0  0  0
   39.3660   30.3400   44.3540 C   0  0  0  0  0  0  0  0  0  0  0  0
   38.0420   30.6180   44.0070 C   0  0  0  0  0  0  0  0  0  0  0  0
   37.0580   30.1260   44.8610 C   0  0  0  0  0  0  0  0  0  0  0  0
   34.4290   29.4910   49.8040 C   0  0  0  0  0  0  0  0  0  0  0  0
   33.7230   30.3420   49.5710 H   0  0  0  0  0  0  0  0  0  0  0  0
   34.0930   29.0960   50.7610 H   0  0  0  0  0  0  0  0  0  0  0  0
   35.7600   30.1270   49.8790 C   0  0  0  0  0  0  0  0  0  0  0  0
   36.6460   29.8650   50.9280 C   0  0  0  0  0  0  0  0  0  0  0  0
   37.7770   30.5990   50.7100 C   0  0  0  0  0  0  0  0  0  0  0  0
   37.5900   31.2820   49.5740 N   0  0  0  0  0  0  0  0  0  0  0  0
   36.3870   30.9800   49.1090 N   0  0  0  0  0  0  0  0  0  0  0  0
   36.5500   29.2190   51.7970 H   0  0  0  0  0  0  0  0  0  0  0  0
   38.6990   30.6960   51.2630 H   0  0  0  0  0  0  0  0  0  0  0  0
   38.4140   32.1950   48.8640 C   0  0  0  0  0  0  0  0  0  0  0  0
   38.7910   33.3270   49.5460 C   0  0  0  0  0  0  0  0  0  0  0  0
   39.5900   34.3290   49.0200 C   0  0  0  0  0  0  0  0  0  0  0  0
   40.0170   34.1390   47.7150 C   0  0  0  0  0  0  0  0  0  0  0  0
   39.6460   33.0010   47.0090 C   0  0  0  0  0  0  0  0  0  0  0  0
   38.8480   32.0210   47.5630 C   0  0  0  0  0  0  0  0  0  0  0  0
   38.4680   33.5030   50.5750 H   0  0  0  0  0  0  0  0  0  0  0  0
   39.8710   35.2100   49.5820 H   0  0  0  0  0  0  0  0  0  0  0  0
   40.6450   34.8590   47.2100 H   0  0  0  0  0  0  0  0  0  0  0  0
   39.9420   32.7820   45.9830 H   0  0  0  0  0  0  0  0  0  0  0  0
   38.5390   31.1210   47.0460 H   0  0  0  0  0  0  0  0  0  0  0  0
  1  3  1  0  0  0  0
  1  2  1  0  0  0  0
  1 24  1  0  0  0  0
  4  1  1  0  0  0  0
  5  4  1  0  0  0  0
  5 10  1  0  0  0  0
  6  5  2  0  0  0  0
  7  8  2  0  0  0  0
  7  6  1  0  0  0  0
  8  9  1  0  0  0  0
  9  4  2  0  0  0  0
 11  6  1  0  0  0  0
 12 23  1  0  0  0  0
 12  8  1  0  0  0  0
 13 12  2  0  0  0  0
 14 13  1  0  0  0  0
 15 16  2  0  0  0  0
 15 13  1  0  0  0  0
 16 22  1  0  0  0  0
 17 18  2  0  0  0  0
 17 16  1  0  0  0  0
 18 20  1  0  0  0  0
 19 18  1  0  0  0  0
 20 21  2  0  0  0  0
 22 21  1  0  0  0  0
 22 23  2  0  0  0  0
 24 27  1  0  0  0  0
 24 26  1  0  0  0  0
 25 24  1  0  0  0  0
 27 28  1  0  0  0  0
 28 32  1  0  0  0  0
 29 28  2  0  0  0  0
 29 33  1  0  0  0  0
 30 29  1  0  0  0  0
 31 30  1  0  0  0  0
 31 27  2  0  0  0  0
 34 35  1  0  0  0  0
 34 30  1  0  0  0  0
 35 40  1  0  0  0  0
 36 35  2  0  0  0  0
 36 41  1  0  0  0  0
 37 36  1  0  0  0  0
 38 39  1  0  0  0  0
 38 37  2  0  0  0  0
 39 34  2  0  0  0  0
 42 37  1  0  0  0  0
 43 38  1  0  0  0  0
 44 39  1  0  0  0  0
M  END
>  <minimizedAffinity>
-6.84200191

>  <minimizedRMSD>
1.33602321

$$$$
