
 OpenBabel03272507133D

 43 48  0  0  0  0  0  0  0  0999 V2000
   37.1390   29.5450   50.2260 C   0  0  0  0  0  0  0  0  0  0  0  0
   37.7760   28.9070   51.1040 O   0  0  0  0  0  0  0  0  0  0  0  0
   37.6940   30.6510   49.4890 C   0  0  0  0  0  0  0  0  0  0  0  0
   37.7360   31.8860   50.1320 C   0  0  0  0  0  0  0  0  0  0  0  0
   38.2680   32.9780   49.4470 C   0  0  0  0  0  0  0  0  0  0  0  0
   38.7180   32.7650   48.1770 N   0  0  0  0  0  0  0  0  0  0  0  0
   38.6680   31.5740   47.5820 C   0  0  0  0  0  0  0  0  0  0  0  0
   38.1570   30.5240   48.2390 N   0  0  0  0  0  0  0  0  0  0  0  0
   37.3890   32.0910   51.1360 H   0  0  0  0  0  0  0  0  0  0  0  0
   38.3140   33.9510   49.9220 H   0  0  0  0  0  0  0  0  0  0  0  0
   39.1610   31.3890   46.2230 C   0  0  0  0  0  0  0  0  0  0  0  0
   39.9320   32.3430   45.6100 C   0  0  0  0  0  0  0  0  0  0  0  0
   40.1540   33.2380   46.1870 H   0  0  0  0  0  0  0  0  0  0  0  0
   40.4370   32.2510   44.3330 C   0  0  0  0  0  0  0  0  0  0  0  0
   40.1400   31.1070   43.6240 C   0  0  0  0  0  0  0  0  0  0  0  0
   40.6440   31.0370   42.3790 N   0  0  0  0  0  0  0  0  0  0  0  0
   40.4090   29.9630   41.6120 C   0  0  0  0  0  0  0  0  0  0  0  0
   40.8230   29.9160   40.6060 H   0  0  0  0  0  0  0  0  0  0  0  0
   39.6380   28.9350   42.1360 C   0  0  0  0  0  0  0  0  0  0  0  0
   39.1180   29.0020   43.4180 C   0  0  0  0  0  0  0  0  0  0  0  0
   39.3580   30.1060   44.2090 C   0  0  0  0  0  0  0  0  0  0  0  0
   38.8710   30.2490   45.5020 C   0  0  0  0  0  0  0  0  0  0  0  0
   35.7740   29.1560   49.9340 C   0  0  0  0  0  0  0  0  0  0  0  0
   34.7160   29.6640   50.6040 C   0  0  0  0  0  0  0  0  0  0  0  0
   33.5590   29.0790   50.0730 C   0  0  0  0  0  0  0  0  0  0  0  0
   34.0080   28.2200   49.0750 C   0  0  0  0  0  0  0  0  0  0  0  0
   35.3110   28.3160   49.0490 O   0  0  0  0  0  0  0  0  0  0  0  0
   34.7150   30.3940   51.4130 H   0  0  0  0  0  0  0  0  0  0  0  0
   32.5660   29.3150   50.4350 H   0  0  0  0  0  0  0  0  0  0  0  0
   33.5520   26.4590   47.3710 C   0  0  0  0  0  0  0  0  0  0  0  0
   33.1080   27.4010   48.2600 C   0  0  0  0  0  0  0  0  0  0  0  0
   31.7570   27.6480   48.4510 C   0  0  0  0  0  0  0  0  0  0  0  0
   30.8590   26.9030   47.7060 C   0  0  0  0  0  0  0  0  0  0  0  0
   29.5140   26.9180   47.6750 N   0  0  0  0  0  0  0  0  0  0  0  0
   29.1250   26.0010   46.7820 N   0  0  0  0  0  0  0  0  0  0  0  0
   30.2240   25.4110   46.2540 C   0  0  0  0  0  0  0  0  0  0  0  0
   31.3460   25.9610   46.8190 C   0  0  0  0  0  0  0  0  0  0  0  0
   32.6860   25.7140   46.6260 C   0  0  0  0  0  0  0  0  0  0  0  0
   34.6280   26.3120   47.2660 H   0  0  0  0  0  0  0  0  0  0  0  0
   31.3260   28.3800   49.1400 H   0  0  0  0  0  0  0  0  0  0  0  0
   28.8720   27.5260   48.2380 H   0  0  0  0  0  0  0  0  0  0  0  0
   30.2390   24.6170   45.4930 H   0  0  0  0  0  0  0  0  0  0  0  0
   33.0650   24.9800   45.9360 H   0  0  0  0  0  0  0  0  0  0  0  0
  1  2  2  0  0  0  0
  3  4  1  0  0  0  0
  3  1  1  0  0  0  0
  4  9  1  0  0  0  0
  5 10  1  0  0  0  0
  5  4  2  0  0  0  0
  6  5  1  0  0  0  0
  7  6  2  0  0  0  0
  7  8  1  0  0  0  0
  8  3  2  0  0  0  0
 11  7  1  0  0  0  0
 12 13  1  0  0  0  0
 12 11  1  0  0  0  0
 14 12  2  0  0  0  0
 15 21  1  0  0  0  0
 15 14  1  0  0  0  0
 16 15  2  0  0  0  0
 17 19  2  0  0  0  0
 17 16  1  0  0  0  0
 18 17  1  0  0  0  0
 19 20  1  0  0  0  0
 20 21  2  0  0  0  0
 21 22  1  0  0  0  0
 22 11  2  0  0  0  0
 23  1  1  0  0  0  0
 23 24  2  0  0  0  0
 24 28  1  0  0  0  0
 25 29  1  0  0  0  0
 25 24  1  0  0  0  0
 26 25  2  0  0  0  0
 27 26  1  0  0  0  0
 27 23  1  0  0  0  0
 30 31  1  0  0  0  0
 31 32  2  0  0  0  0
 31 26  1  0  0  0  0
 32 40  1  0  0  0  0
 33 32  1  0  0  0  0
 34 33  1  0  0  0  0
 34 41  1  0  0  0  0
 35 34  1  0  0  0  0
 36 35  2  0  0  0  0
 36 37  1  0  0  0  0
 37 33  2  0  0  0  0
 38 37  1  0  0  0  0
 38 30  2  0  0  0  0
 39 30  1  0  0  0  0
 42 36  1  0  0  0  0
 43 38  1  0  0  0  0
M  END
>  <minimizedAffinity>
-7.94666004

>  <minimizedRMSD>
0.783924401

$$$$
