
 OpenBabel03272509583D

 49 53  0  0  0  0  0  0  0  0999 V2000
   33.2390   28.1680   47.2020 C   0  0  0  0  0  0  0  0  0  0  0  0
   33.6810   27.1750   47.2600 H   0  0  0  0  0  0  0  0  0  0  0  0
   33.1950   28.4270   46.1200 H   0  0  0  0  0  0  0  0  0  0  0  0
   31.8270   28.1300   47.6740 C   0  0  0  0  0  0  0  0  0  0  0  0
   31.6060   27.7150   48.9740 C   0  0  0  0  0  0  0  0  0  0  0  0
   30.3350   27.6430   49.5080 C   0  0  0  0  0  0  0  0  0  0  0  0
   29.2930   27.9850   48.7490 N   0  0  0  0  0  0  0  0  0  0  0  0
   29.5230   28.3920   47.4750 C   0  0  0  0  0  0  0  0  0  0  0  0
   30.7520   28.4670   46.9380 N   0  0  0  0  0  0  0  0  0  0  0  0
   32.4180   27.4280   49.6260 H   0  0  0  0  0  0  0  0  0  0  0  0
   30.1470   27.3160   50.5360 H   0  0  0  0  0  0  0  0  0  0  0  0
   28.3440   28.7670   46.6480 C   0  0  0  0  0  0  0  0  0  0  0  0
   27.4630   29.0220   47.2720 H   0  0  0  0  0  0  0  0  0  0  0  0
   28.6140   29.7030   46.1160 H   0  0  0  0  0  0  0  0  0  0  0  0
   28.0070   27.6860   45.6650 C   0  0  0  0  0  0  0  0  0  0  0  0
   27.3040   27.9190   44.5010 C   0  0  0  0  0  0  0  0  0  0  0  0
   26.9760   28.9270   44.2810 H   0  0  0  0  0  0  0  0  0  0  0  0
   27.0620   26.8310   43.6820 C   0  0  0  0  0  3  0  0  0  0  0  0
   27.5010   25.5510   44.0030 C   0  0  0  0  0  0  0  0  0  0  0  0
   27.2640   24.5030   43.2070 N   0  0  0  0  0  0  0  0  0  0  0  0
   27.7110   23.2810   43.5630 C   0  0  0  0  0  0  0  0  0  0  0  0
   27.5500   22.3890   42.9580 H   0  0  0  0  0  0  0  0  0  0  0  0
   28.4240   23.0360   44.7380 C   0  0  0  0  0  3  0  0  0  0  0  0
   28.6780   24.0880   45.5660 C   0  0  0  0  0  3  0  0  0  0  0  0
   28.2110   25.3320   45.1840 C   0  0  0  0  0  0  0  0  0  0  0  0
   28.4500   26.4040   45.9900 C   0  0  0  0  0  3  0  0  0  0  0  0
   34.0830   29.1370   47.9640 C   0  0  0  0  0  0  0  0  0  0  0  0
   33.4880   29.8490   48.5700 H   0  0  0  0  0  0  0  0  0  0  0  0
   34.6530   29.7480   47.2320 H   0  0  0  0  0  0  0  0  0  0  0  0
   35.0530   28.4770   48.7550 O   0  0  0  0  0  0  0  0  0  0  0  0
   37.1660   30.0250   51.2310 C   0  0  0  0  0  0  0  0  0  0  0  0
   37.9910   30.8240   50.4010 C   0  0  0  0  0  0  0  0  0  0  0  0
   37.7530   30.7670   49.0300 C   0  0  0  0  0  0  0  0  0  0  0  0
   36.7410   29.9410   48.6220 N   0  0  0  0  0  0  0  0  0  0  0  0
   35.9800   29.2020   49.4220 C   0  0  0  0  0  0  0  0  0  0  0  0
   36.2010   29.2480   50.7500 N   0  0  0  0  0  0  0  0  0  0  0  0
   37.4070   30.1200   52.2780 H   0  0  0  0  0  0  0  0  0  0  0  0
   38.7780   31.4620   50.7480 H   0  0  0  0  0  0  0  0  0  0  0  0
   38.7840   33.4660   49.1930 F   0  0  0  0  0  0  0  0  0  0  0  0
   38.9770   32.7570   48.0880 C   0  0  0  0  0  0  0  0  0  0  0  0
   38.4890   31.5060   48.0380 C   0  0  0  0  0  0  0  0  0  0  0  0
   38.7470   30.8460   46.8300 C   0  0  0  0  0  0  0  0  0  0  0  0
   39.4350   31.4330   45.8060 C   0  0  0  0  0  0  0  0  0  0  0  0
   39.9150   32.7200   45.9100 C   0  0  0  0  0  0  0  0  0  0  0  0
   39.6720   33.3730   47.0750 C   0  0  0  0  0  0  0  0  0  0  0  0
   38.4120   29.8310   46.6500 H   0  0  0  0  0  0  0  0  0  0  0  0
   39.6340   30.9090   44.8630 H   0  0  0  0  0  0  0  0  0  0  0  0
   40.4550   33.1650   45.0920 H   0  0  0  0  0  0  0  0  0  0  0  0
   40.0420   34.3860   47.1750 H   0  0  0  0  0  0  0  0  0  0  0  0
  1  2  1  0  0  0  0
  1  4  1  0  0  0  0
  1 27  1  0  0  0  0
  3  1  1  0  0  0  0
  4  5  1  0  0  0  0
  5  6  2  0  0  0  0
  5 10  1  0  0  0  0
  6 11  1  0  0  0  0
  7  6  1  0  0  0  0
  8  7  2  0  0  0  0
  9  8  1  0  0  0  0
  9  4  2  0  0  0  0
 12 13  1  0  0  0  0
 12  8  1  0  0  0  0
 14 12  1  0  0  0  0
 15 26  1  0  0  0  0
 15 12  1  0  0  0  0
 16 15  2  0  0  0  0
 17 16  1  0  0  0  0
 18 19  2  0  0  0  0
 18 16  1  0  0  0  0
 19 25  1  0  0  0  0
 20 21  2  0  0  0  0
 20 19  1  0  0  0  0
 21 23  1  0  0  0  0
 22 21  1  0  0  0  0
 23 24  2  0  0  0  0
 25 24  1  0  0  0  0
 25 26  2  0  0  0  0
 27 28  1  0  0  0  0
 27 30  1  0  0  0  0
 29 27  1  0  0  0  0
 30 35  1  0  0  0  0
 31 37  1  0  0  0  0
 32 38  1  0  0  0  0
 32 31  2  0  0  0  0
 33 32  1  0  0  0  0
 34 33  2  0  0  0  0
 34 35  1  0  0  0  0
 35 36  2  0  0  0  0
 36 31  1  0  0  0  0
 40 39  1  0  0  0  0
 41 40  1  0  0  0  0
 41 33  1  0  0  0  0
 42 41  2  0  0  0  0
 43 44  2  0  0  0  0
 43 42  1  0  0  0  0
 44 45  1  0  0  0  0
 45 49  1  0  0  0  0
 45 40  2  0  0  0  0
 46 42  1  0  0  0  0
 47 43  1  0  0  0  0
 48 44  1  0  0  0  0
M  END
>  <minimizedAffinity>
-7.14958715

>  <minimizedRMSD>
1.07176197

$$$$
