
 OpenBabel03272503133D

 49 54  0  0  0  0  0  0  0  0999 V2000
   39.0740   32.2960   42.6330 C   0  0  0  0  0  0  0  0  0  0  0  0
   39.6390   31.5740   43.6720 C   0  0  0  0  0  0  0  0  0  0  0  0
   40.5350   30.5710   43.4790 C   0  0  0  0  0  0  0  0  0  0  0  0
   40.9250   30.2290   42.1880 C   0  0  0  0  0  0  0  0  0  0  0  0
   41.7640   29.3130   41.7110 N   0  0  0  0  0  0  0  0  0  0  0  0
   41.7550   29.4270   40.3780 C   0  0  0  0  0  0  0  0  0  0  0  0
   40.9120   30.4120   40.0210 N   0  0  0  0  0  0  0  0  0  0  0  0
   40.3640   30.9470   41.1460 C   0  0  0  0  0  0  0  0  0  0  0  0
   39.4490   31.9720   41.3210 C   0  0  0  0  0  0  0  0  0  0  0  0
   38.3720   33.0820   42.7850 H   0  0  0  0  0  0  0  0  0  0  0  0
   40.9580   30.0270   44.3060 H   0  0  0  0  0  0  0  0  0  0  0  0
   42.3460   28.6130   42.2280 H   0  0  0  0  0  0  0  0  0  0  0  0
   42.2620   28.9120   39.5920 H   0  0  0  0  0  0  0  0  0  0  0  0
   39.2010   31.9680   44.9980 C   0  0  0  0  0  0  0  0  0  0  0  0
   38.1050   32.5960   45.1500 O   0  0  0  0  0  0  0  0  0  0  0  0
   39.9310   31.6960   46.2000 N   0  0  0  0  0  0  0  0  0  0  0  0
   40.8160   31.1890   46.1260 H   0  0  0  0  0  0  0  0  0  0  0  0
   38.1000   30.1860   47.5160 F   0  0  0  0  0  0  0  0  0  0  0  0
   38.3700   31.4260   48.0330 C   0  0  0  0  0  0  0  0  0  0  0  0
   37.7170   31.8320   49.1630 C   0  0  0  0  0  0  0  0  0  0  0  0
   38.0280   33.0780   49.6300 C   0  0  0  0  0  0  0  0  0  0  0  0
   38.9420   33.8950   49.0180 C   0  0  0  0  0  0  0  0  0  0  0  0
   39.5940   33.4590   47.8700 C   0  0  0  0  0  0  0  0  0  0  0  0
   39.2880   32.1950   47.3810 C   0  0  0  0  0  0  0  0  0  0  0  0
   37.5180   33.4240   50.5330 H   0  0  0  0  0  0  0  0  0  0  0  0
   39.1950   34.8700   49.3710 H   0  0  0  0  0  0  0  0  0  0  0  0
   40.3330   34.0080   47.2940 H   0  0  0  0  0  0  0  0  0  0  0  0
   36.0750   29.3230   51.4710 C   0  0  0  0  0  0  0  0  0  0  0  0
   37.0450   30.1900   50.9050 C   0  0  0  0  0  0  0  0  0  0  0  0
   36.7520   30.9290   49.7800 C   0  0  0  0  0  0  0  0  0  0  0  0
   35.4920   30.7810   49.2420 N   0  0  0  0  0  0  0  0  0  0  0  0
   34.5830   29.9550   49.7900 C   0  0  0  0  0  0  0  0  0  0  0  0
   34.8700   29.2450   50.8780 N   0  0  0  0  0  0  0  0  0  0  0  0
   36.2960   28.7410   52.3540 H   0  0  0  0  0  0  0  0  0  0  0  0
   38.0260   30.2790   51.3570 H   0  0  0  0  0  0  0  0  0  0  0  0
   33.6580   29.9840   49.2200 H   0  0  0  0  0  0  0  0  0  0  0  0
   38.8970   32.6800   40.2770 O   0  0  0  0  0  0  0  0  0  0  0  0
   37.5820   32.9930   40.0930 C   0  0  0  0  0  0  0  0  0  0  0  0
   36.8450   32.3130   39.1220 C   0  0  0  0  0  0  0  0  0  0  0  0
   37.3210   31.5350   38.5110 H   0  0  0  0  0  0  0  0  0  0  0  0
   35.5190   32.5870   38.8940 C   0  0  0  0  0  3  0  0  0  0  0  0
   34.8490   33.5510   39.6180 C   0  0  0  0  0  0  0  0  0  0  0  0
   33.5590   33.8560   39.4360 N   0  0  0  0  0  0  0  0  0  0  0  0
   32.9140   34.7930   40.1440 C   0  0  0  0  0  0  0  0  0  0  0  0
   31.8580   35.0350   39.9870 H   0  0  0  0  0  0  0  0  0  0  0  0
   33.5690   35.5210   41.1340 C   0  0  0  0  0  3  0  0  0  0  0  0
   34.9070   35.2240   41.3430 C   0  0  0  0  0  3  0  0  0  0  0  0
   35.5470   34.2570   40.6040 C   0  0  0  0  0  0  0  0  0  0  0  0
   36.8830   33.9350   40.7860 C   0  0  0  0  0  3  0  0  0  0  0  0
  1 10  1  0  0  0  0
  1  2  1  0  0  0  0
  2 14  1  0  0  0  0
  3  2  2  0  0  0  0
  3 11  1  0  0  0  0
  4  3  1  0  0  0  0
  5  4  1  0  0  0  0
  5 12  1  0  0  0  0
  6  5  1  0  0  0  0
  7  6  2  0  0  0  0
  7  8  1  0  0  0  0
  8  9  1  0  0  0  0
  8  4  2  0  0  0  0
  9  1  2  0  0  0  0
 13  6  1  0  0  0  0
 14 15  2  0  0  0  0
 14 16  1  0  0  0  0
 16 24  1  0  0  0  0
 17 16  1  0  0  0  0
 18 19  1  0  0  0  0
 19 20  1  0  0  0  0
 20 21  2  0  0  0  0
 20 30  1  0  0  0  0
 21 25  1  0  0  0  0
 22 26  1  0  0  0  0
 22 21  1  0  0  0  0
 23 22  2  0  0  0  0
 24 23  1  0  0  0  0
 24 19  2  0  0  0  0
 27 23  1  0  0  0  0
 28 34  1  0  0  0  0
 29 35  1  0  0  0  0
 29 28  1  0  0  0  0
 30 29  2  0  0  0  0
 31 30  1  0  0  0  0
 31 32  2  0  0  0  0
 32 33  1  0  0  0  0
 33 28  2  0  0  0  0
 36 32  1  0  0  0  0
 37  9  1  0  0  0  0
 38 37  1  0  0  0  0
 38 49  1  0  0  0  0
 39 38  2  0  0  0  0
 40 39  1  0  0  0  0
 41 39  1  0  0  0  0
 41 42  2  0  0  0  0
 42 48  1  0  0  0  0
 43 42  1  0  0  0  0
 43 44  2  0  0  0  0
 44 46  1  0  0  0  0
 45 44  1  0  0  0  0
 46 47  2  0  0  0  0
 48 49  2  0  0  0  0
 48 47  1  0  0  0  0
M  END
>  <minimizedAffinity>
-7.80054474

>  <minimizedRMSD>
2.49964547

$$$$
