
 OpenBabel03272505073D

 36 39  0  0  1  0  0  0  0  0999 V2000
   35.5210   22.8090   31.3710 C   0  0  0  0  0  0  0  0  0  0  0  0
   35.4770   24.1940   31.5560 C   0  0  0  0  0  0  0  0  0  0  0  0
   36.6560   24.8250   31.8850 C   0  0  0  0  0  0  0  0  0  0  0  0
   37.7500   24.0580   32.0000 N   0  0  0  0  0  0  0  0  0  0  0  0
   37.7870   22.7330   31.8210 C   0  0  0  0  0  0  0  0  0  0  0  0
   36.6480   22.1080   31.5020 N   0  0  0  0  0  0  0  0  0  0  0  0
   36.8780   26.2160   32.1350 N   0  0  0  0  0  0  0  0  0  0  0  0
   36.3380   27.2640   31.3070 C   0  0  0  0  0  0  0  0  0  0  0  0
   35.6710   28.3890   32.0210 C   0  0  0  0  0  0  0  0  0  0  0  0
   36.3080   28.8360   33.2890 C   0  0  0  0  0  0  0  0  0  0  0  0
   36.6570   27.6030   34.1180 C   0  0  0  0  0  0  0  0  0  0  0  0
   37.6110   26.8040   33.1960 C   0  0  1  0  0  0  0  0  0  0  0  0
   34.5450   22.3910   31.1140 H   0  0  0  0  0  0  0  0  0  0  0  0
   34.6270   24.8490   31.4730 H   0  0  0  0  0  0  0  0  0  0  0  0
   38.6920   22.1480   31.9240 H   0  0  0  0  0  0  0  0  0  0  0  0
   35.6370   26.8350   30.5780 H   0  0  0  0  0  0  0  0  0  0  0  0
   37.1790   27.6970   30.7150 H   0  0  0  0  0  0  0  0  0  0  0  0
   35.5230   29.2030   31.3100 H   0  0  0  0  0  0  0  0  0  0  0  0
   34.6350   28.0310   32.2710 H   0  0  0  0  0  0  0  0  0  0  0  0
   35.5750   29.4100   33.8800 H   0  0  0  0  0  0  0  0  0  0  0  0
   37.2600   29.3820   33.1340 H   0  0  0  0  0  0  0  0  0  0  0  0
   37.1830   27.9240   35.0390 H   0  0  0  0  0  0  0  0  0  0  0  0
   35.7940   26.9940   34.3650 H   0  0  0  0  0  0  0  0  0  0  0  0
   38.3140   27.5990   32.7560 H   0  0  0  0  0  0  0  0  0  0  0  0
   38.3920   25.8980   34.0630 C   0  0  0  0  0  0  0  0  0  0  0  0
   39.6590   25.4190   33.8060 C   0  0  0  0  0  0  0  0  0  0  0  0
   40.1630   25.7490   32.8960 H   0  0  0  0  0  0  0  0  0  0  0  0
   40.3600   24.5590   34.6240 C   0  0  0  0  0  3  0  0  0  0  0  0
   39.7760   24.1290   35.7940 C   0  0  0  0  0  0  0  0  0  0  0  0
   40.4790   23.2910   36.5760 N   0  0  0  0  0  0  0  0  0  0  0  0
   39.9380   22.8400   37.7440 C   0  0  0  0  0  0  0  0  0  0  0  0
   40.4520   22.1700   38.4070 H   0  0  0  0  0  0  0  0  0  0  0  0
   38.6770   23.2470   38.1140 C   0  0  0  0  0  3  0  0  0  0  0  0
   37.9530   24.1190   37.2960 C   0  0  0  0  0  3  0  0  0  0  0  0
   38.5100   24.5700   36.1140 C   0  0  0  0  0  0  0  0  0  0  0  0
   37.8650   25.4300   35.2510 C   0  0  0  0  0  3  0  0  0  0  0  0
  1  6  2  0  0  0  0
  1  2  1  0  0  0  0
  2  3  2  0  0  0  0
  3  4  1  0  0  0  0
  3  7  1  0  0  0  0
  5 15  1  0  0  0  0
  5  4  2  0  0  0  0
  6  5  1  0  0  0  0
  7 12  1  0  0  0  0
  8  9  1  0  0  0  0
  8  7  1  0  0  0  0
  9 19  1  0  0  0  0
  9 10  1  0  0  0  0
 10 20  1  0  0  0  0
 10 11  1  0  0  0  0
 11 23  1  0  0  0  0
 11 22  1  0  0  0  0
 12 24  1  6  0  0  0
 12 25  1  0  0  0  0
 12 11  1  0  0  0  0
 13  1  1  0  0  0  0
 14  2  1  0  0  0  0
 16  8  1  0  0  0  0
 17  8  1  0  0  0  0
 18  9  1  0  0  0  0
 21 10  1  0  0  0  0
 25 36  1  0  0  0  0
 26 25  2  0  0  0  0
 26 28  1  0  0  0  0
 27 26  1  0  0  0  0
 28 29  2  0  0  0  0
 29 35  1  0  0  0  0
 29 30  1  0  0  0  0
 30 31  2  0  0  0  0
 31 33  1  0  0  0  0
 31 32  1  0  0  0  0
 34 33  2  0  0  0  0
 35 34  1  0  0  0  0
 36 35  2  0  0  0  0
M  END
>  <minimizedAffinity>
-6.08764315

$$$$

 OpenBabel03272505073D

 36 39  0  0  1  0  0  0  0  0999 V2000
   30.9530   28.1850   35.3190 C   0  0  0  0  0  0  0  0  0  0  0  0
   31.6550   29.2570   35.8770 C   0  0  0  0  0  0  0  0  0  0  0  0
   32.3610   30.0670   35.0150 C   0  0  0  0  0  0  0  0  0  0  0  0
   32.3150   29.7590   33.7100 N   0  0  0  0  0  0  0  0  0  0  0  0
   31.6420   28.7310   33.1820 C   0  0  0  0  0  0  0  0  0  0  0  0
   30.9530   27.9380   34.0090 N   0  0  0  0  0  0  0  0  0  0  0  0
   33.1600   31.2120   35.3280 N   0  0  0  0  0  0  0  0  0  0  0  0
   32.7400   32.2440   36.2400 C   0  0  0  0  0  0  0  0  0  0  0  0
   33.7380   32.6610   37.2650 C   0  0  0  0  0  0  0  0  0  0  0  0
   35.1540   32.7390   36.8150 C   0  0  0  0  0  0  0  0  0  0  0  0
   35.4770   31.4840   36.0090 C   0  0  0  0  0  0  0  0  0  0  0  0
   34.4550   31.5270   34.8450 C   0  0  1  0  0  0  0  0  0  0  0  0
   30.4230   27.5960   36.0720 H   0  0  0  0  0  0  0  0  0  0  0  0
   31.7190   29.5430   36.9120 H   0  0  0  0  0  0  0  0  0  0  0  0
   31.6310   28.5160   32.1210 H   0  0  0  0  0  0  0  0  0  0  0  0
   31.8140   31.9370   36.7450 H   0  0  0  0  0  0  0  0  0  0  0  0
   32.4840   33.1470   35.6380 H   0  0  0  0  0  0  0  0  0  0  0  0
   33.3870   33.5860   37.7250 H   0  0  0  0  0  0  0  0  0  0  0  0
   33.6860   31.8930   38.0850 H   0  0  0  0  0  0  0  0  0  0  0  0
   35.8160   32.7210   37.6960 H   0  0  0  0  0  0  0  0  0  0  0  0
   35.3550   33.5970   36.1420 H   0  0  0  0  0  0  0  0  0  0  0  0
   36.5120   31.5590   35.6220 H   0  0  0  0  0  0  0  0  0  0  0  0
   35.3470   30.5670   36.5740 H   0  0  0  0  0  0  0  0  0  0  0  0
   34.4600   32.6240   34.5030 H   0  0  0  0  0  0  0  0  0  0  0  0
   34.9990   30.6830   33.7610 C   0  0  0  0  0  0  0  0  0  0  0  0
   34.8980   30.9320   32.4090 C   0  0  0  0  0  0  0  0  0  0  0  0
   34.3990   31.8470   32.0870 H   0  0  0  0  0  0  0  0  0  0  0  0
   35.4000   30.1180   31.4160 C   0  0  0  0  0  3  0  0  0  0  0  0
   36.0550   28.9610   31.7710 C   0  0  0  0  0  0  0  0  0  0  0  0
   36.5350   28.1830   30.7860 N   0  0  0  0  0  0  0  0  0  0  0  0
   37.1920   27.0270   31.0930 C   0  0  0  0  0  0  0  0  0  0  0  0
   37.5960   26.3680   30.3480 H   0  0  0  0  0  0  0  0  0  0  0  0
   37.3580   26.6670   32.4100 C   0  0  0  0  0  3  0  0  0  0  0  0
   36.8560   27.4820   33.4290 C   0  0  0  0  0  3  0  0  0  0  0  0
   36.1930   28.6500   33.1070 C   0  0  0  0  0  0  0  0  0  0  0  0
   35.6680   29.5090   34.0490 C   0  0  0  0  0  3  0  0  0  0  0  0
  1  2  1  0  0  0  0
  1 13  1  0  0  0  0
  2 14  1  0  0  0  0
  3  7  1  0  0  0  0
  3  2  2  0  0  0  0
  4  3  1  0  0  0  0
  5  4  2  0  0  0  0
  5  6  1  0  0  0  0
  6  1  2  0  0  0  0
  7  8  1  0  0  0  0
  8 16  1  0  0  0  0
  8  9  1  0  0  0  0
  9 18  1  0  0  0  0
  9 19  1  0  0  0  0
 10  9  1  0  0  0  0
 10 20  1  0  0  0  0
 11 23  1  0  0  0  0
 11 10  1  0  0  0  0
 12 24  1  6  0  0  0
 12  7  1  0  0  0  0
 12 11  1  0  0  0  0
 15  5  1  0  0  0  0
 17  8  1  0  0  0  0
 21 10  1  0  0  0  0
 22 11  1  0  0  0  0
 25 36  1  0  0  0  0
 25 12  1  0  0  0  0
 26 25  2  0  0  0  0
 27 26  1  0  0  0  0
 28 29  2  0  0  0  0
 28 26  1  0  0  0  0
 29 35  1  0  0  0  0
 30 31  2  0  0  0  0
 30 29  1  0  0  0  0
 31 33  1  0  0  0  0
 32 31  1  0  0  0  0
 33 34  2  0  0  0  0
 35 34  1  0  0  0  0
 35 36  2  0  0  0  0
M  END
>  <minimizedAffinity>
-5.7886858

$$$$

 OpenBabel03272505073D

 36 39  0  0  1  0  0  0  0  0999 V2000
   36.1160   22.6490   31.3200 C   0  0  0  0  0  0  0  0  0  0  0  0
   36.1150   23.9760   31.7560 C   0  0  0  0  0  0  0  0  0  0  0  0
   37.2540   24.4380   32.3800 C   0  0  0  0  0  0  0  0  0  0  0  0
   38.2690   23.5730   32.5160 N   0  0  0  0  0  0  0  0  0  0  0  0
   38.2650   22.3030   32.0970 C   0  0  0  0  0  0  0  0  0  0  0  0
   37.1660   21.8440   31.4900 N   0  0  0  0  0  0  0  0  0  0  0  0
   37.5030   25.7380   32.9220 N   0  0  0  0  0  0  0  0  0  0  0  0
   37.1680   26.9580   32.2340 C   0  0  0  0  0  0  0  0  0  0  0  0
   36.4500   27.9890   33.0360 C   0  0  0  0  0  0  0  0  0  0  0  0
   36.8860   28.1470   34.4500 C   0  0  0  0  0  0  0  0  0  0  0  0
   37.0240   26.7610   35.0740 C   0  0  0  0  0  0  0  0  0  0  0  0
   38.0760   26.0630   34.1770 C   0  0  1  0  0  0  0  0  0  0  0  0
   35.1770   22.3660   30.8380 H   0  0  0  0  0  0  0  0  0  0  0  0
   35.3280   24.7050   31.6680 H   0  0  0  0  0  0  0  0  0  0  0  0
   39.1080   21.6350   32.2270 H   0  0  0  0  0  0  0  0  0  0  0  0
   36.5790   26.7270   31.3360 H   0  0  0  0  0  0  0  0  0  0  0  0
   38.1190   27.4180   31.8750 H   0  0  0  0  0  0  0  0  0  0  0  0
   36.4690   28.9270   32.4790 H   0  0  0  0  0  0  0  0  0  0  0  0
   35.3690   27.6810   33.0480 H   0  0  0  0  0  0  0  0  0  0  0  0
   36.0960   28.6660   35.0170 H   0  0  0  0  0  0  0  0  0  0  0  0
   37.8780   28.6300   34.5530 H   0  0  0  0  0  0  0  0  0  0  0  0
   37.4020   26.8660   36.1090 H   0  0  0  0  0  0  0  0  0  0  0  0
   36.1000   26.1920   35.0610 H   0  0  0  0  0  0  0  0  0  0  0  0
   38.8850   26.8620   34.0120 H   0  0  0  0  0  0  0  0  0  0  0  0
   38.6500   24.9540   34.9670 C   0  0  0  0  0  0  0  0  0  0  0  0
   37.9500   24.0910   35.7830 C   0  0  0  0  0  0  0  0  0  0  0  0
   36.8660   24.2000   35.8450 H   0  0  0  0  0  0  0  0  0  0  0  0
   38.5130   23.0740   36.5250 C   0  0  0  0  0  3  0  0  0  0  0  0
   39.8740   22.8820   36.4660 C   0  0  0  0  0  0  0  0  0  0  0  0
   40.4000   21.8840   37.1990 N   0  0  0  0  0  0  0  0  0  0  0  0
   41.7450   21.6580   37.1700 C   0  0  0  0  0  0  0  0  0  0  0  0
   42.2200   20.8770   37.7330 H   0  0  0  0  0  0  0  0  0  0  0  0
   42.5540   22.4540   36.3910 C   0  0  0  0  0  3  0  0  0  0  0  0
   41.9990   23.4880   35.6330 C   0  0  0  0  0  3  0  0  0  0  0  0
   40.6360   23.7090   35.6690 C   0  0  0  0  0  0  0  0  0  0  0  0
   40.0090   24.7060   34.9530 C   0  0  0  0  0  3  0  0  0  0  0  0
  1  6  2  0  0  0  0
  1  2  1  0  0  0  0
  2  3  2  0  0  0  0
  3  4  1  0  0  0  0
  3  7  1  0  0  0  0
  5 15  1  0  0  0  0
  5  4  2  0  0  0  0
  6  5  1  0  0  0  0
  7 12  1  0  0  0  0
  8  7  1  0  0  0  0
  8  9  1  0  0  0  0
  9 19  1  0  0  0  0
  9 10  1  0  0  0  0
 10 21  1  0  0  0  0
 10 20  1  0  0  0  0
 10 11  1  0  0  0  0
 11 22  1  0  0  0  0
 12 24  1  6  0  0  0
 12 25  1  0  0  0  0
 12 11  1  0  0  0  0
 13  1  1  0  0  0  0
 14  2  1  0  0  0  0
 16  8  1  0  0  0  0
 17  8  1  0  0  0  0
 18  9  1  0  0  0  0
 23 11  1  0  0  0  0
 25 26  1  0  0  0  0
 26 27  1  0  0  0  0
 26 28  2  0  0  0  0
 29 28  1  0  0  0  0
 29 30  1  0  0  0  0
 31 30  2  0  0  0  0
 31 32  1  0  0  0  0
 33 31  1  0  0  0  0
 34 35  1  0  0  0  0
 34 33  2  0  0  0  0
 35 29  2  0  0  0  0
 36 25  2  0  0  0  0
 36 35  1  0  0  0  0
M  END
>  <minimizedAffinity>
-5.73518276

$$$$

 OpenBabel03272505073D

 36 39  0  0  1  0  0  0  0  0999 V2000
   42.8710   26.1300   34.2020 C   0  0  0  0  0  0  0  0  0  0  0  0
   42.2120   25.3610   35.1650 C   0  0  0  0  0  0  0  0  0  0  0  0
   41.0720   24.6950   34.7710 C   0  0  0  0  0  0  0  0  0  0  0  0
   40.6900   24.8410   33.4940 N   0  0  0  0  0  0  0  0  0  0  0  0
   41.3240   25.5780   32.5760 C   0  0  0  0  0  0  0  0  0  0  0  0
   42.4320   26.2290   32.9460 N   0  0  0  0  0  0  0  0  0  0  0  0
   40.2170   23.8600   35.5560 N   0  0  0  0  0  0  0  0  0  0  0  0
   40.7100   22.8520   36.4600 C   0  0  0  0  0  0  0  0  0  0  0  0
   40.1060   22.8400   37.8230 C   0  0  0  0  0  0  0  0  0  0  0  0
   38.6460   23.1150   37.9010 C   0  0  0  0  0  0  0  0  0  0  0  0
   38.3310   24.3200   37.0180 C   0  0  0  0  0  0  0  0  0  0  0  0
   38.8010   23.8710   35.6120 C   0  0  1  0  0  0  0  0  0  0  0  0
   43.7630   26.6220   34.5980 H   0  0  0  0  0  0  0  0  0  0  0  0
   42.4820   25.2140   36.1970 H   0  0  0  0  0  0  0  0  0  0  0  0
   40.9820   25.6700   31.5530 H   0  0  0  0  0  0  0  0  0  0  0  0
   41.8010   22.9380   36.5510 H   0  0  0  0  0  0  0  0  0  0  0  0
   40.5110   21.8560   36.0000 H   0  0  0  0  0  0  0  0  0  0  0  0
   40.3900   21.9070   38.3120 H   0  0  0  0  0  0  0  0  0  0  0  0
   40.6330   23.6440   38.4060 H   0  0  0  0  0  0  0  0  0  0  0  0
   38.3880   23.4100   38.9320 H   0  0  0  0  0  0  0  0  0  0  0  0
   38.0210   22.2830   37.5210 H   0  0  0  0  0  0  0  0  0  0  0  0
   37.2380   24.4970   37.0260 H   0  0  0  0  0  0  0  0  0  0  0  0
   38.8650   25.2170   37.3120 H   0  0  0  0  0  0  0  0  0  0  0  0
   38.4230   22.7900   35.5170 H   0  0  0  0  0  0  0  0  0  0  0  0
   38.0910   24.7160   34.6290 C   0  0  0  0  0  0  0  0  0  0  0  0
   37.7730   24.3640   33.3350 C   0  0  0  0  0  0  0  0  0  0  0  0
   38.0350   23.3630   32.9910 H   0  0  0  0  0  0  0  0  0  0  0  0
   37.1250   25.1790   32.4310 C   0  0  0  0  0  3  0  0  0  0  0  0
   36.7550   26.4460   32.8230 C   0  0  0  0  0  0  0  0  0  0  0  0
   36.1250   27.2220   31.9240 N   0  0  0  0  0  0  0  0  0  0  0  0
   35.7400   28.4850   32.2700 C   0  0  0  0  0  0  0  0  0  0  0  0
   35.2340   29.1480   31.5950 H   0  0  0  0  0  0  0  0  0  0  0  0
   36.0010   28.9540   33.5380 C   0  0  0  0  0  3  0  0  0  0  0  0
   36.6560   28.1400   34.4650 C   0  0  0  0  0  3  0  0  0  0  0  0
   37.0410   26.8630   34.1050 C   0  0  0  0  0  0  0  0  0  0  0  0
   37.6920   25.9970   34.9580 C   0  0  0  0  0  3  0  0  0  0  0  0
  1 13  1  0  0  0  0
  1  2  1  0  0  0  0
  2 14  1  0  0  0  0
  3  2  2  0  0  0  0
  3  7  1  0  0  0  0
  4  3  1  0  0  0  0
  5  6  1  0  0  0  0
  5  4  2  0  0  0  0
  6  1  2  0  0  0  0
  7 12  1  0  0  0  0
  7  8  1  0  0  0  0
  8 16  1  0  0  0  0
  8  9  1  0  0  0  0
  9 10  1  0  0  0  0
  9 18  1  0  0  0  0
  9 19  1  0  0  0  0
 10 20  1  0  0  0  0
 11 22  1  0  0  0  0
 11 23  1  0  0  0  0
 11 10  1  0  0  0  0
 12 24  1  6  0  0  0
 12 11  1  0  0  0  0
 15  5  1  0  0  0  0
 17  8  1  0  0  0  0
 21 10  1  0  0  0  0
 25 36  1  0  0  0  0
 25 12  1  0  0  0  0
 26 25  2  0  0  0  0
 27 26  1  0  0  0  0
 28 29  2  0  0  0  0
 28 26  1  0  0  0  0
 29 35  1  0  0  0  0
 30 31  2  0  0  0  0
 30 29  1  0  0  0  0
 31 33  1  0  0  0  0
 32 31  1  0  0  0  0
 33 34  2  0  0  0  0
 35 34  1  0  0  0  0
 35 36  2  0  0  0  0
M  END
>  <minimizedAffinity>
-5.68671799

$$$$

 OpenBabel03272505073D

 36 39  0  0  1  0  0  0  0  0999 V2000
   35.5240   22.7300   31.2750 C   0  0  0  0  0  0  0  0  0  0  0  0
   36.4050   23.7530   30.9120 C   0  0  0  0  0  0  0  0  0  0  0  0
   37.5550   23.8900   31.6580 C   0  0  0  0  0  0  0  0  0  0  0  0
   37.7340   23.0300   32.6700 N   0  0  0  0  0  0  0  0  0  0  0  0
   36.8870   22.0530   33.0140 C   0  0  0  0  0  0  0  0  0  0  0  0
   35.7670   21.9100   32.2970 N   0  0  0  0  0  0  0  0  0  0  0  0
   38.6030   24.8510   31.5020 N   0  0  0  0  0  0  0  0  0  0  0  0
   39.1740   25.1980   30.2260 C   0  0  0  0  0  0  0  0  0  0  0  0
   39.3200   26.6550   29.9450 C   0  0  0  0  0  0  0  0  0  0  0  0
   39.7370   27.5090   31.0900 C   0  0  0  0  0  0  0  0  0  0  0  0
   38.9090   27.1220   32.3120 C   0  0  0  0  0  0  0  0  0  0  0  0
   39.2360   25.6210   32.5100 C   0  0  1  0  0  0  0  0  0  0  0  0
   34.6400   22.6930   30.6330 H   0  0  0  0  0  0  0  0  0  0  0  0
   36.3050   24.4630   30.1100 H   0  0  0  0  0  0  0  0  0  0  0  0
   37.0690   21.3780   33.8410 H   0  0  0  0  0  0  0  0  0  0  0  0
   38.5890   24.7340   29.4200 H   0  0  0  0  0  0  0  0  0  0  0  0
   40.1920   24.7460   30.1740 H   0  0  0  0  0  0  0  0  0  0  0  0
   39.9640   26.7700   29.0720 H   0  0  0  0  0  0  0  0  0  0  0  0
   38.3090   27.0120   29.6080 H   0  0  0  0  0  0  0  0  0  0  0  0
   39.4890   28.5600   30.8670 H   0  0  0  0  0  0  0  0  0  0  0  0
   40.7970   27.3690   31.3790 H   0  0  0  0  0  0  0  0  0  0  0  0
   39.2520   27.7140   33.1830 H   0  0  0  0  0  0  0  0  0  0  0  0
   37.8420   27.2460   32.1630 H   0  0  0  0  0  0  0  0  0  0  0  0
   40.3730   25.5550   32.3600 H   0  0  0  0  0  0  0  0  0  0  0  0
   38.9170   25.2910   33.9150 C   0  0  0  0  0  0  0  0  0  0  0  0
   37.9100   25.8510   34.6720 C   0  0  0  0  0  0  0  0  0  0  0  0
   37.2570   26.5880   34.2030 H   0  0  0  0  0  0  0  0  0  0  0  0
   37.6440   25.5370   35.9880 C   0  0  0  0  0  3  0  0  0  0  0  0
   38.4270   24.5980   36.6200 C   0  0  0  0  0  0  0  0  0  0  0  0
   38.1480   24.3100   37.9030 N   0  0  0  0  0  0  0  0  0  0  0  0
   38.8990   23.3840   38.5690 C   0  0  0  0  0  0  0  0  0  0  0  0
   38.7230   23.1140   39.5930 H   0  0  0  0  0  0  0  0  0  0  0  0
   39.9350   22.7530   37.9200 C   0  0  0  0  0  3  0  0  0  0  0  0
   40.2180   23.0590   36.5860 C   0  0  0  0  0  3  0  0  0  0  0  0
   39.4520   23.9970   35.9220 C   0  0  0  0  0  0  0  0  0  0  0  0
   39.6620   24.3570   34.6070 C   0  0  0  0  0  3  0  0  0  0  0  0
  1  6  1  0  0  0  0
  2  1  2  0  0  0  0
  2  3  1  0  0  0  0
  3  4  2  0  0  0  0
  4  5  1  0  0  0  0
  5 15  1  0  0  0  0
  6  5  2  0  0  0  0
  7  3  1  0  0  0  0
  7 12  1  0  0  0  0
  8  7  1  0  0  0  0
  9  8  1  0  0  0  0
  9 10  1  0  0  0  0
 10 21  1  0  0  0  0
 10 11  1  0  0  0  0
 11 12  1  0  0  0  0
 11 22  1  0  0  0  0
 12 24  1  6  0  0  0
 12 25  1  0  0  0  0
 13  1  1  0  0  0  0
 14  2  1  0  0  0  0
 16  8  1  0  0  0  0
 17  8  1  0  0  0  0
 18  9  1  0  0  0  0
 19  9  1  0  0  0  0
 20 10  1  0  0  0  0
 23 11  1  0  0  0  0
 25 36  2  0  0  0  0
 25 26  1  0  0  0  0
 26 28  2  0  0  0  0
 27 26  1  0  0  0  0
 28 29  1  0  0  0  0
 29 30  1  0  0  0  0
 30 31  2  0  0  0  0
 31 32  1  0  0  0  0
 33 31  1  0  0  0  0
 34 33  2  0  0  0  0
 35 34  1  0  0  0  0
 35 29  2  0  0  0  0
 36 35  1  0  0  0  0
M  END
>  <minimizedAffinity>
-5.64159632

$$$$

 OpenBabel03272505073D

 36 39  0  0  1  0  0  0  0  0999 V2000
   35.5280   22.3660   31.8910 C   0  0  0  0  0  0  0  0  0  0  0  0
   36.2800   23.4710   31.4860 C   0  0  0  0  0  0  0  0  0  0  0  0
   37.6020   23.5120   31.8720 C   0  0  0  0  0  0  0  0  0  0  0  0
   38.0570   22.4860   32.6050 N   0  0  0  0  0  0  0  0  0  0  0  0
   37.3330   21.4300   32.9900 C   0  0  0  0  0  0  0  0  0  0  0  0
   36.0480   21.3790   32.6220 N   0  0  0  0  0  0  0  0  0  0  0  0
   38.5750   24.5260   31.6000 N   0  0  0  0  0  0  0  0  0  0  0  0
   38.7480   25.1260   30.3020 C   0  0  0  0  0  0  0  0  0  0  0  0
   38.8310   26.6140   30.2730 C   0  0  0  0  0  0  0  0  0  0  0  0
   39.5840   27.2560   31.3840 C   0  0  0  0  0  0  0  0  0  0  0  0
   39.1490   26.6150   32.6990 C   0  0  0  0  0  0  0  0  0  0  0  0
   39.4920   25.1180   32.5040 C   0  0  1  0  0  0  0  0  0  0  0  0
   34.4930   22.4140   31.5430 H   0  0  0  0  0  0  0  0  0  0  0  0
   35.9600   24.3140   30.8980 H   0  0  0  0  0  0  0  0  0  0  0  0
   37.7380   20.6200   33.5840 H   0  0  0  0  0  0  0  0  0  0  0  0
   37.9420   24.7980   29.6320 H   0  0  0  0  0  0  0  0  0  0  0  0
   39.6970   24.7320   29.8690 H   0  0  0  0  0  0  0  0  0  0  0  0
   39.1890   26.9150   29.2870 H   0  0  0  0  0  0  0  0  0  0  0  0
   37.7720   26.9890   30.3220 H   0  0  0  0  0  0  0  0  0  0  0  0
   39.3010   28.3190   31.4470 H   0  0  0  0  0  0  0  0  0  0  0  0
   40.6800   27.1060   31.3170 H   0  0  0  0  0  0  0  0  0  0  0  0
   39.7450   27.0480   33.5260 H   0  0  0  0  0  0  0  0  0  0  0  0
   38.0870   26.7240   32.8970 H   0  0  0  0  0  0  0  0  0  0  0  0
   40.5320   25.1250   32.0160 H   0  0  0  0  0  0  0  0  0  0  0  0
   39.5970   24.5200   33.8510 C   0  0  0  0  0  0  0  0  0  0  0  0
   40.4930   23.5470   34.2410 C   0  0  0  0  0  0  0  0  0  0  0  0
   41.2210   23.1910   33.5110 H   0  0  0  0  0  0  0  0  0  0  0  0
   40.5580   22.9920   35.5010 C   0  0  0  0  0  3  0  0  0  0  0  0
   39.6740   23.4220   36.4640 C   0  0  0  0  0  0  0  0  0  0  0  0
   39.7570   22.8660   37.6860 N   0  0  0  0  0  0  0  0  0  0  0  0
   38.9000   23.2630   38.6710 C   0  0  0  0  0  0  0  0  0  0  0  0
   38.9200   22.8540   39.6630 H   0  0  0  0  0  0  0  0  0  0  0  0
   37.9570   24.2290   38.4060 C   0  0  0  0  0  3  0  0  0  0  0  0
   37.8780   24.8020   37.1340 C   0  0  0  0  0  3  0  0  0  0  0  0
   38.7500   24.3930   36.1440 C   0  0  0  0  0  0  0  0  0  0  0  0
   38.7400   24.9060   34.8630 C   0  0  0  0  0  3  0  0  0  0  0  0
  1  6  1  0  0  0  0
  2  3  1  0  0  0  0
  2  1  2  0  0  0  0
  3  4  2  0  0  0  0
  4  5  1  0  0  0  0
  5 15  1  0  0  0  0
  6  5  2  0  0  0  0
  7  3  1  0  0  0  0
  7 12  1  0  0  0  0
  8  7  1  0  0  0  0
  9  8  1  0  0  0  0
  9 19  1  0  0  0  0
  9 10  1  0  0  0  0
 10 20  1  0  0  0  0
 10 11  1  0  0  0  0
 11 23  1  0  0  0  0
 11 22  1  0  0  0  0
 12 24  1  6  0  0  0
 12 11  1  0  0  0  0
 12 25  1  0  0  0  0
 13  1  1  0  0  0  0
 14  2  1  0  0  0  0
 16  8  1  0  0  0  0
 17  8  1  0  0  0  0
 18  9  1  0  0  0  0
 21 10  1  0  0  0  0
 25 26  2  0  0  0  0
 25 36  1  0  0  0  0
 26 28  1  0  0  0  0
 27 26  1  0  0  0  0
 28 29  2  0  0  0  0
 29 30  1  0  0  0  0
 30 31  2  0  0  0  0
 31 32  1  0  0  0  0
 33 31  1  0  0  0  0
 34 33  2  0  0  0  0
 35 29  1  0  0  0  0
 35 34  1  0  0  0  0
 36 35  2  0  0  0  0
M  END
>  <minimizedAffinity>
-5.60981464

$$$$

 OpenBabel03272505073D

 36 39  0  0  1  0  0  0  0  0999 V2000
   41.7770   27.4620   31.8970 C   0  0  0  0  0  0  0  0  0  0  0  0
   40.4320   27.4120   31.5220 C   0  0  0  0  0  0  0  0  0  0  0  0
   39.5040   27.2020   32.5190 C   0  0  0  0  0  0  0  0  0  0  0  0
   39.9700   27.0640   33.7680 N   0  0  0  0  0  0  0  0  0  0  0  0
   41.2590   27.1130   34.1220 C   0  0  0  0  0  0  0  0  0  0  0  0
   42.1690   27.3160   33.1640 N   0  0  0  0  0  0  0  0  0  0  0  0
   38.0820   27.1000   32.4000 N   0  0  0  0  0  0  0  0  0  0  0  0
   37.2890   28.0010   31.6040 C   0  0  0  0  0  0  0  0  0  0  0  0
   36.2870   27.3700   30.6980 C   0  0  0  0  0  0  0  0  0  0  0  0
   35.5680   26.1830   31.2350 C   0  0  0  0  0  0  0  0  0  0  0  0
   36.5860   25.2540   31.8910 C   0  0  0  0  0  0  0  0  0  0  0  0
   37.2260   26.1370   32.9910 C   0  0  1  0  0  0  0  0  0  0  0  0
   42.4420   27.6320   31.0470 H   0  0  0  0  0  0  0  0  0  0  0  0
   40.0120   27.5190   30.5360 H   0  0  0  0  0  0  0  0  0  0  0  0
   41.5960   26.9950   35.1450 H   0  0  0  0  0  0  0  0  0  0  0  0
   37.9490   28.6510   31.0120 H   0  0  0  0  0  0  0  0  0  0  0  0
   36.7320   28.6710   32.3010 H   0  0  0  0  0  0  0  0  0  0  0  0
   35.6130   28.1500   30.3420 H   0  0  0  0  0  0  0  0  0  0  0  0
   36.8540   27.0380   29.7860 H   0  0  0  0  0  0  0  0  0  0  0  0
   35.1270   25.6180   30.3970 H   0  0  0  0  0  0  0  0  0  0  0  0
   34.8290   26.4350   32.0210 H   0  0  0  0  0  0  0  0  0  0  0  0
   36.0520   24.3950   32.3420 H   0  0  0  0  0  0  0  0  0  0  0  0
   37.3540   24.9090   31.2070 H   0  0  0  0  0  0  0  0  0  0  0  0
   36.3370   26.6850   33.4700 H   0  0  0  0  0  0  0  0  0  0  0  0
   37.8210   25.2230   33.9870 C   0  0  0  0  0  0  0  0  0  0  0  0
   38.5640   24.0940   33.7140 C   0  0  0  0  0  0  0  0  0  0  0  0
   38.7680   23.8500   32.6700 H   0  0  0  0  0  0  0  0  0  0  0  0
   39.0930   23.2470   34.6640 C   0  0  0  0  0  3  0  0  0  0  0  0
   38.8790   23.5230   35.9950 C   0  0  0  0  0  0  0  0  0  0  0  0
   39.4050   22.6820   36.9030 N   0  0  0  0  0  0  0  0  0  0  0  0
   39.2180   22.9180   38.2340 C   0  0  0  0  0  0  0  0  0  0  0  0
   39.6140   22.2810   39.0020 H   0  0  0  0  0  0  0  0  0  0  0  0
   38.4920   24.0150   38.6360 C   0  0  0  0  0  3  0  0  0  0  0  0
   37.9500   24.8840   37.6860 C   0  0  0  0  0  3  0  0  0  0  0  0
   38.1450   24.6370   36.3410 C   0  0  0  0  0  0  0  0  0  0  0  0
   37.6450   25.4420   35.3400 C   0  0  0  0  0  3  0  0  0  0  0  0
  1  6  1  0  0  0  0
  2  1  2  0  0  0  0
  2  3  1  0  0  0  0
  3  4  2  0  0  0  0
  4  5  1  0  0  0  0
  5 15  1  0  0  0  0
  6  5  2  0  0  0  0
  7  3  1  0  0  0  0
  7 12  1  0  0  0  0
  8 17  1  0  0  0  0
  8  7  1  0  0  0  0
  9 10  1  0  0  0  0
  9  8  1  0  0  0  0
 10 11  1  0  0  0  0
 10 21  1  0  0  0  0
 11 22  1  0  0  0  0
 11 12  1  0  0  0  0
 12 24  1  1  0  0  0
 12 25  1  0  0  0  0
 13  1  1  0  0  0  0
 14  2  1  0  0  0  0
 16  8  1  0  0  0  0
 18  9  1  0  0  0  0
 19  9  1  0  0  0  0
 20 10  1  0  0  0  0
 23 11  1  0  0  0  0
 25 36  1  0  0  0  0
 26 25  2  0  0  0  0
 26 28  1  0  0  0  0
 27 26  1  0  0  0  0
 28 29  2  0  0  0  0
 29 35  1  0  0  0  0
 29 30  1  0  0  0  0
 30 31  2  0  0  0  0
 31 33  1  0  0  0  0
 31 32  1  0  0  0  0
 34 33  2  0  0  0  0
 35 34  1  0  0  0  0
 36 35  2  0  0  0  0
M  END
>  <minimizedAffinity>
-5.59653425

$$$$

 OpenBabel03272505073D

 36 39  0  0  1  0  0  0  0  0999 V2000
   39.2100   26.7080   35.6620 C   0  0  0  0  0  0  0  0  0  0  0  0
   38.5490   27.5160   34.7340 C   0  0  0  0  0  0  0  0  0  0  0  0
   37.5920   26.9170   33.9430 C   0  0  0  0  0  0  0  0  0  0  0  0
   37.3750   25.6080   34.1310 N   0  0  0  0  0  0  0  0  0  0  0  0
   38.0110   24.8390   35.0220 C   0  0  0  0  0  0  0  0  0  0  0  0
   38.9420   25.4080   35.7950 N   0  0  0  0  0  0  0  0  0  0  0  0
   36.7880   27.5120   32.9200 N   0  0  0  0  0  0  0  0  0  0  0  0
   36.1250   28.7810   33.0750 C   0  0  0  0  0  0  0  0  0  0  0  0
   36.2830   29.7470   31.9510 C   0  0  0  0  0  0  0  0  0  0  0  0
   36.2600   29.1730   30.5790 C   0  0  0  0  0  0  0  0  0  0  0  0
   37.1530   27.9350   30.5550 C   0  0  0  0  0  0  0  0  0  0  0  0
   36.5170   27.0100   31.6230 C   0  0  1  0  0  0  0  0  0  0  0  0
   39.9500   27.2610   36.2460 H   0  0  0  0  0  0  0  0  0  0  0  0
   38.6880   28.5670   34.5490 H   0  0  0  0  0  0  0  0  0  0  0  0
   37.8060   23.7820   35.1430 H   0  0  0  0  0  0  0  0  0  0  0  0
   36.4530   29.2590   34.0080 H   0  0  0  0  0  0  0  0  0  0  0  0
   35.0330   28.5830   33.1910 H   0  0  0  0  0  0  0  0  0  0  0  0
   35.5580   30.5500   32.0880 H   0  0  0  0  0  0  0  0  0  0  0  0
   37.2860   30.2350   32.0960 H   0  0  0  0  0  0  0  0  0  0  0  0
   36.7110   29.8940   29.8760 H   0  0  0  0  0  0  0  0  0  0  0  0
   35.2540   28.8330   30.2610 H   0  0  0  0  0  0  0  0  0  0  0  0
   37.0970   27.4690   29.5520 H   0  0  0  0  0  0  0  0  0  0  0  0
   38.1830   28.1450   30.8220 H   0  0  0  0  0  0  0  0  0  0  0  0
   35.3870   27.0870   31.4300 H   0  0  0  0  0  0  0  0  0  0  0  0
   36.9630   25.6340   31.3230 C   0  0  0  0  0  0  0  0  0  0  0  0
   38.2060   25.2660   30.8520 C   0  0  0  0  0  0  0  0  0  0  0  0
   38.9560   26.0450   30.7080 H   0  0  0  0  0  0  0  0  0  0  0  0
   38.5910   23.9750   30.5630 C   0  0  0  0  0  3  0  0  0  0  0  0
   37.6880   22.9530   30.7470 C   0  0  0  0  0  0  0  0  0  0  0  0
   38.0860   21.7020   30.4580 N   0  0  0  0  0  0  0  0  0  0  0  0
   37.2230   20.6590   30.6270 C   0  0  0  0  0  0  0  0  0  0  0  0
   37.4860   19.6410   30.4120 H   0  0  0  0  0  0  0  0  0  0  0  0
   35.9500   20.8970   31.0920 C   0  0  0  0  0  3  0  0  0  0  0  0
   35.5440   22.2000   31.3900 C   0  0  0  0  0  3  0  0  0  0  0  0
   36.4260   23.2490   31.2160 C   0  0  0  0  0  0  0  0  0  0  0  0
   36.1060   24.5630   31.4860 C   0  0  0  0  0  3  0  0  0  0  0  0
  1  6  1  0  0  0  0
  1 13  1  0  0  0  0
  2  1  2  0  0  0  0
  3  4  2  0  0  0  0
  3  2  1  0  0  0  0
  4  5  1  0  0  0  0
  5 15  1  0  0  0  0
  5  6  2  0  0  0  0
  7  8  1  0  0  0  0
  7  3  1  0  0  0  0
  8 17  1  0  0  0  0
  8 16  1  0  0  0  0
  9 18  1  0  0  0  0
  9 19  1  0  0  0  0
  9  8  1  0  0  0  0
 10  9  1  0  0  0  0
 11 10  1  0  0  0  0
 11 23  1  0  0  0  0
 11 12  1  0  0  0  0
 12 24  1  6  0  0  0
 12  7  1  0  0  0  0
 14  2  1  0  0  0  0
 20 10  1  0  0  0  0
 21 10  1  0  0  0  0
 22 11  1  0  0  0  0
 25 36  1  0  0  0  0
 25 12  1  0  0  0  0
 26 25  2  0  0  0  0
 27 26  1  0  0  0  0
 28 29  2  0  0  0  0
 28 26  1  0  0  0  0
 29 35  1  0  0  0  0
 30 31  2  0  0  0  0
 30 29  1  0  0  0  0
 31 33  1  0  0  0  0
 32 31  1  0  0  0  0
 33 34  2  0  0  0  0
 35 34  1  0  0  0  0
 35 36  2  0  0  0  0
M  END
>  <minimizedAffinity>
-5.58179903

$$$$

 OpenBabel03272505073D

 36 39  0  0  1  0  0  0  0  0999 V2000
   40.3880   24.3760   35.2870 C   0  0  0  0  0  0  0  0  0  0  0  0
   39.6250   25.3000   34.5680 C   0  0  0  0  0  0  0  0  0  0  0  0
   38.3960   24.8820   34.1050 C   0  0  0  0  0  0  0  0  0  0  0  0
   38.0340   23.6220   34.3850 N   0  0  0  0  0  0  0  0  0  0  0  0
   38.7680   22.7410   35.0740 C   0  0  0  0  0  0  0  0  0  0  0  0
   39.9620   23.1360   35.5290 N   0  0  0  0  0  0  0  0  0  0  0  0
   37.4370   25.6210   33.3440 N   0  0  0  0  0  0  0  0  0  0  0  0
   37.0620   26.9780   33.6480 C   0  0  0  0  0  0  0  0  0  0  0  0
   37.0420   27.9280   32.5000 C   0  0  0  0  0  0  0  0  0  0  0  0
   36.5280   27.3930   31.2100 C   0  0  0  0  0  0  0  0  0  0  0  0
   37.1620   26.0270   30.9630 C   0  0  0  0  0  0  0  0  0  0  0  0
   36.7240   25.1960   32.1950 C   0  0  1  0  0  0  0  0  0  0  0  0
   41.3450   24.7890   35.6150 H   0  0  0  0  0  0  0  0  0  0  0  0
   39.8730   26.3180   34.3210 H   0  0  0  0  0  0  0  0  0  0  0  0
   38.4390   21.7300   35.2790 H   0  0  0  0  0  0  0  0  0  0  0  0
   37.7200   27.3770   34.4320 H   0  0  0  0  0  0  0  0  0  0  0  0
   36.0340   26.9580   34.0810 H   0  0  0  0  0  0  0  0  0  0  0  0
   36.5270   28.8360   32.8190 H   0  0  0  0  0  0  0  0  0  0  0  0
   38.1080   28.2430   32.3340 H   0  0  0  0  0  0  0  0  0  0  0  0
   36.8660   28.0450   30.3870 H   0  0  0  0  0  0  0  0  0  0  0  0
   35.4320   27.2290   31.2070 H   0  0  0  0  0  0  0  0  0  0  0  0
   36.7430   25.5970   30.0330 H   0  0  0  0  0  0  0  0  0  0  0  0
   38.2460   26.0610   30.9140 H   0  0  0  0  0  0  0  0  0  0  0  0
   35.6140   25.4610   32.3360 H   0  0  0  0  0  0  0  0  0  0  0  0
   36.8340   23.7720   31.8170 C   0  0  0  0  0  0  0  0  0  0  0  0
   37.8410   23.2070   31.0630 C   0  0  0  0  0  0  0  0  0  0  0  0
   38.6580   23.8470   30.7280 H   0  0  0  0  0  0  0  0  0  0  0  0
   37.9100   21.8770   30.7100 C   0  0  0  0  0  3  0  0  0  0  0  0
   36.9140   21.0230   31.1250 C   0  0  0  0  0  0  0  0  0  0  0  0
   37.0040   19.7310   30.7680 N   0  0  0  0  0  0  0  0  0  0  0  0
   36.0380   18.8500   31.1590 C   0  0  0  0  0  0  0  0  0  0  0  0
   36.0580   17.8080   30.9030 H   0  0  0  0  0  0  0  0  0  0  0  0
   34.9780   19.2930   31.9170 C   0  0  0  0  0  3  0  0  0  0  0  0
   34.8930   20.6380   32.2840 C   0  0  0  0  0  3  0  0  0  0  0  0
   35.8760   21.5220   31.8830 C   0  0  0  0  0  0  0  0  0  0  0  0
   35.8680   22.8630   32.2020 C   0  0  0  0  0  3  0  0  0  0  0  0
  1  6  1  0  0  0  0
  1 13  1  0  0  0  0
  2  1  2  0  0  0  0
  3  4  2  0  0  0  0
  3  2  1  0  0  0  0
  4  5  1  0  0  0  0
  5 15  1  0  0  0  0
  5  6  2  0  0  0  0
  7  8  1  0  0  0  0
  7  3  1  0  0  0  0
  8 17  1  0  0  0  0
  8 16  1  0  0  0  0
  9 18  1  0  0  0  0
  9  8  1  0  0  0  0
 10  9  1  0  0  0  0
 11 10  1  0  0  0  0
 11 12  1  0  0  0  0
 12 24  1  1  0  0  0
 12  7  1  0  0  0  0
 14  2  1  0  0  0  0
 19  9  1  0  0  0  0
 20 10  1  0  0  0  0
 21 10  1  0  0  0  0
 22 11  1  0  0  0  0
 23 11  1  0  0  0  0
 25 12  1  0  0  0  0
 25 36  1  0  0  0  0
 26 25  2  0  0  0  0
 27 26  1  0  0  0  0
 28 26  1  0  0  0  0
 28 29  2  0  0  0  0
 29 35  1  0  0  0  0
 30 29  1  0  0  0  0
 30 31  2  0  0  0  0
 31 33  1  0  0  0  0
 32 31  1  0  0  0  0
 33 34  2  0  0  0  0
 35 36  2  0  0  0  0
 35 34  1  0  0  0  0
M  END
>  <minimizedAffinity>
-5.53569508

$$$$
