
 OpenBabel03262522383D

 30 33  0  0  0  0  0  0  0  0999 V2000
   38.4560   31.3360   47.9920 C   0  0  0  0  0  0  0  0  0  0  0  0
   38.8820   32.6280   48.0420 C   0  0  0  0  0  0  0  0  0  0  0  0
   39.5520   33.2880   47.0490 C   0  0  0  0  0  0  0  0  0  0  0  0
   39.8280   32.6070   45.8960 C   0  0  0  0  0  0  0  0  0  0  0  0
   39.3980   31.2970   45.8400 C   0  0  0  0  0  0  0  0  0  0  0  0
   38.7440   30.6920   46.8420 N   0  0  0  0  0  0  0  0  0  0  0  0
   38.6790   33.2040   48.9470 H   0  0  0  0  0  0  0  0  0  0  0  0
   39.8540   34.3120   47.1660 H   0  0  0  0  0  0  0  0  0  0  0  0
   40.3550   33.0980   45.0910 H   0  0  0  0  0  0  0  0  0  0  0  0
   39.6460   30.4870   44.6500 C   0  0  0  0  0  0  0  0  0  0  0  0
   40.5630   30.9250   43.7030 C   0  0  0  0  0  0  0  0  0  0  0  0
   41.0980   31.8610   43.8360 H   0  0  0  0  0  0  0  0  0  0  0  0
   40.8800   30.2470   42.5410 C   0  0  0  0  0  0  0  0  0  0  0  0
   40.2590   29.0590   42.2870 C   0  0  0  0  0  0  0  0  0  0  0  0
   40.5070   28.3320   41.1820 N   0  0  0  0  0  0  0  0  0  0  0  0
   39.8740   27.1510   40.9480 C   0  0  0  0  0  0  0  0  0  0  0  0
   40.0700   26.5640   40.0630 H   0  0  0  0  0  0  0  0  0  0  0  0
   38.9490   26.6340   41.8290 C   0  0  0  0  0  0  0  0  0  0  0  0
   38.6920   27.3770   42.9640 C   0  0  0  0  0  0  0  0  0  0  0  0
   39.3390   28.5850   43.2010 C   0  0  0  0  0  0  0  0  0  0  0  0
   39.0470   29.2880   44.3490 C   0  0  0  0  0  0  0  0  0  0  0  0
   37.2620   30.2010   51.3840 C   0  0  0  0  0  0  0  0  0  0  0  0
   38.0220   30.9120   50.4350 C   0  0  0  0  0  0  0  0  0  0  0  0
   37.7460   30.6730   49.0790 C   0  0  0  0  0  0  0  0  0  0  0  0
   36.7790   29.7900   48.7740 N   0  0  0  0  0  0  0  0  0  0  0  0
   36.0580   29.1160   49.6940 C   0  0  0  0  0  0  0  0  0  0  0  0
   36.3040   29.3290   50.9920 N   0  0  0  0  0  0  0  0  0  0  0  0
   37.4740   30.3860   52.4160 H   0  0  0  0  0  0  0  0  0  0  0  0
   38.7940   31.6160   50.6720 H   0  0  0  0  0  0  0  0  0  0  0  0
   35.3210   28.4460   49.2750 H   0  0  0  0  0  0  0  0  0  0  0  0
  1  2  1  0  0  0  0
  1 24  1  0  0  0  0
  2  7  1  0  0  0  0
  3  8  1  0  0  0  0
  3  2  2  0  0  0  0
  4  3  1  0  0  0  0
  5  4  2  0  0  0  0
  5  6  1  0  0  0  0
  6  1  2  0  0  0  0
  9  4  1  0  0  0  0
 10  5  1  0  0  0  0
 11 12  1  0  0  0  0
 11 10  2  0  0  0  0
 13 11  1  0  0  0  0
 14 13  2  0  0  0  0
 14 20  1  0  0  0  0
 15 14  1  0  0  0  0
 16 15  2  0  0  0  0
 16 18  1  0  0  0  0
 17 16  1  0  0  0  0
 18 19  2  0  0  0  0
 19 20  1  0  0  0  0
 20 21  2  0  0  0  0
 21 10  1  0  0  0  0
 22 28  1  0  0  0  0
 23 29  1  0  0  0  0
 23 22  2  0  0  0  0
 24 23  1  0  0  0  0
 25 24  2  0  0  0  0
 25 26  1  0  0  0  0
 26 27  2  0  0  0  0
 27 22  1  0  0  0  0
 30 26  1  0  0  0  0
M  END
>  <minimizedAffinity>
-6.63755703

>  <minimizedRMSD>
0.638668954

$$$$
