
 OpenBabel03272509583D

 49 53  0  0  0  0  0  0  0  0999 V2000
   33.5930   27.5050   47.7500 C   0  0  0  0  0  0  0  0  0  0  0  0
   33.7590   26.6280   48.3750 H   0  0  0  0  0  0  0  0  0  0  0  0
   33.8310   27.1950   46.7080 H   0  0  0  0  0  0  0  0  0  0  0  0
   32.1480   27.8670   47.7510 C   0  0  0  0  0  0  0  0  0  0  0  0
   31.3830   27.4160   48.8100 C   0  0  0  0  0  0  0  0  0  0  0  0
   30.0350   27.6970   48.9060 C   0  0  0  0  0  0  0  0  0  0  0  0
   29.4560   28.4250   47.9500 N   0  0  0  0  0  0  0  0  0  0  0  0
   30.2170   28.8630   46.9150 C   0  0  0  0  0  0  0  0  0  0  0  0
   31.5300   28.5990   46.8060 N   0  0  0  0  0  0  0  0  0  0  0  0
   31.8080   26.8240   49.6080 H   0  0  0  0  0  0  0  0  0  0  0  0
   29.4180   27.3450   49.7390 H   0  0  0  0  0  0  0  0  0  0  0  0
   29.5480   29.6720   45.8610 C   0  0  0  0  0  0  0  0  0  0  0  0
   28.7950   30.3680   46.2860 H   0  0  0  0  0  0  0  0  0  0  0  0
   30.3300   30.3170   45.4100 H   0  0  0  0  0  0  0  0  0  0  0  0
   28.9300   28.7920   44.8150 C   0  0  0  0  0  0  0  0  0  0  0  0
   29.6640   28.1670   43.8290 C   0  0  0  0  0  0  0  0  0  0  0  0
   30.7360   28.3120   43.8030 H   0  0  0  0  0  0  0  0  0  0  0  0
   28.9670   27.3820   42.9260 C   0  0  0  0  0  3  0  0  0  0  0  0
   27.5880   27.2220   42.9960 C   0  0  0  0  0  0  0  0  0  0  0  0
   26.9190   26.4630   42.1210 N   0  0  0  0  0  0  0  0  0  0  0  0
   25.5810   26.3400   42.2310 C   0  0  0  0  0  0  0  0  0  0  0  0
   24.9820   25.7360   41.5500 H   0  0  0  0  0  0  0  0  0  0  0  0
   24.8300   26.9690   43.2250 C   0  0  0  0  0  3  0  0  0  0  0  0
   25.4880   27.7480   44.1290 C   0  0  0  0  0  3  0  0  0  0  0  0
   26.8600   27.8630   43.9990 C   0  0  0  0  0  0  0  0  0  0  0  0
   27.5460   28.6350   44.8870 C   0  0  0  0  0  3  0  0  0  0  0  0
   34.4740   28.6200   48.2070 C   0  0  0  0  0  0  0  0  0  0  0  0
   33.9780   29.6100   48.1700 H   0  0  0  0  0  0  0  0  0  0  0  0
   35.3420   28.6800   47.5160 H   0  0  0  0  0  0  0  0  0  0  0  0
   35.0170   28.3680   49.4890 O   0  0  0  0  0  0  0  0  0  0  0  0
   37.3580   30.1860   51.5390 C   0  0  0  0  0  0  0  0  0  0  0  0
   38.0880   30.8810   50.5420 C   0  0  0  0  0  0  0  0  0  0  0  0
   37.7120   30.6650   49.2180 C   0  0  0  0  0  0  0  0  0  0  0  0
   36.6710   29.8010   49.0150 N   0  0  0  0  0  0  0  0  0  0  0  0
   36.0010   29.1620   49.9690 C   0  0  0  0  0  0  0  0  0  0  0  0
   36.3560   29.3620   51.2520 N   0  0  0  0  0  0  0  0  0  0  0  0
   37.7040   30.4020   52.5370 H   0  0  0  0  0  0  0  0  0  0  0  0
   38.9000   31.5510   50.7290 H   0  0  0  0  0  0  0  0  0  0  0  0
   38.9370   33.2800   49.0290 F   0  0  0  0  0  0  0  0  0  0  0  0
   38.9100   32.4910   47.9630 C   0  0  0  0  0  0  0  0  0  0  0  0
   38.3360   31.2810   48.0760 C   0  0  0  0  0  0  0  0  0  0  0  0
   38.3610   30.5290   46.8960 C   0  0  0  0  0  0  0  0  0  0  0  0
   38.9230   30.9960   45.7400 C   0  0  0  0  0  0  0  0  0  0  0  0
   39.4990   32.2450   45.6790 C   0  0  0  0  0  0  0  0  0  0  0  0
   39.4830   32.9860   46.8150 C   0  0  0  0  0  0  0  0  0  0  0  0
   37.9340   29.5340   46.8420 H   0  0  0  0  0  0  0  0  0  0  0  0
   38.9390   30.4000   44.8190 H   0  0  0  0  0  0  0  0  0  0  0  0
   39.9370   32.5940   44.7590 H   0  0  0  0  0  0  0  0  0  0  0  0
   39.9320   33.9710   46.7850 H   0  0  0  0  0  0  0  0  0  0  0  0
  1  4  1  0  0  0  0
  1 27  1  0  0  0  0
  1  2  1  0  0  0  0
  3  1  1  0  0  0  0
  4  5  1  0  0  0  0
  5  6  2  0  0  0  0
  5 10  1  0  0  0  0
  6 11  1  0  0  0  0
  7  6  1  0  0  0  0
  8  7  2  0  0  0  0
  9  8  1  0  0  0  0
  9  4  2  0  0  0  0
 12 13  1  0  0  0  0
 12  8  1  0  0  0  0
 14 12  1  0  0  0  0
 15 26  1  0  0  0  0
 15 12  1  0  0  0  0
 16 15  2  0  0  0  0
 17 16  1  0  0  0  0
 18 19  2  0  0  0  0
 18 16  1  0  0  0  0
 19 25  1  0  0  0  0
 20 21  2  0  0  0  0
 20 19  1  0  0  0  0
 21 23  1  0  0  0  0
 22 21  1  0  0  0  0
 23 24  2  0  0  0  0
 25 24  1  0  0  0  0
 25 26  2  0  0  0  0
 27 30  1  0  0  0  0
 28 27  1  0  0  0  0
 29 27  1  0  0  0  0
 30 35  1  0  0  0  0
 31 37  1  0  0  0  0
 32 38  1  0  0  0  0
 32 31  2  0  0  0  0
 33 32  1  0  0  0  0
 34 33  2  0  0  0  0
 34 35  1  0  0  0  0
 35 36  2  0  0  0  0
 36 31  1  0  0  0  0
 40 41  1  0  0  0  0
 40 39  1  0  0  0  0
 41 33  1  0  0  0  0
 42 41  2  0  0  0  0
 43 42  1  0  0  0  0
 44 43  2  0  0  0  0
 44 45  1  0  0  0  0
 45 40  2  0  0  0  0
 46 42  1  0  0  0  0
 47 43  1  0  0  0  0
 48 44  1  0  0  0  0
 49 45  1  0  0  0  0
M  END
>  <minimizedAffinity>
-6.93469191

>  <minimizedRMSD>
0.0850031897

$$$$
