
 OpenBabel03272509583D

 49 53  0  0  0  0  0  0  0  0999 V2000
   33.1910   28.0630   47.3000 C   0  0  0  0  0  0  0  0  0  0  0  0
   33.6100   27.0640   47.4170 H   0  0  0  0  0  0  0  0  0  0  0  0
   33.1670   28.2660   46.2060 H   0  0  0  0  0  0  0  0  0  0  0  0
   31.7720   28.0790   47.7520 C   0  0  0  0  0  0  0  0  0  0  0  0
   31.5200   27.7090   49.0590 C   0  0  0  0  0  0  0  0  0  0  0  0
   30.2400   27.6900   49.5770 C   0  0  0  0  0  0  0  0  0  0  0  0
   29.2200   28.0390   48.7920 N   0  0  0  0  0  0  0  0  0  0  0  0
   29.4790   28.4010   47.5100 C   0  0  0  0  0  0  0  0  0  0  0  0
   30.7180   28.4250   46.9900 N   0  0  0  0  0  0  0  0  0  0  0  0
   32.3140   27.4180   49.7320 H   0  0  0  0  0  0  0  0  0  0  0  0
   30.0280   27.3980   50.6110 H   0  0  0  0  0  0  0  0  0  0  0  0
   28.3240   28.7850   46.6550 C   0  0  0  0  0  0  0  0  0  0  0  0
   27.4320   29.0550   47.2580 H   0  0  0  0  0  0  0  0  0  0  0  0
   28.6170   29.7140   46.1230 H   0  0  0  0  0  0  0  0  0  0  0  0
   27.9950   27.7020   45.6720 C   0  0  0  0  0  0  0  0  0  0  0  0
   27.2950   27.9320   44.5050 C   0  0  0  0  0  0  0  0  0  0  0  0
   26.9650   28.9380   44.2830 H   0  0  0  0  0  0  0  0  0  0  0  0
   27.0600   26.8410   43.6860 C   0  0  0  0  0  3  0  0  0  0  0  0
   27.5030   25.5640   44.0100 C   0  0  0  0  0  0  0  0  0  0  0  0
   27.2730   24.5130   43.2150 N   0  0  0  0  0  0  0  0  0  0  0  0
   27.7240   23.2930   43.5740 C   0  0  0  0  0  0  0  0  0  0  0  0
   27.5680   22.4010   42.9690 H   0  0  0  0  0  0  0  0  0  0  0  0
   28.4330   23.0510   44.7520 C   0  0  0  0  0  3  0  0  0  0  0  0
   28.6790   24.1060   45.5790 C   0  0  0  0  0  3  0  0  0  0  0  0
   28.2090   25.3480   45.1940 C   0  0  0  0  0  0  0  0  0  0  0  0
   28.4410   26.4220   46.0000 C   0  0  0  0  0  3  0  0  0  0  0  0
   34.0450   29.0510   48.0240 C   0  0  0  0  0  0  0  0  0  0  0  0
   33.4580   29.8060   48.5830 H   0  0  0  0  0  0  0  0  0  0  0  0
   34.6390   29.6110   47.2710 H   0  0  0  0  0  0  0  0  0  0  0  0
   34.9880   28.4130   48.8640 O   0  0  0  0  0  0  0  0  0  0  0  0
   37.1260   30.0140   51.2840 C   0  0  0  0  0  0  0  0  0  0  0  0
   37.9450   30.7920   50.4280 C   0  0  0  0  0  0  0  0  0  0  0  0
   37.6950   30.7030   49.0610 C   0  0  0  0  0  0  0  0  0  0  0  0
   36.6780   29.8700   48.6820 N   0  0  0  0  0  0  0  0  0  0  0  0
   35.9220   29.1510   49.5050 C   0  0  0  0  0  0  0  0  0  0  0  0
   36.1550   29.2280   50.8290 N   0  0  0  0  0  0  0  0  0  0  0  0
   37.3760   30.1330   52.3260 H   0  0  0  0  0  0  0  0  0  0  0  0
   38.7360   31.4350   50.7530 H   0  0  0  0  0  0  0  0  0  0  0  0
   38.7840   33.3820   49.1740 F   0  0  0  0  0  0  0  0  0  0  0  0
   38.9380   32.6590   48.0720 C   0  0  0  0  0  0  0  0  0  0  0  0
   38.4230   31.4170   48.0450 C   0  0  0  0  0  0  0  0  0  0  0  0
   38.6410   30.7400   46.8390 C   0  0  0  0  0  0  0  0  0  0  0  0
   39.3180   31.3030   45.7940 C   0  0  0  0  0  0  0  0  0  0  0  0
   39.8260   32.5810   45.8750 C   0  0  0  0  0  0  0  0  0  0  0  0
   39.6220   33.2500   47.0370 C   0  0  0  0  0  0  0  0  0  0  0  0
   38.2820   29.7300   46.6770 H   0  0  0  0  0  0  0  0  0  0  0  0
   39.4860   30.7660   44.8520 H   0  0  0  0  0  0  0  0  0  0  0  0
   40.3560   33.0060   45.0400 H   0  0  0  0  0  0  0  0  0  0  0  0
   40.0150   34.2560   47.1190 H   0  0  0  0  0  0  0  0  0  0  0  0
  1  2  1  0  0  0  0
  1  4  1  0  0  0  0
  1 27  1  0  0  0  0
  3  1  1  0  0  0  0
  4  5  1  0  0  0  0
  5  6  2  0  0  0  0
  5 10  1  0  0  0  0
  6 11  1  0  0  0  0
  7  6  1  0  0  0  0
  8  7  2  0  0  0  0
  9  8  1  0  0  0  0
  9  4  2  0  0  0  0
 12 13  1  0  0  0  0
 12  8  1  0  0  0  0
 14 12  1  0  0  0  0
 15 26  1  0  0  0  0
 15 12  1  0  0  0  0
 16 15  2  0  0  0  0
 17 16  1  0  0  0  0
 18 19  2  0  0  0  0
 18 16  1  0  0  0  0
 19 25  1  0  0  0  0
 20 21  2  0  0  0  0
 20 19  1  0  0  0  0
 21 23  1  0  0  0  0
 22 21  1  0  0  0  0
 23 24  2  0  0  0  0
 25 24  1  0  0  0  0
 25 26  2  0  0  0  0
 27 28  1  0  0  0  0
 27 30  1  0  0  0  0
 29 27  1  0  0  0  0
 30 35  1  0  0  0  0
 31 37  1  0  0  0  0
 32 38  1  0  0  0  0
 32 31  2  0  0  0  0
 33 32  1  0  0  0  0
 34 33  2  0  0  0  0
 34 35  1  0  0  0  0
 35 36  2  0  0  0  0
 36 31  1  0  0  0  0
 40 39  1  0  0  0  0
 41 40  1  0  0  0  0
 41 33  1  0  0  0  0
 42 41  2  0  0  0  0
 43 44  2  0  0  0  0
 43 42  1  0  0  0  0
 44 45  1  0  0  0  0
 45 49  1  0  0  0  0
 45 40  2  0  0  0  0
 46 42  1  0  0  0  0
 47 43  1  0  0  0  0
 48 44  1  0  0  0  0
M  END
>  <minimizedAffinity>
-7.1500392

>  <minimizedRMSD>
1.11045241

$$$$
