
 OpenBabel03272509583D

 49 53  0  0  0  0  0  0  0  0999 V2000
   33.2450   27.3730   48.2250 C   0  0  0  0  0  0  0  0  0  0  0  0
   33.3650   26.7930   49.1390 H   0  0  0  0  0  0  0  0  0  0  0  0
   33.4510   26.6750   47.3830 H   0  0  0  0  0  0  0  0  0  0  0  0
   31.8250   27.7960   48.0700 C   0  0  0  0  0  0  0  0  0  0  0  0
   30.9450   27.4420   49.0760 C   0  0  0  0  0  0  0  0  0  0  0  0
   29.6090   27.7850   49.0280 C   0  0  0  0  0  0  0  0  0  0  0  0
   29.1560   28.4780   47.9830 N   0  0  0  0  0  0  0  0  0  0  0  0
   30.0280   28.8210   47.0010 C   0  0  0  0  0  0  0  0  0  0  0  0
   31.3310   28.4950   47.0310 N   0  0  0  0  0  0  0  0  0  0  0  0
   31.2670   26.8810   49.9410 H   0  0  0  0  0  0  0  0  0  0  0  0
   28.9030   27.5100   49.8180 H   0  0  0  0  0  0  0  0  0  0  0  0
   29.4980   29.5920   45.8460 C   0  0  0  0  0  0  0  0  0  0  0  0
   29.1960   30.6200   46.1350 H   0  0  0  0  0  0  0  0  0  0  0  0
   30.3400   29.7180   45.1330 H   0  0  0  0  0  0  0  0  0  0  0  0
   28.3610   28.8680   45.1880 C   0  0  0  0  0  0  0  0  0  0  0  0
   27.0910   29.3940   45.0870 C   0  0  0  0  0  0  0  0  0  0  0  0
   26.8970   30.3750   45.5000 H   0  0  0  0  0  0  0  0  0  0  0  0
   26.1350   28.6180   44.4540 C   0  0  0  0  0  3  0  0  0  0  0  0
   26.4280   27.3610   43.9370 C   0  0  0  0  0  0  0  0  0  0  0  0
   25.5000   26.6150   43.3260 N   0  0  0  0  0  0  0  0  0  0  0  0
   25.8330   25.4020   42.8410 C   0  0  0  0  0  0  0  0  0  0  0  0
   25.1240   24.7490   42.3340 H   0  0  0  0  0  0  0  0  0  0  0  0
   27.1160   24.8610   42.9370 C   0  0  0  0  0  3  0  0  0  0  0  0
   28.0790   25.6020   43.5560 C   0  0  0  0  0  3  0  0  0  0  0  0
   27.7180   26.8430   44.0460 C   0  0  0  0  0  0  0  0  0  0  0  0
   28.6590   27.6060   44.6700 C   0  0  0  0  0  3  0  0  0  0  0  0
   34.1980   28.5230   48.2320 C   0  0  0  0  0  0  0  0  0  0  0  0
   34.0120   29.2470   47.4140 H   0  0  0  0  0  0  0  0  0  0  0  0
   35.2210   28.1230   48.0700 H   0  0  0  0  0  0  0  0  0  0  0  0
   34.2300   29.1690   49.4900 O   0  0  0  0  0  0  0  0  0  0  0  0
   37.0650   29.8500   51.6090 C   0  0  0  0  0  0  0  0  0  0  0  0
   37.9180   30.5120   50.6910 C   0  0  0  0  0  0  0  0  0  0  0  0
   37.4450   30.6750   49.3920 C   0  0  0  0  0  0  0  0  0  0  0  0
   36.1970   30.1770   49.1330 N   0  0  0  0  0  0  0  0  0  0  0  0
   35.4150   29.5610   50.0120 C   0  0  0  0  0  0  0  0  0  0  0  0
   35.8620   29.3960   51.2720 N   0  0  0  0  0  0  0  0  0  0  0  0
   37.4970   29.7620   52.5930 H   0  0  0  0  0  0  0  0  0  0  0  0
   38.8920   30.8920   50.9210 H   0  0  0  0  0  0  0  0  0  0  0  0
   38.6960   33.2850   49.3910 F   0  0  0  0  0  0  0  0  0  0  0  0
   38.7580   32.5280   48.3020 C   0  0  0  0  0  0  0  0  0  0  0  0
   38.1690   31.3200   48.3280 C   0  0  0  0  0  0  0  0  0  0  0  0
   38.2940   30.6040   47.1320 C   0  0  0  0  0  0  0  0  0  0  0  0
   38.9570   31.1010   46.0450 C   0  0  0  0  0  0  0  0  0  0  0  0
   39.5440   32.3460   46.0720 C   0  0  0  0  0  0  0  0  0  0  0  0
   39.4320   33.0530   47.2250 C   0  0  0  0  0  0  0  0  0  0  0  0
   37.8680   29.6140   47.0100 H   0  0  0  0  0  0  0  0  0  0  0  0
   39.0510   30.5330   45.1110 H   0  0  0  0  0  0  0  0  0  0  0  0
   40.0620   32.7190   45.2050 H   0  0  0  0  0  0  0  0  0  0  0  0
   39.8870   34.0350   47.2650 H   0  0  0  0  0  0  0  0  0  0  0  0
  1 27  1  0  0  0  0
  1  2  1  0  0  0  0
  3  1  1  0  0  0  0
  4  1  1  0  0  0  0
  4  5  1  0  0  0  0
  5 10  1  0  0  0  0
  6  5  2  0  0  0  0
  6 11  1  0  0  0  0
  7  6  1  0  0  0  0
  8  9  1  0  0  0  0
  8  7  2  0  0  0  0
  9  4  2  0  0  0  0
 12 13  1  0  0  0  0
 12  8  1  0  0  0  0
 14 12  1  0  0  0  0
 15 12  1  0  0  0  0
 16 15  1  0  0  0  0
 16 17  1  0  0  0  0
 18 16  2  0  0  0  0
 19 25  1  0  0  0  0
 19 18  1  0  0  0  0
 20 19  2  0  0  0  0
 21 23  2  0  0  0  0
 21 20  1  0  0  0  0
 22 21  1  0  0  0  0
 23 24  1  0  0  0  0
 24 25  2  0  0  0  0
 25 26  1  0  0  0  0
 26 15  2  0  0  0  0
 27 30  1  0  0  0  0
 28 27  1  0  0  0  0
 29 27  1  0  0  0  0
 30 35  1  0  0  0  0
 31 37  1  0  0  0  0
 32 38  1  0  0  0  0
 32 31  2  0  0  0  0
 33 32  1  0  0  0  0
 34 33  2  0  0  0  0
 34 35  1  0  0  0  0
 35 36  2  0  0  0  0
 36 31  1  0  0  0  0
 40 41  1  0  0  0  0
 40 39  1  0  0  0  0
 41 33  1  0  0  0  0
 42 41  2  0  0  0  0
 43 44  2  0  0  0  0
 43 42  1  0  0  0  0
 44 45  1  0  0  0  0
 45 49  1  0  0  0  0
 45 40  2  0  0  0  0
 46 42  1  0  0  0  0
 47 43  1  0  0  0  0
 48 44  1  0  0  0  0
M  END
>  <minimizedAffinity>
-6.96331024

>  <minimizedRMSD>
1.27299571

$$$$
