
 OpenBabel03262523443D

 31 34  0  0  0  0  0  0  0  0999 V2000
   38.0270   33.3740   49.5270 Cl  0  0  0  0  0  0  0  0  0  0  0  0
   38.4780   32.5000   48.0770 C   0  0  0  0  0  0  0  0  0  0  0  0
   38.0770   31.1930   47.8840 C   0  0  0  0  0  0  0  0  0  0  0  0
   38.4680   30.5690   46.7270 C   0  0  0  0  0  0  0  0  0  0  0  0
   39.2390   31.2080   45.7680 C   0  0  0  0  0  0  0  0  0  0  0  0
   39.6210   32.5230   46.0010 C   0  0  0  0  0  0  0  0  0  0  0  0
   40.5890   33.2780   44.7620 Cl  0  0  0  0  0  0  0  0  0  0  0  0
   39.2520   33.1820   47.1440 C   0  0  0  0  0  0  0  0  0  0  0  0
   38.1390   29.5450   46.6020 H   0  0  0  0  0  0  0  0  0  0  0  0
   39.5510   34.1940   47.3130 H   0  0  0  0  0  0  0  0  0  0  0  0
   39.5670   30.4040   44.5950 C   0  0  0  0  0  0  0  0  0  0  0  0
   40.5870   30.7990   43.7480 C   0  0  0  0  0  0  0  0  0  0  0  0
   41.1740   31.6920   43.9060 H   0  0  0  0  0  0  0  0  0  0  0  0
   40.9150   30.0540   42.6350 C   0  0  0  0  0  0  0  0  0  0  0  0
   40.2560   28.8940   42.3060 C   0  0  0  0  0  0  0  0  0  0  0  0
   40.5730   28.1680   41.2210 N   0  0  0  0  0  0  0  0  0  0  0  0
   39.8920   27.0390   40.9500 C   0  0  0  0  0  0  0  0  0  0  0  0
   40.1920   26.4860   40.0550 H   0  0  0  0  0  0  0  0  0  0  0  0
   38.8640   26.5650   41.7290 C   0  0  0  0  0  0  0  0  0  0  0  0
   38.5420   27.3160   42.8420 C   0  0  0  0  0  0  0  0  0  0  0  0
   39.2280   28.4880   43.1500 C   0  0  0  0  0  0  0  0  0  0  0  0
   38.8970   29.2430   44.2770 C   0  0  0  0  0  0  0  0  0  0  0  0
   37.0340   29.3890   51.0530 C   0  0  0  0  0  0  0  0  0  0  0  0
   37.8190   29.9720   50.0510 C   0  0  0  0  0  0  0  0  0  0  0  0
   37.2630   30.5790   48.9420 C   0  0  0  0  0  0  0  0  0  0  0  0
   35.8990   30.5840   48.8690 N   0  0  0  0  0  0  0  0  0  0  0  0
   35.1560   30.0190   49.8420 C   0  0  0  0  0  0  0  0  0  0  0  0
   35.7020   29.4370   50.9060 N   0  0  0  0  0  0  0  0  0  0  0  0
   37.5700   28.9400   51.8780 H   0  0  0  0  0  0  0  0  0  0  0  0
   38.8970   29.9460   50.1460 H   0  0  0  0  0  0  0  0  0  0  0  0
   34.0780   29.9930   49.8370 H   0  0  0  0  0  0  0  0  0  0  0  0
  2  1  1  0  0  0  0
  3  2  1  0  0  0  0
  3 25  1  0  0  0  0
  4  3  2  0  0  0  0
  5  6  2  0  0  0  0
  5  4  1  0  0  0  0
  6  8  1  0  0  0  0
  7  6  1  0  0  0  0
  8 10  1  0  0  0  0
  8  2  2  0  0  0  0
  9  4  1  0  0  0  0
 11  5  1  0  0  0  0
 12 13  1  0  0  0  0
 12 11  2  0  0  0  0
 14 12  1  0  0  0  0
 15 14  2  0  0  0  0
 15 21  1  0  0  0  0
 16 15  1  0  0  0  0
 17 16  2  0  0  0  0
 17 19  1  0  0  0  0
 18 17  1  0  0  0  0
 19 20  2  0  0  0  0
 20 21  1  0  0  0  0
 21 22  2  0  0  0  0
 22 11  1  0  0  0  0
 23 29  1  0  0  0  0
 24 30  1  0  0  0  0
 24 23  2  0  0  0  0
 25 24  1  0  0  0  0
 26 25  2  0  0  0  0
 26 27  1  0  0  0  0
 27 28  2  0  0  0  0
 28 23  1  0  0  0  0
 31 27  1  0  0  0  0
M  END
>  <minimizedAffinity>
-7.40677977

>  <minimizedRMSD>
0.688320994

$$$$
