
 OpenBabel03262520543D

 29 32  0  0  1  0  0  0  0  0999 V2000
   36.5320   30.2530   47.3130 C   0  0  2  0  0  0  0  0  0  0  0  0
   35.2960   30.7640   46.7250 C   0  0  0  0  0  0  0  0  0  0  0  0
   35.5250   29.2800   46.7970 C   0  0  2  0  0  0  0  0  0  0  0  0
   37.4810   30.3790   46.7190 H   0  0  0  0  0  0  0  0  0  0  0  0
   35.2900   31.2410   45.7390 H   0  0  0  0  0  0  0  0  0  0  0  0
   34.5380   31.1940   47.4370 H   0  0  0  0  0  0  0  0  0  0  0  0
   35.8060   28.7590   45.8500 H   0  0  0  0  0  0  0  0  0  0  0  0
   36.0120   29.9590   50.9960 C   0  0  0  0  0  0  0  0  0  0  0  0
   37.2930   30.2430   51.4830 C   0  0  0  0  0  0  0  0  0  0  0  0
   38.3160   30.5310   50.5490 C   0  0  0  0  0  0  0  0  0  0  0  0
   38.0370   30.5260   49.2220 N   0  0  0  0  0  0  0  0  0  0  0  0
   36.7800   30.2440   48.7860 C   0  0  0  0  0  0  0  0  0  0  0  0
   35.7710   29.9630   49.6500 N   0  0  0  0  0  0  0  0  0  0  0  0
   35.2180   29.7370   51.6920 H   0  0  0  0  0  0  0  0  0  0  0  0
   37.5380   30.2530   52.5250 H   0  0  0  0  0  0  0  0  0  0  0  0
   39.3210   30.7540   50.8950 H   0  0  0  0  0  0  0  0  0  0  0  0
   34.6030   28.3260   48.0400 S   0  0  0  0  0  0  0  0  0  0  0  0
   33.4640   27.2140   47.2580 C   0  0  0  0  0  0  0  0  0  0  0  0
   33.4210   25.8610   47.5710 C   0  0  0  0  0  0  0  0  0  0  0  0
   34.1310   25.5230   48.3270 H   0  0  0  0  0  0  0  0  0  0  0  0
   32.5270   25.0170   46.9500 C   0  0  0  0  0  3  0  0  0  0  0  0
   31.6580   25.5210   46.0000 C   0  0  0  0  0  0  0  0  0  0  0  0
   30.7950   24.6820   45.4070 N   0  0  0  0  0  0  0  0  0  0  0  0
   29.9250   25.1140   44.4760 C   0  0  0  0  0  0  0  0  0  0  0  0
   29.2730   24.3660   44.0570 H   0  0  0  0  0  0  0  0  0  0  0  0
   29.9330   26.4520   44.1350 C   0  0  0  0  0  3  0  0  0  0  0  0
   30.8070   27.3430   44.7240 C   0  0  0  0  0  3  0  0  0  0  0  0
   31.6940   26.8820   45.6790 C   0  0  0  0  0  0  0  0  0  0  0  0
   32.5910   27.7060   46.3090 C   0  0  0  0  0  3  0  0  0  0  0  0
  1  4  1  6  0  0  0
  1 12  1  0  0  0  0
  2  3  1  0  0  0  0
  2  1  1  0  0  0  0
  2  6  1  0  0  0  0
  3  7  1  6  0  0  0
  3  1  1  0  0  0  0
  3 17  1  0  0  0  0
  5  2  1  0  0  0  0
  8  9  1  0  0  0  0
  8 14  1  0  0  0  0
  9 15  1  0  0  0  0
 10 16  1  0  0  0  0
 10  9  2  0  0  0  0
 11 10  1  0  0  0  0
 12 11  2  0  0  0  0
 12 13  1  0  0  0  0
 13  8  2  0  0  0  0
 18 19  1  0  0  0  0
 18 17  1  0  0  0  0
 19 20  1  0  0  0  0
 21 19  2  0  0  0  0
 22 21  1  0  0  0  0
 23 22  2  0  0  0  0
 24 23  1  0  0  0  0
 25 24  1  0  0  0  0
 26 24  2  0  0  0  0
 26 27  1  0  0  0  0
 27 28  2  0  0  0  0
 28 22  1  0  0  0  0
 28 29  1  0  0  0  0
 29 18  2  0  0  0  0
M  END
>  <minimizedAffinity>
-2.66765308

>  <minimizedRMSD>
7.20336628

$$$$
