
 OpenBabel03272505333D

 43 47  0  0  0  0  0  0  0  0999 V2000
   38.2210   23.6180   34.2600 N   0  0  0  0  0  0  0  0  0  0  0  0
   38.0580   24.9280   33.9300 C   0  0  0  0  0  0  0  0  0  0  0  0
   37.2950   25.3230   32.8490 C   0  0  0  0  0  0  0  0  0  0  0  0
   36.6890   24.3080   32.0930 C   0  0  0  0  0  0  0  0  0  0  0  0
   35.9830   24.6140   31.0940 O   0  0  0  0  0  0  0  0  0  0  0  0
   36.8550   22.9930   32.4270 N   0  0  0  0  0  0  0  0  0  0  0  0
   37.6100   22.7480   33.4870 C   0  0  0  0  0  0  0  0  0  0  0  0
   37.7410   21.5320   33.7640 O   0  0  0  0  0  0  0  0  0  0  0  0
   38.5300   25.6960   34.5200 H   0  0  0  0  0  0  0  0  0  0  0  0
   39.2900   22.9780   37.7660 C   0  0  0  0  0  0  0  0  0  0  0  0
   38.5240   23.3520   36.6540 C   0  0  0  0  0  0  0  0  0  0  0  0
   38.9980   23.2410   35.3620 C   0  0  0  0  0  0  0  0  0  0  0  0
   40.2360   22.7560   35.2170 N   0  0  0  0  0  0  0  0  0  0  0  0
   41.0140   22.3800   36.2690 C   0  0  0  0  0  0  0  0  0  0  0  0
   40.5260   22.4980   37.5370 N   0  0  0  0  0  0  0  0  0  0  0  0
   38.9180   23.0640   38.7780 H   0  0  0  0  0  0  0  0  0  0  0  0
   37.5510   23.7260   36.8710 H   0  0  0  0  0  0  0  0  0  0  0  0
   42.0140   21.9900   36.1310 H   0  0  0  0  0  0  0  0  0  0  0  0
   37.0830   26.7060   32.4470 C   0  0  0  0  0  0  0  0  0  0  0  0
   37.6280   27.2500   31.3190 C   0  0  0  0  0  0  0  0  0  0  0  0
   37.4430   28.5570   30.9160 C   0  0  0  0  0  0  0  0  0  0  0  0
   36.6440   29.3820   31.7170 C   0  0  0  0  0  0  0  0  0  0  0  0
   36.1130   28.7920   32.8490 C   0  0  0  0  0  0  0  0  0  0  0  0
   36.3330   27.5240   33.1770 N   0  0  0  0  0  0  0  0  0  0  0  0
   38.2530   26.6540   30.6670 H   0  0  0  0  0  0  0  0  0  0  0  0
   37.8820   28.9790   30.0170 H   0  0  0  0  0  0  0  0  0  0  0  0
   36.4830   30.3950   31.4320 H   0  0  0  0  0  0  0  0  0  0  0  0
   35.2660   29.5690   33.7480 C   0  0  0  0  0  0  0  0  0  0  0  0
   33.8880   29.4250   33.7020 C   0  0  0  0  0  0  0  0  0  0  0  0
   33.4460   28.7260   32.9860 H   0  0  0  0  0  0  0  0  0  0  0  0
   32.9710   30.0910   34.4880 C   0  0  0  0  0  3  0  0  0  0  0  0
   33.4700   30.9880   35.4100 C   0  0  0  0  0  0  0  0  0  0  0  0
   32.6420   31.6770   36.2150 N   0  0  0  0  0  0  0  0  0  0  0  0
   33.0990   32.5630   37.1290 C   0  0  0  0  0  0  0  0  0  0  0  0
   32.4240   33.1140   37.7730 H   0  0  0  0  0  0  0  0  0  0  0  0
   34.4820   32.7350   37.2070 C   0  0  0  0  0  3  0  0  0  0  0  0
   35.3840   32.0560   36.4070 C   0  0  0  0  0  3  0  0  0  0  0  0
   34.8350   31.1710   35.5010 C   0  0  0  0  0  0  0  0  0  0  0  0
   35.7100   30.4760   34.6880 C   0  0  0  0  0  3  0  0  0  0  0  0
   36.2270   21.9610   31.6440 C   0  0  0  0  0  0  0  0  0  0  0  0
   35.3530   22.4900   30.7630 F   0  0  0  0  0  0  0  0  0  0  0  0
   35.4900   21.0560   32.4080 F   0  0  0  0  0  0  0  0  0  0  0  0
   37.2040   21.2770   30.9310 F   0  0  0  0  0  0  0  0  0  0  0  0
  1 12  1  0  0  0  0
  2  1  1  0  0  0  0
  2  9  1  0  0  0  0
  3  2  2  0  0  0  0
  4  6  1  0  0  0  0
  4  3  1  0  0  0  0
  5  4  2  0  0  0  0
  6  7  1  0  0  0  0
  7  8  2  0  0  0  0
  7  1  1  0  0  0  0
 10 16  1  0  0  0  0
 11 17  1  0  0  0  0
 11 10  2  0  0  0  0
 12 11  1  0  0  0  0
 13 12  2  0  0  0  0
 13 14  1  0  0  0  0
 14 15  2  0  0  0  0
 15 10  1  0  0  0  0
 18 14  1  0  0  0  0
 19  3  1  0  0  0  0
 19 24  1  0  0  0  0
 20 19  2  0  0  0  0
 21 20  1  0  0  0  0
 21 22  2  0  0  0  0
 22 23  1  0  0  0  0
 23 24  2  0  0  0  0
 23 28  1  0  0  0  0
 25 20  1  0  0  0  0
 26 21  1  0  0  0  0
 27 22  1  0  0  0  0
 28 39  1  0  0  0  0
 29 28  2  0  0  0  0
 29 31  1  0  0  0  0
 30 29  1  0  0  0  0
 31 32  2  0  0  0  0
 32 38  1  0  0  0  0
 32 33  1  0  0  0  0
 33 34  2  0  0  0  0
 34 36  1  0  0  0  0
 34 35  1  0  0  0  0
 37 36  2  0  0  0  0
 38 37  1  0  0  0  0
 39 38  2  0  0  0  0
 40 42  1  0  0  0  0
 40  6  1  0  0  0  0
 41 40  1  0  0  0  0
 43 40  1  0  0  0  0
M  END
>  <minimizedAffinity>
-7.88993931

$$$$

 OpenBabel03272505333D

 43 47  0  0  0  0  0  0  0  0999 V2000
   37.2170   23.0310   32.8900 N   0  0  0  0  0  0  0  0  0  0  0  0
   36.9200   24.2760   32.4290 C   0  0  0  0  0  0  0  0  0  0  0  0
   37.4150   25.4170   33.0290 C   0  0  0  0  0  0  0  0  0  0  0  0
   38.2450   25.2400   34.1460 C   0  0  0  0  0  0  0  0  0  0  0  0
   38.7230   26.2490   34.7320 O   0  0  0  0  0  0  0  0  0  0  0  0
   38.5410   23.9870   34.6070 N   0  0  0  0  0  0  0  0  0  0  0  0
   38.0030   22.9760   33.9410 C   0  0  0  0  0  0  0  0  0  0  0  0
   38.2960   21.8430   34.3900 O   0  0  0  0  0  0  0  0  0  0  0  0
   36.2810   24.3960   31.5700 H   0  0  0  0  0  0  0  0  0  0  0  0
   34.9510   20.2170   31.9960 C   0  0  0  0  0  0  0  0  0  0  0  0
   35.4770   21.3610   32.6130 C   0  0  0  0  0  0  0  0  0  0  0  0
   36.7040   21.8870   32.2650 C   0  0  0  0  0  0  0  0  0  0  0  0
   37.3780   21.2500   31.3010 N   0  0  0  0  0  0  0  0  0  0  0  0
   36.9050   20.1380   30.6750 C   0  0  0  0  0  0  0  0  0  0  0  0
   35.6900   19.6330   31.0350 N   0  0  0  0  0  0  0  0  0  0  0  0
   33.9890   19.8050   32.2700 H   0  0  0  0  0  0  0  0  0  0  0  0
   34.8650   21.7970   33.3690 H   0  0  0  0  0  0  0  0  0  0  0  0
   37.4660   19.6360   29.8970 H   0  0  0  0  0  0  0  0  0  0  0  0
   37.1340   26.7740   32.5830 C   0  0  0  0  0  0  0  0  0  0  0  0
   37.6140   27.2940   31.4150 C   0  0  0  0  0  0  0  0  0  0  0  0
   37.3630   28.5750   30.9700 C   0  0  0  0  0  0  0  0  0  0  0  0
   36.5640   29.4010   31.7700 C   0  0  0  0  0  0  0  0  0  0  0  0
   36.1000   28.8370   32.9430 C   0  0  0  0  0  0  0  0  0  0  0  0
   36.3810   27.5920   33.3100 N   0  0  0  0  0  0  0  0  0  0  0  0
   38.2360   26.6960   30.7620 H   0  0  0  0  0  0  0  0  0  0  0  0
   37.7510   28.9780   30.0390 H   0  0  0  0  0  0  0  0  0  0  0  0
   36.3530   30.3960   31.4540 H   0  0  0  0  0  0  0  0  0  0  0  0
   35.2580   29.6170   33.8450 C   0  0  0  0  0  0  0  0  0  0  0  0
   33.8840   29.4300   33.8470 C   0  0  0  0  0  0  0  0  0  0  0  0
   33.4410   28.6970   33.1670 H   0  0  0  0  0  0  0  0  0  0  0  0
   32.9720   30.0940   34.6420 C   0  0  0  0  0  3  0  0  0  0  0  0
   33.4720   31.0330   35.5200 C   0  0  0  0  0  0  0  0  0  0  0  0
   32.6490   31.7230   36.3300 N   0  0  0  0  0  0  0  0  0  0  0  0
   33.1070   32.6490   37.2010 C   0  0  0  0  0  0  0  0  0  0  0  0
   32.4360   33.2000   37.8500 H   0  0  0  0  0  0  0  0  0  0  0  0
   34.4860   32.8650   37.2300 C   0  0  0  0  0  3  0  0  0  0  0  0
   35.3830   32.1870   36.4220 C   0  0  0  0  0  3  0  0  0  0  0  0
   34.8330   31.2590   35.5620 C   0  0  0  0  0  0  0  0  0  0  0  0
   35.7030   30.5650   34.7420 C   0  0  0  0  0  3  0  0  0  0  0  0
   39.3940   23.8190   35.7530 C   0  0  0  0  0  0  0  0  0  0  0  0
   40.5470   24.5020   35.6000 F   0  0  0  0  0  0  0  0  0  0  0  0
   39.7690   22.4940   35.9760 F   0  0  0  0  0  0  0  0  0  0  0  0
   38.7430   24.3110   36.8780 F   0  0  0  0  0  0  0  0  0  0  0  0
  1  7  1  0  0  0  0
  2  1  1  0  0  0  0
  2  3  2  0  0  0  0
  3  4  1  0  0  0  0
  4  6  1  0  0  0  0
  4  5  2  0  0  0  0
  6 40  1  0  0  0  0
  7  8  2  0  0  0  0
  7  6  1  0  0  0  0
  9  2  1  0  0  0  0
 10 16  1  0  0  0  0
 10 11  1  0  0  0  0
 11 17  1  0  0  0  0
 12 11  2  0  0  0  0
 12  1  1  0  0  0  0
 13 12  1  0  0  0  0
 14 15  1  0  0  0  0
 14 13  2  0  0  0  0
 15 10  2  0  0  0  0
 18 14  1  0  0  0  0
 19  3  1  0  0  0  0
 19 24  1  0  0  0  0
 20 19  2  0  0  0  0
 21 20  1  0  0  0  0
 21 22  2  0  0  0  0
 22 23  1  0  0  0  0
 23 24  2  0  0  0  0
 23 28  1  0  0  0  0
 25 20  1  0  0  0  0
 26 21  1  0  0  0  0
 27 22  1  0  0  0  0
 28 29  2  0  0  0  0
 28 39  1  0  0  0  0
 29 31  1  0  0  0  0
 30 29  1  0  0  0  0
 31 32  2  0  0  0  0
 32 38  1  0  0  0  0
 32 33  1  0  0  0  0
 33 34  2  0  0  0  0
 34 36  1  0  0  0  0
 34 35  1  0  0  0  0
 37 36  2  0  0  0  0
 38 37  1  0  0  0  0
 39 38  2  0  0  0  0
 40 42  1  0  0  0  0
 40 43  1  0  0  0  0
 41 40  1  0  0  0  0
M  END
>  <minimizedAffinity>
-7.60032845

$$$$

 OpenBabel03272505333D

 43 47  0  0  0  0  0  0  0  0999 V2000
   37.1790   23.0270   32.9320 N   0  0  0  0  0  0  0  0  0  0  0  0
   36.8800   24.2760   32.4820 C   0  0  0  0  0  0  0  0  0  0  0  0
   37.3250   25.4140   33.1260 C   0  0  0  0  0  0  0  0  0  0  0  0
   38.1060   25.2300   34.2770 C   0  0  0  0  0  0  0  0  0  0  0  0
   38.5370   26.2350   34.9030 O   0  0  0  0  0  0  0  0  0  0  0  0
   38.4050   23.9730   34.7270 N   0  0  0  0  0  0  0  0  0  0  0  0
   37.9170   22.9660   34.0180 C   0  0  0  0  0  0  0  0  0  0  0  0
   38.2100   21.8290   34.4590 O   0  0  0  0  0  0  0  0  0  0  0  0
   36.2790   24.4010   31.5970 H   0  0  0  0  0  0  0  0  0  0  0  0
   35.0250   20.1720   31.9040 C   0  0  0  0  0  0  0  0  0  0  0  0
   35.5000   21.3130   32.5650 C   0  0  0  0  0  0  0  0  0  0  0  0
   36.7180   21.8870   32.2630 C   0  0  0  0  0  0  0  0  0  0  0  0
   37.4340   21.3000   31.2980 N   0  0  0  0  0  0  0  0  0  0  0  0
   37.0120   20.1920   30.6300 C   0  0  0  0  0  0  0  0  0  0  0  0
   35.8050   19.6400   30.9450 N   0  0  0  0  0  0  0  0  0  0  0  0
   34.0710   19.7230   32.1410 H   0  0  0  0  0  0  0  0  0  0  0  0
   34.8570   21.7070   33.3180 H   0  0  0  0  0  0  0  0  0  0  0  0
   37.6070   19.7310   29.8520 H   0  0  0  0  0  0  0  0  0  0  0  0
   37.0390   26.7740   32.6930 C   0  0  0  0  0  0  0  0  0  0  0  0
   37.4060   27.2650   31.4730 C   0  0  0  0  0  0  0  0  0  0  0  0
   37.1470   28.5490   31.0400 C   0  0  0  0  0  0  0  0  0  0  0  0
   36.4640   29.4080   31.9090 C   0  0  0  0  0  0  0  0  0  0  0  0
   36.1120   28.8720   33.1330 C   0  0  0  0  0  0  0  0  0  0  0  0
   36.3930   27.6230   33.4860 N   0  0  0  0  0  0  0  0  0  0  0  0
   37.9360   26.6410   30.7660 H   0  0  0  0  0  0  0  0  0  0  0  0
   37.4450   28.9290   30.0670 H   0  0  0  0  0  0  0  0  0  0  0  0
   36.2500   30.4050   31.6030 H   0  0  0  0  0  0  0  0  0  0  0  0
   35.3950   29.6880   34.1090 C   0  0  0  0  0  0  0  0  0  0  0  0
   36.0870   30.5950   34.8960 C   0  0  0  0  0  0  0  0  0  0  0  0
   37.1710   30.6920   34.7780 H   0  0  0  0  0  0  0  0  0  0  0  0
   35.5420   31.4270   35.8540 C   0  0  0  0  0  3  0  0  0  0  0  0
   34.1780   31.3490   36.0480 C   0  0  0  0  0  0  0  0  0  0  0  0
   33.5700   32.1260   36.9610 N   0  0  0  0  0  0  0  0  0  0  0  0
   32.2360   32.0740   37.1760 C   0  0  0  0  0  0  0  0  0  0  0  0
   31.7550   32.7040   37.9150 H   0  0  0  0  0  0  0  0  0  0  0  0
   31.5040   31.1730   36.4020 C   0  0  0  0  0  3  0  0  0  0  0  0
   32.0730   30.3480   35.4460 C   0  0  0  0  0  3  0  0  0  0  0  0
   33.4390   30.4630   35.2900 C   0  0  0  0  0  0  0  0  0  0  0  0
   34.0370   29.6530   34.3440 C   0  0  0  0  0  3  0  0  0  0  0  0
   39.2070   23.7980   35.9080 C   0  0  0  0  0  0  0  0  0  0  0  0
   39.2590   22.4990   36.2660 F   0  0  0  0  0  0  0  0  0  0  0  0
   38.7080   24.4750   37.0220 F   0  0  0  0  0  0  0  0  0  0  0  0
   40.5010   24.2310   35.6450 F   0  0  0  0  0  0  0  0  0  0  0  0
  1  7  1  0  0  0  0
  2  1  1  0  0  0  0
  2  3  2  0  0  0  0
  3  4  1  0  0  0  0
  4  6  1  0  0  0  0
  4  5  2  0  0  0  0
  6 40  1  0  0  0  0
  7  8  2  0  0  0  0
  7  6  1  0  0  0  0
  9  2  1  0  0  0  0
 10 16  1  0  0  0  0
 10 11  1  0  0  0  0
 11 17  1  0  0  0  0
 12 11  2  0  0  0  0
 12  1  1  0  0  0  0
 13 12  1  0  0  0  0
 14 15  1  0  0  0  0
 14 13  2  0  0  0  0
 15 10  2  0  0  0  0
 18 14  1  0  0  0  0
 19  3  1  0  0  0  0
 19 24  1  0  0  0  0
 20 19  2  0  0  0  0
 21 20  1  0  0  0  0
 21 22  2  0  0  0  0
 22 23  1  0  0  0  0
 23 24  2  0  0  0  0
 23 28  1  0  0  0  0
 25 20  1  0  0  0  0
 26 21  1  0  0  0  0
 27 22  1  0  0  0  0
 28 39  2  0  0  0  0
 28 29  1  0  0  0  0
 29 31  2  0  0  0  0
 30 29  1  0  0  0  0
 31 32  1  0  0  0  0
 32 33  1  0  0  0  0
 33 34  2  0  0  0  0
 34 35  1  0  0  0  0
 36 34  1  0  0  0  0
 37 36  2  0  0  0  0
 38 37  1  0  0  0  0
 38 32  2  0  0  0  0
 39 38  1  0  0  0  0
 40 41  1  0  0  0  0
 40 42  1  0  0  0  0
 43 40  1  0  0  0  0
M  END
>  <minimizedAffinity>
-7.39795876

$$$$

 OpenBabel03272505333D

 43 47  0  0  0  0  0  0  0  0999 V2000
   40.6430   22.9920   35.7260 N   0  0  0  0  0  0  0  0  0  0  0  0
   39.9260   23.4360   34.6580 C   0  0  0  0  0  0  0  0  0  0  0  0
   38.6730   24.0000   34.7980 C   0  0  0  0  0  0  0  0  0  0  0  0
   38.1610   24.0970   36.1000 C   0  0  0  0  0  0  0  0  0  0  0  0
   37.0210   24.6020   36.2840 O   0  0  0  0  0  0  0  0  0  0  0  0
   38.8830   23.6500   37.1720 N   0  0  0  0  0  0  0  0  0  0  0  0
   40.0720   23.1310   36.9020 C   0  0  0  0  0  0  0  0  0  0  0  0
   40.7060   22.7310   37.9060 O   0  0  0  0  0  0  0  0  0  0  0  0
   40.3330   23.3550   33.6630 H   0  0  0  0  0  0  0  0  0  0  0  0
   44.3340   22.6430   35.4130 C   0  0  0  0  0  0  0  0  0  0  0  0
   43.0570   23.1960   35.5770 C   0  0  0  0  0  0  0  0  0  0  0  0
   41.9120   22.4250   35.5600 C   0  0  0  0  0  0  0  0  0  0  0  0
   42.0770   21.1100   35.3780 N   0  0  0  0  0  0  0  0  0  0  0  0
   43.2980   20.5310   35.2150 C   0  0  0  0  0  0  0  0  0  0  0  0
   44.4170   21.3110   35.2340 N   0  0  0  0  0  0  0  0  0  0  0  0
   45.2300   23.2470   35.4270 H   0  0  0  0  0  0  0  0  0  0  0  0
   43.0290   24.2520   35.7170 H   0  0  0  0  0  0  0  0  0  0  0  0
   43.4110   19.4650   35.0680 H   0  0  0  0  0  0  0  0  0  0  0  0
   37.8600   24.4920   33.6950 C   0  0  0  0  0  0  0  0  0  0  0  0
   37.4340   23.7010   32.6660 C   0  0  0  0  0  0  0  0  0  0  0  0
   36.6640   24.1430   31.6110 C   0  0  0  0  0  0  0  0  0  0  0  0
   36.2930   25.4930   31.5910 C   0  0  0  0  0  0  0  0  0  0  0  0
   36.7450   26.2580   32.6500 C   0  0  0  0  0  0  0  0  0  0  0  0
   37.4850   25.7650   33.6360 N   0  0  0  0  0  0  0  0  0  0  0  0
   37.6940   22.6520   32.6360 H   0  0  0  0  0  0  0  0  0  0  0  0
   36.3310   23.5040   30.7980 H   0  0  0  0  0  0  0  0  0  0  0  0
   35.6980   25.8640   30.7890 H   0  0  0  0  0  0  0  0  0  0  0  0
   36.4110   27.6770   32.7210 C   0  0  0  0  0  0  0  0  0  0  0  0
   36.2300   28.4060   31.5560 C   0  0  0  0  0  0  0  0  0  0  0  0
   36.3410   27.9080   30.5880 H   0  0  0  0  0  0  0  0  0  0  0  0
   35.9130   29.7470   31.4740 C   0  0  0  0  0  3  0  0  0  0  0  0
   35.7610   30.4290   32.6630 C   0  0  0  0  0  0  0  0  0  0  0  0
   35.4520   31.7380   32.6690 N   0  0  0  0  0  0  0  0  0  0  0  0
   35.2960   32.4350   33.8170 C   0  0  0  0  0  0  0  0  0  0  0  0
   35.0470   33.4900   33.8120 H   0  0  0  0  0  0  0  0  0  0  0  0
   35.4690   31.7350   35.0120 C   0  0  0  0  0  3  0  0  0  0  0  0
   35.7870   30.3890   35.0700 C   0  0  0  0  0  3  0  0  0  0  0  0
   35.9280   29.7520   33.8540 C   0  0  0  0  0  0  0  0  0  0  0  0
   36.2460   28.4070   33.8790 C   0  0  0  0  0  3  0  0  0  0  0  0
   38.3470   23.7550   38.5030 C   0  0  0  0  0  0  0  0  0  0  0  0
   37.7450   24.9480   38.6850 F   0  0  0  0  0  0  0  0  0  0  0  0
   39.3180   23.6680   39.5000 F   0  0  0  0  0  0  0  0  0  0  0  0
   37.4000   22.7560   38.6890 F   0  0  0  0  0  0  0  0  0  0  0  0
  1  7  1  0  0  0  0
  2  3  2  0  0  0  0
  2  1  1  0  0  0  0
  3  4  1  0  0  0  0
  4  5  2  0  0  0  0
  4  6  1  0  0  0  0
  6 40  1  0  0  0  0
  7  6  1  0  0  0  0
  7  8  2  0  0  0  0
  9  2  1  0  0  0  0
 10 16  1  0  0  0  0
 10 11  1  0  0  0  0
 11 17  1  0  0  0  0
 12 11  2  0  0  0  0
 12  1  1  0  0  0  0
 13 12  1  0  0  0  0
 14 15  1  0  0  0  0
 14 13  2  0  0  0  0
 15 10  2  0  0  0  0
 18 14  1  0  0  0  0
 19  3  1  0  0  0  0
 20 19  2  0  0  0  0
 21 20  1  0  0  0  0
 22 21  2  0  0  0  0
 22 23  1  0  0  0  0
 23 28  1  0  0  0  0
 23 24  2  0  0  0  0
 24 19  1  0  0  0  0
 25 20  1  0  0  0  0
 26 21  1  0  0  0  0
 27 22  1  0  0  0  0
 28 39  1  0  0  0  0
 29 28  2  0  0  0  0
 30 29  1  0  0  0  0
 31 29  1  0  0  0  0
 31 32  2  0  0  0  0
 32 33  1  0  0  0  0
 32 38  1  0  0  0  0
 33 34  2  0  0  0  0
 34 36  1  0  0  0  0
 35 34  1  0  0  0  0
 36 37  2  0  0  0  0
 38 39  2  0  0  0  0
 38 37  1  0  0  0  0
 40 41  1  0  0  0  0
 40 43  1  0  0  0  0
 40 42  1  0  0  0  0
M  END
>  <minimizedAffinity>
-7.34481287

$$$$

 OpenBabel03272505333D

 43 47  0  0  0  0  0  0  0  0999 V2000
   35.8500   29.4390   33.9910 N   0  0  0  0  0  0  0  0  0  0  0  0
   36.4520   28.2940   34.4130 C   0  0  0  0  0  0  0  0  0  0  0  0
   37.1870   27.4940   33.5620 C   0  0  0  0  0  0  0  0  0  0  0  0
   37.2890   27.9110   32.2260 C   0  0  0  0  0  0  0  0  0  0  0  0
   37.9480   27.2160   31.4060 O   0  0  0  0  0  0  0  0  0  0  0  0
   36.6840   29.0620   31.8040 N   0  0  0  0  0  0  0  0  0  0  0  0
   36.0100   29.7400   32.7210 C   0  0  0  0  0  0  0  0  0  0  0  0
   35.4670   30.7890   32.3000 O   0  0  0  0  0  0  0  0  0  0  0  0
   36.3640   27.9870   35.4430 H   0  0  0  0  0  0  0  0  0  0  0  0
   34.9890   31.9920   36.5570 C   0  0  0  0  0  0  0  0  0  0  0  0
   35.7160   31.1870   35.6700 C   0  0  0  0  0  0  0  0  0  0  0  0
   35.1110   30.2370   34.8730 C   0  0  0  0  0  0  0  0  0  0  0  0
   33.7840   30.1170   34.9850 N   0  0  0  0  0  0  0  0  0  0  0  0
   33.0390   30.8780   35.8330 C   0  0  0  0  0  0  0  0  0  0  0  0
   33.6570   31.8110   36.6120 N   0  0  0  0  0  0  0  0  0  0  0  0
   35.4640   32.7370   37.1810 H   0  0  0  0  0  0  0  0  0  0  0  0
   36.7680   31.3580   35.6520 H   0  0  0  0  0  0  0  0  0  0  0  0
   31.9650   30.7650   35.9100 H   0  0  0  0  0  0  0  0  0  0  0  0
   37.8520   26.2600   33.9550 C   0  0  0  0  0  0  0  0  0  0  0  0
   38.8300   26.2060   34.9070 C   0  0  0  0  0  0  0  0  0  0  0  0
   39.4750   25.0510   35.2960 C   0  0  0  0  0  0  0  0  0  0  0  0
   39.1060   23.8530   34.6750 C   0  0  0  0  0  0  0  0  0  0  0  0
   38.1140   23.9510   33.7170 C   0  0  0  0  0  0  0  0  0  0  0  0
   37.5330   25.1000   33.3910 N   0  0  0  0  0  0  0  0  0  0  0  0
   39.1500   27.1050   35.4170 H   0  0  0  0  0  0  0  0  0  0  0  0
   40.2520   25.0210   36.0550 H   0  0  0  0  0  0  0  0  0  0  0  0
   39.5870   22.9440   34.9540 H   0  0  0  0  0  0  0  0  0  0  0  0
   37.6580   22.7570   33.0120 C   0  0  0  0  0  0  0  0  0  0  0  0
   38.0110   22.5580   31.6860 C   0  0  0  0  0  0  0  0  0  0  0  0
   38.6300   23.3020   31.1770 H   0  0  0  0  0  0  0  0  0  0  0  0
   37.6530   21.4810   30.9000 C   0  0  0  0  0  3  0  0  0  0  0  0
   36.8690   20.5090   31.4880 C   0  0  0  0  0  0  0  0  0  0  0  0
   36.4780   19.4280   30.7900 N   0  0  0  0  0  0  0  0  0  0  0  0
   35.7120   18.4580   31.3360 C   0  0  0  0  0  0  0  0  0  0  0  0
   35.4010   17.5900   30.7660 H   0  0  0  0  0  0  0  0  0  0  0  0
   35.3370   18.6220   32.6700 C   0  0  0  0  0  3  0  0  0  0  0  0
   35.7080   19.7120   33.4400 C   0  0  0  0  0  3  0  0  0  0  0  0
   36.4900   20.6560   32.8070 C   0  0  0  0  0  0  0  0  0  0  0  0
   36.8770   21.7560   33.5490 C   0  0  0  0  0  3  0  0  0  0  0  0
   36.7970   29.4800   30.4320 C   0  0  0  0  0  0  0  0  0  0  0  0
   38.0610   29.8550   30.1460 F   0  0  0  0  0  0  0  0  0  0  0  0
   35.9980   30.5800   30.1190 F   0  0  0  0  0  0  0  0  0  0  0  0
   36.4610   28.4140   29.6060 F   0  0  0  0  0  0  0  0  0  0  0  0
  1  2  1  0  0  0  0
  1 12  1  0  0  0  0
  2  9  1  0  0  0  0
  3 19  1  0  0  0  0
  3  2  2  0  0  0  0
  4  3  1  0  0  0  0
  5  4  2  0  0  0  0
  6  4  1  0  0  0  0
  6  7  1  0  0  0  0
  7  1  1  0  0  0  0
  8  7  2  0  0  0  0
 10 15  1  0  0  0  0
 10 16  1  0  0  0  0
 11 10  2  0  0  0  0
 12 13  2  0  0  0  0
 12 11  1  0  0  0  0
 13 14  1  0  0  0  0
 14 18  1  0  0  0  0
 14 15  2  0  0  0  0
 17 11  1  0  0  0  0
 19 20  1  0  0  0  0
 20 21  2  0  0  0  0
 20 25  1  0  0  0  0
 21 26  1  0  0  0  0
 22 27  1  0  0  0  0
 22 21  1  0  0  0  0
 23 22  2  0  0  0  0
 24 23  1  0  0  0  0
 24 19  2  0  0  0  0
 28 39  1  0  0  0  0
 28 23  1  0  0  0  0
 29 28  2  0  0  0  0
 30 29  1  0  0  0  0
 31 32  2  0  0  0  0
 31 29  1  0  0  0  0
 32 38  1  0  0  0  0
 33 34  2  0  0  0  0
 33 32  1  0  0  0  0
 34 36  1  0  0  0  0
 35 34  1  0  0  0  0
 36 37  2  0  0  0  0
 38 37  1  0  0  0  0
 38 39  2  0  0  0  0
 40  6  1  0  0  0  0
 41 40  1  0  0  0  0
 42 40  1  0  0  0  0
 43 40  1  0  0  0  0
M  END
>  <minimizedAffinity>
-7.112185

$$$$

 OpenBabel03272505333D

 43 47  0  0  0  0  0  0  0  0999 V2000
   35.4160   30.1070   33.7140 N   0  0  0  0  0  0  0  0  0  0  0  0
   35.6680   28.7720   33.6380 C   0  0  0  0  0  0  0  0  0  0  0  0
   36.2160   28.1920   32.5120 C   0  0  0  0  0  0  0  0  0  0  0  0
   36.5060   29.0430   31.4340 C   0  0  0  0  0  0  0  0  0  0  0  0
   37.0070   28.5630   30.3810 O   0  0  0  0  0  0  0  0  0  0  0  0
   36.2520   30.3840   31.5130 N   0  0  0  0  0  0  0  0  0  0  0  0
   35.7260   30.8150   32.6500 C   0  0  0  0  0  0  0  0  0  0  0  0
   35.5060   32.0480   32.6880 O   0  0  0  0  0  0  0  0  0  0  0  0
   35.4400   28.1320   34.4740 H   0  0  0  0  0  0  0  0  0  0  0  0
   32.9630   31.0550   36.3470 C   0  0  0  0  0  0  0  0  0  0  0  0
   33.5320   30.4940   35.1960 C   0  0  0  0  0  0  0  0  0  0  0  0
   34.8610   30.6750   34.8680 C   0  0  0  0  0  0  0  0  0  0  0  0
   35.5900   31.4190   35.7070 N   0  0  0  0  0  0  0  0  0  0  0  0
   35.0780   31.9820   36.8350 C   0  0  0  0  0  0  0  0  0  0  0  0
   33.7630   31.7910   37.1410 N   0  0  0  0  0  0  0  0  0  0  0  0
   31.9220   30.9130   36.6030 H   0  0  0  0  0  0  0  0  0  0  0  0
   32.8710   29.9180   34.5910 H   0  0  0  0  0  0  0  0  0  0  0  0
   35.6840   32.5810   37.5020 H   0  0  0  0  0  0  0  0  0  0  0  0
   36.5080   26.7720   32.3710 C   0  0  0  0  0  0  0  0  0  0  0  0
   36.1040   26.0270   31.3010 C   0  0  0  0  0  0  0  0  0  0  0  0
   36.3670   24.6820   31.1440 C   0  0  0  0  0  0  0  0  0  0  0  0
   37.0970   24.0360   32.1490 C   0  0  0  0  0  0  0  0  0  0  0  0
   37.4850   24.8260   33.2150 C   0  0  0  0  0  0  0  0  0  0  0  0
   37.1970   26.1200   33.3010 N   0  0  0  0  0  0  0  0  0  0  0  0
   35.5380   26.4800   30.4980 H   0  0  0  0  0  0  0  0  0  0  0  0
   36.0400   24.0990   30.2880 H   0  0  0  0  0  0  0  0  0  0  0  0
   37.3150   22.9980   32.0570 H   0  0  0  0  0  0  0  0  0  0  0  0
   38.2510   24.2460   34.3140 C   0  0  0  0  0  0  0  0  0  0  0  0
   37.9240   24.5540   35.6250 C   0  0  0  0  0  0  0  0  0  0  0  0
   37.0920   25.2340   35.8260 H   0  0  0  0  0  0  0  0  0  0  0  0
   38.5590   24.0800   36.7560 C   0  0  0  0  0  3  0  0  0  0  0  0
   39.6190   23.2180   36.5660 C   0  0  0  0  0  0  0  0  0  0  0  0
   40.2890   22.7120   37.6170 N   0  0  0  0  0  0  0  0  0  0  0  0
   41.3310   21.8660   37.4650 C   0  0  0  0  0  0  0  0  0  0  0  0
   41.8650   21.4630   38.3180 H   0  0  0  0  0  0  0  0  0  0  0  0
   41.6900   21.5300   36.1580 C   0  0  0  0  0  3  0  0  0  0  0  0
   41.0390   22.0170   35.0370 C   0  0  0  0  0  3  0  0  0  0  0  0
   39.9860   22.8760   35.2800 C   0  0  0  0  0  0  0  0  0  0  0  0
   39.3160   23.3790   34.1820 C   0  0  0  0  0  3  0  0  0  0  0  0
   36.5540   31.2450   30.4010 C   0  0  0  0  0  0  0  0  0  0  0  0
   35.4960   32.0230   30.0930 F   0  0  0  0  0  0  0  0  0  0  0  0
   36.8640   30.5520   29.2310 F   0  0  0  0  0  0  0  0  0  0  0  0
   37.6170   32.0720   30.7450 F   0  0  0  0  0  0  0  0  0  0  0  0
  1 12  1  0  0  0  0
  2  1  1  0  0  0  0
  2  9  1  0  0  0  0
  3  2  2  0  0  0  0
  4  6  1  0  0  0  0
  4  3  1  0  0  0  0
  5  4  2  0  0  0  0
  6  7  1  0  0  0  0
  7  8  2  0  0  0  0
  7  1  1  0  0  0  0
 10 16  1  0  0  0  0
 10 15  1  0  0  0  0
 11 10  2  0  0  0  0
 12 11  1  0  0  0  0
 12 13  2  0  0  0  0
 13 14  1  0  0  0  0
 14 15  2  0  0  0  0
 14 18  1  0  0  0  0
 17 11  1  0  0  0  0
 19  3  1  0  0  0  0
 19 24  1  0  0  0  0
 20 19  2  0  0  0  0
 21 20  1  0  0  0  0
 21 22  2  0  0  0  0
 22 23  1  0  0  0  0
 23 24  2  0  0  0  0
 23 28  1  0  0  0  0
 25 20  1  0  0  0  0
 26 21  1  0  0  0  0
 27 22  1  0  0  0  0
 28 29  1  0  0  0  0
 29 30  1  0  0  0  0
 29 31  2  0  0  0  0
 32 31  1  0  0  0  0
 32 33  1  0  0  0  0
 34 33  2  0  0  0  0
 34 35  1  0  0  0  0
 36 34  1  0  0  0  0
 37 38  1  0  0  0  0
 37 36  2  0  0  0  0
 38 32  2  0  0  0  0
 39 28  2  0  0  0  0
 39 38  1  0  0  0  0
 40 43  1  0  0  0  0
 40  6  1  0  0  0  0
 41 40  1  0  0  0  0
 42 40  1  0  0  0  0
M  END
>  <minimizedAffinity>
-7.10927868

$$$$

 OpenBabel03272505333D

 43 47  0  0  0  0  0  0  0  0999 V2000
   35.6390   30.2350   33.1410 N   0  0  0  0  0  0  0  0  0  0  0  0
   35.6440   28.8750   33.1060 C   0  0  0  0  0  0  0  0  0  0  0  0
   36.2370   28.1690   32.0790 C   0  0  0  0  0  0  0  0  0  0  0  0
   36.8410   28.9190   31.0570 C   0  0  0  0  0  0  0  0  0  0  0  0
   37.3960   28.3240   30.0940 O   0  0  0  0  0  0  0  0  0  0  0  0
   36.8340   30.2860   31.0950 N   0  0  0  0  0  0  0  0  0  0  0  0
   36.2330   30.8400   32.1370 C   0  0  0  0  0  0  0  0  0  0  0  0
   36.2450   32.0940   32.1390 O   0  0  0  0  0  0  0  0  0  0  0  0
   35.1760   28.3130   33.8980 H   0  0  0  0  0  0  0  0  0  0  0  0
   35.1240   31.9180   36.4200 C   0  0  0  0  0  0  0  0  0  0  0  0
   35.7170   31.2230   35.3570 C   0  0  0  0  0  0  0  0  0  0  0  0
   35.0330   30.9300   34.1950 C   0  0  0  0  0  0  0  0  0  0  0  0
   33.7620   31.3420   34.1270 N   0  0  0  0  0  0  0  0  0  0  0  0
   33.1470   32.0200   35.1340 C   0  0  0  0  0  0  0  0  0  0  0  0
   33.8410   32.2990   36.2740 N   0  0  0  0  0  0  0  0  0  0  0  0
   35.6610   32.1480   37.3300 H   0  0  0  0  0  0  0  0  0  0  0  0
   36.7330   30.9380   35.5060 H   0  0  0  0  0  0  0  0  0  0  0  0
   32.1170   32.3450   35.0600 H   0  0  0  0  0  0  0  0  0  0  0  0
   36.2750   26.7170   31.9860 C   0  0  0  0  0  0  0  0  0  0  0  0
   35.5330   26.0040   31.0880 C   0  0  0  0  0  0  0  0  0  0  0  0
   35.5510   24.6280   30.9810 C   0  0  0  0  0  0  0  0  0  0  0  0
   36.3840   23.9140   31.8490 C   0  0  0  0  0  0  0  0  0  0  0  0
   37.1160   24.6740   32.7420 C   0  0  0  0  0  0  0  0  0  0  0  0
   37.0510   26.0000   32.7910 N   0  0  0  0  0  0  0  0  0  0  0  0
   34.8740   26.5090   30.3950 H   0  0  0  0  0  0  0  0  0  0  0  0
   34.9560   24.0720   30.2620 H   0  0  0  0  0  0  0  0  0  0  0  0
   36.4190   22.8520   31.7910 H   0  0  0  0  0  0  0  0  0  0  0  0
   38.0150   24.0220   33.6900 C   0  0  0  0  0  0  0  0  0  0  0  0
   39.0320   23.2000   33.2300 C   0  0  0  0  0  0  0  0  0  0  0  0
   39.1510   23.0450   32.1530 H   0  0  0  0  0  0  0  0  0  0  0  0
   39.9500   22.5240   34.0080 C   0  0  0  0  0  3  0  0  0  0  0  0
   39.8490   22.6800   35.3750 C   0  0  0  0  0  0  0  0  0  0  0  0
   40.7050   22.0560   36.2020 N   0  0  0  0  0  0  0  0  0  0  0  0
   40.6340   22.1880   37.5450 C   0  0  0  0  0  0  0  0  0  0  0  0
   41.3290   21.6800   38.2040 H   0  0  0  0  0  0  0  0  0  0  0  0
   39.6240   23.0090   38.0480 C   0  0  0  0  0  3  0  0  0  0  0  0
   38.7130   23.6780   37.2480 C   0  0  0  0  0  3  0  0  0  0  0  0
   38.8560   23.4890   35.8880 C   0  0  0  0  0  0  0  0  0  0  0  0
   37.9610   24.1440   35.0630 C   0  0  0  0  0  3  0  0  0  0  0  0
   37.4570   31.0430   30.0420 C   0  0  0  0  0  0  0  0  0  0  0  0
   38.6080   30.4610   29.6470 F   0  0  0  0  0  0  0  0  0  0  0  0
   37.8020   32.3400   30.4220 F   0  0  0  0  0  0  0  0  0  0  0  0
   36.5970   31.0940   28.9520 F   0  0  0  0  0  0  0  0  0  0  0  0
  1 12  1  0  0  0  0
  2  1  1  0  0  0  0
  2  9  1  0  0  0  0
  3  2  2  0  0  0  0
  4  6  1  0  0  0  0
  4  3  1  0  0  0  0
  5  4  2  0  0  0  0
  6  7  1  0  0  0  0
  7  8  2  0  0  0  0
  7  1  1  0  0  0  0
 10 16  1  0  0  0  0
 11 17  1  0  0  0  0
 11 10  2  0  0  0  0
 12 11  1  0  0  0  0
 13 12  2  0  0  0  0
 13 14  1  0  0  0  0
 14 15  2  0  0  0  0
 15 10  1  0  0  0  0
 18 14  1  0  0  0  0
 19  3  1  0  0  0  0
 19 24  1  0  0  0  0
 20 19  2  0  0  0  0
 21 20  1  0  0  0  0
 21 22  2  0  0  0  0
 22 23  1  0  0  0  0
 23 24  2  0  0  0  0
 23 28  1  0  0  0  0
 25 20  1  0  0  0  0
 26 21  1  0  0  0  0
 27 22  1  0  0  0  0
 28 39  1  0  0  0  0
 29 28  2  0  0  0  0
 29 31  1  0  0  0  0
 30 29  1  0  0  0  0
 31 32  2  0  0  0  0
 32 38  1  0  0  0  0
 32 33  1  0  0  0  0
 33 34  2  0  0  0  0
 34 36  1  0  0  0  0
 34 35  1  0  0  0  0
 37 36  2  0  0  0  0
 38 37  1  0  0  0  0
 39 38  2  0  0  0  0
 40 42  1  0  0  0  0
 40  6  1  0  0  0  0
 41 40  1  0  0  0  0
 43 40  1  0  0  0  0
M  END
>  <minimizedAffinity>
-7.08095789

$$$$

 OpenBabel03272505333D

 43 47  0  0  0  0  0  0  0  0999 V2000
   38.0590   23.4940   34.2850 N   0  0  0  0  0  0  0  0  0  0  0  0
   38.1480   24.7250   33.7100 C   0  0  0  0  0  0  0  0  0  0  0  0
   37.5160   25.0260   32.5210 C   0  0  0  0  0  0  0  0  0  0  0  0
   36.7690   24.0020   31.9190 C   0  0  0  0  0  0  0  0  0  0  0  0
   36.1730   24.2240   30.8310 O   0  0  0  0  0  0  0  0  0  0  0  0
   36.6810   22.7670   32.4990 N   0  0  0  0  0  0  0  0  0  0  0  0
   37.3340   22.6070   33.6400 C   0  0  0  0  0  0  0  0  0  0  0  0
   37.2320   21.4640   34.1440 O   0  0  0  0  0  0  0  0  0  0  0  0
   38.7250   25.5010   34.1850 H   0  0  0  0  0  0  0  0  0  0  0  0
   38.8210   23.3330   37.9240 C   0  0  0  0  0  0  0  0  0  0  0  0
   38.1830   23.6100   36.7070 C   0  0  0  0  0  0  0  0  0  0  0  0
   38.7070   23.2110   35.4930 C   0  0  0  0  0  0  0  0  0  0  0  0
   39.8640   22.5420   35.5310 N   0  0  0  0  0  0  0  0  0  0  0  0
   40.5170   22.2510   36.6890 C   0  0  0  0  0  0  0  0  0  0  0  0
   39.9830   22.6550   37.8770 N   0  0  0  0  0  0  0  0  0  0  0  0
   38.4100   23.6460   38.8740 H   0  0  0  0  0  0  0  0  0  0  0  0
   37.2670   24.1480   36.7810 H   0  0  0  0  0  0  0  0  0  0  0  0
   41.4530   21.7080   36.6990 H   0  0  0  0  0  0  0  0  0  0  0  0
   37.5740   26.3220   31.8580 C   0  0  0  0  0  0  0  0  0  0  0  0
   38.5970   26.6970   31.0350 C   0  0  0  0  0  0  0  0  0  0  0  0
   38.6750   27.9170   30.3960 C   0  0  0  0  0  0  0  0  0  0  0  0
   37.6380   28.8340   30.6050 C   0  0  0  0  0  0  0  0  0  0  0  0
   36.6240   28.4150   31.4460 C   0  0  0  0  0  0  0  0  0  0  0  0
   36.6110   27.2210   32.0290 N   0  0  0  0  0  0  0  0  0  0  0  0
   39.4210   26.0240   30.8410 H   0  0  0  0  0  0  0  0  0  0  0  0
   39.4940   28.2040   29.7430 H   0  0  0  0  0  0  0  0  0  0  0  0
   37.6710   29.7840   30.1260 H   0  0  0  0  0  0  0  0  0  0  0  0
   35.4960   29.2980   31.7270 C   0  0  0  0  0  0  0  0  0  0  0  0
   35.3860   30.5140   31.0690 C   0  0  0  0  0  0  0  0  0  0  0  0
   36.1510   30.8020   30.3420 H   0  0  0  0  0  0  0  0  0  0  0  0
   34.3790   31.4430   31.2360 C   0  0  0  0  0  3  0  0  0  0  0  0
   33.3860   31.1360   32.1420 C   0  0  0  0  0  0  0  0  0  0  0  0
   32.3690   31.9880   32.3620 N   0  0  0  0  0  0  0  0  0  0  0  0
   31.3810   31.7160   33.2420 C   0  0  0  0  0  0  0  0  0  0  0  0
   30.5650   32.4090   33.4130 H   0  0  0  0  0  0  0  0  0  0  0  0
   31.4550   30.5000   33.9240 C   0  0  0  0  0  3  0  0  0  0  0  0
   32.4760   29.5830   33.7410 C   0  0  0  0  0  3  0  0  0  0  0  0
   33.4450   29.9370   32.8240 C   0  0  0  0  0  0  0  0  0  0  0  0
   34.4770   29.0420   32.6200 C   0  0  0  0  0  3  0  0  0  0  0  0
   35.9120   21.7250   31.8720 C   0  0  0  0  0  0  0  0  0  0  0  0
   36.6940   20.6730   31.5560 F   0  0  0  0  0  0  0  0  0  0  0  0
   35.3130   22.1210   30.6750 F   0  0  0  0  0  0  0  0  0  0  0  0
   34.9330   21.2900   32.7570 F   0  0  0  0  0  0  0  0  0  0  0  0
  1 12  1  0  0  0  0
  2  9  1  0  0  0  0
  2  1  1  0  0  0  0
  3  2  2  0  0  0  0
  4  6  1  0  0  0  0
  4  3  1  0  0  0  0
  5  4  2  0  0  0  0
  6  7  1  0  0  0  0
  7  8  2  0  0  0  0
  7  1  1  0  0  0  0
 10 16  1  0  0  0  0
 11 17  1  0  0  0  0
 11 10  2  0  0  0  0
 12 13  2  0  0  0  0
 12 11  1  0  0  0  0
 13 14  1  0  0  0  0
 14 18  1  0  0  0  0
 14 15  2  0  0  0  0
 15 10  1  0  0  0  0
 19 24  1  0  0  0  0
 19  3  1  0  0  0  0
 20 19  2  0  0  0  0
 21 22  2  0  0  0  0
 21 20  1  0  0  0  0
 22 23  1  0  0  0  0
 23 28  1  0  0  0  0
 23 24  2  0  0  0  0
 25 20  1  0  0  0  0
 26 21  1  0  0  0  0
 27 22  1  0  0  0  0
 28 39  1  0  0  0  0
 29 31  1  0  0  0  0
 29 28  2  0  0  0  0
 30 29  1  0  0  0  0
 31 32  2  0  0  0  0
 32 33  1  0  0  0  0
 32 38  1  0  0  0  0
 33 34  2  0  0  0  0
 34 35  1  0  0  0  0
 34 36  1  0  0  0  0
 37 36  2  0  0  0  0
 38 37  1  0  0  0  0
 39 38  2  0  0  0  0
 40  6  1  0  0  0  0
 40 43  1  0  0  0  0
 41 40  1  0  0  0  0
 42 40  1  0  0  0  0
M  END
>  <minimizedAffinity>
-7.03491354

$$$$

 OpenBabel03272505333D

 43 47  0  0  0  0  0  0  0  0999 V2000
   32.9890   30.1300   35.2420 N   0  0  0  0  0  0  0  0  0  0  0  0
   33.6020   29.7170   34.0990 C   0  0  0  0  0  0  0  0  0  0  0  0
   34.7400   30.3300   33.6150 C   0  0  0  0  0  0  0  0  0  0  0  0
   35.2450   31.4110   34.3540 C   0  0  0  0  0  0  0  0  0  0  0  0
   36.2810   32.0070   33.9550 O   0  0  0  0  0  0  0  0  0  0  0  0
   34.6270   31.8240   35.5020 N   0  0  0  0  0  0  0  0  0  0  0  0
   33.5440   31.1490   35.8590 C   0  0  0  0  0  0  0  0  0  0  0  0
   33.0020   31.5540   36.9150 O   0  0  0  0  0  0  0  0  0  0  0  0
   33.2020   28.8860   33.5420 H   0  0  0  0  0  0  0  0  0  0  0  0
   30.7590   27.6590   36.9070 C   0  0  0  0  0  0  0  0  0  0  0  0
   31.9040   28.3100   36.4260 C   0  0  0  0  0  0  0  0  0  0  0  0
   31.8360   29.4910   35.7160 C   0  0  0  0  0  0  0  0  0  0  0  0
   30.6150   29.9950   35.5040 N   0  0  0  0  0  0  0  0  0  0  0  0
   29.4780   29.3970   35.9530 C   0  0  0  0  0  0  0  0  0  0  0  0
   29.5670   28.2300   36.6520 N   0  0  0  0  0  0  0  0  0  0  0  0
   30.8120   26.7340   37.4640 H   0  0  0  0  0  0  0  0  0  0  0  0
   32.8300   27.8310   36.6460 H   0  0  0  0  0  0  0  0  0  0  0  0
   28.4980   29.8200   35.7710 H   0  0  0  0  0  0  0  0  0  0  0  0
   35.4400   29.9350   32.4010 C   0  0  0  0  0  0  0  0  0  0  0  0
   35.7580   30.8090   31.4010 C   0  0  0  0  0  0  0  0  0  0  0  0
   36.4200   30.4600   30.2420 C   0  0  0  0  0  0  0  0  0  0  0  0
   36.7900   29.1200   30.0770 C   0  0  0  0  0  0  0  0  0  0  0  0
   36.4480   28.2690   31.1110 C   0  0  0  0  0  0  0  0  0  0  0  0
   35.8090   28.6740   32.2030 N   0  0  0  0  0  0  0  0  0  0  0  0
   35.4950   31.8550   31.4810 H   0  0  0  0  0  0  0  0  0  0  0  0
   36.6680   31.1650   29.4530 H   0  0  0  0  0  0  0  0  0  0  0  0
   37.3020   28.8200   29.1930 H   0  0  0  0  0  0  0  0  0  0  0  0
   36.7900   26.8520   31.0350 C   0  0  0  0  0  0  0  0  0  0  0  0
   38.0790   26.4670   30.7010 C   0  0  0  0  0  0  0  0  0  0  0  0
   38.8320   27.2330   30.4960 H   0  0  0  0  0  0  0  0  0  0  0  0
   38.5410   25.1700   30.5920 C   0  0  0  0  0  3  0  0  0  0  0  0
   37.6340   24.1600   30.8390 C   0  0  0  0  0  0  0  0  0  0  0  0
   38.0050   22.8700   30.7540 N   0  0  0  0  0  0  0  0  0  0  0  0
   37.1420   21.8560   30.9900 C   0  0  0  0  0  0  0  0  0  0  0  0
   37.4500   20.8190   30.9190 H   0  0  0  0  0  0  0  0  0  0  0  0
   35.8340   22.2040   31.3300 C   0  0  0  0  0  3  0  0  0  0  0  0
   35.3930   23.5130   31.4330 C   0  0  0  0  0  3  0  0  0  0  0  0
   36.3360   24.4860   31.1770 C   0  0  0  0  0  0  0  0  0  0  0  0
   35.9270   25.8030   31.2720 C   0  0  0  0  0  3  0  0  0  0  0  0
   35.1550   32.9320   36.2510 C   0  0  0  0  0  0  0  0  0  0  0  0
   34.5000   34.0720   35.9500 F   0  0  0  0  0  0  0  0  0  0  0  0
   36.5000   33.1900   35.9850 F   0  0  0  0  0  0  0  0  0  0  0  0
   34.9910   32.6800   37.6080 F   0  0  0  0  0  0  0  0  0  0  0  0
  1 12  1  0  0  0  0
  1  7  1  0  0  0  0
  2  1  1  0  0  0  0
  3  2  2  0  0  0  0
  3  4  1  0  0  0  0
  4  6  1  0  0  0  0
  5  4  2  0  0  0  0
  6  7  1  0  0  0  0
  6 40  1  0  0  0  0
  7  8  2  0  0  0  0
  9  2  1  0  0  0  0
 10 16  1  0  0  0  0
 11 17  1  0  0  0  0
 11 10  2  0  0  0  0
 12 11  1  0  0  0  0
 13 12  2  0  0  0  0
 13 14  1  0  0  0  0
 14 15  2  0  0  0  0
 15 10  1  0  0  0  0
 18 14  1  0  0  0  0
 19  3  1  0  0  0  0
 20 25  1  0  0  0  0
 20 19  2  0  0  0  0
 21 20  1  0  0  0  0
 22 21  2  0  0  0  0
 22 23  1  0  0  0  0
 23 24  2  0  0  0  0
 24 19  1  0  0  0  0
 26 21  1  0  0  0  0
 27 22  1  0  0  0  0
 28 23  1  0  0  0  0
 28 39  1  0  0  0  0
 29 28  2  0  0  0  0
 30 29  1  0  0  0  0
 31 29  1  0  0  0  0
 31 32  2  0  0  0  0
 32 38  1  0  0  0  0
 33 32  1  0  0  0  0
 33 34  2  0  0  0  0
 34 36  1  0  0  0  0
 35 34  1  0  0  0  0
 36 37  2  0  0  0  0
 38 39  2  0  0  0  0
 38 37  1  0  0  0  0
 40 43  1  0  0  0  0
 41 40  1  0  0  0  0
 42 40  1  0  0  0  0
M  END
>  <minimizedAffinity>
-6.96274567

$$$$
