
 OpenBabel03272507553D

 26 28  0  0  0  0  0  0  0  0999 V2000
   35.2490   29.0450   50.3160 C   0  0  0  0  0  0  0  0  0  0  0  0
   36.2330   29.9490   49.8400 C   0  0  0  0  0  0  0  0  0  0  0  0
   36.3060   30.2090   48.4810 C   0  0  0  0  0  0  0  0  0  0  0  0
   35.4030   29.5630   47.6560 N   0  0  0  0  0  0  0  0  0  0  0  0
   34.4820   28.7120   48.1350 C   0  0  0  0  0  0  0  0  0  0  0  0
   34.4030   28.4550   49.4370 N   0  0  0  0  0  0  0  0  0  0  0  0
   33.6390   28.1540   47.1470 N   0  0  0  0  0  0  0  0  0  0  0  0
   35.2300   28.8740   51.3780 H   0  0  0  0  0  0  0  0  0  0  0  0
   33.3190   27.1430   47.1930 H   0  0  0  0  0  0  0  0  0  0  0  0
   33.2780   28.6670   46.3260 H   0  0  0  0  0  0  0  0  0  0  0  0
   37.2570   31.0480   47.7880 C   0  0  0  0  0  0  0  0  0  0  0  0
   38.3150   31.8550   48.1040 C   0  0  0  0  0  0  0  0  0  0  0  0
   38.4760   31.9740   49.1490 H   0  0  0  0  0  0  0  0  0  0  0  0
   39.0900   32.5000   47.1750 C   0  0  0  0  0  3  0  0  0  0  0  0
   38.8640   32.3900   45.8220 C   0  0  0  0  0  0  0  0  0  0  0  0
   39.6770   33.0590   45.0180 N   0  0  0  0  0  0  0  0  0  0  0  0
   39.5000   32.9870   43.6680 C   0  0  0  0  0  0  0  0  0  0  0  0
   40.1100   33.4960   42.9270 H   0  0  0  0  0  0  0  0  0  0  0  0
   38.4540   32.1970   43.2320 C   0  0  0  0  0  3  0  0  0  0  0  0
   37.6080   31.5000   44.0840 C   0  0  0  0  0  3  0  0  0  0  0  0
   37.8080   31.5890   45.4450 C   0  0  0  0  0  0  0  0  0  0  0  0
   37.0410   30.9470   46.4030 C   0  0  0  0  0  3  0  0  0  0  0  0
   37.1660   30.5740   50.8140 C   0  0  0  0  0  0  0  0  0  0  0  0
   38.4940   30.3200   50.5010 F   0  0  0  0  0  0  0  0  0  0  0  0
   36.9540   31.9190   50.8230 F   0  0  0  0  0  0  0  0  0  0  0  0
   36.9640   30.1020   52.1040 F   0  0  0  0  0  0  0  0  0  0  0  0
  1  8  1  0  0  0  0
  2  1  1  0  0  0  0
  2 23  1  0  0  0  0
  3  2  2  0  0  0  0
  4  5  2  0  0  0  0
  4  3  1  0  0  0  0
  5  6  1  0  0  0  0
  6  1  2  0  0  0  0
  7  9  1  0  0  0  0
  7  5  1  0  0  0  0
 10  7  1  0  0  0  0
 11 12  1  0  0  0  0
 11  3  1  0  0  0  0
 12 13  1  0  0  0  0
 14 12  2  0  0  0  0
 15 14  1  0  0  0  0
 16 15  2  0  0  0  0
 17 16  1  0  0  0  0
 18 17  1  0  0  0  0
 19 17  2  0  0  0  0
 19 20  1  0  0  0  0
 20 21  2  0  0  0  0
 21 15  1  0  0  0  0
 21 22  1  0  0  0  0
 22 11  2  0  0  0  0
 23 25  1  0  0  0  0
 23 26  1  0  0  0  0
 24 23  1  0  0  0  0
M  END
>  <minimizedAffinity>
-6.9835763

>  <minimizedRMSD>
1.39520597

$$$$
