
 OpenBabel03262522493D

 28 31  0  0  0  0  0  0  0  0999 V2000
   37.1520   27.6860   34.0240 C   0  0  0  0  0  0  0  0  0  0  0  0
   37.4820   27.9990   35.2810 C   0  0  0  0  0  0  0  0  0  0  0  0
   38.1490   27.0990   36.0640 C   0  0  0  0  0  0  0  0  0  0  0  0
   38.4410   25.8940   35.4820 C   0  0  0  0  0  0  0  0  0  0  0  0
   37.7470   26.0730   33.8010 S   0  0  0  0  0  0  0  0  0  0  0  0
   37.2060   28.9960   35.6680 H   0  0  0  0  0  0  0  0  0  0  0  0
   38.4590   27.2590   37.0900 H   0  0  0  0  0  0  0  0  0  0  0  0
   39.1320   24.7350   36.0360 C   0  0  0  0  0  0  0  0  0  0  0  0
   38.5540   24.0190   37.0630 C   0  0  0  0  0  0  0  0  0  0  0  0
   37.6020   24.3440   37.4250 H   0  0  0  0  0  0  0  0  0  0  0  0
   39.2710   22.9410   37.5270 C   0  0  0  0  0  3  0  0  0  0  0  0
   40.5000   22.5940   36.9960 C   0  0  0  0  0  0  0  0  0  0  0  0
   41.1020   21.5090   37.5450 N   0  0  0  0  0  0  0  0  0  0  0  0
   42.3030   21.1070   37.0820 C   0  0  0  0  0  0  0  0  0  0  0  0
   42.7480   20.2470   37.5370 H   0  0  0  0  0  0  0  0  0  0  0  0
   42.8690   21.8340   36.0520 C   0  0  0  0  0  3  0  0  0  0  0  0
   42.2590   22.9470   35.4830 C   0  0  0  0  0  3  0  0  0  0  0  0
   41.0320   23.3410   35.9730 C   0  0  0  0  0  0  0  0  0  0  0  0
   40.3550   24.4360   35.4670 C   0  0  0  0  0  3  0  0  0  0  0  0
   34.6070   29.7920   32.4890 C   0  0  0  0  0  0  0  0  0  0  0  0
   35.1040   29.9670   31.1700 C   0  0  0  0  0  0  0  0  0  0  0  0
   36.3180   29.3520   30.8260 C   0  0  0  0  0  0  0  0  0  0  0  0
   36.9550   28.6180   31.7780 N   0  0  0  0  0  0  0  0  0  0  0  0
   36.4450   28.4820   33.0100 C   0  0  0  0  0  0  0  0  0  0  0  0
   35.3000   29.0490   33.3710 N   0  0  0  0  0  0  0  0  0  0  0  0
   33.6700   30.2730   32.7350 H   0  0  0  0  0  0  0  0  0  0  0  0
   34.5730   30.5550   30.4440 H   0  0  0  0  0  0  0  0  0  0  0  0
   36.7150   29.4740   29.8280 H   0  0  0  0  0  0  0  0  0  0  0  0
  1  2  2  0  0  0  0
  2  6  1  0  0  0  0
  2  3  1  0  0  0  0
  3  7  1  0  0  0  0
  4  8  1  0  0  0  0
  4  3  2  0  0  0  0
  5  1  1  0  0  0  0
  5  4  1  0  0  0  0
  8  9  1  0  0  0  0
  9 10  1  0  0  0  0
  9 11  2  0  0  0  0
 12 11  1  0  0  0  0
 12 13  1  0  0  0  0
 14 15  1  0  0  0  0
 14 13  2  0  0  0  0
 16 14  1  0  0  0  0
 17 18  1  0  0  0  0
 17 16  2  0  0  0  0
 18 12  2  0  0  0  0
 19 18  1  0  0  0  0
 19  8  2  0  0  0  0
 20 26  1  0  0  0  0
 20 25  1  0  0  0  0
 21 20  2  0  0  0  0
 22 21  1  0  0  0  0
 22 23  2  0  0  0  0
 23 24  1  0  0  0  0
 24 25  2  0  0  0  0
 24  1  1  0  0  0  0
 27 21  1  0  0  0  0
 28 22  1  0  0  0  0
M  END
>  <minimizedAffinity>
-5.47545004

$$$$

 OpenBabel03262522493D

 28 31  0  0  0  0  0  0  0  0999 V2000
   38.4320   24.9870   35.0470 C   0  0  0  0  0  0  0  0  0  0  0  0
   37.9460   24.7750   33.8200 C   0  0  0  0  0  0  0  0  0  0  0  0
   37.2740   25.7670   33.1630 C   0  0  0  0  0  0  0  0  0  0  0  0
   37.1400   26.9520   33.8370 C   0  0  0  0  0  0  0  0  0  0  0  0
   37.9910   26.6220   35.4190 S   0  0  0  0  0  0  0  0  0  0  0  0
   38.1020   23.7860   33.3530 H   0  0  0  0  0  0  0  0  0  0  0  0
   36.8450   25.6930   32.1710 H   0  0  0  0  0  0  0  0  0  0  0  0
   36.4870   28.1900   33.4240 C   0  0  0  0  0  0  0  0  0  0  0  0
   36.3800   28.4950   32.0830 C   0  0  0  0  0  0  0  0  0  0  0  0
   36.7870   27.8010   31.3800 H   0  0  0  0  0  0  0  0  0  0  0  0
   35.7510   29.6800   31.7810 C   0  0  0  0  0  3  0  0  0  0  0  0
   35.2550   30.5180   32.7630 C   0  0  0  0  0  0  0  0  0  0  0  0
   34.6570   31.6560   32.3290 N   0  0  0  0  0  0  0  0  0  0  0  0
   34.1460   32.5250   33.2250 C   0  0  0  0  0  0  0  0  0  0  0  0
   33.6820   33.4120   32.8470 H   0  0  0  0  0  0  0  0  0  0  0  0
   34.2610   32.2050   34.5640 C   0  0  0  0  0  3  0  0  0  0  0  0
   34.8720   31.0410   35.0180 C   0  0  0  0  0  3  0  0  0  0  0  0
   35.3870   30.1680   34.0850 C   0  0  0  0  0  0  0  0  0  0  0  0
   36.0110   28.9880   34.4470 C   0  0  0  0  0  3  0  0  0  0  0  0
   39.2950   23.0200   37.9890 C   0  0  0  0  0  0  0  0  0  0  0  0
   40.5210   22.4130   37.6070 C   0  0  0  0  0  0  0  0  0  0  0  0
   41.0370   22.6930   36.3320 C   0  0  0  0  0  0  0  0  0  0  0  0
   40.3320   23.5340   35.5270 N   0  0  0  0  0  0  0  0  0  0  0  0
   39.1780   24.0830   35.9330 C   0  0  0  0  0  0  0  0  0  0  0  0
   38.6610   23.8410   37.1320 N   0  0  0  0  0  0  0  0  0  0  0  0
   38.9140   22.7930   38.9750 H   0  0  0  0  0  0  0  0  0  0  0  0
   41.0500   21.7530   38.2700 H   0  0  0  0  0  0  0  0  0  0  0  0
   41.9680   22.2400   36.0210 H   0  0  0  0  0  0  0  0  0  0  0  0
  1  5  1  0  0  0  0
  1 24  1  0  0  0  0
  2  1  2  0  0  0  0
  3  2  1  0  0  0  0
  3  4  2  0  0  0  0
  4  5  1  0  0  0  0
  6  2  1  0  0  0  0
  7  3  1  0  0  0  0
  8  4  1  0  0  0  0
  8 19  1  0  0  0  0
  9  8  2  0  0  0  0
 10  9  1  0  0  0  0
 11  9  1  0  0  0  0
 11 12  2  0  0  0  0
 12 18  1  0  0  0  0
 13 12  1  0  0  0  0
 13 14  2  0  0  0  0
 14 16  1  0  0  0  0
 15 14  1  0  0  0  0
 16 17  2  0  0  0  0
 18 19  2  0  0  0  0
 18 17  1  0  0  0  0
 20 26  1  0  0  0  0
 21 20  1  0  0  0  0
 21 27  1  0  0  0  0
 22 21  2  0  0  0  0
 23 24  2  0  0  0  0
 23 22  1  0  0  0  0
 24 25  1  0  0  0  0
 25 20  2  0  0  0  0
 28 22  1  0  0  0  0
M  END
>  <minimizedAffinity>
-5.37515163

$$$$

 OpenBabel03262522493D

 28 31  0  0  0  0  0  0  0  0999 V2000
   39.6520   23.8930   35.6710 C   0  0  0  0  0  0  0  0  0  0  0  0
   38.6210   24.3390   36.3950 C   0  0  0  0  0  0  0  0  0  0  0  0
   37.8390   25.3590   35.9290 C   0  0  0  0  0  0  0  0  0  0  0  0
   38.1840   25.8710   34.7070 C   0  0  0  0  0  0  0  0  0  0  0  0
   39.6390   24.8700   34.2390 S   0  0  0  0  0  0  0  0  0  0  0  0
   38.4160   23.8650   37.3720 H   0  0  0  0  0  0  0  0  0  0  0  0
   36.9850   25.7870   36.4400 H   0  0  0  0  0  0  0  0  0  0  0  0
   37.5660   26.9470   33.9400 C   0  0  0  0  0  0  0  0  0  0  0  0
   36.6470   27.7790   34.5440 C   0  0  0  0  0  0  0  0  0  0  0  0
   36.4150   27.6040   35.5720 H   0  0  0  0  0  0  0  0  0  0  0  0
   36.1120   28.7670   33.7500 C   0  0  0  0  0  3  0  0  0  0  0  0
   36.4740   28.9180   32.4240 C   0  0  0  0  0  0  0  0  0  0  0  0
   35.8720   29.9330   31.7530 N   0  0  0  0  0  0  0  0  0  0  0  0
   36.1720   30.1460   30.4560 C   0  0  0  0  0  0  0  0  0  0  0  0
   35.6780   30.9550   29.9590 H   0  0  0  0  0  0  0  0  0  0  0  0
   37.0950   29.3040   29.8650 C   0  0  0  0  0  3  0  0  0  0  0  0
   37.7170   28.2620   30.5450 C   0  0  0  0  0  3  0  0  0  0  0  0
   37.3950   28.0620   31.8700 C   0  0  0  0  0  0  0  0  0  0  0  0
   37.9650   27.0500   32.6210 C   0  0  0  0  0  3  0  0  0  0  0  0
   41.5260   21.3950   37.5450 C   0  0  0  0  0  0  0  0  0  0  0  0
   42.3800   20.8400   36.5550 C   0  0  0  0  0  0  0  0  0  0  0  0
   42.2960   21.3380   35.2450 C   0  0  0  0  0  0  0  0  0  0  0  0
   41.4000   22.3310   34.9940 N   0  0  0  0  0  0  0  0  0  0  0  0
   40.6160   22.8230   35.9640 C   0  0  0  0  0  0  0  0  0  0  0  0
   40.6670   22.3750   37.2130 N   0  0  0  0  0  0  0  0  0  0  0  0
   41.6060   20.9970   38.5480 H   0  0  0  0  0  0  0  0  0  0  0  0
   43.0760   20.0550   36.7900 H   0  0  0  0  0  0  0  0  0  0  0  0
   42.9360   20.9290   34.4760 H   0  0  0  0  0  0  0  0  0  0  0  0
  1 24  1  0  0  0  0
  1  2  2  0  0  0  0
  2  6  1  0  0  0  0
  3  2  1  0  0  0  0
  3  7  1  0  0  0  0
  4  3  2  0  0  0  0
  5  4  1  0  0  0  0
  5  1  1  0  0  0  0
  8  9  1  0  0  0  0
  8  4  1  0  0  0  0
  9 10  1  0  0  0  0
 11  9  2  0  0  0  0
 12 11  1  0  0  0  0
 13 12  2  0  0  0  0
 14 13  1  0  0  0  0
 15 14  1  0  0  0  0
 16 14  2  0  0  0  0
 16 17  1  0  0  0  0
 17 18  2  0  0  0  0
 18 12  1  0  0  0  0
 18 19  1  0  0  0  0
 19  8  2  0  0  0  0
 20 26  1  0  0  0  0
 21 27  1  0  0  0  0
 21 20  2  0  0  0  0
 22 21  1  0  0  0  0
 23 22  2  0  0  0  0
 23 24  1  0  0  0  0
 24 25  2  0  0  0  0
 25 20  1  0  0  0  0
 28 22  1  0  0  0  0
M  END
>  <minimizedAffinity>
-5.34817123

$$$$

 OpenBabel03262522493D

 28 31  0  0  0  0  0  0  0  0999 V2000
   38.6410   25.4390   35.4560 C   0  0  0  0  0  0  0  0  0  0  0  0
   38.5360   26.5980   36.1140 C   0  0  0  0  0  0  0  0  0  0  0  0
   37.8470   27.6430   35.5660 C   0  0  0  0  0  0  0  0  0  0  0  0
   37.2930   27.4190   34.3350 C   0  0  0  0  0  0  0  0  0  0  0  0
   37.7730   25.6930   33.9770 S   0  0  0  0  0  0  0  0  0  0  0  0
   39.0160   26.6880   37.1050 H   0  0  0  0  0  0  0  0  0  0  0  0
   37.7070   28.6170   36.0200 H   0  0  0  0  0  0  0  0  0  0  0  0
   36.5080   28.3130   33.4890 C   0  0  0  0  0  0  0  0  0  0  0  0
   36.7560   28.3680   32.1340 C   0  0  0  0  0  0  0  0  0  0  0  0
   37.5280   27.7420   31.7420 H   0  0  0  0  0  0  0  0  0  0  0  0
   35.9720   29.2370   31.4110 C   0  0  0  0  0  3  0  0  0  0  0  0
   34.9930   30.0100   32.0060 C   0  0  0  0  0  0  0  0  0  0  0  0
   34.2920   30.8250   31.1790 N   0  0  0  0  0  0  0  0  0  0  0  0
   33.3190   31.6110   31.6830 C   0  0  0  0  0  0  0  0  0  0  0  0
   32.7860   32.2410   31.0020 H   0  0  0  0  0  0  0  0  0  0  0  0
   33.0830   31.5450   33.0430 C   0  0  0  0  0  3  0  0  0  0  0  0
   33.7970   30.7120   33.8990 C   0  0  0  0  0  3  0  0  0  0  0  0
   34.7860   29.9180   33.3610 C   0  0  0  0  0  0  0  0  0  0  0  0
   35.5450   29.0610   34.1390 C   0  0  0  0  0  3  0  0  0  0  0  0
   40.6670   22.4240   35.1950 C   0  0  0  0  0  0  0  0  0  0  0  0
   40.6000   21.8900   36.5100 C   0  0  0  0  0  0  0  0  0  0  0  0
   39.8520   22.5820   37.4750 C   0  0  0  0  0  0  0  0  0  0  0  0
   39.2280   23.7310   37.0970 N   0  0  0  0  0  0  0  0  0  0  0  0
   39.3210   24.1940   35.8430 C   0  0  0  0  0  0  0  0  0  0  0  0
   40.0190   23.5660   34.9040 N   0  0  0  0  0  0  0  0  0  0  0  0
   41.2480   21.8750   34.4650 H   0  0  0  0  0  0  0  0  0  0  0  0
   41.1070   20.9790   36.7720 H   0  0  0  0  0  0  0  0  0  0  0  0
   39.7890   22.1940   38.4820 H   0  0  0  0  0  0  0  0  0  0  0  0
  1 24  1  0  0  0  0
  1  2  2  0  0  0  0
  2  6  1  0  0  0  0
  3  7  1  0  0  0  0
  3  2  1  0  0  0  0
  4  3  2  0  0  0  0
  5  4  1  0  0  0  0
  5  1  1  0  0  0  0
  8 19  1  0  0  0  0
  8  4  1  0  0  0  0
  9  8  2  0  0  0  0
 10  9  1  0  0  0  0
 11 12  2  0  0  0  0
 11  9  1  0  0  0  0
 12 18  1  0  0  0  0
 13 14  2  0  0  0  0
 13 12  1  0  0  0  0
 14 16  1  0  0  0  0
 15 14  1  0  0  0  0
 16 17  2  0  0  0  0
 18 17  1  0  0  0  0
 18 19  2  0  0  0  0
 20 21  1  0  0  0  0
 21 27  1  0  0  0  0
 21 22  2  0  0  0  0
 22 28  1  0  0  0  0
 23 22  1  0  0  0  0
 24 23  2  0  0  0  0
 25 20  2  0  0  0  0
 25 24  1  0  0  0  0
 26 20  1  0  0  0  0
M  END
>  <minimizedAffinity>
-5.32438374

$$$$

 OpenBabel03262522493D

 28 31  0  0  0  0  0  0  0  0999 V2000
   35.9250   29.0260   32.8480 C   0  0  0  0  0  0  0  0  0  0  0  0
   36.6720   28.3730   31.9500 C   0  0  0  0  0  0  0  0  0  0  0  0
   37.4780   27.3420   32.3420 C   0  0  0  0  0  0  0  0  0  0  0  0
   37.4630   27.0400   33.6780 C   0  0  0  0  0  0  0  0  0  0  0  0
   36.2800   28.2530   34.3590 S   0  0  0  0  0  0  0  0  0  0  0  0
   36.6190   28.6860   30.8920 H   0  0  0  0  0  0  0  0  0  0  0  0
   38.1160   26.7550   31.6920 H   0  0  0  0  0  0  0  0  0  0  0  0
   38.1970   26.0130   34.4080 C   0  0  0  0  0  0  0  0  0  0  0  0
   39.2910   25.4060   33.8260 C   0  0  0  0  0  0  0  0  0  0  0  0
   39.5680   25.7160   32.8420 H   0  0  0  0  0  0  0  0  0  0  0  0
   39.9250   24.4490   34.5830 C   0  0  0  0  0  3  0  0  0  0  0  0
   39.4930   24.1120   35.8530 C   0  0  0  0  0  0  0  0  0  0  0  0
   40.2080   23.1520   36.4910 N   0  0  0  0  0  0  0  0  0  0  0  0
   39.8510   22.7680   37.7330 C   0  0  0  0  0  0  0  0  0  0  0  0
   40.4370   22.0090   38.2070 H   0  0  0  0  0  0  0  0  0  0  0  0
   38.7530   23.3850   38.3030 C   0  0  0  0  0  3  0  0  0  0  0  0
   38.0140   24.3710   37.6560 C   0  0  0  0  0  3  0  0  0  0  0  0
   38.3980   24.7470   36.3870 C   0  0  0  0  0  0  0  0  0  0  0  0
   37.7200   25.7170   35.6720 C   0  0  0  0  0  3  0  0  0  0  0  0
   33.7250   31.8150   33.6500 C   0  0  0  0  0  0  0  0  0  0  0  0
   33.2780   32.2360   32.3690 C   0  0  0  0  0  0  0  0  0  0  0  0
   33.7450   31.5470   31.2390 C   0  0  0  0  0  0  0  0  0  0  0  0
   34.6030   30.5090   31.4320 N   0  0  0  0  0  0  0  0  0  0  0  0
   34.9960   30.1490   32.6620 C   0  0  0  0  0  0  0  0  0  0  0  0
   34.5750   30.7780   33.7530 N   0  0  0  0  0  0  0  0  0  0  0  0
   33.3540   32.3580   34.5090 H   0  0  0  0  0  0  0  0  0  0  0  0
   32.6000   33.0620   32.2550 H   0  0  0  0  0  0  0  0  0  0  0  0
   33.4180   31.8520   30.2550 H   0  0  0  0  0  0  0  0  0  0  0  0
  1  5  1  0  0  0  0
  2  3  1  0  0  0  0
  2  1  2  0  0  0  0
  3  4  2  0  0  0  0
  4  5  1  0  0  0  0
  4  8  1  0  0  0  0
  6  2  1  0  0  0  0
  7  3  1  0  0  0  0
  8 19  1  0  0  0  0
  9  8  2  0  0  0  0
  9 11  1  0  0  0  0
 10  9  1  0  0  0  0
 11 12  2  0  0  0  0
 12 18  1  0  0  0  0
 12 13  1  0  0  0  0
 13 14  2  0  0  0  0
 14 15  1  0  0  0  0
 14 16  1  0  0  0  0
 17 16  2  0  0  0  0
 18 17  1  0  0  0  0
 19 18  2  0  0  0  0
 20 25  1  0  0  0  0
 20 26  1  0  0  0  0
 21 20  2  0  0  0  0
 22 23  2  0  0  0  0
 22 21  1  0  0  0  0
 23 24  1  0  0  0  0
 24  1  1  0  0  0  0
 24 25  2  0  0  0  0
 27 21  1  0  0  0  0
 28 22  1  0  0  0  0
M  END
>  <minimizedAffinity>
-5.2813406

$$$$

 OpenBabel03262522493D

 28 31  0  0  0  0  0  0  0  0999 V2000
   38.1930   25.0760   34.7250 C   0  0  0  0  0  0  0  0  0  0  0  0
   37.8180   24.5750   33.5440 C   0  0  0  0  0  0  0  0  0  0  0  0
   37.5240   25.4080   32.5020 C   0  0  0  0  0  0  0  0  0  0  0  0
   37.6390   26.7500   32.7530 C   0  0  0  0  0  0  0  0  0  0  0  0
   38.1730   26.7950   34.4980 S   0  0  0  0  0  0  0  0  0  0  0  0
   37.7530   23.4770   33.4320 H   0  0  0  0  0  0  0  0  0  0  0  0
   37.2120   25.0990   31.5110 H   0  0  0  0  0  0  0  0  0  0  0  0
   37.4010   27.8860   31.8690 C   0  0  0  0  0  0  0  0  0  0  0  0
   36.5310   28.8850   32.2560 C   0  0  0  0  0  0  0  0  0  0  0  0
   36.0530   28.7900   33.2070 H   0  0  0  0  0  0  0  0  0  0  0  0
   36.3640   29.9190   31.3650 C   0  0  0  0  0  3  0  0  0  0  0  0
   37.0270   29.9570   30.1520 C   0  0  0  0  0  0  0  0  0  0  0  0
   36.7730   31.0340   29.3660 N   0  0  0  0  0  0  0  0  0  0  0  0
   37.3810   31.1440   28.1680 C   0  0  0  0  0  0  0  0  0  0  0  0
   37.1580   32.0060   27.5750 H   0  0  0  0  0  0  0  0  0  0  0  0
   38.2500   30.1360   27.7950 C   0  0  0  0  0  3  0  0  0  0  0  0
   38.5170   29.0290   28.5940 C   0  0  0  0  0  3  0  0  0  0  0  0
   37.8830   28.9370   29.8150 C   0  0  0  0  0  0  0  0  0  0  0  0
   38.0900   27.8710   30.6720 C   0  0  0  0  0  3  0  0  0  0  0  0
   40.0100   22.9390   37.0470 C   0  0  0  0  0  0  0  0  0  0  0  0
   39.2680   23.0860   38.2500 C   0  0  0  0  0  0  0  0  0  0  0  0
   38.1430   23.9260   38.2420 C   0  0  0  0  0  0  0  0  0  0  0  0
   37.8230   24.5560   37.0800 N   0  0  0  0  0  0  0  0  0  0  0  0
   38.5550   24.3840   35.9700 C   0  0  0  0  0  0  0  0  0  0  0  0
   39.6250   23.5980   35.9400 N   0  0  0  0  0  0  0  0  0  0  0  0
   40.8730   22.2870   37.0730 H   0  0  0  0  0  0  0  0  0  0  0  0
   39.5520   22.5720   39.1500 H   0  0  0  0  0  0  0  0  0  0  0  0
   37.5650   24.0530   39.1470 H   0  0  0  0  0  0  0  0  0  0  0  0
  1 24  1  0  0  0  0
  2  1  2  0  0  0  0
  3  4  2  0  0  0  0
  3  2  1  0  0  0  0
  4  5  1  0  0  0  0
  5  1  1  0  0  0  0
  6  2  1  0  0  0  0
  7  3  1  0  0  0  0
  8  9  1  0  0  0  0
  8  4  1  0  0  0  0
  9 10  1  0  0  0  0
 11  9  2  0  0  0  0
 12 11  1  0  0  0  0
 13 12  2  0  0  0  0
 14 13  1  0  0  0  0
 15 14  1  0  0  0  0
 16 14  2  0  0  0  0
 16 17  1  0  0  0  0
 17 18  2  0  0  0  0
 18 12  1  0  0  0  0
 18 19  1  0  0  0  0
 19  8  2  0  0  0  0
 20 26  1  0  0  0  0
 20 21  1  0  0  0  0
 21 27  1  0  0  0  0
 22 21  2  0  0  0  0
 22 28  1  0  0  0  0
 23 22  1  0  0  0  0
 24 23  2  0  0  0  0
 25 24  1  0  0  0  0
 25 20  2  0  0  0  0
M  END
>  <minimizedAffinity>
-5.28066444

$$$$

 OpenBabel03262522493D

 28 31  0  0  0  0  0  0  0  0999 V2000
   37.7130   27.8590   31.9580 C   0  0  0  0  0  0  0  0  0  0  0  0
   36.8930   27.9490   33.0100 C   0  0  0  0  0  0  0  0  0  0  0  0
   37.0770   27.1470   34.1000 C   0  0  0  0  0  0  0  0  0  0  0  0
   38.1300   26.2730   34.0340 C   0  0  0  0  0  0  0  0  0  0  0  0
   38.8470   26.6200   32.3900 S   0  0  0  0  0  0  0  0  0  0  0  0
   36.0690   28.6840   32.9750 H   0  0  0  0  0  0  0  0  0  0  0  0
   36.4680   27.1460   34.9960 H   0  0  0  0  0  0  0  0  0  0  0  0
   38.5920   25.2950   35.0130 C   0  0  0  0  0  0  0  0  0  0  0  0
   37.8430   25.0520   36.1450 C   0  0  0  0  0  0  0  0  0  0  0  0
   36.9330   25.5980   36.2690 H   0  0  0  0  0  0  0  0  0  0  0  0
   38.3500   24.1150   37.0160 C   0  0  0  0  0  3  0  0  0  0  0  0
   39.5400   23.4560   36.7720 C   0  0  0  0  0  0  0  0  0  0  0  0
   39.9270   22.5560   37.7110 N   0  0  0  0  0  0  0  0  0  0  0  0
   41.0760   21.8710   37.5460 C   0  0  0  0  0  0  0  0  0  0  0  0
   41.3500   21.1700   38.3060 H   0  0  0  0  0  0  0  0  0  0  0  0
   41.8150   22.1250   36.4060 C   0  0  0  0  0  3  0  0  0  0  0  0
   41.4270   23.0460   35.4380 C   0  0  0  0  0  3  0  0  0  0  0  0
   40.2480   23.7340   35.6280 C   0  0  0  0  0  0  0  0  0  0  0  0
   39.7870   24.6670   34.7170 C   0  0  0  0  0  3  0  0  0  0  0  0
   38.3310   28.6750   28.4630 C   0  0  0  0  0  0  0  0  0  0  0  0
   37.7280   29.9550   28.3320 C   0  0  0  0  0  0  0  0  0  0  0  0
   37.1120   30.5220   29.4580 C   0  0  0  0  0  0  0  0  0  0  0  0
   37.1270   29.8130   30.6200 N   0  0  0  0  0  0  0  0  0  0  0  0
   37.7100   28.6090   30.6940 C   0  0  0  0  0  0  0  0  0  0  0  0
   38.3010   28.0420   29.6490 N   0  0  0  0  0  0  0  0  0  0  0  0
   38.8010   28.2560   27.5830 H   0  0  0  0  0  0  0  0  0  0  0  0
   37.7350   30.4850   27.3970 H   0  0  0  0  0  0  0  0  0  0  0  0
   36.6460   31.4940   29.3800 H   0  0  0  0  0  0  0  0  0  0  0  0
  1  5  1  0  0  0  0
  1  2  2  0  0  0  0
  2  3  1  0  0  0  0
  3  7  1  0  0  0  0
  4  3  2  0  0  0  0
  4  8  1  0  0  0  0
  5  4  1  0  0  0  0
  6  2  1  0  0  0  0
  8  9  1  0  0  0  0
  9 10  1  0  0  0  0
  9 11  2  0  0  0  0
 12 11  1  0  0  0  0
 12 13  1  0  0  0  0
 14 13  2  0  0  0  0
 14 15  1  0  0  0  0
 16 14  1  0  0  0  0
 17 18  1  0  0  0  0
 17 16  2  0  0  0  0
 18 12  2  0  0  0  0
 19  8  2  0  0  0  0
 19 18  1  0  0  0  0
 20 25  1  0  0  0  0
 21 20  2  0  0  0  0
 21 22  1  0  0  0  0
 22 23  2  0  0  0  0
 23 24  1  0  0  0  0
 24  1  1  0  0  0  0
 25 24  2  0  0  0  0
 26 20  1  0  0  0  0
 27 21  1  0  0  0  0
 28 22  1  0  0  0  0
M  END
>  <minimizedAffinity>
-5.27294159

$$$$

 OpenBabel03262522493D

 28 31  0  0  0  0  0  0  0  0999 V2000
   39.5440   24.0150   35.6730 C   0  0  0  0  0  0  0  0  0  0  0  0
   38.5730   24.5370   36.4300 C   0  0  0  0  0  0  0  0  0  0  0  0
   37.7700   25.5270   35.9360 C   0  0  0  0  0  0  0  0  0  0  0  0
   38.0300   25.9290   34.6530 C   0  0  0  0  0  0  0  0  0  0  0  0
   39.4360   24.8690   34.1680 S   0  0  0  0  0  0  0  0  0  0  0  0
   38.4360   24.1500   37.4550 H   0  0  0  0  0  0  0  0  0  0  0  0
   36.9610   26.0110   36.4700 H   0  0  0  0  0  0  0  0  0  0  0  0
   37.3680   26.9470   33.8440 C   0  0  0  0  0  0  0  0  0  0  0  0
   37.4880   26.9170   32.4710 C   0  0  0  0  0  0  0  0  0  0  0  0
   38.0720   26.1340   32.0380 H   0  0  0  0  0  0  0  0  0  0  0  0
   36.8340   27.9130   31.7840 C   0  0  0  0  0  3  0  0  0  0  0  0
   36.0990   28.8890   32.4320 C   0  0  0  0  0  0  0  0  0  0  0  0
   35.5030   29.8130   31.6360 N   0  0  0  0  0  0  0  0  0  0  0  0
   34.7680   30.7970   32.1920 C   0  0  0  0  0  0  0  0  0  0  0  0
   34.3120   31.5080   31.5350 H   0  0  0  0  0  0  0  0  0  0  0  0
   34.6570   30.8140   33.5690 C   0  0  0  0  0  3  0  0  0  0  0  0
   35.2630   29.8710   34.3930 C   0  0  0  0  0  3  0  0  0  0  0  0
   36.0110   28.8740   33.8030 C   0  0  0  0  0  0  0  0  0  0  0  0
   36.6480   27.8960   34.5450 C   0  0  0  0  0  3  0  0  0  0  0  0
   42.1700   21.5350   35.2070 C   0  0  0  0  0  0  0  0  0  0  0  0
   42.3290   21.0020   36.5140 C   0  0  0  0  0  0  0  0  0  0  0  0
   41.5240   21.5100   37.5450 C   0  0  0  0  0  0  0  0  0  0  0  0
   40.6290   22.4870   37.2360 N   0  0  0  0  0  0  0  0  0  0  0  0
   40.5150   22.9570   35.9860 C   0  0  0  0  0  0  0  0  0  0  0  0
   41.2610   22.5010   34.9860 N   0  0  0  0  0  0  0  0  0  0  0  0
   42.8000   21.1310   34.4260 H   0  0  0  0  0  0  0  0  0  0  0  0
   43.0480   20.2300   36.7210 H   0  0  0  0  0  0  0  0  0  0  0  0
   41.6300   21.1190   38.5470 H   0  0  0  0  0  0  0  0  0  0  0  0
  1 24  1  0  0  0  0
  1  2  2  0  0  0  0
  2  6  1  0  0  0  0
  3  2  1  0  0  0  0
  3  7  1  0  0  0  0
  4  3  2  0  0  0  0
  5  4  1  0  0  0  0
  5  1  1  0  0  0  0
  8 19  1  0  0  0  0
  8  4  1  0  0  0  0
  9  8  2  0  0  0  0
 10  9  1  0  0  0  0
 11 12  2  0  0  0  0
 11  9  1  0  0  0  0
 12 18  1  0  0  0  0
 13 14  2  0  0  0  0
 13 12  1  0  0  0  0
 14 16  1  0  0  0  0
 15 14  1  0  0  0  0
 16 17  2  0  0  0  0
 18 17  1  0  0  0  0
 18 19  2  0  0  0  0
 20 21  1  0  0  0  0
 21 27  1  0  0  0  0
 21 22  2  0  0  0  0
 22 28  1  0  0  0  0
 23 22  1  0  0  0  0
 24 23  2  0  0  0  0
 25 20  2  0  0  0  0
 25 24  1  0  0  0  0
 26 20  1  0  0  0  0
M  END
>  <minimizedAffinity>
-5.26730871

$$$$

 OpenBabel03262522493D

 28 31  0  0  0  0  0  0  0  0999 V2000
   36.5170   23.5860   31.9550 C   0  0  0  0  0  0  0  0  0  0  0  0
   37.4450   24.1570   32.7280 C   0  0  0  0  0  0  0  0  0  0  0  0
   37.5050   25.5170   32.8450 C   0  0  0  0  0  0  0  0  0  0  0  0
   36.5730   26.2240   32.1330 C   0  0  0  0  0  0  0  0  0  0  0  0
   35.6150   24.9130   31.2970 S   0  0  0  0  0  0  0  0  0  0  0  0
   38.1570   23.5070   33.2670 H   0  0  0  0  0  0  0  0  0  0  0  0
   38.2170   26.0710   33.4450 H   0  0  0  0  0  0  0  0  0  0  0  0
   36.3680   27.6660   32.0400 C   0  0  0  0  0  0  0  0  0  0  0  0
   36.4740   28.2960   30.8180 C   0  0  0  0  0  0  0  0  0  0  0  0
   36.7060   27.6960   29.9650 H   0  0  0  0  0  0  0  0  0  0  0  0
   36.2670   29.6560   30.8200 C   0  0  0  0  0  3  0  0  0  0  0  0
   35.9700   30.3520   31.9780 C   0  0  0  0  0  0  0  0  0  0  0  0
   35.7890   31.6890   31.8400 N   0  0  0  0  0  0  0  0  0  0  0  0
   35.4950   32.4380   32.9220 C   0  0  0  0  0  0  0  0  0  0  0  0
   35.3590   33.4890   32.7770 H   0  0  0  0  0  0  0  0  0  0  0  0
   35.3920   31.7910   34.1390 C   0  0  0  0  0  3  0  0  0  0  0  0
   35.5760   30.4210   34.2900 C   0  0  0  0  0  3  0  0  0  0  0  0
   35.8760   29.6750   33.1700 C   0  0  0  0  0  0  0  0  0  0  0  0
   36.0750   28.3080   33.2280 C   0  0  0  0  0  3  0  0  0  0  0  0
   34.8920   20.3270   32.0140 C   0  0  0  0  0  0  0  0  0  0  0  0
   35.7490   19.5380   31.2020 C   0  0  0  0  0  0  0  0  0  0  0  0
   36.8830   20.1450   30.6400 C   0  0  0  0  0  0  0  0  0  0  0  0
   37.1020   21.4610   30.9070 N   0  0  0  0  0  0  0  0  0  0  0  0
   36.2630   22.1640   31.6810 C   0  0  0  0  0  0  0  0  0  0  0  0
   35.1810   21.6230   32.2280 N   0  0  0  0  0  0  0  0  0  0  0  0
   34.0230   19.8410   32.4370 H   0  0  0  0  0  0  0  0  0  0  0  0
   35.5440   18.5000   31.0120 H   0  0  0  0  0  0  0  0  0  0  0  0
   37.5480   19.5630   30.0180 H   0  0  0  0  0  0  0  0  0  0  0  0
  1  2  2  0  0  0  0
  2  3  1  0  0  0  0
  2  6  1  0  0  0  0
  3  7  1  0  0  0  0
  4  3  2  0  0  0  0
  5  1  1  0  0  0  0
  5  4  1  0  0  0  0
  8  4  1  0  0  0  0
  8 19  1  0  0  0  0
  9 11  1  0  0  0  0
  9  8  2  0  0  0  0
 10  9  1  0  0  0  0
 11 12  2  0  0  0  0
 12 18  1  0  0  0  0
 13 12  1  0  0  0  0
 13 14  2  0  0  0  0
 14 16  1  0  0  0  0
 15 14  1  0  0  0  0
 16 17  2  0  0  0  0
 18 19  2  0  0  0  0
 18 17  1  0  0  0  0
 20 25  1  0  0  0  0
 20 26  1  0  0  0  0
 21 20  2  0  0  0  0
 22 23  2  0  0  0  0
 22 21  1  0  0  0  0
 23 24  1  0  0  0  0
 24  1  1  0  0  0  0
 24 25  2  0  0  0  0
 27 21  1  0  0  0  0
 28 22  1  0  0  0  0
M  END
>  <minimizedAffinity>
-5.23929024

$$$$
