
 OpenBabel03272501443D

 37 41  0  0  0  0  0  0  0  0999 V2000
   35.6080   29.3210   48.7790 C   0  0  0  0  0  0  0  0  0  0  0  0
   35.5190   30.0780   47.5720 C   0  0  0  0  0  0  0  0  0  0  0  0
   34.3350   29.9950   46.8600 C   0  0  0  0  0  0  0  0  0  0  0  0
   33.3410   29.2080   47.3490 N   0  0  0  0  0  0  0  0  0  0  0  0
   33.4520   28.5060   48.4870 C   0  0  0  0  0  0  0  0  0  0  0  0
   34.5930   28.5690   49.2000 N   0  0  0  0  0  0  0  0  0  0  0  0
   36.4440   29.2460   49.4760 H   0  0  0  0  0  0  0  0  0  0  0  0
   34.3010   30.5770   45.9540 H   0  0  0  0  0  0  0  0  0  0  0  0
   37.4450   31.3400   48.3390 C   0  0  0  0  0  0  0  0  0  0  0  0
   36.7010   30.8480   47.2680 C   0  0  0  0  0  0  0  0  0  0  0  0
   37.1440   31.1320   45.9800 C   0  0  0  0  0  0  0  0  0  0  0  0
   38.3090   31.8930   45.8210 C   0  0  0  0  0  0  0  0  0  0  0  0
   38.9740   32.3220   44.7430 N   0  0  0  0  0  0  0  0  0  0  0  0
   40.0430   33.0220   45.1050 C   0  0  0  0  0  0  0  0  0  0  0  0
   40.0880   33.0570   46.4510 N   0  0  0  0  0  0  0  0  0  0  0  0
   39.0320   32.3680   46.8970 C   0  0  0  0  0  0  0  0  0  0  0  0
   38.5910   32.0870   48.1710 C   0  0  0  0  0  0  0  0  0  0  0  0
   37.2180   31.2010   49.4000 H   0  0  0  0  0  0  0  0  0  0  0  0
   36.5780   30.7580   45.1400 H   0  0  0  0  0  0  0  0  0  0  0  0
   38.6270   32.0920   43.7650 H   0  0  0  0  0  0  0  0  0  0  0  0
   40.7090   33.4540   44.3680 H   0  0  0  0  0  0  0  0  0  0  0  0
   39.1880   32.4800   48.9870 H   0  0  0  0  0  0  0  0  0  0  0  0
   32.3040   27.6700   48.9550 C   0  0  0  0  0  0  0  0  0  0  0  0
   32.6090   27.1090   49.8680 H   0  0  0  0  0  0  0  0  0  0  0  0
   31.4620   28.3320   49.2060 H   0  0  0  0  0  0  0  0  0  0  0  0
   31.8810   26.6860   47.9330 C   0  0  0  0  0  0  0  0  0  0  0  0
   32.8370   25.8220   47.3930 C   0  0  0  0  0  0  0  0  0  0  0  0
   33.8670   25.9070   47.7480 H   0  0  0  0  0  0  0  0  0  0  0  0
   32.4800   24.8950   46.4410 C   0  0  0  0  0  3  0  0  0  0  0  0
   31.1650   24.8310   46.0270 C   0  0  0  0  0  0  0  0  0  0  0  0
   30.9550   23.8690   45.0840 N   0  0  0  0  0  0  0  0  0  0  0  0
   29.6890   23.7150   44.6010 C   0  0  0  0  0  0  0  0  0  0  0  0
   29.4360   22.9760   43.8500 H   0  0  0  0  0  0  0  0  0  0  0  0
   28.7080   24.5450   45.1030 C   0  0  0  0  0  3  0  0  0  0  0  0
   28.9130   25.5240   46.0610 C   0  0  0  0  0  3  0  0  0  0  0  0
   30.2070   25.6730   46.5460 C   0  0  0  0  0  0  0  0  0  0  0  0
   30.5630   26.6060   47.5030 C   0  0  0  0  0  3  0  0  0  0  0  0
  1  6  1  0  0  0  0
  1  7  1  0  0  0  0
  2  1  2  0  0  0  0
  3  4  2  0  0  0  0
  3  2  1  0  0  0  0
  4  5  1  0  0  0  0
  5 23  1  0  0  0  0
  5  6  2  0  0  0  0
  8  3  1  0  0  0  0
  9 18  1  0  0  0  0
 10  2  1  0  0  0  0
 10  9  2  0  0  0  0
 11 10  1  0  0  0  0
 12 11  2  0  0  0  0
 12 16  1  0  0  0  0
 13 14  1  0  0  0  0
 13 12  1  0  0  0  0
 14 15  2  0  0  0  0
 15 16  1  0  0  0  0
 16 17  2  0  0  0  0
 17  9  1  0  0  0  0
 17 22  1  0  0  0  0
 19 11  1  0  0  0  0
 20 13  1  0  0  0  0
 21 14  1  0  0  0  0
 23 25  1  0  0  0  0
 23 24  1  0  0  0  0
 26 23  1  0  0  0  0
 27 28  1  0  0  0  0
 27 26  2  0  0  0  0
 29 27  1  0  0  0  0
 30 29  2  0  0  0  0
 30 36  1  0  0  0  0
 31 30  1  0  0  0  0
 32 31  2  0  0  0  0
 32 34  1  0  0  0  0
 33 32  1  0  0  0  0
 34 35  2  0  0  0  0
 35 36  1  0  0  0  0
 36 37  2  0  0  0  0
 37 26  1  0  0  0  0
M  END
>  <minimizedAffinity>
-5.93472099

>  <minimizedRMSD>
1.62864554

$$$$
