
 OpenBabel03272507563D

 26 28  0  0  0  0  0  0  0  0999 V2000
   34.8930   28.8920   50.1570 C   0  0  0  0  0  0  0  0  0  0  0  0
   36.0220   29.6980   49.8590 C   0  0  0  0  0  0  0  0  0  0  0  0
   36.0650   30.3720   48.6500 C   0  0  0  0  0  0  0  0  0  0  0  0
   34.9910   30.2210   47.7920 N   0  0  0  0  0  0  0  0  0  0  0  0
   33.9350   29.4510   48.1010 C   0  0  0  0  0  0  0  0  0  0  0  0
   33.8820   28.7990   49.2590 N   0  0  0  0  0  0  0  0  0  0  0  0
   32.9280   29.4240   47.1100 N   0  0  0  0  0  0  0  0  0  0  0  0
   34.9030   28.3870   51.1060 H   0  0  0  0  0  0  0  0  0  0  0  0
   32.3930   28.5350   46.8820 H   0  0  0  0  0  0  0  0  0  0  0  0
   32.6400   30.2380   46.5430 H   0  0  0  0  0  0  0  0  0  0  0  0
   37.1340   31.1950   48.1310 C   0  0  0  0  0  0  0  0  0  0  0  0
   37.7750   32.3550   48.4700 C   0  0  0  0  0  0  0  0  0  0  0  0
   37.3600   32.8550   49.3100 H   0  0  0  0  0  0  0  0  0  0  0  0
   38.8390   32.8720   47.7760 C   0  0  0  0  0  3  0  0  0  0  0  0
   39.3580   32.2580   46.6580 C   0  0  0  0  0  0  0  0  0  0  0  0
   40.3870   32.8500   46.0680 N   0  0  0  0  0  0  0  0  0  0  0  0
   40.9430   32.2870   44.9570 C   0  0  0  0  0  0  0  0  0  0  0  0
   41.7850   32.6910   44.4020 H   0  0  0  0  0  0  0  0  0  0  0  0
   40.3710   31.1070   44.5210 C   0  0  0  0  0  3  0  0  0  0  0  0
   39.2930   30.4960   45.1480 C   0  0  0  0  0  3  0  0  0  0  0  0
   38.7500   31.0860   46.2690 C   0  0  0  0  0  0  0  0  0  0  0  0
   37.6770   30.5840   46.9880 C   0  0  0  0  0  3  0  0  0  0  0  0
   37.1310   29.7750   50.8460 C   0  0  0  0  0  0  0  0  0  0  0  0
   38.3600   29.4860   50.2730 F   0  0  0  0  0  0  0  0  0  0  0  0
   37.1610   31.0300   51.3720 F   0  0  0  0  0  0  0  0  0  0  0  0
   36.9580   28.8790   51.8920 F   0  0  0  0  0  0  0  0  0  0  0  0
  1  8  1  0  0  0  0
  2  1  1  0  0  0  0
  2 23  1  0  0  0  0
  3  2  2  0  0  0  0
  4  5  2  0  0  0  0
  4  3  1  0  0  0  0
  5  6  1  0  0  0  0
  6  1  2  0  0  0  0
  7  5  1  0  0  0  0
  9  7  1  0  0  0  0
 10  7  1  0  0  0  0
 11 12  1  0  0  0  0
 11  3  1  0  0  0  0
 12 13  1  0  0  0  0
 14 12  2  0  0  0  0
 15 14  1  0  0  0  0
 16 15  2  0  0  0  0
 17 16  1  0  0  0  0
 18 17  1  0  0  0  0
 19 17  2  0  0  0  0
 19 20  1  0  0  0  0
 20 21  2  0  0  0  0
 21 15  1  0  0  0  0
 21 22  1  0  0  0  0
 22 11  2  0  0  0  0
 23 25  1  0  0  0  0
 23 26  1  0  0  0  0
 24 23  1  0  0  0  0
M  END
>  <minimizedAffinity>
-7.13139677

>  <minimizedRMSD>
1.6791786

$$$$
