
 OpenBabel03272505323D

 43 47  0  0  0  0  0  0  0  0999 V2000
   37.3950   31.2450   47.0190 N   0  0  0  0  0  0  0  0  0  0  0  0
   36.6970   31.0550   45.8670 C   0  0  0  0  0  0  0  0  0  0  0  0
   37.1080   31.5910   44.6630 C   0  0  0  0  0  0  0  0  0  0  0  0
   38.2880   32.3500   44.6740 C   0  0  0  0  0  0  0  0  0  0  0  0
   38.7070   32.8640   43.6020 O   0  0  0  0  0  0  0  0  0  0  0  0
   38.9880   32.5400   45.8330 N   0  0  0  0  0  0  0  0  0  0  0  0
   38.4870   31.9710   46.9200 C   0  0  0  0  0  0  0  0  0  0  0  0
   39.1530   32.1640   47.9640 O   0  0  0  0  0  0  0  0  0  0  0  0
   35.7920   30.4690   45.8750 H   0  0  0  0  0  0  0  0  0  0  0  0
   37.4190   29.5340   50.3240 C   0  0  0  0  0  0  0  0  0  0  0  0
   37.8400   30.0930   49.1100 C   0  0  0  0  0  0  0  0  0  0  0  0
   36.9600   30.6900   48.2290 C   0  0  0  0  0  0  0  0  0  0  0  0
   35.6730   30.7110   48.5900 N   0  0  0  0  0  0  0  0  0  0  0  0
   35.2210   30.1810   49.7590 C   0  0  0  0  0  0  0  0  0  0  0  0
   36.1070   29.5950   50.6150 N   0  0  0  0  0  0  0  0  0  0  0  0
   38.1090   29.0670   51.0130 H   0  0  0  0  0  0  0  0  0  0  0  0
   38.8850   30.0270   48.9120 H   0  0  0  0  0  0  0  0  0  0  0  0
   34.1740   30.2070   50.0340 H   0  0  0  0  0  0  0  0  0  0  0  0
   36.4050   31.4230   43.3990 C   0  0  0  0  0  0  0  0  0  0  0  0
   36.5830   30.3450   42.5800 C   0  0  0  0  0  0  0  0  0  0  0  0
   35.9300   30.1620   41.3790 C   0  0  0  0  0  0  0  0  0  0  0  0
   35.0240   31.1470   40.9700 C   0  0  0  0  0  0  0  0  0  0  0  0
   34.8740   32.2220   41.8270 C   0  0  0  0  0  0  0  0  0  0  0  0
   35.5370   32.3330   42.9730 N   0  0  0  0  0  0  0  0  0  0  0  0
   37.2720   29.5560   42.8520 H   0  0  0  0  0  0  0  0  0  0  0  0
   36.0800   29.3000   40.7360 H   0  0  0  0  0  0  0  0  0  0  0  0
   34.5050   31.0350   40.0470 H   0  0  0  0  0  0  0  0  0  0  0  0
   33.9520   33.3020   41.4900 C   0  0  0  0  0  0  0  0  0  0  0  0
   32.5980   33.0390   41.3480 C   0  0  0  0  0  0  0  0  0  0  0  0
   32.2310   32.0190   41.4910 H   0  0  0  0  0  0  0  0  0  0  0  0
   31.6180   33.9590   41.0350 C   0  0  0  0  0  3  0  0  0  0  0  0
   32.0210   35.2640   40.8420 C   0  0  0  0  0  0  0  0  0  0  0  0
   31.1260   36.2210   40.5330 N   0  0  0  0  0  0  0  0  0  0  0  0
   31.4890   37.5080   40.3380 C   0  0  0  0  0  0  0  0  0  0  0  0
   30.7610   38.2720   40.0900 H   0  0  0  0  0  0  0  0  0  0  0  0
   32.8450   37.8130   40.4730 C   0  0  0  0  0  3  0  0  0  0  0  0
   33.8110   36.8730   40.7880 C   0  0  0  0  0  3  0  0  0  0  0  0
   33.3590   35.5820   40.9710 C   0  0  0  0  0  0  0  0  0  0  0  0
   34.2980   34.6210   41.2870 C   0  0  0  0  0  3  0  0  0  0  0  0
   40.1960   33.3200   45.8310 C   0  0  0  0  0  0  0  0  0  0  0  0
   40.1640   34.2550   44.8600 F   0  0  0  0  0  0  0  0  0  0  0  0
   41.3440   32.5640   45.5870 F   0  0  0  0  0  0  0  0  0  0  0  0
   40.3200   33.9660   47.0550 F   0  0  0  0  0  0  0  0  0  0  0  0
  1 12  1  0  0  0  0
  2  9  1  0  0  0  0
  2  1  1  0  0  0  0
  3  4  1  0  0  0  0
  3  2  2  0  0  0  0
  4  6  1  0  0  0  0
  5  4  2  0  0  0  0
  6  7  1  0  0  0  0
  7  1  1  0  0  0  0
  7  8  2  0  0  0  0
 10 15  1  0  0  0  0
 10 16  1  0  0  0  0
 11 10  2  0  0  0  0
 12 13  2  0  0  0  0
 12 11  1  0  0  0  0
 13 14  1  0  0  0  0
 14 18  1  0  0  0  0
 14 15  2  0  0  0  0
 17 11  1  0  0  0  0
 19  3  1  0  0  0  0
 20 25  1  0  0  0  0
 20 19  2  0  0  0  0
 21 20  1  0  0  0  0
 22 21  2  0  0  0  0
 22 23  1  0  0  0  0
 23 24  2  0  0  0  0
 24 19  1  0  0  0  0
 26 21  1  0  0  0  0
 27 22  1  0  0  0  0
 28 23  1  0  0  0  0
 29 28  1  0  0  0  0
 29 30  1  0  0  0  0
 31 29  2  0  0  0  0
 32 38  1  0  0  0  0
 32 31  1  0  0  0  0
 33 32  2  0  0  0  0
 34 36  2  0  0  0  0
 34 33  1  0  0  0  0
 35 34  1  0  0  0  0
 36 37  1  0  0  0  0
 37 38  2  0  0  0  0
 38 39  1  0  0  0  0
 39 28  2  0  0  0  0
 40  6  1  0  0  0  0
 40 43  1  0  0  0  0
 41 40  1  0  0  0  0
 42 40  1  0  0  0  0
M  END
>  <minimizedAffinity>
-7.32946205

>  <minimizedRMSD>
0.822229981

$$$$
