
 OpenBabel03272501403D

 48 53  0  0  1  0  0  0  0  0999 V2000
   37.7230   30.6800   50.6270 C   0  0  0  0  0  0  0  0  0  0  0  0
   38.4510   31.3570   49.6770 C   0  0  0  0  0  0  0  0  0  0  0  0
   38.0830   31.3760   48.3230 C   0  0  0  0  0  0  0  0  0  0  0  0
   37.0040   30.7190   47.9900 N   0  0  0  0  0  0  0  0  0  0  0  0
   36.2850   30.0490   48.9460 C   0  0  0  0  0  0  0  0  0  0  0  0
   36.6340   30.0280   50.2280 N   0  0  0  0  0  0  0  0  0  0  0  0
   38.0180   30.6710   51.6690 H   0  0  0  0  0  0  0  0  0  0  0  0
   39.3340   31.8780   50.0460 H   0  0  0  0  0  0  0  0  0  0  0  0
   35.0690   29.3180   48.5920 C   0  0  0  0  0  0  0  0  0  0  0  0
   34.6100   28.0850   49.0000 C   0  0  0  0  0  0  0  0  0  0  0  0
   33.4380   27.6230   48.5310 C   0  0  0  0  0  0  0  0  0  0  0  0
   32.7560   28.4540   47.6360 C   0  0  0  0  0  0  0  0  0  0  0  0
   33.8400   29.9280   47.4800 S   0  0  0  0  0  0  0  0  0  0  0  0
   35.2340   27.5400   49.6980 H   0  0  0  0  0  0  0  0  0  0  0  0
   32.9820   26.6900   48.7730 H   0  0  0  0  0  0  0  0  0  0  0  0
   31.5010   28.2970   46.9410 C   0  0  0  0  0  0  0  0  0  0  0  0
   31.5880   28.1710   45.5940 C   0  0  0  0  0  0  0  0  0  0  0  0
   32.5160   28.1830   45.0460 H   0  0  0  0  0  0  0  0  0  0  0  0
   30.4150   28.0150   44.8580 C   0  0  0  0  0  0  0  0  0  0  0  0
   29.2180   27.9970   45.5440 C   0  0  0  0  0  0  0  0  0  0  0  0
   28.0510   27.8510   44.9100 N   0  0  0  0  0  0  0  0  0  0  0  0
   26.8810   27.8310   45.5580 C   0  0  0  0  0  0  0  0  0  0  0  0
   26.0180   27.7070   44.9240 H   0  0  0  0  0  0  0  0  0  0  0  0
   26.7580   27.9580   46.9380 C   0  0  0  0  0  0  0  0  0  0  0  0
   27.9620   28.1060   47.5820 C   0  0  0  0  0  0  0  0  0  0  0  0
   29.1780   28.1300   46.9360 C   0  0  0  0  0  0  0  0  0  0  0  0
   30.3420   28.2850   47.6640 C   0  0  0  0  0  0  0  0  0  0  0  0
   39.0020   32.0460   47.4460 C   0  0  1  0  0  0  0  0  0  0  0  0
   39.9870   31.7220   47.9750 H   0  0  0  0  0  0  0  0  0  0  0  0
   39.1110   31.5080   46.0370 C   0  0  2  0  0  0  0  0  0  0  0  0
   40.5820   31.1810   45.8030 C   0  0  0  0  0  0  0  0  0  0  0  0
   39.8560   32.2290   45.0350 C   0  0  1  0  0  0  0  0  0  0  0  0
   38.3610   30.7470   45.8090 H   0  0  0  0  0  0  0  0  0  0  0  0
   40.7350   30.1880   45.3400 H   0  0  0  0  0  0  0  0  0  0  0  0
   41.4010   31.5500   46.4110 H   0  0  0  0  0  0  0  0  0  0  0  0
   39.9800   33.3110   45.2460 H   0  0  0  0  0  0  0  0  0  0  0  0
   39.8030   31.9750   43.5880 C   0  0  0  0  0  0  0  0  0  0  0  0
   39.1040   32.8600   42.8080 C   0  0  0  0  0  0  0  0  0  0  0  0
   39.0990   32.6100   41.4550 C   0  0  0  0  0  0  0  0  0  0  0  0
   39.7430   31.5470   40.8730 C   0  0  0  0  0  0  0  0  0  0  0  0
   40.4370   30.6790   41.6930 C   0  0  0  0  0  0  0  0  0  0  0  0
   40.4550   30.9040   43.0200 N   0  0  0  0  0  0  0  0  0  0  0  0
   38.5650   33.7220   43.1470 H   0  0  0  0  0  0  0  0  0  0  0  0
   38.5730   33.2540   40.7530 H   0  0  0  0  0  0  0  0  0  0  0  0
   39.7490   31.3390   39.8220 H   0  0  0  0  0  0  0  0  0  0  0  0
   40.9790   29.8100   41.3380 H   0  0  0  0  0  0  0  0  0  0  0  0
   39.2100   33.3330   47.5270 O   0  0  0  0  0  0  0  0  0  0  0  0
   40.0750   33.7520   47.4460 H   0  0  0  0  0  0  0  0  0  0  0  0
  1  7  1  0  0  0  0
  2  8  1  0  0  0  0
  2  1  2  0  0  0  0
  3  2  1  0  0  0  0
  4  3  2  0  0  0  0
  4  5  1  0  0  0  0
  5  6  2  0  0  0  0
  6  1  1  0  0  0  0
  9  5  1  0  0  0  0
  9 10  2  0  0  0  0
 10 14  1  0  0  0  0
 11 15  1  0  0  0  0
 11 10  1  0  0  0  0
 12 11  2  0  0  0  0
 13 12  1  0  0  0  0
 13  9  1  0  0  0  0
 16 12  1  0  0  0  0
 16 27  1  0  0  0  0
 17 16  2  0  0  0  0
 18 17  1  0  0  0  0
 19 20  2  0  0  0  0
 19 17  1  0  0  0  0
 20 26  1  0  0  0  0
 21 20  1  0  0  0  0
 21 22  2  0  0  0  0
 22 24  1  0  0  0  0
 23 22  1  0  0  0  0
 24 25  2  0  0  0  0
 26 25  1  0  0  0  0
 26 27  2  0  0  0  0
 28 47  1  0  0  0  0
 28 29  1  1  0  0  0
 28  3  1  0  0  0  0
 30 33  1  6  0  0  0
 30 28  1  0  0  0  0
 31 30  1  0  0  0  0
 31 35  1  0  0  0  0
 32 36  1  1  0  0  0
 32 31  1  0  0  0  0
 32 30  1  0  0  0  0
 34 31  1  0  0  0  0
 37 32  1  0  0  0  0
 38 43  1  0  0  0  0
 38 37  2  0  0  0  0
 39 38  1  0  0  0  0
 40 39  2  0  0  0  0
 40 41  1  0  0  0  0
 41 42  2  0  0  0  0
 42 37  1  0  0  0  0
 44 39  1  0  0  0  0
 45 40  1  0  0  0  0
 46 41  1  0  0  0  0
 48 47  1  0  0  0  0
M  END
>  <minimizedAffinity>
-7.38729048

>  <minimizedRMSD>
0.648239493

$$$$
