
 OpenBabel03272501583D

 34 37  0  0  0  0  0  0  0  0999 V2000
   32.8840   28.2720   47.8630 C   0  0  0  0  0  0  0  0  0  0  0  0
   32.0600   27.5730   48.7050 C   0  0  0  0  0  0  0  0  0  0  0  0
   30.7470   27.6590   48.2730 C   0  0  0  0  0  0  0  0  0  0  0  0
   30.8160   28.4200   47.1640 N   0  0  0  0  0  0  0  0  0  0  0  0
   32.0600   28.7830   46.9160 N   0  0  0  0  0  0  0  0  0  0  0  0
   32.3110   27.0040   49.6050 H   0  0  0  0  0  0  0  0  0  0  0  0
   29.8020   27.2700   48.6300 H   0  0  0  0  0  0  0  0  0  0  0  0
   29.8430   28.8930   46.2390 C   0  0  0  0  0  0  0  0  0  0  0  0
   29.9860   30.0640   45.5230 C   0  0  0  0  0  0  0  0  0  0  0  0
   30.8750   30.6430   45.6760 H   0  0  0  0  0  0  0  0  0  0  0  0
   28.9610   30.4080   44.6530 C   0  0  0  0  0  3  0  0  0  0  0  0
   27.8480   29.6140   44.5090 C   0  0  0  0  0  0  0  0  0  0  0  0
   26.8800   29.9820   43.6570 N   0  0  0  0  0  0  0  0  0  0  0  0
   25.7770   29.2160   43.5000 C   0  0  0  0  0  0  0  0  0  0  0  0
   25.0020   29.5480   42.7920 H   0  0  0  0  0  0  0  0  0  0  0  0
   25.6040   28.0360   44.2020 C   0  0  0  0  0  3  0  0  0  0  0  0
   26.5830   27.6340   45.0840 C   0  0  0  0  0  3  0  0  0  0  0  0
   27.6910   28.4400   45.2170 C   0  0  0  0  0  0  0  0  0  0  0  0
   28.7190   28.0960   46.0880 C   0  0  0  0  0  3  0  0  0  0  0  0
   34.3770   28.4070   48.0100 C   0  0  0  0  0  0  0  0  0  0  0  0
   34.8980   27.6000   47.4420 H   0  0  0  0  0  0  0  0  0  0  0  0
   34.6270   29.3930   47.5700 H   0  0  0  0  0  0  0  0  0  0  0  0
   34.6820   28.2860   49.4660 C   0  0  0  0  0  0  0  0  0  0  0  0
   34.9040   27.2410   49.7640 H   0  0  0  0  0  0  0  0  0  0  0  0
   33.8370   28.6430   50.0860 H   0  0  0  0  0  0  0  0  0  0  0  0
   37.2380   30.1600   51.3980 C   0  0  0  0  0  0  0  0  0  0  0  0
   38.0460   30.6890   50.3720 C   0  0  0  0  0  0  0  0  0  0  0  0
   37.7080   30.4000   49.0310 C   0  0  0  0  0  0  0  0  0  0  0  0
   36.6200   29.6250   48.7950 N   0  0  0  0  0  0  0  0  0  0  0  0
   35.8680   29.1340   49.8140 C   0  0  0  0  0  0  0  0  0  0  0  0
   36.1800   29.4020   51.0740 N   0  0  0  0  0  0  0  0  0  0  0  0
   37.4910   30.3770   52.4260 H   0  0  0  0  0  0  0  0  0  0  0  0
   38.9000   31.2970   50.5490 H   0  0  0  0  0  0  0  0  0  0  0  0
   38.2750   30.7650   48.1850 H   0  0  0  0  0  0  0  0  0  0  0  0
  1 20  1  0  0  0  0
  1  2  1  0  0  0  0
  2  6  1  0  0  0  0
  3  7  1  0  0  0  0
  3  2  2  0  0  0  0
  4  3  1  0  0  0  0
  5  4  1  0  0  0  0
  5  1  2  0  0  0  0
  8  4  1  0  0  0  0
  9 10  1  0  0  0  0
  9  8  2  0  0  0  0
 11  9  1  0  0  0  0
 12 11  2  0  0  0  0
 12 18  1  0  0  0  0
 13 12  1  0  0  0  0
 14 13  2  0  0  0  0
 14 16  1  0  0  0  0
 15 14  1  0  0  0  0
 16 17  2  0  0  0  0
 17 18  1  0  0  0  0
 18 19  2  0  0  0  0
 19  8  1  0  0  0  0
 20 23  1  0  0  0  0
 21 20  1  0  0  0  0
 22 20  1  0  0  0  0
 23 24  1  0  0  0  0
 23 30  1  0  0  0  0
 23 25  1  0  0  0  0
 26 32  1  0  0  0  0
 27 33  1  0  0  0  0
 27 26  2  0  0  0  0
 28 27  1  0  0  0  0
 29 28  2  0  0  0  0
 29 30  1  0  0  0  0
 30 31  2  0  0  0  0
 31 26  1  0  0  0  0
 34 28  1  0  0  0  0
M  END
>  <minimizedAffinity>
-5.42653656

>  <minimizedRMSD>
0.718318641

$$$$
