
 OpenBabel03272501583D

 34 37  0  0  0  0  0  0  0  0999 V2000
   32.9290   28.1960   47.8460 C   0  0  0  0  0  0  0  0  0  0  0  0
   32.0170   27.6120   48.6860 C   0  0  0  0  0  0  0  0  0  0  0  0
   30.7380   27.7360   48.1680 C   0  0  0  0  0  0  0  0  0  0  0  0
   30.9170   28.4010   47.0110 N   0  0  0  0  0  0  0  0  0  0  0  0
   32.1930   28.6740   46.8140 N   0  0  0  0  0  0  0  0  0  0  0  0
   32.1810   27.1040   49.6400 H   0  0  0  0  0  0  0  0  0  0  0  0
   29.7530   27.4290   48.4940 H   0  0  0  0  0  0  0  0  0  0  0  0
   30.0290   28.8530   45.9930 C   0  0  0  0  0  0  0  0  0  0  0  0
   30.0760   28.3970   44.6910 C   0  0  0  0  0  0  0  0  0  0  0  0
   30.8200   27.6680   44.4390 H   0  0  0  0  0  0  0  0  0  0  0  0
   29.1510   28.9210   43.7990 C   0  0  0  0  0  3  0  0  0  0  0  0
   28.2250   29.8570   44.1960 C   0  0  0  0  0  0  0  0  0  0  0  0
   27.3500   30.3380   43.3030 N   0  0  0  0  0  0  0  0  0  0  0  0
   26.4300   31.2590   43.6710 C   0  0  0  0  0  0  0  0  0  0  0  0
   25.7260   31.6330   42.9130 H   0  0  0  0  0  0  0  0  0  0  0  0
   26.3570   31.7350   44.9680 C   0  0  0  0  0  3  0  0  0  0  0  0
   27.2450   31.2580   45.9070 C   0  0  0  0  0  3  0  0  0  0  0  0
   28.1660   30.3220   45.4940 C   0  0  0  0  0  0  0  0  0  0  0  0
   29.0930   29.7960   46.3870 C   0  0  0  0  0  3  0  0  0  0  0  0
   34.4160   28.2590   48.0750 C   0  0  0  0  0  0  0  0  0  0  0  0
   34.9130   27.3520   47.6570 H   0  0  0  0  0  0  0  0  0  0  0  0
   34.7590   29.1580   47.5250 H   0  0  0  0  0  0  0  0  0  0  0  0
   34.6250   28.3230   49.5510 C   0  0  0  0  0  0  0  0  0  0  0  0
   34.7680   27.3180   50.0000 H   0  0  0  0  0  0  0  0  0  0  0  0
   33.7660   28.8020   50.0600 H   0  0  0  0  0  0  0  0  0  0  0  0
   37.2600   30.1660   51.4050 C   0  0  0  0  0  0  0  0  0  0  0  0
   38.0550   30.6690   50.3540 C   0  0  0  0  0  0  0  0  0  0  0  0
   37.6810   30.3720   49.0250 C   0  0  0  0  0  0  0  0  0  0  0  0
   36.5730   29.6160   48.8220 N   0  0  0  0  0  0  0  0  0  0  0  0
   35.8350   29.1510   49.8630 C   0  0  0  0  0  0  0  0  0  0  0  0
   36.1810   29.4260   51.1120 N   0  0  0  0  0  0  0  0  0  0  0  0
   37.5410   30.3890   52.4240 H   0  0  0  0  0  0  0  0  0  0  0  0
   38.9250   31.2610   50.5050 H   0  0  0  0  0  0  0  0  0  0  0  0
   38.2350   30.7170   48.1620 H   0  0  0  0  0  0  0  0  0  0  0  0
  1 20  1  0  0  0  0
  1  2  1  0  0  0  0
  2  6  1  0  0  0  0
  3  7  1  0  0  0  0
  3  2  2  0  0  0  0
  4  3  1  0  0  0  0
  5  4  1  0  0  0  0
  5  1  2  0  0  0  0
  8 19  1  0  0  0  0
  8  4  1  0  0  0  0
  9  8  2  0  0  0  0
 10  9  1  0  0  0  0
 11 12  2  0  0  0  0
 11  9  1  0  0  0  0
 12 18  1  0  0  0  0
 13 14  2  0  0  0  0
 13 12  1  0  0  0  0
 14 16  1  0  0  0  0
 15 14  1  0  0  0  0
 16 17  2  0  0  0  0
 18 17  1  0  0  0  0
 18 19  2  0  0  0  0
 20 23  1  0  0  0  0
 21 20  1  0  0  0  0
 22 20  1  0  0  0  0
 23 30  1  0  0  0  0
 23 24  1  0  0  0  0
 23 25  1  0  0  0  0
 26 32  1  0  0  0  0
 27 33  1  0  0  0  0
 27 26  2  0  0  0  0
 28 27  1  0  0  0  0
 29 28  2  0  0  0  0
 29 30  1  0  0  0  0
 30 31  2  0  0  0  0
 31 26  1  0  0  0  0
 34 28  1  0  0  0  0
M  END
>  <minimizedAffinity>
-5.30131292

>  <minimizedRMSD>
0.678052366

$$$$
