
 OpenBabel03272507053D

 34 38  0  0  0  0  0  0  0  0999 V2000
   36.8320   29.3080   50.2330 C   0  0  0  0  0  0  0  0  0  0  0  0
   37.6490   30.0950   49.3940 C   0  0  0  0  0  0  0  0  0  0  0  0
   37.1280   30.4420   48.1390 C   0  0  0  0  0  0  0  0  0  0  0  0
   35.8860   30.0080   47.8130 N   0  0  0  0  0  0  0  0  0  0  0  0
   35.1390   29.2630   48.6330 C   0  0  0  0  0  0  0  0  0  0  0  0
   35.6070   28.9190   49.8280 N   0  0  0  0  0  0  0  0  0  0  0  0
   37.2290   29.0360   51.2030 H   0  0  0  0  0  0  0  0  0  0  0  0
   38.6200   30.4110   49.7020 H   0  0  0  0  0  0  0  0  0  0  0  0
   33.0400   28.0370   49.0230 C   0  0  0  0  0  0  0  0  0  0  0  0
   33.8140   28.8470   48.1820 C   0  0  0  0  0  0  0  0  0  0  0  0
   33.3230   29.2330   46.9620 C   0  0  0  0  0  0  0  0  0  0  0  0
   32.0760   28.8360   46.5450 C   0  0  0  0  0  0  0  0  0  0  0  0
   31.3710   29.0730   45.4100 N   0  0  0  0  0  0  0  0  0  0  0  0
   30.1990   28.4030   45.6000 C   0  0  0  0  0  0  0  0  0  0  0  0
   30.1870   27.7890   46.7860 N   0  0  0  0  0  0  0  0  0  0  0  0
   31.3550   28.0440   47.4030 C   0  0  0  0  0  0  0  0  0  0  0  0
   31.7890   27.6300   48.6240 C   0  0  0  0  0  0  0  0  0  0  0  0
   33.4180   27.7230   49.9950 H   0  0  0  0  0  0  0  0  0  0  0  0
   33.8950   29.8580   46.2870 H   0  0  0  0  0  0  0  0  0  0  0  0
   31.6450   29.6370   44.5740 H   0  0  0  0  0  0  0  0  0  0  0  0
   29.3690   28.3640   44.8830 H   0  0  0  0  0  0  0  0  0  0  0  0
   31.1940   27.0000   49.2860 H   0  0  0  0  0  0  0  0  0  0  0  0
   37.8860   31.2510   47.1960 C   0  0  0  0  0  0  0  0  0  0  0  0
   38.9630   32.0420   47.5240 C   0  0  0  0  0  0  0  0  0  0  0  0
   39.2850   32.0850   48.5440 H   0  0  0  0  0  0  0  0  0  0  0  0
   39.6620   32.7970   46.6070 C   0  0  0  0  0  0  0  0  0  0  0  0
   39.2750   32.7730   45.2650 C   0  0  0  0  0  0  0  0  0  0  0  0
   39.9710   33.5160   44.3790 N   0  0  0  0  0  0  0  0  0  0  0  0
   39.6430   33.5310   43.0740 C   0  0  0  0  0  0  0  0  0  0  0  0
   40.1410   34.0960   42.2940 H   0  0  0  0  0  0  0  0  0  0  0  0
   38.5620   32.7500   42.6770 C   0  0  0  0  0  0  0  0  0  0  0  0
   37.8350   31.9750   43.5820 C   0  0  0  0  0  0  0  0  0  0  0  0
   38.2000   31.9850   44.9120 C   0  0  0  0  0  0  0  0  0  0  0  0
   37.5320   31.2480   45.8650 C   0  0  0  0  0  0  0  0  0  0  0  0
  1  7  1  0  0  0  0
  2  8  1  0  0  0  0
  2  1  2  0  0  0  0
  3  2  1  0  0  0  0
  4  3  2  0  0  0  0
  4  5  1  0  0  0  0
  5  6  2  0  0  0  0
  6  1  1  0  0  0  0
  9 18  1  0  0  0  0
 10  5  1  0  0  0  0
 10  9  2  0  0  0  0
 11 10  1  0  0  0  0
 12 11  2  0  0  0  0
 12 16  1  0  0  0  0
 13 14  1  0  0  0  0
 13 12  1  0  0  0  0
 14 15  2  0  0  0  0
 15 16  1  0  0  0  0
 16 17  2  0  0  0  0
 17  9  1  0  0  0  0
 17 22  1  0  0  0  0
 19 11  1  0  0  0  0
 20 13  1  0  0  0  0
 21 14  1  0  0  0  0
 23 24  1  0  0  0  0
 23  3  1  0  0  0  0
 24 25  1  0  0  0  0
 26 24  2  0  0  0  0
 27 26  1  0  0  0  0
 28 27  2  0  0  0  0
 29 28  1  0  0  0  0
 30 29  1  0  0  0  0
 31 29  2  0  0  0  0
 31 32  1  0  0  0  0
 32 33  2  0  0  0  0
 33 27  1  0  0  0  0
 33 34  1  0  0  0  0
 34 23  2  0  0  0  0
M  END
>  <minimizedAffinity>
-6.7316618

>  <minimizedRMSD>
1.79776657

$$$$
