
 OpenBabel03272509013D

 34 37  0  0  0  0  0  0  0  0999 V2000
   38.8490   31.9250   48.4190 Cl  0  0  0  0  0  0  0  0  0  0  0  0
   37.4140   31.1000   47.9110 C   0  0  0  0  0  0  0  0  0  0  0  0
   37.2160   30.8740   46.5640 C   0  0  0  0  0  0  0  0  0  0  0  0
   36.0930   30.2280   46.1020 C   0  0  0  0  0  0  0  0  0  0  0  0
   35.1300   29.7890   46.9770 C   0  0  0  0  0  0  0  0  0  0  0  0
   35.3010   30.0020   48.3360 C   0  0  0  0  0  0  0  0  0  0  0  0
   34.1270   29.4960   49.5350 Cl  0  0  0  0  0  0  0  0  0  0  0  0
   36.4570   30.6630   48.7640 C   0  0  0  0  0  0  0  0  0  0  0  0
   35.8820   30.0220   45.0610 H   0  0  0  0  0  0  0  0  0  0  0  0
   34.2260   29.2770   46.6850 H   0  0  0  0  0  0  0  0  0  0  0  0
   39.0280   32.9470   44.1350 C   0  0  0  0  0  0  0  0  0  0  0  0
   40.1230   32.1400   43.7860 C   0  0  0  0  0  0  0  0  0  0  0  0
   40.2140   30.8730   44.4100 C   0  0  0  0  0  0  0  0  0  0  0  0
   39.2450   30.5290   45.2950 N   0  0  0  0  0  0  0  0  0  0  0  0
   38.2090   31.3230   45.6100 C   0  0  0  0  0  0  0  0  0  0  0  0
   38.1250   32.5280   45.0150 N   0  0  0  0  0  0  0  0  0  0  0  0
   39.0180   33.9020   43.6230 H   0  0  0  0  0  0  0  0  0  0  0  0
   40.9210   32.3610   43.0900 H   0  0  0  0  0  0  0  0  0  0  0  0
   40.9870   30.1330   44.2560 H   0  0  0  0  0  0  0  0  0  0  0  0
   36.6250   30.9140   50.2170 C   0  0  0  0  0  0  0  0  0  0  0  0
   37.1670   31.9010   50.2740 H   0  0  0  0  0  0  0  0  0  0  0  0
   35.6090   31.1780   50.6420 H   0  0  0  0  0  0  0  0  0  0  0  0
   37.2920   29.8680   50.9840 C   0  0  0  0  0  0  0  0  0  0  0  0
   37.4390   29.9510   52.3520 C   0  0  0  0  0  0  0  0  0  0  0  0
   37.0620   30.7750   52.9420 H   0  0  0  0  0  0  0  0  0  0  0  0
   38.0750   29.0170   53.1460 C   0  0  0  0  0  3  0  0  0  0  0  0
   38.6180   27.8950   52.5580 C   0  0  0  0  0  0  0  0  0  0  0  0
   39.2460   26.9580   53.2890 N   0  0  0  0  0  0  0  0  0  0  0  0
   39.7830   25.8570   52.7350 C   0  0  0  0  0  0  0  0  0  0  0  0
   40.2860   25.1100   53.3350 H   0  0  0  0  0  0  0  0  0  0  0  0
   39.6980   25.6610   51.3660 C   0  0  0  0  0  3  0  0  0  0  0  0
   39.0540   26.6230   50.6140 C   0  0  0  0  0  3  0  0  0  0  0  0
   38.5090   27.7430   51.1930 C   0  0  0  0  0  0  0  0  0  0  0  0
   37.8650   28.7170   50.4800 C   0  0  0  0  0  3  0  0  0  0  0  0
  2  1  1  0  0  0  0
  2  8  1  0  0  0  0
  3  2  2  0  0  0  0
  4  3  1  0  0  0  0
  4  5  2  0  0  0  0
  5  6  1  0  0  0  0
  6  8  2  0  0  0  0
  6  7  1  0  0  0  0
  8 20  1  0  0  0  0
  9  4  1  0  0  0  0
 10  5  1  0  0  0  0
 11 16  1  0  0  0  0
 12 11  2  0  0  0  0
 12 13  1  0  0  0  0
 13 14  2  0  0  0  0
 14 15  1  0  0  0  0
 15  3  1  0  0  0  0
 16 15  2  0  0  0  0
 17 11  1  0  0  0  0
 18 12  1  0  0  0  0
 19 13  1  0  0  0  0
 20 21  1  0  0  0  0
 20 22  1  0  0  0  0
 20 23  1  0  0  0  0
 23 24  1  0  0  0  0
 24 25  1  0  0  0  0
 24 26  2  0  0  0  0
 27 26  1  0  0  0  0
 27 28  1  0  0  0  0
 29 28  2  0  0  0  0
 29 30  1  0  0  0  0
 31 29  1  0  0  0  0
 32 33  1  0  0  0  0
 32 31  2  0  0  0  0
 33 27  2  0  0  0  0
 34 23  2  0  0  0  0
 34 33  1  0  0  0  0
M  END
>  <minimizedAffinity>
-1.54266024

>  <minimizedRMSD>
1.53483617

$$$$
