
 OpenBabel03272510023D

 24 26  0  0  0  0  0  0  0  0999 V2000
   37.8520   30.9520   50.8090 C   0  0  0  0  0  0  0  0  0  0  0  0
   38.5060   31.3060   49.6190 C   0  0  0  0  0  0  0  0  0  0  0  0
   37.9470   30.8890   48.4200 C   0  0  0  0  0  0  0  0  0  0  0  0
   36.8050   30.1630   48.4660 N   0  0  0  0  0  0  0  0  0  0  0  0
   36.1950   29.8360   49.6310 C   0  0  0  0  0  0  0  0  0  0  0  0
   36.7150   30.2270   50.8000 N   0  0  0  0  0  0  0  0  0  0  0  0
   38.3120   31.2910   51.7100 H   0  0  0  0  0  0  0  0  0  0  0  0
   39.4180   31.8860   49.6030 H   0  0  0  0  0  0  0  0  0  0  0  0
   38.5060   31.1760   47.1280 C   0  0  0  0  0  0  0  0  0  0  0  0
   39.0630   32.4110   46.9060 C   0  0  0  0  0  0  0  0  0  0  0  0
   39.0940   33.1720   47.6710 H   0  0  0  0  0  0  0  0  0  0  0  0
   39.6300   32.7930   45.6960 C   0  0  0  0  0  3  0  0  0  0  0  0
   39.6210   31.8530   44.6620 C   0  0  0  0  0  0  0  0  0  0  0  0
   40.1800   32.2510   43.4920 N   0  0  0  0  0  0  0  0  0  0  0  0
   40.1800   31.3470   42.4740 C   0  0  0  0  0  0  0  0  0  0  0  0
   40.5870   31.5040   41.4720 H   0  0  0  0  0  0  0  0  0  0  0  0
   39.6350   30.0820   42.6270 C   0  0  0  0  0  3  0  0  0  0  0  0
   39.0680   29.6880   43.8240 C   0  0  0  0  0  3  0  0  0  0  0  0
   39.0750   30.6130   44.8470 C   0  0  0  0  0  0  0  0  0  0  0  0
   38.5280   30.2940   46.0710 C   0  0  0  0  0  3  0  0  0  0  0  0
   34.9530   29.0390   49.5470 C   0  0  0  0  0  0  0  0  0  0  0  0
   34.5500   28.5580   50.7830 F   0  0  0  0  0  0  0  0  0  0  0  0
   33.8900   29.7800   49.0580 F   0  0  0  0  0  0  0  0  0  0  0  0
   35.0680   27.9320   48.7260 F   0  0  0  0  0  0  0  0  0  0  0  0
  1  7  1  0  0  0  0
  2  1  2  0  0  0  0
  3  4  2  0  0  0  0
  3  2  1  0  0  0  0
  4  5  1  0  0  0  0
  5  6  2  0  0  0  0
  6  1  1  0  0  0  0
  8  2  1  0  0  0  0
  9  3  1  0  0  0  0
 10  9  1  0  0  0  0
 10 11  1  0  0  0  0
 12 10  2  0  0  0  0
 13 19  1  0  0  0  0
 13 12  1  0  0  0  0
 14 13  2  0  0  0  0
 15 17  2  0  0  0  0
 15 14  1  0  0  0  0
 16 15  1  0  0  0  0
 17 18  1  0  0  0  0
 18 19  2  0  0  0  0
 19 20  1  0  0  0  0
 20  9  2  0  0  0  0
 21  5  1  0  0  0  0
 21 22  1  0  0  0  0
 23 21  1  0  0  0  0
 24 21  1  0  0  0  0
M  END
>  <minimizedAffinity>
-5.98941612

>  <minimizedRMSD>
2.07549334

$$$$
