
 OpenBabel03272507553D

 26 28  0  0  0  0  0  0  0  0999 V2000
   35.2480   29.0470   50.3130 C   0  0  0  0  0  0  0  0  0  0  0  0
   36.2330   29.9510   49.8370 C   0  0  0  0  0  0  0  0  0  0  0  0
   36.3050   30.2110   48.4790 C   0  0  0  0  0  0  0  0  0  0  0  0
   35.4020   29.5660   47.6530 N   0  0  0  0  0  0  0  0  0  0  0  0
   34.4800   28.7160   48.1320 C   0  0  0  0  0  0  0  0  0  0  0  0
   34.4010   28.4590   49.4340 N   0  0  0  0  0  0  0  0  0  0  0  0
   33.6370   28.1590   47.1440 N   0  0  0  0  0  0  0  0  0  0  0  0
   35.2290   28.8750   51.3750 H   0  0  0  0  0  0  0  0  0  0  0  0
   33.3160   27.1480   47.1890 H   0  0  0  0  0  0  0  0  0  0  0  0
   33.2760   28.6730   46.3230 H   0  0  0  0  0  0  0  0  0  0  0  0
   37.2570   31.0500   47.7860 C   0  0  0  0  0  0  0  0  0  0  0  0
   38.3130   31.8580   48.1020 C   0  0  0  0  0  0  0  0  0  0  0  0
   38.4730   31.9790   49.1460 H   0  0  0  0  0  0  0  0  0  0  0  0
   39.0890   32.5030   47.1740 C   0  0  0  0  0  3  0  0  0  0  0  0
   38.8650   32.3910   45.8210 C   0  0  0  0  0  0  0  0  0  0  0  0
   39.6780   33.0600   45.0170 N   0  0  0  0  0  0  0  0  0  0  0  0
   39.5030   32.9870   43.6670 C   0  0  0  0  0  0  0  0  0  0  0  0
   40.1130   33.4950   42.9250 H   0  0  0  0  0  0  0  0  0  0  0  0
   38.4580   32.1960   43.2290 C   0  0  0  0  0  3  0  0  0  0  0  0
   37.6120   31.4990   44.0820 C   0  0  0  0  0  3  0  0  0  0  0  0
   37.8100   31.5890   45.4430 C   0  0  0  0  0  0  0  0  0  0  0  0
   37.0420   30.9480   46.4010 C   0  0  0  0  0  3  0  0  0  0  0  0
   37.1660   30.5750   50.8120 C   0  0  0  0  0  0  0  0  0  0  0  0
   38.4930   30.3200   50.4980 F   0  0  0  0  0  0  0  0  0  0  0  0
   36.9540   31.9190   50.8220 F   0  0  0  0  0  0  0  0  0  0  0  0
   36.9640   30.1020   52.1010 F   0  0  0  0  0  0  0  0  0  0  0  0
  1  8  1  0  0  0  0
  2  1  1  0  0  0  0
  2 23  1  0  0  0  0
  3  2  2  0  0  0  0
  4  5  2  0  0  0  0
  4  3  1  0  0  0  0
  5  6  1  0  0  0  0
  6  1  2  0  0  0  0
  7  9  1  0  0  0  0
  7  5  1  0  0  0  0
 10  7  1  0  0  0  0
 11 12  1  0  0  0  0
 11  3  1  0  0  0  0
 12 13  1  0  0  0  0
 14 12  2  0  0  0  0
 15 14  1  0  0  0  0
 16 15  2  0  0  0  0
 17 16  1  0  0  0  0
 18 17  1  0  0  0  0
 19 17  2  0  0  0  0
 19 20  1  0  0  0  0
 20 21  2  0  0  0  0
 21 15  1  0  0  0  0
 21 22  1  0  0  0  0
 22 11  2  0  0  0  0
 23 25  1  0  0  0  0
 23 26  1  0  0  0  0
 24 23  1  0  0  0  0
M  END
>  <minimizedAffinity>
-6.98366642

>  <minimizedRMSD>
1.16187537

$$$$
