
 OpenBabel03272503133D

 49 54  0  0  0  0  0  0  0  0999 V2000
   39.1060   32.2550   42.6170 C   0  0  0  0  0  0  0  0  0  0  0  0
   39.6640   31.5400   43.6640 C   0  0  0  0  0  0  0  0  0  0  0  0
   40.5600   30.5340   43.4830 C   0  0  0  0  0  0  0  0  0  0  0  0
   40.9570   30.1840   42.1960 C   0  0  0  0  0  0  0  0  0  0  0  0
   41.7990   29.2640   41.7300 N   0  0  0  0  0  0  0  0  0  0  0  0
   41.7980   29.3700   40.3960 C   0  0  0  0  0  0  0  0  0  0  0  0
   40.9570   30.3530   40.0280 N   0  0  0  0  0  0  0  0  0  0  0  0
   40.4030   30.8950   41.1460 C   0  0  0  0  0  0  0  0  0  0  0  0
   39.4880   31.9220   41.3090 C   0  0  0  0  0  0  0  0  0  0  0  0
   38.4030   33.0420   42.7600 H   0  0  0  0  0  0  0  0  0  0  0  0
   40.9780   29.9960   44.3160 H   0  0  0  0  0  0  0  0  0  0  0  0
   42.3770   28.5670   42.2550 H   0  0  0  0  0  0  0  0  0  0  0  0
   42.3090   28.8490   39.6170 H   0  0  0  0  0  0  0  0  0  0  0  0
   39.2180   31.9420   44.9840 C   0  0  0  0  0  0  0  0  0  0  0  0
   38.1250   32.5770   45.1260 O   0  0  0  0  0  0  0  0  0  0  0  0
   39.9380   31.6730   46.1930 N   0  0  0  0  0  0  0  0  0  0  0  0
   40.8210   31.1620   46.1280 H   0  0  0  0  0  0  0  0  0  0  0  0
   38.1060   30.1700   47.5150 F   0  0  0  0  0  0  0  0  0  0  0  0
   38.3710   31.4160   48.0220 C   0  0  0  0  0  0  0  0  0  0  0  0
   37.7120   31.8300   49.1450 C   0  0  0  0  0  0  0  0  0  0  0  0
   38.0190   33.0810   49.6030 C   0  0  0  0  0  0  0  0  0  0  0  0
   38.9330   33.8950   48.9870 C   0  0  0  0  0  0  0  0  0  0  0  0
   39.5900   33.4500   47.8450 C   0  0  0  0  0  0  0  0  0  0  0  0
   39.2890   32.1810   47.3670 C   0  0  0  0  0  0  0  0  0  0  0  0
   37.5040   33.4340   50.5010 H   0  0  0  0  0  0  0  0  0  0  0  0
   39.1820   34.8740   49.3320 H   0  0  0  0  0  0  0  0  0  0  0  0
   40.3310   33.9950   47.2680 H   0  0  0  0  0  0  0  0  0  0  0  0
   36.0700   29.3330   51.4660 C   0  0  0  0  0  0  0  0  0  0  0  0
   37.0400   30.1970   50.8960 C   0  0  0  0  0  0  0  0  0  0  0  0
   36.7480   30.9300   49.7670 C   0  0  0  0  0  0  0  0  0  0  0  0
   35.4870   30.7800   49.2300 N   0  0  0  0  0  0  0  0  0  0  0  0
   34.5780   29.9570   49.7820 C   0  0  0  0  0  0  0  0  0  0  0  0
   34.8650   29.2520   50.8740 N   0  0  0  0  0  0  0  0  0  0  0  0
   36.2910   28.7550   52.3520 H   0  0  0  0  0  0  0  0  0  0  0  0
   38.0210   30.2870   51.3470 H   0  0  0  0  0  0  0  0  0  0  0  0
   33.6530   29.9840   49.2120 H   0  0  0  0  0  0  0  0  0  0  0  0
   38.9430   32.6240   40.2580 O   0  0  0  0  0  0  0  0  0  0  0  0
   37.6330   32.9580   40.0770 C   0  0  0  0  0  0  0  0  0  0  0  0
   36.8990   32.3330   39.0680 C   0  0  0  0  0  0  0  0  0  0  0  0
   37.3710   31.5790   38.4260 H   0  0  0  0  0  0  0  0  0  0  0  0
   35.5760   32.6320   38.8410 C   0  0  0  0  0  3  0  0  0  0  0  0
   34.9100   33.5680   39.6040 C   0  0  0  0  0  0  0  0  0  0  0  0
   33.6250   33.8950   39.4240 N   0  0  0  0  0  0  0  0  0  0  0  0
   32.9830   34.8060   40.1690 C   0  0  0  0  0  0  0  0  0  0  0  0
   31.9320   35.0660   40.0150 H   0  0  0  0  0  0  0  0  0  0  0  0
   33.6360   35.4800   41.1980 C   0  0  0  0  0  3  0  0  0  0  0  0
   34.9690   35.1580   41.4040 C   0  0  0  0  0  3  0  0  0  0  0  0
   35.6060   34.2200   40.6260 C   0  0  0  0  0  0  0  0  0  0  0  0
   36.9380   33.8760   40.8060 C   0  0  0  0  0  3  0  0  0  0  0  0
  1 10  1  0  0  0  0
  1  2  1  0  0  0  0
  2 14  1  0  0  0  0
  3  2  2  0  0  0  0
  3 11  1  0  0  0  0
  4  3  1  0  0  0  0
  5  4  1  0  0  0  0
  5 12  1  0  0  0  0
  6  5  1  0  0  0  0
  7  6  2  0  0  0  0
  7  8  1  0  0  0  0
  8  9  1  0  0  0  0
  8  4  2  0  0  0  0
  9  1  2  0  0  0  0
 13  6  1  0  0  0  0
 14 15  2  0  0  0  0
 14 16  1  0  0  0  0
 16 24  1  0  0  0  0
 17 16  1  0  0  0  0
 18 19  1  0  0  0  0
 19 20  1  0  0  0  0
 20 21  2  0  0  0  0
 20 30  1  0  0  0  0
 21 25  1  0  0  0  0
 22 26  1  0  0  0  0
 22 21  1  0  0  0  0
 23 22  2  0  0  0  0
 24 23  1  0  0  0  0
 24 19  2  0  0  0  0
 27 23  1  0  0  0  0
 28 34  1  0  0  0  0
 29 35  1  0  0  0  0
 29 28  1  0  0  0  0
 30 29  2  0  0  0  0
 31 30  1  0  0  0  0
 31 32  2  0  0  0  0
 32 33  1  0  0  0  0
 33 28  2  0  0  0  0
 36 32  1  0  0  0  0
 37  9  1  0  0  0  0
 38 37  1  0  0  0  0
 38 49  1  0  0  0  0
 39 38  2  0  0  0  0
 40 39  1  0  0  0  0
 41 39  1  0  0  0  0
 41 42  2  0  0  0  0
 42 48  1  0  0  0  0
 43 42  1  0  0  0  0
 43 44  2  0  0  0  0
 44 46  1  0  0  0  0
 45 44  1  0  0  0  0
 46 47  2  0  0  0  0
 48 49  2  0  0  0  0
 48 47  1  0  0  0  0
M  END
>  <minimizedAffinity>
-7.82858658

>  <minimizedRMSD>
2.62647986

$$$$
