
 OpenBabel03272509583D

 49 53  0  0  0  0  0  0  0  0999 V2000
   32.9650   27.3820   48.2870 C   0  0  0  0  0  0  0  0  0  0  0  0
   33.0520   26.8580   49.2380 H   0  0  0  0  0  0  0  0  0  0  0  0
   33.1650   26.6270   47.4940 H   0  0  0  0  0  0  0  0  0  0  0  0
   31.5610   27.8350   48.0790 C   0  0  0  0  0  0  0  0  0  0  0  0
   30.6510   27.5590   49.0820 C   0  0  0  0  0  0  0  0  0  0  0  0
   29.3260   27.9350   48.9870 C   0  0  0  0  0  0  0  0  0  0  0  0
   28.9140   28.5830   47.8970 N   0  0  0  0  0  0  0  0  0  0  0  0
   29.8160   28.8490   46.9180 C   0  0  0  0  0  0  0  0  0  0  0  0
   31.1090   28.4900   46.9930 N   0  0  0  0  0  0  0  0  0  0  0  0
   30.9390   27.0370   49.9830 H   0  0  0  0  0  0  0  0  0  0  0  0
   28.5970   27.7220   49.7750 H   0  0  0  0  0  0  0  0  0  0  0  0
   29.3320   29.5720   45.7110 C   0  0  0  0  0  0  0  0  0  0  0  0
   29.0380   30.6170   45.9420 H   0  0  0  0  0  0  0  0  0  0  0  0
   30.1960   29.6510   45.0190 H   0  0  0  0  0  0  0  0  0  0  0  0
   28.2030   28.8340   45.0560 C   0  0  0  0  0  0  0  0  0  0  0  0
   26.9470   29.3780   44.8830 C   0  0  0  0  0  0  0  0  0  0  0  0
   26.7610   30.3850   45.2340 H   0  0  0  0  0  0  0  0  0  0  0  0
   25.9980   28.5870   44.2610 C   0  0  0  0  0  3  0  0  0  0  0  0
   26.2800   27.2970   43.8240 C   0  0  0  0  0  0  0  0  0  0  0  0
   25.3580   26.5370   43.2240 N   0  0  0  0  0  0  0  0  0  0  0  0
   25.6820   25.2920   42.8190 C   0  0  0  0  0  0  0  0  0  0  0  0
   24.9740   24.6250   42.3240 H   0  0  0  0  0  0  0  0  0  0  0  0
   26.9480   24.7330   42.9890 C   0  0  0  0  0  3  0  0  0  0  0  0
   27.9060   25.4870   43.5970 C   0  0  0  0  0  3  0  0  0  0  0  0
   27.5540   26.7610   44.0070 C   0  0  0  0  0  0  0  0  0  0  0  0
   28.4900   27.5400   44.6180 C   0  0  0  0  0  3  0  0  0  0  0  0
   33.9510   28.5030   48.2400 C   0  0  0  0  0  0  0  0  0  0  0  0
   33.7940   29.1850   47.3820 H   0  0  0  0  0  0  0  0  0  0  0  0
   34.9640   28.0660   48.1110 H   0  0  0  0  0  0  0  0  0  0  0  0
   33.9910   29.2170   49.4610 O   0  0  0  0  0  0  0  0  0  0  0  0
   36.8250   29.6380   51.6480 C   0  0  0  0  0  0  0  0  0  0  0  0
   37.7160   30.3230   50.7850 C   0  0  0  0  0  0  0  0  0  0  0  0
   37.2650   30.5910   49.4950 C   0  0  0  0  0  0  0  0  0  0  0  0
   36.0010   30.1640   49.1910 N   0  0  0  0  0  0  0  0  0  0  0  0
   35.1840   29.5230   50.0200 C   0  0  0  0  0  0  0  0  0  0  0  0
   35.6080   29.2580   51.2700 N   0  0  0  0  0  0  0  0  0  0  0  0
   37.2400   29.4660   52.6280 H   0  0  0  0  0  0  0  0  0  0  0  0
   38.7010   30.6460   51.0490 H   0  0  0  0  0  0  0  0  0  0  0  0
   38.5310   33.1900   49.6440 F   0  0  0  0  0  0  0  0  0  0  0  0
   38.6250   32.4790   48.5270 C   0  0  0  0  0  0  0  0  0  0  0  0
   38.0290   31.2750   48.4840 C   0  0  0  0  0  0  0  0  0  0  0  0
   38.1890   30.6080   47.2630 C   0  0  0  0  0  0  0  0  0  0  0  0
   38.8910   31.1440   46.2200 C   0  0  0  0  0  0  0  0  0  0  0  0
   39.4840   32.3830   46.3190 C   0  0  0  0  0  0  0  0  0  0  0  0
   39.3370   33.0420   47.4960 C   0  0  0  0  0  0  0  0  0  0  0  0
   37.7620   29.6270   47.0860 H   0  0  0  0  0  0  0  0  0  0  0  0
   39.0130   30.6150   45.2670 H   0  0  0  0  0  0  0  0  0  0  0  0
   40.0330   32.7890   45.4860 H   0  0  0  0  0  0  0  0  0  0  0  0
   39.7960   34.0190   47.5910 H   0  0  0  0  0  0  0  0  0  0  0  0
  1  2  1  0  0  0  0
  3  1  1  0  0  0  0
  4  1  1  0  0  0  0
  4  5  1  0  0  0  0
  5 10  1  0  0  0  0
  6  5  2  0  0  0  0
  6 11  1  0  0  0  0
  7  6  1  0  0  0  0
  8  9  1  0  0  0  0
  8  7  2  0  0  0  0
  9  4  2  0  0  0  0
 12 13  1  0  0  0  0
 12  8  1  0  0  0  0
 14 12  1  0  0  0  0
 15 12  1  0  0  0  0
 16 15  1  0  0  0  0
 16 17  1  0  0  0  0
 18 16  2  0  0  0  0
 19 25  1  0  0  0  0
 19 18  1  0  0  0  0
 20 19  2  0  0  0  0
 21 23  2  0  0  0  0
 21 20  1  0  0  0  0
 22 21  1  0  0  0  0
 23 24  1  0  0  0  0
 24 25  2  0  0  0  0
 25 26  1  0  0  0  0
 26 15  2  0  0  0  0
 27  1  1  0  0  0  0
 27 30  1  0  0  0  0
 28 27  1  0  0  0  0
 29 27  1  0  0  0  0
 30 35  1  0  0  0  0
 31 37  1  0  0  0  0
 32 38  1  0  0  0  0
 32 31  2  0  0  0  0
 33 32  1  0  0  0  0
 34 33  2  0  0  0  0
 34 35  1  0  0  0  0
 35 36  2  0  0  0  0
 36 31  1  0  0  0  0
 40 39  1  0  0  0  0
 41 40  1  0  0  0  0
 41 33  1  0  0  0  0
 42 41  2  0  0  0  0
 43 44  2  0  0  0  0
 43 42  1  0  0  0  0
 44 45  1  0  0  0  0
 45 49  1  0  0  0  0
 45 40  2  0  0  0  0
 46 42  1  0  0  0  0
 47 43  1  0  0  0  0
 48 44  1  0  0  0  0
M  END
>  <minimizedAffinity>
-7.02507877

>  <minimizedRMSD>
1.15548217

$$$$
