
 OpenBabel03272501583D

 34 37  0  0  0  0  0  0  0  0999 V2000
   32.7020   28.3100   47.8500 C   0  0  0  0  0  0  0  0  0  0  0  0
   32.0740   27.4750   48.7360 C   0  0  0  0  0  0  0  0  0  0  0  0
   30.7400   27.3270   48.3940 C   0  0  0  0  0  0  0  0  0  0  0  0
   30.5980   28.0880   47.2930 N   0  0  0  0  0  0  0  0  0  0  0  0
   31.7380   28.6670   46.9660 N   0  0  0  0  0  0  0  0  0  0  0  0
   32.4820   26.9600   49.6100 H   0  0  0  0  0  0  0  0  0  0  0  0
   29.9050   26.7760   48.8090 H   0  0  0  0  0  0  0  0  0  0  0  0
   29.4950   28.3810   46.4410 C   0  0  0  0  0  0  0  0  0  0  0  0
   28.6450   27.4160   45.9440 C   0  0  0  0  0  0  0  0  0  0  0  0
   28.8260   26.3950   46.2170 H   0  0  0  0  0  0  0  0  0  0  0  0
   27.6100   27.8390   45.1230 C   0  0  0  0  0  3  0  0  0  0  0  0
   27.4390   29.1690   44.8150 C   0  0  0  0  0  0  0  0  0  0  0  0
   26.4260   29.5360   44.0180 N   0  0  0  0  0  0  0  0  0  0  0  0
   26.2390   30.8380   43.7020 C   0  0  0  0  0  0  0  0  0  0  0  0
   25.3990   31.1050   43.0460 H   0  0  0  0  0  0  0  0  0  0  0  0
   27.0760   31.8310   44.1830 C   0  0  0  0  0  3  0  0  0  0  0  0
   28.1230   31.4800   45.0050 C   0  0  0  0  0  3  0  0  0  0  0  0
   28.2820   30.1460   45.3030 C   0  0  0  0  0  0  0  0  0  0  0  0
   29.3180   29.7200   46.1270 C   0  0  0  0  0  3  0  0  0  0  0  0
   34.1540   28.7080   47.8980 C   0  0  0  0  0  0  0  0  0  0  0  0
   34.7150   28.2340   47.0580 H   0  0  0  0  0  0  0  0  0  0  0  0
   34.1600   29.8090   47.7750 H   0  0  0  0  0  0  0  0  0  0  0  0
   34.6910   28.2300   49.2060 C   0  0  0  0  0  0  0  0  0  0  0  0
   35.0470   27.1800   49.1560 H   0  0  0  0  0  0  0  0  0  0  0  0
   33.9250   28.2910   50.0030 H   0  0  0  0  0  0  0  0  0  0  0  0
   37.1040   30.1050   51.3130 C   0  0  0  0  0  0  0  0  0  0  0  0
   37.9520   30.6770   50.3420 C   0  0  0  0  0  0  0  0  0  0  0  0
   37.6890   30.4160   48.9790 C   0  0  0  0  0  0  0  0  0  0  0  0
   36.6310   29.6250   48.6690 N   0  0  0  0  0  0  0  0  0  0  0  0
   35.8390   29.0930   49.6350 C   0  0  0  0  0  0  0  0  0  0  0  0
   36.0810   29.3340   50.9150 N   0  0  0  0  0  0  0  0  0  0  0  0
   37.3000   30.3000   52.3570 H   0  0  0  0  0  0  0  0  0  0  0  0
   38.7820   31.2970   50.5780 H   0  0  0  0  0  0  0  0  0  0  0  0
   38.2890   30.8150   48.1730 H   0  0  0  0  0  0  0  0  0  0  0  0
  1 20  1  0  0  0  0
  1  2  1  0  0  0  0
  2  6  1  0  0  0  0
  3  2  2  0  0  0  0
  3  7  1  0  0  0  0
  4  3  1  0  0  0  0
  5  4  1  0  0  0  0
  5  1  2  0  0  0  0
  8  4  1  0  0  0  0
  9 10  1  0  0  0  0
  9  8  2  0  0  0  0
 11  9  1  0  0  0  0
 12 11  2  0  0  0  0
 12 18  1  0  0  0  0
 13 12  1  0  0  0  0
 14 13  2  0  0  0  0
 14 16  1  0  0  0  0
 15 14  1  0  0  0  0
 16 17  2  0  0  0  0
 17 18  1  0  0  0  0
 18 19  2  0  0  0  0
 19  8  1  0  0  0  0
 20 23  1  0  0  0  0
 21 20  1  0  0  0  0
 22 20  1  0  0  0  0
 23 30  1  0  0  0  0
 23 25  1  0  0  0  0
 24 23  1  0  0  0  0
 26 32  1  0  0  0  0
 27 33  1  0  0  0  0
 27 26  2  0  0  0  0
 28 27  1  0  0  0  0
 29 28  2  0  0  0  0
 29 30  1  0  0  0  0
 30 31  2  0  0  0  0
 31 26  1  0  0  0  0
 34 28  1  0  0  0  0
M  END
>  <minimizedAffinity>
-5.30341291

>  <minimizedRMSD>
1.30561435

$$$$
