
 OpenBabel03272507553D

 26 28  0  0  0  0  0  0  0  0999 V2000
   34.8930   28.8920   50.1560 C   0  0  0  0  0  0  0  0  0  0  0  0
   36.0230   29.6970   49.8580 C   0  0  0  0  0  0  0  0  0  0  0  0
   36.0650   30.3720   48.6490 C   0  0  0  0  0  0  0  0  0  0  0  0
   34.9910   30.2210   47.7910 N   0  0  0  0  0  0  0  0  0  0  0  0
   33.9350   29.4510   48.1010 C   0  0  0  0  0  0  0  0  0  0  0  0
   33.8830   28.7990   49.2580 N   0  0  0  0  0  0  0  0  0  0  0  0
   32.9280   29.4240   47.1090 N   0  0  0  0  0  0  0  0  0  0  0  0
   34.9030   28.3860   51.1060 H   0  0  0  0  0  0  0  0  0  0  0  0
   32.3940   28.5350   46.8810 H   0  0  0  0  0  0  0  0  0  0  0  0
   32.6400   30.2380   46.5420 H   0  0  0  0  0  0  0  0  0  0  0  0
   37.1340   31.1960   48.1310 C   0  0  0  0  0  0  0  0  0  0  0  0
   37.7750   32.3560   48.4690 C   0  0  0  0  0  0  0  0  0  0  0  0
   37.3580   32.8560   49.3100 H   0  0  0  0  0  0  0  0  0  0  0  0
   38.8380   32.8730   47.7750 C   0  0  0  0  0  3  0  0  0  0  0  0
   39.3590   32.2590   46.6590 C   0  0  0  0  0  0  0  0  0  0  0  0
   40.3890   32.8520   46.0690 N   0  0  0  0  0  0  0  0  0  0  0  0
   40.9440   32.2880   44.9590 C   0  0  0  0  0  0  0  0  0  0  0  0
   41.7870   32.6920   44.4040 H   0  0  0  0  0  0  0  0  0  0  0  0
   40.3740   31.1070   44.5230 C   0  0  0  0  0  3  0  0  0  0  0  0
   39.2960   30.4960   45.1490 C   0  0  0  0  0  3  0  0  0  0  0  0
   38.7510   31.0860   46.2700 C   0  0  0  0  0  0  0  0  0  0  0  0
   37.6790   30.5840   46.9890 C   0  0  0  0  0  3  0  0  0  0  0  0
   37.1310   29.7750   50.8460 C   0  0  0  0  0  0  0  0  0  0  0  0
   38.3610   29.4850   50.2720 F   0  0  0  0  0  0  0  0  0  0  0  0
   37.1620   31.0300   51.3710 F   0  0  0  0  0  0  0  0  0  0  0  0
   36.9590   28.8790   51.8920 F   0  0  0  0  0  0  0  0  0  0  0  0
  1  8  1  0  0  0  0
  2  1  1  0  0  0  0
  2 23  1  0  0  0  0
  3  2  2  0  0  0  0
  4  5  2  0  0  0  0
  4  3  1  0  0  0  0
  5  6  1  0  0  0  0
  6  1  2  0  0  0  0
  7  5  1  0  0  0  0
  9  7  1  0  0  0  0
 10  7  1  0  0  0  0
 11 12  1  0  0  0  0
 11  3  1  0  0  0  0
 12 13  1  0  0  0  0
 14 12  2  0  0  0  0
 15 14  1  0  0  0  0
 16 15  2  0  0  0  0
 17 16  1  0  0  0  0
 18 17  1  0  0  0  0
 19 17  2  0  0  0  0
 19 20  1  0  0  0  0
 20 21  2  0  0  0  0
 21 15  1  0  0  0  0
 21 22  1  0  0  0  0
 22 11  2  0  0  0  0
 23 25  1  0  0  0  0
 23 26  1  0  0  0  0
 24 23  1  0  0  0  0
M  END
>  <minimizedAffinity>
-7.13046026

>  <minimizedRMSD>
1.47933459

$$$$
