
 OpenBabel03272503133D

 49 54  0  0  0  0  0  0  0  0999 V2000
   39.2000   32.2380   42.5780 C   0  0  0  0  0  0  0  0  0  0  0  0
   39.7170   31.5030   43.6330 C   0  0  0  0  0  0  0  0  0  0  0  0
   40.5840   30.4710   43.4660 C   0  0  0  0  0  0  0  0  0  0  0  0
   40.9940   30.1110   42.1860 C   0  0  0  0  0  0  0  0  0  0  0  0
   41.8150   29.1670   41.7330 N   0  0  0  0  0  0  0  0  0  0  0  0
   41.8420   29.2750   40.3990 C   0  0  0  0  0  0  0  0  0  0  0  0
   41.0390   30.2850   40.0190 N   0  0  0  0  0  0  0  0  0  0  0  0
   40.4810   30.8420   41.1280 C   0  0  0  0  0  0  0  0  0  0  0  0
   39.5960   31.8960   41.2770 C   0  0  0  0  0  0  0  0  0  0  0  0
   38.5200   33.0460   42.7110 H   0  0  0  0  0  0  0  0  0  0  0  0
   40.9700   29.9180   44.3050 H   0  0  0  0  0  0  0  0  0  0  0  0
   42.3620   28.4510   42.2660 H   0  0  0  0  0  0  0  0  0  0  0  0
   42.3510   28.7410   39.6280 H   0  0  0  0  0  0  0  0  0  0  0  0
   39.2600   31.9160   44.9470 C   0  0  0  0  0  0  0  0  0  0  0  0
   38.1740   32.5680   45.0710 O   0  0  0  0  0  0  0  0  0  0  0  0
   39.9580   31.6400   46.1660 N   0  0  0  0  0  0  0  0  0  0  0  0
   40.8350   31.1140   46.1140 H   0  0  0  0  0  0  0  0  0  0  0  0
   38.1220   30.1500   47.4960 F   0  0  0  0  0  0  0  0  0  0  0  0
   38.3820   31.4030   47.9890 C   0  0  0  0  0  0  0  0  0  0  0  0
   37.7150   31.8300   49.1030 C   0  0  0  0  0  0  0  0  0  0  0  0
   38.0170   33.0870   49.5460 C   0  0  0  0  0  0  0  0  0  0  0  0
   38.9330   33.8950   48.9250 C   0  0  0  0  0  0  0  0  0  0  0  0
   39.5970   33.4370   47.7930 C   0  0  0  0  0  0  0  0  0  0  0  0
   39.3020   32.1610   47.3290 C   0  0  0  0  0  0  0  0  0  0  0  0
   37.4960   33.4500   50.4360 H   0  0  0  0  0  0  0  0  0  0  0  0
   39.1780   34.8790   49.2590 H   0  0  0  0  0  0  0  0  0  0  0  0
   40.3400   33.9770   47.2130 H   0  0  0  0  0  0  0  0  0  0  0  0
   36.0680   29.3520   51.4400 C   0  0  0  0  0  0  0  0  0  0  0  0
   37.0400   30.2100   50.8650 C   0  0  0  0  0  0  0  0  0  0  0  0
   36.7490   30.9360   49.7300 C   0  0  0  0  0  0  0  0  0  0  0  0
   35.4890   30.7840   49.1930 N   0  0  0  0  0  0  0  0  0  0  0  0
   34.5780   29.9660   49.7510 C   0  0  0  0  0  0  0  0  0  0  0  0
   34.8630   29.2680   50.8480 N   0  0  0  0  0  0  0  0  0  0  0  0
   36.2870   28.7800   52.3310 H   0  0  0  0  0  0  0  0  0  0  0  0
   38.0200   30.3030   51.3160 H   0  0  0  0  0  0  0  0  0  0  0  0
   33.6540   29.9900   49.1800 H   0  0  0  0  0  0  0  0  0  0  0  0
   39.0920   32.6170   40.2180 O   0  0  0  0  0  0  0  0  0  0  0  0
   38.1140   32.2350   39.3470 C   0  0  0  0  0  0  0  0  0  0  0  0
   36.8690   31.8440   39.8440 C   0  0  0  0  0  0  0  0  0  0  0  0
   36.6800   31.8440   40.9250 H   0  0  0  0  0  0  0  0  0  0  0  0
   35.8480   31.4500   39.0140 C   0  0  0  0  0  3  0  0  0  0  0  0
   36.0050   31.4220   37.6430 C   0  0  0  0  0  0  0  0  0  0  0  0
   35.0430   31.0470   36.7930 N   0  0  0  0  0  0  0  0  0  0  0  0
   35.2040   31.0210   35.4620 C   0  0  0  0  0  0  0  0  0  0  0  0
   34.4110   30.7130   34.7730 H   0  0  0  0  0  0  0  0  0  0  0  0
   36.4110   31.3950   34.8770 C   0  0  0  0  0  3  0  0  0  0  0  0
   37.4240   31.7880   35.7390 C   0  0  0  0  0  3  0  0  0  0  0  0
   37.2360   31.8050   37.1010 C   0  0  0  0  0  0  0  0  0  0  0  0
   38.2270   32.1920   37.9910 C   0  0  0  0  0  3  0  0  0  0  0  0
  1 10  1  0  0  0  0
  1  2  1  0  0  0  0
  2 14  1  0  0  0  0
  3  2  2  0  0  0  0
  3 11  1  0  0  0  0
  4  3  1  0  0  0  0
  5  4  1  0  0  0  0
  5 12  1  0  0  0  0
  6  5  1  0  0  0  0
  7  6  2  0  0  0  0
  7  8  1  0  0  0  0
  8  9  1  0  0  0  0
  8  4  2  0  0  0  0
  9  1  2  0  0  0  0
 13  6  1  0  0  0  0
 14 15  2  0  0  0  0
 14 16  1  0  0  0  0
 16 24  1  0  0  0  0
 17 16  1  0  0  0  0
 18 19  1  0  0  0  0
 19 20  1  0  0  0  0
 20 21  2  0  0  0  0
 20 30  1  0  0  0  0
 21 25  1  0  0  0  0
 22 26  1  0  0  0  0
 22 21  1  0  0  0  0
 23 22  2  0  0  0  0
 24 23  1  0  0  0  0
 24 19  2  0  0  0  0
 27 23  1  0  0  0  0
 28 34  1  0  0  0  0
 29 35  1  0  0  0  0
 29 28  1  0  0  0  0
 30 29  2  0  0  0  0
 31 30  1  0  0  0  0
 31 32  2  0  0  0  0
 32 33  1  0  0  0  0
 33 28  2  0  0  0  0
 36 32  1  0  0  0  0
 37  9  1  0  0  0  0
 38 39  1  0  0  0  0
 38 37  1  0  0  0  0
 39 40  1  0  0  0  0
 41 39  2  0  0  0  0
 42 41  1  0  0  0  0
 43 42  2  0  0  0  0
 44 43  1  0  0  0  0
 45 44  1  0  0  0  0
 46 44  2  0  0  0  0
 46 47  1  0  0  0  0
 47 48  2  0  0  0  0
 48 42  1  0  0  0  0
 48 49  1  0  0  0  0
 49 38  2  0  0  0  0
M  END
>  <minimizedAffinity>
-7.00432062

>  <minimizedRMSD>
0.492291242

$$$$
