
 OpenBabel03272503133D

 49 54  0  0  0  0  0  0  0  0999 V2000
   39.0870   32.1920   42.5900 C   0  0  0  0  0  0  0  0  0  0  0  0
   39.6700   31.5050   43.6430 C   0  0  0  0  0  0  0  0  0  0  0  0
   40.5890   30.5190   43.4690 C   0  0  0  0  0  0  0  0  0  0  0  0
   40.9850   30.1600   42.1840 C   0  0  0  0  0  0  0  0  0  0  0  0
   41.8450   29.2540   41.7250 N   0  0  0  0  0  0  0  0  0  0  0  0
   41.8310   29.3400   40.3890 C   0  0  0  0  0  0  0  0  0  0  0  0
   40.9640   30.2970   40.0140 N   0  0  0  0  0  0  0  0  0  0  0  0
   40.4050   30.8420   41.1290 C   0  0  0  0  0  0  0  0  0  0  0  0
   39.4670   31.8490   41.2840 C   0  0  0  0  0  0  0  0  0  0  0  0
   38.3670   32.9640   42.7270 H   0  0  0  0  0  0  0  0  0  0  0  0
   41.0260   30.0030   44.3060 H   0  0  0  0  0  0  0  0  0  0  0  0
   42.4430   28.5790   42.2550 H   0  0  0  0  0  0  0  0  0  0  0  0
   42.3480   28.8200   39.6140 H   0  0  0  0  0  0  0  0  0  0  0  0
   39.2250   31.9160   44.9610 C   0  0  0  0  0  0  0  0  0  0  0  0
   38.1350   32.5580   45.0980 O   0  0  0  0  0  0  0  0  0  0  0  0
   39.9410   31.6480   46.1710 N   0  0  0  0  0  0  0  0  0  0  0  0
   40.8220   31.1310   46.1100 H   0  0  0  0  0  0  0  0  0  0  0  0
   38.1100   30.1570   47.5060 F   0  0  0  0  0  0  0  0  0  0  0  0
   38.3760   31.4060   48.0040 C   0  0  0  0  0  0  0  0  0  0  0  0
   37.7180   31.8290   49.1250 C   0  0  0  0  0  0  0  0  0  0  0  0
   38.0260   33.0830   49.5730 C   0  0  0  0  0  0  0  0  0  0  0  0
   38.9410   33.8920   48.9500 C   0  0  0  0  0  0  0  0  0  0  0  0
   39.5970   33.4380   47.8110 C   0  0  0  0  0  0  0  0  0  0  0  0
   39.2940   32.1650   47.3420 C   0  0  0  0  0  0  0  0  0  0  0  0
   37.5130   33.4430   50.4680 H   0  0  0  0  0  0  0  0  0  0  0  0
   39.1910   34.8730   49.2870 H   0  0  0  0  0  0  0  0  0  0  0  0
   40.3370   33.9780   47.2290 H   0  0  0  0  0  0  0  0  0  0  0  0
   36.0770   29.3470   51.4620 C   0  0  0  0  0  0  0  0  0  0  0  0
   37.0480   30.2050   50.8840 C   0  0  0  0  0  0  0  0  0  0  0  0
   36.7530   30.9340   49.7530 C   0  0  0  0  0  0  0  0  0  0  0  0
   35.4910   30.7860   49.2220 N   0  0  0  0  0  0  0  0  0  0  0  0
   34.5810   29.9670   49.7810 C   0  0  0  0  0  0  0  0  0  0  0  0
   34.8700   29.2660   50.8740 N   0  0  0  0  0  0  0  0  0  0  0  0
   36.3000   28.7720   52.3490 H   0  0  0  0  0  0  0  0  0  0  0  0
   38.0310   30.2950   51.3320 H   0  0  0  0  0  0  0  0  0  0  0  0
   33.6540   29.9950   49.2140 H   0  0  0  0  0  0  0  0  0  0  0  0
   38.8970   32.5220   40.2270 O   0  0  0  0  0  0  0  0  0  0  0  0
   37.5680   32.7000   39.9800 C   0  0  0  0  0  0  0  0  0  0  0  0
   36.8340   31.6650   39.3990 C   0  0  0  0  0  0  0  0  0  0  0  0
   37.3220   30.7170   39.1430 H   0  0  0  0  0  0  0  0  0  0  0  0
   35.4920   31.7900   39.1280 C   0  0  0  0  0  3  0  0  0  0  0  0
   34.8050   32.9510   39.4200 C   0  0  0  0  0  0  0  0  0  0  0  0
   33.5000   33.1220   39.1760 N   0  0  0  0  0  0  0  0  0  0  0  0
   32.8390   34.2520   39.4610 C   0  0  0  0  0  0  0  0  0  0  0  0
   31.7720   34.3840   39.2590 H   0  0  0  0  0  0  0  0  0  0  0  0
   33.4910   35.3390   40.0420 C   0  0  0  0  0  3  0  0  0  0  0  0
   34.8440   35.1840   40.3050 C   0  0  0  0  0  3  0  0  0  0  0  0
   35.5000   34.0140   40.0020 C   0  0  0  0  0  0  0  0  0  0  0  0
   36.8520   33.8270   40.2520 C   0  0  0  0  0  3  0  0  0  0  0  0
  1 10  1  0  0  0  0
  1  2  1  0  0  0  0
  2 14  1  0  0  0  0
  3  2  2  0  0  0  0
  3 11  1  0  0  0  0
  4  3  1  0  0  0  0
  5  4  1  0  0  0  0
  5 12  1  0  0  0  0
  6  5  1  0  0  0  0
  7  6  2  0  0  0  0
  7  8  1  0  0  0  0
  8  9  1  0  0  0  0
  8  4  2  0  0  0  0
  9  1  2  0  0  0  0
 13  6  1  0  0  0  0
 14 15  2  0  0  0  0
 14 16  1  0  0  0  0
 16 24  1  0  0  0  0
 17 16  1  0  0  0  0
 18 19  1  0  0  0  0
 19 20  1  0  0  0  0
 20 21  2  0  0  0  0
 20 30  1  0  0  0  0
 21 25  1  0  0  0  0
 22 26  1  0  0  0  0
 22 21  1  0  0  0  0
 23 22  2  0  0  0  0
 24 23  1  0  0  0  0
 24 19  2  0  0  0  0
 27 23  1  0  0  0  0
 28 34  1  0  0  0  0
 29 35  1  0  0  0  0
 29 28  1  0  0  0  0
 30 29  2  0  0  0  0
 31 30  1  0  0  0  0
 31 32  2  0  0  0  0
 32 33  1  0  0  0  0
 33 28  2  0  0  0  0
 36 32  1  0  0  0  0
 37  9  1  0  0  0  0
 38 37  1  0  0  0  0
 38 49  1  0  0  0  0
 39 38  2  0  0  0  0
 40 39  1  0  0  0  0
 41 39  1  0  0  0  0
 41 42  2  0  0  0  0
 42 48  1  0  0  0  0
 43 42  1  0  0  0  0
 43 44  2  0  0  0  0
 44 46  1  0  0  0  0
 45 44  1  0  0  0  0
 46 47  2  0  0  0  0
 48 49  2  0  0  0  0
 48 47  1  0  0  0  0
M  END
>  <minimizedAffinity>
-7.56465054

>  <minimizedRMSD>
2.09623551

$$$$
