
 OpenBabel03272509223D

 49 54  0  0  0  0  0  0  0  0999 V2000
   40.1200   31.0400   44.1150 C   0  0  0  0  0  0  0  0  0  0  0  0
   39.5400   31.7910   45.1180 C   0  0  0  0  0  0  0  0  0  0  0  0
   38.3880   32.5330   44.8330 C   0  0  0  0  0  0  0  0  0  0  0  0
   37.8330   32.5130   43.5530 C   0  0  0  0  0  0  0  0  0  0  0  0
   36.7720   33.0880   42.9640 N   0  0  0  0  0  0  0  0  0  0  0  0
   36.6860   32.7260   41.6770 C   0  0  0  0  0  0  0  0  0  0  0  0
   37.7340   31.8860   41.4370 N   0  0  0  0  0  0  0  0  0  0  0  0
   38.4380   31.7520   42.5770 C   0  0  0  0  0  0  0  0  0  0  0  0
   39.5750   31.0140   42.8450 C   0  0  0  0  0  0  0  0  0  0  0  0
   40.9970   30.5160   44.4570 H   0  0  0  0  0  0  0  0  0  0  0  0
   37.8300   33.1620   45.5120 H   0  0  0  0  0  0  0  0  0  0  0  0
   36.1020   33.7380   43.4620 H   0  0  0  0  0  0  0  0  0  0  0  0
   35.9190   33.0670   41.0250 H   0  0  0  0  0  0  0  0  0  0  0  0
   40.2660   30.1880   41.8570 C   0  0  0  0  0  0  0  0  0  0  0  0
   40.0610   28.8110   41.8710 C   0  0  0  0  0  0  0  0  0  0  0  0
   39.4050   28.3300   42.5930 H   0  0  0  0  0  0  0  0  0  0  0  0
   40.7090   27.9970   40.9390 C   0  0  0  0  0  3  0  0  0  0  0  0
   41.5590   28.5250   39.9900 C   0  0  0  0  0  0  0  0  0  0  0  0
   42.1990   27.7660   39.0770 N   0  0  0  0  0  0  0  0  0  0  0  0
   43.0310   28.2630   38.1440 C   0  0  0  0  0  0  0  0  0  0  0  0
   43.4910   27.5680   37.4620 H   0  0  0  0  0  0  0  0  0  0  0  0
   43.2520   29.6340   38.1100 C   0  0  0  0  0  3  0  0  0  0  0  0
   42.6030   30.4480   39.0440 C   0  0  0  0  0  3  0  0  0  0  0  0
   41.7450   29.8870   39.9970 C   0  0  0  0  0  0  0  0  0  0  0  0
   41.1290   30.7140   40.8930 C   0  0  0  0  0  3  0  0  0  0  0  0
   39.9040   31.9610   46.4320 O   0  0  0  0  0  0  0  0  0  0  0  0
   38.1130   31.3760   47.9450 C   0  0  0  0  0  0  0  0  0  0  0  0
   37.2630   31.5730   49.0170 C   0  0  0  0  0  0  0  0  0  0  0  0
   37.4790   32.7970   49.6900 C   0  0  0  0  0  0  0  0  0  0  0  0
   38.4670   33.6990   49.2840 C   0  0  0  0  0  0  0  0  0  0  0  0
   39.2770   33.3820   48.1680 C   0  0  0  0  0  0  0  0  0  0  0  0
   39.0800   32.1870   47.4970 C   0  0  0  0  0  0  0  0  0  0  0  0
   36.8440   33.0180   50.5440 H   0  0  0  0  0  0  0  0  0  0  0  0
   38.6340   34.6200   49.7870 H   0  0  0  0  0  0  0  0  0  0  0  0
   40.0300   34.0960   47.8780 H   0  0  0  0  0  0  0  0  0  0  0  0
   35.1180   30.4650   48.6410 C   0  0  0  0  0  0  0  0  0  0  0  0
   36.2580   30.6630   49.4360 C   0  0  0  0  0  0  0  0  0  0  0  0
   36.3430   29.9370   50.6230 C   0  0  0  0  0  0  0  0  0  0  0  0
   35.3430   29.0940   50.9440 N   0  0  0  0  0  0  0  0  0  0  0  0
   34.2540   28.9250   50.1550 C   0  0  0  0  0  0  0  0  0  0  0  0
   34.1560   29.6140   49.0110 N   0  0  0  0  0  0  0  0  0  0  0  0
   35.0580   31.0270   47.7270 H   0  0  0  0  0  0  0  0  0  0  0  0
   33.4970   28.2230   50.4950 H   0  0  0  0  0  0  0  0  0  0  0  0
   37.5320   30.1020   51.5150 C   0  0  0  0  0  0  0  0  0  0  0  0
   37.5960   31.1430   51.9080 H   0  0  0  0  0  0  0  0  0  0  0  0
   38.4470   29.9400   50.9010 H   0  0  0  0  0  0  0  0  0  0  0  0
   37.4500   29.3640   52.3320 H   0  0  0  0  0  0  0  0  0  0  0  0
   37.9710   30.1860   47.2190 O   0  0  0  0  0  0  0  0  0  0  0  0
   37.0440   29.7730   47.1130 H   0  0  0  0  0  0  0  0  0  0  0  0
  1 10  1  0  0  0  0
  1  2  1  0  0  0  0
  2 26  1  0  0  0  0
  3  2  2  0  0  0  0
  3 11  1  0  0  0  0
  4  3  1  0  0  0  0
  5 12  1  0  0  0  0
  5  4  1  0  0  0  0
  6  5  1  0  0  0  0
  7  6  2  0  0  0  0
  7  8  1  0  0  0  0
  8  9  1  0  0  0  0
  8  4  2  0  0  0  0
  9  1  2  0  0  0  0
 13  6  1  0  0  0  0
 14 15  1  0  0  0  0
 14  9  1  0  0  0  0
 15 16  1  0  0  0  0
 17 15  2  0  0  0  0
 18 24  1  0  0  0  0
 18 17  1  0  0  0  0
 19 18  2  0  0  0  0
 20 19  1  0  0  0  0
 21 20  1  0  0  0  0
 22 20  2  0  0  0  0
 22 23  1  0  0  0  0
 23 24  2  0  0  0  0
 24 25  1  0  0  0  0
 25 14  2  0  0  0  0
 26 32  1  0  0  0  0
 27 28  1  0  0  0  0
 28 37  1  0  0  0  0
 28 29  2  0  0  0  0
 29 33  1  0  0  0  0
 30 29  1  0  0  0  0
 30 34  1  0  0  0  0
 31 30  2  0  0  0  0
 32 27  2  0  0  0  0
 32 31  1  0  0  0  0
 35 31  1  0  0  0  0
 36 41  2  0  0  0  0
 36 37  1  0  0  0  0
 37 38  2  0  0  0  0
 38 39  1  0  0  0  0
 38 44  1  0  0  0  0
 40 43  1  0  0  0  0
 40 39  2  0  0  0  0
 41 40  1  0  0  0  0
 42 36  1  0  0  0  0
 44 45  1  0  0  0  0
 44 47  1  0  0  0  0
 46 44  1  0  0  0  0
 48 27  1  0  0  0  0
 49 48  1  0  0  0  0
M  END
>  <minimizedAffinity>
-8.11960411

>  <minimizedRMSD>
0.986573815

$$$$
