
 OpenBabel03272509223D

 49 54  0  0  0  0  0  0  0  0999 V2000
   40.1050   31.0900   43.9930 C   0  0  0  0  0  0  0  0  0  0  0  0
   39.5120   31.8630   44.9710 C   0  0  0  0  0  0  0  0  0  0  0  0
   38.3910   32.6350   44.6410 C   0  0  0  0  0  0  0  0  0  0  0  0
   37.8810   32.6210   43.3430 C   0  0  0  0  0  0  0  0  0  0  0  0
   36.8560   33.2210   42.7140 N   0  0  0  0  0  0  0  0  0  0  0  0
   36.8050   32.8530   41.4270 C   0  0  0  0  0  0  0  0  0  0  0  0
   37.8370   31.9830   41.2280 N   0  0  0  0  0  0  0  0  0  0  0  0
   38.4970   31.8370   42.3930 C   0  0  0  0  0  0  0  0  0  0  0  0
   39.6040   31.0700   42.7040 C   0  0  0  0  0  0  0  0  0  0  0  0
   40.9550   30.5440   44.3670 H   0  0  0  0  0  0  0  0  0  0  0  0
   37.8280   33.2840   45.2970 H   0  0  0  0  0  0  0  0  0  0  0  0
   36.1880   33.8940   43.1850 H   0  0  0  0  0  0  0  0  0  0  0  0
   36.0710   33.2110   40.7460 H   0  0  0  0  0  0  0  0  0  0  0  0
   40.3050   30.2190   41.7460 C   0  0  0  0  0  0  0  0  0  0  0  0
   40.0810   28.8460   41.7780 C   0  0  0  0  0  0  0  0  0  0  0  0
   39.4010   28.3850   42.4920 H   0  0  0  0  0  0  0  0  0  0  0  0
   40.7370   28.0070   40.8740 C   0  0  0  0  0  3  0  0  0  0  0  0
   41.6150   28.5070   39.9360 C   0  0  0  0  0  0  0  0  0  0  0  0
   42.2650   27.7250   39.0500 N   0  0  0  0  0  0  0  0  0  0  0  0
   43.1250   28.1960   38.1280 C   0  0  0  0  0  0  0  0  0  0  0  0
   43.5900   27.4840   37.4670 H   0  0  0  0  0  0  0  0  0  0  0  0
   43.3650   29.5640   38.0760 C   0  0  0  0  0  3  0  0  0  0  0  0
   42.7070   30.4010   38.9820 C   0  0  0  0  0  3  0  0  0  0  0  0
   41.8210   29.8680   39.9250 C   0  0  0  0  0  0  0  0  0  0  0  0
   41.1950   30.7170   40.7930 C   0  0  0  0  0  3  0  0  0  0  0  0
   39.8350   32.0320   46.2950 O   0  0  0  0  0  0  0  0  0  0  0  0
   38.0040   31.2280   47.6520 C   0  0  0  0  0  0  0  0  0  0  0  0
   37.1200   31.2660   48.7140 C   0  0  0  0  0  0  0  0  0  0  0  0
   37.3030   32.3830   49.5600 C   0  0  0  0  0  0  0  0  0  0  0  0
   38.2940   33.3390   49.3180 C   0  0  0  0  0  0  0  0  0  0  0  0
   39.1410   33.1880   48.1940 C   0  0  0  0  0  0  0  0  0  0  0  0
   38.9760   32.1000   47.3550 C   0  0  0  0  0  0  0  0  0  0  0  0
   36.6400   32.4760   50.4160 H   0  0  0  0  0  0  0  0  0  0  0  0
   38.4360   34.1800   49.9510 H   0  0  0  0  0  0  0  0  0  0  0  0
   39.8950   33.9410   48.0330 H   0  0  0  0  0  0  0  0  0  0  0  0
   34.9240   30.3150   48.2190 C   0  0  0  0  0  0  0  0  0  0  0  0
   36.1120   30.3000   48.9670 C   0  0  0  0  0  0  0  0  0  0  0  0
   36.2400   29.3120   49.9420 C   0  0  0  0  0  0  0  0  0  0  0  0
   35.2330   28.4340   50.1160 N   0  0  0  0  0  0  0  0  0  0  0  0
   34.0970   28.4760   49.3770 C   0  0  0  0  0  0  0  0  0  0  0  0
   33.9580   29.4180   48.4370 N   0  0  0  0  0  0  0  0  0  0  0  0
   34.8300   31.0790   47.4690 H   0  0  0  0  0  0  0  0  0  0  0  0
   33.3390   27.7270   49.5880 H   0  0  0  0  0  0  0  0  0  0  0  0
   37.4800   29.2410   50.7730 C   0  0  0  0  0  0  0  0  0  0  0  0
   37.5990   30.1570   51.3960 H   0  0  0  0  0  0  0  0  0  0  0  0
   38.3550   29.2130   50.0840 H   0  0  0  0  0  0  0  0  0  0  0  0
   37.4210   28.3310   51.3970 H   0  0  0  0  0  0  0  0  0  0  0  0
   37.8960   30.1530   46.7600 O   0  0  0  0  0  0  0  0  0  0  0  0
   36.9780   29.7540   46.5680 H   0  0  0  0  0  0  0  0  0  0  0  0
  1 10  1  0  0  0  0
  1  2  1  0  0  0  0
  2 26  1  0  0  0  0
  3  2  2  0  0  0  0
  3 11  1  0  0  0  0
  4  3  1  0  0  0  0
  5 12  1  0  0  0  0
  5  4  1  0  0  0  0
  6  5  1  0  0  0  0
  7  6  2  0  0  0  0
  7  8  1  0  0  0  0
  8  9  1  0  0  0  0
  8  4  2  0  0  0  0
  9  1  2  0  0  0  0
 13  6  1  0  0  0  0
 14 15  1  0  0  0  0
 14  9  1  0  0  0  0
 15 16  1  0  0  0  0
 17 15  2  0  0  0  0
 18 17  1  0  0  0  0
 19 18  2  0  0  0  0
 20 19  1  0  0  0  0
 21 20  1  0  0  0  0
 22 20  2  0  0  0  0
 22 23  1  0  0  0  0
 23 24  2  0  0  0  0
 24 18  1  0  0  0  0
 24 25  1  0  0  0  0
 25 14  2  0  0  0  0
 26 32  1  0  0  0  0
 27 28  1  0  0  0  0
 28 37  1  0  0  0  0
 28 29  2  0  0  0  0
 29 33  1  0  0  0  0
 30 29  1  0  0  0  0
 30 34  1  0  0  0  0
 31 30  2  0  0  0  0
 32 27  2  0  0  0  0
 32 31  1  0  0  0  0
 35 31  1  0  0  0  0
 36 41  2  0  0  0  0
 36 37  1  0  0  0  0
 37 38  2  0  0  0  0
 38 39  1  0  0  0  0
 38 44  1  0  0  0  0
 40 43  1  0  0  0  0
 40 39  2  0  0  0  0
 41 40  1  0  0  0  0
 42 36  1  0  0  0  0
 44 45  1  0  0  0  0
 44 47  1  0  0  0  0
 46 44  1  0  0  0  0
 48 27  1  0  0  0  0
 49 48  1  0  0  0  0
M  END
>  <minimizedAffinity>
-7.94377851

>  <minimizedRMSD>
0.744146049

$$$$
