
 OpenBabel03272502563D

 45 49  0  0  0  0  0  0  0  0999 V2000
   36.5920   30.6670   49.3350 C   0  0  0  0  0  0  0  0  0  0  0  0
   36.6710   30.3100   50.6850 C   0  0  0  0  0  0  0  0  0  0  0  0
   35.7680   29.4060   51.2360 C   0  0  0  0  0  0  0  0  0  0  0  0
   34.8120   28.8990   50.3720 C   0  0  0  0  0  0  0  0  0  0  0  0
   34.7270   29.2490   49.0330 C   0  0  0  0  0  0  0  0  0  0  0  0
   35.6350   30.1370   48.5510 N   0  0  0  0  0  0  0  0  0  0  0  0
   33.7190   28.6750   48.2490 N   0  0  0  0  0  0  0  0  0  0  0  0
   32.6320   27.9990   48.9060 C   0  0  0  0  0  0  0  0  0  0  0  0
   31.7850   27.3500   47.8390 C   0  0  0  0  0  0  0  0  0  0  0  0
   31.2760   28.4000   46.8760 C   0  0  0  0  0  0  0  0  0  0  0  0
   32.3680   29.2810   46.3630 C   0  0  0  0  0  0  0  0  0  0  0  0
   33.6940   28.7160   46.7980 C   0  0  0  0  0  0  0  0  0  0  0  0
   37.4440   30.7470   51.2920 H   0  0  0  0  0  0  0  0  0  0  0  0
   35.8560   29.1540   52.2690 H   0  0  0  0  0  0  0  0  0  0  0  0
   34.1450   28.1990   50.8820 H   0  0  0  0  0  0  0  0  0  0  0  0
   32.0260   28.7680   49.4180 H   0  0  0  0  0  0  0  0  0  0  0  0
   32.9730   27.1810   49.5690 H   0  0  0  0  0  0  0  0  0  0  0  0
   30.8640   26.9230   48.3330 H   0  0  0  0  0  0  0  0  0  0  0  0
   32.3290   26.5320   47.3300 H   0  0  0  0  0  0  0  0  0  0  0  0
   30.8810   27.8270   45.9910 H   0  0  0  0  0  0  0  0  0  0  0  0
   30.4010   28.9280   47.2890 H   0  0  0  0  0  0  0  0  0  0  0  0
   32.3080   29.4560   45.2790 H   0  0  0  0  0  0  0  0  0  0  0  0
   32.2790   30.2730   46.8550 H   0  0  0  0  0  0  0  0  0  0  0  0
   33.7720   27.6850   46.3760 H   0  0  0  0  0  0  0  0  0  0  0  0
   34.5640   29.2690   46.3840 H   0  0  0  0  0  0  0  0  0  0  0  0
   38.9390   33.4600   49.0730 C   0  0  0  0  0  0  0  0  0  0  0  0
   39.3760   33.3690   47.7330 C   0  0  0  0  0  0  0  0  0  0  0  0
   38.8570   32.3580   46.9590 C   0  0  0  0  0  0  0  0  0  0  0  0
   37.9550   31.5100   47.5350 N   0  0  0  0  0  0  0  0  0  0  0  0
   37.5520   31.6130   48.8110 C   0  0  0  0  0  0  0  0  0  0  0  0
   38.0500   32.5830   49.5550 N   0  0  0  0  0  0  0  0  0  0  0  0
   39.3180   34.2370   49.7240 H   0  0  0  0  0  0  0  0  0  0  0  0
   40.0800   34.0600   47.3450 H   0  0  0  0  0  0  0  0  0  0  0  0
   39.2260   32.1600   45.5730 C   0  0  0  0  0  0  0  0  0  0  0  0
   39.5760   33.1790   44.7200 C   0  0  0  0  0  0  0  0  0  0  0  0
   39.5880   34.1950   45.0710 H   0  0  0  0  0  0  0  0  0  0  0  0
   39.9150   32.9150   43.4160 C   0  0  0  0  0  0  0  0  0  0  0  0
   39.9260   31.6470   42.8860 C   0  0  0  0  0  0  0  0  0  0  0  0
   40.2600   31.4190   41.6140 N   0  0  0  0  0  0  0  0  0  0  0  0
   40.2850   30.1940   41.0490 C   0  0  0  0  0  0  0  0  0  0  0  0
   40.5590   30.0310   40.0120 H   0  0  0  0  0  0  0  0  0  0  0  0
   39.9370   29.1650   41.8900 C   0  0  0  0  0  0  0  0  0  0  0  0
   39.5790   29.3190   43.2180 C   0  0  0  0  0  0  0  0  0  0  0  0
   39.5760   30.5930   43.7220 C   0  0  0  0  0  0  0  0  0  0  0  0
   39.2430   30.8970   45.0240 C   0  0  0  0  0  0  0  0  0  0  0  0
  1  2  1  0  0  0  0
  2  3  2  0  0  0  0
  2 13  1  0  0  0  0
  3 14  1  0  0  0  0
  4 15  1  0  0  0  0
  4  3  1  0  0  0  0
  5  4  2  0  0  0  0
  6  5  1  0  0  0  0
  6  1  2  0  0  0  0
  7  8  1  0  0  0  0
  7  5  1  0  0  0  0
  8 16  1  0  0  0  0
  8 17  1  0  0  0  0
  9 18  1  0  0  0  0
  9  8  1  0  0  0  0
 10 21  1  0  0  0  0
 10  9  1  0  0  0  0
 11 12  1  0  0  0  0
 11 23  1  0  0  0  0
 11 10  1  0  0  0  0
 12  7  1  0  0  0  0
 19  9  1  0  0  0  0
 20 10  1  0  0  0  0
 22 11  1  0  0  0  0
 24 12  1  0  0  0  0
 25 12  1  0  0  0  0
 26 31  1  0  0  0  0
 26 32  1  0  0  0  0
 27 26  2  0  0  0  0
 28 29  2  0  0  0  0
 28 27  1  0  0  0  0
 29 30  1  0  0  0  0
 30  1  1  0  0  0  0
 30 31  2  0  0  0  0
 33 27  1  0  0  0  0
 34 28  1  0  0  0  0
 35 36  1  0  0  0  0
 35 34  2  0  0  0  0
 37 35  1  0  0  0  0
 38 37  2  0  0  0  0
 38 44  1  0  0  0  0
 39 38  1  0  0  0  0
 40 39  2  0  0  0  0
 40 42  1  0  0  0  0
 41 40  1  0  0  0  0
 42 43  2  0  0  0  0
 43 44  1  0  0  0  0
 44 45  2  0  0  0  0
 45 34  1  0  0  0  0
M  END
>  <minimizedAffinity>
-7.68902683

>  <minimizedRMSD>
1.60961831

$$$$
