
 OpenBabel03272508543D

 41 45  0  0  1  0  0  0  0  0999 V2000
   39.0670   31.5110   43.4990 C   0  0  0  0  0  0  0  0  0  0  0  0
   40.0540   30.5720   43.6310 C   0  0  0  0  0  0  0  0  0  0  0  0
   40.7900   30.2200   42.5070 C   0  0  0  0  0  0  0  0  0  0  0  0
   40.4830   30.8370   41.3340 C   0  0  0  0  0  0  0  0  0  0  0  0
   39.4910   31.7890   41.1850 C   0  0  0  0  0  0  0  0  0  0  0  0
   38.8230   32.0740   42.3170 N   0  0  0  0  0  0  0  0  0  0  0  0
   40.3260   30.0590   44.5510 H   0  0  0  0  0  0  0  0  0  0  0  0
   41.5810   29.4760   42.5800 H   0  0  0  0  0  0  0  0  0  0  0  0
   41.0620   30.5550   40.4670 H   0  0  0  0  0  0  0  0  0  0  0  0
   39.1590   32.4530   39.9330 C   0  0  0  0  0  0  0  0  0  0  0  0
   38.3120   33.5350   39.8630 C   0  0  0  0  0  0  0  0  0  0  0  0
   37.8530   33.9420   40.7530 H   0  0  0  0  0  0  0  0  0  0  0  0
   37.9780   34.1860   38.6950 C   0  0  0  0  0  3  0  0  0  0  0  0
   38.5560   33.6850   37.5240 C   0  0  0  0  0  0  0  0  0  0  0  0
   38.3080   34.2350   36.3120 N   0  0  0  0  0  0  0  0  0  0  0  0
   38.8500   33.7730   35.1750 C   0  0  0  0  0  0  0  0  0  0  0  0
   38.5820   34.2920   34.2450 H   0  0  0  0  0  0  0  0  0  0  0  0
   39.7130   32.6810   35.1820 C   0  0  0  0  0  3  0  0  0  0  0  0
   39.9890   32.0930   36.4000 C   0  0  0  0  0  3  0  0  0  0  0  0
   39.4170   32.5920   37.5500 C   0  0  0  0  0  0  0  0  0  0  0  0
   39.7160   31.9780   38.7660 C   0  0  0  0  0  3  0  0  0  0  0  0
   38.2860   31.8670   44.6920 C   0  0  0  0  0  0  0  0  0  0  0  0
   37.1220   32.3590   44.5910 O   0  0  0  0  0  0  0  0  0  0  0  0
   38.8690   31.6440   45.9860 N   0  0  0  0  0  0  0  0  0  0  0  0
   39.8720   31.3950   46.1370 H   0  0  0  0  0  0  0  0  0  0  0  0
   38.4010   31.1690   48.3880 C   0  0  2  0  0  0  0  0  0  0  0  0
   38.6260   32.6190   48.2860 C   0  0  0  0  0  0  0  0  0  0  0  0
   38.0000   31.7750   47.1450 C   0  0  1  0  0  0  0  0  0  0  0  0
   39.3640   30.5910   48.4590 H   0  0  0  0  0  0  0  0  0  0  0  0
   39.6240   33.0200   48.1130 H   0  0  0  0  0  0  0  0  0  0  0  0
   37.9100   33.2550   48.8630 H   0  0  0  0  0  0  0  0  0  0  0  0
   36.9260   31.9960   46.9550 H   0  0  0  0  0  0  0  0  0  0  0  0
   35.1570   29.9420   49.6470 C   0  0  0  0  0  0  0  0  0  0  0  0
   35.4950   29.4650   50.9540 C   0  0  0  0  0  0  0  0  0  0  0  0
   36.8740   29.5940   51.3700 C   0  0  0  0  0  0  0  0  0  0  0  0
   37.7760   30.1520   50.5210 N   0  0  0  0  0  0  0  0  0  0  0  0
   37.3720   30.5840   49.2880 C   0  0  0  0  0  0  0  0  0  0  0  0
   36.0760   30.4940   48.8220 N   0  0  0  0  0  0  0  0  0  0  0  0
   34.1400   29.8530   49.3250 H   0  0  0  0  0  0  0  0  0  0  0  0
   34.7520   29.0320   51.5900 H   0  0  0  0  0  0  0  0  0  0  0  0
   37.1180   29.2370   52.3430 H   0  0  0  0  0  0  0  0  0  0  0  0
  1  2  1  0  0  0  0
  1 22  1  0  0  0  0
  2  7  1  0  0  0  0
  3  8  1  0  0  0  0
  3  2  2  0  0  0  0
  4  3  1  0  0  0  0
  5  4  2  0  0  0  0
  5  6  1  0  0  0  0
  6  1  2  0  0  0  0
  9  4  1  0  0  0  0
 10  5  1  0  0  0  0
 11 10  1  0  0  0  0
 11 12  1  0  0  0  0
 13 11  2  0  0  0  0
 14 20  1  0  0  0  0
 14 13  1  0  0  0  0
 15 14  2  0  0  0  0
 16 18  2  0  0  0  0
 16 15  1  0  0  0  0
 17 16  1  0  0  0  0
 18 19  1  0  0  0  0
 19 20  2  0  0  0  0
 20 21  1  0  0  0  0
 21 10  2  0  0  0  0
 22 24  1  0  0  0  0
 23 22  2  0  0  0  0
 24 25  1  0  0  0  0
 24 28  1  0  0  0  0
 26 29  1  6  0  0  0
 26 37  1  0  0  0  0
 27 26  1  0  0  0  0
 27 31  1  0  0  0  0
 28 32  1  6  0  0  0
 28 27  1  0  0  0  0
 28 26  1  0  0  0  0
 30 27  1  0  0  0  0
 33 34  1  0  0  0  0
 34 35  2  0  0  0  0
 34 40  1  0  0  0  0
 35 41  1  0  0  0  0
 36 35  1  0  0  0  0
 37 36  2  0  0  0  0
 38 37  1  0  0  0  0
 38 33  2  0  0  0  0
 39 33  1  0  0  0  0
M  END
>  <minimizedAffinity>
-5.31027555

>  <minimizedRMSD>
0.6033898

$$$$
