
 OpenBabel03272500063D

 32 35  0  0  0  0  0  0  0  0999 V2000
   37.6880   25.5520   34.1150 C   0  0  0  0  0  0  0  0  0  0  0  0
   38.4020   25.7370   35.3260 C   0  0  0  0  0  0  0  0  0  0  0  0
   38.3380   26.9830   35.9170 C   0  0  0  0  0  0  0  0  0  0  0  0
   37.6100   27.9670   35.3340 N   0  0  0  0  0  0  0  0  0  0  0  0
   36.9440   27.7830   34.1970 C   0  0  0  0  0  0  0  0  0  0  0  0
   36.9780   26.5650   33.5750 N   0  0  0  0  0  0  0  0  0  0  0  0
   37.7360   24.5810   33.6510 H   0  0  0  0  0  0  0  0  0  0  0  0
   38.8790   27.1330   36.8380 H   0  0  0  0  0  0  0  0  0  0  0  0
   39.1250   24.6310   35.8350 N   0  0  0  0  0  0  0  0  0  0  0  0
   40.3630   24.3310   35.4360 C   0  0  0  0  0  0  0  0  0  0  0  0
   41.0220   23.2270   35.9770 C   0  0  0  0  0  0  0  0  0  0  0  0
   40.3110   22.5280   36.9040 C   0  0  0  0  0  0  0  0  0  0  0  0
   40.9110   21.5260   37.3970 O   0  0  0  0  0  0  0  0  0  0  0  0
   39.0660   22.7930   37.3380 N   0  0  0  0  0  0  0  0  0  0  0  0
   38.4910   23.8780   36.7680 C   0  0  0  0  0  0  0  0  0  0  0  0
   37.3070   24.1400   37.1710 O   0  0  0  0  0  0  0  0  0  0  0  0
   40.8480   24.9490   34.6890 H   0  0  0  0  0  0  0  0  0  0  0  0
   42.0260   22.9520   35.6780 H   0  0  0  0  0  0  0  0  0  0  0  0
   38.5770   22.2220   38.0490 H   0  0  0  0  0  0  0  0  0  0  0  0
   36.1870   28.7570   33.5640 O   0  0  0  0  0  0  0  0  0  0  0  0
   35.2380   29.4370   34.3180 C   0  0  0  0  0  0  0  0  0  0  0  0
   33.9110   29.0680   34.4390 C   0  0  0  0  0  0  0  0  0  0  0  0
   33.5860   28.1890   33.9120 H   0  0  0  0  0  0  0  0  0  0  0  0
   33.1110   29.8660   35.2350 C   0  0  0  0  0  3  0  0  0  0  0  0
   33.5880   30.9830   35.8880 C   0  0  0  0  0  0  0  0  0  0  0  0
   32.7570   31.7090   36.6390 N   0  0  0  0  0  0  0  0  0  0  0  0
   33.2240   32.7940   37.2720 C   0  0  0  0  0  0  0  0  0  0  0  0
   32.4970   33.3360   37.8650 H   0  0  0  0  0  0  0  0  0  0  0  0
   34.5340   33.1630   37.1560 C   0  0  0  0  0  3  0  0  0  0  0  0
   35.4430   32.4590   36.3950 C   0  0  0  0  0  3  0  0  0  0  0  0
   34.9090   31.3370   35.7560 C   0  0  0  0  0  0  0  0  0  0  0  0
   35.7540   30.5570   34.9610 C   0  0  0  0  0  3  0  0  0  0  0  0
  1  2  1  0  0  0  0
  2  9  1  0  0  0  0
  2  3  2  0  0  0  0
  3  8  1  0  0  0  0
  4  3  1  0  0  0  0
  5  4  2  0  0  0  0
  6  1  2  0  0  0  0
  6  5  1  0  0  0  0
  7  1  1  0  0  0  0
  9 15  1  0  0  0  0
 10  9  1  0  0  0  0
 10 11  2  0  0  0  0
 11 12  1  0  0  0  0
 12 14  1  0  0  0  0
 12 13  2  0  0  0  0
 14 19  1  0  0  0  0
 15 16  2  0  0  0  0
 15 14  1  0  0  0  0
 17 10  1  0  0  0  0
 18 11  1  0  0  0  0
 20  5  1  0  0  0  0
 20 21  1  0  0  0  0
 21 22  2  0  0  0  0
 21 32  1  0  0  0  0
 22 24  1  0  0  0  0
 23 22  1  0  0  0  0
 24 25  2  0  0  0  0
 25 26  1  0  0  0  0
 26 27  2  0  0  0  0
 27 28  1  0  0  0  0
 29 27  1  0  0  0  0
 30 29  2  0  0  0  0
 31 25  1  0  0  0  0
 31 30  1  0  0  0  0
 32 31  2  0  0  0  0
M  END
>  <minimizedAffinity>
-6.58705854

$$$$

 OpenBabel03272500063D

 32 35  0  0  0  0  0  0  0  0999 V2000
   38.1960   27.0210   35.9340 C   0  0  0  0  0  0  0  0  0  0  0  0
   38.1600   25.7330   35.3460 C   0  0  0  0  0  0  0  0  0  0  0  0
   37.4810   25.5970   34.1510 C   0  0  0  0  0  0  0  0  0  0  0  0
   36.8850   26.6790   33.5910 N   0  0  0  0  0  0  0  0  0  0  0  0
   36.9250   27.8850   34.1520 C   0  0  0  0  0  0  0  0  0  0  0  0
   37.5860   28.0660   35.3360 N   0  0  0  0  0  0  0  0  0  0  0  0
   38.7240   27.1300   36.8660 H   0  0  0  0  0  0  0  0  0  0  0  0
   37.4480   24.6200   33.6970 H   0  0  0  0  0  0  0  0  0  0  0  0
   38.8220   24.6820   36.0280 N   0  0  0  0  0  0  0  0  0  0  0  0
   38.3410   24.1290   37.1430 C   0  0  0  0  0  0  0  0  0  0  0  0
   39.0420   23.0970   37.7680 C   0  0  0  0  0  0  0  0  0  0  0  0
   40.2010   22.7330   37.1540 C   0  0  0  0  0  0  0  0  0  0  0  0
   40.8360   21.7940   37.7210 O   0  0  0  0  0  0  0  0  0  0  0  0
   40.7230   23.2590   36.0320 N   0  0  0  0  0  0  0  0  0  0  0  0
   39.9880   24.2560   35.4830 C   0  0  0  0  0  0  0  0  0  0  0  0
   40.4730   24.7640   34.4170 O   0  0  0  0  0  0  0  0  0  0  0  0
   37.4060   24.4880   37.5590 H   0  0  0  0  0  0  0  0  0  0  0  0
   38.6840   22.6240   38.6730 H   0  0  0  0  0  0  0  0  0  0  0  0
   41.6120   22.9380   35.6120 H   0  0  0  0  0  0  0  0  0  0  0  0
   36.3310   29.0200   33.6180 O   0  0  0  0  0  0  0  0  0  0  0  0
   35.5280   29.7870   34.4530 C   0  0  0  0  0  0  0  0  0  0  0  0
   35.9690   30.8560   35.2120 C   0  0  0  0  0  0  0  0  0  0  0  0
   37.0110   31.1140   35.1540 H   0  0  0  0  0  0  0  0  0  0  0  0
   35.0250   31.5040   35.9860 C   0  0  0  0  0  3  0  0  0  0  0  0
   33.6990   31.1240   36.0170 C   0  0  0  0  0  0  0  0  0  0  0  0
   32.8420   31.7960   36.7890 N   0  0  0  0  0  0  0  0  0  0  0  0
   31.5550   31.4240   36.8170 C   0  0  0  0  0  0  0  0  0  0  0  0
   30.9150   32.0130   37.4640 H   0  0  0  0  0  0  0  0  0  0  0  0
   31.1140   30.3700   36.0690 C   0  0  0  0  0  3  0  0  0  0  0  0
   31.9470   29.6340   35.2530 C   0  0  0  0  0  3  0  0  0  0  0  0
   33.2780   30.0600   35.2580 C   0  0  0  0  0  0  0  0  0  0  0  0
   34.2000   29.3760   34.4600 C   0  0  0  0  0  3  0  0  0  0  0  0
  1  7  1  0  0  0  0
  2  1  1  0  0  0  0
  2  9  1  0  0  0  0
  3  2  2  0  0  0  0
  4  3  1  0  0  0  0
  4  5  2  0  0  0  0
  5  6  1  0  0  0  0
  6  1  2  0  0  0  0
  8  3  1  0  0  0  0
  9 10  1  0  0  0  0
 10 17  1  0  0  0  0
 10 11  2  0  0  0  0
 11 18  1  0  0  0  0
 12 13  2  0  0  0  0
 12 11  1  0  0  0  0
 14 12  1  0  0  0  0
 15  9  1  0  0  0  0
 15 14  1  0  0  0  0
 16 15  2  0  0  0  0
 19 14  1  0  0  0  0
 20  5  1  0  0  0  0
 20 21  1  0  0  0  0
 21 32  2  0  0  0  0
 21 22  1  0  0  0  0
 22 24  2  0  0  0  0
 23 22  1  0  0  0  0
 24 25  1  0  0  0  0
 25 26  1  0  0  0  0
 26 27  2  0  0  0  0
 27 28  1  0  0  0  0
 29 27  1  0  0  0  0
 30 31  1  0  0  0  0
 30 29  2  0  0  0  0
 31 25  2  0  0  0  0
 32 31  1  0  0  0  0
M  END
>  <minimizedAffinity>
-6.10951519

$$$$

 OpenBabel03272500063D

 32 35  0  0  0  0  0  0  0  0999 V2000
   35.8310   25.9340   30.9680 C   0  0  0  0  0  0  0  0  0  0  0  0
   36.5140   25.0870   31.8760 C   0  0  0  0  0  0  0  0  0  0  0  0
   37.0680   25.6720   32.9970 C   0  0  0  0  0  0  0  0  0  0  0  0
   36.9420   27.0080   33.1900 N   0  0  0  0  0  0  0  0  0  0  0  0
   36.2980   27.7950   32.3310 C   0  0  0  0  0  0  0  0  0  0  0  0
   35.7330   27.2590   31.2060 N   0  0  0  0  0  0  0  0  0  0  0  0
   35.3980   25.4810   30.0910 H   0  0  0  0  0  0  0  0  0  0  0  0
   37.5900   25.0350   33.6930 H   0  0  0  0  0  0  0  0  0  0  0  0
   36.5780   23.7070   31.5630 N   0  0  0  0  0  0  0  0  0  0  0  0
   35.5800   22.8600   31.8240 C   0  0  0  0  0  0  0  0  0  0  0  0
   35.7040   21.5110   31.4920 C   0  0  0  0  0  0  0  0  0  0  0  0
   36.8840   21.1680   30.9060 C   0  0  0  0  0  0  0  0  0  0  0  0
   36.9960   19.9430   30.6030 O   0  0  0  0  0  0  0  0  0  0  0  0
   37.9150   21.9840   30.6230 N   0  0  0  0  0  0  0  0  0  0  0  0
   37.7210   23.2780   30.9740 C   0  0  0  0  0  0  0  0  0  0  0  0
   38.6940   24.0630   30.7110 O   0  0  0  0  0  0  0  0  0  0  0  0
   34.6760   23.2290   32.2960 H   0  0  0  0  0  0  0  0  0  0  0  0
   34.9160   20.7950   31.6880 H   0  0  0  0  0  0  0  0  0  0  0  0
   38.7890   21.6620   30.1740 H   0  0  0  0  0  0  0  0  0  0  0  0
   36.1430   29.1640   32.4840 O   0  0  0  0  0  0  0  0  0  0  0  0
   35.1970   29.6130   33.3980 C   0  0  0  0  0  0  0  0  0  0  0  0
   33.8550   29.2790   33.3770 C   0  0  0  0  0  0  0  0  0  0  0  0
   33.5160   28.6220   32.5970 H   0  0  0  0  0  0  0  0  0  0  0  0
   33.0600   29.8220   34.3690 C   0  0  0  0  0  3  0  0  0  0  0  0
   33.5570   30.6610   35.3460 C   0  0  0  0  0  0  0  0  0  0  0  0
   32.7300   31.1500   36.2730 N   0  0  0  0  0  0  0  0  0  0  0  0
   33.2160   31.9640   37.2200 C   0  0  0  0  0  0  0  0  0  0  0  0
   32.4910   32.3240   37.9400 H   0  0  0  0  0  0  0  0  0  0  0  0
   34.5400   32.2980   37.2450 C   0  0  0  0  0  3  0  0  0  0  0  0
   35.4460   31.8280   36.3170 C   0  0  0  0  0  3  0  0  0  0  0  0
   34.8920   30.9840   35.3510 C   0  0  0  0  0  0  0  0  0  0  0  0
   35.7320   30.4560   34.3660 C   0  0  0  0  0  3  0  0  0  0  0  0
  1  6  2  0  0  0  0
  1  2  1  0  0  0  0
  2  3  2  0  0  0  0
  3  4  1  0  0  0  0
  3  8  1  0  0  0  0
  5 20  1  0  0  0  0
  5  4  2  0  0  0  0
  6  5  1  0  0  0  0
  7  1  1  0  0  0  0
  9 10  1  0  0  0  0
  9  2  1  0  0  0  0
 10 17  1  0  0  0  0
 11 18  1  0  0  0  0
 11 10  2  0  0  0  0
 12 11  1  0  0  0  0
 13 12  2  0  0  0  0
 14 12  1  0  0  0  0
 14 15  1  0  0  0  0
 15  9  1  0  0  0  0
 16 15  2  0  0  0  0
 19 14  1  0  0  0  0
 20 21  1  0  0  0  0
 21 32  1  0  0  0  0
 22 21  2  0  0  0  0
 22 24  1  0  0  0  0
 23 22  1  0  0  0  0
 24 25  2  0  0  0  0
 25 31  1  0  0  0  0
 25 26  1  0  0  0  0
 26 27  2  0  0  0  0
 27 29  1  0  0  0  0
 27 28  1  0  0  0  0
 30 29  2  0  0  0  0
 31 30  1  0  0  0  0
 32 31  2  0  0  0  0
M  END
>  <minimizedAffinity>
-5.94151115

$$$$

 OpenBabel03272500063D

 32 35  0  0  0  0  0  0  0  0999 V2000
   36.3330   28.3560   34.3150 C   0  0  0  0  0  0  0  0  0  0  0  0
   35.6900   29.5440   33.8850 C   0  0  0  0  0  0  0  0  0  0  0  0
   35.6540   29.7910   32.5270 C   0  0  0  0  0  0  0  0  0  0  0  0
   36.2210   28.9090   31.6680 N   0  0  0  0  0  0  0  0  0  0  0  0
   36.8230   27.7970   32.0820 C   0  0  0  0  0  0  0  0  0  0  0  0
   36.8830   27.5100   33.4180 N   0  0  0  0  0  0  0  0  0  0  0  0
   36.3640   28.1600   35.3730 H   0  0  0  0  0  0  0  0  0  0  0  0
   35.1670   30.6930   32.1900 H   0  0  0  0  0  0  0  0  0  0  0  0
   35.1340   30.3850   34.8790 N   0  0  0  0  0  0  0  0  0  0  0  0
   35.8650   31.2540   35.5810 C   0  0  0  0  0  0  0  0  0  0  0  0
   35.2570   32.0560   36.5480 C   0  0  0  0  0  0  0  0  0  0  0  0
   33.9160   31.8700   36.6910 C   0  0  0  0  0  0  0  0  0  0  0  0
   33.3640   32.5990   37.5690 O   0  0  0  0  0  0  0  0  0  0  0  0
   33.1400   31.0100   36.0080 N   0  0  0  0  0  0  0  0  0  0  0  0
   33.8000   30.2660   35.0880 C   0  0  0  0  0  0  0  0  0  0  0  0
   33.0740   29.4440   34.4320 O   0  0  0  0  0  0  0  0  0  0  0  0
   36.9300   31.3300   35.3950 H   0  0  0  0  0  0  0  0  0  0  0  0
   35.8160   32.7710   37.1370 H   0  0  0  0  0  0  0  0  0  0  0  0
   32.1220   30.9140   36.1630 H   0  0  0  0  0  0  0  0  0  0  0  0
   37.4170   26.8650   31.2430 O   0  0  0  0  0  0  0  0  0  0  0  0
   36.8700   25.5890   31.1980 C   0  0  0  0  0  0  0  0  0  0  0  0
   35.5180   25.3040   31.2580 C   0  0  0  0  0  0  0  0  0  0  0  0
   34.8370   26.1310   31.3470 H   0  0  0  0  0  0  0  0  0  0  0  0
   35.1560   23.9720   31.1990 C   0  0  0  0  0  3  0  0  0  0  0  0
   36.0800   22.9540   31.0840 C   0  0  0  0  0  0  0  0  0  0  0  0
   35.6590   21.6880   31.0330 N   0  0  0  0  0  0  0  0  0  0  0  0
   36.5590   20.7020   30.9230 C   0  0  0  0  0  0  0  0  0  0  0  0
   36.1490   19.6990   30.8860 H   0  0  0  0  0  0  0  0  0  0  0  0
   37.8960   20.9760   30.8620 C   0  0  0  0  0  3  0  0  0  0  0  0
   38.3960   22.2610   30.9110 C   0  0  0  0  0  3  0  0  0  0  0  0
   37.4200   23.2530   31.0270 C   0  0  0  0  0  0  0  0  0  0  0  0
   37.8290   24.5890   31.0830 C   0  0  0  0  0  3  0  0  0  0  0  0
  1  7  1  0  0  0  0
  2  1  1  0  0  0  0
  2  9  1  0  0  0  0
  3  2  2  0  0  0  0
  4  5  2  0  0  0  0
  4  3  1  0  0  0  0
  5  6  1  0  0  0  0
  6  1  2  0  0  0  0
  8  3  1  0  0  0  0
  9 15  1  0  0  0  0
  9 10  1  0  0  0  0
 10 11  2  0  0  0  0
 11 12  1  0  0  0  0
 11 18  1  0  0  0  0
 12 13  2  0  0  0  0
 14 19  1  0  0  0  0
 14 12  1  0  0  0  0
 15 14  1  0  0  0  0
 16 15  2  0  0  0  0
 17 10  1  0  0  0  0
 20  5  1  0  0  0  0
 21 20  1  0  0  0  0
 21 22  1  0  0  0  0
 22 23  1  0  0  0  0
 24 22  2  0  0  0  0
 25 24  1  0  0  0  0
 26 25  1  0  0  0  0
 27 26  2  0  0  0  0
 28 27  1  0  0  0  0
 29 30  2  0  0  0  0
 29 27  1  0  0  0  0
 30 31  1  0  0  0  0
 31 32  1  0  0  0  0
 31 25  2  0  0  0  0
 32 21  2  0  0  0  0
M  END
>  <minimizedAffinity>
-5.91494894

$$$$

 OpenBabel03272500063D

 32 35  0  0  0  0  0  0  0  0999 V2000
   38.0970   24.4020   34.3250 C   0  0  0  0  0  0  0  0  0  0  0  0
   39.0560   24.8310   35.2760 C   0  0  0  0  0  0  0  0  0  0  0  0
   39.1640   26.1890   35.5020 C   0  0  0  0  0  0  0  0  0  0  0  0
   38.3660   27.0490   34.8210 N   0  0  0  0  0  0  0  0  0  0  0  0
   37.4690   26.6350   33.9300 C   0  0  0  0  0  0  0  0  0  0  0  0
   37.3270   25.2980   33.6740 N   0  0  0  0  0  0  0  0  0  0  0  0
   38.0110   23.3430   34.1460 H   0  0  0  0  0  0  0  0  0  0  0  0
   39.8920   26.5250   36.2240 H   0  0  0  0  0  0  0  0  0  0  0  0
   39.8300   23.8360   35.9220 N   0  0  0  0  0  0  0  0  0  0  0  0
   41.0000   23.4070   35.4440 C   0  0  0  0  0  0  0  0  0  0  0  0
   41.7150   22.4230   36.1280 C   0  0  0  0  0  0  0  0  0  0  0  0
   41.1270   21.9730   37.2700 C   0  0  0  0  0  0  0  0  0  0  0  0
   41.7770   21.0800   37.8910 O   0  0  0  0  0  0  0  0  0  0  0  0
   39.9530   22.3750   37.7900 N   0  0  0  0  0  0  0  0  0  0  0  0
   39.3180   23.3310   37.0710 C   0  0  0  0  0  0  0  0  0  0  0  0
   38.2010   23.7210   37.5540 O   0  0  0  0  0  0  0  0  0  0  0  0
   41.3880   23.8270   34.5230 H   0  0  0  0  0  0  0  0  0  0  0  0
   42.6660   22.0500   35.7710 H   0  0  0  0  0  0  0  0  0  0  0  0
   39.5580   21.9930   38.6660 H   0  0  0  0  0  0  0  0  0  0  0  0
   36.6310   27.4740   33.2110 O   0  0  0  0  0  0  0  0  0  0  0  0
   37.0630   27.9120   31.9650 C   0  0  0  0  0  0  0  0  0  0  0  0
   37.8360   27.1710   31.0890 C   0  0  0  0  0  0  0  0  0  0  0  0
   38.1260   26.1820   31.3930 H   0  0  0  0  0  0  0  0  0  0  0  0
   38.1720   27.7710   29.8900 C   0  0  0  0  0  3  0  0  0  0  0  0
   37.7680   29.0480   29.5580 C   0  0  0  0  0  0  0  0  0  0  0  0
   38.1300   29.5650   28.3820 N   0  0  0  0  0  0  0  0  0  0  0  0
   37.7370   30.8060   28.0620 C   0  0  0  0  0  0  0  0  0  0  0  0
   38.0660   31.1630   27.0930 H   0  0  0  0  0  0  0  0  0  0  0  0
   36.9730   31.5420   28.9220 C   0  0  0  0  0  3  0  0  0  0  0  0
   36.5660   31.0670   30.1520 C   0  0  0  0  0  3  0  0  0  0  0  0
   37.0020   29.7710   30.4390 C   0  0  0  0  0  0  0  0  0  0  0  0
   36.6390   29.2010   31.6630 C   0  0  0  0  0  3  0  0  0  0  0  0
  1  2  1  0  0  0  0
  2  3  2  0  0  0  0
  2  9  1  0  0  0  0
  3  8  1  0  0  0  0
  4  3  1  0  0  0  0
  5  4  2  0  0  0  0
  6  5  1  0  0  0  0
  6  1  2  0  0  0  0
  7  1  1  0  0  0  0
  9 15  1  0  0  0  0
 10  9  1  0  0  0  0
 10 11  2  0  0  0  0
 11 12  1  0  0  0  0
 12 14  1  0  0  0  0
 12 13  2  0  0  0  0
 14 19  1  0  0  0  0
 15 16  2  0  0  0  0
 15 14  1  0  0  0  0
 17 10  1  0  0  0  0
 18 11  1  0  0  0  0
 20  5  1  0  0  0  0
 21 20  1  0  0  0  0
 22 23  1  0  0  0  0
 22 21  2  0  0  0  0
 24 22  1  0  0  0  0
 25 24  2  0  0  0  0
 25 31  1  0  0  0  0
 26 25  1  0  0  0  0
 27 26  2  0  0  0  0
 27 29  1  0  0  0  0
 28 27  1  0  0  0  0
 29 30  2  0  0  0  0
 30 31  1  0  0  0  0
 31 32  2  0  0  0  0
 32 21  1  0  0  0  0
M  END
>  <minimizedAffinity>
-5.8470211

$$$$

 OpenBabel03272500063D

 32 35  0  0  0  0  0  0  0  0999 V2000
   36.4450   28.2560   34.4300 C   0  0  0  0  0  0  0  0  0  0  0  0
   35.8100   29.4260   33.9450 C   0  0  0  0  0  0  0  0  0  0  0  0
   35.8420   29.6490   32.5830 C   0  0  0  0  0  0  0  0  0  0  0  0
   36.4640   28.7590   31.7710 N   0  0  0  0  0  0  0  0  0  0  0  0
   37.0580   27.6630   32.2370 C   0  0  0  0  0  0  0  0  0  0  0  0
   37.0510   27.4010   33.5800 N   0  0  0  0  0  0  0  0  0  0  0  0
   36.4220   28.0790   35.4920 H   0  0  0  0  0  0  0  0  0  0  0  0
   35.3620   30.5380   32.2050 H   0  0  0  0  0  0  0  0  0  0  0  0
   35.1930   30.2780   34.8940 N   0  0  0  0  0  0  0  0  0  0  0  0
   35.8770   31.1550   35.6310 C   0  0  0  0  0  0  0  0  0  0  0  0
   35.2090   31.9660   36.5490 C   0  0  0  0  0  0  0  0  0  0  0  0
   33.8630   31.7810   36.6090 C   0  0  0  0  0  0  0  0  0  0  0  0
   33.2560   32.5180   37.4430 O   0  0  0  0  0  0  0  0  0  0  0  0
   33.1310   30.9130   35.8870 N   0  0  0  0  0  0  0  0  0  0  0  0
   33.8480   30.1600   35.0190 C   0  0  0  0  0  0  0  0  0  0  0  0
   33.1650   29.3310   34.3270 O   0  0  0  0  0  0  0  0  0  0  0  0
   36.9520   31.2300   35.5120 H   0  0  0  0  0  0  0  0  0  0  0  0
   35.7310   32.6880   37.1640 H   0  0  0  0  0  0  0  0  0  0  0  0
   32.1060   30.8180   35.9790 H   0  0  0  0  0  0  0  0  0  0  0  0
   37.7060   26.7250   31.4470 O   0  0  0  0  0  0  0  0  0  0  0  0
   37.7630   25.4150   31.9080 C   0  0  0  0  0  0  0  0  0  0  0  0
   38.8170   24.8710   32.6200 C   0  0  0  0  0  0  0  0  0  0  0  0
   39.6560   25.5080   32.8350 H   0  0  0  0  0  0  0  0  0  0  0  0
   38.6990   23.5470   32.9970 C   0  0  0  0  0  3  0  0  0  0  0  0
   37.5940   22.7810   32.6900 C   0  0  0  0  0  0  0  0  0  0  0  0
   37.5480   21.5070   33.0860 N   0  0  0  0  0  0  0  0  0  0  0  0
   36.4730   20.7650   32.7850 C   0  0  0  0  0  0  0  0  0  0  0  0
   36.5020   19.7410   33.1370 H   0  0  0  0  0  0  0  0  0  0  0  0
   35.4290   21.2970   32.0830 C   0  0  0  0  0  3  0  0  0  0  0  0
   35.4140   22.6040   31.6440 C   0  0  0  0  0  3  0  0  0  0  0  0
   36.5560   23.3350   31.9810 C   0  0  0  0  0  0  0  0  0  0  0  0
   36.6340   24.6730   31.5810 C   0  0  0  0  0  3  0  0  0  0  0  0
  1  7  1  0  0  0  0
  2  1  1  0  0  0  0
  2  9  1  0  0  0  0
  3  2  2  0  0  0  0
  4  5  2  0  0  0  0
  4  3  1  0  0  0  0
  5  6  1  0  0  0  0
  6  1  2  0  0  0  0
  8  3  1  0  0  0  0
  9 15  1  0  0  0  0
  9 10  1  0  0  0  0
 10 11  2  0  0  0  0
 11 12  1  0  0  0  0
 11 18  1  0  0  0  0
 12 13  2  0  0  0  0
 14 19  1  0  0  0  0
 14 12  1  0  0  0  0
 15 14  1  0  0  0  0
 16 15  2  0  0  0  0
 17 10  1  0  0  0  0
 20 21  1  0  0  0  0
 20  5  1  0  0  0  0
 21 22  1  0  0  0  0
 22 23  1  0  0  0  0
 22 24  2  0  0  0  0
 25 24  1  0  0  0  0
 25 26  1  0  0  0  0
 27 26  2  0  0  0  0
 27 28  1  0  0  0  0
 29 27  1  0  0  0  0
 30 31  1  0  0  0  0
 30 29  2  0  0  0  0
 31 25  2  0  0  0  0
 32 21  2  0  0  0  0
 32 31  1  0  0  0  0
M  END
>  <minimizedAffinity>
-5.72806072

$$$$

 OpenBabel03272500063D

 32 35  0  0  0  0  0  0  0  0999 V2000
   38.0130   23.7950   33.3310 C   0  0  0  0  0  0  0  0  0  0  0  0
   38.5040   24.4050   34.5130 C   0  0  0  0  0  0  0  0  0  0  0  0
   38.1230   25.7090   34.7610 C   0  0  0  0  0  0  0  0  0  0  0  0
   37.3090   26.3490   33.8850 N   0  0  0  0  0  0  0  0  0  0  0  0
   36.8540   25.7670   32.7780 C   0  0  0  0  0  0  0  0  0  0  0  0
   37.2050   24.4760   32.4920 N   0  0  0  0  0  0  0  0  0  0  0  0
   38.3080   22.7780   33.1350 H   0  0  0  0  0  0  0  0  0  0  0  0
   38.4920   26.1810   35.6570 H   0  0  0  0  0  0  0  0  0  0  0  0
   39.3460   23.6310   35.3480 N   0  0  0  0  0  0  0  0  0  0  0  0
   40.6670   23.5530   35.1700 C   0  0  0  0  0  0  0  0  0  0  0  0
   41.4420   22.7730   36.0280 C   0  0  0  0  0  0  0  0  0  0  0  0
   40.7490   22.1370   37.0120 C   0  0  0  0  0  0  0  0  0  0  0  0
   41.4540   21.4290   37.7920 O   0  0  0  0  0  0  0  0  0  0  0  0
   39.4230   22.1860   37.2320 N   0  0  0  0  0  0  0  0  0  0  0  0
   38.7380   22.9620   36.3580 C   0  0  0  0  0  0  0  0  0  0  0  0
   37.4770   23.0170   36.5550 O   0  0  0  0  0  0  0  0  0  0  0  0
   41.1290   24.0980   34.3540 H   0  0  0  0  0  0  0  0  0  0  0  0
   42.5150   22.6860   35.9150 H   0  0  0  0  0  0  0  0  0  0  0  0
   38.9540   21.6780   38.0000 H   0  0  0  0  0  0  0  0  0  0  0  0
   36.0210   26.3800   31.8540 O   0  0  0  0  0  0  0  0  0  0  0  0
   36.1320   27.7540   31.6890 C   0  0  0  0  0  0  0  0  0  0  0  0
   35.4030   28.6980   32.3890 C   0  0  0  0  0  0  0  0  0  0  0  0
   34.6960   28.3430   33.1170 H   0  0  0  0  0  0  0  0  0  0  0  0
   35.6470   30.0250   32.0910 C   0  0  0  0  0  3  0  0  0  0  0  0
   36.5700   30.4180   31.1440 C   0  0  0  0  0  0  0  0  0  0  0  0
   36.7540   31.7180   30.9070 N   0  0  0  0  0  0  0  0  0  0  0  0
   37.6510   32.0970   29.9860 C   0  0  0  0  0  0  0  0  0  0  0  0
   37.7500   33.1660   29.8450 H   0  0  0  0  0  0  0  0  0  0  0  0
   38.3760   31.1700   29.2920 C   0  0  0  0  0  3  0  0  0  0  0  0
   38.2330   29.8120   29.4880 C   0  0  0  0  0  3  0  0  0  0  0  0
   37.2860   29.4690   30.4560 C   0  0  0  0  0  0  0  0  0  0  0  0
   37.0710   28.1140   30.7270 C   0  0  0  0  0  3  0  0  0  0  0  0
  1  2  1  0  0  0  0
  2  3  2  0  0  0  0
  2  9  1  0  0  0  0
  3  8  1  0  0  0  0
  4  3  1  0  0  0  0
  5  4  2  0  0  0  0
  6  5  1  0  0  0  0
  6  1  2  0  0  0  0
  7  1  1  0  0  0  0
  9 15  1  0  0  0  0
 10  9  1  0  0  0  0
 10 11  2  0  0  0  0
 11 12  1  0  0  0  0
 12 14  1  0  0  0  0
 12 13  2  0  0  0  0
 14 19  1  0  0  0  0
 15 16  2  0  0  0  0
 15 14  1  0  0  0  0
 17 10  1  0  0  0  0
 18 11  1  0  0  0  0
 20  5  1  0  0  0  0
 21 20  1  0  0  0  0
 21 22  1  0  0  0  0
 22 23  1  0  0  0  0
 24 22  2  0  0  0  0
 25 24  1  0  0  0  0
 26 25  1  0  0  0  0
 27 26  2  0  0  0  0
 28 27  1  0  0  0  0
 29 30  2  0  0  0  0
 29 27  1  0  0  0  0
 30 31  1  0  0  0  0
 31 32  1  0  0  0  0
 31 25  2  0  0  0  0
 32 21  2  0  0  0  0
M  END
>  <minimizedAffinity>
-5.72275782

$$$$

 OpenBabel03272500063D

 32 35  0  0  0  0  0  0  0  0999 V2000
   38.2980   27.2540   32.0750 C   0  0  0  0  0  0  0  0  0  0  0  0
   36.9410   27.4870   31.7360 C   0  0  0  0  0  0  0  0  0  0  0  0
   36.1110   26.3880   31.6440 C   0  0  0  0  0  0  0  0  0  0  0  0
   36.6090   25.1490   31.8770 N   0  0  0  0  0  0  0  0  0  0  0  0
   37.8850   24.9410   32.1940 C   0  0  0  0  0  0  0  0  0  0  0  0
   38.7440   26.0000   32.2970 N   0  0  0  0  0  0  0  0  0  0  0  0
   38.9480   28.1100   32.1480 H   0  0  0  0  0  0  0  0  0  0  0  0
   35.0770   26.5560   31.3860 H   0  0  0  0  0  0  0  0  0  0  0  0
   36.5420   28.8290   31.5180 N   0  0  0  0  0  0  0  0  0  0  0  0
   36.0930   29.6180   32.4970 C   0  0  0  0  0  0  0  0  0  0  0  0
   35.7140   30.9310   32.2160 C   0  0  0  0  0  0  0  0  0  0  0  0
   35.8440   31.3020   30.9140 C   0  0  0  0  0  0  0  0  0  0  0  0
   35.5010   32.4950   30.6600 O   0  0  0  0  0  0  0  0  0  0  0  0
   36.2910   30.5450   29.8960 N   0  0  0  0  0  0  0  0  0  0  0  0
   36.6390   29.2830   30.2440 C   0  0  0  0  0  0  0  0  0  0  0  0
   37.0640   28.5530   29.2860 O   0  0  0  0  0  0  0  0  0  0  0  0
   36.0250   29.2300   33.5070 H   0  0  0  0  0  0  0  0  0  0  0  0
   35.3460   31.6000   32.9840 H   0  0  0  0  0  0  0  0  0  0  0  0
   36.3670   30.8860   28.9230 H   0  0  0  0  0  0  0  0  0  0  0  0
   38.4400   23.6940   32.4400 O   0  0  0  0  0  0  0  0  0  0  0  0
   38.9250   23.4390   33.7170 C   0  0  0  0  0  0  0  0  0  0  0  0
   40.1350   22.8310   33.9980 C   0  0  0  0  0  0  0  0  0  0  0  0
   40.7490   22.5330   33.1670 H   0  0  0  0  0  0  0  0  0  0  0  0
   40.4530   22.6580   35.3310 C   0  0  0  0  0  3  0  0  0  0  0  0
   39.6210   23.0630   36.3540 C   0  0  0  0  0  0  0  0  0  0  0  0
   39.9930   22.8640   37.6210 N   0  0  0  0  0  0  0  0  0  0  0  0
   39.1820   23.2580   38.6120 C   0  0  0  0  0  0  0  0  0  0  0  0
   39.5450   23.0660   39.6140 H   0  0  0  0  0  0  0  0  0  0  0  0
   37.9850   23.8600   38.3410 C   0  0  0  0  0  3  0  0  0  0  0  0
   37.5420   24.0940   37.0560 C   0  0  0  0  0  3  0  0  0  0  0  0
   38.4220   23.6640   36.0590 C   0  0  0  0  0  0  0  0  0  0  0  0
   38.0610   23.8590   34.7220 C   0  0  0  0  0  3  0  0  0  0  0  0
  1  7  1  0  0  0  0
  1  6  1  0  0  0  0
  2  1  2  0  0  0  0
  3  2  1  0  0  0  0
  3  4  2  0  0  0  0
  4  5  1  0  0  0  0
  5  6  2  0  0  0  0
  5 20  1  0  0  0  0
  8  3  1  0  0  0  0
  9  2  1  0  0  0  0
  9 10  1  0  0  0  0
 10 17  1  0  0  0  0
 11 10  2  0  0  0  0
 11 18  1  0  0  0  0
 12 11  1  0  0  0  0
 13 12  2  0  0  0  0
 14 15  1  0  0  0  0
 14 12  1  0  0  0  0
 15  9  1  0  0  0  0
 16 15  2  0  0  0  0
 19 14  1  0  0  0  0
 20 21  1  0  0  0  0
 21 22  2  0  0  0  0
 21 32  1  0  0  0  0
 22 24  1  0  0  0  0
 23 22  1  0  0  0  0
 24 25  2  0  0  0  0
 25 26  1  0  0  0  0
 26 27  2  0  0  0  0
 27 28  1  0  0  0  0
 29 27  1  0  0  0  0
 30 29  2  0  0  0  0
 31 25  1  0  0  0  0
 31 30  1  0  0  0  0
 32 31  2  0  0  0  0
M  END
>  <minimizedAffinity>
-5.54020739

$$$$

 OpenBabel03272500063D

 32 35  0  0  0  0  0  0  0  0999 V2000
   34.9600   30.8290   32.6960 C   0  0  0  0  0  0  0  0  0  0  0  0
   35.2540   30.4270   34.0220 C   0  0  0  0  0  0  0  0  0  0  0  0
   35.8190   29.1790   34.1980 C   0  0  0  0  0  0  0  0  0  0  0  0
   36.0680   28.3970   33.1190 N   0  0  0  0  0  0  0  0  0  0  0  0
   35.7880   28.7840   31.8770 C   0  0  0  0  0  0  0  0  0  0  0  0
   35.2290   30.0130   31.6550 N   0  0  0  0  0  0  0  0  0  0  0  0
   34.5200   31.8020   32.5550 H   0  0  0  0  0  0  0  0  0  0  0  0
   36.0450   28.8640   35.2050 H   0  0  0  0  0  0  0  0  0  0  0  0
   34.9470   31.3340   35.0660 N   0  0  0  0  0  0  0  0  0  0  0  0
   35.7210   32.3800   35.3660 C   0  0  0  0  0  0  0  0  0  0  0  0
   35.3620   33.2370   36.4070 C   0  0  0  0  0  0  0  0  0  0  0  0
   34.2060   32.9140   37.0470 C   0  0  0  0  0  0  0  0  0  0  0  0
   33.8800   33.6940   37.9910 O   0  0  0  0  0  0  0  0  0  0  0  0
   33.3950   31.8750   36.7800 N   0  0  0  0  0  0  0  0  0  0  0  0
   33.8080   31.0870   35.7580 C   0  0  0  0  0  0  0  0  0  0  0  0
   33.0460   30.0960   35.4950 O   0  0  0  0  0  0  0  0  0  0  0  0
   36.6270   32.5550   34.7970 H   0  0  0  0  0  0  0  0  0  0  0  0
   35.9640   34.0940   36.6790 H   0  0  0  0  0  0  0  0  0  0  0  0
   32.5250   31.6820   37.3050 H   0  0  0  0  0  0  0  0  0  0  0  0
   36.0250   28.0210   30.7440 O   0  0  0  0  0  0  0  0  0  0  0  0
   36.6610   26.7960   30.9050 C   0  0  0  0  0  0  0  0  0  0  0  0
   38.0310   26.6090   30.9000 C   0  0  0  0  0  0  0  0  0  0  0  0
   38.6530   27.4740   30.7610 H   0  0  0  0  0  0  0  0  0  0  0  0
   38.4860   25.3160   31.0760 C   0  0  0  0  0  3  0  0  0  0  0  0
   37.6340   24.2440   31.2500 C   0  0  0  0  0  0  0  0  0  0  0  0
   38.1440   23.0210   31.4130 N   0  0  0  0  0  0  0  0  0  0  0  0
   37.3140   21.9820   31.5810 C   0  0  0  0  0  0  0  0  0  0  0  0
   37.7940   21.0190   31.7090 H   0  0  0  0  0  0  0  0  0  0  0  0
   35.9590   22.1610   31.5880 C   0  0  0  0  0  3  0  0  0  0  0  0
   35.3700   23.3970   31.4230 C   0  0  0  0  0  3  0  0  0  0  0  0
   36.2760   24.4470   31.2510 C   0  0  0  0  0  0  0  0  0  0  0  0
   35.7730   25.7400   31.0780 C   0  0  0  0  0  3  0  0  0  0  0  0
  1  2  1  0  0  0  0
  2  3  2  0  0  0  0
  2  9  1  0  0  0  0
  3  8  1  0  0  0  0
  4  3  1  0  0  0  0
  5  4  2  0  0  0  0
  6  5  1  0  0  0  0
  6  1  2  0  0  0  0
  7  1  1  0  0  0  0
  9 10  1  0  0  0  0
  9 15  1  0  0  0  0
 10 11  2  0  0  0  0
 11 18  1  0  0  0  0
 11 12  1  0  0  0  0
 12 13  2  0  0  0  0
 14 12  1  0  0  0  0
 14 19  1  0  0  0  0
 15 14  1  0  0  0  0
 16 15  2  0  0  0  0
 17 10  1  0  0  0  0
 20 21  1  0  0  0  0
 20  5  1  0  0  0  0
 21 32  1  0  0  0  0
 22 21  2  0  0  0  0
 22 24  1  0  0  0  0
 23 22  1  0  0  0  0
 24 25  2  0  0  0  0
 25 31  1  0  0  0  0
 25 26  1  0  0  0  0
 26 27  2  0  0  0  0
 27 29  1  0  0  0  0
 27 28  1  0  0  0  0
 30 29  2  0  0  0  0
 31 30  1  0  0  0  0
 32 31  2  0  0  0  0
M  END
>  <minimizedAffinity>
-5.41164255

$$$$
