
 OpenBabel03272505313D

 43 47  0  0  0  0  0  0  0  0999 V2000
   37.3910   31.1810   47.0940 N   0  0  0  0  0  0  0  0  0  0  0  0
   36.7130   30.9510   45.9360 C   0  0  0  0  0  0  0  0  0  0  0  0
   37.1300   31.4690   44.7260 C   0  0  0  0  0  0  0  0  0  0  0  0
   38.2930   32.2530   44.7360 C   0  0  0  0  0  0  0  0  0  0  0  0
   38.7170   32.7510   43.6580 O   0  0  0  0  0  0  0  0  0  0  0  0
   38.9720   32.4830   45.9000 N   0  0  0  0  0  0  0  0  0  0  0  0
   38.4680   31.9280   46.9920 C   0  0  0  0  0  0  0  0  0  0  0  0
   39.1150   32.1590   48.0410 O   0  0  0  0  0  0  0  0  0  0  0  0
   35.8210   30.3460   45.9450 H   0  0  0  0  0  0  0  0  0  0  0  0
   37.4000   29.5140   50.4210 C   0  0  0  0  0  0  0  0  0  0  0  0
   37.8260   30.0560   49.2000 C   0  0  0  0  0  0  0  0  0  0  0  0
   36.9510   30.6450   48.3100 C   0  0  0  0  0  0  0  0  0  0  0  0
   35.6620   30.6760   48.6670 N   0  0  0  0  0  0  0  0  0  0  0  0
   35.2050   30.1640   49.8420 C   0  0  0  0  0  0  0  0  0  0  0  0
   36.0870   29.5860   50.7080 N   0  0  0  0  0  0  0  0  0  0  0  0
   38.0860   29.0530   51.1170 H   0  0  0  0  0  0  0  0  0  0  0  0
   38.8710   29.9820   49.0050 H   0  0  0  0  0  0  0  0  0  0  0  0
   34.1580   30.1990   50.1140 H   0  0  0  0  0  0  0  0  0  0  0  0
   36.4480   31.2570   43.4570 C   0  0  0  0  0  0  0  0  0  0  0  0
   36.7200   30.2080   42.6270 C   0  0  0  0  0  0  0  0  0  0  0  0
   36.0890   29.9860   41.4200 C   0  0  0  0  0  0  0  0  0  0  0  0
   35.1050   30.8960   41.0180 C   0  0  0  0  0  0  0  0  0  0  0  0
   34.8620   31.9440   41.8870 C   0  0  0  0  0  0  0  0  0  0  0  0
   35.5080   32.0970   43.0370 N   0  0  0  0  0  0  0  0  0  0  0  0
   37.4710   29.4760   42.8930 H   0  0  0  0  0  0  0  0  0  0  0  0
   36.3140   29.1460   40.7680 H   0  0  0  0  0  0  0  0  0  0  0  0
   34.6000   30.7520   40.0910 H   0  0  0  0  0  0  0  0  0  0  0  0
   33.8530   32.9470   41.5580 C   0  0  0  0  0  0  0  0  0  0  0  0
   33.9810   34.2410   42.0380 C   0  0  0  0  0  0  0  0  0  0  0  0
   34.8420   34.4990   42.6620 H   0  0  0  0  0  0  0  0  0  0  0  0
   33.1090   35.2860   41.8080 C   0  0  0  0  0  3  0  0  0  0  0  0
   32.0040   35.0190   41.0260 C   0  0  0  0  0  0  0  0  0  0  0  0
   31.1060   35.9840   40.7550 N   0  0  0  0  0  0  0  0  0  0  0  0
   30.0130   35.7550   39.9930 C   0  0  0  0  0  0  0  0  0  0  0  0
   29.2950   36.5390   39.7800 H   0  0  0  0  0  0  0  0  0  0  0  0
   29.8490   34.4630   39.4910 C   0  0  0  0  0  3  0  0  0  0  0  0
   30.7380   33.4290   39.7360 C   0  0  0  0  0  3  0  0  0  0  0  0
   31.8280   33.7460   40.5220 C   0  0  0  0  0  0  0  0  0  0  0  0
   32.7320   32.7360   40.7830 C   0  0  0  0  0  3  0  0  0  0  0  0
   40.1640   33.2890   45.8970 C   0  0  0  0  0  0  0  0  0  0  0  0
   40.1020   34.2370   44.9400 F   0  0  0  0  0  0  0  0  0  0  0  0
   41.3250   32.5610   45.6300 F   0  0  0  0  0  0  0  0  0  0  0  0
   40.2870   33.9200   47.1290 F   0  0  0  0  0  0  0  0  0  0  0  0
  1 12  1  0  0  0  0
  2  9  1  0  0  0  0
  2  1  1  0  0  0  0
  3  4  1  0  0  0  0
  3  2  2  0  0  0  0
  4  6  1  0  0  0  0
  5  4  2  0  0  0  0
  6  7  1  0  0  0  0
  7  1  1  0  0  0  0
  7  8  2  0  0  0  0
 10 15  1  0  0  0  0
 10 16  1  0  0  0  0
 11 10  2  0  0  0  0
 12 13  2  0  0  0  0
 12 11  1  0  0  0  0
 13 14  1  0  0  0  0
 14 18  1  0  0  0  0
 14 15  2  0  0  0  0
 17 11  1  0  0  0  0
 19  3  1  0  0  0  0
 20 25  1  0  0  0  0
 20 19  2  0  0  0  0
 21 20  1  0  0  0  0
 22 21  2  0  0  0  0
 22 23  1  0  0  0  0
 23 24  2  0  0  0  0
 24 19  1  0  0  0  0
 26 21  1  0  0  0  0
 27 22  1  0  0  0  0
 28 23  1  0  0  0  0
 28 29  1  0  0  0  0
 29 30  1  0  0  0  0
 31 29  2  0  0  0  0
 32 31  1  0  0  0  0
 33 32  1  0  0  0  0
 34 33  2  0  0  0  0
 35 34  1  0  0  0  0
 36 37  2  0  0  0  0
 36 34  1  0  0  0  0
 37 38  1  0  0  0  0
 38 39  1  0  0  0  0
 38 32  2  0  0  0  0
 39 28  2  0  0  0  0
 40  6  1  0  0  0  0
 40 43  1  0  0  0  0
 41 40  1  0  0  0  0
 42 40  1  0  0  0  0
M  END
>  <minimizedAffinity>
-6.8347702

>  <minimizedRMSD>
0.610197544

$$$$
