
 OpenBabel03272509583D

 49 53  0  0  0  0  0  0  0  0999 V2000
   33.1910   28.1180   47.2450 C   0  0  0  0  0  0  0  0  0  0  0  0
   33.6110   27.1180   47.3420 H   0  0  0  0  0  0  0  0  0  0  0  0
   33.1570   28.3380   46.1550 H   0  0  0  0  0  0  0  0  0  0  0  0
   31.7760   28.1270   47.7100 C   0  0  0  0  0  0  0  0  0  0  0  0
   31.5230   27.6370   48.9770 C   0  0  0  0  0  0  0  0  0  0  0  0
   30.2470   27.6010   49.5030 C   0  0  0  0  0  0  0  0  0  0  0  0
   29.2310   28.0520   48.7660 N   0  0  0  0  0  0  0  0  0  0  0  0
   29.4910   28.5320   47.5230 C   0  0  0  0  0  0  0  0  0  0  0  0
   30.7260   28.5740   46.9960 N   0  0  0  0  0  0  0  0  0  0  0  0
   32.3140   27.2610   49.6100 H   0  0  0  0  0  0  0  0  0  0  0  0
   30.0340   27.2150   50.5050 H   0  0  0  0  0  0  0  0  0  0  0  0
   28.3410   29.0280   46.7210 C   0  0  0  0  0  0  0  0  0  0  0  0
   27.4350   29.1800   47.3440 H   0  0  0  0  0  0  0  0  0  0  0  0
   28.6220   30.0370   46.3520 H   0  0  0  0  0  0  0  0  0  0  0  0
   28.0490   28.1130   45.5700 C   0  0  0  0  0  0  0  0  0  0  0  0
   28.0820   26.7390   45.6740 C   0  0  0  0  0  0  0  0  0  0  0  0
   28.3290   26.2920   46.6270 H   0  0  0  0  0  0  0  0  0  0  0  0
   27.7920   26.0120   44.5310 C   0  0  0  0  0  3  0  0  0  0  0  0
   27.4790   26.6270   43.3240 C   0  0  0  0  0  0  0  0  0  0  0  0
   27.2000   25.9210   42.2230 N   0  0  0  0  0  0  0  0  0  0  0  0
   26.9020   26.5640   41.0760 C   0  0  0  0  0  0  0  0  0  0  0  0
   26.6660   26.0450   40.1480 H   0  0  0  0  0  0  0  0  0  0  0  0
   26.8660   27.9550   40.9610 C   0  0  0  0  0  3  0  0  0  0  0  0
   27.1460   28.6970   42.0690 C   0  0  0  0  0  3  0  0  0  0  0  0
   27.4490   28.0190   43.2350 C   0  0  0  0  0  0  0  0  0  0  0  0
   27.7350   28.7330   44.3590 C   0  0  0  0  0  3  0  0  0  0  0  0
   34.0510   29.0960   47.9760 C   0  0  0  0  0  0  0  0  0  0  0  0
   33.4690   29.8690   48.5160 H   0  0  0  0  0  0  0  0  0  0  0  0
   34.6720   29.6350   47.2300 H   0  0  0  0  0  0  0  0  0  0  0  0
   34.9630   28.4460   48.8410 O   0  0  0  0  0  0  0  0  0  0  0  0
   37.1200   30.0060   51.2710 C   0  0  0  0  0  0  0  0  0  0  0  0
   37.9450   30.7840   50.4210 C   0  0  0  0  0  0  0  0  0  0  0  0
   37.6920   30.7100   49.0540 C   0  0  0  0  0  0  0  0  0  0  0  0
   36.6670   29.8890   48.6690 N   0  0  0  0  0  0  0  0  0  0  0  0
   35.9060   29.1700   49.4870 C   0  0  0  0  0  0  0  0  0  0  0  0
   36.1420   29.2330   50.8120 N   0  0  0  0  0  0  0  0  0  0  0  0
   37.3740   30.1140   52.3140 H   0  0  0  0  0  0  0  0  0  0  0  0
   38.7430   31.4170   50.7500 H   0  0  0  0  0  0  0  0  0  0  0  0
   38.7790   33.3890   49.1780 F   0  0  0  0  0  0  0  0  0  0  0  0
   38.9390   32.6680   48.0750 C   0  0  0  0  0  0  0  0  0  0  0  0
   38.4240   31.4270   48.0430 C   0  0  0  0  0  0  0  0  0  0  0  0
   38.6490   30.7520   46.8370 C   0  0  0  0  0  0  0  0  0  0  0  0
   39.3300   31.3180   45.7960 C   0  0  0  0  0  0  0  0  0  0  0  0
   39.8370   32.5950   45.8820 C   0  0  0  0  0  0  0  0  0  0  0  0
   39.6280   33.2610   47.0450 C   0  0  0  0  0  0  0  0  0  0  0  0
   38.2900   29.7420   46.6700 H   0  0  0  0  0  0  0  0  0  0  0  0
   39.5030   30.7830   44.8540 H   0  0  0  0  0  0  0  0  0  0  0  0
   40.3720   33.0230   45.0500 H   0  0  0  0  0  0  0  0  0  0  0  0
   40.0200   34.2680   47.1310 H   0  0  0  0  0  0  0  0  0  0  0  0
  1  2  1  0  0  0  0
  1  4  1  0  0  0  0
  1 27  1  0  0  0  0
  3  1  1  0  0  0  0
  4  5  1  0  0  0  0
  5  6  2  0  0  0  0
  5 10  1  0  0  0  0
  6 11  1  0  0  0  0
  7  6  1  0  0  0  0
  8  7  2  0  0  0  0
  9  8  1  0  0  0  0
  9  4  2  0  0  0  0
 12 13  1  0  0  0  0
 12  8  1  0  0  0  0
 14 12  1  0  0  0  0
 15 16  1  0  0  0  0
 15 12  1  0  0  0  0
 16 17  1  0  0  0  0
 18 16  2  0  0  0  0
 19 18  1  0  0  0  0
 20 19  2  0  0  0  0
 21 20  1  0  0  0  0
 22 21  1  0  0  0  0
 23 21  2  0  0  0  0
 23 24  1  0  0  0  0
 24 25  2  0  0  0  0
 25 19  1  0  0  0  0
 25 26  1  0  0  0  0
 26 15  2  0  0  0  0
 27 28  1  0  0  0  0
 27 30  1  0  0  0  0
 29 27  1  0  0  0  0
 30 35  1  0  0  0  0
 31 37  1  0  0  0  0
 32 38  1  0  0  0  0
 32 31  2  0  0  0  0
 33 32  1  0  0  0  0
 34 33  2  0  0  0  0
 34 35  1  0  0  0  0
 35 36  2  0  0  0  0
 36 31  1  0  0  0  0
 40 39  1  0  0  0  0
 41 40  1  0  0  0  0
 41 33  1  0  0  0  0
 42 41  2  0  0  0  0
 43 44  2  0  0  0  0
 43 42  1  0  0  0  0
 44 45  1  0  0  0  0
 45 49  1  0  0  0  0
 45 40  2  0  0  0  0
 46 42  1  0  0  0  0
 47 43  1  0  0  0  0
 48 44  1  0  0  0  0
M  END
>  <minimizedAffinity>
-6.69549274

>  <minimizedRMSD>
0.902389944

$$$$
