
 OpenBabel03262523453D

 31 34  0  0  0  0  0  0  0  0999 V2000
   34.6800   30.6370   32.1280 Cl  0  0  0  0  0  0  0  0  0  0  0  0
   35.6520   29.3580   32.8260 C   0  0  0  0  0  0  0  0  0  0  0  0
   35.8710   29.2960   34.1880 C   0  0  0  0  0  0  0  0  0  0  0  0
   36.6430   28.2680   34.6660 C   0  0  0  0  0  0  0  0  0  0  0  0
   37.1960   27.3100   33.8300 C   0  0  0  0  0  0  0  0  0  0  0  0
   36.9520   27.4080   32.4660 C   0  0  0  0  0  0  0  0  0  0  0  0
   37.6700   26.1770   31.4610 Cl  0  0  0  0  0  0  0  0  0  0  0  0
   36.1870   28.4200   31.9480 C   0  0  0  0  0  0  0  0  0  0  0  0
   36.7970   28.2450   35.7370 H   0  0  0  0  0  0  0  0  0  0  0  0
   36.0040   28.4860   30.8970 H   0  0  0  0  0  0  0  0  0  0  0  0
   37.9900   26.2840   34.4970 C   0  0  0  0  0  0  0  0  0  0  0  0
   39.1740   25.8470   33.9320 C   0  0  0  0  0  0  0  0  0  0  0  0
   39.5600   26.2300   32.9980 H   0  0  0  0  0  0  0  0  0  0  0  0
   39.9410   24.8790   34.5450 C   0  0  0  0  0  3  0  0  0  0  0  0
   39.5780   24.3000   35.7370 C   0  0  0  0  0  0  0  0  0  0  0  0
   40.3220   23.3550   36.3360 N   0  0  0  0  0  0  0  0  0  0  0  0
   39.9150   22.8240   37.5040 C   0  0  0  0  0  0  0  0  0  0  0  0
   40.5600   22.0600   37.9490 H   0  0  0  0  0  0  0  0  0  0  0  0
   38.7560   23.1910   38.1440 C   0  0  0  0  0  3  0  0  0  0  0  0
   37.9950   24.1620   37.5230 C   0  0  0  0  0  3  0  0  0  0  0  0
   38.3880   24.7310   36.3150 C   0  0  0  0  0  0  0  0  0  0  0  0
   37.6130   25.7110   35.6930 C   0  0  0  0  0  3  0  0  0  0  0  0
   35.3920   32.3570   36.3750 C   0  0  0  0  0  0  0  0  0  0  0  0
   35.9880   31.3630   35.5910 C   0  0  0  0  0  0  0  0  0  0  0  0
   35.2550   30.3440   35.0130 C   0  0  0  0  0  0  0  0  0  0  0  0
   33.9090   30.3540   35.2470 N   0  0  0  0  0  0  0  0  0  0  0  0
   33.3490   31.3180   36.0040 C   0  0  0  0  0  0  0  0  0  0  0  0
   34.0640   32.2940   36.5560 N   0  0  0  0  0  0  0  0  0  0  0  0
   36.0560   33.1070   36.7800 H   0  0  0  0  0  0  0  0  0  0  0  0
   37.0580   31.3910   35.4310 H   0  0  0  0  0  0  0  0  0  0  0  0
   32.2940   31.3750   36.2210 H   0  0  0  0  0  0  0  0  0  0  0  0
  1  2  1  0  0  0  0
  2  3  1  0  0  0  0
  3  4  2  0  0  0  0
  3 25  1  0  0  0  0
  4  9  1  0  0  0  0
  5 11  1  0  0  0  0
  5  4  1  0  0  0  0
  6  5  2  0  0  0  0
  7  6  1  0  0  0  0
  8  6  1  0  0  0  0
  8  2  2  0  0  0  0
 10  8  1  0  0  0  0
 11 22  1  0  0  0  0
 12 11  2  0  0  0  0
 12 14  1  0  0  0  0
 13 12  1  0  0  0  0
 14 15  2  0  0  0  0
 15 21  1  0  0  0  0
 15 16  1  0  0  0  0
 16 17  2  0  0  0  0
 17 18  1  0  0  0  0
 17 19  1  0  0  0  0
 20 19  2  0  0  0  0
 21 20  1  0  0  0  0
 22 21  2  0  0  0  0
 23 28  1  0  0  0  0
 23 29  1  0  0  0  0
 24 23  2  0  0  0  0
 25 26  2  0  0  0  0
 25 24  1  0  0  0  0
 26 27  1  0  0  0  0
 27 31  1  0  0  0  0
 27 28  2  0  0  0  0
 30 24  1  0  0  0  0
M  END
>  <minimizedAffinity>
-6.68752241

$$$$

 OpenBabel03262523453D

 31 34  0  0  0  0  0  0  0  0999 V2000
   35.7350   29.9950   31.7610 Cl  0  0  0  0  0  0  0  0  0  0  0  0
   36.4720   28.7120   32.6970 C   0  0  0  0  0  0  0  0  0  0  0  0
   36.2860   28.6330   34.0620 C   0  0  0  0  0  0  0  0  0  0  0  0
   36.8940   27.6020   34.7330 C   0  0  0  0  0  0  0  0  0  0  0  0
   37.6750   26.6580   34.0830 C   0  0  0  0  0  0  0  0  0  0  0  0
   37.8370   26.7740   32.7080 C   0  0  0  0  0  0  0  0  0  0  0  0
   38.8290   25.5600   31.9420 Cl  0  0  0  0  0  0  0  0  0  0  0  0
   37.2480   27.7890   32.0020 C   0  0  0  0  0  0  0  0  0  0  0  0
   36.7300   27.5650   35.8020 H   0  0  0  0  0  0  0  0  0  0  0  0
   37.3790   27.8680   30.9440 H   0  0  0  0  0  0  0  0  0  0  0  0
   38.2490   25.6270   34.9400 C   0  0  0  0  0  0  0  0  0  0  0  0
   37.4790   25.0390   35.9280 C   0  0  0  0  0  0  0  0  0  0  0  0
   36.4470   25.3030   36.1100 H   0  0  0  0  0  0  0  0  0  0  0  0
   38.0000   24.0610   36.7490 C   0  0  0  0  0  3  0  0  0  0  0  0
   39.2970   23.6210   36.6350 C   0  0  0  0  0  0  0  0  0  0  0  0
   39.8080   22.6690   37.4350 N   0  0  0  0  0  0  0  0  0  0  0  0
   41.0850   22.2780   37.2760 C   0  0  0  0  0  0  0  0  0  0  0  0
   41.4500   21.5000   37.9530 H   0  0  0  0  0  0  0  0  0  0  0  0
   41.9300   22.8010   36.3260 C   0  0  0  0  0  3  0  0  0  0  0  0
   41.3990   23.7790   35.5080 C   0  0  0  0  0  3  0  0  0  0  0  0
   40.0810   24.2050   35.6460 C   0  0  0  0  0  0  0  0  0  0  0  0
   39.5510   25.1950   34.8160 C   0  0  0  0  0  3  0  0  0  0  0  0
   35.1700   31.7340   35.9390 C   0  0  0  0  0  0  0  0  0  0  0  0
   35.9780   30.7550   35.3490 C   0  0  0  0  0  0  0  0  0  0  0  0
   35.4470   29.6660   34.6850 C   0  0  0  0  0  0  0  0  0  0  0  0
   34.0840   29.5910   34.6310 N   0  0  0  0  0  0  0  0  0  0  0  0
   33.3200   30.5420   35.2030 C   0  0  0  0  0  0  0  0  0  0  0  0
   33.8410   31.5860   35.8410 N   0  0  0  0  0  0  0  0  0  0  0  0
   35.6880   32.5440   36.4340 H   0  0  0  0  0  0  0  0  0  0  0  0
   37.0540   30.8510   35.4160 H   0  0  0  0  0  0  0  0  0  0  0  0
   32.2400   30.5330   35.1910 H   0  0  0  0  0  0  0  0  0  0  0  0
  1  2  1  0  0  0  0
  2  3  1  0  0  0  0
  3 25  1  0  0  0  0
  3  4  2  0  0  0  0
  4  9  1  0  0  0  0
  5  4  1  0  0  0  0
  5 11  1  0  0  0  0
  6  5  2  0  0  0  0
  7  6  1  0  0  0  0
  8  2  2  0  0  0  0
  8  6  1  0  0  0  0
 10  8  1  0  0  0  0
 11 12  1  0  0  0  0
 12 13  1  0  0  0  0
 12 14  2  0  0  0  0
 15 14  1  0  0  0  0
 15 16  1  0  0  0  0
 17 16  2  0  0  0  0
 17 18  1  0  0  0  0
 19 17  1  0  0  0  0
 20 21  1  0  0  0  0
 20 19  2  0  0  0  0
 21 15  2  0  0  0  0
 22 11  2  0  0  0  0
 22 21  1  0  0  0  0
 23 29  1  0  0  0  0
 24 30  1  0  0  0  0
 24 23  2  0  0  0  0
 25 24  1  0  0  0  0
 26 25  2  0  0  0  0
 26 27  1  0  0  0  0
 27 28  2  0  0  0  0
 28 23  1  0  0  0  0
 31 27  1  0  0  0  0
M  END
>  <minimizedAffinity>
-6.18593407

$$$$

 OpenBabel03262523453D

 31 34  0  0  0  0  0  0  0  0999 V2000
   38.6590   26.4040   30.9840 Cl  0  0  0  0  0  0  0  0  0  0  0  0
   37.6170   27.4080   31.9720 C   0  0  0  0  0  0  0  0  0  0  0  0
   37.5570   27.2360   33.3400 C   0  0  0  0  0  0  0  0  0  0  0  0
   36.7190   28.0560   34.0520 C   0  0  0  0  0  0  0  0  0  0  0  0
   35.9480   29.0330   33.4400 C   0  0  0  0  0  0  0  0  0  0  0  0
   36.0380   29.1730   32.0610 C   0  0  0  0  0  0  0  0  0  0  0  0
   35.0470   30.4170   31.3440 Cl  0  0  0  0  0  0  0  0  0  0  0  0
   36.8620   28.3740   31.3140 C   0  0  0  0  0  0  0  0  0  0  0  0
   36.6920   27.8990   35.1220 H   0  0  0  0  0  0  0  0  0  0  0  0
   36.9240   28.4900   30.2530 H   0  0  0  0  0  0  0  0  0  0  0  0
   35.1110   29.8210   34.3390 C   0  0  0  0  0  0  0  0  0  0  0  0
   33.7990   29.4500   34.5670 C   0  0  0  0  0  0  0  0  0  0  0  0
   33.3390   28.5860   34.1070 H   0  0  0  0  0  0  0  0  0  0  0  0
   32.9900   30.1790   35.4140 C   0  0  0  0  0  3  0  0  0  0  0  0
   33.4350   31.3000   36.0700 C   0  0  0  0  0  0  0  0  0  0  0  0
   32.6490   32.0130   36.8950 N   0  0  0  0  0  0  0  0  0  0  0  0
   33.1410   33.1030   37.5110 C   0  0  0  0  0  0  0  0  0  0  0  0
   32.4590   33.6450   38.1720 H   0  0  0  0  0  0  0  0  0  0  0  0
   34.4310   33.5520   37.3500 C   0  0  0  0  0  3  0  0  0  0  0  0
   35.2330   32.8160   36.5010 C   0  0  0  0  0  3  0  0  0  0  0  0
   34.7540   31.6830   35.8490 C   0  0  0  0  0  0  0  0  0  0  0  0
   35.5710   30.9440   34.9920 C   0  0  0  0  0  3  0  0  0  0  0  0
   40.4800   25.4070   34.9200 C   0  0  0  0  0  0  0  0  0  0  0  0
   39.6850   26.4190   34.3690 C   0  0  0  0  0  0  0  0  0  0  0  0
   38.4000   26.1820   33.9200 C   0  0  0  0  0  0  0  0  0  0  0  0
   37.9390   24.9010   34.0420 N   0  0  0  0  0  0  0  0  0  0  0  0
   38.7160   23.9380   34.5750 C   0  0  0  0  0  0  0  0  0  0  0  0
   39.9520   24.1770   35.0040 N   0  0  0  0  0  0  0  0  0  0  0  0
   41.4700   25.7010   35.2390 H   0  0  0  0  0  0  0  0  0  0  0  0
   40.0880   27.4200   34.2900 H   0  0  0  0  0  0  0  0  0  0  0  0
   38.4050   22.9120   34.6950 H   0  0  0  0  0  0  0  0  0  0  0  0
  1  2  1  0  0  0  0
  2  3  1  0  0  0  0
  3 25  1  0  0  0  0
  3  4  2  0  0  0  0
  4  9  1  0  0  0  0
  5  4  1  0  0  0  0
  5 11  1  0  0  0  0
  6  5  2  0  0  0  0
  7  6  1  0  0  0  0
  8  2  2  0  0  0  0
  8  6  1  0  0  0  0
 10  8  1  0  0  0  0
 11 12  2  0  0  0  0
 11 22  1  0  0  0  0
 12 14  1  0  0  0  0
 13 12  1  0  0  0  0
 14 15  2  0  0  0  0
 15 16  1  0  0  0  0
 16 17  2  0  0  0  0
 17 18  1  0  0  0  0
 19 17  1  0  0  0  0
 20 19  2  0  0  0  0
 21 15  1  0  0  0  0
 21 20  1  0  0  0  0
 22 21  2  0  0  0  0
 23 28  1  0  0  0  0
 23 29  1  0  0  0  0
 24 23  2  0  0  0  0
 25 26  2  0  0  0  0
 25 24  1  0  0  0  0
 26 27  1  0  0  0  0
 27 31  1  0  0  0  0
 27 28  2  0  0  0  0
 30 24  1  0  0  0  0
M  END
>  <minimizedAffinity>
-6.09110594

$$$$

 OpenBabel03262523453D

 31 34  0  0  0  0  0  0  0  0999 V2000
   35.1570   32.7190   32.5120 Cl  0  0  0  0  0  0  0  0  0  0  0  0
   35.6480   31.0390   32.4240 C   0  0  0  0  0  0  0  0  0  0  0  0
   35.5010   30.2000   33.5100 C   0  0  0  0  0  0  0  0  0  0  0  0
   35.9070   28.8970   33.3720 C   0  0  0  0  0  0  0  0  0  0  0  0
   36.4500   28.4160   32.1910 C   0  0  0  0  0  0  0  0  0  0  0  0
   36.5820   29.2930   31.1220 C   0  0  0  0  0  0  0  0  0  0  0  0
   37.2710   28.6340   29.6610 Cl  0  0  0  0  0  0  0  0  0  0  0  0
   36.1890   30.6020   31.2190 C   0  0  0  0  0  0  0  0  0  0  0  0
   35.7790   28.2620   34.2390 H   0  0  0  0  0  0  0  0  0  0  0  0
   36.2940   31.2690   30.3900 H   0  0  0  0  0  0  0  0  0  0  0  0
   36.8300   27.0070   32.2080 C   0  0  0  0  0  0  0  0  0  0  0  0
   38.0580   26.6270   32.7190 C   0  0  0  0  0  0  0  0  0  0  0  0
   38.7760   27.3290   33.1180 H   0  0  0  0  0  0  0  0  0  0  0  0
   38.4380   25.3010   32.7470 C   0  0  0  0  0  3  0  0  0  0  0  0
   37.6300   24.2960   32.2750 C   0  0  0  0  0  0  0  0  0  0  0  0
   37.9970   23.0030   32.2990 N   0  0  0  0  0  0  0  0  0  0  0  0
   37.1630   22.0620   31.8220 C   0  0  0  0  0  0  0  0  0  0  0  0
   37.5120   21.0260   31.8670 H   0  0  0  0  0  0  0  0  0  0  0  0
   35.9240   22.3390   31.2950 C   0  0  0  0  0  3  0  0  0  0  0  0
   35.5520   23.6690   31.2720 C   0  0  0  0  0  3  0  0  0  0  0  0
   36.3920   24.6660   31.7580 C   0  0  0  0  0  0  0  0  0  0  0  0
   36.0100   26.0080   31.7310 C   0  0  0  0  0  3  0  0  0  0  0  0
   35.1110   31.9910   36.8300 C   0  0  0  0  0  0  0  0  0  0  0  0
   35.6760   31.4440   35.6730 C   0  0  0  0  0  0  0  0  0  0  0  0
   34.9180   30.7780   34.7290 C   0  0  0  0  0  0  0  0  0  0  0  0
   33.5790   30.6780   34.9830 N   0  0  0  0  0  0  0  0  0  0  0  0
   33.0500   31.2090   36.1030 C   0  0  0  0  0  0  0  0  0  0  0  0
   33.7890   31.8490   37.0050 N   0  0  0  0  0  0  0  0  0  0  0  0
   35.7940   32.4920   37.5030 H   0  0  0  0  0  0  0  0  0  0  0  0
   36.7410   31.5450   35.5090 H   0  0  0  0  0  0  0  0  0  0  0  0
   32.0020   31.1600   36.3540 H   0  0  0  0  0  0  0  0  0  0  0  0
  2  1  1  0  0  0  0
  2  3  1  0  0  0  0
  3 25  1  0  0  0  0
  4  3  2  0  0  0  0
  4  9  1  0  0  0  0
  5 11  1  0  0  0  0
  5  4  1  0  0  0  0
  6  8  1  0  0  0  0
  6  5  2  0  0  0  0
  7  6  1  0  0  0  0
  8  2  2  0  0  0  0
 10  8  1  0  0  0  0
 11 12  1  0  0  0  0
 12 14  2  0  0  0  0
 12 13  1  0  0  0  0
 15 16  1  0  0  0  0
 15 14  1  0  0  0  0
 17 18  1  0  0  0  0
 17 16  2  0  0  0  0
 19 17  1  0  0  0  0
 20 19  2  0  0  0  0
 20 21  1  0  0  0  0
 21 15  2  0  0  0  0
 22 21  1  0  0  0  0
 22 11  2  0  0  0  0
 23 28  1  0  0  0  0
 23 29  1  0  0  0  0
 24 23  2  0  0  0  0
 25 26  2  0  0  0  0
 25 24  1  0  0  0  0
 26 27  1  0  0  0  0
 27 31  1  0  0  0  0
 27 28  2  0  0  0  0
 30 24  1  0  0  0  0
M  END
>  <minimizedAffinity>
-6.03159666

$$$$

 OpenBabel03262523453D

 31 34  0  0  0  0  0  0  0  0999 V2000
   33.9130   31.1200   32.5080 Cl  0  0  0  0  0  0  0  0  0  0  0  0
   35.0820   29.8870   32.9340 C   0  0  0  0  0  0  0  0  0  0  0  0
   35.4330   29.6680   34.2500 C   0  0  0  0  0  0  0  0  0  0  0  0
   36.3550   28.6860   34.5120 C   0  0  0  0  0  0  0  0  0  0  0  0
   36.9300   27.9270   33.5050 C   0  0  0  0  0  0  0  0  0  0  0  0
   36.5500   28.1800   32.1930 C   0  0  0  0  0  0  0  0  0  0  0  0
   37.3030   27.1950   30.9660 Cl  0  0  0  0  0  0  0  0  0  0  0  0
   35.6320   29.1510   31.8890 C   0  0  0  0  0  0  0  0  0  0  0  0
   36.6110   28.5370   35.5530 H   0  0  0  0  0  0  0  0  0  0  0  0
   35.3460   29.3370   30.8760 H   0  0  0  0  0  0  0  0  0  0  0  0
   37.8910   26.9250   33.9510 C   0  0  0  0  0  0  0  0  0  0  0  0
   37.4550   25.6710   34.3390 C   0  0  0  0  0  0  0  0  0  0  0  0
   36.4150   25.3770   34.3320 H   0  0  0  0  0  0  0  0  0  0  0  0
   38.3460   24.7070   34.7630 C   0  0  0  0  0  3  0  0  0  0  0  0
   39.7000   24.9340   34.8250 C   0  0  0  0  0  0  0  0  0  0  0  0
   40.5700   23.9980   35.2390 N   0  0  0  0  0  0  0  0  0  0  0  0
   41.8850   24.2780   35.2780 C   0  0  0  0  0  0  0  0  0  0  0  0
   42.5490   23.4800   35.6220 H   0  0  0  0  0  0  0  0  0  0  0  0
   42.4160   25.4930   34.9130 C   0  0  0  0  0  3  0  0  0  0  0  0
   41.5170   26.4510   34.4900 C   0  0  0  0  0  3  0  0  0  0  0  0
   40.1500   26.1920   34.4380 C   0  0  0  0  0  0  0  0  0  0  0  0
   39.2470   27.1660   34.0090 C   0  0  0  0  0  3  0  0  0  0  0  0
   34.8250   32.3170   36.8960 C   0  0  0  0  0  0  0  0  0  0  0  0
   35.4520   31.5200   35.9300 C   0  0  0  0  0  0  0  0  0  0  0  0
   34.7850   30.5100   35.2650 C   0  0  0  0  0  0  0  0  0  0  0  0
   33.4730   30.3240   35.5990 N   0  0  0  0  0  0  0  0  0  0  0  0
   32.8830   31.0990   36.5300 C   0  0  0  0  0  0  0  0  0  0  0  0
   33.5350   32.0690   37.1650 N   0  0  0  0  0  0  0  0  0  0  0  0
   35.4380   33.0790   37.3560 H   0  0  0  0  0  0  0  0  0  0  0  0
   36.4930   31.7000   35.6960 H   0  0  0  0  0  0  0  0  0  0  0  0
   31.8520   30.9960   36.8330 H   0  0  0  0  0  0  0  0  0  0  0  0
  1  2  1  0  0  0  0
  2  3  1  0  0  0  0
  3  4  2  0  0  0  0
  3 25  1  0  0  0  0
  4  9  1  0  0  0  0
  5 11  1  0  0  0  0
  5  4  1  0  0  0  0
  6  5  2  0  0  0  0
  7  6  1  0  0  0  0
  8  6  1  0  0  0  0
  8  2  2  0  0  0  0
 10  8  1  0  0  0  0
 11 22  2  0  0  0  0
 11 12  1  0  0  0  0
 12 14  2  0  0  0  0
 13 12  1  0  0  0  0
 14 15  1  0  0  0  0
 15 16  1  0  0  0  0
 16 17  2  0  0  0  0
 17 18  1  0  0  0  0
 19 17  1  0  0  0  0
 20 19  2  0  0  0  0
 21 20  1  0  0  0  0
 21 15  2  0  0  0  0
 22 21  1  0  0  0  0
 23 28  1  0  0  0  0
 23 29  1  0  0  0  0
 24 23  2  0  0  0  0
 25 26  2  0  0  0  0
 25 24  1  0  0  0  0
 26 27  1  0  0  0  0
 27 31  1  0  0  0  0
 27 28  2  0  0  0  0
 30 24  1  0  0  0  0
M  END
>  <minimizedAffinity>
-5.94827366

$$$$

 OpenBabel03262523453D

 31 34  0  0  0  0  0  0  0  0999 V2000
   34.2950   31.0420   32.3120 Cl  0  0  0  0  0  0  0  0  0  0  0  0
   35.4020   29.7850   32.8260 C   0  0  0  0  0  0  0  0  0  0  0  0
   35.5860   29.5070   34.1650 C   0  0  0  0  0  0  0  0  0  0  0  0
   36.4690   28.5110   34.4960 C   0  0  0  0  0  0  0  0  0  0  0  0
   37.1640   27.7920   33.5360 C   0  0  0  0  0  0  0  0  0  0  0  0
   36.9500   28.1040   32.1990 C   0  0  0  0  0  0  0  0  0  0  0  0
   37.8500   27.1680   31.0340 Cl  0  0  0  0  0  0  0  0  0  0  0  0
   36.0780   29.0920   31.8260 C   0  0  0  0  0  0  0  0  0  0  0  0
   36.5930   28.3150   35.5540 H   0  0  0  0  0  0  0  0  0  0  0  0
   35.9200   29.3230   30.7950 H   0  0  0  0  0  0  0  0  0  0  0  0
   38.0630   26.7660   34.0540 C   0  0  0  0  0  0  0  0  0  0  0  0
   39.3740   27.0830   34.3580 C   0  0  0  0  0  0  0  0  0  0  0  0
   39.7890   28.0730   34.2310 H   0  0  0  0  0  0  0  0  0  0  0  0
   40.2410   26.1290   34.8500 C   0  0  0  0  0  3  0  0  0  0  0  0
   39.8570   24.8280   35.0640 C   0  0  0  0  0  0  0  0  0  0  0  0
   40.6990   23.8970   35.5420 N   0  0  0  0  0  0  0  0  0  0  0  0
   40.2660   22.6370   35.7310 C   0  0  0  0  0  0  0  0  0  0  0  0
   40.9920   21.9200   36.1230 H   0  0  0  0  0  0  0  0  0  0  0  0
   38.9830   22.2250   35.4600 C   0  0  0  0  0  3  0  0  0  0  0  0
   38.1220   23.1860   34.9680 C   0  0  0  0  0  3  0  0  0  0  0  0
   38.5400   24.4970   34.7620 C   0  0  0  0  0  0  0  0  0  0  0  0
   37.6640   25.4640   34.2640 C   0  0  0  0  0  3  0  0  0  0  0  0
   32.7450   30.8780   36.2710 C   0  0  0  0  0  0  0  0  0  0  0  0
   33.4690   30.1100   35.3520 C   0  0  0  0  0  0  0  0  0  0  0  0
   34.8170   30.3080   35.1280 C   0  0  0  0  0  0  0  0  0  0  0  0
   35.4150   31.3000   35.8530 N   0  0  0  0  0  0  0  0  0  0  0  0
   34.7050   32.0310   36.7340 C   0  0  0  0  0  0  0  0  0  0  0  0
   33.4070   31.8320   36.9420 N   0  0  0  0  0  0  0  0  0  0  0  0
   31.6950   30.6400   36.3690 H   0  0  0  0  0  0  0  0  0  0  0  0
   32.9560   29.3340   34.7960 H   0  0  0  0  0  0  0  0  0  0  0  0
   35.1250   32.8250   37.3330 H   0  0  0  0  0  0  0  0  0  0  0  0
  1  2  1  0  0  0  0
  2  3  1  0  0  0  0
  3  4  2  0  0  0  0
  3 25  1  0  0  0  0
  4  9  1  0  0  0  0
  5 11  1  0  0  0  0
  5  4  1  0  0  0  0
  6  5  2  0  0  0  0
  7  6  1  0  0  0  0
  8  6  1  0  0  0  0
  8  2  2  0  0  0  0
 10  8  1  0  0  0  0
 11 22  2  0  0  0  0
 11 12  1  0  0  0  0
 12 14  2  0  0  0  0
 13 12  1  0  0  0  0
 14 15  1  0  0  0  0
 15 16  1  0  0  0  0
 16 17  2  0  0  0  0
 17 18  1  0  0  0  0
 19 17  1  0  0  0  0
 20 19  2  0  0  0  0
 21 20  1  0  0  0  0
 21 15  2  0  0  0  0
 22 21  1  0  0  0  0
 23 29  1  0  0  0  0
 23 28  1  0  0  0  0
 24 23  2  0  0  0  0
 25 24  1  0  0  0  0
 25 26  2  0  0  0  0
 26 27  1  0  0  0  0
 27 28  2  0  0  0  0
 27 31  1  0  0  0  0
 30 24  1  0  0  0  0
M  END
>  <minimizedAffinity>
-5.89862728

$$$$

 OpenBabel03262523453D

 31 34  0  0  0  0  0  0  0  0999 V2000
   35.5560   32.8100   32.6820 Cl  0  0  0  0  0  0  0  0  0  0  0  0
   35.7470   31.0790   32.4850 C   0  0  0  0  0  0  0  0  0  0  0  0
   35.3830   30.2070   33.4900 C   0  0  0  0  0  0  0  0  0  0  0  0
   35.5600   28.8650   33.2680 C   0  0  0  0  0  0  0  0  0  0  0  0
   36.0850   28.3760   32.0810 C   0  0  0  0  0  0  0  0  0  0  0  0
   36.4390   29.2890   31.0950 C   0  0  0  0  0  0  0  0  0  0  0  0
   37.0930   28.6200   29.6220 Cl  0  0  0  0  0  0  0  0  0  0  0  0
   36.2780   30.6370   31.2770 C   0  0  0  0  0  0  0  0  0  0  0  0
   35.2670   28.2040   34.0740 H   0  0  0  0  0  0  0  0  0  0  0  0
   36.5530   31.3300   30.5110 H   0  0  0  0  0  0  0  0  0  0  0  0
   36.2080   26.9250   32.0040 C   0  0  0  0  0  0  0  0  0  0  0  0
   35.3640   26.2010   31.1820 C   0  0  0  0  0  0  0  0  0  0  0  0
   34.5960   26.6570   30.5740 H   0  0  0  0  0  0  0  0  0  0  0  0
   35.4630   24.8280   31.0920 C   0  0  0  0  0  3  0  0  0  0  0  0
   36.3920   24.1100   31.8060 C   0  0  0  0  0  0  0  0  0  0  0  0
   36.4900   22.7730   31.7210 N   0  0  0  0  0  0  0  0  0  0  0  0
   37.4200   22.1230   32.4450 C   0  0  0  0  0  0  0  0  0  0  0  0
   37.4560   21.0360   32.3380 H   0  0  0  0  0  0  0  0  0  0  0  0
   38.3030   22.7530   33.2900 C   0  0  0  0  0  3  0  0  0  0  0  0
   38.1980   24.1270   33.3720 C   0  0  0  0  0  3  0  0  0  0  0  0
   37.2460   24.8280   32.6370 C   0  0  0  0  0  0  0  0  0  0  0  0
   37.1440   26.2170   32.7260 C   0  0  0  0  0  3  0  0  0  0  0  0
   32.9700   31.3600   36.1790 C   0  0  0  0  0  0  0  0  0  0  0  0
   33.4830   30.7990   35.0040 C   0  0  0  0  0  0  0  0  0  0  0  0
   34.8350   30.7940   34.7200 C   0  0  0  0  0  0  0  0  0  0  0  0
   35.6540   31.3690   35.6500 N   0  0  0  0  0  0  0  0  0  0  0  0
   35.1460   31.9050   36.7770 C   0  0  0  0  0  0  0  0  0  0  0  0
   33.8420   31.9050   37.0400 N   0  0  0  0  0  0  0  0  0  0  0  0
   31.8970   31.3120   36.3020 H   0  0  0  0  0  0  0  0  0  0  0  0
   32.7990   30.3540   34.2930 H   0  0  0  0  0  0  0  0  0  0  0  0
   35.7450   32.3720   37.5440 H   0  0  0  0  0  0  0  0  0  0  0  0
  2  1  1  0  0  0  0
  2  3  1  0  0  0  0
  3 25  1  0  0  0  0
  4  3  2  0  0  0  0
  4  9  1  0  0  0  0
  5  4  1  0  0  0  0
  6  8  1  0  0  0  0
  6  5  2  0  0  0  0
  7  6  1  0  0  0  0
  8  2  2  0  0  0  0
 10  8  1  0  0  0  0
 11  5  1  0  0  0  0
 11 22  1  0  0  0  0
 12 11  2  0  0  0  0
 13 12  1  0  0  0  0
 14 12  1  0  0  0  0
 14 15  2  0  0  0  0
 15 21  1  0  0  0  0
 16 15  1  0  0  0  0
 16 17  2  0  0  0  0
 17 19  1  0  0  0  0
 18 17  1  0  0  0  0
 19 20  2  0  0  0  0
 21 22  2  0  0  0  0
 21 20  1  0  0  0  0
 23 29  1  0  0  0  0
 23 28  1  0  0  0  0
 24 23  2  0  0  0  0
 25 24  1  0  0  0  0
 25 26  2  0  0  0  0
 26 27  1  0  0  0  0
 27 28  2  0  0  0  0
 27 31  1  0  0  0  0
 30 24  1  0  0  0  0
M  END
>  <minimizedAffinity>
-5.81334209

$$$$

 OpenBabel03262523453D

 31 34  0  0  0  0  0  0  0  0999 V2000
   38.7430   21.6890   30.3960 Cl  0  0  0  0  0  0  0  0  0  0  0  0
   38.2000   23.3160   30.7550 C   0  0  0  0  0  0  0  0  0  0  0  0
   37.1010   23.5350   31.5590 C   0  0  0  0  0  0  0  0  0  0  0  0
   36.7310   24.8350   31.7970 C   0  0  0  0  0  0  0  0  0  0  0  0
   37.4230   25.9090   31.2600 C   0  0  0  0  0  0  0  0  0  0  0  0
   38.5240   25.6450   30.4550 C   0  0  0  0  0  0  0  0  0  0  0  0
   39.3580   27.0330   29.8060 Cl  0  0  0  0  0  0  0  0  0  0  0  0
   38.9260   24.3620   30.1920 C   0  0  0  0  0  0  0  0  0  0  0  0
   35.8650   24.9760   32.4310 H   0  0  0  0  0  0  0  0  0  0  0  0
   39.7750   24.1690   29.5720 H   0  0  0  0  0  0  0  0  0  0  0  0
   36.9010   27.2250   31.6110 C   0  0  0  0  0  0  0  0  0  0  0  0
   36.6390   28.1540   30.6200 C   0  0  0  0  0  0  0  0  0  0  0  0
   36.8020   27.9600   29.5690 H   0  0  0  0  0  0  0  0  0  0  0  0
   36.1450   29.4040   30.9280 C   0  0  0  0  0  3  0  0  0  0  0  0
   35.8880   29.7940   32.2200 C   0  0  0  0  0  0  0  0  0  0  0  0
   35.4070   31.0110   32.5240 N   0  0  0  0  0  0  0  0  0  0  0  0
   35.1750   31.3370   33.8090 C   0  0  0  0  0  0  0  0  0  0  0  0
   34.7830   32.3400   33.9990 H   0  0  0  0  0  0  0  0  0  0  0  0
   35.4030   30.4850   34.8630 C   0  0  0  0  0  3  0  0  0  0  0  0
   35.8980   29.2360   34.5450 C   0  0  0  0  0  3  0  0  0  0  0  0
   36.1480   28.8680   33.2260 C   0  0  0  0  0  0  0  0  0  0  0  0
   36.6490   27.6040   32.9110 C   0  0  0  0  0  3  0  0  0  0  0  0
   34.7760   20.5600   31.9170 C   0  0  0  0  0  0  0  0  0  0  0  0
   35.4230   21.6870   31.3980 C   0  0  0  0  0  0  0  0  0  0  0  0
   36.4150   22.3510   32.0940 C   0  0  0  0  0  0  0  0  0  0  0  0
   36.7370   21.8490   33.3230 N   0  0  0  0  0  0  0  0  0  0  0  0
   36.1050   20.7620   33.8090 C   0  0  0  0  0  0  0  0  0  0  0  0
   35.1510   20.1310   33.1310 N   0  0  0  0  0  0  0  0  0  0  0  0
   34.0140   20.1170   31.2900 H   0  0  0  0  0  0  0  0  0  0  0  0
   35.1370   22.0540   30.4210 H   0  0  0  0  0  0  0  0  0  0  0  0
   36.3190   20.3230   34.7720 H   0  0  0  0  0  0  0  0  0  0  0  0
  1  2  1  0  0  0  0
  2  3  1  0  0  0  0
  3  4  2  0  0  0  0
  3 25  1  0  0  0  0
  4  9  1  0  0  0  0
  5 11  1  0  0  0  0
  5  4  1  0  0  0  0
  6  5  2  0  0  0  0
  7  6  1  0  0  0  0
  8  6  1  0  0  0  0
  8  2  2  0  0  0  0
 10  8  1  0  0  0  0
 11 22  1  0  0  0  0
 12 14  1  0  0  0  0
 12 11  2  0  0  0  0
 13 12  1  0  0  0  0
 14 15  2  0  0  0  0
 15 16  1  0  0  0  0
 15 21  1  0  0  0  0
 16 17  2  0  0  0  0
 17 18  1  0  0  0  0
 17 19  1  0  0  0  0
 20 19  2  0  0  0  0
 21 20  1  0  0  0  0
 22 21  2  0  0  0  0
 23 28  1  0  0  0  0
 24 23  2  0  0  0  0
 24 25  1  0  0  0  0
 25 26  2  0  0  0  0
 26 27  1  0  0  0  0
 27 31  1  0  0  0  0
 28 27  2  0  0  0  0
 29 23  1  0  0  0  0
 30 24  1  0  0  0  0
M  END
>  <minimizedAffinity>
-5.6852212

$$$$

 OpenBabel03262523453D

 31 34  0  0  0  0  0  0  0  0999 V2000
   38.6030   21.9010   34.5940 Cl  0  0  0  0  0  0  0  0  0  0  0  0
   38.1550   23.5130   34.0730 C   0  0  0  0  0  0  0  0  0  0  0  0
   37.4180   23.7070   32.9230 C   0  0  0  0  0  0  0  0  0  0  0  0
   37.1040   24.9960   32.5740 C   0  0  0  0  0  0  0  0  0  0  0  0
   37.5030   26.0840   33.3340 C   0  0  0  0  0  0  0  0  0  0  0  0
   38.2440   25.8450   34.4850 C   0  0  0  0  0  0  0  0  0  0  0  0
   38.7190   27.2500   35.4040 Cl  0  0  0  0  0  0  0  0  0  0  0  0
   38.5790   24.5730   34.8680 C   0  0  0  0  0  0  0  0  0  0  0  0
   36.5250   25.1180   31.6670 H   0  0  0  0  0  0  0  0  0  0  0  0
   39.1490   24.4000   35.7560 H   0  0  0  0  0  0  0  0  0  0  0  0
   37.0860   27.3860   32.8260 C   0  0  0  0  0  0  0  0  0  0  0  0
   36.2480   28.1890   33.5790 C   0  0  0  0  0  0  0  0  0  0  0  0
   35.8710   27.9030   34.5500 H   0  0  0  0  0  0  0  0  0  0  0  0
   35.8430   29.4240   33.1190 C   0  0  0  0  0  3  0  0  0  0  0  0
   36.2420   29.9220   31.9020 C   0  0  0  0  0  0  0  0  0  0  0  0
   35.8480   31.1250   31.4510 N   0  0  0  0  0  0  0  0  0  0  0  0
   36.2710   31.5600   30.2500 C   0  0  0  0  0  0  0  0  0  0  0  0
   35.9210   32.5460   29.9320 H   0  0  0  0  0  0  0  0  0  0  0  0
   37.1040   30.8380   29.4290 C   0  0  0  0  0  3  0  0  0  0  0  0
   37.5060   29.6020   29.8980 C   0  0  0  0  0  3  0  0  0  0  0  0
   37.0850   29.1240   31.1350 C   0  0  0  0  0  0  0  0  0  0  0  0
   37.4940   27.8740   31.6030 C   0  0  0  0  0  3  0  0  0  0  0  0
   35.4270   20.7800   31.5610 C   0  0  0  0  0  0  0  0  0  0  0  0
   35.7860   21.9210   32.2870 C   0  0  0  0  0  0  0  0  0  0  0  0
   37.0300   22.5090   32.1650 C   0  0  0  0  0  0  0  0  0  0  0  0
   37.9010   21.9170   31.2940 N   0  0  0  0  0  0  0  0  0  0  0  0
   37.5400   20.8180   30.6020 C   0  0  0  0  0  0  0  0  0  0  0  0
   36.3390   20.2600   30.7270 N   0  0  0  0  0  0  0  0  0  0  0  0
   34.4290   20.4010   31.7320 H   0  0  0  0  0  0  0  0  0  0  0  0
   35.0670   22.3590   32.9680 H   0  0  0  0  0  0  0  0  0  0  0  0
   38.1850   20.3100   29.9020 H   0  0  0  0  0  0  0  0  0  0  0  0
  2  1  1  0  0  0  0
  2  8  1  0  0  0  0
  3  2  2  0  0  0  0
  4  3  1  0  0  0  0
  4  5  2  0  0  0  0
  5  6  1  0  0  0  0
  6  8  2  0  0  0  0
  6  7  1  0  0  0  0
  8 10  1  0  0  0  0
  9  4  1  0  0  0  0
 11  5  1  0  0  0  0
 11 12  1  0  0  0  0
 12 13  1  0  0  0  0
 14 12  2  0  0  0  0
 15 14  1  0  0  0  0
 16 15  1  0  0  0  0
 17 16  2  0  0  0  0
 18 17  1  0  0  0  0
 19 20  2  0  0  0  0
 19 17  1  0  0  0  0
 20 21  1  0  0  0  0
 21 22  1  0  0  0  0
 21 15  2  0  0  0  0
 22 11  2  0  0  0  0
 23 29  1  0  0  0  0
 23 24  1  0  0  0  0
 24 30  1  0  0  0  0
 25 24  2  0  0  0  0
 25  3  1  0  0  0  0
 26 25  1  0  0  0  0
 27 28  1  0  0  0  0
 27 26  2  0  0  0  0
 28 23  2  0  0  0  0
 31 27  1  0  0  0  0
M  END
>  <minimizedAffinity>
-5.67231035

$$$$
