
 OpenBabel03272510223D

 39 43  0  0  0  0  0  0  0  0999 V2000
   36.2540   26.8890   32.0780 C   0  0  0  0  0  0  0  0  0  0  0  0
   35.5840   26.1370   31.1400 C   0  0  0  0  0  0  0  0  0  0  0  0
   35.7390   24.7620   31.0190 C   0  0  0  0  0  0  0  0  0  0  0  0
   36.5780   24.1210   31.8510 N   0  0  0  0  0  0  0  0  0  0  0  0
   37.2310   24.8460   32.7660 C   0  0  0  0  0  0  0  0  0  0  0  0
   37.0690   26.1650   32.8650 N   0  0  0  0  0  0  0  0  0  0  0  0
   34.8970   26.6670   30.4600 H   0  0  0  0  0  0  0  0  0  0  0  0
   35.1550   24.2810   30.2370 H   0  0  0  0  0  0  0  0  0  0  0  0
   38.1460   24.1680   33.6770 C   0  0  0  0  0  0  0  0  0  0  0  0
   39.2170   23.4270   33.1850 C   0  0  0  0  0  0  0  0  0  0  0  0
   39.3460   23.3710   32.1100 H   0  0  0  0  0  0  0  0  0  0  0  0
   40.1270   22.7570   33.9530 C   0  0  0  0  0  3  0  0  0  0  0  0
   39.9650   22.8270   35.3210 C   0  0  0  0  0  0  0  0  0  0  0  0
   40.8490   22.1760   36.1000 N   0  0  0  0  0  0  0  0  0  0  0  0
   40.7770   22.1830   37.4460 C   0  0  0  0  0  0  0  0  0  0  0  0
   41.4960   21.6540   38.0340 H   0  0  0  0  0  0  0  0  0  0  0  0
   39.7360   22.9000   38.0230 C   0  0  0  0  0  3  0  0  0  0  0  0
   38.7980   23.5890   37.2560 C   0  0  0  0  0  3  0  0  0  0  0  0
   38.9210   23.5480   35.8810 C   0  0  0  0  0  0  0  0  0  0  0  0
   38.0350   24.2020   35.0370 C   0  0  0  0  0  3  0  0  0  0  0  0
   35.7860   32.9850   32.6140 Br  0  0  0  0  0  0  0  0  0  0  0  0
   35.9130   31.0880   32.4860 C   0  0  0  0  0  0  0  0  0  0  0  0
   35.4610   30.2710   33.5290 C   0  0  0  0  0  0  0  0  0  0  0  0
   35.5800   28.9160   33.3800 C   0  0  0  0  0  0  0  0  0  0  0  0
   36.1250   28.3260   32.2430 C   0  0  0  0  0  0  0  0  0  0  0  0
   36.5570   29.1430   31.2420 C   0  0  0  0  0  0  0  0  0  0  0  0
   36.4460   30.5070   31.3770 C   0  0  0  0  0  0  0  0  0  0  0  0
   35.2490   28.2210   34.1500 H   0  0  0  0  0  0  0  0  0  0  0  0
   36.9970   28.7970   30.3160 H   0  0  0  0  0  0  0  0  0  0  0  0
   36.7890   31.1750   30.5820 H   0  0  0  0  0  0  0  0  0  0  0  0
   32.9530   31.3660   35.9380 C   0  0  0  0  0  0  0  0  0  0  0  0
   33.7280   31.9440   36.9880 C   0  0  0  0  0  0  0  0  0  0  0  0
   35.1000   31.9400   36.8370 C   0  0  0  0  0  0  0  0  0  0  0  0
   35.6550   31.3940   35.7090 N   0  0  0  0  0  0  0  0  0  0  0  0
   34.8860   30.8520   34.7290 C   0  0  0  0  0  0  0  0  0  0  0  0
   33.5380   30.8470   34.8580 N   0  0  0  0  0  0  0  0  0  0  0  0
   31.8700   31.3890   36.0960 H   0  0  0  0  0  0  0  0  0  0  0  0
   33.3500   32.3780   37.8790 H   0  0  0  0  0  0  0  0  0  0  0  0
   35.7950   32.3390   37.5450 H   0  0  0  0  0  0  0  0  0  0  0  0
  1 25  1  0  0  0  0
  1  6  1  0  0  0  0
  2  1  2  0  0  0  0
  3  2  1  0  0  0  0
  3  4  2  0  0  0  0
  4  5  1  0  0  0  0
  5  6  2  0  0  0  0
  5  9  1  0  0  0  0
  7  2  1  0  0  0  0
  8  3  1  0  0  0  0
  9 20  1  0  0  0  0
 10  9  2  0  0  0  0
 10 12  1  0  0  0  0
 11 10  1  0  0  0  0
 12 13  2  0  0  0  0
 13 19  1  0  0  0  0
 13 14  1  0  0  0  0
 14 15  2  0  0  0  0
 15 17  1  0  0  0  0
 15 16  1  0  0  0  0
 18 17  2  0  0  0  0
 19 18  1  0  0  0  0
 20 19  2  0  0  0  0
 22 21  1  0  0  0  0
 22 23  1  0  0  0  0
 23 35  1  0  0  0  0
 24 23  2  0  0  0  0
 24 28  1  0  0  0  0
 25 24  1  0  0  0  0
 26 27  1  0  0  0  0
 26 25  2  0  0  0  0
 27 22  2  0  0  0  0
 29 26  1  0  0  0  0
 30 27  1  0  0  0  0
 31 37  1  0  0  0  0
 31 32  1  0  0  0  0
 32 38  1  0  0  0  0
 33 32  2  0  0  0  0
 33 39  1  0  0  0  0
 34 33  1  0  0  0  0
 35 36  1  0  0  0  0
 35 34  2  0  0  0  0
 36 31  2  0  0  0  0
M  END
>  <minimizedAffinity>
-7.00455952

$$$$

 OpenBabel03272510223D

 39 43  0  0  0  0  0  0  0  0999 V2000
   37.6690   26.6170   33.9370 C   0  0  0  0  0  0  0  0  0  0  0  0
   38.7040   26.5580   34.8420 C   0  0  0  0  0  0  0  0  0  0  0  0
   39.3770   25.3830   35.1490 C   0  0  0  0  0  0  0  0  0  0  0  0
   39.0140   24.2410   34.5400 N   0  0  0  0  0  0  0  0  0  0  0  0
   38.0100   24.2920   33.6590 C   0  0  0  0  0  0  0  0  0  0  0  0
   37.3760   25.4300   33.3780 N   0  0  0  0  0  0  0  0  0  0  0  0
   38.9980   27.4980   35.3390 H   0  0  0  0  0  0  0  0  0  0  0  0
   40.1770   25.4670   35.8830 H   0  0  0  0  0  0  0  0  0  0  0  0
   37.6010   23.0620   32.9880 C   0  0  0  0  0  0  0  0  0  0  0  0
   37.9700   22.8180   31.6690 C   0  0  0  0  0  0  0  0  0  0  0  0
   38.5650   23.5670   31.1600 H   0  0  0  0  0  0  0  0  0  0  0  0
   37.6380   21.7020   30.9550 C   0  0  0  0  0  3  0  0  0  0  0  0
   36.8800   20.7470   31.6000 C   0  0  0  0  0  0  0  0  0  0  0  0
   36.5400   19.6370   30.9190 N   0  0  0  0  0  0  0  0  0  0  0  0
   35.8030   18.6470   31.4600 C   0  0  0  0  0  0  0  0  0  0  0  0
   35.5510   17.7790   30.8890 H   0  0  0  0  0  0  0  0  0  0  0  0
   35.3910   18.8090   32.7770 C   0  0  0  0  0  3  0  0  0  0  0  0
   35.7190   19.9410   33.5210 C   0  0  0  0  0  3  0  0  0  0  0  0
   36.4770   20.9230   32.9160 C   0  0  0  0  0  0  0  0  0  0  0  0
   36.8520   22.0850   33.5770 C   0  0  0  0  0  3  0  0  0  0  0  0
   34.6200   31.6770   32.2690 Br  0  0  0  0  0  0  0  0  0  0  0  0
   35.5550   30.1130   32.8280 C   0  0  0  0  0  0  0  0  0  0  0  0
   35.5730   29.7360   34.1760 C   0  0  0  0  0  0  0  0  0  0  0  0
   36.2630   28.6040   34.5160 C   0  0  0  0  0  0  0  0  0  0  0  0
   36.9360   27.8200   33.5830 C   0  0  0  0  0  0  0  0  0  0  0  0
   36.9030   28.2080   32.2780 C   0  0  0  0  0  0  0  0  0  0  0  0
   36.2160   29.3450   31.9190 C   0  0  0  0  0  0  0  0  0  0  0  0
   36.3200   28.2510   35.5450 H   0  0  0  0  0  0  0  0  0  0  0  0
   37.3890   27.6790   31.4690 H   0  0  0  0  0  0  0  0  0  0  0  0
   36.1800   29.6680   30.8750 H   0  0  0  0  0  0  0  0  0  0  0  0
   35.0210   32.1830   36.8220 C   0  0  0  0  0  0  0  0  0  0  0  0
   33.6250   32.0690   37.0960 C   0  0  0  0  0  0  0  0  0  0  0  0
   32.9080   31.1490   36.3580 C   0  0  0  0  0  0  0  0  0  0  0  0
   33.5500   30.3940   35.4100 N   0  0  0  0  0  0  0  0  0  0  0  0
   34.8810   30.5290   35.1760 C   0  0  0  0  0  0  0  0  0  0  0  0
   35.6020   31.4270   35.8900 N   0  0  0  0  0  0  0  0  0  0  0  0
   35.5520   32.9230   37.4290 H   0  0  0  0  0  0  0  0  0  0  0  0
   33.0800   32.6270   37.8150 H   0  0  0  0  0  0  0  0  0  0  0  0
   31.8600   30.9630   36.4600 H   0  0  0  0  0  0  0  0  0  0  0  0
  1  2  1  0  0  0  0
  2  3  2  0  0  0  0
  2  7  1  0  0  0  0
  3  8  1  0  0  0  0
  4  3  1  0  0  0  0
  5  4  2  0  0  0  0
  6  5  1  0  0  0  0
  6  1  2  0  0  0  0
  9 20  1  0  0  0  0
  9  5  1  0  0  0  0
 10  9  2  0  0  0  0
 11 10  1  0  0  0  0
 12 13  2  0  0  0  0
 12 10  1  0  0  0  0
 13 19  1  0  0  0  0
 14 15  2  0  0  0  0
 14 13  1  0  0  0  0
 15 17  1  0  0  0  0
 16 15  1  0  0  0  0
 17 18  2  0  0  0  0
 19 18  1  0  0  0  0
 19 20  2  0  0  0  0
 21 22  1  0  0  0  0
 22 23  1  0  0  0  0
 23 24  2  0  0  0  0
 23 35  1  0  0  0  0
 24 28  1  0  0  0  0
 25  1  1  0  0  0  0
 25 24  1  0  0  0  0
 26 25  2  0  0  0  0
 27 26  1  0  0  0  0
 27 22  2  0  0  0  0
 29 26  1  0  0  0  0
 30 27  1  0  0  0  0
 31 32  1  0  0  0  0
 31 37  1  0  0  0  0
 32 38  1  0  0  0  0
 33 39  1  0  0  0  0
 33 32  2  0  0  0  0
 34 33  1  0  0  0  0
 35 34  2  0  0  0  0
 35 36  1  0  0  0  0
 36 31  2  0  0  0  0
M  END
>  <minimizedAffinity>
-6.85420752

$$$$

 OpenBabel03272510223D

 39 43  0  0  0  0  0  0  0  0999 V2000
   36.4310   26.8400   31.6370 C   0  0  0  0  0  0  0  0  0  0  0  0
   36.8490   27.5250   30.5200 C   0  0  0  0  0  0  0  0  0  0  0  0
   36.6360   28.8850   30.3400 C   0  0  0  0  0  0  0  0  0  0  0  0
   35.9930   29.5800   31.2960 N   0  0  0  0  0  0  0  0  0  0  0  0
   35.5850   28.9200   32.3850 C   0  0  0  0  0  0  0  0  0  0  0  0
   35.7990   27.6130   32.5380 N   0  0  0  0  0  0  0  0  0  0  0  0
   37.3750   26.9510   29.7400 H   0  0  0  0  0  0  0  0  0  0  0  0
   37.0130   29.3110   29.4130 H   0  0  0  0  0  0  0  0  0  0  0  0
   34.8860   29.6570   33.4320 C   0  0  0  0  0  0  0  0  0  0  0  0
   33.5020   29.5790   33.5500 C   0  0  0  0  0  0  0  0  0  0  0  0
   32.9650   28.9570   32.8430 H   0  0  0  0  0  0  0  0  0  0  0  0
   32.7560   30.2280   34.4920 C   0  0  0  0  0  3  0  0  0  0  0  0
   33.4370   31.0200   35.3940 C   0  0  0  0  0  0  0  0  0  0  0  0
   32.7250   31.6710   36.3330 N   0  0  0  0  0  0  0  0  0  0  0  0
   33.2970   32.4670   37.2580 C   0  0  0  0  0  0  0  0  0  0  0  0
   32.7000   32.9690   37.9890 H   0  0  0  0  0  0  0  0  0  0  0  0
   34.6790   32.6030   37.2130 C   0  0  0  0  0  3  0  0  0  0  0  0
   35.4560   31.9490   36.2590 C   0  0  0  0  0  3  0  0  0  0  0  0
   34.8170   31.1450   35.3360 C   0  0  0  0  0  0  0  0  0  0  0  0
   35.5070   30.4540   34.3490 C   0  0  0  0  0  3  0  0  0  0  0  0
   37.1540   20.8040   32.4900 Br  0  0  0  0  0  0  0  0  0  0  0  0
   36.9580   22.6860   32.2570 C   0  0  0  0  0  0  0  0  0  0  0  0
   37.6690   23.5820   33.0630 C   0  0  0  0  0  0  0  0  0  0  0  0
   37.4850   24.9210   32.8490 C   0  0  0  0  0  0  0  0  0  0  0  0
   36.6300   25.4200   31.8700 C   0  0  0  0  0  0  0  0  0  0  0  0
   35.9500   24.5270   31.0990 C   0  0  0  0  0  0  0  0  0  0  0  0
   36.1220   23.1770   31.3020 C   0  0  0  0  0  0  0  0  0  0  0  0
   38.0050   25.6750   33.4380 H   0  0  0  0  0  0  0  0  0  0  0  0
   35.2600   24.7980   30.3100 H   0  0  0  0  0  0  0  0  0  0  0  0
   35.5830   22.4490   30.6900 H   0  0  0  0  0  0  0  0  0  0  0  0
   38.8730   22.5400   36.3430 C   0  0  0  0  0  0  0  0  0  0  0  0
   40.2330   22.1820   36.1010 C   0  0  0  0  0  0  0  0  0  0  0  0
   40.7010   22.3090   34.8090 C   0  0  0  0  0  0  0  0  0  0  0  0
   39.8590   22.7660   33.8270 N   0  0  0  0  0  0  0  0  0  0  0  0
   38.5700   23.0970   34.0930 C   0  0  0  0  0  0  0  0  0  0  0  0
   38.0920   22.9800   35.3560 N   0  0  0  0  0  0  0  0  0  0  0  0
   38.5420   22.4250   37.3800 H   0  0  0  0  0  0  0  0  0  0  0  0
   40.9240   21.8250   36.8220 H   0  0  0  0  0  0  0  0  0  0  0  0
   41.6940   22.0770   34.4910 H   0  0  0  0  0  0  0  0  0  0  0  0
  1 25  1  0  0  0  0
  1  6  1  0  0  0  0
  2  1  2  0  0  0  0
  3  2  1  0  0  0  0
  3  4  2  0  0  0  0
  4  5  1  0  0  0  0
  5  6  2  0  0  0  0
  5  9  1  0  0  0  0
  7  2  1  0  0  0  0
  8  3  1  0  0  0  0
  9 10  2  0  0  0  0
  9 20  1  0  0  0  0
 10 12  1  0  0  0  0
 11 10  1  0  0  0  0
 12 13  2  0  0  0  0
 13 14  1  0  0  0  0
 14 15  2  0  0  0  0
 15 16  1  0  0  0  0
 17 15  1  0  0  0  0
 18 17  2  0  0  0  0
 19 13  1  0  0  0  0
 19 18  1  0  0  0  0
 20 19  2  0  0  0  0
 22 21  1  0  0  0  0
 22 23  1  0  0  0  0
 23 35  1  0  0  0  0
 24 23  2  0  0  0  0
 24 28  1  0  0  0  0
 25 24  1  0  0  0  0
 26 27  1  0  0  0  0
 26 25  2  0  0  0  0
 27 22  2  0  0  0  0
 29 26  1  0  0  0  0
 30 27  1  0  0  0  0
 31 37  1  0  0  0  0
 32 31  1  0  0  0  0
 32 38  1  0  0  0  0
 33 32  2  0  0  0  0
 34 35  2  0  0  0  0
 34 33  1  0  0  0  0
 35 36  1  0  0  0  0
 36 31  2  0  0  0  0
 39 33  1  0  0  0  0
M  END
>  <minimizedAffinity>
-6.78060293

$$$$

 OpenBabel03272510223D

 39 43  0  0  0  0  0  0  0  0999 V2000
   37.2000   28.2200   32.1570 C   0  0  0  0  0  0  0  0  0  0  0  0
   37.9820   28.0810   31.0330 C   0  0  0  0  0  0  0  0  0  0  0  0
   39.0070   27.1500   30.9330 C   0  0  0  0  0  0  0  0  0  0  0  0
   39.2600   26.3370   31.9740 N   0  0  0  0  0  0  0  0  0  0  0  0
   38.5030   26.4670   33.0690 C   0  0  0  0  0  0  0  0  0  0  0  0
   37.5230   27.3670   33.1450 N   0  0  0  0  0  0  0  0  0  0  0  0
   37.7710   28.7490   30.1820 H   0  0  0  0  0  0  0  0  0  0  0  0
   39.5540   27.1400   29.9920 H   0  0  0  0  0  0  0  0  0  0  0  0
   38.7620   25.5940   34.2080 C   0  0  0  0  0  0  0  0  0  0  0  0
   37.8200   25.4530   35.2220 C   0  0  0  0  0  0  0  0  0  0  0  0
   36.8940   26.0100   35.1370 H   0  0  0  0  0  0  0  0  0  0  0  0
   37.9670   24.6640   36.3270 C   0  0  0  0  0  3  0  0  0  0  0  0
   39.1450   23.9540   36.4380 C   0  0  0  0  0  0  0  0  0  0  0  0
   39.3150   23.1680   37.5180 N   0  0  0  0  0  0  0  0  0  0  0  0
   40.4280   22.4360   37.7170 C   0  0  0  0  0  0  0  0  0  0  0  0
   40.5300   21.8230   38.5870 H   0  0  0  0  0  0  0  0  0  0  0  0
   41.4240   22.5170   36.7520 C   0  0  0  0  0  3  0  0  0  0  0  0
   41.2920   23.3170   35.6180 C   0  0  0  0  0  3  0  0  0  0  0  0
   40.1290   24.0460   35.4650 C   0  0  0  0  0  0  0  0  0  0  0  0
   39.9080   24.8690   34.3700 C   0  0  0  0  0  3  0  0  0  0  0  0
   32.6410   32.3020   32.6230 Br  0  0  0  0  0  0  0  0  0  0  0  0
   34.0520   31.0260   32.5210 C   0  0  0  0  0  0  0  0  0  0  0  0
   34.4680   30.3290   33.6610 C   0  0  0  0  0  0  0  0  0  0  0  0
   35.4870   29.4260   33.5240 C   0  0  0  0  0  0  0  0  0  0  0  0
   36.1180   29.1760   32.3090 C   0  0  0  0  0  0  0  0  0  0  0  0
   35.6950   29.8680   31.2140 C   0  0  0  0  0  0  0  0  0  0  0  0
   34.6720   30.7800   31.3340 C   0  0  0  0  0  0  0  0  0  0  0  0
   35.8620   28.8490   34.3680 H   0  0  0  0  0  0  0  0  0  0  0  0
   36.1110   29.7570   30.2210 H   0  0  0  0  0  0  0  0  0  0  0  0
   34.3220   31.3420   30.4640 H   0  0  0  0  0  0  0  0  0  0  0  0
   33.8320   31.7570   36.9550 C   0  0  0  0  0  0  0  0  0  0  0  0
   32.6720   31.0580   37.4040 C   0  0  0  0  0  0  0  0  0  0  0  0
   32.1370   30.1100   36.5550 C   0  0  0  0  0  0  0  0  0  0  0  0
   32.7280   29.8790   35.3400 N   0  0  0  0  0  0  0  0  0  0  0  0
   33.8320   30.5640   34.9450 C   0  0  0  0  0  0  0  0  0  0  0  0
   34.3730   31.4980   35.7640 N   0  0  0  0  0  0  0  0  0  0  0  0
   34.2250   32.4990   37.6570 H   0  0  0  0  0  0  0  0  0  0  0  0
   32.1760   31.1970   38.3310 H   0  0  0  0  0  0  0  0  0  0  0  0
   31.2730   29.5170   36.7660 H   0  0  0  0  0  0  0  0  0  0  0  0
  1 25  1  0  0  0  0
  1  6  1  0  0  0  0
  2  1  2  0  0  0  0
  3  2  1  0  0  0  0
  3  4  2  0  0  0  0
  4  5  1  0  0  0  0
  5  6  2  0  0  0  0
  5  9  1  0  0  0  0
  7  2  1  0  0  0  0
  8  3  1  0  0  0  0
  9 20  2  0  0  0  0
  9 10  1  0  0  0  0
 10 12  2  0  0  0  0
 11 10  1  0  0  0  0
 12 13  1  0  0  0  0
 13 14  1  0  0  0  0
 14 15  2  0  0  0  0
 15 16  1  0  0  0  0
 17 15  1  0  0  0  0
 18 17  2  0  0  0  0
 19 18  1  0  0  0  0
 19 13  2  0  0  0  0
 20 19  1  0  0  0  0
 22 21  1  0  0  0  0
 22 23  1  0  0  0  0
 23 35  1  0  0  0  0
 24 23  2  0  0  0  0
 24 28  1  0  0  0  0
 25 24  1  0  0  0  0
 26 27  1  0  0  0  0
 26 25  2  0  0  0  0
 27 22  2  0  0  0  0
 29 26  1  0  0  0  0
 30 27  1  0  0  0  0
 31 32  1  0  0  0  0
 31 37  1  0  0  0  0
 32 38  1  0  0  0  0
 33 39  1  0  0  0  0
 33 32  2  0  0  0  0
 34 33  1  0  0  0  0
 35 34  2  0  0  0  0
 35 36  1  0  0  0  0
 36 31  2  0  0  0  0
M  END
>  <minimizedAffinity>
-6.70603418

$$$$

 OpenBabel03272510223D

 39 43  0  0  0  0  0  0  0  0999 V2000
   35.9480   29.1110   33.7530 C   0  0  0  0  0  0  0  0  0  0  0  0
   35.8890   28.9760   32.3850 C   0  0  0  0  0  0  0  0  0  0  0  0
   36.4610   27.9100   31.7030 C   0  0  0  0  0  0  0  0  0  0  0  0
   37.1040   26.9550   32.3980 N   0  0  0  0  0  0  0  0  0  0  0  0
   37.1640   27.0810   33.7280 C   0  0  0  0  0  0  0  0  0  0  0  0
   36.6090   28.1120   34.3640 N   0  0  0  0  0  0  0  0  0  0  0  0
   35.3600   29.7610   31.8190 H   0  0  0  0  0  0  0  0  0  0  0  0
   36.3470   27.9170   30.6210 H   0  0  0  0  0  0  0  0  0  0  0  0
   37.8590   26.0560   34.4990 C   0  0  0  0  0  0  0  0  0  0  0  0
   38.8730   25.3000   33.9210 C   0  0  0  0  0  0  0  0  0  0  0  0
   39.1270   25.4950   32.8860 H   0  0  0  0  0  0  0  0  0  0  0  0
   39.5820   24.3190   34.5560 C   0  0  0  0  0  3  0  0  0  0  0  0
   39.2600   24.0670   35.8740 C   0  0  0  0  0  0  0  0  0  0  0  0
   39.9440   23.1060   36.5230 N   0  0  0  0  0  0  0  0  0  0  0  0
   39.7050   22.7860   37.8100 C   0  0  0  0  0  0  0  0  0  0  0  0
   40.2680   22.0170   38.2940 H   0  0  0  0  0  0  0  0  0  0  0  0
   38.7060   23.4940   38.4670 C   0  0  0  0  0  3  0  0  0  0  0  0
   37.9730   24.4960   37.8350 C   0  0  0  0  0  3  0  0  0  0  0  0
   38.2600   24.7830   36.5150 C   0  0  0  0  0  0  0  0  0  0  0  0
   37.5830   25.7640   35.8040 C   0  0  0  0  0  3  0  0  0  0  0  0
   33.6340   33.7330   37.0630 Br  0  0  0  0  0  0  0  0  0  0  0  0
   34.3180   32.3000   36.0100 C   0  0  0  0  0  0  0  0  0  0  0  0
   33.5960   31.8120   34.9140 C   0  0  0  0  0  0  0  0  0  0  0  0
   34.1380   30.7810   34.1970 C   0  0  0  0  0  0  0  0  0  0  0  0
   35.3660   30.2060   34.5100 C   0  0  0  0  0  0  0  0  0  0  0  0
   36.0490   30.6980   35.5810 C   0  0  0  0  0  0  0  0  0  0  0  0
   35.5180   31.7340   36.3140 C   0  0  0  0  0  0  0  0  0  0  0  0
   33.6330   30.3520   33.3320 H   0  0  0  0  0  0  0  0  0  0  0  0
   37.0100   30.3300   35.9180 H   0  0  0  0  0  0  0  0  0  0  0  0
   36.0550   32.1390   37.1760 H   0  0  0  0  0  0  0  0  0  0  0  0
   31.1510   34.0110   33.3400 C   0  0  0  0  0  0  0  0  0  0  0  0
   29.9020   33.5340   33.8390 C   0  0  0  0  0  0  0  0  0  0  0  0
   29.9360   32.4620   34.7080 C   0  0  0  0  0  0  0  0  0  0  0  0
   31.1420   31.9080   35.0520 N   0  0  0  0  0  0  0  0  0  0  0  0
   32.3120   32.3890   34.5570 C   0  0  0  0  0  0  0  0  0  0  0  0
   32.3000   33.4400   33.7030 N   0  0  0  0  0  0  0  0  0  0  0  0
   31.0800   34.8610   32.6540 H   0  0  0  0  0  0  0  0  0  0  0  0
   28.9440   33.9240   33.6050 H   0  0  0  0  0  0  0  0  0  0  0  0
   29.0780   32.0070   35.1540 H   0  0  0  0  0  0  0  0  0  0  0  0
  1  6  1  0  0  0  0
  1 25  1  0  0  0  0
  2  1  2  0  0  0  0
  3  2  1  0  0  0  0
  3  4  2  0  0  0  0
  4  5  1  0  0  0  0
  5  6  2  0  0  0  0
  5  9  1  0  0  0  0
  7  2  1  0  0  0  0
  8  3  1  0  0  0  0
  9 20  1  0  0  0  0
 10  9  2  0  0  0  0
 10 12  1  0  0  0  0
 11 10  1  0  0  0  0
 12 13  2  0  0  0  0
 13 19  1  0  0  0  0
 13 14  1  0  0  0  0
 14 15  2  0  0  0  0
 15 16  1  0  0  0  0
 15 17  1  0  0  0  0
 18 17  2  0  0  0  0
 19 18  1  0  0  0  0
 20 19  2  0  0  0  0
 22 27  1  0  0  0  0
 22 21  1  0  0  0  0
 23 22  2  0  0  0  0
 24 25  2  0  0  0  0
 24 23  1  0  0  0  0
 25 26  1  0  0  0  0
 26 29  1  0  0  0  0
 26 27  2  0  0  0  0
 27 30  1  0  0  0  0
 28 24  1  0  0  0  0
 31 36  2  0  0  0  0
 31 32  1  0  0  0  0
 32 33  2  0  0  0  0
 33 34  1  0  0  0  0
 33 39  1  0  0  0  0
 35 23  1  0  0  0  0
 35 34  2  0  0  0  0
 36 35  1  0  0  0  0
 37 31  1  0  0  0  0
 38 32  1  0  0  0  0
M  END
>  <minimizedAffinity>
-6.67284632

$$$$

 OpenBabel03272510223D

 39 43  0  0  0  0  0  0  0  0999 V2000
   37.6620   26.8960   33.9460 C   0  0  0  0  0  0  0  0  0  0  0  0
   37.8310   27.0680   32.5910 C   0  0  0  0  0  0  0  0  0  0  0  0
   37.1860   28.0620   31.8670 C   0  0  0  0  0  0  0  0  0  0  0  0
   36.3550   28.9050   32.5060 N   0  0  0  0  0  0  0  0  0  0  0  0
   36.1880   28.7430   33.8220 C   0  0  0  0  0  0  0  0  0  0  0  0
   36.8160   27.7820   34.4990 N   0  0  0  0  0  0  0  0  0  0  0  0
   38.5130   26.3750   32.0720 H   0  0  0  0  0  0  0  0  0  0  0  0
   37.4010   28.0940   30.8010 H   0  0  0  0  0  0  0  0  0  0  0  0
   35.2890   29.6470   34.5320 C   0  0  0  0  0  0  0  0  0  0  0  0
   33.9130   29.4470   34.5010 C   0  0  0  0  0  0  0  0  0  0  0  0
   33.5330   28.6050   33.9350 H   0  0  0  0  0  0  0  0  0  0  0  0
   32.9910   30.2350   35.1300 C   0  0  0  0  0  3  0  0  0  0  0  0
   33.4710   31.3090   35.8510 C   0  0  0  0  0  0  0  0  0  0  0  0
   32.5830   32.1000   36.4810 N   0  0  0  0  0  0  0  0  0  0  0  0
   32.9520   33.1710   37.2100 C   0  0  0  0  0  0  0  0  0  0  0  0
   32.2190   33.7790   37.6970 H   0  0  0  0  0  0  0  0  0  0  0  0
   34.3110   33.4450   37.2950 C   0  0  0  0  0  3  0  0  0  0  0  0
   35.2660   32.6530   36.6600 C   0  0  0  0  0  3  0  0  0  0  0  0
   34.8320   31.5680   35.9270 C   0  0  0  0  0  0  0  0  0  0  0  0
   35.7080   30.7230   35.2600 C   0  0  0  0  0  3  0  0  0  0  0  0
   40.2730   22.5750   37.4370 Br  0  0  0  0  0  0  0  0  0  0  0  0
   39.4980   23.9160   36.3270 C   0  0  0  0  0  0  0  0  0  0  0  0
   40.1850   24.4020   35.2090 C   0  0  0  0  0  0  0  0  0  0  0  0
   39.5760   25.3660   34.4520 C   0  0  0  0  0  0  0  0  0  0  0  0
   38.3140   25.8730   34.7460 C   0  0  0  0  0  0  0  0  0  0  0  0
   37.6660   25.3830   35.8390 C   0  0  0  0  0  0  0  0  0  0  0  0
   38.2640   24.4150   36.6120 C   0  0  0  0  0  0  0  0  0  0  0  0
   40.0520   25.7900   33.5690 H   0  0  0  0  0  0  0  0  0  0  0  0
   36.6840   25.7020   36.1630 H   0  0  0  0  0  0  0  0  0  0  0  0
   37.7550   24.0120   37.4920 H   0  0  0  0  0  0  0  0  0  0  0  0
   42.7660   22.3210   33.6940 C   0  0  0  0  0  0  0  0  0  0  0  0
   43.9810   22.8800   34.1910 C   0  0  0  0  0  0  0  0  0  0  0  0
   43.8780   23.9650   35.0380 C   0  0  0  0  0  0  0  0  0  0  0  0
   42.6390   24.4530   35.3650 N   0  0  0  0  0  0  0  0  0  0  0  0
   41.5030   23.8960   34.8720 C   0  0  0  0  0  0  0  0  0  0  0  0
   41.5830   22.8300   34.0390 N   0  0  0  0  0  0  0  0  0  0  0  0
   42.8910   21.4630   33.0250 H   0  0  0  0  0  0  0  0  0  0  0  0
   44.9620   22.5430   33.9710 H   0  0  0  0  0  0  0  0  0  0  0  0
   44.7050   24.4780   35.4810 H   0  0  0  0  0  0  0  0  0  0  0  0
  1  6  1  0  0  0  0
  1 25  1  0  0  0  0
  2  1  2  0  0  0  0
  3  4  2  0  0  0  0
  3  2  1  0  0  0  0
  4  5  1  0  0  0  0
  5  6  2  0  0  0  0
  5  9  1  0  0  0  0
  7  2  1  0  0  0  0
  8  3  1  0  0  0  0
  9 20  1  0  0  0  0
 10  9  2  0  0  0  0
 10 12  1  0  0  0  0
 11 10  1  0  0  0  0
 12 13  2  0  0  0  0
 13 19  1  0  0  0  0
 13 14  1  0  0  0  0
 14 15  2  0  0  0  0
 15 17  1  0  0  0  0
 15 16  1  0  0  0  0
 18 17  2  0  0  0  0
 19 18  1  0  0  0  0
 20 19  2  0  0  0  0
 22 27  1  0  0  0  0
 22 21  1  0  0  0  0
 23 22  2  0  0  0  0
 24 25  2  0  0  0  0
 24 23  1  0  0  0  0
 25 26  1  0  0  0  0
 26 29  1  0  0  0  0
 26 27  2  0  0  0  0
 27 30  1  0  0  0  0
 28 24  1  0  0  0  0
 31 36  2  0  0  0  0
 31 32  1  0  0  0  0
 32 33  2  0  0  0  0
 33 34  1  0  0  0  0
 33 39  1  0  0  0  0
 35 23  1  0  0  0  0
 35 34  2  0  0  0  0
 36 35  1  0  0  0  0
 37 31  1  0  0  0  0
 38 32  1  0  0  0  0
M  END
>  <minimizedAffinity>
-6.62480211

$$$$

 OpenBabel03272510223D

 39 43  0  0  0  0  0  0  0  0999 V2000
   37.0910   27.0150   31.8920 C   0  0  0  0  0  0  0  0  0  0  0  0
   37.1960   27.6110   30.6560 C   0  0  0  0  0  0  0  0  0  0  0  0
   36.6170   28.8360   30.3530 C   0  0  0  0  0  0  0  0  0  0  0  0
   35.9180   29.4840   31.3020 N   0  0  0  0  0  0  0  0  0  0  0  0
   35.8130   28.9110   32.5050 C   0  0  0  0  0  0  0  0  0  0  0  0
   36.3760   27.7340   32.7760 N   0  0  0  0  0  0  0  0  0  0  0  0
   37.7700   27.0760   29.8820 H   0  0  0  0  0  0  0  0  0  0  0  0
   36.7710   29.2010   29.3390 H   0  0  0  0  0  0  0  0  0  0  0  0
   35.0580   29.5980   33.5470 C   0  0  0  0  0  0  0  0  0  0  0  0
   33.6910   29.3830   33.6920 C   0  0  0  0  0  0  0  0  0  0  0  0
   33.2100   28.6930   33.0080 H   0  0  0  0  0  0  0  0  0  0  0  0
   32.8980   29.9760   34.6320 C   0  0  0  0  0  3  0  0  0  0  0  0
   33.5080   30.8550   35.5030 C   0  0  0  0  0  0  0  0  0  0  0  0
   32.7480   31.4530   36.4400 N   0  0  0  0  0  0  0  0  0  0  0  0
   33.2500   32.3250   37.3360 C   0  0  0  0  0  0  0  0  0  0  0  0
   32.6160   32.7820   38.0660 H   0  0  0  0  0  0  0  0  0  0  0  0
   34.6100   32.5990   37.2640 C   0  0  0  0  0  3  0  0  0  0  0  0
   35.4350   32.0040   36.3110 C   0  0  0  0  0  3  0  0  0  0  0  0
   34.8670   31.1180   35.4180 C   0  0  0  0  0  0  0  0  0  0  0  0
   35.6090   30.4770   34.4360 C   0  0  0  0  0  3  0  0  0  0  0  0
   39.7290   21.7020   33.4680 Br  0  0  0  0  0  0  0  0  0  0  0  0
   38.8730   23.3300   32.9700 C   0  0  0  0  0  0  0  0  0  0  0  0
   37.5430   23.3330   32.5350 C   0  0  0  0  0  0  0  0  0  0  0  0
   36.9840   24.5340   32.1900 C   0  0  0  0  0  0  0  0  0  0  0  0
   37.6780   25.7380   32.2570 C   0  0  0  0  0  0  0  0  0  0  0  0
   38.9720   25.7090   32.6830 C   0  0  0  0  0  0  0  0  0  0  0  0
   39.5500   24.5100   33.0320 C   0  0  0  0  0  0  0  0  0  0  0  0
   35.9540   24.6110   31.8440 H   0  0  0  0  0  0  0  0  0  0  0  0
   39.6070   26.5800   32.7730 H   0  0  0  0  0  0  0  0  0  0  0  0
   40.5870   24.4710   33.3770 H   0  0  0  0  0  0  0  0  0  0  0  0
   35.9050   20.4120   31.0950 C   0  0  0  0  0  0  0  0  0  0  0  0
   35.3580   19.7420   32.2300 C   0  0  0  0  0  0  0  0  0  0  0  0
   35.5700   20.3170   33.4670 C   0  0  0  0  0  0  0  0  0  0  0  0
   36.2810   21.4860   33.5570 N   0  0  0  0  0  0  0  0  0  0  0  0
   36.7880   22.0960   32.4540 C   0  0  0  0  0  0  0  0  0  0  0  0
   36.5910   21.5470   31.2310 N   0  0  0  0  0  0  0  0  0  0  0  0
   35.7140   19.9230   30.1340 H   0  0  0  0  0  0  0  0  0  0  0  0
   34.8010   18.8390   32.2170 H   0  0  0  0  0  0  0  0  0  0  0  0
   35.2170   19.9220   34.3960 H   0  0  0  0  0  0  0  0  0  0  0  0
  1 25  1  0  0  0  0
  1  6  1  0  0  0  0
  2  1  2  0  0  0  0
  3  2  1  0  0  0  0
  3  4  2  0  0  0  0
  4  5  1  0  0  0  0
  5  6  2  0  0  0  0
  5  9  1  0  0  0  0
  7  2  1  0  0  0  0
  8  3  1  0  0  0  0
  9 10  2  0  0  0  0
  9 20  1  0  0  0  0
 10 12  1  0  0  0  0
 11 10  1  0  0  0  0
 12 13  2  0  0  0  0
 13 14  1  0  0  0  0
 14 15  2  0  0  0  0
 15 16  1  0  0  0  0
 17 15  1  0  0  0  0
 18 17  2  0  0  0  0
 19 13  1  0  0  0  0
 19 18  1  0  0  0  0
 20 19  2  0  0  0  0
 22 27  1  0  0  0  0
 22 21  1  0  0  0  0
 23 22  2  0  0  0  0
 24 25  2  0  0  0  0
 24 23  1  0  0  0  0
 25 26  1  0  0  0  0
 26 29  1  0  0  0  0
 26 27  2  0  0  0  0
 27 30  1  0  0  0  0
 28 24  1  0  0  0  0
 31 36  2  0  0  0  0
 31 32  1  0  0  0  0
 32 33  2  0  0  0  0
 33 34  1  0  0  0  0
 33 39  1  0  0  0  0
 35 23  1  0  0  0  0
 35 34  2  0  0  0  0
 36 35  1  0  0  0  0
 37 31  1  0  0  0  0
 38 32  1  0  0  0  0
M  END
>  <minimizedAffinity>
-6.57642555

$$$$

 OpenBabel03272510223D

 39 43  0  0  0  0  0  0  0  0999 V2000
   36.4110   26.9930   31.7660 C   0  0  0  0  0  0  0  0  0  0  0  0
   36.6830   27.6640   30.5960 C   0  0  0  0  0  0  0  0  0  0  0  0
   36.5010   29.0330   30.4470 C   0  0  0  0  0  0  0  0  0  0  0  0
   36.0400   29.7500   31.4860 N   0  0  0  0  0  0  0  0  0  0  0  0
   35.7740   29.1040   32.6260 C   0  0  0  0  0  0  0  0  0  0  0  0
   35.9550   27.7890   32.7490 N   0  0  0  0  0  0  0  0  0  0  0  0
   37.0620   27.0710   29.7470 H   0  0  0  0  0  0  0  0  0  0  0  0
   36.7510   29.4450   29.4710 H   0  0  0  0  0  0  0  0  0  0  0  0
   35.2720   29.8650   33.7650 C   0  0  0  0  0  0  0  0  0  0  0  0
   36.1180   30.7020   34.4860 C   0  0  0  0  0  0  0  0  0  0  0  0
   37.1540   30.7680   34.1770 H   0  0  0  0  0  0  0  0  0  0  0  0
   35.7460   31.4550   35.5640 C   0  0  0  0  0  3  0  0  0  0  0  0
   34.4270   31.3730   35.9600 C   0  0  0  0  0  0  0  0  0  0  0  0
   34.0340   32.1050   37.0190 N   0  0  0  0  0  0  0  0  0  0  0  0
   32.7690   32.0940   37.4830 C   0  0  0  0  0  0  0  0  0  0  0  0
   32.4930   32.6880   38.3280 H   0  0  0  0  0  0  0  0  0  0  0  0
   31.8560   31.2840   36.8200 C   0  0  0  0  0  3  0  0  0  0  0  0
   32.2170   30.5090   35.7200 C   0  0  0  0  0  3  0  0  0  0  0  0
   33.5270   30.5590   35.2870 C   0  0  0  0  0  0  0  0  0  0  0  0
   33.9790   29.8240   34.2010 C   0  0  0  0  0  3  0  0  0  0  0  0
   37.0240   20.9300   32.5000 Br  0  0  0  0  0  0  0  0  0  0  0  0
   36.8630   22.8180   32.3030 C   0  0  0  0  0  0  0  0  0  0  0  0
   37.6100   23.6860   33.1090 C   0  0  0  0  0  0  0  0  0  0  0  0
   37.4500   25.0320   32.9210 C   0  0  0  0  0  0  0  0  0  0  0  0
   36.5850   25.5650   31.9700 C   0  0  0  0  0  0  0  0  0  0  0  0
   35.8690   24.7000   31.1990 C   0  0  0  0  0  0  0  0  0  0  0  0
   36.0170   23.3440   31.3750 C   0  0  0  0  0  0  0  0  0  0  0  0
   37.9990   25.7640   33.5110 H   0  0  0  0  0  0  0  0  0  0  0  0
   35.1680   25.0000   30.4310 H   0  0  0  0  0  0  0  0  0  0  0  0
   35.4490   22.6380   30.7630 H   0  0  0  0  0  0  0  0  0  0  0  0
   38.8550   22.5350   36.3360 C   0  0  0  0  0  0  0  0  0  0  0  0
   40.2090   22.1780   36.0640 C   0  0  0  0  0  0  0  0  0  0  0  0
   40.6590   22.3430   34.7690 C   0  0  0  0  0  0  0  0  0  0  0  0
   39.8070   22.8340   33.8150 N   0  0  0  0  0  0  0  0  0  0  0  0
   38.5230   23.1640   34.1100 C   0  0  0  0  0  0  0  0  0  0  0  0
   38.0620   23.0100   35.3750 N   0  0  0  0  0  0  0  0  0  0  0  0
   38.5380   22.3900   37.3740 H   0  0  0  0  0  0  0  0  0  0  0  0
   40.9090   21.7940   36.7630 H   0  0  0  0  0  0  0  0  0  0  0  0
   41.6470   22.1150   34.4300 H   0  0  0  0  0  0  0  0  0  0  0  0
  1 25  1  0  0  0  0
  1  6  1  0  0  0  0
  2  1  2  0  0  0  0
  3  2  1  0  0  0  0
  3  4  2  0  0  0  0
  4  5  1  0  0  0  0
  5  6  2  0  0  0  0
  5  9  1  0  0  0  0
  7  2  1  0  0  0  0
  8  3  1  0  0  0  0
  9 20  2  0  0  0  0
  9 10  1  0  0  0  0
 10 12  2  0  0  0  0
 11 10  1  0  0  0  0
 12 13  1  0  0  0  0
 13 14  1  0  0  0  0
 14 15  2  0  0  0  0
 15 16  1  0  0  0  0
 17 15  1  0  0  0  0
 18 17  2  0  0  0  0
 19 18  1  0  0  0  0
 19 13  2  0  0  0  0
 20 19  1  0  0  0  0
 22 21  1  0  0  0  0
 22 23  1  0  0  0  0
 23 35  1  0  0  0  0
 24 23  2  0  0  0  0
 24 28  1  0  0  0  0
 25 24  1  0  0  0  0
 26 27  1  0  0  0  0
 26 25  2  0  0  0  0
 27 22  2  0  0  0  0
 29 26  1  0  0  0  0
 30 27  1  0  0  0  0
 31 37  1  0  0  0  0
 32 31  1  0  0  0  0
 32 38  1  0  0  0  0
 33 32  2  0  0  0  0
 34 35  2  0  0  0  0
 34 33  1  0  0  0  0
 35 36  1  0  0  0  0
 36 31  2  0  0  0  0
 39 33  1  0  0  0  0
M  END
>  <minimizedAffinity>
-6.50434017

$$$$

 OpenBabel03272510223D

 39 43  0  0  0  0  0  0  0  0999 V2000
   37.3300   28.0380   32.3280 C   0  0  0  0  0  0  0  0  0  0  0  0
   37.4550   28.4680   31.0270 C   0  0  0  0  0  0  0  0  0  0  0  0
   36.5460   29.3260   30.4210 C   0  0  0  0  0  0  0  0  0  0  0  0
   35.4890   29.7660   31.1270 N   0  0  0  0  0  0  0  0  0  0  0  0
   35.3620   29.3520   32.3920 C   0  0  0  0  0  0  0  0  0  0  0  0
   36.2460   28.5280   32.9550 N   0  0  0  0  0  0  0  0  0  0  0  0
   38.3230   28.1050   30.4530 H   0  0  0  0  0  0  0  0  0  0  0  0
   36.7550   29.5920   29.3870 H   0  0  0  0  0  0  0  0  0  0  0  0
   34.2220   29.8180   33.1730 C   0  0  0  0  0  0  0  0  0  0  0  0
   32.9380   29.7930   32.6370 C   0  0  0  0  0  0  0  0  0  0  0  0
   32.8150   29.4200   31.6270 H   0  0  0  0  0  0  0  0  0  0  0  0
   31.8080   30.2070   33.2840 C   0  0  0  0  0  3  0  0  0  0  0  0
   31.9620   30.6840   34.5700 C   0  0  0  0  0  0  0  0  0  0  0  0
   30.8640   31.0970   35.2300 N   0  0  0  0  0  0  0  0  0  0  0  0
   30.9090   31.5780   36.4880 C   0  0  0  0  0  0  0  0  0  0  0  0
   30.0170   31.8980   36.9820 H   0  0  0  0  0  0  0  0  0  0  0  0
   32.1540   31.6380   37.1010 C   0  0  0  0  0  3  0  0  0  0  0  0
   33.3170   31.2210   36.4560 C   0  0  0  0  0  3  0  0  0  0  0  0
   33.2120   30.7370   35.1680 C   0  0  0  0  0  0  0  0  0  0  0  0
   34.3140   30.2990   34.4470 C   0  0  0  0  0  3  0  0  0  0  0  0
   41.3600   24.3070   35.0680 Br  0  0  0  0  0  0  0  0  0  0  0  0
   40.0780   25.4520   34.2460 C   0  0  0  0  0  0  0  0  0  0  0  0
   38.7620   25.5070   34.7190 C   0  0  0  0  0  0  0  0  0  0  0  0
   37.8880   26.3480   34.0870 C   0  0  0  0  0  0  0  0  0  0  0  0
   38.2530   27.1430   33.0040 C   0  0  0  0  0  0  0  0  0  0  0  0
   39.5390   27.0710   32.5620 C   0  0  0  0  0  0  0  0  0  0  0  0
   40.4310   26.2300   33.1860 C   0  0  0  0  0  0  0  0  0  0  0  0
   36.8490   26.4420   34.4010 H   0  0  0  0  0  0  0  0  0  0  0  0
   39.9340   27.6400   31.7300 H   0  0  0  0  0  0  0  0  0  0  0  0
   41.4670   26.1620   32.8420 H   0  0  0  0  0  0  0  0  0  0  0  0
   37.5860   22.6160   36.6040 C   0  0  0  0  0  0  0  0  0  0  0  0
   37.5440   23.0890   37.9490 C   0  0  0  0  0  0  0  0  0  0  0  0
   37.9250   24.3970   38.1730 C   0  0  0  0  0  0  0  0  0  0  0  0
   38.3190   25.1760   37.1160 N   0  0  0  0  0  0  0  0  0  0  0  0
   38.3470   24.6930   35.8470 C   0  0  0  0  0  0  0  0  0  0  0  0
   37.9770   23.4110   35.6070 N   0  0  0  0  0  0  0  0  0  0  0  0
   37.2770   21.5750   36.4700 H   0  0  0  0  0  0  0  0  0  0  0  0
   37.2480   22.5300   38.8010 H   0  0  0  0  0  0  0  0  0  0  0  0
   37.9410   24.8760   39.1280 H   0  0  0  0  0  0  0  0  0  0  0  0
  1  6  1  0  0  0  0
  1 25  1  0  0  0  0
  2  1  2  0  0  0  0
  3  2  1  0  0  0  0
  3  4  2  0  0  0  0
  4  5  1  0  0  0  0
  5  6  2  0  0  0  0
  5  9  1  0  0  0  0
  7  2  1  0  0  0  0
  8  3  1  0  0  0  0
  9 20  1  0  0  0  0
 10  9  2  0  0  0  0
 10 12  1  0  0  0  0
 11 10  1  0  0  0  0
 12 13  2  0  0  0  0
 13 19  1  0  0  0  0
 13 14  1  0  0  0  0
 14 15  2  0  0  0  0
 15 16  1  0  0  0  0
 15 17  1  0  0  0  0
 18 17  2  0  0  0  0
 19 18  1  0  0  0  0
 20 19  2  0  0  0  0
 22 23  1  0  0  0  0
 22 21  1  0  0  0  0
 23 35  1  0  0  0  0
 24 28  1  0  0  0  0
 24 23  2  0  0  0  0
 25 24  1  0  0  0  0
 26 25  2  0  0  0  0
 26 27  1  0  0  0  0
 27 22  2  0  0  0  0
 29 26  1  0  0  0  0
 30 27  1  0  0  0  0
 31 32  1  0  0  0  0
 32 33  2  0  0  0  0
 32 38  1  0  0  0  0
 33 39  1  0  0  0  0
 34 33  1  0  0  0  0
 35 34  2  0  0  0  0
 36 35  1  0  0  0  0
 36 31  2  0  0  0  0
 37 31  1  0  0  0  0
M  END
>  <minimizedAffinity>
-6.45493221

$$$$
