
 OpenBabel03272501583D

 34 37  0  0  0  0  0  0  0  0999 V2000
   33.0290   27.9400   47.7970 C   0  0  0  0  0  0  0  0  0  0  0  0
   32.5600   26.7000   48.1440 C   0  0  0  0  0  0  0  0  0  0  0  0
   31.2210   26.5820   47.8060 C   0  0  0  0  0  0  0  0  0  0  0  0
   30.9160   27.7720   47.2560 N   0  0  0  0  0  0  0  0  0  0  0  0
   31.9650   28.5730   47.2460 N   0  0  0  0  0  0  0  0  0  0  0  0
   33.0870   25.8690   48.6180 H   0  0  0  0  0  0  0  0  0  0  0  0
   30.4800   25.7980   47.8980 H   0  0  0  0  0  0  0  0  0  0  0  0
   29.7230   28.3180   46.7020 C   0  0  0  0  0  0  0  0  0  0  0  0
   28.9390   29.2440   47.3560 C   0  0  0  0  0  0  0  0  0  0  0  0
   29.2460   29.5650   48.3320 H   0  0  0  0  0  0  0  0  0  0  0  0
   27.8010   29.6940   46.7000 C   0  0  0  0  0  3  0  0  0  0  0  0
   27.4700   29.2360   45.4470 C   0  0  0  0  0  0  0  0  0  0  0  0
   26.3630   29.6970   44.8480 N   0  0  0  0  0  0  0  0  0  0  0  0
   26.0180   29.2600   43.6160 C   0  0  0  0  0  0  0  0  0  0  0  0
   25.1020   29.6580   43.1530 H   0  0  0  0  0  0  0  0  0  0  0  0
   26.7830   28.3310   42.9330 C   0  0  0  0  0  3  0  0  0  0  0  0
   27.9260   27.8410   43.5250 C   0  0  0  0  0  3  0  0  0  0  0  0
   28.2450   28.3100   44.7790 C   0  0  0  0  0  0  0  0  0  0  0  0
   29.3830   27.8600   45.4380 C   0  0  0  0  0  3  0  0  0  0  0  0
   34.4360   28.4350   48.0080 C   0  0  0  0  0  0  0  0  0  0  0  0
   35.1560   27.8240   47.4150 H   0  0  0  0  0  0  0  0  0  0  0  0
   34.4380   29.4780   47.6360 H   0  0  0  0  0  0  0  0  0  0  0  0
   34.7290   28.3000   49.4650 C   0  0  0  0  0  0  0  0  0  0  0  0
   34.9530   27.2530   49.7540 H   0  0  0  0  0  0  0  0  0  0  0  0
   33.8770   28.6460   50.0820 H   0  0  0  0  0  0  0  0  0  0  0  0
   37.2590   30.1650   51.4400 C   0  0  0  0  0  0  0  0  0  0  0  0
   38.0740   30.7070   50.4260 C   0  0  0  0  0  0  0  0  0  0  0  0
   37.7510   30.4300   49.0790 C   0  0  0  0  0  0  0  0  0  0  0  0
   36.6680   29.6530   48.8260 N   0  0  0  0  0  0  0  0  0  0  0  0
   35.9080   29.1490   49.8330 C   0  0  0  0  0  0  0  0  0  0  0  0
   36.2070   29.4060   51.0980 N   0  0  0  0  0  0  0  0  0  0  0  0
   37.5010   30.3730   52.4720 H   0  0  0  0  0  0  0  0  0  0  0  0
   38.9240   31.3160   50.6170 H   0  0  0  0  0  0  0  0  0  0  0  0
   38.3230   30.8060   48.2420 H   0  0  0  0  0  0  0  0  0  0  0  0
  1 20  1  0  0  0  0
  1  2  1  0  0  0  0
  2  6  1  0  0  0  0
  3  7  1  0  0  0  0
  3  2  2  0  0  0  0
  4  3  1  0  0  0  0
  5  4  1  0  0  0  0
  5  1  2  0  0  0  0
  8  4  1  0  0  0  0
  8  9  1  0  0  0  0
  9 10  1  0  0  0  0
 11  9  2  0  0  0  0
 12 11  1  0  0  0  0
 13 12  1  0  0  0  0
 14 13  2  0  0  0  0
 15 14  1  0  0  0  0
 16 17  2  0  0  0  0
 16 14  1  0  0  0  0
 17 18  1  0  0  0  0
 18 19  1  0  0  0  0
 18 12  2  0  0  0  0
 19  8  2  0  0  0  0
 20 23  1  0  0  0  0
 21 20  1  0  0  0  0
 22 20  1  0  0  0  0
 23 24  1  0  0  0  0
 23 30  1  0  0  0  0
 23 25  1  0  0  0  0
 26 32  1  0  0  0  0
 27 33  1  0  0  0  0
 27 26  2  0  0  0  0
 28 27  1  0  0  0  0
 29 28  2  0  0  0  0
 29 30  1  0  0  0  0
 30 31  2  0  0  0  0
 31 26  1  0  0  0  0
 34 28  1  0  0  0  0
M  END
>  <minimizedAffinity>
-5.17304611

>  <minimizedRMSD>
1.25700402

$$$$
