
 OpenBabel03272505313D

 43 47  0  0  0  0  0  0  0  0999 V2000
   37.3970   31.2390   47.0290 N   0  0  0  0  0  0  0  0  0  0  0  0
   36.6900   31.0570   45.8800 C   0  0  0  0  0  0  0  0  0  0  0  0
   37.0960   31.5960   44.6760 C   0  0  0  0  0  0  0  0  0  0  0  0
   38.2790   32.3500   44.6820 C   0  0  0  0  0  0  0  0  0  0  0  0
   38.6930   32.8660   43.6090 O   0  0  0  0  0  0  0  0  0  0  0  0
   38.9870   32.5320   45.8380 N   0  0  0  0  0  0  0  0  0  0  0  0
   38.4910   31.9610   46.9250 C   0  0  0  0  0  0  0  0  0  0  0  0
   39.1640   32.1480   47.9660 O   0  0  0  0  0  0  0  0  0  0  0  0
   35.7830   30.4750   45.8920 H   0  0  0  0  0  0  0  0  0  0  0  0
   37.4370   29.5280   50.3330 C   0  0  0  0  0  0  0  0  0  0  0  0
   37.8530   30.0900   49.1180 C   0  0  0  0  0  0  0  0  0  0  0  0
   36.9670   30.6810   48.2390 C   0  0  0  0  0  0  0  0  0  0  0  0
   35.6810   30.6940   48.6030 N   0  0  0  0  0  0  0  0  0  0  0  0
   35.2340   30.1610   49.7720 C   0  0  0  0  0  0  0  0  0  0  0  0
   36.1250   29.5810   50.6260 N   0  0  0  0  0  0  0  0  0  0  0  0
   38.1310   29.0650   51.0210 H   0  0  0  0  0  0  0  0  0  0  0  0
   38.8970   30.0310   48.9180 H   0  0  0  0  0  0  0  0  0  0  0  0
   34.1880   30.1810   50.0490 H   0  0  0  0  0  0  0  0  0  0  0  0
   36.3840   31.4360   43.4160 C   0  0  0  0  0  0  0  0  0  0  0  0
   36.5900   30.3860   42.5670 C   0  0  0  0  0  0  0  0  0  0  0  0
   35.9290   30.2120   41.3690 C   0  0  0  0  0  0  0  0  0  0  0  0
   34.9840   31.1740   40.9960 C   0  0  0  0  0  0  0  0  0  0  0  0
   34.8070   32.2200   41.8820 C   0  0  0  0  0  0  0  0  0  0  0  0
   35.4790   32.3260   43.0230 N   0  0  0  0  0  0  0  0  0  0  0  0
   37.3090   29.6150   42.8110 H   0  0  0  0  0  0  0  0  0  0  0  0
   36.1020   29.3720   40.7020 H   0  0  0  0  0  0  0  0  0  0  0  0
   34.4580   31.0680   40.0760 H   0  0  0  0  0  0  0  0  0  0  0  0
   33.8430   33.2760   41.5840 C   0  0  0  0  0  0  0  0  0  0  0  0
   32.9560   33.7000   42.5620 C   0  0  0  0  0  0  0  0  0  0  0  0
   32.9860   33.2390   43.5520 H   0  0  0  0  0  0  0  0  0  0  0  0
   31.9980   34.6840   42.4200 C   0  0  0  0  0  3  0  0  0  0  0  0
   31.9120   35.3040   41.1910 C   0  0  0  0  0  0  0  0  0  0  0  0
   31.0030   36.2720   40.9720 N   0  0  0  0  0  0  0  0  0  0  0  0
   30.8940   36.8990   39.7790 C   0  0  0  0  0  0  0  0  0  0  0  0
   30.1590   37.6780   39.6120 H   0  0  0  0  0  0  0  0  0  0  0  0
   31.7700   36.4990   38.7690 C   0  0  0  0  0  3  0  0  0  0  0  0
   32.7250   35.5090   38.9340 C   0  0  0  0  0  3  0  0  0  0  0  0
   32.7720   34.9190   40.1820 C   0  0  0  0  0  0  0  0  0  0  0  0
   33.7140   33.9290   40.3760 C   0  0  0  0  0  3  0  0  0  0  0  0
   40.1990   33.3080   45.8310 C   0  0  0  0  0  0  0  0  0  0  0  0
   40.1710   34.2360   44.8530 F   0  0  0  0  0  0  0  0  0  0  0  0
   41.3430   32.5450   45.5940 F   0  0  0  0  0  0  0  0  0  0  0  0
   40.3240   33.9620   47.0500 F   0  0  0  0  0  0  0  0  0  0  0  0
  1 12  1  0  0  0  0
  2  9  1  0  0  0  0
  2  1  1  0  0  0  0
  3  4  1  0  0  0  0
  3  2  2  0  0  0  0
  4  6  1  0  0  0  0
  5  4  2  0  0  0  0
  6  7  1  0  0  0  0
  7  1  1  0  0  0  0
  7  8  2  0  0  0  0
 10 15  1  0  0  0  0
 10 16  1  0  0  0  0
 11 10  2  0  0  0  0
 12 13  2  0  0  0  0
 12 11  1  0  0  0  0
 13 14  1  0  0  0  0
 14 18  1  0  0  0  0
 14 15  2  0  0  0  0
 17 11  1  0  0  0  0
 19  3  1  0  0  0  0
 20 25  1  0  0  0  0
 20 19  2  0  0  0  0
 21 20  1  0  0  0  0
 22 21  2  0  0  0  0
 22 23  1  0  0  0  0
 23 24  2  0  0  0  0
 24 19  1  0  0  0  0
 26 21  1  0  0  0  0
 27 22  1  0  0  0  0
 28 23  1  0  0  0  0
 28 29  1  0  0  0  0
 29 30  1  0  0  0  0
 31 29  2  0  0  0  0
 32 31  1  0  0  0  0
 33 32  1  0  0  0  0
 34 33  2  0  0  0  0
 35 34  1  0  0  0  0
 36 37  2  0  0  0  0
 36 34  1  0  0  0  0
 37 38  1  0  0  0  0
 38 39  1  0  0  0  0
 38 32  2  0  0  0  0
 39 28  2  0  0  0  0
 40  6  1  0  0  0  0
 40 43  1  0  0  0  0
 41 40  1  0  0  0  0
 42 40  1  0  0  0  0
M  END
>  <minimizedAffinity>
-7.04375267

>  <minimizedRMSD>
0.858674765

$$$$
