
 OpenBabel03262522103D

 32 35  0  0  0  0  0  0  0  0999 V2000
   34.3710   28.7150   47.1860 C   0  0  0  0  0  0  0  0  0  0  0  0
   33.9880   27.8920   48.2160 C   0  0  0  0  0  0  0  0  0  0  0  0
   34.5130   28.0980   49.4790 C   0  0  0  0  0  0  0  0  0  0  0  0
   35.4170   29.1640   49.5920 C   0  0  0  0  0  0  0  0  0  0  0  0
   35.7840   29.9710   48.5470 C   0  0  0  0  0  0  0  0  0  0  0  0
   35.2470   29.7340   47.3300 N   0  0  0  0  0  0  0  0  0  0  0  0
   33.2850   27.0800   48.0870 H   0  0  0  0  0  0  0  0  0  0  0  0
   34.2500   27.4890   50.3150 H   0  0  0  0  0  0  0  0  0  0  0  0
   35.8120   29.3020   50.5890 H   0  0  0  0  0  0  0  0  0  0  0  0
   36.7270   31.0680   48.7050 C   0  0  0  0  0  0  0  0  0  0  0  0
   36.8430   31.8350   49.8460 C   0  0  0  0  0  0  0  0  0  0  0  0
   36.2160   31.6350   50.6800 H   0  0  0  0  0  0  0  0  0  0  0  0
   37.7280   32.8720   50.0060 C   0  0  0  0  0  0  0  0  0  0  0  0
   38.5750   33.1800   48.9430 C   0  0  0  0  0  0  0  0  0  0  0  0
   39.4720   34.1830   49.0190 N   0  0  0  0  0  0  0  0  0  0  0  0
   40.2800   34.4440   47.9480 C   0  0  0  0  0  0  0  0  0  0  0  0
   40.9440   35.2570   48.1300 H   0  0  0  0  0  0  0  0  0  0  0  0
   40.2060   33.7080   46.7820 C   0  0  0  0  0  0  0  0  0  0  0  0
   39.2820   32.6670   46.6910 C   0  0  0  0  0  0  0  0  0  0  0  0
   38.4970   32.4500   47.7970 C   0  0  0  0  0  0  0  0  0  0  0  0
   37.5830   31.4080   47.6800 C   0  0  0  0  0  0  0  0  0  0  0  0
   33.7800   28.4490   45.8670 C   0  0  0  0  0  0  0  0  0  0  0  0
   33.9270   29.2160   44.9180 O   0  0  0  0  0  0  0  0  0  0  0  0
   33.6070   26.0220   45.3680 C   0  0  0  0  0  0  0  0  0  0  0  0
   32.9800   27.2450   45.6190 C   0  0  0  0  0  0  0  0  0  0  0  0
   31.5860   27.2530   45.6190 C   0  0  0  0  0  0  0  0  0  0  0  0
   30.9150   26.0860   45.3780 N   0  0  0  0  0  0  0  0  0  0  0  0
   31.5680   24.9290   45.1410 C   0  0  0  0  0  0  0  0  0  0  0  0
   32.8920   24.8960   45.1360 N   0  0  0  0  0  0  0  0  0  0  0  0
   34.6970   26.0530   45.3750 H   0  0  0  0  0  0  0  0  0  0  0  0
   31.0650   28.1790   45.8080 H   0  0  0  0  0  0  0  0  0  0  0  0
   31.0740   23.9910   44.9480 H   0  0  0  0  0  0  0  0  0  0  0  0
  1  6  2  0  0  0  0
  1  2  1  0  0  0  0
  2  3  2  0  0  0  0
  3  4  1  0  0  0  0
  3  8  1  0  0  0  0
  4  9  1  0  0  0  0
  5 10  1  0  0  0  0
  5  4  2  0  0  0  0
  6  5  1  0  0  0  0
  7  2  1  0  0  0  0
 10 11  1  0  0  0  0
 11 13  2  0  0  0  0
 11 12  1  0  0  0  0
 14 15  1  0  0  0  0
 14 13  1  0  0  0  0
 16 17  1  0  0  0  0
 16 15  2  0  0  0  0
 18 16  1  0  0  0  0
 19 18  2  0  0  0  0
 19 20  1  0  0  0  0
 20 14  2  0  0  0  0
 21 20  1  0  0  0  0
 21 10  2  0  0  0  0
 22  1  1  0  0  0  0
 23 22  2  0  0  0  0
 24 30  1  0  0  0  0
 24 25  1  0  0  0  0
 25 26  2  0  0  0  0
 25 22  1  0  0  0  0
 26 31  1  0  0  0  0
 27 26  1  0  0  0  0
 28 27  2  0  0  0  0
 29 28  1  0  0  0  0
 29 24  2  0  0  0  0
 32 28  1  0  0  0  0
M  END
>  <minimizedAffinity>
-5.87399387

>  <minimizedRMSD>
6.61099291

$$$$
