
 OpenBabel03272509013D

 34 37  0  0  0  0  0  0  0  0999 V2000
   38.8560   31.9590   48.6260 Cl  0  0  0  0  0  0  0  0  0  0  0  0
   37.4580   31.1420   48.0120 C   0  0  0  0  0  0  0  0  0  0  0  0
   37.3350   30.9620   46.6490 C   0  0  0  0  0  0  0  0  0  0  0  0
   36.2450   30.3250   46.1050 C   0  0  0  0  0  0  0  0  0  0  0  0
   35.2410   29.8470   46.9100 C   0  0  0  0  0  0  0  0  0  0  0  0
   35.3360   30.0130   48.2830 C   0  0  0  0  0  0  0  0  0  0  0  0
   34.1050   29.4540   49.3980 Cl  0  0  0  0  0  0  0  0  0  0  0  0
   36.4610   30.6660   48.7960 C   0  0  0  0  0  0  0  0  0  0  0  0
   36.0920   30.1550   45.0460 H   0  0  0  0  0  0  0  0  0  0  0  0
   34.3590   29.3380   46.5510 H   0  0  0  0  0  0  0  0  0  0  0  0
   39.1570   33.0320   44.2250 C   0  0  0  0  0  0  0  0  0  0  0  0
   40.3790   32.3540   44.0860 C   0  0  0  0  0  0  0  0  0  0  0  0
   40.5500   31.1740   44.8480 C   0  0  0  0  0  0  0  0  0  0  0  0
   39.5310   30.7840   45.6540 N   0  0  0  0  0  0  0  0  0  0  0  0
   38.3730   31.4540   45.7660 C   0  0  0  0  0  0  0  0  0  0  0  0
   38.2120   32.5770   45.0400 N   0  0  0  0  0  0  0  0  0  0  0  0
   39.0900   33.9260   43.6150 H   0  0  0  0  0  0  0  0  0  0  0  0
   41.2220   32.6170   43.4620 H   0  0  0  0  0  0  0  0  0  0  0  0
   41.4230   30.5360   44.8600 H   0  0  0  0  0  0  0  0  0  0  0  0
   36.5480   30.8670   50.2640 C   0  0  0  0  0  0  0  0  0  0  0  0
   37.0250   31.8800   50.3850 H   0  0  0  0  0  0  0  0  0  0  0  0
   35.4990   31.0500   50.6510 H   0  0  0  0  0  0  0  0  0  0  0  0
   37.2440   29.8310   51.0200 C   0  0  0  0  0  0  0  0  0  0  0  0
   37.4270   29.9270   52.3830 C   0  0  0  0  0  0  0  0  0  0  0  0
   37.0590   30.7500   52.9770 H   0  0  0  0  0  0  0  0  0  0  0  0
   38.0910   29.0020   53.1670 C   0  0  0  0  0  3  0  0  0  0  0  0
   38.6280   27.8810   52.5730 C   0  0  0  0  0  0  0  0  0  0  0  0
   39.2820   26.9540   53.2940 N   0  0  0  0  0  0  0  0  0  0  0  0
   39.8130   25.8530   52.7320 C   0  0  0  0  0  0  0  0  0  0  0  0
   40.3380   25.1140   53.3250 H   0  0  0  0  0  0  0  0  0  0  0  0
   39.6940   25.6460   51.3680 C   0  0  0  0  0  3  0  0  0  0  0  0
   39.0230   26.5970   50.6260 C   0  0  0  0  0  3  0  0  0  0  0  0
   38.4840   27.7180   51.2120 C   0  0  0  0  0  0  0  0  0  0  0  0
   37.8120   28.6810   50.5090 C   0  0  0  0  0  3  0  0  0  0  0  0
  2  1  1  0  0  0  0
  2  8  1  0  0  0  0
  3  2  2  0  0  0  0
  4  3  1  0  0  0  0
  4  5  2  0  0  0  0
  5  6  1  0  0  0  0
  6  8  2  0  0  0  0
  6  7  1  0  0  0  0
  8 20  1  0  0  0  0
  9  4  1  0  0  0  0
 10  5  1  0  0  0  0
 11 16  1  0  0  0  0
 12 11  2  0  0  0  0
 12 13  1  0  0  0  0
 13 19  1  0  0  0  0
 13 14  2  0  0  0  0
 14 15  1  0  0  0  0
 15  3  1  0  0  0  0
 16 15  2  0  0  0  0
 17 11  1  0  0  0  0
 18 12  1  0  0  0  0
 20 21  1  0  0  0  0
 20 22  1  0  0  0  0
 20 23  1  0  0  0  0
 23 24  1  0  0  0  0
 24 25  1  0  0  0  0
 24 26  2  0  0  0  0
 27 26  1  0  0  0  0
 27 28  1  0  0  0  0
 29 28  2  0  0  0  0
 29 30  1  0  0  0  0
 31 29  1  0  0  0  0
 32 33  1  0  0  0  0
 32 31  2  0  0  0  0
 33 27  2  0  0  0  0
 34 23  2  0  0  0  0
 34 33  1  0  0  0  0
M  END
>  <minimizedAffinity>
-1.55454111

>  <minimizedRMSD>
1.50769472

$$$$
