
 OpenBabel03272510213D

 39 43  0  0  0  0  0  0  0  0999 V2000
   32.7950   29.3920   46.8330 C   0  0  0  0  0  0  0  0  0  0  0  0
   31.8920   28.3680   46.6680 C   0  0  0  0  0  0  0  0  0  0  0  0
   30.8330   28.4270   45.7710 C   0  0  0  0  0  0  0  0  0  0  0  0
   30.6710   29.5310   45.0200 N   0  0  0  0  0  0  0  0  0  0  0  0
   31.5470   30.5300   45.1760 C   0  0  0  0  0  0  0  0  0  0  0  0
   32.5560   30.4530   46.0430 N   0  0  0  0  0  0  0  0  0  0  0  0
   32.0290   27.4640   47.2850 H   0  0  0  0  0  0  0  0  0  0  0  0
   30.1870   27.5530   45.7330 H   0  0  0  0  0  0  0  0  0  0  0  0
   31.3870   31.7360   44.3700 C   0  0  0  0  0  0  0  0  0  0  0  0
   31.6470   32.9910   44.9130 C   0  0  0  0  0  0  0  0  0  0  0  0
   31.9680   33.0410   45.9470 H   0  0  0  0  0  0  0  0  0  0  0  0
   31.5270   34.1760   44.2450 C   0  0  0  0  0  3  0  0  0  0  0  0
   31.1180   34.1140   42.9300 C   0  0  0  0  0  0  0  0  0  0  0  0
   30.9930   35.2670   42.2470 N   0  0  0  0  0  0  0  0  0  0  0  0
   30.5990   35.3130   40.9590 C   0  0  0  0  0  0  0  0  0  0  0  0
   30.5100   36.2490   40.4480 H   0  0  0  0  0  0  0  0  0  0  0  0
   30.3190   34.1040   40.3380 C   0  0  0  0  0  3  0  0  0  0  0  0
   30.4350   32.8850   41.0040 C   0  0  0  0  0  3  0  0  0  0  0  0
   30.8410   32.8980   42.3220 C   0  0  0  0  0  0  0  0  0  0  0  0
   30.9850   31.7350   43.0660 C   0  0  0  0  0  3  0  0  0  0  0  0
   37.4600   29.1790   50.8170 Br  0  0  0  0  0  0  0  0  0  0  0  0
   36.0300   29.2800   49.5610 C   0  0  0  0  0  0  0  0  0  0  0  0
   36.0010   30.2890   48.5920 C   0  0  0  0  0  0  0  0  0  0  0  0
   34.9470   30.3100   47.7190 C   0  0  0  0  0  0  0  0  0  0  0  0
   33.9170   29.3760   47.7570 C   0  0  0  0  0  0  0  0  0  0  0  0
   33.9670   28.4040   48.7090 C   0  0  0  0  0  0  0  0  0  0  0  0
   35.0190   28.3690   49.5960 C   0  0  0  0  0  0  0  0  0  0  0  0
   34.8600   31.0660   46.9400 H   0  0  0  0  0  0  0  0  0  0  0  0
   33.2230   27.6280   48.8340 H   0  0  0  0  0  0  0  0  0  0  0  0
   35.0730   27.5940   50.3650 H   0  0  0  0  0  0  0  0  0  0  0  0
   38.0310   33.1950   49.4480 C   0  0  0  0  0  0  0  0  0  0  0  0
   39.0490   33.1970   48.4480 C   0  0  0  0  0  0  0  0  0  0  0  0
   39.0090   32.1930   47.5010 C   0  0  0  0  0  0  0  0  0  0  0  0
   38.0140   31.2520   47.5560 N   0  0  0  0  0  0  0  0  0  0  0  0
   37.0600   31.2800   48.5230 C   0  0  0  0  0  0  0  0  0  0  0  0
   37.0820   32.2580   49.4600 N   0  0  0  0  0  0  0  0  0  0  0  0
   38.0980   34.0070   50.1780 H   0  0  0  0  0  0  0  0  0  0  0  0
   39.8390   33.8990   48.3600 H   0  0  0  0  0  0  0  0  0  0  0  0
   39.7070   32.0770   46.7010 H   0  0  0  0  0  0  0  0  0  0  0  0
  1 25  1  0  0  0  0
  2  1  1  0  0  0  0
  2  7  1  0  0  0  0
  3  2  2  0  0  0  0
  4  5  2  0  0  0  0
  4  3  1  0  0  0  0
  5  6  1  0  0  0  0
  6  1  2  0  0  0  0
  8  3  1  0  0  0  0
  9 10  1  0  0  0  0
  9  5  1  0  0  0  0
 10 11  1  0  0  0  0
 12 10  2  0  0  0  0
 13 12  1  0  0  0  0
 14 13  2  0  0  0  0
 15 14  1  0  0  0  0
 16 15  1  0  0  0  0
 17 15  2  0  0  0  0
 17 18  1  0  0  0  0
 18 19  2  0  0  0  0
 19 13  1  0  0  0  0
 19 20  1  0  0  0  0
 20  9  2  0  0  0  0
 22 27  1  0  0  0  0
 22 21  1  0  0  0  0
 23 22  2  0  0  0  0
 24 25  2  0  0  0  0
 24 23  1  0  0  0  0
 25 26  1  0  0  0  0
 26 29  1  0  0  0  0
 26 27  2  0  0  0  0
 27 30  1  0  0  0  0
 28 24  1  0  0  0  0
 31 36  1  0  0  0  0
 31 37  1  0  0  0  0
 32 31  2  0  0  0  0
 33 34  2  0  0  0  0
 33 32  1  0  0  0  0
 34 35  1  0  0  0  0
 35 23  1  0  0  0  0
 35 36  2  0  0  0  0
 38 32  1  0  0  0  0
 39 33  1  0  0  0  0
M  END
>  <minimizedAffinity>
-7.15899086

>  <minimizedRMSD>
0.586817861

$$$$
