
 OpenBabel03262520203D

 24 26  0  0  0  0  0  0  0  0999 V2000
   39.0820   22.9070   34.9210 C   0  0  0  0  0  0  0  0  0  0  0  0
   38.9780   22.8250   36.3280 C   0  0  0  0  0  0  0  0  0  0  0  0
   38.3820   23.8820   37.0110 C   0  0  0  0  0  0  0  0  0  0  0  0
   37.9310   24.9450   36.2810 N   0  0  0  0  0  0  0  0  0  0  0  0
   38.0450   24.9910   34.9420 C   0  0  0  0  0  0  0  0  0  0  0  0
   38.6180   23.9740   34.2800 N   0  0  0  0  0  0  0  0  0  0  0  0
   39.5550   22.0490   34.4660 H   0  0  0  0  0  0  0  0  0  0  0  0
   39.3420   21.9760   36.8800 H   0  0  0  0  0  0  0  0  0  0  0  0
   37.5440   26.1540   34.2020 C   0  0  0  0  0  0  0  0  0  0  0  0
   36.9090   27.1770   34.8650 C   0  0  0  0  0  0  0  0  0  0  0  0
   36.7620   27.1530   35.9370 H   0  0  0  0  0  0  0  0  0  0  0  0
   36.4340   28.2780   34.1620 C   0  0  0  0  0  3  0  0  0  0  0  0
   36.6080   28.3320   32.7950 C   0  0  0  0  0  0  0  0  0  0  0  0
   36.1800   29.3560   32.0540 N   0  0  0  0  0  0  0  0  0  0  0  0
   36.3490   29.4110   30.7210 C   0  0  0  0  0  0  0  0  0  0  0  0
   35.9760   30.2750   30.1750 H   0  0  0  0  0  0  0  0  0  0  0  0
   36.9870   28.4000   29.9930 C   0  0  0  0  0  3  0  0  0  0  0  0
   37.4260   27.3460   30.7680 C   0  0  0  0  0  3  0  0  0  0  0  0
   37.2480   27.3010   32.1360 C   0  0  0  0  0  0  0  0  0  0  0  0
   37.7180   26.2140   32.8200 C   0  0  0  0  0  3  0  0  0  0  0  0
   38.2580   23.8250   38.4950 C   0  0  0  0  0  0  0  0  0  0  0  0
   39.4950   23.4730   38.9560 F   0  0  0  0  0  0  0  0  0  0  0  0
   37.9060   25.0270   39.0530 F   0  0  0  0  0  0  0  0  0  0  0  0
   37.3510   22.8470   38.8970 F   0  0  0  0  0  0  0  0  0  0  0  0
  1  2  1  0  0  0  0
  2  8  1  0  0  0  0
  2  3  2  0  0  0  0
  3 21  1  0  0  0  0
  4  3  1  0  0  0  0
  5  4  2  0  0  0  0
  6  1  2  0  0  0  0
  6  5  1  0  0  0  0
  7  1  1  0  0  0  0
  9 10  1  0  0  0  0
  9  5  1  0  0  0  0
 10 11  1  0  0  0  0
 12 10  2  0  0  0  0
 13 12  1  0  0  0  0
 14 13  2  0  0  0  0
 15 14  1  0  0  0  0
 16 15  1  0  0  0  0
 17 15  2  0  0  0  0
 17 18  1  0  0  0  0
 18 19  2  0  0  0  0
 19 13  1  0  0  0  0
 19 20  1  0  0  0  0
 20  9  2  0  0  0  0
 21 24  1  0  0  0  0
 21 22  1  0  0  0  0
 21 23  1  0  0  0  0
M  END
>  <minimizedAffinity>
-6.15392876

$$$$

 OpenBabel03262520203D

 24 26  0  0  0  0  0  0  0  0999 V2000
   39.1050   22.6070   34.9620 C   0  0  0  0  0  0  0  0  0  0  0  0
   38.9570   22.6200   36.3680 C   0  0  0  0  0  0  0  0  0  0  0  0
   38.4210   23.7570   36.9670 C   0  0  0  0  0  0  0  0  0  0  0  0
   38.0680   24.8020   36.1600 N   0  0  0  0  0  0  0  0  0  0  0  0
   38.2220   24.7560   34.8260 C   0  0  0  0  0  0  0  0  0  0  0  0
   38.7370   23.6620   34.2440 N   0  0  0  0  0  0  0  0  0  0  0  0
   39.5270   21.6910   34.5750 H   0  0  0  0  0  0  0  0  0  0  0  0
   39.2440   21.7830   36.9810 H   0  0  0  0  0  0  0  0  0  0  0  0
   37.8270   25.9040   34.0020 C   0  0  0  0  0  0  0  0  0  0  0  0
   38.2390   25.9930   32.6940 C   0  0  0  0  0  0  0  0  0  0  0  0
   38.8590   25.2300   32.2410 H   0  0  0  0  0  0  0  0  0  0  0  0
   37.8640   27.0820   31.9150 C   0  0  0  0  0  3  0  0  0  0  0  0
   37.0750   28.0690   32.4690 C   0  0  0  0  0  0  0  0  0  0  0  0
   36.6760   29.1420   31.7840 N   0  0  0  0  0  0  0  0  0  0  0  0
   35.9070   30.1050   32.3220 C   0  0  0  0  0  0  0  0  0  0  0  0
   35.6170   30.9550   31.7080 H   0  0  0  0  0  0  0  0  0  0  0  0
   35.4580   30.0670   33.6470 C   0  0  0  0  0  3  0  0  0  0  0  0
   35.8760   28.9540   34.3470 C   0  0  0  0  0  3  0  0  0  0  0  0
   36.6650   27.9710   33.7830 C   0  0  0  0  0  0  0  0  0  0  0  0
   37.0290   26.9040   34.5570 C   0  0  0  0  0  3  0  0  0  0  0  0
   38.2540   23.8010   38.4470 C   0  0  0  0  0  0  0  0  0  0  0  0
   39.4660   23.4440   38.9670 F   0  0  0  0  0  0  0  0  0  0  0  0
   37.9240   25.0470   38.9150 F   0  0  0  0  0  0  0  0  0  0  0  0
   37.3050   22.8790   38.8830 F   0  0  0  0  0  0  0  0  0  0  0  0
  1  2  1  0  0  0  0
  2  3  2  0  0  0  0
  2  8  1  0  0  0  0
  3 21  1  0  0  0  0
  4  3  1  0  0  0  0
  5  4  2  0  0  0  0
  6  5  1  0  0  0  0
  6  1  2  0  0  0  0
  7  1  1  0  0  0  0
  9 20  1  0  0  0  0
  9  5  1  0  0  0  0
 10  9  2  0  0  0  0
 11 10  1  0  0  0  0
 12 13  2  0  0  0  0
 12 10  1  0  0  0  0
 13 19  1  0  0  0  0
 14 15  2  0  0  0  0
 14 13  1  0  0  0  0
 15 17  1  0  0  0  0
 16 15  1  0  0  0  0
 17 18  2  0  0  0  0
 19 18  1  0  0  0  0
 19 20  2  0  0  0  0
 21 24  1  0  0  0  0
 21 23  1  0  0  0  0
 21 22  1  0  0  0  0
M  END
>  <minimizedAffinity>
-6.09837103

$$$$

 OpenBabel03262520203D

 24 26  0  0  0  0  0  0  0  0999 V2000
   35.9850   27.6250   31.9640 C   0  0  0  0  0  0  0  0  0  0  0  0
   35.5700   28.8060   32.6210 C   0  0  0  0  0  0  0  0  0  0  0  0
   35.9600   29.0000   33.9440 C   0  0  0  0  0  0  0  0  0  0  0  0
   36.7240   28.0350   34.5370 N   0  0  0  0  0  0  0  0  0  0  0  0
   37.1020   26.9240   33.8820 C   0  0  0  0  0  0  0  0  0  0  0  0
   36.7300   26.7320   32.6080 N   0  0  0  0  0  0  0  0  0  0  0  0
   35.6430   27.5490   30.9430 H   0  0  0  0  0  0  0  0  0  0  0  0
   34.9670   29.5510   32.1310 H   0  0  0  0  0  0  0  0  0  0  0  0
   37.9230   25.9150   34.5620 C   0  0  0  0  0  0  0  0  0  0  0  0
   38.9800   25.3270   33.9100 C   0  0  0  0  0  0  0  0  0  0  0  0
   39.2330   25.5870   32.8900 H   0  0  0  0  0  0  0  0  0  0  0  0
   39.7570   24.3720   34.5550 C   0  0  0  0  0  3  0  0  0  0  0  0
   39.4540   24.0220   35.8550 C   0  0  0  0  0  0  0  0  0  0  0  0
   40.1540   23.1150   36.5380 N   0  0  0  0  0  0  0  0  0  0  0  0
   39.8620   22.7730   37.8060 C   0  0  0  0  0  0  0  0  0  0  0  0
   40.4720   22.0240   38.3060 H   0  0  0  0  0  0  0  0  0  0  0  0
   38.7980   23.3370   38.5190 C   0  0  0  0  0  3  0  0  0  0  0  0
   38.0810   24.2750   37.8040 C   0  0  0  0  0  3  0  0  0  0  0  0
   38.3910   24.6180   36.5030 C   0  0  0  0  0  0  0  0  0  0  0  0
   37.6220   25.5590   35.8760 C   0  0  0  0  0  3  0  0  0  0  0  0
   35.5370   30.2350   34.6630 C   0  0  0  0  0  0  0  0  0  0  0  0
   34.2690   29.9880   35.1090 F   0  0  0  0  0  0  0  0  0  0  0  0
   36.3320   30.5300   35.7400 F   0  0  0  0  0  0  0  0  0  0  0  0
   35.4900   31.3350   33.8090 F   0  0  0  0  0  0  0  0  0  0  0  0
  1  6  2  0  0  0  0
  1  2  1  0  0  0  0
  2  3  2  0  0  0  0
  3  4  1  0  0  0  0
  3 21  1  0  0  0  0
  5  4  2  0  0  0  0
  5  9  1  0  0  0  0
  6  5  1  0  0  0  0
  7  1  1  0  0  0  0
  8  2  1  0  0  0  0
  9 20  1  0  0  0  0
 10 12  1  0  0  0  0
 10  9  2  0  0  0  0
 11 10  1  0  0  0  0
 12 13  2  0  0  0  0
 13 19  1  0  0  0  0
 13 14  1  0  0  0  0
 14 15  2  0  0  0  0
 15 16  1  0  0  0  0
 15 17  1  0  0  0  0
 18 17  2  0  0  0  0
 19 18  1  0  0  0  0
 20 19  2  0  0  0  0
 21 22  1  0  0  0  0
 21 23  1  0  0  0  0
 24 21  1  0  0  0  0
M  END
>  <minimizedAffinity>
-5.86885405

$$$$

 OpenBabel03262520203D

 24 26  0  0  0  0  0  0  0  0999 V2000
   38.2030   23.7970   38.3810 C   0  0  0  0  0  0  0  0  0  0  0  0
   39.3770   23.0140   38.2950 C   0  0  0  0  0  0  0  0  0  0  0  0
   40.0560   22.9700   37.0800 C   0  0  0  0  0  0  0  0  0  0  0  0
   39.5470   23.6860   36.0340 N   0  0  0  0  0  0  0  0  0  0  0  0
   38.4280   24.4210   36.1500 C   0  0  0  0  0  0  0  0  0  0  0  0
   37.7700   24.4680   37.3180 N   0  0  0  0  0  0  0  0  0  0  0  0
   37.7350   23.7800   39.3540 H   0  0  0  0  0  0  0  0  0  0  0  0
   39.7550   22.4590   39.1350 H   0  0  0  0  0  0  0  0  0  0  0  0
   37.9220   25.1740   34.9970 C   0  0  0  0  0  0  0  0  0  0  0  0
   37.9960   24.6400   33.7330 C   0  0  0  0  0  0  0  0  0  0  0  0
   38.4250   23.6620   33.5540 H   0  0  0  0  0  0  0  0  0  0  0  0
   37.5170   25.3550   32.6410 C   0  0  0  0  0  3  0  0  0  0  0  0
   36.9670   26.6040   32.8420 C   0  0  0  0  0  0  0  0  0  0  0  0
   36.4860   27.3480   31.8440 N   0  0  0  0  0  0  0  0  0  0  0  0
   35.9490   28.5660   32.0380 C   0  0  0  0  0  0  0  0  0  0  0  0
   35.5750   29.1220   31.1800 H   0  0  0  0  0  0  0  0  0  0  0  0
   35.8470   29.1600   33.3010 C   0  0  0  0  0  3  0  0  0  0  0  0
   36.3460   28.3830   34.3250 C   0  0  0  0  0  3  0  0  0  0  0  0
   36.8950   27.1340   34.1150 C   0  0  0  0  0  0  0  0  0  0  0  0
   37.3640   26.4370   35.1940 C   0  0  0  0  0  3  0  0  0  0  0  0
   41.2960   22.1530   36.9590 C   0  0  0  0  0  0  0  0  0  0  0  0
   42.3320   23.0390   37.0410 F   0  0  0  0  0  0  0  0  0  0  0  0
   41.4300   21.2250   37.9610 F   0  0  0  0  0  0  0  0  0  0  0  0
   41.3690   21.5120   35.7250 F   0  0  0  0  0  0  0  0  0  0  0  0
  1  7  1  0  0  0  0
  2  1  1  0  0  0  0
  2  8  1  0  0  0  0
  3  2  2  0  0  0  0
  4  5  2  0  0  0  0
  4  3  1  0  0  0  0
  5  6  1  0  0  0  0
  6  1  2  0  0  0  0
  9 20  1  0  0  0  0
  9  5  1  0  0  0  0
 10  9  2  0  0  0  0
 11 10  1  0  0  0  0
 12 13  2  0  0  0  0
 12 10  1  0  0  0  0
 13 19  1  0  0  0  0
 14 15  2  0  0  0  0
 14 13  1  0  0  0  0
 15 17  1  0  0  0  0
 16 15  1  0  0  0  0
 17 18  2  0  0  0  0
 19 18  1  0  0  0  0
 19 20  2  0  0  0  0
 21 22  1  0  0  0  0
 21  3  1  0  0  0  0
 21 23  1  0  0  0  0
 24 21  1  0  0  0  0
M  END
>  <minimizedAffinity>
-5.84338045

$$$$

 OpenBabel03262520203D

 24 26  0  0  0  0  0  0  0  0999 V2000
   38.1910   25.5340   35.0750 C   0  0  0  0  0  0  0  0  0  0  0  0
   38.2420   25.3460   36.4750 C   0  0  0  0  0  0  0  0  0  0  0  0
   38.1600   24.0480   36.9720 C   0  0  0  0  0  0  0  0  0  0  0  0
   38.0340   23.0240   36.0760 N   0  0  0  0  0  0  0  0  0  0  0  0
   37.9900   23.2380   34.7500 C   0  0  0  0  0  0  0  0  0  0  0  0
   38.0680   24.4870   34.2660 N   0  0  0  0  0  0  0  0  0  0  0  0
   38.2600   26.5680   34.7700 H   0  0  0  0  0  0  0  0  0  0  0  0
   38.3410   26.1710   37.1590 H   0  0  0  0  0  0  0  0  0  0  0  0
   37.8540   22.1050   33.8280 C   0  0  0  0  0  0  0  0  0  0  0  0
   38.8560   21.8150   32.9330 C   0  0  0  0  0  0  0  0  0  0  0  0
   39.7610   22.4070   32.8840 H   0  0  0  0  0  0  0  0  0  0  0  0
   38.7250   20.7420   32.0590 C   0  0  0  0  0  3  0  0  0  0  0  0
   37.5800   19.9730   32.1020 C   0  0  0  0  0  0  0  0  0  0  0  0
   37.3850   18.9280   31.2950 N   0  0  0  0  0  0  0  0  0  0  0  0
   36.2700   18.1770   31.3350 C   0  0  0  0  0  0  0  0  0  0  0  0
   36.1720   17.3380   30.6490 H   0  0  0  0  0  0  0  0  0  0  0  0
   35.2170   18.4250   32.2240 C   0  0  0  0  0  3  0  0  0  0  0  0
   35.4300   19.5070   33.0530 C   0  0  0  0  0  3  0  0  0  0  0  0
   36.5790   20.2700   33.0040 C   0  0  0  0  0  0  0  0  0  0  0  0
   36.6990   21.3250   33.8660 C   0  0  0  0  0  3  0  0  0  0  0  0
   38.2100   23.8180   38.4440 C   0  0  0  0  0  0  0  0  0  0  0  0
   37.9060   25.0200   39.0160 F   0  0  0  0  0  0  0  0  0  0  0  0
   37.3020   22.8840   38.8740 F   0  0  0  0  0  0  0  0  0  0  0  0
   39.4860   23.4470   38.8620 F   0  0  0  0  0  0  0  0  0  0  0  0
  1  2  1  0  0  0  0
  2  3  2  0  0  0  0
  2  8  1  0  0  0  0
  3 21  1  0  0  0  0
  4  3  1  0  0  0  0
  5  4  2  0  0  0  0
  6  5  1  0  0  0  0
  6  1  2  0  0  0  0
  7  1  1  0  0  0  0
  9 20  1  0  0  0  0
  9  5  1  0  0  0  0
 10  9  2  0  0  0  0
 11 10  1  0  0  0  0
 12 13  2  0  0  0  0
 12 10  1  0  0  0  0
 13 19  1  0  0  0  0
 14 15  2  0  0  0  0
 14 13  1  0  0  0  0
 15 17  1  0  0  0  0
 16 15  1  0  0  0  0
 17 18  2  0  0  0  0
 19 18  1  0  0  0  0
 19 20  2  0  0  0  0
 21 24  1  0  0  0  0
 21 23  1  0  0  0  0
 21 22  1  0  0  0  0
M  END
>  <minimizedAffinity>
-5.7975378

$$$$

 OpenBabel03262520203D

 24 26  0  0  0  0  0  0  0  0999 V2000
   38.1600   22.0700   34.6510 C   0  0  0  0  0  0  0  0  0  0  0  0
   38.2380   22.2140   36.0550 C   0  0  0  0  0  0  0  0  0  0  0  0
   38.1810   23.4970   36.5930 C   0  0  0  0  0  0  0  0  0  0  0  0
   38.0530   24.5500   35.7310 N   0  0  0  0  0  0  0  0  0  0  0  0
   37.9800   24.3770   34.4000 C   0  0  0  0  0  0  0  0  0  0  0  0
   38.0340   23.1430   33.8770 N   0  0  0  0  0  0  0  0  0  0  0  0
   38.2110   21.0450   34.3130 H   0  0  0  0  0  0  0  0  0  0  0  0
   38.3390   21.3680   36.7120 H   0  0  0  0  0  0  0  0  0  0  0  0
   37.8430   25.5390   33.5160 C   0  0  0  0  0  0  0  0  0  0  0  0
   38.5340   25.5930   32.3290 C   0  0  0  0  0  0  0  0  0  0  0  0
   39.1900   24.7900   32.0170 H   0  0  0  0  0  0  0  0  0  0  0  0
   38.4030   26.6960   31.4930 C   0  0  0  0  0  3  0  0  0  0  0  0
   37.5730   27.7320   31.8670 C   0  0  0  0  0  0  0  0  0  0  0  0
   37.3970   28.8210   31.1160 N   0  0  0  0  0  0  0  0  0  0  0  0
   36.5890   29.8330   31.4790 C   0  0  0  0  0  0  0  0  0  0  0  0
   36.4900   30.6930   30.8210 H   0  0  0  0  0  0  0  0  0  0  0  0
   35.8620   29.8330   32.6760 C   0  0  0  0  0  3  0  0  0  0  0  0
   36.0500   28.7030   33.4440 C   0  0  0  0  0  3  0  0  0  0  0  0
   36.8830   27.6700   33.0600 C   0  0  0  0  0  0  0  0  0  0  0  0
   37.0060   26.5890   33.8900 C   0  0  0  0  0  3  0  0  0  0  0  0
   38.2620   23.6820   38.0700 C   0  0  0  0  0  0  0  0  0  0  0  0
   37.2640   22.9100   38.5940 F   0  0  0  0  0  0  0  0  0  0  0  0
   39.4590   23.2720   38.5990 F   0  0  0  0  0  0  0  0  0  0  0  0
   38.0260   25.0050   38.4350 F   0  0  0  0  0  0  0  0  0  0  0  0
  1  2  1  0  0  0  0
  2  3  2  0  0  0  0
  2  8  1  0  0  0  0
  3 21  1  0  0  0  0
  4  3  1  0  0  0  0
  5  4  2  0  0  0  0
  6  5  1  0  0  0  0
  6  1  2  0  0  0  0
  7  1  1  0  0  0  0
  9 20  1  0  0  0  0
  9  5  1  0  0  0  0
 10  9  2  0  0  0  0
 11 10  1  0  0  0  0
 12 13  2  0  0  0  0
 12 10  1  0  0  0  0
 13 19  1  0  0  0  0
 14 15  2  0  0  0  0
 14 13  1  0  0  0  0
 15 17  1  0  0  0  0
 16 15  1  0  0  0  0
 17 18  2  0  0  0  0
 19 18  1  0  0  0  0
 19 20  2  0  0  0  0
 21 24  1  0  0  0  0
 21 22  1  0  0  0  0
 21 23  1  0  0  0  0
M  END
>  <minimizedAffinity>
-5.6172843

$$$$

 OpenBabel03262520203D

 24 26  0  0  0  0  0  0  0  0999 V2000
   38.2320   23.6380   38.4400 C   0  0  0  0  0  0  0  0  0  0  0  0
   39.3890   22.8640   38.1900 C   0  0  0  0  0  0  0  0  0  0  0  0
   40.0630   23.0490   36.9870 C   0  0  0  0  0  0  0  0  0  0  0  0
   39.5680   23.9710   36.1080 N   0  0  0  0  0  0  0  0  0  0  0  0
   38.4650   24.6910   36.3770 C   0  0  0  0  0  0  0  0  0  0  0  0
   37.8120   24.5170   37.5360 N   0  0  0  0  0  0  0  0  0  0  0  0
   37.7670   23.4360   39.3930 H   0  0  0  0  0  0  0  0  0  0  0  0
   39.7570   22.1440   38.9000 H   0  0  0  0  0  0  0  0  0  0  0  0
   37.9720   25.6700   35.4020 C   0  0  0  0  0  0  0  0  0  0  0  0
   37.9170   27.0050   35.7260 C   0  0  0  0  0  0  0  0  0  0  0  0
   38.2310   27.3660   36.6970 H   0  0  0  0  0  0  0  0  0  0  0  0
   37.4490   27.9310   34.8010 C   0  0  0  0  0  3  0  0  0  0  0  0
   37.0420   27.4950   33.5560 C   0  0  0  0  0  0  0  0  0  0  0  0
   36.5820   28.3250   32.6180 N   0  0  0  0  0  0  0  0  0  0  0  0
   36.1860   27.9020   31.4040 C   0  0  0  0  0  0  0  0  0  0  0  0
   35.8200   28.6310   30.6830 H   0  0  0  0  0  0  0  0  0  0  0  0
   36.2190   26.5570   31.0190 C   0  0  0  0  0  3  0  0  0  0  0  0
   36.6960   25.7080   31.9960 C   0  0  0  0  0  3  0  0  0  0  0  0
   37.1010   26.1530   33.2380 C   0  0  0  0  0  0  0  0  0  0  0  0
   37.5600   25.2350   34.1430 C   0  0  0  0  0  3  0  0  0  0  0  0
   41.2850   22.2470   36.6960 C   0  0  0  0  0  0  0  0  0  0  0  0
   41.3870   21.3440   37.7160 F   0  0  0  0  0  0  0  0  0  0  0  0
   41.2100   21.5630   35.5090 F   0  0  0  0  0  0  0  0  0  0  0  0
   42.4310   23.0390   36.6990 F   0  0  0  0  0  0  0  0  0  0  0  0
  1  7  1  0  0  0  0
  2  1  1  0  0  0  0
  2  8  1  0  0  0  0
  3  2  2  0  0  0  0
  4  5  2  0  0  0  0
  4  3  1  0  0  0  0
  5  6  1  0  0  0  0
  6  1  2  0  0  0  0
  9 10  1  0  0  0  0
  9  5  1  0  0  0  0
 10 11  1  0  0  0  0
 12 10  2  0  0  0  0
 13 12  1  0  0  0  0
 14 13  2  0  0  0  0
 15 14  1  0  0  0  0
 16 15  1  0  0  0  0
 17 15  2  0  0  0  0
 17 18  1  0  0  0  0
 18 19  2  0  0  0  0
 19 13  1  0  0  0  0
 19 20  1  0  0  0  0
 20  9  2  0  0  0  0
 21 24  1  0  0  0  0
 21  3  1  0  0  0  0
 21 22  1  0  0  0  0
 23 21  1  0  0  0  0
M  END
>  <minimizedAffinity>
-5.55339384

$$$$

 OpenBabel03262520203D

 24 26  0  0  0  0  0  0  0  0999 V2000
   35.7950   29.1500   34.1750 C   0  0  0  0  0  0  0  0  0  0  0  0
   35.8820   29.4360   32.7930 C   0  0  0  0  0  0  0  0  0  0  0  0
   36.7220   28.6540   32.0060 C   0  0  0  0  0  0  0  0  0  0  0  0
   37.4210   27.6490   32.6140 N   0  0  0  0  0  0  0  0  0  0  0  0
   37.3140   27.4030   33.9310 C   0  0  0  0  0  0  0  0  0  0  0  0
   36.5050   28.1540   34.6940 N   0  0  0  0  0  0  0  0  0  0  0  0
   35.1230   29.8000   34.7150 H   0  0  0  0  0  0  0  0  0  0  0  0
   35.3210   30.2350   32.3390 H   0  0  0  0  0  0  0  0  0  0  0  0
   38.0840   26.3120   34.5380 C   0  0  0  0  0  0  0  0  0  0  0  0
   39.1570   25.7670   33.8740 C   0  0  0  0  0  0  0  0  0  0  0  0
   39.4600   26.1230   32.8980 H   0  0  0  0  0  0  0  0  0  0  0  0
   39.8850   24.7330   34.4510 C   0  0  0  0  0  3  0  0  0  0  0  0
   39.5190   24.2610   35.6940 C   0  0  0  0  0  0  0  0  0  0  0  0
   40.1700   23.2720   36.3100 N   0  0  0  0  0  0  0  0  0  0  0  0
   39.8140   22.8100   37.5220 C   0  0  0  0  0  0  0  0  0  0  0  0
   40.3870   22.0000   37.9690 H   0  0  0  0  0  0  0  0  0  0  0  0
   38.7310   23.3250   38.2440 C   0  0  0  0  0  3  0  0  0  0  0  0
   38.0650   24.3470   37.5990 C   0  0  0  0  0  3  0  0  0  0  0  0
   38.4400   24.8130   36.3550 C   0  0  0  0  0  0  0  0  0  0  0  0
   37.7180   25.8310   35.7950 C   0  0  0  0  0  3  0  0  0  0  0  0
   36.8350   28.9320   30.5460 C   0  0  0  0  0  0  0  0  0  0  0  0
   38.1250   29.3370   30.3460 F   0  0  0  0  0  0  0  0  0  0  0  0
   36.5940   27.8300   29.7670 F   0  0  0  0  0  0  0  0  0  0  0  0
   35.9890   29.9670   30.1550 F   0  0  0  0  0  0  0  0  0  0  0  0
  1  6  1  0  0  0  0
  1  7  1  0  0  0  0
  2  1  2  0  0  0  0
  3  4  2  0  0  0  0
  3  2  1  0  0  0  0
  4  5  1  0  0  0  0
  5  9  1  0  0  0  0
  5  6  2  0  0  0  0
  8  2  1  0  0  0  0
  9 20  1  0  0  0  0
 10 12  1  0  0  0  0
 10  9  2  0  0  0  0
 11 10  1  0  0  0  0
 12 13  2  0  0  0  0
 13 14  1  0  0  0  0
 13 19  1  0  0  0  0
 14 15  2  0  0  0  0
 15 16  1  0  0  0  0
 15 17  1  0  0  0  0
 18 17  2  0  0  0  0
 19 18  1  0  0  0  0
 20 19  2  0  0  0  0
 21  3  1  0  0  0  0
 22 21  1  0  0  0  0
 23 21  1  0  0  0  0
 24 21  1  0  0  0  0
M  END
>  <minimizedAffinity>
-5.48888016

$$$$

 OpenBabel03262520203D

 24 26  0  0  0  0  0  0  0  0999 V2000
   36.8400   26.6740   32.1190 C   0  0  0  0  0  0  0  0  0  0  0  0
   36.2850   27.8980   32.5580 C   0  0  0  0  0  0  0  0  0  0  0  0
   36.3560   28.2090   33.9130 C   0  0  0  0  0  0  0  0  0  0  0  0
   36.9590   27.3110   34.7480 N   0  0  0  0  0  0  0  0  0  0  0  0
   37.4770   26.1550   34.2970 C   0  0  0  0  0  0  0  0  0  0  0  0
   37.4120   25.8510   32.9920 N   0  0  0  0  0  0  0  0  0  0  0  0
   36.7450   26.5060   31.0570 H   0  0  0  0  0  0  0  0  0  0  0  0
   35.8150   28.5880   31.8790 H   0  0  0  0  0  0  0  0  0  0  0  0
   38.1150   25.2230   35.2330 C   0  0  0  0  0  0  0  0  0  0  0  0
   37.5720   25.0100   36.4770 C   0  0  0  0  0  0  0  0  0  0  0  0
   36.6710   25.5170   36.7980 H   0  0  0  0  0  0  0  0  0  0  0  0
   38.1780   24.1270   37.3640 C   0  0  0  0  0  3  0  0  0  0  0  0
   39.3280   23.4680   36.9790 C   0  0  0  0  0  0  0  0  0  0  0  0
   39.9650   22.6070   37.7750 N   0  0  0  0  0  0  0  0  0  0  0  0
   41.0860   21.9630   37.4020 C   0  0  0  0  0  0  0  0  0  0  0  0
   41.5570   21.2730   38.0990 H   0  0  0  0  0  0  0  0  0  0  0  0
   41.6840   22.1410   36.1490 C   0  0  0  0  0  3  0  0  0  0  0  0
   41.0170   23.0340   35.3340 C   0  0  0  0  0  3  0  0  0  0  0  0
   39.8670   23.6880   35.7270 C   0  0  0  0  0  0  0  0  0  0  0  0
   39.2770   24.5550   34.8500 C   0  0  0  0  0  3  0  0  0  0  0  0
   35.7800   29.4920   34.4050 C   0  0  0  0  0  0  0  0  0  0  0  0
   36.5150   29.8300   35.5060 F   0  0  0  0  0  0  0  0  0  0  0  0
   35.8680   30.5090   33.4890 F   0  0  0  0  0  0  0  0  0  0  0  0
   34.4530   29.3410   34.7990 F   0  0  0  0  0  0  0  0  0  0  0  0
  1  2  2  0  0  0  0
  1  6  1  0  0  0  0
  2  3  1  0  0  0  0
  3 21  1  0  0  0  0
  3  4  2  0  0  0  0
  5  4  1  0  0  0  0
  5  9  1  0  0  0  0
  6  5  2  0  0  0  0
  7  1  1  0  0  0  0
  8  2  1  0  0  0  0
  9 10  1  0  0  0  0
 10 11  1  0  0  0  0
 10 12  2  0  0  0  0
 13 12  1  0  0  0  0
 13 14  1  0  0  0  0
 15 14  2  0  0  0  0
 15 16  1  0  0  0  0
 17 15  1  0  0  0  0
 18 19  1  0  0  0  0
 18 17  2  0  0  0  0
 19 13  2  0  0  0  0
 20  9  2  0  0  0  0
 20 19  1  0  0  0  0
 21 24  1  0  0  0  0
 21 22  1  0  0  0  0
 23 21  1  0  0  0  0
M  END
>  <minimizedAffinity>
-5.478755

$$$$
