
 OpenBabel03272503213D

 38 42  0  0  0  0  0  0  0  0999 V2000
   35.9690   27.8090   31.4890 C   0  0  0  0  0  0  0  0  0  0  0  0
   37.0600   27.0860   32.0200 C   0  0  0  0  0  0  0  0  0  0  0  0
   37.3320   27.2860   33.3920 C   0  0  0  0  0  0  0  0  0  0  0  0
   36.5750   28.1200   34.1100 N   0  0  0  0  0  0  0  0  0  0  0  0
   35.5460   28.7880   33.5690 C   0  0  0  0  0  0  0  0  0  0  0  0
   35.2490   28.6270   32.2580 N   0  0  0  0  0  0  0  0  0  0  0  0
   35.7990   27.6200   30.4240 H   0  0  0  0  0  0  0  0  0  0  0  0
   37.6840   26.4120   31.4730 H   0  0  0  0  0  0  0  0  0  0  0  0
   34.7380   29.6930   34.3800 C   0  0  0  0  0  0  0  0  0  0  0  0
   33.3670   29.5400   34.4050 C   0  0  0  0  0  0  0  0  0  0  0  0
   32.8450   28.7630   33.8400 H   0  0  0  0  0  0  0  0  0  0  0  0
   32.6030   30.3990   35.1760 C   0  0  0  0  0  3  0  0  0  0  0  0
   33.1720   31.4130   35.9270 C   0  0  0  0  0  0  0  0  0  0  0  0
   32.4640   32.2680   36.6870 N   0  0  0  0  0  0  0  0  0  0  0  0
   33.0640   33.2340   37.3960 C   0  0  0  0  0  0  0  0  0  0  0  0
   32.4520   33.9100   38.0030 H   0  0  0  0  0  0  0  0  0  0  0  0
   34.4450   33.3970   37.3790 C   0  0  0  0  0  3  0  0  0  0  0  0
   35.2050   32.5400   36.6100 C   0  0  0  0  0  3  0  0  0  0  0  0
   34.5530   31.5480   35.8870 C   0  0  0  0  0  0  0  0  0  0  0  0
   35.3380   30.6930   35.1170 C   0  0  0  0  0  3  0  0  0  0  0  0
   38.4410   26.5800   34.0450 C   0  0  0  0  0  0  0  0  0  0  0  0
   39.6280   27.0030   34.4770 C   0  0  0  0  0  0  0  0  0  0  0  0
   40.4970   26.1510   35.0560 C   0  0  0  0  0  0  0  0  0  0  0  0
   40.0820   24.8380   35.1680 C   0  0  0  0  0  0  0  0  0  0  0  0
   38.4140   24.8680   34.4190 S   0  0  0  0  0  0  0  0  0  0  0  0
   39.8720   28.0700   34.3460 H   0  0  0  0  0  0  0  0  0  0  0  0
   41.4820   26.3730   35.4440 H   0  0  0  0  0  0  0  0  0  0  0  0
   38.7610   23.6680   37.6480 Cl  0  0  0  0  0  0  0  0  0  0  0  0
   40.1680   23.0710   36.8210 C   0  0  0  0  0  0  0  0  0  0  0  0
   40.7050   23.6500   35.7110 C   0  0  0  0  0  0  0  0  0  0  0  0
   41.8040   23.2140   35.0330 C   0  0  0  0  0  0  0  0  0  0  0  0
   42.4610   22.0750   35.4930 C   0  0  0  0  0  0  0  0  0  0  0  0
   41.9740   21.4460   36.6030 C   0  0  0  0  0  0  0  0  0  0  0  0
   42.7440   20.0060   37.2450 Cl  0  0  0  0  0  0  0  0  0  0  0  0
   40.8330   21.9290   37.2760 C   0  0  0  0  0  0  0  0  0  0  0  0
   42.2090   23.6980   34.1500 H   0  0  0  0  0  0  0  0  0  0  0  0
   43.3370   21.6980   34.9840 H   0  0  0  0  0  0  0  0  0  0  0  0
   40.4470   21.4220   38.1610 H   0  0  0  0  0  0  0  0  0  0  0  0
  1  2  2  0  0  0  0
  1  6  1  0  0  0  0
  2  3  1  0  0  0  0
  3 21  1  0  0  0  0
  3  4  2  0  0  0  0
  5  4  1  0  0  0  0
  5  9  1  0  0  0  0
  6  5  2  0  0  0  0
  7  1  1  0  0  0  0
  8  2  1  0  0  0  0
  9 10  2  0  0  0  0
  9 20  1  0  0  0  0
 10 12  1  0  0  0  0
 11 10  1  0  0  0  0
 12 13  2  0  0  0  0
 13 14  1  0  0  0  0
 14 15  2  0  0  0  0
 15 16  1  0  0  0  0
 17 15  1  0  0  0  0
 18 17  2  0  0  0  0
 19 13  1  0  0  0  0
 19 18  1  0  0  0  0
 20 19  2  0  0  0  0
 21 25  1  0  0  0  0
 21 22  2  0  0  0  0
 22 23  1  0  0  0  0
 23 24  2  0  0  0  0
 23 27  1  0  0  0  0
 24 30  1  0  0  0  0
 25 24  1  0  0  0  0
 26 22  1  0  0  0  0
 29 35  1  0  0  0  0
 29 28  1  0  0  0  0
 30 29  2  0  0  0  0
 31 32  2  0  0  0  0
 31 30  1  0  0  0  0
 32 33  1  0  0  0  0
 33 34  1  0  0  0  0
 33 35  2  0  0  0  0
 35 38  1  0  0  0  0
 36 31  1  0  0  0  0
 37 32  1  0  0  0  0
M  END
>  <minimizedAffinity>
-7.21193695

$$$$

 OpenBabel03272503213D

 38 42  0  0  0  0  0  0  0  0999 V2000
   39.9180   26.1740   29.5670 C   0  0  0  0  0  0  0  0  0  0  0  0
   39.1980   27.2690   30.0940 C   0  0  0  0  0  0  0  0  0  0  0  0
   38.0220   26.9550   30.8110 C   0  0  0  0  0  0  0  0  0  0  0  0
   37.6480   25.6800   30.9590 N   0  0  0  0  0  0  0  0  0  0  0  0
   38.3590   24.6680   30.4430 C   0  0  0  0  0  0  0  0  0  0  0  0
   39.4930   24.9220   29.7480 N   0  0  0  0  0  0  0  0  0  0  0  0
   40.8200   26.4690   29.0200 H   0  0  0  0  0  0  0  0  0  0  0  0
   39.4700   28.2980   29.9940 H   0  0  0  0  0  0  0  0  0  0  0  0
   37.9240   23.2870   30.6210 C   0  0  0  0  0  0  0  0  0  0  0  0
   38.7260   22.2590   30.1710 C   0  0  0  0  0  0  0  0  0  0  0  0
   39.6880   22.4270   29.6780 H   0  0  0  0  0  0  0  0  0  0  0  0
   38.3100   20.9500   30.3420 C   0  0  0  0  0  3  0  0  0  0  0  0
   37.1100   20.6350   30.9530 C   0  0  0  0  0  0  0  0  0  0  0  0
   36.6710   19.3770   31.1370 N   0  0  0  0  0  0  0  0  0  0  0  0
   35.4980   19.1260   31.7360 C   0  0  0  0  0  0  0  0  0  0  0  0
   35.1770   18.0870   31.8680 H   0  0  0  0  0  0  0  0  0  0  0  0
   34.6820   20.1540   32.1950 C   0  0  0  0  0  3  0  0  0  0  0  0
   35.0980   21.4580   32.0230 C   0  0  0  0  0  3  0  0  0  0  0  0
   36.3180   21.6860   31.3990 C   0  0  0  0  0  0  0  0  0  0  0  0
   36.7200   23.0090   31.2350 C   0  0  0  0  0  3  0  0  0  0  0  0
   37.2020   28.0170   31.4050 C   0  0  0  0  0  0  0  0  0  0  0  0
   36.7330   29.1600   30.9030 C   0  0  0  0  0  0  0  0  0  0  0  0
   35.9880   29.9910   31.6580 C   0  0  0  0  0  0  0  0  0  0  0  0
   35.7470   29.5880   32.9570 C   0  0  0  0  0  0  0  0  0  0  0  0
   36.6230   27.9850   33.0590 S   0  0  0  0  0  0  0  0  0  0  0  0
   36.9760   29.3980   29.8550 H   0  0  0  0  0  0  0  0  0  0  0  0
   35.5540   30.9380   31.3660 H   0  0  0  0  0  0  0  0  0  0  0  0
   32.7420   29.1070   32.9540 Cl  0  0  0  0  0  0  0  0  0  0  0  0
   33.6660   30.0080   34.1180 C   0  0  0  0  0  0  0  0  0  0  0  0
   35.0150   30.1810   34.0540 C   0  0  0  0  0  0  0  0  0  0  0  0
   35.7760   30.8790   34.9450 C   0  0  0  0  0  0  0  0  0  0  0  0
   35.1450   31.4810   36.0310 C   0  0  0  0  0  0  0  0  0  0  0  0
   33.7910   31.3460   36.1540 C   0  0  0  0  0  0  0  0  0  0  0  0
   32.9220   32.0740   37.4940 Cl  0  0  0  0  0  0  0  0  0  0  0  0
   33.0390   30.6150   35.2100 C   0  0  0  0  0  0  0  0  0  0  0  0
   36.8520   31.0000   34.8670 H   0  0  0  0  0  0  0  0  0  0  0  0
   35.7120   32.0440   36.7590 H   0  0  0  0  0  0  0  0  0  0  0  0
   31.9600   30.5100   35.3150 H   0  0  0  0  0  0  0  0  0  0  0  0
  1  6  2  0  0  0  0
  1  2  1  0  0  0  0
  2  3  2  0  0  0  0
  3  4  1  0  0  0  0
  3 21  1  0  0  0  0
  5  9  1  0  0  0  0
  5  4  2  0  0  0  0
  6  5  1  0  0  0  0
  7  1  1  0  0  0  0
  8  2  1  0  0  0  0
  9 20  1  0  0  0  0
 10 12  1  0  0  0  0
 10  9  2  0  0  0  0
 11 10  1  0  0  0  0
 12 13  2  0  0  0  0
 13 14  1  0  0  0  0
 13 19  1  0  0  0  0
 14 15  2  0  0  0  0
 15 16  1  0  0  0  0
 15 17  1  0  0  0  0
 18 17  2  0  0  0  0
 19 18  1  0  0  0  0
 20 19  2  0  0  0  0
 21 25  1  0  0  0  0
 22 21  2  0  0  0  0
 22 23  1  0  0  0  0
 23 24  2  0  0  0  0
 24 25  1  0  0  0  0
 24 30  1  0  0  0  0
 26 22  1  0  0  0  0
 27 23  1  0  0  0  0
 28 29  1  0  0  0  0
 29 35  1  0  0  0  0
 30 29  2  0  0  0  0
 30 31  1  0  0  0  0
 31 32  2  0  0  0  0
 32 33  1  0  0  0  0
 32 37  1  0  0  0  0
 33 34  1  0  0  0  0
 35 38  1  0  0  0  0
 35 33  2  0  0  0  0
 36 31  1  0  0  0  0
M  END
>  <minimizedAffinity>
-6.77806187

$$$$

 OpenBabel03272503213D

 38 42  0  0  0  0  0  0  0  0999 V2000
   35.9470   27.5950   31.7480 C   0  0  0  0  0  0  0  0  0  0  0  0
   37.0460   26.8450   32.2200 C   0  0  0  0  0  0  0  0  0  0  0  0
   37.4750   27.1260   33.5370 C   0  0  0  0  0  0  0  0  0  0  0  0
   36.8460   28.0570   34.2610 N   0  0  0  0  0  0  0  0  0  0  0  0
   35.8050   28.7480   33.7760 C   0  0  0  0  0  0  0  0  0  0  0  0
   35.3600   28.5120   32.5200 N   0  0  0  0  0  0  0  0  0  0  0  0
   35.6540   27.3420   30.7240 H   0  0  0  0  0  0  0  0  0  0  0  0
   37.5700   26.0950   31.6670 H   0  0  0  0  0  0  0  0  0  0  0  0
   35.1400   29.7590   34.5930 C   0  0  0  0  0  0  0  0  0  0  0  0
   35.8990   30.6920   35.2690 C   0  0  0  0  0  0  0  0  0  0  0  0
   36.9910   30.7150   35.2250 H   0  0  0  0  0  0  0  0  0  0  0  0
   35.2650   31.6500   36.0420 C   0  0  0  0  0  3  0  0  0  0  0  0
   33.8880   31.7030   36.1600 C   0  0  0  0  0  0  0  0  0  0  0  0
   33.2350   32.6170   36.9010 N   0  0  0  0  0  0  0  0  0  0  0  0
   31.8970   32.6250   36.9830 C   0  0  0  0  0  0  0  0  0  0  0  0
   31.4040   33.3860   37.5970 H   0  0  0  0  0  0  0  0  0  0  0  0
   31.1220   31.6890   36.3060 C   0  0  0  0  0  3  0  0  0  0  0  0
   31.7560   30.7360   35.5360 C   0  0  0  0  0  3  0  0  0  0  0  0
   33.1440   30.7540   35.4710 C   0  0  0  0  0  0  0  0  0  0  0  0
   33.7640   29.7830   34.6890 C   0  0  0  0  0  3  0  0  0  0  0  0
   38.6050   26.4000   34.1270 C   0  0  0  0  0  0  0  0  0  0  0  0
   39.7990   26.8140   34.5520 C   0  0  0  0  0  0  0  0  0  0  0  0
   40.6890   25.9420   35.0650 C   0  0  0  0  0  0  0  0  0  0  0  0
   40.2900   24.6210   35.1190 C   0  0  0  0  0  0  0  0  0  0  0  0
   38.6040   24.6710   34.4130 S   0  0  0  0  0  0  0  0  0  0  0  0
   40.0290   27.8890   34.4690 H   0  0  0  0  0  0  0  0  0  0  0  0
   41.6820   26.1550   35.4400 H   0  0  0  0  0  0  0  0  0  0  0  0
   42.2700   23.3500   33.1880 Cl  0  0  0  0  0  0  0  0  0  0  0  0
   41.8360   22.7900   34.7750 C   0  0  0  0  0  0  0  0  0  0  0  0
   40.9370   23.4140   35.5860 C   0  0  0  0  0  0  0  0  0  0  0  0
   40.5700   23.0090   36.8350 C   0  0  0  0  0  0  0  0  0  0  0  0
   41.1490   21.8550   37.3580 C   0  0  0  0  0  0  0  0  0  0  0  0
   42.0590   21.1800   36.5940 C   0  0  0  0  0  0  0  0  0  0  0  0
   42.8330   19.7180   37.1810 Cl  0  0  0  0  0  0  0  0  0  0  0  0
   42.4120   21.6330   35.3060 C   0  0  0  0  0  0  0  0  0  0  0  0
   39.8500   23.5290   37.4590 H   0  0  0  0  0  0  0  0  0  0  0  0
   40.8840   21.5000   38.3440 H   0  0  0  0  0  0  0  0  0  0  0  0
   43.1400   21.0910   34.7020 H   0  0  0  0  0  0  0  0  0  0  0  0
  1  2  2  0  0  0  0
  1  6  1  0  0  0  0
  2  3  1  0  0  0  0
  3 21  1  0  0  0  0
  3  4  2  0  0  0  0
  5  4  1  0  0  0  0
  5  9  1  0  0  0  0
  6  5  2  0  0  0  0
  7  1  1  0  0  0  0
  8  2  1  0  0  0  0
  9 20  2  0  0  0  0
  9 10  1  0  0  0  0
 10 12  2  0  0  0  0
 11 10  1  0  0  0  0
 12 13  1  0  0  0  0
 13 14  1  0  0  0  0
 14 15  2  0  0  0  0
 15 16  1  0  0  0  0
 17 15  1  0  0  0  0
 18 17  2  0  0  0  0
 19 18  1  0  0  0  0
 19 13  2  0  0  0  0
 20 19  1  0  0  0  0
 21 25  1  0  0  0  0
 21 22  2  0  0  0  0
 22 23  1  0  0  0  0
 23 24  2  0  0  0  0
 23 27  1  0  0  0  0
 24 30  1  0  0  0  0
 25 24  1  0  0  0  0
 26 22  1  0  0  0  0
 28 29  1  0  0  0  0
 29 35  2  0  0  0  0
 29 30  1  0  0  0  0
 30 31  2  0  0  0  0
 31 32  1  0  0  0  0
 31 36  1  0  0  0  0
 32 37  1  0  0  0  0
 33 34  1  0  0  0  0
 33 32  2  0  0  0  0
 35 33  1  0  0  0  0
 38 35  1  0  0  0  0
M  END
>  <minimizedAffinity>
-6.69200134

$$$$

 OpenBabel03272503213D

 38 42  0  0  0  0  0  0  0  0999 V2000
   36.0520   29.4570   31.1400 C   0  0  0  0  0  0  0  0  0  0  0  0
   36.6260   28.1980   31.4230 C   0  0  0  0  0  0  0  0  0  0  0  0
   36.6490   27.8140   32.7830 C   0  0  0  0  0  0  0  0  0  0  0  0
   36.1460   28.6280   33.7170 N   0  0  0  0  0  0  0  0  0  0  0  0
   35.6090   29.8160   33.4070 C   0  0  0  0  0  0  0  0  0  0  0  0
   35.5650   30.2240   32.1170 N   0  0  0  0  0  0  0  0  0  0  0  0
   36.0580   29.7080   30.0740 H   0  0  0  0  0  0  0  0  0  0  0  0
   37.0360   27.5260   30.7010 H   0  0  0  0  0  0  0  0  0  0  0  0
   35.0670   30.6810   34.4500 C   0  0  0  0  0  0  0  0  0  0  0  0
   35.8770   31.0700   35.4970 C   0  0  0  0  0  0  0  0  0  0  0  0
   36.9220   30.7600   35.5880 H   0  0  0  0  0  0  0  0  0  0  0  0
   35.3610   31.8920   36.4850 C   0  0  0  0  0  3  0  0  0  0  0  0
   34.0520   32.3370   36.4580 C   0  0  0  0  0  0  0  0  0  0  0  0
   33.5130   33.1350   37.3980 N   0  0  0  0  0  0  0  0  0  0  0  0
   32.2380   33.5390   37.3250 C   0  0  0  0  0  0  0  0  0  0  0  0
   31.8370   34.1880   38.1110 H   0  0  0  0  0  0  0  0  0  0  0  0
   31.4120   33.1530   36.2740 C   0  0  0  0  0  3  0  0  0  0  0  0
   31.9280   32.3350   35.2910 C   0  0  0  0  0  3  0  0  0  0  0  0
   33.2550   31.9330   35.3950 C   0  0  0  0  0  0  0  0  0  0  0  0
   33.7570   31.1070   34.3920 C   0  0  0  0  0  3  0  0  0  0  0  0
   37.2190   26.5240   33.1870 C   0  0  0  0  0  0  0  0  0  0  0  0
   37.0570   25.2930   32.7000 C   0  0  0  0  0  0  0  0  0  0  0  0
   37.6990   24.2440   33.2500 C   0  0  0  0  0  0  0  0  0  0  0  0
   38.5170   24.5230   34.3280 C   0  0  0  0  0  0  0  0  0  0  0  0
   38.3350   26.3320   34.5250 S   0  0  0  0  0  0  0  0  0  0  0  0
   36.3850   25.1670   31.8360 H   0  0  0  0  0  0  0  0  0  0  0  0
   37.6500   23.2060   32.9480 H   0  0  0  0  0  0  0  0  0  0  0  0
   37.5230   24.1120   37.1750 Cl  0  0  0  0  0  0  0  0  0  0  0  0
   38.9700   23.4690   36.4590 C   0  0  0  0  0  0  0  0  0  0  0  0
   39.3520   23.6970   35.1720 C   0  0  0  0  0  0  0  0  0  0  0  0
   40.4770   23.2120   34.5730 C   0  0  0  0  0  0  0  0  0  0  0  0
   41.3340   22.4070   35.3190 C   0  0  0  0  0  0  0  0  0  0  0  0
   41.0090   22.1390   36.6190 C   0  0  0  0  0  0  0  0  0  0  0  0
   42.0370   21.1330   37.6250 Cl  0  0  0  0  0  0  0  0  0  0  0  0
   39.8360   22.6610   37.2020 C   0  0  0  0  0  0  0  0  0  0  0  0
   40.7550   23.4110   33.5430 H   0  0  0  0  0  0  0  0  0  0  0  0
   42.2360   22.0030   34.8810 H   0  0  0  0  0  0  0  0  0  0  0  0
   39.5810   22.4430   38.2390 H   0  0  0  0  0  0  0  0  0  0  0  0
  1  2  2  0  0  0  0
  1  6  1  0  0  0  0
  2  3  1  0  0  0  0
  3 21  1  0  0  0  0
  3  4  2  0  0  0  0
  5  4  1  0  0  0  0
  5  9  1  0  0  0  0
  6  5  2  0  0  0  0
  7  1  1  0  0  0  0
  8  2  1  0  0  0  0
  9 10  1  0  0  0  0
 10 11  1  0  0  0  0
 10 12  2  0  0  0  0
 13 12  1  0  0  0  0
 13 14  1  0  0  0  0
 15 14  2  0  0  0  0
 15 16  1  0  0  0  0
 17 15  1  0  0  0  0
 18 19  1  0  0  0  0
 18 17  2  0  0  0  0
 19 13  2  0  0  0  0
 20  9  2  0  0  0  0
 20 19  1  0  0  0  0
 21 25  1  0  0  0  0
 22 21  2  0  0  0  0
 22 23  1  0  0  0  0
 23 24  2  0  0  0  0
 24 25  1  0  0  0  0
 24 30  1  0  0  0  0
 26 22  1  0  0  0  0
 27 23  1  0  0  0  0
 29 28  1  0  0  0  0
 29 35  1  0  0  0  0
 30 29  2  0  0  0  0
 31 30  1  0  0  0  0
 31 32  2  0  0  0  0
 32 33  1  0  0  0  0
 33 35  2  0  0  0  0
 33 34  1  0  0  0  0
 35 38  1  0  0  0  0
 36 31  1  0  0  0  0
 37 32  1  0  0  0  0
M  END
>  <minimizedAffinity>
-6.67277098

$$$$

 OpenBabel03272503213D

 38 42  0  0  0  0  0  0  0  0999 V2000
   37.6340   24.8200   31.2360 C   0  0  0  0  0  0  0  0  0  0  0  0
   36.9950   26.0620   31.4450 C   0  0  0  0  0  0  0  0  0  0  0  0
   37.0250   26.5660   32.7650 C   0  0  0  0  0  0  0  0  0  0  0  0
   37.6360   25.8730   33.7320 N   0  0  0  0  0  0  0  0  0  0  0  0
   38.2320   24.6970   33.4930 C   0  0  0  0  0  0  0  0  0  0  0  0
   38.2280   24.1770   32.2430 N   0  0  0  0  0  0  0  0  0  0  0  0
   37.5830   24.4730   30.1990 H   0  0  0  0  0  0  0  0  0  0  0  0
   36.4980   26.6390   30.6950 H   0  0  0  0  0  0  0  0  0  0  0  0
   38.8910   23.9650   34.5700 C   0  0  0  0  0  0  0  0  0  0  0  0
   38.3400   23.9780   35.8350 C   0  0  0  0  0  0  0  0  0  0  0  0
   37.4190   24.5160   36.0770 H   0  0  0  0  0  0  0  0  0  0  0  0
   38.9670   23.2830   36.8550 C   0  0  0  0  0  3  0  0  0  0  0  0
   40.1350   22.5710   36.6470 C   0  0  0  0  0  0  0  0  0  0  0  0
   40.7740   21.8840   37.6110 N   0  0  0  0  0  0  0  0  0  0  0  0
   41.9040   21.2110   37.3580 C   0  0  0  0  0  0  0  0  0  0  0  0
   42.3940   20.6630   38.1710 H   0  0  0  0  0  0  0  0  0  0  0  0
   42.4690   21.1910   36.0870 C   0  0  0  0  0  3  0  0  0  0  0  0
   41.8430   21.8840   35.0720 C   0  0  0  0  0  3  0  0  0  0  0  0
   40.6720   22.5720   35.3660 C   0  0  0  0  0  0  0  0  0  0  0  0
   40.0550   23.2660   34.3280 C   0  0  0  0  0  3  0  0  0  0  0  0
   36.3940   27.8500   33.0910 C   0  0  0  0  0  0  0  0  0  0  0  0
   35.8130   28.7710   32.3230 C   0  0  0  0  0  0  0  0  0  0  0  0
   35.2960   29.8930   32.8620 C   0  0  0  0  0  0  0  0  0  0  0  0
   35.4070   30.0200   34.2330 C   0  0  0  0  0  0  0  0  0  0  0  0
   36.2730   28.4850   34.7200 S   0  0  0  0  0  0  0  0  0  0  0  0
   35.7700   28.5830   31.2380 H   0  0  0  0  0  0  0  0  0  0  0  0
   34.8040   30.7070   32.3470 H   0  0  0  0  0  0  0  0  0  0  0  0
   32.6660   29.6290   35.4980 Cl  0  0  0  0  0  0  0  0  0  0  0  0
   33.7770   30.9380   35.7700 C   0  0  0  0  0  0  0  0  0  0  0  0
   34.9920   31.0460   35.1640 C   0  0  0  0  0  0  0  0  0  0  0  0
   35.8920   32.0540   35.3500 C   0  0  0  0  0  0  0  0  0  0  0  0
   35.5670   33.0810   36.2330 C   0  0  0  0  0  0  0  0  0  0  0  0
   34.3620   33.0330   36.8730 C   0  0  0  0  0  0  0  0  0  0  0  0
   33.8790   34.2890   38.0000 Cl  0  0  0  0  0  0  0  0  0  0  0  0
   33.4580   31.9720   36.6530 C   0  0  0  0  0  0  0  0  0  0  0  0
   36.8550   32.1130   34.8520 H   0  0  0  0  0  0  0  0  0  0  0  0
   36.2530   33.8990   36.4070 H   0  0  0  0  0  0  0  0  0  0  0  0
   32.4980   31.9390   37.1680 H   0  0  0  0  0  0  0  0  0  0  0  0
  1  2  2  0  0  0  0
  1  6  1  0  0  0  0
  2  3  1  0  0  0  0
  3 21  1  0  0  0  0
  3  4  2  0  0  0  0
  5  4  1  0  0  0  0
  5  9  1  0  0  0  0
  6  5  2  0  0  0  0
  7  1  1  0  0  0  0
  8  2  1  0  0  0  0
  9 10  1  0  0  0  0
 10 11  1  0  0  0  0
 10 12  2  0  0  0  0
 13 12  1  0  0  0  0
 13 14  1  0  0  0  0
 15 14  2  0  0  0  0
 15 16  1  0  0  0  0
 17 15  1  0  0  0  0
 18 19  1  0  0  0  0
 18 17  2  0  0  0  0
 19 13  2  0  0  0  0
 20  9  2  0  0  0  0
 20 19  1  0  0  0  0
 21 25  1  0  0  0  0
 22 23  1  0  0  0  0
 22 21  2  0  0  0  0
 23 24  2  0  0  0  0
 24 25  1  0  0  0  0
 24 30  1  0  0  0  0
 26 22  1  0  0  0  0
 27 23  1  0  0  0  0
 28 29  1  0  0  0  0
 29 35  1  0  0  0  0
 30 31  1  0  0  0  0
 30 29  2  0  0  0  0
 31 32  2  0  0  0  0
 32 37  1  0  0  0  0
 32 33  1  0  0  0  0
 33 34  1  0  0  0  0
 35 33  2  0  0  0  0
 35 38  1  0  0  0  0
 36 31  1  0  0  0  0
M  END
>  <minimizedAffinity>
-6.66751337

$$$$

 OpenBabel03272503213D

 38 42  0  0  0  0  0  0  0  0999 V2000
   36.7130   26.1880   30.9320 C   0  0  0  0  0  0  0  0  0  0  0  0
   36.1320   27.4240   31.2920 C   0  0  0  0  0  0  0  0  0  0  0  0
   36.3170   27.8360   32.6310 C   0  0  0  0  0  0  0  0  0  0  0  0
   37.0110   27.0680   33.4770 N   0  0  0  0  0  0  0  0  0  0  0  0
   37.5470   25.9000   33.0970 C   0  0  0  0  0  0  0  0  0  0  0  0
   37.3950   25.4660   31.8230 N   0  0  0  0  0  0  0  0  0  0  0  0
   36.5410   25.9140   29.8870 H   0  0  0  0  0  0  0  0  0  0  0  0
   35.5720   28.0610   30.6400 H   0  0  0  0  0  0  0  0  0  0  0  0
   38.3000   25.0840   34.0450 C   0  0  0  0  0  0  0  0  0  0  0  0
   39.4220   24.4070   33.6160 C   0  0  0  0  0  0  0  0  0  0  0  0
   39.7860   24.4500   32.5860 H   0  0  0  0  0  0  0  0  0  0  0  0
   40.1340   23.6350   34.5180 C   0  0  0  0  0  3  0  0  0  0  0  0
   39.7540   23.5180   35.8430 C   0  0  0  0  0  0  0  0  0  0  0  0
   40.4180   22.7770   36.7490 N   0  0  0  0  0  0  0  0  0  0  0  0
   40.0070   22.6970   38.0230 C   0  0  0  0  0  0  0  0  0  0  0  0
   40.5760   22.0830   38.7300 H   0  0  0  0  0  0  0  0  0  0  0  0
   38.8770   23.3750   38.4660 C   0  0  0  0  0  3  0  0  0  0  0  0
   38.1700   24.1450   37.5660 C   0  0  0  0  0  3  0  0  0  0  0  0
   38.6210   24.2080   36.2530 C   0  0  0  0  0  0  0  0  0  0  0  0
   37.8920   24.9900   35.3600 C   0  0  0  0  0  3  0  0  0  0  0  0
   35.7590   29.1060   33.1070 C   0  0  0  0  0  0  0  0  0  0  0  0
   35.1140   30.0850   32.4720 C   0  0  0  0  0  0  0  0  0  0  0  0
   34.6890   31.1770   33.1360 C   0  0  0  0  0  0  0  0  0  0  0  0
   34.9620   31.2140   34.4900 C   0  0  0  0  0  0  0  0  0  0  0  0
   35.8430   29.6370   34.7760 S   0  0  0  0  0  0  0  0  0  0  0  0
   34.9410   29.9670   31.3890 H   0  0  0  0  0  0  0  0  0  0  0  0
   34.1600   32.0310   32.7350 H   0  0  0  0  0  0  0  0  0  0  0  0
   36.8590   33.5910   34.6230 Cl  0  0  0  0  0  0  0  0  0  0  0  0
   35.4890   33.2750   35.6450 C   0  0  0  0  0  0  0  0  0  0  0  0
   34.6820   32.1850   35.5260 C   0  0  0  0  0  0  0  0  0  0  0  0
   33.6000   31.9000   36.3050 C   0  0  0  0  0  0  0  0  0  0  0  0
   33.2640   32.7870   37.3260 C   0  0  0  0  0  0  0  0  0  0  0  0
   34.0340   33.9020   37.5000 C   0  0  0  0  0  0  0  0  0  0  0  0
   33.6760   35.0660   38.7630 Cl  0  0  0  0  0  0  0  0  0  0  0  0
   35.1460   34.1590   36.6720 C   0  0  0  0  0  0  0  0  0  0  0  0
   32.9740   31.0210   36.1850 H   0  0  0  0  0  0  0  0  0  0  0  0
   32.4140   32.5970   37.9660 H   0  0  0  0  0  0  0  0  0  0  0  0
   35.7560   35.0510   36.8150 H   0  0  0  0  0  0  0  0  0  0  0  0
  1  2  2  0  0  0  0
  1  6  1  0  0  0  0
  2  3  1  0  0  0  0
  3 21  1  0  0  0  0
  3  4  2  0  0  0  0
  5  4  1  0  0  0  0
  5  9  1  0  0  0  0
  6  5  2  0  0  0  0
  7  1  1  0  0  0  0
  8  2  1  0  0  0  0
  9 20  1  0  0  0  0
 10  9  2  0  0  0  0
 10 12  1  0  0  0  0
 11 10  1  0  0  0  0
 12 13  2  0  0  0  0
 13 19  1  0  0  0  0
 13 14  1  0  0  0  0
 14 15  2  0  0  0  0
 15 17  1  0  0  0  0
 15 16  1  0  0  0  0
 18 17  2  0  0  0  0
 19 18  1  0  0  0  0
 20 19  2  0  0  0  0
 21 25  1  0  0  0  0
 22 21  2  0  0  0  0
 22 23  1  0  0  0  0
 23 24  2  0  0  0  0
 24 25  1  0  0  0  0
 24 30  1  0  0  0  0
 26 22  1  0  0  0  0
 27 23  1  0  0  0  0
 28 29  1  0  0  0  0
 29 35  1  0  0  0  0
 30 29  2  0  0  0  0
 30 31  1  0  0  0  0
 31 32  2  0  0  0  0
 32 33  1  0  0  0  0
 32 37  1  0  0  0  0
 33 34  1  0  0  0  0
 35 38  1  0  0  0  0
 35 33  2  0  0  0  0
 36 31  1  0  0  0  0
M  END
>  <minimizedAffinity>
-6.60189056

$$$$

 OpenBabel03272503213D

 38 42  0  0  0  0  0  0  0  0999 V2000
   36.7530   29.1490   31.1650 C   0  0  0  0  0  0  0  0  0  0  0  0
   37.3170   27.8870   31.4580 C   0  0  0  0  0  0  0  0  0  0  0  0
   37.0740   27.3800   32.7550 C   0  0  0  0  0  0  0  0  0  0  0  0
   36.3450   28.0870   33.6240 N   0  0  0  0  0  0  0  0  0  0  0  0
   35.8260   29.2820   33.3070 C   0  0  0  0  0  0  0  0  0  0  0  0
   36.0330   29.8060   32.0760 N   0  0  0  0  0  0  0  0  0  0  0  0
   36.9700   29.4970   30.1510 H   0  0  0  0  0  0  0  0  0  0  0  0
   37.9040   27.2980   30.7870 H   0  0  0  0  0  0  0  0  0  0  0  0
   35.0340   30.0290   34.2800 C   0  0  0  0  0  0  0  0  0  0  0  0
   33.7780   29.5750   34.6240 C   0  0  0  0  0  0  0  0  0  0  0  0
   33.3360   28.6690   34.2010 H   0  0  0  0  0  0  0  0  0  0  0  0
   33.0300   30.2860   35.5470 C   0  0  0  0  0  3  0  0  0  0  0  0
   33.5020   31.4440   36.1380 C   0  0  0  0  0  0  0  0  0  0  0  0
   32.8060   32.1630   37.0370 N   0  0  0  0  0  0  0  0  0  0  0  0
   33.3100   33.2790   37.5810 C   0  0  0  0  0  0  0  0  0  0  0  0
   32.7110   33.8360   38.3100 H   0  0  0  0  0  0  0  0  0  0  0  0
   34.5750   33.7460   37.2410 C   0  0  0  0  0  3  0  0  0  0  0  0
   35.3190   33.0360   36.3210 C   0  0  0  0  0  3  0  0  0  0  0  0
   34.7690   31.8830   35.7760 C   0  0  0  0  0  0  0  0  0  0  0  0
   35.5360   31.1800   34.8490 C   0  0  0  0  0  3  0  0  0  0  0  0
   37.6100   26.0770   33.1610 C   0  0  0  0  0  0  0  0  0  0  0  0
   37.2990   24.8350   32.7890 C   0  0  0  0  0  0  0  0  0  0  0  0
   37.9440   23.7750   33.3130 C   0  0  0  0  0  0  0  0  0  0  0  0
   38.9280   24.0550   34.2420 C   0  0  0  0  0  0  0  0  0  0  0  0
   38.8960   25.8810   34.3370 S   0  0  0  0  0  0  0  0  0  0  0  0
   36.5000   24.7090   32.0400 H   0  0  0  0  0  0  0  0  0  0  0  0
   37.7830   22.7280   33.0930 H   0  0  0  0  0  0  0  0  0  0  0  0
   41.3320   22.9490   32.7390 Cl  0  0  0  0  0  0  0  0  0  0  0  0
   40.9200   22.6890   34.4070 C   0  0  0  0  0  0  0  0  0  0  0  0
   39.8220   23.2200   35.0130 C   0  0  0  0  0  0  0  0  0  0  0  0
   39.4630   23.0420   36.3170 C   0  0  0  0  0  0  0  0  0  0  0  0
   40.2730   22.2500   37.1280 C   0  0  0  0  0  0  0  0  0  0  0  0
   41.3910   21.6870   36.5800 C   0  0  0  0  0  0  0  0  0  0  0  0
   42.4620   20.6770   37.5350 Cl  0  0  0  0  0  0  0  0  0  0  0  0
   41.7270   21.8960   35.2270 C   0  0  0  0  0  0  0  0  0  0  0  0
   38.5800   23.4780   36.7730 H   0  0  0  0  0  0  0  0  0  0  0  0
   40.0230   22.0830   38.1660 H   0  0  0  0  0  0  0  0  0  0  0  0
   42.6210   21.4450   34.7950 H   0  0  0  0  0  0  0  0  0  0  0  0
  1  2  2  0  0  0  0
  1  6  1  0  0  0  0
  2  3  1  0  0  0  0
  3 21  1  0  0  0  0
  3  4  2  0  0  0  0
  5  4  1  0  0  0  0
  5  9  1  0  0  0  0
  6  5  2  0  0  0  0
  7  1  1  0  0  0  0
  8  2  1  0  0  0  0
  9 10  2  0  0  0  0
  9 20  1  0  0  0  0
 10 12  1  0  0  0  0
 11 10  1  0  0  0  0
 12 13  2  0  0  0  0
 13 14  1  0  0  0  0
 14 15  2  0  0  0  0
 15 16  1  0  0  0  0
 17 15  1  0  0  0  0
 18 17  2  0  0  0  0
 19 13  1  0  0  0  0
 19 18  1  0  0  0  0
 20 19  2  0  0  0  0
 21 25  1  0  0  0  0
 22 21  2  0  0  0  0
 22 23  1  0  0  0  0
 23 24  2  0  0  0  0
 24 25  1  0  0  0  0
 24 30  1  0  0  0  0
 26 22  1  0  0  0  0
 27 23  1  0  0  0  0
 28 29  1  0  0  0  0
 29 30  2  0  0  0  0
 29 35  1  0  0  0  0
 30 31  1  0  0  0  0
 31 36  1  0  0  0  0
 31 32  2  0  0  0  0
 32 37  1  0  0  0  0
 33 32  1  0  0  0  0
 33 34  1  0  0  0  0
 35 33  2  0  0  0  0
 38 35  1  0  0  0  0
M  END
>  <minimizedAffinity>
-6.52104473

$$$$

 OpenBabel03272503213D

 38 42  0  0  0  0  0  0  0  0999 V2000
   39.7900   25.4490   31.5200 C   0  0  0  0  0  0  0  0  0  0  0  0
   39.1300   26.6500   31.8620 C   0  0  0  0  0  0  0  0  0  0  0  0
   37.7630   26.5370   32.2000 C   0  0  0  0  0  0  0  0  0  0  0  0
   37.1660   25.3410   32.1820 N   0  0  0  0  0  0  0  0  0  0  0  0
   37.8270   24.2230   31.8520 C   0  0  0  0  0  0  0  0  0  0  0  0
   39.1390   24.2840   31.5220 N   0  0  0  0  0  0  0  0  0  0  0  0
   40.8460   25.5890   31.2670 H   0  0  0  0  0  0  0  0  0  0  0  0
   39.5780   27.6200   31.8850 H   0  0  0  0  0  0  0  0  0  0  0  0
   37.1460   22.9320   31.8430 C   0  0  0  0  0  0  0  0  0  0  0  0
   35.7680   22.8910   31.8900 C   0  0  0  0  0  0  0  0  0  0  0  0
   35.1480   23.7910   31.9350 H   0  0  0  0  0  0  0  0  0  0  0  0
   35.1250   21.6650   31.8810 C   0  0  0  0  0  3  0  0  0  0  0  0
   35.8230   20.4720   31.8260 C   0  0  0  0  0  0  0  0  0  0  0  0
   35.2350   19.2620   31.8160 N   0  0  0  0  0  0  0  0  0  0  0  0
   35.9580   18.1340   31.7620 C   0  0  0  0  0  0  0  0  0  0  0  0
   35.4410   17.1680   31.7550 H   0  0  0  0  0  0  0  0  0  0  0  0
   37.3470   18.1630   31.7130 C   0  0  0  0  0  3  0  0  0  0  0  0
   37.9860   19.3860   31.7220 C   0  0  0  0  0  3  0  0  0  0  0  0
   37.2090   20.5370   31.7790 C   0  0  0  0  0  0  0  0  0  0  0  0
   37.8730   21.7610   31.7870 C   0  0  0  0  0  3  0  0  0  0  0  0
   36.9840   27.7220   32.5750 C   0  0  0  0  0  0  0  0  0  0  0  0
   36.4200   28.6810   31.8410 C   0  0  0  0  0  0  0  0  0  0  0  0
   35.7430   29.6890   32.4250 C   0  0  0  0  0  0  0  0  0  0  0  0
   35.6750   29.6630   33.8040 C   0  0  0  0  0  0  0  0  0  0  0  0
   36.6100   28.1510   34.2330 S   0  0  0  0  0  0  0  0  0  0  0  0
   36.5270   28.6190   30.7460 H   0  0  0  0  0  0  0  0  0  0  0  0
   35.2460   30.5190   31.9400 H   0  0  0  0  0  0  0  0  0  0  0  0
   32.6540   29.4160   34.0830 Cl  0  0  0  0  0  0  0  0  0  0  0  0
   33.7110   30.4830   34.9570 C   0  0  0  0  0  0  0  0  0  0  0  0
   35.0600   30.5380   34.7780 C   0  0  0  0  0  0  0  0  0  0  0  0
   35.9230   31.3580   35.4430 C   0  0  0  0  0  0  0  0  0  0  0  0
   35.4090   32.2320   36.3980 C   0  0  0  0  0  0  0  0  0  0  0  0
   34.0620   32.2270   36.6260 C   0  0  0  0  0  0  0  0  0  0  0  0
   33.3370   33.2980   37.8130 Cl  0  0  0  0  0  0  0  0  0  0  0  0
   33.2020   31.3630   35.9170 C   0  0  0  0  0  0  0  0  0  0  0  0
   36.9960   31.3790   35.2780 H   0  0  0  0  0  0  0  0  0  0  0  0
   36.0600   32.8990   36.9460 H   0  0  0  0  0  0  0  0  0  0  0  0
   32.1280   31.3630   36.1040 H   0  0  0  0  0  0  0  0  0  0  0  0
  1  6  2  0  0  0  0
  1  2  1  0  0  0  0
  2  8  1  0  0  0  0
  2  3  2  0  0  0  0
  3 21  1  0  0  0  0
  4  3  1  0  0  0  0
  5  4  2  0  0  0  0
  6  5  1  0  0  0  0
  7  1  1  0  0  0  0
  9  5  1  0  0  0  0
  9 10  1  0  0  0  0
 10 11  1  0  0  0  0
 12 10  2  0  0  0  0
 13 12  1  0  0  0  0
 14 13  1  0  0  0  0
 15 14  2  0  0  0  0
 16 15  1  0  0  0  0
 17 18  2  0  0  0  0
 17 15  1  0  0  0  0
 18 19  1  0  0  0  0
 19 20  1  0  0  0  0
 19 13  2  0  0  0  0
 20  9  2  0  0  0  0
 21 25  1  0  0  0  0
 22 23  1  0  0  0  0
 22 21  2  0  0  0  0
 23 24  2  0  0  0  0
 24 25  1  0  0  0  0
 24 30  1  0  0  0  0
 26 22  1  0  0  0  0
 27 23  1  0  0  0  0
 28 29  1  0  0  0  0
 29 35  1  0  0  0  0
 30 29  2  0  0  0  0
 30 31  1  0  0  0  0
 31 32  2  0  0  0  0
 32 33  1  0  0  0  0
 32 37  1  0  0  0  0
 33 34  1  0  0  0  0
 35 38  1  0  0  0  0
 35 33  2  0  0  0  0
 36 31  1  0  0  0  0
M  END
>  <minimizedAffinity>
-6.51423979

$$$$

 OpenBabel03272503213D

 38 42  0  0  0  0  0  0  0  0999 V2000
   36.2590   28.8740   31.0110 C   0  0  0  0  0  0  0  0  0  0  0  0
   37.0990   28.1100   31.8510 C   0  0  0  0  0  0  0  0  0  0  0  0
   36.7230   28.0380   33.2120 C   0  0  0  0  0  0  0  0  0  0  0  0
   35.6270   28.6740   33.6380 N   0  0  0  0  0  0  0  0  0  0  0  0
   34.8550   29.3890   32.8080 C   0  0  0  0  0  0  0  0  0  0  0  0
   35.1770   29.4850   31.4970 N   0  0  0  0  0  0  0  0  0  0  0  0
   36.5920   28.8990   29.9690 H   0  0  0  0  0  0  0  0  0  0  0  0
   37.9810   27.5910   31.5420 H   0  0  0  0  0  0  0  0  0  0  0  0
   33.6640   30.0710   33.3050 C   0  0  0  0  0  0  0  0  0  0  0  0
   32.5490   30.1620   32.4980 C   0  0  0  0  0  0  0  0  0  0  0  0
   32.5080   29.7430   31.4890 H   0  0  0  0  0  0  0  0  0  0  0  0
   31.4200   30.8100   32.9720 C   0  0  0  0  0  3  0  0  0  0  0  0
   31.3730   31.3720   34.2350 C   0  0  0  0  0  0  0  0  0  0  0  0
   30.2970   32.0090   34.7310 N   0  0  0  0  0  0  0  0  0  0  0  0
   30.3040   32.5370   35.9630 C   0  0  0  0  0  0  0  0  0  0  0  0
   29.4060   33.0480   36.3300 H   0  0  0  0  0  0  0  0  0  0  0  0
   31.4220   32.4510   36.7840 C   0  0  0  0  0  3  0  0  0  0  0  0
   32.5450   31.8060   36.3110 C   0  0  0  0  0  3  0  0  0  0  0  0
   32.5070   31.2680   35.0300 C   0  0  0  0  0  0  0  0  0  0  0  0
   33.6520   30.6210   34.5700 C   0  0  0  0  0  3  0  0  0  0  0  0
   37.5240   27.2670   34.1700 C   0  0  0  0  0  0  0  0  0  0  0  0
   37.9200   27.5370   35.4130 C   0  0  0  0  0  0  0  0  0  0  0  0
   38.6650   26.6540   36.1070 C   0  0  0  0  0  0  0  0  0  0  0  0
   38.9840   25.4780   35.4570 C   0  0  0  0  0  0  0  0  0  0  0  0
   38.1830   25.6800   33.8250 S   0  0  0  0  0  0  0  0  0  0  0  0
   37.6170   28.5020   35.8510 H   0  0  0  0  0  0  0  0  0  0  0  0
   39.0450   26.7580   37.1150 H   0  0  0  0  0  0  0  0  0  0  0  0
   37.5820   23.5580   37.3580 Cl  0  0  0  0  0  0  0  0  0  0  0  0
   39.1820   23.4080   36.6950 C   0  0  0  0  0  0  0  0  0  0  0  0
   39.7450   24.3110   35.8470 C   0  0  0  0  0  0  0  0  0  0  0  0
   40.9940   24.2300   35.3040 C   0  0  0  0  0  0  0  0  0  0  0  0
   41.7910   23.1350   35.6310 C   0  0  0  0  0  0  0  0  0  0  0  0
   41.2850   22.1910   36.4780 C   0  0  0  0  0  0  0  0  0  0  0  0
   42.2260   20.7820   36.9370 Cl  0  0  0  0  0  0  0  0  0  0  0  0
   39.9880   22.3120   37.0180 C   0  0  0  0  0  0  0  0  0  0  0  0
   41.4170   24.9680   34.6290 H   0  0  0  0  0  0  0  0  0  0  0  0
   42.7870   23.0340   35.2220 H   0  0  0  0  0  0  0  0  0  0  0  0
   39.5890   21.5550   37.6930 H   0  0  0  0  0  0  0  0  0  0  0  0
  1  6  2  0  0  0  0
  1  2  1  0  0  0  0
  2  3  2  0  0  0  0
  3  4  1  0  0  0  0
  3 21  1  0  0  0  0
  5  9  1  0  0  0  0
  5  4  2  0  0  0  0
  6  5  1  0  0  0  0
  7  1  1  0  0  0  0
  8  2  1  0  0  0  0
  9 20  1  0  0  0  0
 10 12  1  0  0  0  0
 10  9  2  0  0  0  0
 11 10  1  0  0  0  0
 12 13  2  0  0  0  0
 13 14  1  0  0  0  0
 13 19  1  0  0  0  0
 14 15  2  0  0  0  0
 15 16  1  0  0  0  0
 15 17  1  0  0  0  0
 18 17  2  0  0  0  0
 19 18  1  0  0  0  0
 20 19  2  0  0  0  0
 21 22  2  0  0  0  0
 22 26  1  0  0  0  0
 22 23  1  0  0  0  0
 23 27  1  0  0  0  0
 24 30  1  0  0  0  0
 24 23  2  0  0  0  0
 25 21  1  0  0  0  0
 25 24  1  0  0  0  0
 29 35  1  0  0  0  0
 29 28  1  0  0  0  0
 30 29  2  0  0  0  0
 31 32  2  0  0  0  0
 31 30  1  0  0  0  0
 32 33  1  0  0  0  0
 33 34  1  0  0  0  0
 33 35  2  0  0  0  0
 35 38  1  0  0  0  0
 36 31  1  0  0  0  0
 37 32  1  0  0  0  0
M  END
>  <minimizedAffinity>
-6.49840927

$$$$
