
 OpenBabel03272509573D

 49 53  0  0  0  0  0  0  0  0999 V2000
   33.5360   27.5360   47.6880 C   0  0  0  0  0  0  0  0  0  0  0  0
   33.7090   26.6460   48.2920 H   0  0  0  0  0  0  0  0  0  0  0  0
   33.7620   27.2490   46.6370 H   0  0  0  0  0  0  0  0  0  0  0  0
   32.0920   27.9000   47.7140 C   0  0  0  0  0  0  0  0  0  0  0  0
   31.3460   27.4530   48.7880 C   0  0  0  0  0  0  0  0  0  0  0  0
   30.0000   27.7350   48.9070 C   0  0  0  0  0  0  0  0  0  0  0  0
   29.4050   28.4610   47.9600 N   0  0  0  0  0  0  0  0  0  0  0  0
   30.1470   28.8960   46.9100 C   0  0  0  0  0  0  0  0  0  0  0  0
   31.4580   28.6290   46.7780 N   0  0  0  0  0  0  0  0  0  0  0  0
   31.7850   26.8620   49.5790 H   0  0  0  0  0  0  0  0  0  0  0  0
   29.3980   27.3860   49.7530 H   0  0  0  0  0  0  0  0  0  0  0  0
   29.4600   29.7020   45.8660 C   0  0  0  0  0  0  0  0  0  0  0  0
   29.0900   30.6690   46.2640 H   0  0  0  0  0  0  0  0  0  0  0  0
   30.2290   29.9650   45.1100 H   0  0  0  0  0  0  0  0  0  0  0  0
   28.3460   28.9260   45.2300 C   0  0  0  0  0  0  0  0  0  0  0  0
   27.0430   29.3750   45.1870 C   0  0  0  0  0  0  0  0  0  0  0  0
   26.8060   30.3320   45.6320 H   0  0  0  0  0  0  0  0  0  0  0  0
   26.1140   28.5580   44.5680 C   0  0  0  0  0  3  0  0  0  0  0  0
   26.4620   27.3330   44.0070 C   0  0  0  0  0  0  0  0  0  0  0  0
   25.5600   26.5470   43.4110 N   0  0  0  0  0  0  0  0  0  0  0  0
   25.9490   25.3690   42.8830 C   0  0  0  0  0  0  0  0  0  0  0  0
   25.2600   24.6850   42.3840 H   0  0  0  0  0  0  0  0  0  0  0  0
   27.2640   24.9050   42.9210 C   0  0  0  0  0  3  0  0  0  0  0  0
   28.2020   25.6880   43.5230 C   0  0  0  0  0  3  0  0  0  0  0  0
   27.7850   26.8930   44.0590 C   0  0  0  0  0  0  0  0  0  0  0  0
   28.6990   27.6970   44.6680 C   0  0  0  0  0  3  0  0  0  0  0  0
   34.4250   28.6410   48.1580 C   0  0  0  0  0  0  0  0  0  0  0  0
   33.9340   29.6340   48.1340 H   0  0  0  0  0  0  0  0  0  0  0  0
   35.2930   28.7030   47.4680 H   0  0  0  0  0  0  0  0  0  0  0  0
   34.9660   28.3690   49.4370 O   0  0  0  0  0  0  0  0  0  0  0  0
   37.3140   30.1540   51.5090 C   0  0  0  0  0  0  0  0  0  0  0  0
   38.0550   30.8470   50.5190 C   0  0  0  0  0  0  0  0  0  0  0  0
   37.6830   30.6430   49.1930 C   0  0  0  0  0  0  0  0  0  0  0  0
   36.6350   29.7890   48.9790 N   0  0  0  0  0  0  0  0  0  0  0  0
   35.9550   29.1520   49.9260 C   0  0  0  0  0  0  0  0  0  0  0  0
   36.3060   29.3400   51.2120 N   0  0  0  0  0  0  0  0  0  0  0  0
   37.6570   30.3610   52.5100 H   0  0  0  0  0  0  0  0  0  0  0  0
   38.8720   31.5090   50.7150 H   0  0  0  0  0  0  0  0  0  0  0  0
   38.9150   33.2560   49.0190 F   0  0  0  0  0  0  0  0  0  0  0  0
   38.8960   32.4690   47.9510 C   0  0  0  0  0  0  0  0  0  0  0  0
   38.3180   31.2600   48.0580 C   0  0  0  0  0  0  0  0  0  0  0  0
   38.3530   30.5100   46.8760 C   0  0  0  0  0  0  0  0  0  0  0  0
   38.9260   30.9780   45.7270 C   0  0  0  0  0  0  0  0  0  0  0  0
   39.5060   32.2250   45.6720 C   0  0  0  0  0  0  0  0  0  0  0  0
   39.4800   32.9640   46.8100 C   0  0  0  0  0  0  0  0  0  0  0  0
   37.9250   29.5160   46.8160 H   0  0  0  0  0  0  0  0  0  0  0  0
   38.9500   30.3840   44.8050 H   0  0  0  0  0  0  0  0  0  0  0  0
   39.9520   32.5760   44.7570 H   0  0  0  0  0  0  0  0  0  0  0  0
   39.9310   33.9490   46.7860 H   0  0  0  0  0  0  0  0  0  0  0  0
  1  4  1  0  0  0  0
  1 27  1  0  0  0  0
  1  2  1  0  0  0  0
  3  1  1  0  0  0  0
  4  5  1  0  0  0  0
  5  6  2  0  0  0  0
  5 10  1  0  0  0  0
  6 11  1  0  0  0  0
  7  6  1  0  0  0  0
  8  7  2  0  0  0  0
  9  8  1  0  0  0  0
  9  4  2  0  0  0  0
 12 13  1  0  0  0  0
 12  8  1  0  0  0  0
 14 12  1  0  0  0  0
 15 12  1  0  0  0  0
 16 15  1  0  0  0  0
 16 17  1  0  0  0  0
 18 16  2  0  0  0  0
 19 25  1  0  0  0  0
 19 18  1  0  0  0  0
 20 19  2  0  0  0  0
 21 23  2  0  0  0  0
 21 20  1  0  0  0  0
 22 21  1  0  0  0  0
 23 24  1  0  0  0  0
 24 25  2  0  0  0  0
 25 26  1  0  0  0  0
 26 15  2  0  0  0  0
 27 30  1  0  0  0  0
 28 27  1  0  0  0  0
 29 27  1  0  0  0  0
 30 35  1  0  0  0  0
 31 37  1  0  0  0  0
 32 38  1  0  0  0  0
 32 31  2  0  0  0  0
 33 32  1  0  0  0  0
 34 33  2  0  0  0  0
 34 35  1  0  0  0  0
 35 36  2  0  0  0  0
 36 31  1  0  0  0  0
 40 41  1  0  0  0  0
 40 39  1  0  0  0  0
 41 33  1  0  0  0  0
 42 41  2  0  0  0  0
 43 42  1  0  0  0  0
 44 43  2  0  0  0  0
 44 45  1  0  0  0  0
 45 40  2  0  0  0  0
 46 42  1  0  0  0  0
 47 43  1  0  0  0  0
 48 44  1  0  0  0  0
 49 45  1  0  0  0  0
M  END
>  <minimizedAffinity>
-6.98775911

>  <minimizedRMSD>
1.35172582

$$$$
