
 OpenBabel03272505323D

 43 47  0  0  0  0  0  0  0  0999 V2000
   37.3780   31.1730   47.1030 N   0  0  0  0  0  0  0  0  0  0  0  0
   36.7050   30.9460   45.9410 C   0  0  0  0  0  0  0  0  0  0  0  0
   37.1280   31.4680   44.7350 C   0  0  0  0  0  0  0  0  0  0  0  0
   38.2920   32.2510   44.7530 C   0  0  0  0  0  0  0  0  0  0  0  0
   38.7210   32.7520   43.6790 O   0  0  0  0  0  0  0  0  0  0  0  0
   38.9660   32.4780   45.9220 N   0  0  0  0  0  0  0  0  0  0  0  0
   38.4560   31.9190   47.0090 C   0  0  0  0  0  0  0  0  0  0  0  0
   39.0980   32.1470   48.0620 O   0  0  0  0  0  0  0  0  0  0  0  0
   35.8130   30.3420   45.9440 H   0  0  0  0  0  0  0  0  0  0  0  0
   37.3680   29.4930   50.4230 C   0  0  0  0  0  0  0  0  0  0  0  0
   37.8010   30.0370   49.2060 C   0  0  0  0  0  0  0  0  0  0  0  0
   36.9310   30.6330   48.3150 C   0  0  0  0  0  0  0  0  0  0  0  0
   35.6410   30.6680   48.6680 N   0  0  0  0  0  0  0  0  0  0  0  0
   35.1780   30.1520   49.8390 C   0  0  0  0  0  0  0  0  0  0  0  0
   36.0540   29.5670   50.7050 N   0  0  0  0  0  0  0  0  0  0  0  0
   38.0500   29.0270   51.1200 H   0  0  0  0  0  0  0  0  0  0  0  0
   38.8460   29.9610   49.0150 H   0  0  0  0  0  0  0  0  0  0  0  0
   34.1300   30.1890   50.1070 H   0  0  0  0  0  0  0  0  0  0  0  0
   36.4530   31.2610   43.4620 C   0  0  0  0  0  0  0  0  0  0  0  0
   36.6700   30.1710   42.6680 C   0  0  0  0  0  0  0  0  0  0  0  0
   36.0430   29.9520   41.4580 C   0  0  0  0  0  0  0  0  0  0  0  0
   35.1250   30.9100   41.0130 C   0  0  0  0  0  0  0  0  0  0  0  0
   34.9360   31.9970   41.8460 C   0  0  0  0  0  0  0  0  0  0  0  0
   35.5740   32.1440   43.0020 N   0  0  0  0  0  0  0  0  0  0  0  0
   37.3690   29.4030   42.9670 H   0  0  0  0  0  0  0  0  0  0  0  0
   36.2240   29.0810   40.8340 H   0  0  0  0  0  0  0  0  0  0  0  0
   34.6260   30.7680   40.0830 H   0  0  0  0  0  0  0  0  0  0  0  0
   33.9980   33.0500   41.4710 C   0  0  0  0  0  0  0  0  0  0  0  0
   33.3870   33.8160   42.4520 C   0  0  0  0  0  0  0  0  0  0  0  0
   33.6150   33.6210   43.5040 H   0  0  0  0  0  0  0  0  0  0  0  0
   32.4850   34.8400   42.2430 C   0  0  0  0  0  3  0  0  0  0  0  0
   32.1580   35.1310   40.9350 C   0  0  0  0  0  0  0  0  0  0  0  0
   31.2870   36.1150   40.6480 N   0  0  0  0  0  0  0  0  0  0  0  0
   30.9460   36.4240   39.3770 C   0  0  0  0  0  0  0  0  0  0  0  0
   30.2420   37.2190   39.1550 H   0  0  0  0  0  0  0  0  0  0  0  0
   31.5400   35.6750   38.3610 C   0  0  0  0  0  3  0  0  0  0  0  0
   32.4430   34.6520   38.5940 C   0  0  0  0  0  3  0  0  0  0  0  0
   32.7380   34.3990   39.9180 C   0  0  0  0  0  0  0  0  0  0  0  0
   33.6360   33.3840   40.1820 C   0  0  0  0  0  3  0  0  0  0  0  0
   40.1580   33.2820   45.9270 C   0  0  0  0  0  0  0  0  0  0  0  0
   40.1000   34.2350   44.9740 F   0  0  0  0  0  0  0  0  0  0  0  0
   41.3190   32.5550   45.6610 F   0  0  0  0  0  0  0  0  0  0  0  0
   40.2770   33.9080   47.1620 F   0  0  0  0  0  0  0  0  0  0  0  0
  1 12  1  0  0  0  0
  2  9  1  0  0  0  0
  2  1  1  0  0  0  0
  3  4  1  0  0  0  0
  3  2  2  0  0  0  0
  4  6  1  0  0  0  0
  5  4  2  0  0  0  0
  6 40  1  0  0  0  0
  6  7  1  0  0  0  0
  7  1  1  0  0  0  0
  7  8  2  0  0  0  0
 10 15  1  0  0  0  0
 10 16  1  0  0  0  0
 11 10  2  0  0  0  0
 12 13  2  0  0  0  0
 12 11  1  0  0  0  0
 13 14  1  0  0  0  0
 14 18  1  0  0  0  0
 14 15  2  0  0  0  0
 17 11  1  0  0  0  0
 19  3  1  0  0  0  0
 20 25  1  0  0  0  0
 20 19  2  0  0  0  0
 21 20  1  0  0  0  0
 22 21  2  0  0  0  0
 22 23  1  0  0  0  0
 23 24  2  0  0  0  0
 24 19  1  0  0  0  0
 26 21  1  0  0  0  0
 27 22  1  0  0  0  0
 28 23  1  0  0  0  0
 28 29  1  0  0  0  0
 29 30  1  0  0  0  0
 31 29  2  0  0  0  0
 32 31  1  0  0  0  0
 33 32  1  0  0  0  0
 34 33  2  0  0  0  0
 35 34  1  0  0  0  0
 36 37  2  0  0  0  0
 36 34  1  0  0  0  0
 37 38  1  0  0  0  0
 38 39  1  0  0  0  0
 38 32  2  0  0  0  0
 39 28  2  0  0  0  0
 40 43  1  0  0  0  0
 41 40  1  0  0  0  0
 42 40  1  0  0  0  0
M  END
>  <minimizedAffinity>
-6.91187811

>  <minimizedRMSD>
0.632003009

$$$$
