
 OpenBabel03272505323D

 43 47  0  0  0  0  0  0  0  0999 V2000
   37.3840   31.2620   46.9770 N   0  0  0  0  0  0  0  0  0  0  0  0
   36.6700   31.1220   45.8270 C   0  0  0  0  0  0  0  0  0  0  0  0
   37.0830   31.6810   44.6350 C   0  0  0  0  0  0  0  0  0  0  0  0
   38.2820   32.4100   44.6540 C   0  0  0  0  0  0  0  0  0  0  0  0
   38.7030   32.9430   43.5920 O   0  0  0  0  0  0  0  0  0  0  0  0
   38.9970   32.5490   45.8110 N   0  0  0  0  0  0  0  0  0  0  0  0
   38.4930   31.9630   46.8860 C   0  0  0  0  0  0  0  0  0  0  0  0
   39.1740   32.1100   47.9290 O   0  0  0  0  0  0  0  0  0  0  0  0
   35.7510   30.5590   45.8280 H   0  0  0  0  0  0  0  0  0  0  0  0
   37.4050   29.5060   50.2580 C   0  0  0  0  0  0  0  0  0  0  0  0
   37.8280   30.0870   49.0550 C   0  0  0  0  0  0  0  0  0  0  0  0
   36.9470   30.6840   48.1750 C   0  0  0  0  0  0  0  0  0  0  0  0
   35.6570   30.6830   48.5260 N   0  0  0  0  0  0  0  0  0  0  0  0
   35.2020   30.1300   49.6840 C   0  0  0  0  0  0  0  0  0  0  0  0
   36.0890   29.5450   50.5390 N   0  0  0  0  0  0  0  0  0  0  0  0
   38.0960   29.0390   50.9460 H   0  0  0  0  0  0  0  0  0  0  0  0
   38.8750   30.0390   48.8650 H   0  0  0  0  0  0  0  0  0  0  0  0
   34.1530   30.1390   49.9500 H   0  0  0  0  0  0  0  0  0  0  0  0
   36.3630   31.5670   43.3740 C   0  0  0  0  0  0  0  0  0  0  0  0
   36.4890   30.4970   42.5340 C   0  0  0  0  0  0  0  0  0  0  0  0
   35.8190   30.3650   41.3350 C   0  0  0  0  0  0  0  0  0  0  0  0
   34.9530   31.3950   40.9520 C   0  0  0  0  0  0  0  0  0  0  0  0
   34.8560   32.4590   41.8290 C   0  0  0  0  0  0  0  0  0  0  0  0
   35.5320   32.5210   42.9710 N   0  0  0  0  0  0  0  0  0  0  0  0
   37.1450   29.6750   42.7860 H   0  0  0  0  0  0  0  0  0  0  0  0
   35.9280   29.5080   40.6750 H   0  0  0  0  0  0  0  0  0  0  0  0
   34.4220   31.3220   40.0320 H   0  0  0  0  0  0  0  0  0  0  0  0
   33.9780   33.5830   41.5190 C   0  0  0  0  0  0  0  0  0  0  0  0
   34.5100   34.7570   41.0090 C   0  0  0  0  0  0  0  0  0  0  0  0
   35.5880   34.8300   40.8400 H   0  0  0  0  0  0  0  0  0  0  0  0
   33.8030   35.8940   40.6720 C   0  0  0  0  0  3  0  0  0  0  0  0
   32.4360   35.8610   40.8630 C   0  0  0  0  0  0  0  0  0  0  0  0
   31.6760   36.9290   40.5590 N   0  0  0  0  0  0  0  0  0  0  0  0
   30.3360   36.9300   40.7340 C   0  0  0  0  0  0  0  0  0  0  0  0
   29.7320   37.7950   40.4860 H   0  0  0  0  0  0  0  0  0  0  0  0
   29.7630   35.7660   41.2470 C   0  0  0  0  0  3  0  0  0  0  0  0
   30.4930   34.6360   41.5770 C   0  0  0  0  0  3  0  0  0  0  0  0
   31.8550   34.7180   41.3690 C   0  0  0  0  0  0  0  0  0  0  0  0
   32.6100   33.6070   41.6890 C   0  0  0  0  0  3  0  0  0  0  0  0
   40.2250   33.2990   45.8180 C   0  0  0  0  0  0  0  0  0  0  0  0
   40.2330   34.2200   44.8330 F   0  0  0  0  0  0  0  0  0  0  0  0
   41.3570   32.5110   45.6050 F   0  0  0  0  0  0  0  0  0  0  0  0
   40.3450   33.9600   47.0350 F   0  0  0  0  0  0  0  0  0  0  0  0
  1 12  1  0  0  0  0
  2  9  1  0  0  0  0
  2  1  1  0  0  0  0
  3  4  1  0  0  0  0
  3  2  2  0  0  0  0
  4  6  1  0  0  0  0
  5  4  2  0  0  0  0
  6 40  1  0  0  0  0
  6  7  1  0  0  0  0
  7  1  1  0  0  0  0
  7  8  2  0  0  0  0
 10 15  1  0  0  0  0
 10 16  1  0  0  0  0
 11 10  2  0  0  0  0
 12 13  2  0  0  0  0
 12 11  1  0  0  0  0
 13 14  1  0  0  0  0
 14 18  1  0  0  0  0
 14 15  2  0  0  0  0
 17 11  1  0  0  0  0
 19  3  1  0  0  0  0
 20 25  1  0  0  0  0
 20 19  2  0  0  0  0
 21 20  1  0  0  0  0
 22 21  2  0  0  0  0
 22 23  1  0  0  0  0
 23 24  2  0  0  0  0
 24 19  1  0  0  0  0
 26 21  1  0  0  0  0
 27 22  1  0  0  0  0
 28 39  1  0  0  0  0
 28 23  1  0  0  0  0
 29 28  2  0  0  0  0
 30 29  1  0  0  0  0
 31 32  2  0  0  0  0
 31 29  1  0  0  0  0
 32 38  1  0  0  0  0
 33 34  2  0  0  0  0
 33 32  1  0  0  0  0
 34 36  1  0  0  0  0
 35 34  1  0  0  0  0
 36 37  2  0  0  0  0
 38 37  1  0  0  0  0
 38 39  2  0  0  0  0
 40 43  1  0  0  0  0
 41 40  1  0  0  0  0
 42 40  1  0  0  0  0
M  END
>  <minimizedAffinity>
-7.16214323

>  <minimizedRMSD>
1.16136646

$$$$
