
 OpenBabel03272505273D

 34 37  0  0  0  0  0  0  0  0999 V2000
   37.4010   31.1470   47.0760 N   0  0  0  0  0  0  0  0  0  0  0  0
   36.7680   30.8690   45.9040 C   0  0  0  0  0  0  0  0  0  0  0  0
   37.2030   31.3680   44.6880 C   0  0  0  0  0  0  0  0  0  0  0  0
   38.3470   32.1890   44.7070 C   0  0  0  0  0  0  0  0  0  0  0  0
   38.7770   32.6610   43.6300 O   0  0  0  0  0  0  0  0  0  0  0  0
   38.9830   32.4680   45.8790 N   0  0  0  0  0  0  0  0  0  0  0  0
   38.4640   31.9270   46.9860 C   0  0  0  0  0  0  0  0  0  0  0  0
   39.0740   32.2080   48.0430 O   0  0  0  0  0  0  0  0  0  0  0  0
   35.9010   30.2500   45.8780 H   0  0  0  0  0  0  0  0  0  0  0  0
   36.5210   31.0700   43.4310 C   0  0  0  0  0  0  0  0  0  0  0  0
   36.9030   29.8740   42.8130 C   0  0  0  0  0  0  0  0  0  0  0  0
   37.6480   29.1970   43.2160 H   0  0  0  0  0  0  0  0  0  0  0  0
   36.3370   29.4620   41.6140 C   0  0  0  0  0  3  0  0  0  0  0  0
   35.3770   30.2600   41.0250 C   0  0  0  0  0  0  0  0  0  0  0  0
   34.7880   29.9060   39.8470 N   0  0  0  0  0  0  0  0  0  0  0  0
   33.8520   30.6870   39.2740 C   0  0  0  0  0  0  0  0  0  0  0  0
   33.4800   30.2680   38.3400 H   0  0  0  0  0  0  0  0  0  0  0  0
   33.4630   31.8740   39.8700 C   0  0  0  0  0  3  0  0  0  0  0  0
   34.0440   32.2550   41.0650 C   0  0  0  0  0  3  0  0  0  0  0  0
   35.0020   31.4540   41.6470 C   0  0  0  0  0  0  0  0  0  0  0  0
   35.5590   31.8690   42.8410 C   0  0  0  0  0  3  0  0  0  0  0  0
   37.3340   29.5540   50.4270 C   0  0  0  0  0  0  0  0  0  0  0  0
   37.7980   30.0570   49.2040 C   0  0  0  0  0  0  0  0  0  0  0  0
   36.9470   30.6370   48.2960 C   0  0  0  0  0  0  0  0  0  0  0  0
   35.6330   30.7080   48.6220 N   0  0  0  0  0  0  0  0  0  0  0  0
   35.1500   30.2280   49.8010 C   0  0  0  0  0  0  0  0  0  0  0  0
   35.9980   29.6510   50.7050 N   0  0  0  0  0  0  0  0  0  0  0  0
   37.9510   29.0880   51.1810 H   0  0  0  0  0  0  0  0  0  0  0  0
   38.8440   29.9030   49.1200 H   0  0  0  0  0  0  0  0  0  0  0  0
   34.0890   30.3320   49.9670 H   0  0  0  0  0  0  0  0  0  0  0  0
   40.1590   33.3100   45.8900 C   0  0  0  0  0  0  0  0  0  0  0  0
   40.0440   34.2780   44.9350 F   0  0  0  0  0  0  0  0  0  0  0  0
   41.3280   32.6130   45.6220 F   0  0  0  0  0  0  0  0  0  0  0  0
   40.2470   33.9380   47.1260 F   0  0  0  0  0  0  0  0  0  0  0  0
  1 24  1  0  0  0  0
  2  1  1  0  0  0  0
  3  4  1  0  0  0  0
  3  2  2  0  0  0  0
  4  6  1  0  0  0  0
  5  4  2  0  0  0  0
  6 31  1  0  0  0  0
  6  7  1  0  0  0  0
  7  1  1  0  0  0  0
  7  8  2  0  0  0  0
  9  2  1  0  0  0  0
 10  3  1  0  0  0  0
 11 12  1  0  0  0  0
 11 10  2  0  0  0  0
 13 11  1  0  0  0  0
 14 13  2  0  0  0  0
 14 20  1  0  0  0  0
 15 14  1  0  0  0  0
 16 15  2  0  0  0  0
 16 18  1  0  0  0  0
 17 16  1  0  0  0  0
 18 19  2  0  0  0  0
 19 20  1  0  0  0  0
 20 21  2  0  0  0  0
 21 10  1  0  0  0  0
 22 27  1  0  0  0  0
 22 28  1  0  0  0  0
 23 22  2  0  0  0  0
 24 25  2  0  0  0  0
 24 23  1  0  0  0  0
 25 26  1  0  0  0  0
 26 30  1  0  0  0  0
 26 27  2  0  0  0  0
 29 23  1  0  0  0  0
 31 34  1  0  0  0  0
 32 31  1  0  0  0  0
 33 31  1  0  0  0  0
M  END
>  <minimizedAffinity>
-6.25846291

>  <minimizedRMSD>
0.515882432

$$$$
