
 OpenBabel03272509583D

 49 53  0  0  0  0  0  0  0  0999 V2000
   33.5220   27.5140   47.6370 C   0  0  0  0  0  0  0  0  0  0  0  0
   33.6940   26.6060   48.2130 H   0  0  0  0  0  0  0  0  0  0  0  0
   33.7430   27.2580   46.5770 H   0  0  0  0  0  0  0  0  0  0  0  0
   32.0790   27.8820   47.6790 C   0  0  0  0  0  0  0  0  0  0  0  0
   31.3440   27.4360   48.7610 C   0  0  0  0  0  0  0  0  0  0  0  0
   30.0000   27.7220   48.8950 C   0  0  0  0  0  0  0  0  0  0  0  0
   29.3960   28.4500   47.9540 N   0  0  0  0  0  0  0  0  0  0  0  0
   30.1290   28.8830   46.8960 C   0  0  0  0  0  0  0  0  0  0  0  0
   31.4370   28.6140   46.7500 N   0  0  0  0  0  0  0  0  0  0  0  0
   31.7900   26.8450   49.5470 H   0  0  0  0  0  0  0  0  0  0  0  0
   29.4070   27.3740   49.7460 H   0  0  0  0  0  0  0  0  0  0  0  0
   29.4320   29.6920   45.8600 C   0  0  0  0  0  0  0  0  0  0  0  0
   29.0690   30.6600   46.2630 H   0  0  0  0  0  0  0  0  0  0  0  0
   30.1930   29.9520   45.0950 H   0  0  0  0  0  0  0  0  0  0  0  0
   28.3080   28.9190   45.2370 C   0  0  0  0  0  0  0  0  0  0  0  0
   26.9900   29.3190   45.3040 C   0  0  0  0  0  0  0  0  0  0  0  0
   26.7480   30.2330   45.8310 H   0  0  0  0  0  0  0  0  0  0  0  0
   26.0530   28.5110   44.6840 C   0  0  0  0  0  3  0  0  0  0  0  0
   26.4090   27.3450   44.0170 C   0  0  0  0  0  0  0  0  0  0  0  0
   25.4990   26.5670   43.4200 N   0  0  0  0  0  0  0  0  0  0  0  0
   25.8940   25.4450   42.7850 C   0  0  0  0  0  0  0  0  0  0  0  0
   25.2000   24.7710   42.2800 H   0  0  0  0  0  0  0  0  0  0  0  0
   27.2250   25.0310   42.7120 C   0  0  0  0  0  3  0  0  0  0  0  0
   28.1700   25.8060   43.3130 C   0  0  0  0  0  3  0  0  0  0  0  0
   27.7460   26.9530   43.9570 C   0  0  0  0  0  0  0  0  0  0  0  0
   28.6680   27.7480   44.5680 C   0  0  0  0  0  3  0  0  0  0  0  0
   34.4160   28.6010   48.1370 C   0  0  0  0  0  0  0  0  0  0  0  0
   33.9380   29.6010   48.1190 H   0  0  0  0  0  0  0  0  0  0  0  0
   35.2960   28.6630   47.4620 H   0  0  0  0  0  0  0  0  0  0  0  0
   34.9330   28.3050   49.4200 O   0  0  0  0  0  0  0  0  0  0  0  0
   37.1960   30.0790   51.5930 C   0  0  0  0  0  0  0  0  0  0  0  0
   37.9520   30.8050   50.6400 C   0  0  0  0  0  0  0  0  0  0  0  0
   37.6200   30.6240   49.2990 C   0  0  0  0  0  0  0  0  0  0  0  0
   36.5920   29.7600   49.0390 N   0  0  0  0  0  0  0  0  0  0  0  0
   35.8960   29.0920   49.9530 C   0  0  0  0  0  0  0  0  0  0  0  0
   36.2090   29.2570   51.2520 N   0  0  0  0  0  0  0  0  0  0  0  0
   37.5080   30.2700   52.6080 H   0  0  0  0  0  0  0  0  0  0  0  0
   38.7540   31.4750   50.8710 H   0  0  0  0  0  0  0  0  0  0  0  0
   38.8330   33.2510   49.2210 F   0  0  0  0  0  0  0  0  0  0  0  0
   38.8460   32.4910   48.1330 C   0  0  0  0  0  0  0  0  0  0  0  0
   38.2760   31.2750   48.1950 C   0  0  0  0  0  0  0  0  0  0  0  0
   38.3450   30.5560   46.9960 C   0  0  0  0  0  0  0  0  0  0  0  0
   38.9400   31.0570   45.8730 C   0  0  0  0  0  0  0  0  0  0  0  0
   39.5100   32.3110   45.8630 C   0  0  0  0  0  0  0  0  0  0  0  0
   39.4510   33.0200   47.0190 C   0  0  0  0  0  0  0  0  0  0  0  0
   37.9260   29.5600   46.9010 H   0  0  0  0  0  0  0  0  0  0  0  0
   38.9900   30.4870   44.9370 H   0  0  0  0  0  0  0  0  0  0  0  0
   39.9740   32.6880   44.9680 H   0  0  0  0  0  0  0  0  0  0  0  0
   39.8940   34.0090   47.0300 H   0  0  0  0  0  0  0  0  0  0  0  0
  1  4  1  0  0  0  0
  1 27  1  0  0  0  0
  1  2  1  0  0  0  0
  3  1  1  0  0  0  0
  4  5  1  0  0  0  0
  5  6  2  0  0  0  0
  5 10  1  0  0  0  0
  6 11  1  0  0  0  0
  7  6  1  0  0  0  0
  8  7  2  0  0  0  0
  9  8  1  0  0  0  0
  9  4  2  0  0  0  0
 12 13  1  0  0  0  0
 12  8  1  0  0  0  0
 14 12  1  0  0  0  0
 15 16  1  0  0  0  0
 15 12  1  0  0  0  0
 16 17  1  0  0  0  0
 18 16  2  0  0  0  0
 19 18  1  0  0  0  0
 20 19  2  0  0  0  0
 21 20  1  0  0  0  0
 22 21  1  0  0  0  0
 23 21  2  0  0  0  0
 23 24  1  0  0  0  0
 24 25  2  0  0  0  0
 25 19  1  0  0  0  0
 25 26  1  0  0  0  0
 26 15  2  0  0  0  0
 27 30  1  0  0  0  0
 28 27  1  0  0  0  0
 29 27  1  0  0  0  0
 30 35  1  0  0  0  0
 31 37  1  0  0  0  0
 32 38  1  0  0  0  0
 32 31  2  0  0  0  0
 33 32  1  0  0  0  0
 34 33  2  0  0  0  0
 34 35  1  0  0  0  0
 35 36  2  0  0  0  0
 36 31  1  0  0  0  0
 40 41  1  0  0  0  0
 40 39  1  0  0  0  0
 41 33  1  0  0  0  0
 42 41  2  0  0  0  0
 43 42  1  0  0  0  0
 44 43  2  0  0  0  0
 44 45  1  0  0  0  0
 45 49  1  0  0  0  0
 45 40  2  0  0  0  0
 46 42  1  0  0  0  0
 47 43  1  0  0  0  0
 48 44  1  0  0  0  0
M  END
>  <minimizedAffinity>
-6.95758629

>  <minimizedRMSD>
1.26397407

$$$$
