
 OpenBabel03272510213D

 39 43  0  0  0  0  0  0  0  0999 V2000
   32.7720   29.3680   46.8430 C   0  0  0  0  0  0  0  0  0  0  0  0
   31.8720   28.3400   46.6820 C   0  0  0  0  0  0  0  0  0  0  0  0
   30.8100   28.3940   45.7890 C   0  0  0  0  0  0  0  0  0  0  0  0
   30.6400   29.4970   45.0380 N   0  0  0  0  0  0  0  0  0  0  0  0
   31.5120   30.4990   45.1900 C   0  0  0  0  0  0  0  0  0  0  0  0
   32.5250   30.4270   46.0530 N   0  0  0  0  0  0  0  0  0  0  0  0
   32.0160   27.4380   47.3000 H   0  0  0  0  0  0  0  0  0  0  0  0
   30.1670   27.5170   45.7560 H   0  0  0  0  0  0  0  0  0  0  0  0
   31.3430   31.7040   44.3840 C   0  0  0  0  0  0  0  0  0  0  0  0
   32.4120   32.5700   44.1730 C   0  0  0  0  0  0  0  0  0  0  0  0
   33.3660   32.3210   44.6250 H   0  0  0  0  0  0  0  0  0  0  0  0
   32.3580   33.7190   43.4370 C   0  0  0  0  0  3  0  0  0  0  0  0
   31.1450   34.0380   42.8610 C   0  0  0  0  0  0  0  0  0  0  0  0
   31.0650   35.1660   42.1300 N   0  0  0  0  0  0  0  0  0  0  0  0
   29.9270   35.5640   41.5290 C   0  0  0  0  0  0  0  0  0  0  0  0
   29.8990   36.4660   40.9550 H   0  0  0  0  0  0  0  0  0  0  0  0
   28.8080   34.7560   41.6880 C   0  0  0  0  0  3  0  0  0  0  0  0
   28.8450   33.5800   42.4350 C   0  0  0  0  0  3  0  0  0  0  0  0
   30.0380   33.2210   43.0290 C   0  0  0  0  0  0  0  0  0  0  0  0
   30.1700   32.0680   43.7920 C   0  0  0  0  0  3  0  0  0  0  0  0
   37.4550   29.1780   50.8070 Br  0  0  0  0  0  0  0  0  0  0  0  0
   36.0190   29.2720   49.5570 C   0  0  0  0  0  0  0  0  0  0  0  0
   35.9830   30.2790   48.5850 C   0  0  0  0  0  0  0  0  0  0  0  0
   34.9260   30.2940   47.7170 C   0  0  0  0  0  0  0  0  0  0  0  0
   33.8970   29.3570   47.7610 C   0  0  0  0  0  0  0  0  0  0  0  0
   33.9550   28.3880   48.7170 C   0  0  0  0  0  0  0  0  0  0  0  0
   35.0100   28.3590   49.5980 C   0  0  0  0  0  0  0  0  0  0  0  0
   34.8330   31.0470   46.9360 H   0  0  0  0  0  0  0  0  0  0  0  0
   33.2140   27.6100   48.8460 H   0  0  0  0  0  0  0  0  0  0  0  0
   35.0700   27.5860   50.3700 H   0  0  0  0  0  0  0  0  0  0  0  0
   38.0200   33.1810   49.4360 C   0  0  0  0  0  0  0  0  0  0  0  0
   39.0230   33.1940   48.4210 C   0  0  0  0  0  0  0  0  0  0  0  0
   38.9710   32.1970   47.4670 C   0  0  0  0  0  0  0  0  0  0  0  0
   37.9780   31.2540   47.5280 N   0  0  0  0  0  0  0  0  0  0  0  0
   37.0400   31.2720   48.5090 C   0  0  0  0  0  0  0  0  0  0  0  0
   37.0730   32.2410   49.4550 N   0  0  0  0  0  0  0  0  0  0  0  0
   38.0970   33.9870   50.1720 H   0  0  0  0  0  0  0  0  0  0  0  0
   39.8110   33.8980   48.3270 H   0  0  0  0  0  0  0  0  0  0  0  0
   39.6580   32.0900   46.6550 H   0  0  0  0  0  0  0  0  0  0  0  0
  1 25  1  0  0  0  0
  2  1  1  0  0  0  0
  2  7  1  0  0  0  0
  3  2  2  0  0  0  0
  4  5  2  0  0  0  0
  4  3  1  0  0  0  0
  5  6  1  0  0  0  0
  6  1  2  0  0  0  0
  8  3  1  0  0  0  0
  9  5  1  0  0  0  0
 10  9  1  0  0  0  0
 10 11  1  0  0  0  0
 12 10  2  0  0  0  0
 13 19  1  0  0  0  0
 13 12  1  0  0  0  0
 14 13  2  0  0  0  0
 15 17  2  0  0  0  0
 15 14  1  0  0  0  0
 16 15  1  0  0  0  0
 17 18  1  0  0  0  0
 18 19  2  0  0  0  0
 19 20  1  0  0  0  0
 20  9  2  0  0  0  0
 22 27  1  0  0  0  0
 22 21  1  0  0  0  0
 23 22  2  0  0  0  0
 24 25  2  0  0  0  0
 24 23  1  0  0  0  0
 25 26  1  0  0  0  0
 26 29  1  0  0  0  0
 26 27  2  0  0  0  0
 27 30  1  0  0  0  0
 28 24  1  0  0  0  0
 31 36  1  0  0  0  0
 31 37  1  0  0  0  0
 32 31  2  0  0  0  0
 33 34  2  0  0  0  0
 33 32  1  0  0  0  0
 34 35  1  0  0  0  0
 35 23  1  0  0  0  0
 35 36  2  0  0  0  0
 38 32  1  0  0  0  0
 39 33  1  0  0  0  0
M  END
>  <minimizedAffinity>
-7.07854557

>  <minimizedRMSD>
0.572772324

$$$$
