
 OpenBabel03272502533D

 30 33  0  0  0  0  0  0  0  0999 V2000
   35.9910   30.3030   48.5580 C   0  0  0  0  0  0  0  0  0  0  0  0
   36.0700   29.2720   49.4810 C   0  0  0  0  0  0  0  0  0  0  0  0
   35.0810   28.2950   49.5280 C   0  0  0  0  0  0  0  0  0  0  0  0
   34.0480   28.4200   48.6230 C   0  0  0  0  0  0  0  0  0  0  0  0
   33.9570   29.4460   47.6960 C   0  0  0  0  0  0  0  0  0  0  0  0
   34.9620   30.3630   47.7120 N   0  0  0  0  0  0  0  0  0  0  0  0
   36.8920   29.1990   50.1810 H   0  0  0  0  0  0  0  0  0  0  0  0
   35.1380   27.4910   50.2450 H   0  0  0  0  0  0  0  0  0  0  0  0
   33.2820   27.6590   48.6640 H   0  0  0  0  0  0  0  0  0  0  0  0
   32.8600   29.5640   46.7460 C   0  0  0  0  0  0  0  0  0  0  0  0
   32.0380   28.5430   46.3810 C   0  0  0  0  0  0  0  0  0  0  0  0
   32.1830   27.5630   46.8070 H   0  0  0  0  0  0  0  0  0  0  0  0
   31.0010   28.6670   45.4790 C   0  0  0  0  0  0  0  0  0  0  0  0
   30.7750   29.9040   44.9060 C   0  0  0  0  0  0  0  0  0  0  0  0
   29.7750   30.1250   44.0040 N   0  0  0  0  0  0  0  0  0  0  0  0
   29.6220   31.3760   43.4860 C   0  0  0  0  0  0  0  0  0  0  0  0
   28.8180   31.5210   42.7720 H   0  0  0  0  0  0  0  0  0  0  0  0
   30.4250   32.4430   43.8220 C   0  0  0  0  0  0  0  0  0  0  0  0
   31.4470   32.2470   44.7320 C   0  0  0  0  0  0  0  0  0  0  0  0
   31.5810   30.9760   45.2420 C   0  0  0  0  0  0  0  0  0  0  0  0
   32.6160   30.7860   46.1620 C   0  0  0  0  0  0  0  0  0  0  0  0
   38.1300   33.1110   49.5180 C   0  0  0  0  0  0  0  0  0  0  0  0
   39.0210   33.2220   48.4540 C   0  0  0  0  0  0  0  0  0  0  0  0
   38.8750   32.3090   47.3910 C   0  0  0  0  0  0  0  0  0  0  0  0
   37.8720   31.3920   47.4940 N   0  0  0  0  0  0  0  0  0  0  0  0
   37.0320   31.3100   48.5260 C   0  0  0  0  0  0  0  0  0  0  0  0
   37.1720   32.1860   49.5450 N   0  0  0  0  0  0  0  0  0  0  0  0
   38.2210   33.8080   50.3550 H   0  0  0  0  0  0  0  0  0  0  0  0
   39.8050   33.9590   48.4020 H   0  0  0  0  0  0  0  0  0  0  0  0
   39.5230   32.3180   46.5210 H   0  0  0  0  0  0  0  0  0  0  0  0
  1  2  1  0  0  0  0
  2  3  2  0  0  0  0
  2  7  1  0  0  0  0
  3  8  1  0  0  0  0
  4  9  1  0  0  0  0
  4  3  1  0  0  0  0
  5  6  1  0  0  0  0
  5  4  2  0  0  0  0
  6  1  2  0  0  0  0
 10  5  1  0  0  0  0
 11 10  1  0  0  0  0
 11 12  1  0  0  0  0
 13 11  2  0  0  0  0
 14 20  1  0  0  0  0
 14 13  1  0  0  0  0
 15 14  2  0  0  0  0
 16 18  2  0  0  0  0
 16 15  1  0  0  0  0
 17 16  1  0  0  0  0
 18 19  1  0  0  0  0
 19 20  2  0  0  0  0
 20 21  1  0  0  0  0
 21 10  2  0  0  0  0
 22 27  1  0  0  0  0
 22 28  1  0  0  0  0
 23 22  2  0  0  0  0
 24 25  2  0  0  0  0
 24 23  1  0  0  0  0
 25 26  1  0  0  0  0
 26  1  1  0  0  0  0
 26 27  2  0  0  0  0
 29 23  1  0  0  0  0
 30 24  1  0  0  0  0
M  END
>  <minimizedAffinity>
-5.79165554

>  <minimizedRMSD>
0.823443651

$$$$
