
 OpenBabel03272505313D

 43 47  0  0  0  0  0  0  0  0999 V2000
   37.3640   31.1050   47.1330 N   0  0  0  0  0  0  0  0  0  0  0  0
   36.7620   30.8130   45.9480 C   0  0  0  0  0  0  0  0  0  0  0  0
   37.2250   31.3110   44.7470 C   0  0  0  0  0  0  0  0  0  0  0  0
   38.3540   32.1420   44.7950 C   0  0  0  0  0  0  0  0  0  0  0  0
   38.8180   32.6250   43.7270 O   0  0  0  0  0  0  0  0  0  0  0  0
   38.9580   32.4340   45.9870 N   0  0  0  0  0  0  0  0  0  0  0  0
   38.4160   31.8920   47.0670 C   0  0  0  0  0  0  0  0  0  0  0  0
   38.9940   32.1800   48.1410 O   0  0  0  0  0  0  0  0  0  0  0  0
   35.8950   30.1730   45.9270 H   0  0  0  0  0  0  0  0  0  0  0  0
   37.2310   29.4090   50.4420 C   0  0  0  0  0  0  0  0  0  0  0  0
   37.7030   29.9330   49.2310 C   0  0  0  0  0  0  0  0  0  0  0  0
   36.8780   30.5870   48.3390 C   0  0  0  0  0  0  0  0  0  0  0  0
   35.5910   30.7010   48.6860 N   0  0  0  0  0  0  0  0  0  0  0  0
   35.0900   30.2090   49.8510 C   0  0  0  0  0  0  0  0  0  0  0  0
   35.9230   29.5650   50.7190 N   0  0  0  0  0  0  0  0  0  0  0  0
   37.8780   28.8970   51.1400 H   0  0  0  0  0  0  0  0  0  0  0  0
   38.7430   29.7920   49.0450 H   0  0  0  0  0  0  0  0  0  0  0  0
   34.0450   30.3110   50.1140 H   0  0  0  0  0  0  0  0  0  0  0  0
   36.6240   31.0350   43.4500 C   0  0  0  0  0  0  0  0  0  0  0  0
   36.8630   29.8920   42.7420 C   0  0  0  0  0  0  0  0  0  0  0  0
   36.3070   29.6070   41.5120 C   0  0  0  0  0  0  0  0  0  0  0  0
   35.4400   30.5510   40.9490 C   0  0  0  0  0  0  0  0  0  0  0  0
   35.2260   31.6940   41.6980 C   0  0  0  0  0  0  0  0  0  0  0  0
   35.7960   31.9040   42.8800 N   0  0  0  0  0  0  0  0  0  0  0  0
   37.5250   29.1310   43.1330 H   0  0  0  0  0  0  0  0  0  0  0  0
   36.5050   28.6940   40.9570 H   0  0  0  0  0  0  0  0  0  0  0  0
   34.9960   30.3600   40.0010 H   0  0  0  0  0  0  0  0  0  0  0  0
   34.3380   32.7390   41.1990 C   0  0  0  0  0  0  0  0  0  0  0  0
   34.5230   33.2580   39.9260 C   0  0  0  0  0  0  0  0  0  0  0  0
   35.3390   32.8750   39.3050 H   0  0  0  0  0  0  0  0  0  0  0  0
   33.7640   34.2430   39.3290 C   0  0  0  0  0  3  0  0  0  0  0  0
   32.7210   34.7640   40.0650 C   0  0  0  0  0  0  0  0  0  0  0  0
   31.9330   35.7280   39.5550 N   0  0  0  0  0  0  0  0  0  0  0  0
   30.9040   36.2580   40.2500 C   0  0  0  0  0  0  0  0  0  0  0  0
   30.2740   37.0350   39.8300 H   0  0  0  0  0  0  0  0  0  0  0  0
   30.6840   35.7630   41.5360 C   0  0  0  0  0  3  0  0  0  0  0  0
   31.4600   34.7720   42.1150 C   0  0  0  0  0  3  0  0  0  0  0  0
   32.4900   34.2830   41.3390 C   0  0  0  0  0  0  0  0  0  0  0  0
   33.2820   33.2950   41.8900 C   0  0  0  0  0  3  0  0  0  0  0  0
   40.1160   33.2870   46.0230 C   0  0  0  0  0  0  0  0  0  0  0  0
   40.0260   34.2610   45.0950 F   0  0  0  0  0  0  0  0  0  0  0  0
   41.3080   32.6150   45.7490 F   0  0  0  0  0  0  0  0  0  0  0  0
   40.1990   33.8840   47.2760 F   0  0  0  0  0  0  0  0  0  0  0  0
  1 12  1  0  0  0  0
  2  1  1  0  0  0  0
  3  4  1  0  0  0  0
  3  2  2  0  0  0  0
  4  6  1  0  0  0  0
  5  4  2  0  0  0  0
  6 40  1  0  0  0  0
  6  7  1  0  0  0  0
  7  1  1  0  0  0  0
  7  8  2  0  0  0  0
  9  2  1  0  0  0  0
 10 15  1  0  0  0  0
 10 16  1  0  0  0  0
 11 10  2  0  0  0  0
 12 13  2  0  0  0  0
 12 11  1  0  0  0  0
 13 14  1  0  0  0  0
 14 18  1  0  0  0  0
 14 15  2  0  0  0  0
 17 11  1  0  0  0  0
 19  3  1  0  0  0  0
 20 25  1  0  0  0  0
 20 19  2  0  0  0  0
 21 20  1  0  0  0  0
 22 21  2  0  0  0  0
 22 23  1  0  0  0  0
 23 24  2  0  0  0  0
 24 19  1  0  0  0  0
 26 21  1  0  0  0  0
 27 22  1  0  0  0  0
 28 23  1  0  0  0  0
 28 39  1  0  0  0  0
 29 28  2  0  0  0  0
 30 29  1  0  0  0  0
 31 29  1  0  0  0  0
 31 32  2  0  0  0  0
 32 38  1  0  0  0  0
 33 32  1  0  0  0  0
 33 34  2  0  0  0  0
 34 36  1  0  0  0  0
 35 34  1  0  0  0  0
 36 37  2  0  0  0  0
 38 39  2  0  0  0  0
 38 37  1  0  0  0  0
 40 43  1  0  0  0  0
 41 40  1  0  0  0  0
 42 40  1  0  0  0  0
M  END
>  <minimizedAffinity>
-7.04069948

>  <minimizedRMSD>
0.464835256

$$$$
