
 OpenBabel03262520443D

 31 34  0  0  1  0  0  0  0  0999 V2000
   38.8160   32.3610   46.9010 C   0  0  1  0  0  0  0  0  0  0  0  0
   39.9750   33.2040   46.3560 C   0  0  0  0  0  0  0  0  0  0  0  0
   39.9360   31.7120   46.2130 C   0  0  2  0  0  0  0  0  0  0  0  0
   37.8370   32.4640   46.3550 H   0  0  0  0  0  0  0  0  0  0  0  0
   40.6780   33.6700   47.0440 H   0  0  0  0  0  0  0  0  0  0  0  0
   39.7680   33.7550   45.4220 H   0  0  0  0  0  0  0  0  0  0  0  0
   40.6770   31.1900   46.8530 H   0  0  0  0  0  0  0  0  0  0  0  0
   39.8150   31.1160   44.8660 C   0  0  0  0  0  0  0  0  0  0  0  0
   40.1960   31.8220   43.7320 C   0  0  0  0  0  0  0  0  0  0  0  0
   40.5900   32.8210   43.7960 H   0  0  0  0  0  0  0  0  0  0  0  0
   40.0940   31.2850   42.4600 C   0  0  0  0  0  0  0  0  0  0  0  0
   39.6020   30.0090   42.2720 C   0  0  0  0  0  0  0  0  0  0  0  0
   39.4720   29.4210   41.0750 N   0  0  0  0  0  0  0  0  0  0  0  0
   38.9830   28.1710   40.9620 C   0  0  0  0  0  0  0  0  0  0  0  0
   38.8820   27.7020   39.9760 H   0  0  0  0  0  0  0  0  0  0  0  0
   38.5810   27.4050   42.0540 C   0  0  0  0  0  0  0  0  0  0  0  0
   38.7140   28.0120   43.2990 C   0  0  0  0  0  0  0  0  0  0  0  0
   39.2200   29.3000   43.3820 C   0  0  0  0  0  0  0  0  0  0  0  0
   39.3270   29.8440   44.6390 C   0  0  0  0  0  0  0  0  0  0  0  0
   38.6980   32.4040   48.3830 C   0  0  0  0  0  0  0  0  0  0  0  0
   38.2180   33.3630   48.6790 H   0  0  0  0  0  0  0  0  0  0  0  0
   39.7270   32.3140   48.8330 H   0  0  0  0  0  0  0  0  0  0  0  0
   37.4260   29.8450   50.7910 C   0  0  0  0  0  0  0  0  0  0  0  0
   38.1670   30.9300   50.2610 C   0  0  0  0  0  0  0  0  0  0  0  0
   37.9270   31.2710   48.9440 C   0  0  0  0  0  0  0  0  0  0  0  0
   37.0180   30.5800   48.2210 N   0  0  0  0  0  0  0  0  0  0  0  0
   36.3290   29.5450   48.7720 C   0  0  0  0  0  0  0  0  0  0  0  0
   36.5440   29.1890   50.0610 N   0  0  0  0  0  0  0  0  0  0  0  0
   37.6270   29.5870   51.8330 H   0  0  0  0  0  0  0  0  0  0  0  0
   38.8930   31.4600   50.8860 H   0  0  0  0  0  0  0  0  0  0  0  0
   35.5940   28.9790   48.2030 H   0  0  0  0  0  0  0  0  0  0  0  0
  1  4  1  6  0  0  0
  1 20  1  0  0  0  0
  2  1  1  0  0  0  0
  2  5  1  0  0  0  0
  3  2  1  0  0  0  0
  3  7  1  1  0  0  0
  3  1  1  0  0  0  0
  6  2  1  0  0  0  0
  8  3  1  0  0  0  0
  9 10  1  0  0  0  0
  9  8  2  0  0  0  0
 11  9  1  0  0  0  0
 12 11  2  0  0  0  0
 12 18  1  0  0  0  0
 13 12  1  0  0  0  0
 14 13  2  0  0  0  0
 14 16  1  0  0  0  0
 15 14  1  0  0  0  0
 16 17  2  0  0  0  0
 17 18  1  0  0  0  0
 18 19  2  0  0  0  0
 19  8  1  0  0  0  0
 20 21  1  0  0  0  0
 20 22  1  0  0  0  0
 20 25  1  0  0  0  0
 23 29  1  0  0  0  0
 24 23  1  0  0  0  0
 24 30  1  0  0  0  0
 25 24  2  0  0  0  0
 26 27  2  0  0  0  0
 26 25  1  0  0  0  0
 27 28  1  0  0  0  0
 28 23  2  0  0  0  0
 31 27  1  0  0  0  0
M  END
>  <minimizedAffinity>
-5.78299332

>  <minimizedRMSD>
0.910153806

$$$$
