
 OpenBabel03272503133D

 49 54  0  0  0  0  0  0  0  0999 V2000
   39.1390   32.1650   42.5620 C   0  0  0  0  0  0  0  0  0  0  0  0
   39.7020   31.4720   43.6220 C   0  0  0  0  0  0  0  0  0  0  0  0
   40.6070   30.4720   43.4580 C   0  0  0  0  0  0  0  0  0  0  0  0
   41.0080   30.1030   42.1790 C   0  0  0  0  0  0  0  0  0  0  0  0
   41.8580   29.1820   41.7290 N   0  0  0  0  0  0  0  0  0  0  0  0
   41.8580   29.2650   40.3930 C   0  0  0  0  0  0  0  0  0  0  0  0
   41.0100   30.2350   40.0080 N   0  0  0  0  0  0  0  0  0  0  0  0
   40.4490   30.7920   41.1160 C   0  0  0  0  0  0  0  0  0  0  0  0
   39.5260   31.8130   41.2600 C   0  0  0  0  0  0  0  0  0  0  0  0
   38.4300   32.9490   42.6910 H   0  0  0  0  0  0  0  0  0  0  0  0
   41.0280   29.9510   44.3010 H   0  0  0  0  0  0  0  0  0  0  0  0
   42.4410   28.4990   42.2660 H   0  0  0  0  0  0  0  0  0  0  0  0
   42.3740   28.7360   39.6240 H   0  0  0  0  0  0  0  0  0  0  0  0
   39.2520   31.8930   44.9350 C   0  0  0  0  0  0  0  0  0  0  0  0
   38.1670   32.5470   45.0610 O   0  0  0  0  0  0  0  0  0  0  0  0
   39.9560   31.6230   46.1520 N   0  0  0  0  0  0  0  0  0  0  0  0
   40.8320   31.0970   46.0990 H   0  0  0  0  0  0  0  0  0  0  0  0
   38.1230   30.1440   47.4980 F   0  0  0  0  0  0  0  0  0  0  0  0
   38.3870   31.3990   47.9830 C   0  0  0  0  0  0  0  0  0  0  0  0
   37.7260   31.8330   49.0980 C   0  0  0  0  0  0  0  0  0  0  0  0
   38.0320   33.0920   49.5340 C   0  0  0  0  0  0  0  0  0  0  0  0
   38.9460   33.8950   48.9040 C   0  0  0  0  0  0  0  0  0  0  0  0
   39.6050   33.4300   47.7720 C   0  0  0  0  0  0  0  0  0  0  0  0
   39.3060   32.1520   47.3160 C   0  0  0  0  0  0  0  0  0  0  0  0
   37.5160   33.4610   50.4240 H   0  0  0  0  0  0  0  0  0  0  0  0
   39.1950   34.8800   49.2320 H   0  0  0  0  0  0  0  0  0  0  0  0
   40.3470   33.9650   47.1860 H   0  0  0  0  0  0  0  0  0  0  0  0
   36.0850   29.3680   51.4530 C   0  0  0  0  0  0  0  0  0  0  0  0
   37.0560   30.2210   50.8690 C   0  0  0  0  0  0  0  0  0  0  0  0
   36.7610   30.9430   49.7340 C   0  0  0  0  0  0  0  0  0  0  0  0
   35.4970   30.7940   49.2050 N   0  0  0  0  0  0  0  0  0  0  0  0
   34.5870   29.9800   49.7710 C   0  0  0  0  0  0  0  0  0  0  0  0
   34.8770   29.2860   50.8680 N   0  0  0  0  0  0  0  0  0  0  0  0
   36.3080   28.7980   52.3440 H   0  0  0  0  0  0  0  0  0  0  0  0
   38.0400   30.3120   51.3140 H   0  0  0  0  0  0  0  0  0  0  0  0
   33.6600   30.0050   49.2050 H   0  0  0  0  0  0  0  0  0  0  0  0
   38.9760   32.4920   40.1970 O   0  0  0  0  0  0  0  0  0  0  0  0
   37.6950   32.9460   40.0780 C   0  0  0  0  0  0  0  0  0  0  0  0
   37.4510   34.1420   39.4020 C   0  0  0  0  0  0  0  0  0  0  0  0
   38.2830   34.7130   38.9700 H   0  0  0  0  0  0  0  0  0  0  0  0
   36.1830   34.6460   39.2520 C   0  0  0  0  0  3  0  0  0  0  0  0
   35.0830   33.9890   39.7660 C   0  0  0  0  0  0  0  0  0  0  0  0
   33.8280   34.4370   39.6480 N   0  0  0  0  0  0  0  0  0  0  0  0
   32.7640   33.7950   40.1500 C   0  0  0  0  0  0  0  0  0  0  0  0
   31.7410   34.1690   40.0490 H   0  0  0  0  0  0  0  0  0  0  0  0
   32.9110   32.5930   40.8400 C   0  0  0  0  0  3  0  0  0  0  0  0
   34.2040   32.1090   40.9760 C   0  0  0  0  0  3  0  0  0  0  0  0
   35.2790   32.7870   40.4510 C   0  0  0  0  0  0  0  0  0  0  0  0
   36.5830   32.3310   40.5690 C   0  0  0  0  0  3  0  0  0  0  0  0
  1 10  1  0  0  0  0
  1  2  1  0  0  0  0
  2 14  1  0  0  0  0
  3  2  2  0  0  0  0
  3 11  1  0  0  0  0
  4  3  1  0  0  0  0
  5  4  1  0  0  0  0
  5 12  1  0  0  0  0
  6  5  1  0  0  0  0
  7  6  2  0  0  0  0
  7  8  1  0  0  0  0
  8  9  1  0  0  0  0
  8  4  2  0  0  0  0
  9  1  2  0  0  0  0
 13  6  1  0  0  0  0
 14 15  2  0  0  0  0
 14 16  1  0  0  0  0
 16 24  1  0  0  0  0
 17 16  1  0  0  0  0
 18 19  1  0  0  0  0
 19 20  1  0  0  0  0
 20 21  2  0  0  0  0
 20 30  1  0  0  0  0
 21 25  1  0  0  0  0
 22 26  1  0  0  0  0
 22 21  1  0  0  0  0
 23 22  2  0  0  0  0
 24 23  1  0  0  0  0
 24 19  2  0  0  0  0
 27 23  1  0  0  0  0
 28 34  1  0  0  0  0
 29 35  1  0  0  0  0
 29 28  1  0  0  0  0
 30 29  2  0  0  0  0
 31 30  1  0  0  0  0
 31 32  2  0  0  0  0
 32 33  1  0  0  0  0
 33 28  2  0  0  0  0
 36 32  1  0  0  0  0
 37  9  1  0  0  0  0
 38 37  1  0  0  0  0
 38 49  1  0  0  0  0
 39 38  2  0  0  0  0
 40 39  1  0  0  0  0
 41 39  1  0  0  0  0
 41 42  2  0  0  0  0
 42 48  1  0  0  0  0
 43 42  1  0  0  0  0
 43 44  2  0  0  0  0
 44 46  1  0  0  0  0
 45 44  1  0  0  0  0
 46 47  2  0  0  0  0
 48 49  2  0  0  0  0
 48 47  1  0  0  0  0
M  END
>  <minimizedAffinity>
-7.68033504

>  <minimizedRMSD>
2.41078305

$$$$
