
 OpenBabel03262523523D

 39 42  0  0  1  0  0  0  0  0999 V2000
   35.6170   29.8110   48.9520 N   0  0  0  0  0  0  0  0  0  0  0  0
   35.2000   30.9250   49.7570 C   0  0  0  0  0  0  0  0  0  0  0  0
   36.3500   31.7150   50.2470 C   0  0  0  0  0  0  0  0  0  0  0  0
   37.3520   30.7730   50.8390 C   0  0  0  0  0  0  0  0  0  0  0  0
   37.9490   29.9310   49.7790 C   0  0  0  0  0  0  0  0  0  0  0  0
   36.9870   29.7780   48.6360 C   0  0  2  0  0  0  0  0  0  0  0  0
   34.5520   31.6030   49.1530 H   0  0  0  0  0  0  0  0  0  0  0  0
   34.5780   30.5650   50.6080 H   0  0  0  0  0  0  0  0  0  0  0  0
   36.7440   32.4980   49.5920 H   0  0  0  0  0  0  0  0  0  0  0  0
   35.9560   32.2960   51.1400 H   0  0  0  0  0  0  0  0  0  0  0  0
   36.7670   30.1190   51.5430 H   0  0  0  0  0  0  0  0  0  0  0  0
   38.0890   31.2780   51.4950 H   0  0  0  0  0  0  0  0  0  0  0  0
   38.1610   28.9340   50.2860 H   0  0  0  0  0  0  0  0  0  0  0  0
   38.9420   30.2820   49.5170 H   0  0  0  0  0  0  0  0  0  0  0  0
   37.1340   28.6840   48.3350 H   0  0  0  0  0  0  0  0  0  0  0  0
   37.3590   30.4970   47.4170 C   0  0  0  0  0  0  0  0  0  0  0  0
   36.6400   30.4750   46.2450 C   0  0  0  0  0  0  0  0  0  0  0  0
   35.7410   29.8880   46.1510 H   0  0  0  0  0  0  0  0  0  0  0  0
   36.9640   31.1530   45.0890 C   0  0  0  0  0  0  0  0  0  0  0  0
   38.0970   31.9350   45.0610 C   0  0  0  0  0  0  0  0  0  0  0  0
   38.4200   32.6000   43.9410 N   0  0  0  0  0  0  0  0  0  0  0  0
   39.5230   33.3670   43.8930 C   0  0  0  0  0  0  0  0  0  0  0  0
   39.6620   33.8480   42.9190 H   0  0  0  0  0  0  0  0  0  0  0  0
   40.3360   33.4810   44.9970 C   0  0  0  0  0  0  0  0  0  0  0  0
   39.9890   32.7940   46.1350 C   0  0  0  0  0  0  0  0  0  0  0  0
   38.8730   32.0100   46.1970 C   0  0  0  0  0  0  0  0  0  0  0  0
   38.4810   31.3010   47.3130 C   0  0  0  0  0  0  0  0  0  0  0  0
   34.9810   28.5830   49.3040 C   0  0  0  0  0  0  0  0  0  0  0  0
   34.4280   28.7250   50.2350 H   0  0  0  0  0  0  0  0  0  0  0  0
   35.7860   27.8490   49.5210 H   0  0  0  0  0  0  0  0  0  0  0  0
   34.1420   28.0540   48.2300 C   0  0  0  0  0  0  0  0  0  0  0  0
   33.4930   28.9680   47.4170 C   0  0  0  0  0  0  0  0  0  0  0  0
   32.6770   28.5660   46.3620 C   0  0  0  0  0  0  0  0  0  0  0  0
   32.5530   27.2270   46.1770 N   0  0  0  0  0  0  0  0  0  0  0  0
   33.1730   26.3360   46.9540 C   0  0  0  0  0  0  0  0  0  0  0  0
   33.9570   26.7560   47.9660 N   0  0  0  0  0  0  0  0  0  0  0  0
   33.6030   30.0260   47.5810 H   0  0  0  0  0  0  0  0  0  0  0  0
   32.1920   29.3260   45.7580 H   0  0  0  0  0  0  0  0  0  0  0  0
   33.0620   25.2740   46.7900 H   0  0  0  0  0  0  0  0  0  0  0  0
  1 28  1  0  0  0  0
  1  2  1  0  0  0  0
  2  3  1  0  0  0  0
  2  8  1  0  0  0  0
  3  4  1  0  0  0  0
  3 10  1  0  0  0  0
  4 12  1  0  0  0  0
  4 11  1  0  0  0  0
  5 13  1  0  0  0  0
  5  4  1  0  0  0  0
  6 15  1  6  0  0  0
  6  1  1  0  0  0  0
  6  5  1  0  0  0  0
  7  2  1  0  0  0  0
  9  3  1  0  0  0  0
 14  5  1  0  0  0  0
 16  6  1  0  0  0  0
 17 16  2  0  0  0  0
 18 17  1  0  0  0  0
 19 17  1  0  0  0  0
 20 19  2  0  0  0  0
 20 26  1  0  0  0  0
 21 20  1  0  0  0  0
 22 21  2  0  0  0  0
 22 24  1  0  0  0  0
 23 22  1  0  0  0  0
 24 25  2  0  0  0  0
 25 26  1  0  0  0  0
 26 27  2  0  0  0  0
 27 16  1  0  0  0  0
 28 30  1  0  0  0  0
 28 29  1  0  0  0  0
 31 28  1  0  0  0  0
 32 37  1  0  0  0  0
 32 31  2  0  0  0  0
 33 32  1  0  0  0  0
 34 33  2  0  0  0  0
 34 35  1  0  0  0  0
 35 36  2  0  0  0  0
 36 31  1  0  0  0  0
 38 33  1  0  0  0  0
 39 35  1  0  0  0  0
M  END
>  <minimizedAffinity>
-6.3281641

>  <minimizedRMSD>
0.947556198

$$$$
