
 OpenBabel03272505313D

 43 47  0  0  0  0  0  0  0  0999 V2000
   37.4020   31.2440   47.0280 N   0  0  0  0  0  0  0  0  0  0  0  0
   36.7010   31.0650   45.8760 C   0  0  0  0  0  0  0  0  0  0  0  0
   37.1120   31.6080   44.6750 C   0  0  0  0  0  0  0  0  0  0  0  0
   38.2960   32.3620   44.6890 C   0  0  0  0  0  0  0  0  0  0  0  0
   38.7160   32.8800   43.6190 O   0  0  0  0  0  0  0  0  0  0  0  0
   38.9980   32.5400   45.8490 N   0  0  0  0  0  0  0  0  0  0  0  0
   38.4970   31.9660   46.9320 C   0  0  0  0  0  0  0  0  0  0  0  0
   39.1650   32.1500   47.9760 O   0  0  0  0  0  0  0  0  0  0  0  0
   35.7930   30.4840   45.8810 H   0  0  0  0  0  0  0  0  0  0  0  0
   37.4250   29.5190   50.3260 C   0  0  0  0  0  0  0  0  0  0  0  0
   37.8460   30.0850   49.1140 C   0  0  0  0  0  0  0  0  0  0  0  0
   36.9660   30.6840   48.2350 C   0  0  0  0  0  0  0  0  0  0  0  0
   35.6780   30.7010   48.5950 N   0  0  0  0  0  0  0  0  0  0  0  0
   35.2260   30.1650   49.7610 C   0  0  0  0  0  0  0  0  0  0  0  0
   36.1120   29.5770   50.6150 N   0  0  0  0  0  0  0  0  0  0  0  0
   38.1140   29.0510   51.0140 H   0  0  0  0  0  0  0  0  0  0  0  0
   38.8910   30.0220   48.9180 H   0  0  0  0  0  0  0  0  0  0  0  0
   34.1790   30.1880   50.0340 H   0  0  0  0  0  0  0  0  0  0  0  0
   36.4060   31.4510   43.4110 C   0  0  0  0  0  0  0  0  0  0  0  0
   36.5500   30.3600   42.6030 C   0  0  0  0  0  0  0  0  0  0  0  0
   35.8930   30.1880   41.4020 C   0  0  0  0  0  0  0  0  0  0  0  0
   35.0220   31.1990   40.9810 C   0  0  0  0  0  0  0  0  0  0  0  0
   34.9060   32.2860   41.8280 C   0  0  0  0  0  0  0  0  0  0  0  0
   35.5700   32.3860   42.9740 N   0  0  0  0  0  0  0  0  0  0  0  0
   37.2110   29.5510   42.8840 H   0  0  0  0  0  0  0  0  0  0  0  0
   36.0160   29.3150   40.7670 H   0  0  0  0  0  0  0  0  0  0  0  0
   34.5010   31.0960   40.0590 H   0  0  0  0  0  0  0  0  0  0  0  0
   34.0220   33.3940   41.4790 C   0  0  0  0  0  0  0  0  0  0  0  0
   34.4850   34.6990   41.5460 C   0  0  0  0  0  0  0  0  0  0  0  0
   35.5150   34.8870   41.8620 H   0  0  0  0  0  0  0  0  0  0  0  0
   33.7630   35.8360   41.2470 C   0  0  0  0  0  3  0  0  0  0  0  0
   32.4560   35.6620   40.8430 C   0  0  0  0  0  0  0  0  0  0  0  0
   31.6860   36.7210   40.5330 N   0  0  0  0  0  0  0  0  0  0  0  0
   30.4020   36.5830   40.1330 C   0  0  0  0  0  0  0  0  0  0  0  0
   29.7890   37.4420   39.8850 H   0  0  0  0  0  0  0  0  0  0  0  0
   29.8990   35.2840   40.0530 C   0  0  0  0  0  3  0  0  0  0  0  0
   30.6420   34.1560   40.3580 C   0  0  0  0  0  3  0  0  0  0  0  0
   31.9430   34.3830   40.7580 C   0  0  0  0  0  0  0  0  0  0  0  0
   32.7100   33.2770   41.0690 C   0  0  0  0  0  3  0  0  0  0  0  0
   40.2110   33.3140   45.8500 C   0  0  0  0  0  0  0  0  0  0  0  0
   40.1860   34.2480   44.8770 F   0  0  0  0  0  0  0  0  0  0  0  0
   41.3560   32.5530   45.6120 F   0  0  0  0  0  0  0  0  0  0  0  0
   40.3330   33.9620   47.0730 F   0  0  0  0  0  0  0  0  0  0  0  0
  1 12  1  0  0  0  0
  2  9  1  0  0  0  0
  2  1  1  0  0  0  0
  3  4  1  0  0  0  0
  3  2  2  0  0  0  0
  4  6  1  0  0  0  0
  5  4  2  0  0  0  0
  6 40  1  0  0  0  0
  6  7  1  0  0  0  0
  7  1  1  0  0  0  0
  7  8  2  0  0  0  0
 10 15  1  0  0  0  0
 10 16  1  0  0  0  0
 11 10  2  0  0  0  0
 12 13  2  0  0  0  0
 12 11  1  0  0  0  0
 13 14  1  0  0  0  0
 14 18  1  0  0  0  0
 14 15  2  0  0  0  0
 17 11  1  0  0  0  0
 19  3  1  0  0  0  0
 20 25  1  0  0  0  0
 20 19  2  0  0  0  0
 21 20  1  0  0  0  0
 22 21  2  0  0  0  0
 22 23  1  0  0  0  0
 23 24  2  0  0  0  0
 24 19  1  0  0  0  0
 26 21  1  0  0  0  0
 27 22  1  0  0  0  0
 28 29  1  0  0  0  0
 28 23  1  0  0  0  0
 29 30  1  0  0  0  0
 31 29  2  0  0  0  0
 32 31  1  0  0  0  0
 33 32  2  0  0  0  0
 34 33  1  0  0  0  0
 35 34  1  0  0  0  0
 36 34  2  0  0  0  0
 36 37  1  0  0  0  0
 37 38  2  0  0  0  0
 38 32  1  0  0  0  0
 38 39  1  0  0  0  0
 39 28  2  0  0  0  0
 40 43  1  0  0  0  0
 41 40  1  0  0  0  0
 42 40  1  0  0  0  0
M  END
>  <minimizedAffinity>
-6.98811913

>  <minimizedRMSD>
0.947447836

$$$$
