
 OpenBabel03272500363D

 24 26  0  0  0  0  0  0  0  0999 V2000
   36.8380   29.8780   49.5780 C   0  0  0  0  0  0  0  0  0  0  0  0
   37.7640   30.5050   48.7330 C   0  0  0  0  0  0  0  0  0  0  0  0
   37.3690   30.7820   47.4160 C   0  0  0  0  0  0  0  0  0  0  0  0
   36.1010   30.4220   47.0400 N   0  0  0  0  0  0  0  0  0  0  0  0
   35.2470   29.8210   47.8900 C   0  0  0  0  0  0  0  0  0  0  0  0
   35.6110   29.5500   49.1530 N   0  0  0  0  0  0  0  0  0  0  0  0
   38.7450   30.7700   49.0670 H   0  0  0  0  0  0  0  0  0  0  0  0
   38.0360   31.2640   46.7140 H   0  0  0  0  0  0  0  0  0  0  0  0
   33.9000   29.4550   47.4430 C   0  0  0  0  0  0  0  0  0  0  0  0
   33.3030   30.1830   46.4200 C   0  0  0  0  0  0  0  0  0  0  0  0
   33.8280   31.0190   45.9510 H   0  0  0  0  0  0  0  0  0  0  0  0
   32.0310   29.8620   45.9730 C   0  0  0  0  0  0  0  0  0  0  0  0
   31.3390   28.8140   46.5400 C   0  0  0  0  0  0  0  0  0  0  0  0
   30.1130   28.4780   46.1340 N   0  0  0  0  0  0  0  0  0  0  0  0
   29.4390   27.4570   46.6870 C   0  0  0  0  0  0  0  0  0  0  0  0
   28.4620   27.2990   46.2620 H   0  0  0  0  0  0  0  0  0  0  0  0
   29.9600   26.6810   47.7120 C   0  0  0  0  0  0  0  0  0  0  0  0
   31.2250   27.0340   48.1230 C   0  0  0  0  0  0  0  0  0  0  0  0
   31.9330   28.0800   47.5680 C   0  0  0  0  0  0  0  0  0  0  0  0
   33.1940   28.4140   47.9960 C   0  0  0  0  0  0  0  0  0  0  0  0
   37.2680   29.5820   50.9930 C   0  0  0  0  0  0  0  0  0  0  0  0
   36.1580   29.5790   51.8140 F   0  0  0  0  0  0  0  0  0  0  0  0
   37.9400   28.3990   50.9770 F   0  0  0  0  0  0  0  0  0  0  0  0
   38.0680   30.6360   51.4070 F   0  0  0  0  0  0  0  0  0  0  0  0
  1 21  1  0  0  0  0
  2  7  1  0  0  0  0
  2  1  2  0  0  0  0
  3  2  1  0  0  0  0
  4  3  2  0  0  0  0
  4  5  1  0  0  0  0
  5  6  2  0  0  0  0
  6  1  1  0  0  0  0
  8  3  1  0  0  0  0
  9  5  1  0  0  0  0
  9 20  1  0  0  0  0
 10  9  2  0  0  0  0
 11 10  1  0  0  0  0
 12 10  1  0  0  0  0
 12 13  2  0  0  0  0
 13 19  1  0  0  0  0
 14 13  1  0  0  0  0
 14 15  2  0  0  0  0
 15 17  1  0  0  0  0
 16 15  1  0  0  0  0
 17 18  2  0  0  0  0
 19 20  2  0  0  0  0
 19 18  1  0  0  0  0
 21 24  1  0  0  0  0
 21 22  1  0  0  0  0
 23 21  1  0  0  0  0
M  END
>  <minimizedAffinity>
-5.77639198

>  <minimizedRMSD>
3.35902953

$$$$
