
 OpenBabel03272509583D

 49 53  0  0  0  0  0  0  0  0999 V2000
   33.5870   27.6730   47.6080 C   0  0  0  0  0  0  0  0  0  0  0  0
   33.8910   26.7280   48.0570 H   0  0  0  0  0  0  0  0  0  0  0  0
   33.7640   27.5700   46.5150 H   0  0  0  0  0  0  0  0  0  0  0  0
   32.1190   27.8680   47.7700 C   0  0  0  0  0  0  0  0  0  0  0  0
   31.5750   27.5810   49.0070 C   0  0  0  0  0  0  0  0  0  0  0  0
   30.2260   27.7280   49.2620 C   0  0  0  0  0  0  0  0  0  0  0  0
   29.4270   28.1600   48.2850 N   0  0  0  0  0  0  0  0  0  0  0  0
   29.9720   28.4400   47.0740 C   0  0  0  0  0  0  0  0  0  0  0  0
   31.2820   28.3020   46.8090 N   0  0  0  0  0  0  0  0  0  0  0  0
   32.1830   27.2280   49.8280 H   0  0  0  0  0  0  0  0  0  0  0  0
   29.7830   27.5030   50.2370 H   0  0  0  0  0  0  0  0  0  0  0  0
   29.0600   28.9200   46.0010 C   0  0  0  0  0  0  0  0  0  0  0  0
   28.2550   29.5700   46.4000 H   0  0  0  0  0  0  0  0  0  0  0  0
   29.6660   29.5690   45.3350 H   0  0  0  0  0  0  0  0  0  0  0  0
   28.4840   27.7710   45.2280 C   0  0  0  0  0  0  0  0  0  0  0  0
   29.1430   26.5720   45.0590 C   0  0  0  0  0  0  0  0  0  0  0  0
   30.1210   26.4450   45.5050 H   0  0  0  0  0  0  0  0  0  0  0  0
   28.4950   25.5950   44.3220 C   0  0  0  0  0  3  0  0  0  0  0  0
   27.2370   25.8000   43.7680 C   0  0  0  0  0  0  0  0  0  0  0  0
   26.6170   24.8530   43.0550 N   0  0  0  0  0  0  0  0  0  0  0  0
   25.3960   25.1000   42.5380 C   0  0  0  0  0  0  0  0  0  0  0  0
   24.8410   24.3690   41.9490 H   0  0  0  0  0  0  0  0  0  0  0  0
   24.7220   26.3100   42.7030 C   0  0  0  0  0  3  0  0  0  0  0  0
   25.3320   27.2910   43.4240 C   0  0  0  0  0  3  0  0  0  0  0  0
   26.5850   27.0190   43.9460 C   0  0  0  0  0  0  0  0  0  0  0  0
   27.2210   27.9800   44.6730 C   0  0  0  0  0  3  0  0  0  0  0  0
   34.3920   28.7870   48.1940 C   0  0  0  0  0  0  0  0  0  0  0  0
   33.8070   29.7170   48.3350 H   0  0  0  0  0  0  0  0  0  0  0  0
   35.2070   29.0340   47.4820 H   0  0  0  0  0  0  0  0  0  0  0  0
   35.0310   28.3960   49.3940 O   0  0  0  0  0  0  0  0  0  0  0  0
   37.3270   30.1500   51.5490 C   0  0  0  0  0  0  0  0  0  0  0  0
   38.0760   30.8750   50.5900 C   0  0  0  0  0  0  0  0  0  0  0  0
   37.7280   30.7020   49.2530 C   0  0  0  0  0  0  0  0  0  0  0  0
   36.6930   29.8440   49.0000 N   0  0  0  0  0  0  0  0  0  0  0  0
   36.0040   29.1760   49.9190 C   0  0  0  0  0  0  0  0  0  0  0  0
   36.3310   29.3350   51.2150 N   0  0  0  0  0  0  0  0  0  0  0  0
   37.6510   30.3340   52.5610 H   0  0  0  0  0  0  0  0  0  0  0  0
   38.8840   31.5400   50.8150 H   0  0  0  0  0  0  0  0  0  0  0  0
   38.8700   33.3590   49.1440 F   0  0  0  0  0  0  0  0  0  0  0  0
   38.9130   32.5830   48.0680 C   0  0  0  0  0  0  0  0  0  0  0  0
   38.3760   31.3530   48.1440 C   0  0  0  0  0  0  0  0  0  0  0  0
   38.4740   30.6180   46.9570 C   0  0  0  0  0  0  0  0  0  0  0  0
   39.0650   31.1190   45.8300 C   0  0  0  0  0  0  0  0  0  0  0  0
   39.6010   32.3870   45.8070 C   0  0  0  0  0  0  0  0  0  0  0  0
   39.5130   33.1120   46.9500 C   0  0  0  0  0  0  0  0  0  0  0  0
   38.0840   29.6100   46.8740 H   0  0  0  0  0  0  0  0  0  0  0  0
   39.1390   30.5360   44.9040 H   0  0  0  0  0  0  0  0  0  0  0  0
   40.0630   32.7630   44.9090 H   0  0  0  0  0  0  0  0  0  0  0  0
   39.9290   34.1120   46.9500 H   0  0  0  0  0  0  0  0  0  0  0  0
  1  4  1  0  0  0  0
  1  2  1  0  0  0  0
  1 27  1  0  0  0  0
  3  1  1  0  0  0  0
  4  5  1  0  0  0  0
  5  6  2  0  0  0  0
  5 10  1  0  0  0  0
  6 11  1  0  0  0  0
  7  6  1  0  0  0  0
  8  7  2  0  0  0  0
  9  8  1  0  0  0  0
  9  4  2  0  0  0  0
 12 13  1  0  0  0  0
 12  8  1  0  0  0  0
 14 12  1  0  0  0  0
 15 12  1  0  0  0  0
 16 15  1  0  0  0  0
 16 17  1  0  0  0  0
 18 16  2  0  0  0  0
 19 25  1  0  0  0  0
 19 18  1  0  0  0  0
 20 19  2  0  0  0  0
 21 23  2  0  0  0  0
 21 20  1  0  0  0  0
 22 21  1  0  0  0  0
 23 24  1  0  0  0  0
 24 25  2  0  0  0  0
 25 26  1  0  0  0  0
 26 15  2  0  0  0  0
 27 28  1  0  0  0  0
 27 30  1  0  0  0  0
 29 27  1  0  0  0  0
 30 35  1  0  0  0  0
 31 37  1  0  0  0  0
 32 38  1  0  0  0  0
 32 31  2  0  0  0  0
 33 32  1  0  0  0  0
 34 33  2  0  0  0  0
 34 35  1  0  0  0  0
 35 36  2  0  0  0  0
 36 31  1  0  0  0  0
 40 41  1  0  0  0  0
 40 39  1  0  0  0  0
 41 33  1  0  0  0  0
 42 41  2  0  0  0  0
 43 42  1  0  0  0  0
 44 43  2  0  0  0  0
 44 45  1  0  0  0  0
 45 49  1  0  0  0  0
 45 40  2  0  0  0  0
 46 42  1  0  0  0  0
 47 43  1  0  0  0  0
 48 44  1  0  0  0  0
M  END
>  <minimizedAffinity>
-7.15144682

>  <minimizedRMSD>
1.26921821

$$$$
