
 OpenBabel03272509013D

 34 37  0  0  0  0  0  0  0  0999 V2000
   39.2440   30.8600   49.7900 Cl  0  0  0  0  0  0  0  0  0  0  0  0
   37.5680   30.4950   49.5520 C   0  0  0  0  0  0  0  0  0  0  0  0
   36.9590   30.8900   48.3770 C   0  0  0  0  0  0  0  0  0  0  0  0
   35.6310   30.6320   48.1350 C   0  0  0  0  0  0  0  0  0  0  0  0
   34.8670   29.9690   49.0640 C   0  0  0  0  0  0  0  0  0  0  0  0
   35.4500   29.5600   50.2530 C   0  0  0  0  0  0  0  0  0  0  0  0
   34.5630   28.7200   51.5100 Cl  0  0  0  0  0  0  0  0  0  0  0  0
   36.8040   29.8420   50.4600 C   0  0  0  0  0  0  0  0  0  0  0  0
   35.0990   30.9160   47.2360 H   0  0  0  0  0  0  0  0  0  0  0  0
   33.8210   29.7330   48.9400 H   0  0  0  0  0  0  0  0  0  0  0  0
   39.4390   33.0860   46.7930 C   0  0  0  0  0  0  0  0  0  0  0  0
   39.1770   32.9230   45.4240 C   0  0  0  0  0  0  0  0  0  0  0  0
   38.1290   32.0400   45.0700 C   0  0  0  0  0  0  0  0  0  0  0  0
   37.4570   31.4180   46.0700 N   0  0  0  0  0  0  0  0  0  0  0  0
   37.7310   31.5930   47.3730 C   0  0  0  0  0  0  0  0  0  0  0  0
   38.7290   32.4340   47.7070 N   0  0  0  0  0  0  0  0  0  0  0  0
   40.2520   33.7740   46.9960 H   0  0  0  0  0  0  0  0  0  0  0  0
   39.6760   33.3910   44.5870 H   0  0  0  0  0  0  0  0  0  0  0  0
   37.7970   31.8020   44.0690 H   0  0  0  0  0  0  0  0  0  0  0  0
   37.4200   29.4270   51.7450 C   0  0  0  0  0  0  0  0  0  0  0  0
   38.0230   30.3210   52.0740 H   0  0  0  0  0  0  0  0  0  0  0  0
   36.6000   29.3940   52.5260 H   0  0  0  0  0  0  0  0  0  0  0  0
   38.2110   28.2020   51.7200 C   0  0  0  0  0  0  0  0  0  0  0  0
   38.5120   27.5550   50.5410 C   0  0  0  0  0  0  0  0  0  0  0  0
   38.2040   27.9140   49.5700 H   0  0  0  0  0  0  0  0  0  0  0  0
   39.2340   26.3820   50.4340 C   0  0  0  0  0  3  0  0  0  0  0  0
   39.7090   25.7800   51.5790 C   0  0  0  0  0  0  0  0  0  0  0  0
   40.4170   24.6380   51.5260 N   0  0  0  0  0  0  0  0  0  0  0  0
   40.8890   24.0360   52.6320 C   0  0  0  0  0  0  0  0  0  0  0  0
   41.4580   23.1170   52.5750 H   0  0  0  0  0  0  0  0  0  0  0  0
   40.6500   24.5930   53.8780 C   0  0  0  0  0  3  0  0  0  0  0  0
   39.9240   25.7640   53.9340 C   0  0  0  0  0  3  0  0  0  0  0  0
   39.4460   26.3700   52.7970 C   0  0  0  0  0  0  0  0  0  0  0  0
   38.7230   27.5320   52.8140 C   0  0  0  0  0  3  0  0  0  0  0  0
  2  1  1  0  0  0  0
  2  8  1  0  0  0  0
  3  2  2  0  0  0  0
  4  3  1  0  0  0  0
  4  5  2  0  0  0  0
  5  6  1  0  0  0  0
  6  8  2  0  0  0  0
  6  7  1  0  0  0  0
  8 20  1  0  0  0  0
  9  4  1  0  0  0  0
 10  5  1  0  0  0  0
 11 17  1  0  0  0  0
 11 16  1  0  0  0  0
 12 11  2  0  0  0  0
 13 12  1  0  0  0  0
 13 14  2  0  0  0  0
 14 15  1  0  0  0  0
 15 16  2  0  0  0  0
 15  3  1  0  0  0  0
 18 12  1  0  0  0  0
 19 13  1  0  0  0  0
 20 21  1  0  0  0  0
 20 22  1  0  0  0  0
 23 20  1  0  0  0  0
 23 34  1  0  0  0  0
 24 23  2  0  0  0  0
 25 24  1  0  0  0  0
 26 24  1  0  0  0  0
 26 27  2  0  0  0  0
 27 33  1  0  0  0  0
 28 27  1  0  0  0  0
 28 29  2  0  0  0  0
 29 31  1  0  0  0  0
 30 29  1  0  0  0  0
 31 32  2  0  0  0  0
 33 34  2  0  0  0  0
 33 32  1  0  0  0  0
M  END
>  <minimizedAffinity>
2.17104673

>  <minimizedRMSD>
1.69706023

$$$$
