
 OpenBabel03272510083D

 47 52  0  0  0  0  0  0  0  0999 V2000
   35.8530   29.3760   49.6420 C   0  0  0  0  0  0  0  0  0  0  0  0
   36.1990   29.2330   50.9480 N   0  0  0  0  0  0  0  0  0  0  0  0
   37.3010   29.8440   51.4160 C   0  0  0  0  0  0  0  0  0  0  0  0
   38.1280   30.6230   50.6600 N   0  0  0  0  0  0  0  0  0  0  0  0
   37.8130   30.7860   49.3590 C   0  0  0  0  0  0  0  0  0  0  0  0
   38.5770   31.5700   48.5110 C   0  0  0  0  0  0  0  0  0  0  0  0
   38.2100   31.7300   47.1700 C   0  0  0  0  0  0  0  0  0  0  0  0
   37.0610   31.0870   46.6940 C   0  0  0  0  0  0  0  0  0  0  0  0
   36.3300   30.3110   47.5850 C   0  0  0  0  0  0  0  0  0  0  0  0
   36.6850   30.1570   48.8870 C   0  0  0  0  0  0  0  0  0  0  0  0
   37.6330   29.7680   52.4520 H   0  0  0  0  0  0  0  0  0  0  0  0
   39.4470   32.0290   48.9610 H   0  0  0  0  0  0  0  0  0  0  0  0
   38.8810   32.3640   46.6120 H   0  0  0  0  0  0  0  0  0  0  0  0
   36.9670   31.3430   45.6520 H   0  0  0  0  0  0  0  0  0  0  0  0
   34.5270   27.4560   48.6140 C   0  0  0  0  0  0  0  0  0  0  0  0
   34.6610   28.7080   49.2540 C   0  0  0  0  0  0  0  0  0  0  0  0
   33.4790   29.4320   49.5590 C   0  0  0  0  0  0  0  0  0  0  0  0
   32.2710   28.9120   49.2270 N   0  0  0  0  0  0  0  0  0  0  0  0
   32.2110   27.6980   48.6050 C   0  0  0  0  0  0  0  0  0  0  0  0
   33.3020   26.9880   48.3070 N   0  0  0  0  0  0  0  0  0  0  0  0
   30.8990   27.2050   48.2480 N   0  0  0  0  0  0  0  0  0  0  0  0
   29.8540   26.9320   49.1870 C   0  0  0  0  0  0  0  0  0  0  0  0
   28.6340   26.7160   48.3500 C   0  0  0  0  0  0  0  0  0  0  0  0
   29.0050   27.1000   46.9210 C   0  0  0  0  0  0  0  0  0  0  0  0
   30.4630   26.9200   46.8690 C   0  0  0  0  0  0  0  0  0  0  0  0
   35.4660   26.9600   48.4160 H   0  0  0  0  0  0  0  0  0  0  0  0
   33.4800   30.3860   50.0460 H   0  0  0  0  0  0  0  0  0  0  0  0
   30.1310   26.0490   49.8070 H   0  0  0  0  0  0  0  0  0  0  0  0
   29.6850   27.8060   49.8560 H   0  0  0  0  0  0  0  0  0  0  0  0
   27.7690   27.3360   48.6980 H   0  0  0  0  0  0  0  0  0  0  0  0
   28.2660   25.6670   48.3540 H   0  0  0  0  0  0  0  0  0  0  0  0
   28.7320   28.1500   46.7030 H   0  0  0  0  0  0  0  0  0  0  0  0
   28.4890   26.4020   46.2260 H   0  0  0  0  0  0  0  0  0  0  0  0
   31.0330   27.5270   46.1680 H   0  0  0  0  0  0  0  0  0  0  0  0
   30.7780   25.8600   46.6730 H   0  0  0  0  0  0  0  0  0  0  0  0
   35.2900   29.7860   46.7180 C   0  0  0  0  0  0  0  0  0  0  0  0
   35.1810   28.6670   45.9160 C   0  0  0  0  0  0  0  0  0  0  0  0
   36.1110   28.0730   45.9870 H   0  0  0  0  0  0  0  0  0  0  0  0
   34.1250   28.3120   45.1250 C   0  0  0  0  0  3  0  0  0  0  0  0
   33.0480   29.1630   45.1250 C   0  0  0  0  0  0  0  0  0  0  0  0
   31.9910   28.8450   44.3570 N   0  0  0  0  0  0  0  0  0  0  0  0
   30.8910   29.6350   44.3040 C   0  0  0  0  0  0  0  0  0  0  0  0
   30.0260   29.3740   43.6760 H   0  0  0  0  0  0  0  0  0  0  0  0
   30.8410   30.8110   45.0600 C   0  0  0  0  0  3  0  0  0  0  0  0
   31.9050   31.1850   45.8690 C   0  0  0  0  0  3  0  0  0  0  0  0
   32.9700   30.3230   45.8560 C   0  0  0  0  0  0  0  0  0  0  0  0
   34.1060   30.5710   46.6180 C   0  0  0  0  0  3  0  0  0  0  0  0
  1  2  1  0  0  0  0
  2  3  2  0  0  0  0
  3 11  1  0  0  0  0
  4  3  1  0  0  0  0
  5  4  2  0  0  0  0
  6 12  1  0  0  0  0
  6  5  1  0  0  0  0
  7  6  2  0  0  0  0
  8  7  1  0  0  0  0
  8  9  2  0  0  0  0
  9 10  1  0  0  0  0
 10  5  1  0  0  0  0
 10  1  2  0  0  0  0
 13  7  1  0  0  0  0
 14  8  1  0  0  0  0
 15 16  1  0  0  0  0
 16 17  2  0  0  0  0
 16  1  1  0  0  0  0
 17 27  1  0  0  0  0
 18 17  1  0  0  0  0
 19 18  2  0  0  0  0
 20 19  1  0  0  0  0
 20 15  2  0  0  0  0
 21 19  1  0  0  0  0
 21 22  1  0  0  0  0
 22 28  1  0  0  0  0
 22 29  1  0  0  0  0
 23 31  1  0  0  0  0
 23 30  1  0  0  0  0
 23 22  1  0  0  0  0
 24 23  1  0  0  0  0
 25 24  1  0  0  0  0
 25 21  1  0  0  0  0
 26 15  1  0  0  0  0
 32 24  1  0  0  0  0
 33 24  1  0  0  0  0
 34 25  1  0  0  0  0
 35 25  1  0  0  0  0
 36  9  1  0  0  0  0
 37 38  1  0  0  0  0
 37 36  2  0  0  0  0
 39 37  1  0  0  0  0
 40 39  2  0  0  0  0
 40 46  1  0  0  0  0
 41 40  1  0  0  0  0
 42 41  2  0  0  0  0
 42 44  1  0  0  0  0
 43 42  1  0  0  0  0
 44 45  2  0  0  0  0
 46 45  1  0  0  0  0
 46 47  2  0  0  0  0
 47 36  1  0  0  0  0
M  END
>  <minimizedAffinity>
-5.39496899

>  <minimizedRMSD>
3.47184801

$$$$
