
 OpenBabel03272507553D

 26 28  0  0  0  0  0  0  0  0999 V2000
   35.3060   29.3930   50.9010 C   0  0  0  0  0  0  0  0  0  0  0  0
   36.1570   29.9920   49.9360 C   0  0  0  0  0  0  0  0  0  0  0  0
   35.7640   29.9990   48.6080 C   0  0  0  0  0  0  0  0  0  0  0  0
   34.5500   29.4160   48.2950 N   0  0  0  0  0  0  0  0  0  0  0  0
   33.7650   28.8570   49.2300 C   0  0  0  0  0  0  0  0  0  0  0  0
   34.1320   28.8440   50.5080 N   0  0  0  0  0  0  0  0  0  0  0  0
   32.5580   28.3200   48.7280 N   0  0  0  0  0  0  0  0  0  0  0  0
   35.6520   29.4100   51.9200 H   0  0  0  0  0  0  0  0  0  0  0  0
   32.1510   27.4150   49.1050 H   0  0  0  0  0  0  0  0  0  0  0  0
   31.9920   28.7490   47.9770 H   0  0  0  0  0  0  0  0  0  0  0  0
   36.4970   30.5050   47.4690 C   0  0  0  0  0  0  0  0  0  0  0  0
   36.4590   30.3880   46.1080 C   0  0  0  0  0  0  0  0  0  0  0  0
   35.7420   29.6890   45.7490 H   0  0  0  0  0  0  0  0  0  0  0  0
   37.2920   31.0680   45.2570 C   0  0  0  0  0  3  0  0  0  0  0  0
   38.2550   31.9410   45.7110 C   0  0  0  0  0  0  0  0  0  0  0  0
   39.0030   32.5420   44.7960 N   0  0  0  0  0  0  0  0  0  0  0  0
   39.9730   33.4170   45.1880 C   0  0  0  0  0  0  0  0  0  0  0  0
   40.6360   33.9600   44.5210 H   0  0  0  0  0  0  0  0  0  0  0  0
   40.1040   33.6130   46.5500 C   0  0  0  0  0  3  0  0  0  0  0  0
   39.3150   32.9760   47.4980 C   0  0  0  0  0  3  0  0  0  0  0  0
   38.3400   32.0970   47.0760 C   0  0  0  0  0  0  0  0  0  0  0  0
   37.4870   31.3980   47.9140 C   0  0  0  0  0  3  0  0  0  0  0  0
   37.4510   30.5740   50.3810 C   0  0  0  0  0  0  0  0  0  0  0  0
   38.5260   30.0500   49.6790 F   0  0  0  0  0  0  0  0  0  0  0  0
   37.4070   31.9230   50.2020 F   0  0  0  0  0  0  0  0  0  0  0  0
   37.6960   30.3300   51.7250 F   0  0  0  0  0  0  0  0  0  0  0  0
  1  8  1  0  0  0  0
  2 23  1  0  0  0  0
  2  1  2  0  0  0  0
  3  2  1  0  0  0  0
  4  3  2  0  0  0  0
  4  5  1  0  0  0  0
  5  6  2  0  0  0  0
  6  1  1  0  0  0  0
  7  9  1  0  0  0  0
  7  5  1  0  0  0  0
 10  7  1  0  0  0  0
 11 22  1  0  0  0  0
 11  3  1  0  0  0  0
 12 11  2  0  0  0  0
 13 12  1  0  0  0  0
 14 15  2  0  0  0  0
 14 12  1  0  0  0  0
 15 21  1  0  0  0  0
 16 17  2  0  0  0  0
 16 15  1  0  0  0  0
 17 19  1  0  0  0  0
 18 17  1  0  0  0  0
 19 20  2  0  0  0  0
 21 20  1  0  0  0  0
 21 22  2  0  0  0  0
 23 26  1  0  0  0  0
 24 23  1  0  0  0  0
 25 23  1  0  0  0  0
M  END
>  <minimizedAffinity>
-6.96889257

>  <minimizedRMSD>
1.41945493

$$$$
