
 OpenBabel03262521083D

 48 51  0  0  1  0  0  0  0  0999 V2000
   37.3390   31.4100   45.3870 C   0  0  2  0  0  0  0  0  0  0  0  0
   38.3890   30.9620   44.4820 C   0  0  0  0  0  0  0  0  0  0  0  0
   39.6660   30.5450   45.2120 C   0  0  0  0  0  0  0  0  0  0  0  0
   40.2140   31.6360   46.0670 C   0  0  0  0  0  0  0  0  0  0  0  0
   39.1590   32.4760   46.7490 C   0  0  0  0  0  0  0  0  0  0  0  0
   37.8210   31.7480   46.7740 C   0  0  2  0  0  0  0  0  0  0  0  0
   36.8940   32.3630   44.9660 H   0  0  0  0  0  0  0  0  0  0  0  0
   38.7500   31.8110   43.8170 H   0  0  0  0  0  0  0  0  0  0  0  0
   38.2030   30.1440   43.7790 H   0  0  0  0  0  0  0  0  0  0  0  0
   39.5290   29.5760   45.6920 H   0  0  0  0  0  0  0  0  0  0  0  0
   40.4040   30.3730   44.3760 H   0  0  0  0  0  0  0  0  0  0  0  0
   40.8570   32.3080   45.4420 H   0  0  0  0  0  0  0  0  0  0  0  0
   40.9150   31.1700   46.7910 H   0  0  0  0  0  0  0  0  0  0  0  0
   39.0890   33.4540   46.2660 H   0  0  0  0  0  0  0  0  0  0  0  0
   39.4660   32.5680   47.8250 H   0  0  0  0  0  0  0  0  0  0  0  0
   37.0940   32.4910   47.1880 H   0  0  0  0  0  0  0  0  0  0  0  0
   36.1940   30.5090   45.5360 C   0  0  0  0  0  0  0  0  0  0  0  0
   35.9590   29.6870   44.4280 C   0  0  0  0  0  0  0  0  0  0  0  0
   34.8930   28.8040   44.5180 C   0  0  0  0  0  0  0  0  0  0  0  0
   34.1390   28.7750   45.6550 N   0  0  0  0  0  0  0  0  0  0  0  0
   34.4000   29.5850   46.6980 C   0  0  0  0  0  0  0  0  0  0  0  0
   35.4020   30.4060   46.5970 N   0  0  0  0  0  0  0  0  0  0  0  0
   36.4040   29.5540   43.4650 H   0  0  0  0  0  0  0  0  0  0  0  0
   34.5350   28.0960   43.8120 H   0  0  0  0  0  0  0  0  0  0  0  0
   33.8390   29.6060   47.6180 H   0  0  0  0  0  0  0  0  0  0  0  0
   37.9430   30.7280   47.7160 N   0  0  0  0  0  0  0  0  0  0  0  0
   38.8240   30.1940   47.7250 H   0  0  0  0  0  0  0  0  0  0  0  0
   37.5090   31.0800   49.3200 S   0  0  1  0  0  0  0  0  0  0  0  0
   38.7320   30.7100   50.1580 O   0  0  0  0  0  0  0  0  0  0  0  0
   39.3380   29.9600   49.8860 H   0  0  0  0  0  0  0  0  0  0  0  0
   37.2020   32.5000   49.5510 O   0  0  0  0  0  0  0  0  0  0  0  0
   36.6550   33.4800   50.3000 C   0  0  0  0  0  0  0  0  0  0  0  0
   37.0510   33.6800   51.6060 C   0  0  0  0  0  0  0  0  0  0  0  0
   37.8070   33.0330   52.0070 H   0  0  0  0  0  0  0  0  0  0  0  0
   36.5150   34.6680   52.3930 C   0  0  0  0  0  3  0  0  0  0  0  0
   35.5460   35.4630   51.8050 C   0  0  0  0  0  0  0  0  0  0  0  0
   35.0140   36.4340   52.5700 N   0  0  0  0  0  0  0  0  0  0  0  0
   34.0570   37.2470   52.0460 C   0  0  0  0  0  0  0  0  0  0  0  0
   33.6380   38.0270   52.6770 H   0  0  0  0  0  0  0  0  0  0  0  0
   33.5760   37.1490   50.7540 C   0  0  0  0  0  3  0  0  0  0  0  0
   34.1470   36.1340   49.9910 C   0  0  0  0  0  3  0  0  0  0  0  0
   35.1190   35.2960   50.4980 C   0  0  0  0  0  0  0  0  0  0  0  0
   35.6870   34.2860   49.7360 C   0  0  0  0  0  3  0  0  0  0  0  0
   36.2670   30.1040   49.8800 O   0  0  0  0  0  0  0  0  0  0  0  0
   36.5570   29.5130   51.0970 C   0  0  0  0  0  0  0  0  0  0  0  0
   37.4970   28.5330   50.9270 F   0  0  0  0  0  0  0  0  0  0  0  0
   37.1260   30.4790   51.8980 F   0  0  0  0  0  0  0  0  0  0  0  0
   35.4310   29.0660   51.7770 F   0  0  0  0  0  0  0  0  0  0  0  0
  1  7  1  6  0  0  0
  1 17  1  0  0  0  0
  1  6  1  0  0  0  0
  2  3  1  0  0  0  0
  2  1  1  0  0  0  0
  3 10  1  0  0  0  0
  3  4  1  0  0  0  0
  4  5  1  0  0  0  0
  4 13  1  0  0  0  0
  5  6  1  0  0  0  0
  5 15  1  0  0  0  0
  6 16  1  1  0  0  0
  6 26  1  0  0  0  0
  8  2  1  0  0  0  0
  9  2  1  0  0  0  0
 11  3  1  0  0  0  0
 12  4  1  0  0  0  0
 14  5  1  0  0  0  0
 17 22  1  0  0  0  0
 18 19  1  0  0  0  0
 18 17  2  0  0  0  0
 19 20  2  0  0  0  0
 20 21  1  0  0  0  0
 21 25  1  0  0  0  0
 22 21  2  0  0  0  0
 23 18  1  0  0  0  0
 24 19  1  0  0  0  0
 26 27  1  0  0  0  0
 26 28  1  0  0  0  0
 28 31  1  1  0  0  0
 28 44  1  0  0  0  0
 28 29  1  0  0  0  0
 30 29  1  0  0  0  0
 31 32  1  0  0  0  0
 32 33  1  0  0  0  0
 33 34  1  0  0  0  0
 33 35  2  0  0  0  0
 36 35  1  0  0  0  0
 36 37  1  0  0  0  0
 38 37  2  0  0  0  0
 38 39  1  0  0  0  0
 40 38  1  0  0  0  0
 41 42  1  0  0  0  0
 41 40  2  0  0  0  0
 42 36  2  0  0  0  0
 43 32  2  0  0  0  0
 43 42  1  0  0  0  0
 44 45  1  0  0  0  0
 45 48  1  0  0  0  0
 45 47  1  0  0  0  0
 46 45  1  0  0  0  0
M  END
>  <minimizedAffinity>
5.00267076

>  <minimizedRMSD>
1.08745396

$$$$
