
 OpenBabel03272509013D

 34 37  0  0  0  0  0  0  0  0999 V2000
   39.3010   31.1850   51.1190 Cl  0  0  0  0  0  0  0  0  0  0  0  0
   37.9860   30.6490   50.1270 C   0  0  0  0  0  0  0  0  0  0  0  0
   37.7440   31.2990   48.9330 C   0  0  0  0  0  0  0  0  0  0  0  0
   36.7120   30.9210   48.1070 C   0  0  0  0  0  0  0  0  0  0  0  0
   35.8870   29.8790   48.4520 C   0  0  0  0  0  0  0  0  0  0  0  0
   36.1050   29.2080   49.6440 C   0  0  0  0  0  0  0  0  0  0  0  0
   35.1030   27.8740   50.1850 Cl  0  0  0  0  0  0  0  0  0  0  0  0
   37.1650   29.6240   50.4550 C   0  0  0  0  0  0  0  0  0  0  0  0
   36.4720   31.3900   47.1610 H   0  0  0  0  0  0  0  0  0  0  0  0
   35.0590   29.5300   47.8520 H   0  0  0  0  0  0  0  0  0  0  0  0
   39.5860   34.4750   48.9900 C   0  0  0  0  0  0  0  0  0  0  0  0
   40.2110   34.5000   47.7340 C   0  0  0  0  0  0  0  0  0  0  0  0
   39.9800   33.3970   46.8770 C   0  0  0  0  0  0  0  0  0  0  0  0
   39.1770   32.4010   47.3270 N   0  0  0  0  0  0  0  0  0  0  0  0
   38.5910   32.4050   48.5350 C   0  0  0  0  0  0  0  0  0  0  0  0
   38.8140   33.4550   49.3480 N   0  0  0  0  0  0  0  0  0  0  0  0
   39.8040   35.3470   49.5960 H   0  0  0  0  0  0  0  0  0  0  0  0
   40.8580   35.2630   47.3240 H   0  0  0  0  0  0  0  0  0  0  0  0
   40.3810   33.2570   45.8830 H   0  0  0  0  0  0  0  0  0  0  0  0
   37.3810   28.9210   51.7450 C   0  0  0  0  0  0  0  0  0  0  0  0
   37.6960   29.7320   52.4620 H   0  0  0  0  0  0  0  0  0  0  0  0
   36.3660   28.6260   52.1520 H   0  0  0  0  0  0  0  0  0  0  0  0
   38.3170   27.8020   51.7260 C   0  0  0  0  0  0  0  0  0  0  0  0
   38.8010   27.2800   50.5460 C   0  0  0  0  0  0  0  0  0  0  0  0
   38.5410   27.6690   49.5720 H   0  0  0  0  0  0  0  0  0  0  0  0
   39.6700   26.2110   50.4420 C   0  0  0  0  0  3  0  0  0  0  0  0
   40.1100   25.5890   51.5910 C   0  0  0  0  0  0  0  0  0  0  0  0
   40.9560   24.5470   51.5410 N   0  0  0  0  0  0  0  0  0  0  0  0
   41.3970   23.9270   52.6500 C   0  0  0  0  0  0  0  0  0  0  0  0
   42.0780   23.0870   52.5960 H   0  0  0  0  0  0  0  0  0  0  0  0
   40.9770   24.3610   53.8980 C   0  0  0  0  0  3  0  0  0  0  0  0
   40.1100   25.4320   53.9510 C   0  0  0  0  0  3  0  0  0  0  0  0
   39.6670   26.0570   52.8090 C   0  0  0  0  0  0  0  0  0  0  0  0
   38.8070   27.1210   52.8240 C   0  0  0  0  0  3  0  0  0  0  0  0
  2  8  1  0  0  0  0
  2  1  1  0  0  0  0
  3  2  2  0  0  0  0
  4  5  2  0  0  0  0
  4  3  1  0  0  0  0
  5  6  1  0  0  0  0
  6  7  1  0  0  0  0
  6  8  2  0  0  0  0
  8 20  1  0  0  0  0
  9  4  1  0  0  0  0
 10  5  1  0  0  0  0
 11 16  1  0  0  0  0
 11 17  1  0  0  0  0
 12 11  2  0  0  0  0
 13 14  2  0  0  0  0
 13 12  1  0  0  0  0
 14 15  1  0  0  0  0
 15  3  1  0  0  0  0
 15 16  2  0  0  0  0
 18 12  1  0  0  0  0
 19 13  1  0  0  0  0
 20 22  1  0  0  0  0
 20 21  1  0  0  0  0
 23 20  1  0  0  0  0
 23 34  1  0  0  0  0
 24 23  2  0  0  0  0
 25 24  1  0  0  0  0
 26 24  1  0  0  0  0
 26 27  2  0  0  0  0
 27 33  1  0  0  0  0
 28 27  1  0  0  0  0
 28 29  2  0  0  0  0
 29 31  1  0  0  0  0
 30 29  1  0  0  0  0
 31 32  2  0  0  0  0
 33 34  2  0  0  0  0
 33 32  1  0  0  0  0
M  END
>  <minimizedAffinity>
1.49128497

>  <minimizedRMSD>
2.09496832

$$$$
