
 OpenBabel03272501583D

 34 37  0  0  0  0  0  0  0  0999 V2000
   32.8800   28.2580   47.8490 C   0  0  0  0  0  0  0  0  0  0  0  0
   32.0490   27.6470   48.7510 C   0  0  0  0  0  0  0  0  0  0  0  0
   30.7430   27.6650   48.2890 C   0  0  0  0  0  0  0  0  0  0  0  0
   30.8240   28.2970   47.1020 N   0  0  0  0  0  0  0  0  0  0  0  0
   32.0680   28.6470   46.8360 N   0  0  0  0  0  0  0  0  0  0  0  0
   32.2900   27.1870   49.7120 H   0  0  0  0  0  0  0  0  0  0  0  0
   29.7960   27.3060   48.6710 H   0  0  0  0  0  0  0  0  0  0  0  0
   29.8630   28.6490   46.1130 C   0  0  0  0  0  0  0  0  0  0  0  0
   29.6850   27.9380   44.9440 C   0  0  0  0  0  0  0  0  0  0  0  0
   30.3040   27.0780   44.7770 H   0  0  0  0  0  0  0  0  0  0  0  0
   28.7130   28.3920   44.0630 C   0  0  0  0  0  3  0  0  0  0  0  0
   27.9570   29.5040   44.3450 C   0  0  0  0  0  0  0  0  0  0  0  0
   27.0270   29.9100   43.4670 N   0  0  0  0  0  0  0  0  0  0  0  0
   26.2720   31.0010   43.7250 C   0  0  0  0  0  0  0  0  0  0  0  0
   25.5180   31.3060   42.9830 H   0  0  0  0  0  0  0  0  0  0  0  0
   26.4260   31.7360   44.8870 C   0  0  0  0  0  3  0  0  0  0  0  0
   27.3730   31.3420   45.8050 C   0  0  0  0  0  3  0  0  0  0  0  0
   28.1220   30.2250   45.5090 C   0  0  0  0  0  0  0  0  0  0  0  0
   29.0970   29.7700   46.3900 C   0  0  0  0  0  3  0  0  0  0  0  0
   34.3690   28.4300   48.0050 C   0  0  0  0  0  0  0  0  0  0  0  0
   34.9130   27.6420   47.4320 H   0  0  0  0  0  0  0  0  0  0  0  0
   34.5950   29.4260   47.5760 H   0  0  0  0  0  0  0  0  0  0  0  0
   34.6690   28.3030   49.4620 C   0  0  0  0  0  0  0  0  0  0  0  0
   34.8840   27.2550   49.7570 H   0  0  0  0  0  0  0  0  0  0  0  0
   33.8240   28.6630   50.0800 H   0  0  0  0  0  0  0  0  0  0  0  0
   37.2320   30.1530   51.4070 C   0  0  0  0  0  0  0  0  0  0  0  0
   38.0450   30.6820   50.3840 C   0  0  0  0  0  0  0  0  0  0  0  0
   37.7080   30.4010   49.0410 C   0  0  0  0  0  0  0  0  0  0  0  0
   36.6160   29.6330   48.8000 N   0  0  0  0  0  0  0  0  0  0  0  0
   35.8580   29.1420   49.8160 C   0  0  0  0  0  0  0  0  0  0  0  0
   36.1700   29.4030   51.0770 N   0  0  0  0  0  0  0  0  0  0  0  0
   37.4840   30.3640   52.4360 H   0  0  0  0  0  0  0  0  0  0  0  0
   38.9020   31.2840   50.5650 H   0  0  0  0  0  0  0  0  0  0  0  0
   38.2780   30.7670   48.1980 H   0  0  0  0  0  0  0  0  0  0  0  0
  1 20  1  0  0  0  0
  1  2  1  0  0  0  0
  2  6  1  0  0  0  0
  3  7  1  0  0  0  0
  3  2  2  0  0  0  0
  4  3  1  0  0  0  0
  5  4  1  0  0  0  0
  5  1  2  0  0  0  0
  8 19  1  0  0  0  0
  8  4  1  0  0  0  0
  9  8  2  0  0  0  0
 10  9  1  0  0  0  0
 11 12  2  0  0  0  0
 11  9  1  0  0  0  0
 12 18  1  0  0  0  0
 13 14  2  0  0  0  0
 13 12  1  0  0  0  0
 14 16  1  0  0  0  0
 15 14  1  0  0  0  0
 16 17  2  0  0  0  0
 18 17  1  0  0  0  0
 18 19  2  0  0  0  0
 20 23  1  0  0  0  0
 21 20  1  0  0  0  0
 22 20  1  0  0  0  0
 23 24  1  0  0  0  0
 23 30  1  0  0  0  0
 23 25  1  0  0  0  0
 26 32  1  0  0  0  0
 27 33  1  0  0  0  0
 27 26  2  0  0  0  0
 28 27  1  0  0  0  0
 29 28  2  0  0  0  0
 29 30  1  0  0  0  0
 30 31  2  0  0  0  0
 31 26  1  0  0  0  0
 34 28  1  0  0  0  0
M  END
>  <minimizedAffinity>
-5.339046

>  <minimizedRMSD>
0.934650779

$$$$
