
 OpenBabel03272502543D

 30 33  0  0  0  0  0  0  0  0999 V2000
   35.9320   29.0790   34.0190 C   0  0  0  0  0  0  0  0  0  0  0  0
   35.8370   29.1960   32.6410 C   0  0  0  0  0  0  0  0  0  0  0  0
   36.4850   28.2860   31.8120 C   0  0  0  0  0  0  0  0  0  0  0  0
   37.2080   27.2920   32.4370 C   0  0  0  0  0  0  0  0  0  0  0  0
   37.3120   27.1640   33.8130 C   0  0  0  0  0  0  0  0  0  0  0  0
   36.6500   28.0920   34.5560 N   0  0  0  0  0  0  0  0  0  0  0  0
   35.2620   29.9880   32.1770 H   0  0  0  0  0  0  0  0  0  0  0  0
   36.4140   28.3730   30.7400 H   0  0  0  0  0  0  0  0  0  0  0  0
   37.7110   26.5880   31.7900 H   0  0  0  0  0  0  0  0  0  0  0  0
   38.0790   26.1080   34.4580 C   0  0  0  0  0  0  0  0  0  0  0  0
   39.1320   25.4570   33.8900 C   0  0  0  0  0  0  0  0  0  0  0  0
   39.4450   25.7180   32.8920 H   0  0  0  0  0  0  0  0  0  0  0  0
   39.8510   24.4570   34.5110 C   0  0  0  0  0  3  0  0  0  0  0  0
   39.4880   24.0870   35.7930 C   0  0  0  0  0  0  0  0  0  0  0  0
   40.1380   23.1090   36.4870 N   0  0  0  0  0  0  0  0  0  0  0  0
   39.7150   22.8060   37.7470 C   0  0  0  0  0  0  0  0  0  0  0  0
   40.2520   22.0240   38.2740 H   0  0  0  0  0  0  0  0  0  0  0  0
   38.6580   23.4330   38.3670 C   0  0  0  0  0  3  0  0  0  0  0  0
   37.9800   24.4270   37.6850 C   0  0  0  0  0  3  0  0  0  0  0  0
   38.4270   24.7160   36.4160 C   0  0  0  0  0  0  0  0  0  0  0  0
   37.7360   25.7220   35.7330 C   0  0  0  0  0  3  0  0  0  0  0  0
   35.3230   31.8100   36.3750 C   0  0  0  0  0  0  0  0  0  0  0  0
   33.9350   31.8610   36.4650 C   0  0  0  0  0  0  0  0  0  0  0  0
   33.2020   30.9340   35.6960 C   0  0  0  0  0  0  0  0  0  0  0  0
   33.9170   30.0630   34.9290 N   0  0  0  0  0  0  0  0  0  0  0  0
   35.2490   30.0380   34.8630 C   0  0  0  0  0  0  0  0  0  0  0  0
   35.9490   30.9260   35.6000 N   0  0  0  0  0  0  0  0  0  0  0  0
   35.9130   32.5170   36.9620 H   0  0  0  0  0  0  0  0  0  0  0  0
   33.3980   32.5620   37.0820 H   0  0  0  0  0  0  0  0  0  0  0  0
   32.1180   30.8980   35.7010 H   0  0  0  0  0  0  0  0  0  0  0  0
  1  6  1  0  0  0  0
  1 26  1  0  0  0  0
  2  1  2  0  0  0  0
  3  4  2  0  0  0  0
  3  2  1  0  0  0  0
  4  5  1  0  0  0  0
  5 10  1  0  0  0  0
  5  6  2  0  0  0  0
  7  2  1  0  0  0  0
  8  3  1  0  0  0  0
  9  4  1  0  0  0  0
 10 21  1  0  0  0  0
 11 10  2  0  0  0  0
 11 13  1  0  0  0  0
 12 11  1  0  0  0  0
 13 14  2  0  0  0  0
 14 20  1  0  0  0  0
 14 15  1  0  0  0  0
 15 16  2  0  0  0  0
 16 17  1  0  0  0  0
 16 18  1  0  0  0  0
 19 18  2  0  0  0  0
 20 19  1  0  0  0  0
 21 20  2  0  0  0  0
 22 23  1  0  0  0  0
 22 28  1  0  0  0  0
 23 29  1  0  0  0  0
 24 30  1  0  0  0  0
 24 23  2  0  0  0  0
 25 24  1  0  0  0  0
 26 25  2  0  0  0  0
 26 27  1  0  0  0  0
 27 22  2  0  0  0  0
M  END
>  <minimizedAffinity>
-6.30886745

$$$$

 OpenBabel03272502543D

 30 33  0  0  0  0  0  0  0  0999 V2000
   39.8710   22.9700   36.7680 C   0  0  0  0  0  0  0  0  0  0  0  0
   39.3320   23.0600   38.0410 C   0  0  0  0  0  0  0  0  0  0  0  0
   38.2730   23.9260   38.2960 C   0  0  0  0  0  0  0  0  0  0  0  0
   37.8140   24.6670   37.2290 C   0  0  0  0  0  0  0  0  0  0  0  0
   38.3450   24.5870   35.9510 C   0  0  0  0  0  0  0  0  0  0  0  0
   39.3770   23.7180   35.7810 N   0  0  0  0  0  0  0  0  0  0  0  0
   39.7130   22.4660   38.8630 H   0  0  0  0  0  0  0  0  0  0  0  0
   37.8510   23.9980   39.2860 H   0  0  0  0  0  0  0  0  0  0  0  0
   36.9920   25.3380   37.4310 H   0  0  0  0  0  0  0  0  0  0  0  0
   37.8480   25.3770   34.8330 C   0  0  0  0  0  0  0  0  0  0  0  0
   37.9010   24.9920   33.5280 C   0  0  0  0  0  0  0  0  0  0  0  0
   38.3360   24.0400   33.2700 H   0  0  0  0  0  0  0  0  0  0  0  0
   37.4260   25.7490   32.4770 C   0  0  0  0  0  3  0  0  0  0  0  0
   36.8580   26.9780   32.7580 C   0  0  0  0  0  0  0  0  0  0  0  0
   36.3620   27.7970   31.7860 N   0  0  0  0  0  0  0  0  0  0  0  0
   35.8180   28.9930   32.1500 C   0  0  0  0  0  0  0  0  0  0  0  0
   35.4310   29.6220   31.3550 H   0  0  0  0  0  0  0  0  0  0  0  0
   35.7390   29.4290   33.4530 C   0  0  0  0  0  3  0  0  0  0  0  0
   36.2360   28.6190   34.4580 C   0  0  0  0  0  3  0  0  0  0  0  0
   36.7790   27.4170   34.0660 C   0  0  0  0  0  0  0  0  0  0  0  0
   37.2780   26.6030   35.0880 C   0  0  0  0  0  3  0  0  0  0  0  0
   42.5590   20.5510   37.3240 C   0  0  0  0  0  0  0  0  0  0  0  0
   43.0690   20.3310   36.0470 C   0  0  0  0  0  0  0  0  0  0  0  0
   42.4710   21.0330   34.9810 C   0  0  0  0  0  0  0  0  0  0  0  0
   41.4410   21.8700   35.2910 N   0  0  0  0  0  0  0  0  0  0  0  0
   40.9730   22.0620   36.5250 C   0  0  0  0  0  0  0  0  0  0  0  0
   41.5470   21.3890   37.5450 N   0  0  0  0  0  0  0  0  0  0  0  0
   43.0060   20.0200   38.1670 H   0  0  0  0  0  0  0  0  0  0  0  0
   43.8860   19.6620   35.8340 H   0  0  0  0  0  0  0  0  0  0  0  0
   42.8010   20.9240   33.9530 H   0  0  0  0  0  0  0  0  0  0  0  0
  1  2  1  0  0  0  0
  2  3  2  0  0  0  0
  2  7  1  0  0  0  0
  3  8  1  0  0  0  0
  4  9  1  0  0  0  0
  4  3  1  0  0  0  0
  5  4  2  0  0  0  0
  6  5  1  0  0  0  0
  6  1  2  0  0  0  0
 10 21  1  0  0  0  0
 10  5  1  0  0  0  0
 11 10  2  0  0  0  0
 12 11  1  0  0  0  0
 13 14  2  0  0  0  0
 13 11  1  0  0  0  0
 14 20  1  0  0  0  0
 15 16  2  0  0  0  0
 15 14  1  0  0  0  0
 16 18  1  0  0  0  0
 17 16  1  0  0  0  0
 18 19  2  0  0  0  0
 20 19  1  0  0  0  0
 20 21  2  0  0  0  0
 22 27  1  0  0  0  0
 22 28  1  0  0  0  0
 23 22  2  0  0  0  0
 24 25  2  0  0  0  0
 24 23  1  0  0  0  0
 25 26  1  0  0  0  0
 26  1  1  0  0  0  0
 26 27  2  0  0  0  0
 29 23  1  0  0  0  0
 30 24  1  0  0  0  0
M  END
>  <minimizedAffinity>
-6.09088659

$$$$

 OpenBabel03272502543D

 30 33  0  0  0  0  0  0  0  0999 V2000
   37.1020   28.5950   31.9280 C   0  0  0  0  0  0  0  0  0  0  0  0
   36.0720   29.2670   32.5650 C   0  0  0  0  0  0  0  0  0  0  0  0
   35.7170   28.9350   33.8690 C   0  0  0  0  0  0  0  0  0  0  0  0
   36.4370   27.9210   34.4630 C   0  0  0  0  0  0  0  0  0  0  0  0
   37.4700   27.2400   33.8360 C   0  0  0  0  0  0  0  0  0  0  0  0
   37.7570   27.6230   32.5630 N   0  0  0  0  0  0  0  0  0  0  0  0
   35.5210   30.0600   32.0740 H   0  0  0  0  0  0  0  0  0  0  0  0
   34.9150   29.4550   34.3680 H   0  0  0  0  0  0  0  0  0  0  0  0
   36.1580   27.6650   35.4750 H   0  0  0  0  0  0  0  0  0  0  0  0
   38.2220   26.1720   34.4780 C   0  0  0  0  0  0  0  0  0  0  0  0
   39.3040   25.5500   33.9330 C   0  0  0  0  0  0  0  0  0  0  0  0
   39.6540   25.8460   32.9570 H   0  0  0  0  0  0  0  0  0  0  0  0
   40.0090   24.5380   34.5510 C   0  0  0  0  0  3  0  0  0  0  0  0
   39.5980   24.1240   35.8050 C   0  0  0  0  0  0  0  0  0  0  0  0
   40.2320   23.1310   36.4940 N   0  0  0  0  0  0  0  0  0  0  0  0
   39.7610   22.7840   37.7260 C   0  0  0  0  0  0  0  0  0  0  0  0
   40.2860   21.9910   38.2500 H   0  0  0  0  0  0  0  0  0  0  0  0
   38.6730   23.3800   38.3220 C   0  0  0  0  0  3  0  0  0  0  0  0
   38.0120   24.3880   37.6440 C   0  0  0  0  0  3  0  0  0  0  0  0
   38.5060   24.7220   36.4040 C   0  0  0  0  0  0  0  0  0  0  0  0
   37.8330   25.7430   35.7250 C   0  0  0  0  0  3  0  0  0  0  0  0
   37.3640   30.4650   28.7940 C   0  0  0  0  0  0  0  0  0  0  0  0
   38.1390   29.6380   27.9840 C   0  0  0  0  0  0  0  0  0  0  0  0
   38.5740   28.4170   28.5350 C   0  0  0  0  0  0  0  0  0  0  0  0
   38.1990   28.1460   29.8170 N   0  0  0  0  0  0  0  0  0  0  0  0
   37.4560   28.9580   30.5700 C   0  0  0  0  0  0  0  0  0  0  0  0
   37.0390   30.1280   30.0410 N   0  0  0  0  0  0  0  0  0  0  0  0
   37.0140   31.4170   28.3900 H   0  0  0  0  0  0  0  0  0  0  0  0
   38.4190   29.8800   26.9720 H   0  0  0  0  0  0  0  0  0  0  0  0
   39.1810   27.7090   27.9800 H   0  0  0  0  0  0  0  0  0  0  0  0
  1  6  2  0  0  0  0
  1  2  1  0  0  0  0
  2  3  2  0  0  0  0
  3  8  1  0  0  0  0
  3  4  1  0  0  0  0
  4  9  1  0  0  0  0
  5  4  2  0  0  0  0
  5 10  1  0  0  0  0
  6  5  1  0  0  0  0
  7  2  1  0  0  0  0
 10 21  1  0  0  0  0
 11 10  2  0  0  0  0
 11 13  1  0  0  0  0
 12 11  1  0  0  0  0
 13 14  2  0  0  0  0
 14 20  1  0  0  0  0
 14 15  1  0  0  0  0
 15 16  2  0  0  0  0
 16 17  1  0  0  0  0
 16 18  1  0  0  0  0
 19 18  2  0  0  0  0
 20 19  1  0  0  0  0
 21 20  2  0  0  0  0
 22 27  1  0  0  0  0
 23 24  1  0  0  0  0
 23 22  2  0  0  0  0
 24 25  2  0  0  0  0
 25 26  1  0  0  0  0
 26  1  1  0  0  0  0
 27 26  2  0  0  0  0
 28 22  1  0  0  0  0
 29 23  1  0  0  0  0
 30 24  1  0  0  0  0
M  END
>  <minimizedAffinity>
-5.87892246

$$$$

 OpenBabel03272502543D

 30 33  0  0  0  0  0  0  0  0999 V2000
   35.3640   29.7590   34.2710 C   0  0  0  0  0  0  0  0  0  0  0  0
   35.0940   29.9920   32.9320 C   0  0  0  0  0  0  0  0  0  0  0  0
   35.7120   29.2280   31.9480 C   0  0  0  0  0  0  0  0  0  0  0  0
   36.5860   28.2540   32.3830 C   0  0  0  0  0  0  0  0  0  0  0  0
   36.8650   28.0120   33.7190 C   0  0  0  0  0  0  0  0  0  0  0  0
   36.2220   28.8000   34.6210 N   0  0  0  0  0  0  0  0  0  0  0  0
   34.4030   30.7640   32.6180 H   0  0  0  0  0  0  0  0  0  0  0  0
   35.5050   29.4060   30.9050 H   0  0  0  0  0  0  0  0  0  0  0  0
   37.0640   27.6640   31.6150 H   0  0  0  0  0  0  0  0  0  0  0  0
   37.7900   26.9790   34.1620 C   0  0  0  0  0  0  0  0  0  0  0  0
   39.0170   26.7520   33.6190 C   0  0  0  0  0  0  0  0  0  0  0  0
   39.3590   27.3630   32.7990 H   0  0  0  0  0  0  0  0  0  0  0  0
   39.8860   25.7700   34.0480 C   0  0  0  0  0  3  0  0  0  0  0  0
   39.4930   24.9600   35.0970 C   0  0  0  0  0  0  0  0  0  0  0  0
   40.2820   23.9620   35.5910 N   0  0  0  0  0  0  0  0  0  0  0  0
   39.8170   23.2100   36.6290 C   0  0  0  0  0  0  0  0  0  0  0  0
   40.4680   22.4240   37.0000 H   0  0  0  0  0  0  0  0  0  0  0  0
   38.5860   23.3980   37.2140 C   0  0  0  0  0  3  0  0  0  0  0  0
   37.7650   24.4010   36.7330 C   0  0  0  0  0  3  0  0  0  0  0  0
   38.2570   25.1470   35.6860 C   0  0  0  0  0  0  0  0  0  0  0  0
   37.4210   26.1610   35.2050 C   0  0  0  0  0  3  0  0  0  0  0  0
   34.7970   32.2510   36.8880 C   0  0  0  0  0  0  0  0  0  0  0  0
   33.4470   32.1000   37.1970 C   0  0  0  0  0  0  0  0  0  0  0  0
   32.7270   31.1200   36.4860 C   0  0  0  0  0  0  0  0  0  0  0  0
   33.4140   30.4000   35.5540 N   0  0  0  0  0  0  0  0  0  0  0  0
   34.7080   30.5660   35.2800 C   0  0  0  0  0  0  0  0  0  0  0  0
   35.3980   31.5070   35.9620 N   0  0  0  0  0  0  0  0  0  0  0  0
   35.3770   33.0050   37.4260 H   0  0  0  0  0  0  0  0  0  0  0  0
   32.9320   32.6850   37.9400 H   0  0  0  0  0  0  0  0  0  0  0  0
   31.6730   30.9310   36.6570 H   0  0  0  0  0  0  0  0  0  0  0  0
  1  6  1  0  0  0  0
  1 26  1  0  0  0  0
  2  1  2  0  0  0  0
  3  4  2  0  0  0  0
  3  2  1  0  0  0  0
  4  5  1  0  0  0  0
  5 10  1  0  0  0  0
  5  6  2  0  0  0  0
  7  2  1  0  0  0  0
  8  3  1  0  0  0  0
  9  4  1  0  0  0  0
 10 21  1  0  0  0  0
 11 13  1  0  0  0  0
 11 10  2  0  0  0  0
 12 11  1  0  0  0  0
 13 14  2  0  0  0  0
 14 15  1  0  0  0  0
 14 20  1  0  0  0  0
 15 16  2  0  0  0  0
 16 17  1  0  0  0  0
 16 18  1  0  0  0  0
 19 18  2  0  0  0  0
 20 19  1  0  0  0  0
 21 20  2  0  0  0  0
 22 23  1  0  0  0  0
 22 28  1  0  0  0  0
 23 29  1  0  0  0  0
 24 30  1  0  0  0  0
 24 23  2  0  0  0  0
 25 24  1  0  0  0  0
 26 25  2  0  0  0  0
 26 27  1  0  0  0  0
 27 22  2  0  0  0  0
M  END
>  <minimizedAffinity>
-5.86413288

$$$$

 OpenBabel03272502543D

 30 33  0  0  0  0  0  0  0  0999 V2000
   36.5300   27.0430   31.1920 C   0  0  0  0  0  0  0  0  0  0  0  0
   37.1870   27.8080   30.2420 C   0  0  0  0  0  0  0  0  0  0  0  0
   37.0950   29.1960   30.2710 C   0  0  0  0  0  0  0  0  0  0  0  0
   36.3260   29.7400   31.2780 C   0  0  0  0  0  0  0  0  0  0  0  0
   35.6630   28.9860   32.2340 C   0  0  0  0  0  0  0  0  0  0  0  0
   35.8020   27.6360   32.1380 N   0  0  0  0  0  0  0  0  0  0  0  0
   37.7840   27.3540   29.4610 H   0  0  0  0  0  0  0  0  0  0  0  0
   37.6050   29.7950   29.5340 H   0  0  0  0  0  0  0  0  0  0  0  0
   36.2560   30.8180   31.2970 H   0  0  0  0  0  0  0  0  0  0  0  0
   34.8550   29.5760   33.2920 C   0  0  0  0  0  0  0  0  0  0  0  0
   33.5170   29.3770   33.4480 C   0  0  0  0  0  0  0  0  0  0  0  0
   32.9870   28.7430   32.7550 H   0  0  0  0  0  0  0  0  0  0  0  0
   32.7620   29.9420   34.4550 C   0  0  0  0  0  3  0  0  0  0  0  0
   33.3970   30.7630   35.3690 C   0  0  0  0  0  0  0  0  0  0  0  0
   32.7350   31.3670   36.3980 N   0  0  0  0  0  0  0  0  0  0  0  0
   33.4370   32.1610   37.2540 C   0  0  0  0  0  0  0  0  0  0  0  0
   32.8830   32.6270   38.0630 H   0  0  0  0  0  0  0  0  0  0  0  0
   34.7890   32.3950   37.1420 C   0  0  0  0  0  3  0  0  0  0  0  0
   35.4840   31.7960   36.1070 C   0  0  0  0  0  3  0  0  0  0  0  0
   34.7540   30.9980   35.2560 C   0  0  0  0  0  0  0  0  0  0  0  0
   35.4640   30.3960   34.2130 C   0  0  0  0  0  3  0  0  0  0  0  0
   37.8880   23.6840   30.6850 C   0  0  0  0  0  0  0  0  0  0  0  0
   36.8380   22.8480   31.0570 C   0  0  0  0  0  0  0  0  0  0  0  0
   35.6450   23.4600   31.4880 C   0  0  0  0  0  0  0  0  0  0  0  0
   35.6180   24.8230   31.5050 N   0  0  0  0  0  0  0  0  0  0  0  0
   36.6400   25.5990   31.1430 C   0  0  0  0  0  0  0  0  0  0  0  0
   37.7830   25.0110   30.7290 N   0  0  0  0  0  0  0  0  0  0  0  0
   38.8230   23.2340   30.3470 H   0  0  0  0  0  0  0  0  0  0  0  0
   36.8900   21.7720   31.0330 H   0  0  0  0  0  0  0  0  0  0  0  0
   34.7750   22.8900   31.7980 H   0  0  0  0  0  0  0  0  0  0  0  0
  1  6  1  0  0  0  0
  2  3  1  0  0  0  0
  2  1  2  0  0  0  0
  3  4  2  0  0  0  0
  4  9  1  0  0  0  0
  4  5  1  0  0  0  0
  5 10  1  0  0  0  0
  6  5  2  0  0  0  0
  7  2  1  0  0  0  0
  8  3  1  0  0  0  0
 10 11  2  0  0  0  0
 10 21  1  0  0  0  0
 11 13  1  0  0  0  0
 12 11  1  0  0  0  0
 13 14  2  0  0  0  0
 14 15  1  0  0  0  0
 15 16  2  0  0  0  0
 16 17  1  0  0  0  0
 18 16  1  0  0  0  0
 19 18  2  0  0  0  0
 20 14  1  0  0  0  0
 20 19  1  0  0  0  0
 21 20  2  0  0  0  0
 22 27  2  0  0  0  0
 22 23  1  0  0  0  0
 23 24  2  0  0  0  0
 24 25  1  0  0  0  0
 24 30  1  0  0  0  0
 26  1  1  0  0  0  0
 26 25  2  0  0  0  0
 27 26  1  0  0  0  0
 28 22  1  0  0  0  0
 29 23  1  0  0  0  0
M  END
>  <minimizedAffinity>
-5.85193062

$$$$

 OpenBabel03272502543D

 30 33  0  0  0  0  0  0  0  0999 V2000
   37.4720   26.9230   33.7830 C   0  0  0  0  0  0  0  0  0  0  0  0
   37.7960   27.1260   32.4510 C   0  0  0  0  0  0  0  0  0  0  0  0
   37.2140   28.1690   31.7380 C   0  0  0  0  0  0  0  0  0  0  0  0
   36.3210   28.9610   32.4260 C   0  0  0  0  0  0  0  0  0  0  0  0
   35.9880   28.7680   33.7580 C   0  0  0  0  0  0  0  0  0  0  0  0
   36.5980   27.7280   34.3870 N   0  0  0  0  0  0  0  0  0  0  0  0
   38.5020   26.4870   31.9340 H   0  0  0  0  0  0  0  0  0  0  0  0
   37.4630   28.3310   30.7020 H   0  0  0  0  0  0  0  0  0  0  0  0
   35.8710   29.7700   31.8690 H   0  0  0  0  0  0  0  0  0  0  0  0
   35.0410   29.6150   34.4720 C   0  0  0  0  0  0  0  0  0  0  0  0
   33.6940   29.4220   34.4960 C   0  0  0  0  0  0  0  0  0  0  0  0
   33.2640   28.5920   33.9580 H   0  0  0  0  0  0  0  0  0  0  0  0
   32.8080   30.2310   35.1760 C   0  0  0  0  0  3  0  0  0  0  0  0
   33.3110   31.3080   35.8810 C   0  0  0  0  0  0  0  0  0  0  0  0
   32.5130   32.1640   36.5830 N   0  0  0  0  0  0  0  0  0  0  0  0
   33.0920   33.2010   37.2520 C   0  0  0  0  0  0  0  0  0  0  0  0
   32.4320   33.8650   37.8020 H   0  0  0  0  0  0  0  0  0  0  0  0
   34.4480   33.4410   37.2610 C   0  0  0  0  0  3  0  0  0  0  0  0
   35.2790   32.5900   36.5560 C   0  0  0  0  0  3  0  0  0  0  0  0
   34.6720   31.5490   35.8910 C   0  0  0  0  0  0  0  0  0  0  0  0
   35.5190   30.6930   35.1810 C   0  0  0  0  0  3  0  0  0  0  0  0
   39.6520   24.1020   34.6060 C   0  0  0  0  0  0  0  0  0  0  0  0
   39.2610   23.7540   35.8970 C   0  0  0  0  0  0  0  0  0  0  0  0
   38.2280   24.5080   36.4860 C   0  0  0  0  0  0  0  0  0  0  0  0
   37.6960   25.5190   35.7420 N   0  0  0  0  0  0  0  0  0  0  0  0
   38.0900   25.8300   34.5060 C   0  0  0  0  0  0  0  0  0  0  0  0
   39.0810   25.1050   33.9420 N   0  0  0  0  0  0  0  0  0  0  0  0
   40.4500   23.5320   34.1270 H   0  0  0  0  0  0  0  0  0  0  0  0
   39.7020   22.9480   36.4600 H   0  0  0  0  0  0  0  0  0  0  0  0
   37.8580   24.3110   37.4870 H   0  0  0  0  0  0  0  0  0  0  0  0
  1  6  1  0  0  0  0
  1 26  1  0  0  0  0
  2  1  2  0  0  0  0
  3  4  2  0  0  0  0
  3  2  1  0  0  0  0
  4  5  1  0  0  0  0
  5  6  2  0  0  0  0
  5 10  1  0  0  0  0
  7  2  1  0  0  0  0
  8  3  1  0  0  0  0
  9  4  1  0  0  0  0
 10 11  2  0  0  0  0
 10 21  1  0  0  0  0
 11 13  1  0  0  0  0
 12 11  1  0  0  0  0
 13 14  2  0  0  0  0
 14 20  1  0  0  0  0
 14 15  1  0  0  0  0
 15 16  2  0  0  0  0
 16 18  1  0  0  0  0
 16 17  1  0  0  0  0
 19 18  2  0  0  0  0
 20 19  1  0  0  0  0
 21 20  2  0  0  0  0
 22 23  1  0  0  0  0
 23 29  1  0  0  0  0
 23 24  2  0  0  0  0
 24 30  1  0  0  0  0
 25 24  1  0  0  0  0
 26 25  2  0  0  0  0
 27 26  1  0  0  0  0
 27 22  2  0  0  0  0
 28 22  1  0  0  0  0
M  END
>  <minimizedAffinity>
-5.81336117

$$$$

 OpenBabel03272502543D

 30 33  0  0  0  0  0  0  0  0999 V2000
   38.1230   24.4300   34.6030 C   0  0  0  0  0  0  0  0  0  0  0  0
   38.3440   23.5180   33.5830 C   0  0  0  0  0  0  0  0  0  0  0  0
   38.0650   23.8590   32.2630 C   0  0  0  0  0  0  0  0  0  0  0  0
   37.5690   25.1270   32.0470 C   0  0  0  0  0  0  0  0  0  0  0  0
   37.3430   26.0480   33.0580 C   0  0  0  0  0  0  0  0  0  0  0  0
   37.6390   25.6410   34.3210 N   0  0  0  0  0  0  0  0  0  0  0  0
   38.7340   22.5280   33.7820 H   0  0  0  0  0  0  0  0  0  0  0  0
   38.2360   23.1530   31.4670 H   0  0  0  0  0  0  0  0  0  0  0  0
   37.3540   25.3870   31.0210 H   0  0  0  0  0  0  0  0  0  0  0  0
   36.8180   27.3840   32.8130 C   0  0  0  0  0  0  0  0  0  0  0  0
   36.6560   27.9390   31.5800 C   0  0  0  0  0  0  0  0  0  0  0  0
   36.9270   27.3760   30.7020 H   0  0  0  0  0  0  0  0  0  0  0  0
   36.1580   29.2070   31.3610 C   0  0  0  0  0  3  0  0  0  0  0  0
   35.7970   29.9690   32.4570 C   0  0  0  0  0  0  0  0  0  0  0  0
   35.2960   31.2320   32.3400 N   0  0  0  0  0  0  0  0  0  0  0  0
   34.9650   31.9150   33.4730 C   0  0  0  0  0  0  0  0  0  0  0  0
   34.5680   32.9170   33.3480 H   0  0  0  0  0  0  0  0  0  0  0  0
   35.1090   31.4000   34.7420 C   0  0  0  0  0  3  0  0  0  0  0  0
   35.6160   30.1220   34.8890 C   0  0  0  0  0  3  0  0  0  0  0  0
   35.9410   29.4530   33.7310 C   0  0  0  0  0  0  0  0  0  0  0  0
   36.4520   28.1610   33.8880 C   0  0  0  0  0  3  0  0  0  0  0  0
   39.7060   22.8560   37.5000 C   0  0  0  0  0  0  0  0  0  0  0  0
   38.9770   23.3490   38.5790 C   0  0  0  0  0  0  0  0  0  0  0  0
   37.9220   24.2390   38.2950 C   0  0  0  0  0  0  0  0  0  0  0  0
   37.7040   24.5420   36.9840 N   0  0  0  0  0  0  0  0  0  0  0  0
   38.4200   24.0550   35.9700 C   0  0  0  0  0  0  0  0  0  0  0  0
   39.4300   23.2020   36.2440 N   0  0  0  0  0  0  0  0  0  0  0  0
   40.5290   22.1650   37.6950 H   0  0  0  0  0  0  0  0  0  0  0  0
   39.1730   23.0890   39.6060 H   0  0  0  0  0  0  0  0  0  0  0  0
   37.2990   24.6740   39.0700 H   0  0  0  0  0  0  0  0  0  0  0  0
  1 26  1  0  0  0  0
  2  7  1  0  0  0  0
  2  1  2  0  0  0  0
  3  2  1  0  0  0  0
  4  3  2  0  0  0  0
  4  5  1  0  0  0  0
  5  6  2  0  0  0  0
  6  1  1  0  0  0  0
  8  3  1  0  0  0  0
  9  4  1  0  0  0  0
 10  5  1  0  0  0  0
 10 21  1  0  0  0  0
 11 10  2  0  0  0  0
 12 11  1  0  0  0  0
 13 11  1  0  0  0  0
 13 14  2  0  0  0  0
 14 20  1  0  0  0  0
 15 14  1  0  0  0  0
 15 16  2  0  0  0  0
 16 18  1  0  0  0  0
 17 16  1  0  0  0  0
 18 19  2  0  0  0  0
 20 21  2  0  0  0  0
 20 19  1  0  0  0  0
 22 28  1  0  0  0  0
 22 23  1  0  0  0  0
 23 29  1  0  0  0  0
 24 23  2  0  0  0  0
 24 30  1  0  0  0  0
 25 24  1  0  0  0  0
 26 27  1  0  0  0  0
 26 25  2  0  0  0  0
 27 22  2  0  0  0  0
M  END
>  <minimizedAffinity>
-5.7795043

$$$$

 OpenBabel03272502543D

 30 33  0  0  0  0  0  0  0  0999 V2000
   38.0450   24.7080   34.7560 C   0  0  0  0  0  0  0  0  0  0  0  0
   38.2180   23.9000   33.6430 C   0  0  0  0  0  0  0  0  0  0  0  0
   37.8830   24.3680   32.3770 C   0  0  0  0  0  0  0  0  0  0  0  0
   37.3830   25.6510   32.3080 C   0  0  0  0  0  0  0  0  0  0  0  0
   37.2040   26.4680   33.4130 C   0  0  0  0  0  0  0  0  0  0  0  0
   37.5540   25.9390   34.6160 N   0  0  0  0  0  0  0  0  0  0  0  0
   38.6130   22.8960   33.7270 H   0  0  0  0  0  0  0  0  0  0  0  0
   38.0160   23.7430   31.5090 H   0  0  0  0  0  0  0  0  0  0  0  0
   37.1230   26.0100   31.3220 H   0  0  0  0  0  0  0  0  0  0  0  0
   36.6740   27.8220   33.3230 C   0  0  0  0  0  0  0  0  0  0  0  0
   36.1270   28.5100   34.3620 C   0  0  0  0  0  0  0  0  0  0  0  0
   36.0660   28.0490   35.3350 H   0  0  0  0  0  0  0  0  0  0  0  0
   35.6280   29.7930   34.2650 C   0  0  0  0  0  3  0  0  0  0  0  0
   35.6840   30.4270   33.0370 C   0  0  0  0  0  0  0  0  0  0  0  0
   35.2150   31.6930   32.8420 N   0  0  0  0  0  0  0  0  0  0  0  0
   35.3100   32.2440   31.5990 C   0  0  0  0  0  0  0  0  0  0  0  0
   34.9290   33.2530   31.4750 H   0  0  0  0  0  0  0  0  0  0  0  0
   35.8530   31.5920   30.5160 C   0  0  0  0  0  3  0  0  0  0  0  0
   36.3340   30.3060   30.6850 C   0  0  0  0  0  3  0  0  0  0  0  0
   36.2300   29.7730   31.9490 C   0  0  0  0  0  0  0  0  0  0  0  0
   36.7190   28.4730   32.1120 C   0  0  0  0  0  3  0  0  0  0  0  0
   39.7690   22.8840   37.4180 C   0  0  0  0  0  0  0  0  0  0  0  0
   39.0690   23.2430   38.5660 C   0  0  0  0  0  0  0  0  0  0  0  0
   37.9850   24.1300   38.4130 C   0  0  0  0  0  0  0  0  0  0  0  0
   37.7120   24.5620   37.1490 N   0  0  0  0  0  0  0  0  0  0  0  0
   38.4010   24.2000   36.0660 C   0  0  0  0  0  0  0  0  0  0  0  0
   39.4400   23.3500   36.2150 N   0  0  0  0  0  0  0  0  0  0  0  0
   40.6140   22.1970   37.5100 H   0  0  0  0  0  0  0  0  0  0  0  0
   39.3090   22.8830   39.5530 H   0  0  0  0  0  0  0  0  0  0  0  0
   37.3820   24.4660   39.2500 H   0  0  0  0  0  0  0  0  0  0  0  0
  1 26  1  0  0  0  0
  2  7  1  0  0  0  0
  2  1  2  0  0  0  0
  3  2  1  0  0  0  0
  4  3  2  0  0  0  0
  4  5  1  0  0  0  0
  5  6  2  0  0  0  0
  6  1  1  0  0  0  0
  8  3  1  0  0  0  0
  9  4  1  0  0  0  0
 10  5  1  0  0  0  0
 10 11  1  0  0  0  0
 11 12  1  0  0  0  0
 13 11  2  0  0  0  0
 14 13  1  0  0  0  0
 15 14  1  0  0  0  0
 16 15  2  0  0  0  0
 17 16  1  0  0  0  0
 18 19  2  0  0  0  0
 18 16  1  0  0  0  0
 19 20  1  0  0  0  0
 20 21  1  0  0  0  0
 20 14  2  0  0  0  0
 21 10  2  0  0  0  0
 22 28  1  0  0  0  0
 22 23  1  0  0  0  0
 23 29  1  0  0  0  0
 24 23  2  0  0  0  0
 24 30  1  0  0  0  0
 25 24  1  0  0  0  0
 26 27  1  0  0  0  0
 26 25  2  0  0  0  0
 27 22  2  0  0  0  0
M  END
>  <minimizedAffinity>
-5.76524544

$$$$

 OpenBabel03272502543D

 30 33  0  0  0  0  0  0  0  0999 V2000
   37.0120   27.1520   33.8170 C   0  0  0  0  0  0  0  0  0  0  0  0
   37.0980   27.2760   32.4390 C   0  0  0  0  0  0  0  0  0  0  0  0
   36.5830   28.4000   31.8020 C   0  0  0  0  0  0  0  0  0  0  0  0
   35.9970   29.3510   32.6090 C   0  0  0  0  0  0  0  0  0  0  0  0
   35.9040   29.2390   33.9880 C   0  0  0  0  0  0  0  0  0  0  0  0
   36.4310   28.1120   34.5370 N   0  0  0  0  0  0  0  0  0  0  0  0
   37.5630   26.5120   31.8290 H   0  0  0  0  0  0  0  0  0  0  0  0
   36.6470   28.5000   30.7300 H   0  0  0  0  0  0  0  0  0  0  0  0
   35.5980   30.2210   32.1100 H   0  0  0  0  0  0  0  0  0  0  0  0
   35.2830   30.2540   34.8280 C   0  0  0  0  0  0  0  0  0  0  0  0
   35.9620   31.1190   35.6290 C   0  0  0  0  0  0  0  0  0  0  0  0
   37.0390   31.0760   35.6690 H   0  0  0  0  0  0  0  0  0  0  0  0
   35.3620   32.0760   36.4200 C   0  0  0  0  0  3  0  0  0  0  0  0
   33.9830   32.1700   36.4040 C   0  0  0  0  0  0  0  0  0  0  0  0
   33.3000   33.0840   37.1520 N   0  0  0  0  0  0  0  0  0  0  0  0
   31.9390   33.1100   37.0760 C   0  0  0  0  0  0  0  0  0  0  0  0
   31.4240   33.8480   37.6830 H   0  0  0  0  0  0  0  0  0  0  0  0
   31.2040   32.2580   36.2820 C   0  0  0  0  0  3  0  0  0  0  0  0
   31.8710   31.3210   35.5150 C   0  0  0  0  0  3  0  0  0  0  0  0
   33.2440   31.3160   35.6070 C   0  0  0  0  0  0  0  0  0  0  0  0
   33.9120   30.3660   34.8270 C   0  0  0  0  0  3  0  0  0  0  0  0
   38.2400   24.8620   36.3920 C   0  0  0  0  0  0  0  0  0  0  0  0
   38.5900   23.7210   35.6750 C   0  0  0  0  0  0  0  0  0  0  0  0
   38.3980   23.7500   34.2800 C   0  0  0  0  0  0  0  0  0  0  0  0
   37.8830   24.8950   33.7480 N   0  0  0  0  0  0  0  0  0  0  0  0
   37.5560   25.9740   34.4610 C   0  0  0  0  0  0  0  0  0  0  0  0
   37.7420   25.9450   35.7980 N   0  0  0  0  0  0  0  0  0  0  0  0
   38.3800   24.8650   37.4750 H   0  0  0  0  0  0  0  0  0  0  0  0
   38.9960   22.8300   36.1250 H   0  0  0  0  0  0  0  0  0  0  0  0
   38.6410   22.9090   33.6390 H   0  0  0  0  0  0  0  0  0  0  0  0
  1 26  1  0  0  0  0
  1  6  1  0  0  0  0
  2  1  2  0  0  0  0
  3  2  1  0  0  0  0
  3  4  2  0  0  0  0
  4  5  1  0  0  0  0
  5  6  2  0  0  0  0
  5 10  1  0  0  0  0
  7  2  1  0  0  0  0
  8  3  1  0  0  0  0
  9  4  1  0  0  0  0
 10 11  1  0  0  0  0
 11 12  1  0  0  0  0
 11 13  2  0  0  0  0
 14 13  1  0  0  0  0
 14 15  1  0  0  0  0
 16 15  2  0  0  0  0
 16 17  1  0  0  0  0
 18 16  1  0  0  0  0
 19 20  1  0  0  0  0
 19 18  2  0  0  0  0
 20 14  2  0  0  0  0
 21 10  2  0  0  0  0
 21 20  1  0  0  0  0
 22 28  1  0  0  0  0
 23 29  1  0  0  0  0
 23 22  2  0  0  0  0
 24 23  1  0  0  0  0
 25 24  2  0  0  0  0
 25 26  1  0  0  0  0
 26 27  2  0  0  0  0
 27 22  1  0  0  0  0
 30 24  1  0  0  0  0
M  END
>  <minimizedAffinity>
-5.73523331

$$$$
