
 OpenBabel03262522133D

 36 39  0  0  0  0  0  0  0  0999 V2000
   37.7100   31.7040   47.6380 C   0  0  0  0  0  0  0  0  0  0  0  0
   37.8960   32.4850   48.8010 C   0  0  0  0  0  0  0  0  0  0  0  0
   38.9120   33.4170   48.8690 C   0  0  0  0  0  0  0  0  0  0  0  0
   39.7120   33.5230   47.7410 C   0  0  0  0  0  0  0  0  0  0  0  0
   39.5090   32.7530   46.6270 C   0  0  0  0  0  0  0  0  0  0  0  0
   38.5140   31.8410   46.5580 N   0  0  0  0  0  0  0  0  0  0  0  0
   37.2460   32.3680   49.6600 H   0  0  0  0  0  0  0  0  0  0  0  0
   39.0900   34.0330   49.7360 H   0  0  0  0  0  0  0  0  0  0  0  0
   40.5240   34.2440   47.7520 H   0  0  0  0  0  0  0  0  0  0  0  0
   36.6260   30.7620   47.6590 C   0  0  0  0  0  0  0  0  0  0  0  0
   36.1150   30.3680   46.6150 O   0  0  0  0  0  0  0  0  0  0  0  0
   36.9540   29.6220   49.8190 C   0  0  0  0  0  0  0  0  0  0  0  0
   36.0720   30.2190   48.9010 C   0  0  0  0  0  0  0  0  0  0  0  0
   34.7060   30.2710   49.2060 C   0  0  0  0  0  0  0  0  0  0  0  0
   34.2800   29.7370   50.3890 N   0  0  0  0  0  0  0  0  0  0  0  0
   35.1650   29.1660   51.2590 C   0  0  0  0  0  0  0  0  0  0  0  0
   36.4730   29.1100   50.9780 N   0  0  0  0  0  0  0  0  0  0  0  0
   38.0200   29.5570   49.6310 H   0  0  0  0  0  0  0  0  0  0  0  0
   34.0820   30.7320   48.4780 H   0  0  0  0  0  0  0  0  0  0  0  0
   34.8060   28.7440   52.2010 H   0  0  0  0  0  0  0  0  0  0  0  0
   40.5630   32.9400   45.1880 S   0  0  0  0  0  0  0  0  0  0  0  0
   39.5080   32.7020   43.7440 C   0  0  0  0  0  0  0  0  0  0  0  0
   38.4280   32.8820   43.9950 H   0  0  0  0  0  0  0  0  0  0  0  0
   39.8500   33.4810   42.9960 H   0  0  0  0  0  0  0  0  0  0  0  0
   39.6360   31.3850   43.0910 C   0  0  0  0  0  0  0  0  0  0  0  0
   40.1360   31.4080   41.7770 C   0  0  0  0  0  0  0  0  0  0  0  0
   40.4240   32.3540   41.3170 H   0  0  0  0  0  0  0  0  0  0  0  0
   40.3080   30.3050   40.9700 C   0  0  0  0  0  0  0  0  0  0  0  0
   39.9640   29.0860   41.4880 C   0  0  0  0  0  0  0  0  0  0  0  0
   40.1170   27.9900   40.7100 N   0  0  0  0  0  0  0  0  0  0  0  0
   39.8000   26.7410   41.1270 C   0  0  0  0  0  0  0  0  0  0  0  0
   39.9440   25.9000   40.4620 H   0  0  0  0  0  0  0  0  0  0  0  0
   39.3060   26.6730   42.4130 C   0  0  0  0  0  0  0  0  0  0  0  0
   39.1400   27.7680   43.2230 C   0  0  0  0  0  0  0  0  0  0  0  0
   39.4720   29.0250   42.7690 C   0  0  0  0  0  0  0  0  0  0  0  0
   39.3090   30.1300   43.5590 C   0  0  0  0  0  0  0  0  0  0  0  0
  1 10  1  0  0  0  0
  1  2  1  0  0  0  0
  2  3  2  0  0  0  0
  2  7  1  0  0  0  0
  3  8  1  0  0  0  0
  4  9  1  0  0  0  0
  4  3  1  0  0  0  0
  5  4  2  0  0  0  0
  6  5  1  0  0  0  0
  6  1  2  0  0  0  0
 10 13  1  0  0  0  0
 11 10  2  0  0  0  0
 12 17  1  0  0  0  0
 13 14  1  0  0  0  0
 13 12  2  0  0  0  0
 14 15  2  0  0  0  0
 15 16  1  0  0  0  0
 16 20  1  0  0  0  0
 17 16  2  0  0  0  0
 18 12  1  0  0  0  0
 19 14  1  0  0  0  0
 21  5  1  0  0  0  0
 22 23  1  0  0  0  0
 22 21  1  0  0  0  0
 24 22  1  0  0  0  0
 25 36  1  0  0  0  0
 25 22  1  0  0  0  0
 26 25  2  0  0  0  0
 27 26  1  0  0  0  0
 28 29  2  0  0  0  0
 28 26  1  0  0  0  0
 29 35  1  0  0  0  0
 30 31  2  0  0  0  0
 30 29  1  0  0  0  0
 31 33  1  0  0  0  0
 32 31  1  0  0  0  0
 33 34  2  0  0  0  0
 35 34  1  0  0  0  0
 35 36  2  0  0  0  0
M  END
>  <minimizedAffinity>
-6.05320978

>  <minimizedRMSD>
1.89835739

$$$$
