
 OpenBabel03272503133D

 49 54  0  0  0  0  0  0  0  0999 V2000
   39.1050   32.2570   42.6190 C   0  0  0  0  0  0  0  0  0  0  0  0
   39.6620   31.5410   43.6660 C   0  0  0  0  0  0  0  0  0  0  0  0
   40.5580   30.5360   43.4840 C   0  0  0  0  0  0  0  0  0  0  0  0
   40.9550   30.1860   42.1980 C   0  0  0  0  0  0  0  0  0  0  0  0
   41.7970   29.2660   41.7320 N   0  0  0  0  0  0  0  0  0  0  0  0
   41.7960   29.3720   40.3970 C   0  0  0  0  0  0  0  0  0  0  0  0
   40.9560   30.3560   40.0300 N   0  0  0  0  0  0  0  0  0  0  0  0
   40.4010   30.8980   41.1480 C   0  0  0  0  0  0  0  0  0  0  0  0
   39.4870   31.9250   41.3110 C   0  0  0  0  0  0  0  0  0  0  0  0
   38.4030   33.0450   42.7620 H   0  0  0  0  0  0  0  0  0  0  0  0
   40.9750   29.9960   44.3170 H   0  0  0  0  0  0  0  0  0  0  0  0
   42.3740   28.5680   42.2560 H   0  0  0  0  0  0  0  0  0  0  0  0
   42.3070   28.8510   39.6180 H   0  0  0  0  0  0  0  0  0  0  0  0
   39.2170   31.9430   44.9860 C   0  0  0  0  0  0  0  0  0  0  0  0
   38.1220   32.5760   45.1280 O   0  0  0  0  0  0  0  0  0  0  0  0
   39.9370   31.6760   46.1950 N   0  0  0  0  0  0  0  0  0  0  0  0
   40.8220   31.1660   46.1300 H   0  0  0  0  0  0  0  0  0  0  0  0
   38.1060   30.1720   47.5160 F   0  0  0  0  0  0  0  0  0  0  0  0
   38.3710   31.4180   48.0230 C   0  0  0  0  0  0  0  0  0  0  0  0
   37.7110   31.8310   49.1470 C   0  0  0  0  0  0  0  0  0  0  0  0
   38.0170   33.0820   49.6050 C   0  0  0  0  0  0  0  0  0  0  0  0
   38.9310   33.8970   48.9900 C   0  0  0  0  0  0  0  0  0  0  0  0
   39.5890   33.4520   47.8480 C   0  0  0  0  0  0  0  0  0  0  0  0
   39.2880   32.1830   47.3690 C   0  0  0  0  0  0  0  0  0  0  0  0
   37.5030   33.4340   50.5030 H   0  0  0  0  0  0  0  0  0  0  0  0
   39.1810   34.8760   49.3350 H   0  0  0  0  0  0  0  0  0  0  0  0
   40.3290   33.9980   47.2710 H   0  0  0  0  0  0  0  0  0  0  0  0
   36.0700   29.3310   51.4650 C   0  0  0  0  0  0  0  0  0  0  0  0
   37.0400   30.1950   50.8950 C   0  0  0  0  0  0  0  0  0  0  0  0
   36.7470   30.9300   49.7680 C   0  0  0  0  0  0  0  0  0  0  0  0
   35.4860   30.7820   49.2320 N   0  0  0  0  0  0  0  0  0  0  0  0
   34.5770   29.9580   49.7840 C   0  0  0  0  0  0  0  0  0  0  0  0
   34.8640   29.2520   50.8740 N   0  0  0  0  0  0  0  0  0  0  0  0
   36.2920   28.7510   52.3500 H   0  0  0  0  0  0  0  0  0  0  0  0
   38.0210   30.2850   51.3460 H   0  0  0  0  0  0  0  0  0  0  0  0
   33.6520   29.9870   49.2140 H   0  0  0  0  0  0  0  0  0  0  0  0
   38.9430   32.6280   40.2600 O   0  0  0  0  0  0  0  0  0  0  0  0
   37.6330   32.9620   40.0780 C   0  0  0  0  0  0  0  0  0  0  0  0
   36.8990   32.3400   39.0680 C   0  0  0  0  0  0  0  0  0  0  0  0
   37.3730   31.5860   38.4250 H   0  0  0  0  0  0  0  0  0  0  0  0
   35.5780   32.6380   38.8400 C   0  0  0  0  0  3  0  0  0  0  0  0
   34.9100   33.5730   39.6050 C   0  0  0  0  0  0  0  0  0  0  0  0
   33.6250   33.8990   39.4240 N   0  0  0  0  0  0  0  0  0  0  0  0
   32.9820   34.8080   40.1700 C   0  0  0  0  0  0  0  0  0  0  0  0
   31.9310   35.0680   40.0150 H   0  0  0  0  0  0  0  0  0  0  0  0
   33.6340   35.4800   41.2010 C   0  0  0  0  0  3  0  0  0  0  0  0
   34.9680   35.1590   41.4080 C   0  0  0  0  0  3  0  0  0  0  0  0
   35.6050   34.2220   40.6290 C   0  0  0  0  0  0  0  0  0  0  0  0
   36.9370   33.8780   40.8090 C   0  0  0  0  0  3  0  0  0  0  0  0
  1 10  1  0  0  0  0
  1  2  1  0  0  0  0
  2 14  1  0  0  0  0
  3  2  2  0  0  0  0
  3 11  1  0  0  0  0
  4  3  1  0  0  0  0
  5  4  1  0  0  0  0
  5 12  1  0  0  0  0
  6  5  1  0  0  0  0
  7  6  2  0  0  0  0
  7  8  1  0  0  0  0
  8  9  1  0  0  0  0
  8  4  2  0  0  0  0
  9  1  2  0  0  0  0
 13  6  1  0  0  0  0
 14 15  2  0  0  0  0
 14 16  1  0  0  0  0
 16 24  1  0  0  0  0
 17 16  1  0  0  0  0
 18 19  1  0  0  0  0
 19 20  1  0  0  0  0
 20 21  2  0  0  0  0
 20 30  1  0  0  0  0
 21 25  1  0  0  0  0
 22 26  1  0  0  0  0
 22 21  1  0  0  0  0
 23 22  2  0  0  0  0
 24 23  1  0  0  0  0
 24 19  2  0  0  0  0
 27 23  1  0  0  0  0
 28 34  1  0  0  0  0
 29 35  1  0  0  0  0
 29 28  1  0  0  0  0
 30 29  2  0  0  0  0
 31 30  1  0  0  0  0
 31 32  2  0  0  0  0
 32 33  1  0  0  0  0
 33 28  2  0  0  0  0
 36 32  1  0  0  0  0
 37  9  1  0  0  0  0
 38 37  1  0  0  0  0
 38 49  1  0  0  0  0
 39 38  2  0  0  0  0
 40 39  1  0  0  0  0
 41 39  1  0  0  0  0
 41 42  2  0  0  0  0
 42 48  1  0  0  0  0
 43 42  1  0  0  0  0
 43 44  2  0  0  0  0
 44 46  1  0  0  0  0
 45 44  1  0  0  0  0
 46 47  2  0  0  0  0
 48 49  2  0  0  0  0
 48 47  1  0  0  0  0
M  END
>  <minimizedAffinity>
-7.83580828

>  <minimizedRMSD>
2.53822851

$$$$
