
 OpenBabel03272509043D

 34 36  0  0  0  0  0  0  0  0999 V2000
   37.4920   30.4140   51.1140 C   0  0  0  0  0  0  0  0  0  0  0  0
   37.9720   31.0660   49.9490 C   0  0  0  0  0  0  0  0  0  0  0  0
   37.3820   30.7050   48.6970 C   0  0  0  0  0  0  0  0  0  0  0  0
   36.4040   29.7610   48.7210 N   0  0  0  0  0  0  0  0  0  0  0  0
   35.9910   29.1780   49.8460 C   0  0  0  0  0  0  0  0  0  0  0  0
   36.5350   29.5070   51.0320 N   0  0  0  0  0  0  0  0  0  0  0  0
   37.9920   30.7500   51.9910 H   0  0  0  0  0  0  0  0  0  0  0  0
   38.7490   31.8170   49.9280 H   0  0  0  0  0  0  0  0  0  0  0  0
   37.8320   31.3350   47.5010 N   0  0  0  0  0  0  0  0  0  0  0  0
   38.9960   31.9980   47.6870 C   0  0  0  0  0  3  0  0  0  0  0  0
   39.5560   32.6660   46.5930 C   0  0  0  0  0  0  0  0  0  0  0  0
   40.4790   33.2230   46.6340 H   0  0  0  0  0  0  0  0  0  0  0  0
   38.9110   32.6220   45.3880 C   0  0  0  0  0  0  0  0  0  0  0  0
   39.3250   33.1810   44.3550 O   0  0  0  0  0  0  0  0  0  0  0  0
   37.7470   31.9460   45.2440 N   0  0  0  0  0  0  0  0  0  0  0  0
   37.2150   31.3070   46.3040 C   0  0  0  0  0  0  0  0  0  0  0  0
   36.1550   30.6330   46.3680 O   0  0  0  0  0  0  0  0  0  0  0  0
   37.1920   31.8600   44.3720 H   0  0  0  0  0  0  0  0  0  0  0  0
   34.9440   28.1940   49.7050 C   0  0  0  0  0  3  0  0  0  0  0  0
   34.3270   28.0930   48.5770 C   0  0  0  0  0  3  0  0  0  0  0  0
   33.2410   27.1710   48.2140 C   0  0  0  0  0  0  0  0  0  0  0  0
   32.4120   27.7780   47.7670 H   0  0  0  0  0  0  0  0  0  0  0  0
   32.7830   26.6490   49.0840 H   0  0  0  0  0  0  0  0  0  0  0  0
   33.6580   26.1790   47.1750 C   0  0  0  0  0  0  0  0  0  0  0  0
   33.8810   24.8390   47.3770 C   0  0  0  0  0  0  0  0  0  0  0  0
   34.2640   24.0170   46.3390 C   0  0  0  0  0  0  0  0  0  0  0  0
   34.4400   24.5180   45.0440 C   0  0  0  0  0  0  0  0  0  0  0  0
   34.2230   25.8470   44.8210 C   0  0  0  0  0  0  0  0  0  0  0  0
   33.8390   26.6580   45.8750 C   0  0  0  0  0  0  0  0  0  0  0  0
   33.7350   24.4810   48.3980 H   0  0  0  0  0  0  0  0  0  0  0  0
   34.4210   22.9690   46.5780 H   0  0  0  0  0  0  0  0  0  0  0  0
   34.7370   23.8310   44.2850 H   0  0  0  0  0  0  0  0  0  0  0  0
   34.3500   26.2730   43.8320 H   0  0  0  0  0  0  0  0  0  0  0  0
   33.6780   27.6950   45.6620 H   0  0  0  0  0  0  0  0  0  0  0  0
  1  7  1  0  0  0  0
  2  1  2  0  0  0  0
  3  4  2  0  0  0  0
  3  2  1  0  0  0  0
  4  5  1  0  0  0  0
  5  6  2  0  0  0  0
  6  1  1  0  0  0  0
  8  2  1  0  0  0  0
  9 10  1  0  0  0  0
  9  3  1  0  0  0  0
 11 12  1  0  0  0  0
 11 10  2  0  0  0  0
 13 11  1  0  0  0  0
 14 13  2  0  0  0  0
 15 13  1  0  0  0  0
 15 16  1  0  0  0  0
 16 17  2  0  0  0  0
 16  9  1  0  0  0  0
 18 15  1  0  0  0  0
 19  5  1  0  0  0  0
 20 19  2  0  0  0  0
 21 20  1  0  0  0  0
 21 23  1  0  0  0  0
 22 21  1  0  0  0  0
 24 25  1  0  0  0  0
 24 21  1  0  0  0  0
 25 30  1  0  0  0  0
 26 31  1  0  0  0  0
 26 25  2  0  0  0  0
 27 26  1  0  0  0  0
 28 27  2  0  0  0  0
 28 29  1  0  0  0  0
 29 24  2  0  0  0  0
 32 27  1  0  0  0  0
 33 28  1  0  0  0  0
 34 29  1  0  0  0  0
M  END
>  <minimizedAffinity>
-6.53830957

>  <minimizedRMSD>
0.791217923

$$$$
