
 OpenBabel03272509433D

 39 41  0  0  1  0  0  0  0  0999 V2000
   37.0080   30.9180   49.0390 C   0  0  0  0  0  0  0  0  0  0  0  0
   36.7240   31.7750   50.1030 C   0  0  0  0  0  0  0  0  0  0  0  0
   37.3060   33.0250   50.2180 C   0  0  0  0  0  0  0  0  0  0  0  0
   38.2150   33.4480   49.2360 C   0  0  0  0  0  0  0  0  0  0  0  0
   38.4840   32.5980   48.1990 C   0  0  0  0  0  0  0  0  0  0  0  0
   37.8770   31.3520   48.1200 C   0  0  0  0  0  0  0  0  0  0  0  0
   36.0180   31.4350   50.8560 H   0  0  0  0  0  0  0  0  0  0  0  0
   37.0230   33.6040   51.0710 H   0  0  0  0  0  0  0  0  0  0  0  0
   38.6120   34.4220   49.4060 H   0  0  0  0  0  0  0  0  0  0  0  0
   39.2000   33.0630   47.5270 H   0  0  0  0  0  0  0  0  0  0  0  0
   36.4200   29.5990   48.9460 C   0  0  2  0  0  0  0  0  0  0  0  0
   36.9470   29.0960   48.0460 H   0  0  0  0  0  0  0  0  0  0  0  0
   33.5580   30.1390   46.7740 C   0  0  0  0  0  0  0  0  0  0  0  0
   32.8700   28.9420   46.8220 C   0  0  0  0  0  0  0  0  0  0  0  0
   33.3510   27.9450   47.6590 C   0  0  0  0  0  0  0  0  0  0  0  0
   34.4860   28.1820   48.4020 N   0  0  0  0  0  0  0  0  0  0  0  0
   35.0970   29.3460   48.3090 C   0  0  0  0  0  0  0  0  0  0  0  0
   34.6430   30.3250   47.5040 N   0  0  0  0  0  0  0  0  0  0  0  0
   33.1970   30.9200   46.1300 H   0  0  0  0  0  0  0  0  0  0  0  0
   31.9910   28.8470   46.2030 H   0  0  0  0  0  0  0  0  0  0  0  0
   32.8250   27.0160   47.7040 H   0  0  0  0  0  0  0  0  0  0  0  0
   36.8620   28.7960   49.8490 O   0  0  0  0  0  0  0  0  0  0  0  0
   36.4510   28.9590   50.7470 H   0  0  0  0  0  0  0  0  0  0  0  0
   38.2740   30.5460   46.9890 C   0  0  0  0  0  3  0  0  0  0  0  0
   39.0640   30.9870   46.0030 C   0  0  0  0  0  3  0  0  0  0  0  0
   39.5630   30.2420   44.8250 C   0  0  0  0  0  0  0  0  0  0  0  0
   38.7300   29.5710   44.4810 H   0  0  0  0  0  0  0  0  0  0  0  0
   40.3950   29.5830   45.0710 H   0  0  0  0  0  0  0  0  0  0  0  0
   39.9060   31.3890   43.4860 S   0  0  0  0  0  0  0  0  0  0  0  0
   35.4980   33.1000   44.0790 H   0  0  0  0  0  0  0  0  0  0  0  0
   36.2710   32.9350   43.4060 N   0  0  0  0  0  0  0  0  0  0  0  0
   37.4430   32.3540   43.7800 C   0  0  0  0  0  3  0  0  0  0  0  0
   38.4440   32.1560   42.8420 C   0  0  0  0  0  0  0  0  0  0  0  0
   38.2100   32.5630   41.5460 C   0  0  0  0  0  0  0  0  0  0  0  0
   39.1630   32.3500   40.7580 O   0  0  0  0  0  0  0  0  0  0  0  0
   37.0550   33.1390   41.1690 N   0  0  0  0  0  0  0  0  0  0  0  0
   36.1120   33.3090   42.1210 C   0  0  0  0  0  0  0  0  0  0  0  0
   35.0040   33.8510   41.7980 O   0  0  0  0  0  0  0  0  0  0  0  0
   36.9440   33.4220   40.1760 H   0  0  0  0  0  0  0  0  0  0  0  0
  1  2  1  0  0  0  0
  2  3  2  0  0  0  0
  2  7  1  0  0  0  0
  3  8  1  0  0  0  0
  4  9  1  0  0  0  0
  4  3  1  0  0  0  0
  5  4  2  0  0  0  0
  6  5  1  0  0  0  0
  6  1  2  0  0  0  0
 10  5  1  0  0  0  0
 11 12  1  6  0  0  0
 11  1  1  0  0  0  0
 11 22  1  0  0  0  0
 13 14  2  0  0  0  0
 13 18  1  0  0  0  0
 14 15  1  0  0  0  0
 15 21  1  0  0  0  0
 15 16  2  0  0  0  0
 17 16  1  0  0  0  0
 17 11  1  0  0  0  0
 18 17  2  0  0  0  0
 19 13  1  0  0  0  0
 20 14  1  0  0  0  0
 22 23  1  0  0  0  0
 24  6  1  0  0  0  0
 25 24  2  0  0  0  0
 26 28  1  0  0  0  0
 26 25  1  0  0  0  0
 27 26  1  0  0  0  0
 29 26  1  0  0  0  0
 31 32  1  0  0  0  0
 31 30  1  0  0  0  0
 33 29  1  0  0  0  0
 33 32  2  0  0  0  0
 34 33  1  0  0  0  0
 35 34  2  0  0  0  0
 36 34  1  0  0  0  0
 36 37  1  0  0  0  0
 37 31  1  0  0  0  0
 38 37  2  0  0  0  0
 39 36  1  0  0  0  0
M  END
>  <minimizedAffinity>
-6.33435583

>  <minimizedRMSD>
0.902734756

$$$$
