
 OpenBabel03272510163D

 29 31  0  0  0  0  0  0  0  0999 V2000
   37.2950   29.3790   51.1050 Br  0  0  0  0  0  0  0  0  0  0  0  0
   36.0040   29.3010   49.7040 C   0  0  0  0  0  0  0  0  0  0  0  0
   36.0400   30.1960   48.6560 C   0  0  0  0  0  0  0  0  0  0  0  0
   35.0650   30.0710   47.6790 C   0  0  0  0  0  0  0  0  0  0  0  0
   34.0740   29.0970   47.7180 C   0  0  0  0  0  0  0  0  0  0  0  0
   34.0800   28.2320   48.7810 C   0  0  0  0  0  0  0  0  0  0  0  0
   35.0400   28.3380   49.7620 C   0  0  0  0  0  0  0  0  0  0  0  0
   35.1410   30.8070   46.8690 H   0  0  0  0  0  0  0  0  0  0  0  0
   33.2910   27.4970   48.7650 H   0  0  0  0  0  0  0  0  0  0  0  0
   34.9700   27.6120   50.5680 H   0  0  0  0  0  0  0  0  0  0  0  0
   33.1720   29.1420   46.6180 N   0  0  0  0  0  0  0  0  0  0  0  0
   33.3650   29.6610   45.3950 C   0  0  0  0  0  3  0  0  0  0  0  0
   32.3340   29.5870   44.4820 C   0  0  0  0  0  0  0  0  0  0  0  0
   32.5260   30.0180   43.5010 H   0  0  0  0  0  0  0  0  0  0  0  0
   31.1190   28.9940   44.8110 C   0  0  0  0  0  0  0  0  0  0  0  0
   30.1900   28.9440   43.9460 O   0  0  0  0  0  0  0  0  0  0  0  0
   30.9740   28.4860   46.0540 N   0  0  0  0  0  0  0  0  0  0  0  0
   31.9840   28.5580   46.9480 C   0  0  0  0  0  0  0  0  0  0  0  0
   31.6890   28.0420   48.0550 O   0  0  0  0  0  0  0  0  0  0  0  0
   30.0420   28.0510   46.2500 H   0  0  0  0  0  0  0  0  0  0  0  0
   37.9640   33.1850   49.4480 C   0  0  0  0  0  0  0  0  0  0  0  0
   38.9890   33.1920   48.4830 C   0  0  0  0  0  0  0  0  0  0  0  0
   39.0070   32.1580   47.5600 C   0  0  0  0  0  0  0  0  0  0  0  0
   38.0400   31.1920   47.6330 N   0  0  0  0  0  0  0  0  0  0  0  0
   37.0650   31.2260   48.5860 C   0  0  0  0  0  0  0  0  0  0  0  0
   37.0380   32.2210   49.4820 N   0  0  0  0  0  0  0  0  0  0  0  0
   38.0050   34.0170   50.1370 H   0  0  0  0  0  0  0  0  0  0  0  0
   39.7700   33.8990   48.3600 H   0  0  0  0  0  0  0  0  0  0  0  0
   39.6990   31.9810   46.7480 H   0  0  0  0  0  0  0  0  0  0  0  0
  2  7  1  0  0  0  0
  2  1  1  0  0  0  0
  3  2  2  0  0  0  0
  4  5  2  0  0  0  0
  4  3  1  0  0  0  0
  5  6  1  0  0  0  0
  6  7  2  0  0  0  0
  7 10  1  0  0  0  0
  8  4  1  0  0  0  0
  9  6  1  0  0  0  0
 11 18  1  0  0  0  0
 11  5  1  0  0  0  0
 12 11  1  0  0  0  0
 13 15  1  0  0  0  0
 13 12  2  0  0  0  0
 14 13  1  0  0  0  0
 15 17  1  0  0  0  0
 16 15  2  0  0  0  0
 17 20  1  0  0  0  0
 17 18  1  0  0  0  0
 18 19  2  0  0  0  0
 21 26  1  0  0  0  0
 21 27  1  0  0  0  0
 22 21  2  0  0  0  0
 23 24  2  0  0  0  0
 23 22  1  0  0  0  0
 24 25  1  0  0  0  0
 25  3  1  0  0  0  0
 25 26  2  0  0  0  0
 28 22  1  0  0  0  0
 29 23  1  0  0  0  0
M  END
>  <minimizedAffinity>
-6.0253396

>  <minimizedRMSD>
0.134526223

$$$$
