
 OpenBabel03272507333D

 37 40  0  0  1  0  0  0  0  0999 V2000
   33.1010   27.6210   48.2400 C   0  0  0  0  0  0  0  0  0  0  0  0
   31.8680   27.6000   48.5650 O   0  0  0  0  0  0  0  0  0  0  0  0
   35.9020   29.1840   49.8190 C   0  0  0  0  0  0  0  0  0  0  0  0
   34.9050   29.6390   50.6570 C   0  0  0  0  0  0  0  0  0  0  0  0
   33.6920   29.1190   50.1870 C   0  0  0  0  0  0  0  0  0  0  0  0
   34.0320   28.3730   49.0800 C   0  0  0  0  0  0  0  0  0  0  0  0
   35.3350   28.4390   48.9030 O   0  0  0  0  0  0  0  0  0  0  0  0
   34.9870   30.2850   51.5390 H   0  0  0  0  0  0  0  0  0  0  0  0
   32.7240   29.2990   50.6360 H   0  0  0  0  0  0  0  0  0  0  0  0
   37.2990   29.5330   50.0150 C   0  0  0  0  0  0  0  0  0  0  0  0
   37.9610   28.9230   50.8670 O   0  0  0  0  0  0  0  0  0  0  0  0
   37.8310   30.5850   49.1900 C   0  0  0  0  0  0  0  0  0  0  0  0
   38.1690   31.7750   49.8190 C   0  0  0  0  0  0  0  0  0  0  0  0
   38.6860   32.8140   49.0430 C   0  0  0  0  0  0  0  0  0  0  0  0
   38.8310   32.5960   47.6890 N   0  0  0  0  0  0  0  0  0  0  0  0
   38.4970   31.4400   47.1200 C   0  0  0  0  0  0  0  0  0  0  0  0
   37.9990   30.4320   47.8560 N   0  0  0  0  0  0  0  0  0  0  0  0
   38.0430   31.9130   50.8780 H   0  0  0  0  0  0  0  0  0  0  0  0
   38.9490   33.7400   49.5310 H   0  0  0  0  0  0  0  0  0  0  0  0
   38.6420   31.3510   46.0540 H   0  0  0  0  0  0  0  0  0  0  0  0
   33.5900   26.8870   47.0250 C   0  0  1  0  0  0  0  0  0  0  0  0
   33.7480   25.3500   47.3590 C   0  0  0  0  0  0  0  0  0  0  0  0
   32.7620   25.8670   46.3840 C   0  0  2  0  0  0  0  0  0  0  0  0
   34.5540   27.2590   46.6240 H   0  0  0  0  0  0  0  0  0  0  0  0
   33.4410   25.0210   48.3490 H   0  0  0  0  0  0  0  0  0  0  0  0
   34.6450   24.8610   46.9540 H   0  0  0  0  0  0  0  0  0  0  0  0
   31.7030   25.8260   46.7800 H   0  0  0  0  0  0  0  0  0  0  0  0
   32.8680   25.7030   44.9710 N   0  0  0  0  0  0  0  0  0  0  0  0
   34.0100   26.0500   44.3020 C   0  0  0  0  0  3  0  0  0  0  0  0
   34.1220   25.8960   42.9350 C   0  0  0  0  0  0  0  0  0  0  0  0
   35.0820   26.2110   42.5320 H   0  0  0  0  0  0  0  0  0  0  0  0
   33.0880   25.3840   42.1780 C   0  0  0  0  0  0  0  0  0  0  0  0
   33.3350   25.3020   40.9480 O   0  0  0  0  0  0  0  0  0  0  0  0
   31.9690   25.0450   42.8450 N   0  0  0  0  0  0  0  0  0  0  0  0
   31.9030   25.2120   44.1780 C   0  0  0  0  0  0  0  0  0  0  0  0
   30.8140   24.8600   44.6730 O   0  0  0  0  0  0  0  0  0  0  0  0
   31.2080   24.6630   42.2530 H   0  0  0  0  0  0  0  0  0  0  0  0
  1  2  2  0  0  0  0
  1  6  1  0  0  0  0
  3 10  1  0  0  0  0
  3  4  2  0  0  0  0
  4  8  1  0  0  0  0
  5  9  1  0  0  0  0
  5  4  1  0  0  0  0
  6  5  2  0  0  0  0
  7  6  1  0  0  0  0
  7  3  1  0  0  0  0
 10 11  2  0  0  0  0
 12 13  1  0  0  0  0
 12 10  1  0  0  0  0
 13 18  1  0  0  0  0
 14 19  1  0  0  0  0
 14 13  2  0  0  0  0
 15 14  1  0  0  0  0
 16 15  2  0  0  0  0
 16 17  1  0  0  0  0
 17 12  2  0  0  0  0
 20 16  1  0  0  0  0
 21 24  1  6  0  0  0
 21 22  1  0  0  0  0
 21  1  1  0  0  0  0
 22 25  1  0  0  0  0
 23 27  1  1  0  0  0
 23 21  1  0  0  0  0
 23 22  1  0  0  0  0
 26 22  1  0  0  0  0
 28 23  1  0  0  0  0
 29 28  1  0  0  0  0
 30 29  2  0  0  0  0
 31 30  1  0  0  0  0
 32 34  1  0  0  0  0
 32 30  1  0  0  0  0
 33 32  2  0  0  0  0
 34 35  1  0  0  0  0
 35 36  2  0  0  0  0
 35 28  1  0  0  0  0
 37 34  1  0  0  0  0
M  END
>  <minimizedAffinity>
-4.89546061

>  <minimizedRMSD>
1.16206193

$$$$
