
 OpenBabel03262523493D

 22 23  0  0  0  0  0  0  0  0999 V2000
   37.6310   32.2960   47.1410 C   0  0  0  0  0  0  0  0  0  0  0  0
   37.7240   33.3790   47.4200 H   0  0  0  0  0  0  0  0  0  0  0  0
   36.6900   32.2300   46.5650 H   0  0  0  0  0  0  0  0  0  0  0  0
   37.5600   31.5050   48.3350 N   0  0  0  0  0  0  0  0  0  0  0  0
   38.4350   31.6820   49.3390 C   0  0  0  0  0  3  0  0  0  0  0  0
   38.3510   30.9190   50.4690 C   0  0  0  0  0  0  0  0  0  0  0  0
   38.9960   30.9730   51.3370 H   0  0  0  0  0  0  0  0  0  0  0  0
   37.3450   29.9750   50.5300 C   0  0  0  0  0  0  0  0  0  0  0  0
   37.1770   29.2110   51.5340 O   0  0  0  0  0  0  0  0  0  0  0  0
   36.4420   29.7700   49.5270 N   0  0  0  0  0  0  0  0  0  0  0  0
   36.6060   30.5760   48.4470 C   0  0  0  0  0  0  0  0  0  0  0  0
   35.7970   30.4250   47.4960 O   0  0  0  0  0  0  0  0  0  0  0  0
   35.6900   29.0500   49.5950 H   0  0  0  0  0  0  0  0  0  0  0  0
   38.7480   31.8930   46.2540 C   0  0  0  0  0  0  0  0  0  0  0  0
   39.8110   32.7950   46.0810 C   0  0  0  0  0  0  0  0  0  0  0  0
   40.8620   32.4040   45.2410 C   0  0  0  0  0  0  0  0  0  0  0  0
   40.8070   31.1790   44.6360 N   0  0  0  0  0  0  0  0  0  0  0  0
   39.7610   30.3520   44.8370 C   0  0  0  0  0  0  0  0  0  0  0  0
   38.7410   30.6950   45.6330 N   0  0  0  0  0  0  0  0  0  0  0  0
   39.8420   33.7600   46.5660 H   0  0  0  0  0  0  0  0  0  0  0  0
   41.6780   33.0930   45.1060 H   0  0  0  0  0  0  0  0  0  0  0  0
   39.7780   29.3970   44.3290 H   0  0  0  0  0  0  0  0  0  0  0  0
  1  2  1  0  0  0  0
  1  4  1  0  0  0  0
  3  1  1  0  0  0  0
  4 11  1  0  0  0  0
  4  5  1  0  0  0  0
  5  6  2  0  0  0  0
  6  8  1  0  0  0  0
  6  7  1  0  0  0  0
  8  9  2  0  0  0  0
 10 13  1  0  0  0  0
 10  8  1  0  0  0  0
 11 10  1  0  0  0  0
 12 11  2  0  0  0  0
 14  1  1  0  0  0  0
 15 14  1  0  0  0  0
 15 20  1  0  0  0  0
 16 15  2  0  0  0  0
 17 18  2  0  0  0  0
 17 16  1  0  0  0  0
 18 19  1  0  0  0  0
 19 14  2  0  0  0  0
 21 16  1  0  0  0  0
 22 18  1  0  0  0  0
M  END
>  <minimizedAffinity>
-4.50022554

>  <minimizedRMSD>
4.73885489

$$$$
