
 OpenBabel03272506513D

 35 37  0  0  1  0  0  0  0  0999 V2000
   34.5110   30.1950   49.0990 C   0  0  1  0  0  0  0  0  0  0  0  0
   34.1890   30.3140   47.6720 C   0  0  0  0  0  0  0  0  0  0  0  0
   34.3690   29.0860   46.8450 C   0  0  0  0  0  0  0  0  0  0  0  0
   33.9790   27.8140   47.4600 C   0  0  1  0  0  0  0  0  0  0  0  0
   34.3100   27.6830   48.9040 C   0  0  0  0  0  0  0  0  0  0  0  0
   34.0290   28.9170   49.7030 C   0  0  0  0  0  0  0  0  0  0  0  0
   33.9120   30.9960   49.6480 H   0  0  0  0  0  0  0  0  0  0  0  0
   34.6300   31.1400   47.1270 H   0  0  0  0  0  0  0  0  0  0  0  0
   33.0770   30.5500   47.6300 H   0  0  0  0  0  0  0  0  0  0  0  0
   33.9010   29.2330   45.8570 H   0  0  0  0  0  0  0  0  0  0  0  0
   35.4620   29.0470   46.6120 H   0  0  0  0  0  0  0  0  0  0  0  0
   34.6360   27.0240   46.9580 H   0  0  0  0  0  0  0  0  0  0  0  0
   33.8260   26.8560   49.4130 H   0  0  0  0  0  0  0  0  0  0  0  0
   35.4170   27.4900   49.0070 H   0  0  0  0  0  0  0  0  0  0  0  0
   32.8910   28.9900   49.7240 H   0  0  0  0  0  0  0  0  0  0  0  0
   34.2940   28.7290   50.7360 H   0  0  0  0  0  0  0  0  0  0  0  0
   32.6530   27.3270   47.2260 N   0  0  0  0  0  0  0  0  0  0  0  0
   32.1610   26.7020   46.1730 C   0  0  0  0  0  3  0  0  0  0  0  0
   30.8790   26.2600   46.0130 C   0  0  0  0  0  0  0  0  0  0  0  0
   30.5440   25.7550   45.1230 H   0  0  0  0  0  0  0  0  0  0  0  0
   29.9770   26.4790   47.0540 C   0  0  0  0  0  0  0  0  0  0  0  0
   28.7880   26.0900   46.9500 O   0  0  0  0  0  0  0  0  0  0  0  0
   30.4780   27.1250   48.1460 N   0  0  0  0  0  0  0  0  0  0  0  0
   31.7550   27.5310   48.2330 C   0  0  0  0  0  0  0  0  0  0  0  0
   31.9660   28.1050   49.3520 O   0  0  0  0  0  0  0  0  0  0  0  0
   29.7400   27.2480   48.8780 H   0  0  0  0  0  0  0  0  0  0  0  0
   36.7670   31.2520   48.6360 C   0  0  0  0  0  0  0  0  0  0  0  0
   35.9070   30.5280   49.4820 C   0  0  0  0  0  0  0  0  0  0  0  0
   36.4160   30.1340   50.7040 C   0  0  0  0  0  0  0  0  0  0  0  0
   37.6920   30.4500   51.0340 N   0  0  0  0  0  0  0  0  0  0  0  0
   38.4900   31.1500   50.1880 C   0  0  0  0  0  0  0  0  0  0  0  0
   38.0140   31.5490   48.9840 N   0  0  0  0  0  0  0  0  0  0  0  0
   36.4710   31.6070   47.6650 H   0  0  0  0  0  0  0  0  0  0  0  0
   35.9030   29.5810   51.4700 H   0  0  0  0  0  0  0  0  0  0  0  0
   39.5030   31.3600   50.5340 H   0  0  0  0  0  0  0  0  0  0  0  0
  1 28  1  0  0  0  0
  1  7  1  1  0  0  0
  1  6  1  0  0  0  0
  2  1  1  0  0  0  0
  3  4  1  0  0  0  0
  3  2  1  0  0  0  0
  4 12  1  6  0  0  0
  4  5  1  0  0  0  0
  5 14  1  0  0  0  0
  5 13  1  0  0  0  0
  5  6  1  0  0  0  0
  6 15  1  0  0  0  0
  6 16  1  0  0  0  0
  8  2  1  0  0  0  0
  9  2  1  0  0  0  0
 10  3  1  0  0  0  0
 11  3  1  0  0  0  0
 17  4  1  0  0  0  0
 17 24  1  0  0  0  0
 18 17  1  0  0  0  0
 19 18  2  0  0  0  0
 19 21  1  0  0  0  0
 20 19  1  0  0  0  0
 21 23  1  0  0  0  0
 22 21  2  0  0  0  0
 23 24  1  0  0  0  0
 23 26  1  0  0  0  0
 24 25  2  0  0  0  0
 27 32  2  0  0  0  0
 27 28  1  0  0  0  0
 28 29  2  0  0  0  0
 29 30  1  0  0  0  0
 29 34  1  0  0  0  0
 31 35  1  0  0  0  0
 31 30  2  0  0  0  0
 32 31  1  0  0  0  0
 33 27  1  0  0  0  0
M  END
>  <minimizedAffinity>
-5.30999041

>  <minimizedRMSD>
0.323490977

$$$$
