
 OpenBabel03272507193D

 31 33  0  0  1  0  0  0  0  0999 V2000
   37.3860   31.3870   49.4270 C   0  0  0  0  0  0  0  0  0  0  0  0
   38.4110   32.2980   49.5930 C   0  0  0  0  0  0  0  0  0  0  0  0
   38.9490   32.7930   48.3780 C   0  0  0  0  0  0  0  0  0  0  0  0
   38.4570   32.3720   47.1660 N   0  0  0  0  0  0  0  0  0  0  0  0
   37.4510   31.4760   47.0810 C   0  0  0  0  0  0  0  0  0  0  0  0
   36.9060   30.9760   48.2340 N   0  0  0  0  0  0  0  0  0  0  0  0
   38.7920   32.6230   50.5490 H   0  0  0  0  0  0  0  0  0  0  0  0
   39.7600   33.5150   48.4170 H   0  0  0  0  0  0  0  0  0  0  0  0
   37.0040   31.0960   45.7850 N   0  0  0  0  0  0  0  0  0  0  0  0
   36.0250   30.1470   45.7290 C   0  0  0  0  0  3  0  0  0  0  0  0
   35.5410   29.7280   44.5080 C   0  0  0  0  0  0  0  0  0  0  0  0
   34.7730   28.9860   44.4050 H   0  0  0  0  0  0  0  0  0  0  0  0
   36.0370   30.2580   43.3180 C   0  0  0  0  0  0  0  0  0  0  0  0
   35.5960   29.8750   42.2000 O   0  0  0  0  0  0  0  0  0  0  0  0
   37.0090   31.1960   43.4280 N   0  0  0  0  0  0  0  0  0  0  0  0
   37.4690   31.5950   44.6160 C   0  0  0  0  0  0  0  0  0  0  0  0
   38.3760   32.4720   44.7200 O   0  0  0  0  0  0  0  0  0  0  0  0
   37.3950   31.6080   42.5340 H   0  0  0  0  0  0  0  0  0  0  0  0
   36.7700   30.8740   50.6910 C   0  0  1  0  0  0  0  0  0  0  0  0
   36.0450   29.6060   50.7430 C   0  0  2  0  0  0  0  0  0  0  0  0
   37.4750   29.5980   51.1980 C   0  0  0  0  0  0  0  0  0  0  0  0
   36.6280   31.6560   51.4670 H   0  0  0  0  0  0  0  0  0  0  0  0
   35.1930   29.6280   51.4860 H   0  0  0  0  0  0  0  0  0  0  0  0
   38.2270   29.1170   50.5420 H   0  0  0  0  0  0  0  0  0  0  0  0
   37.5930   29.5480   52.2890 H   0  0  0  0  0  0  0  0  0  0  0  0
   35.7290   29.0130   49.5280 O   0  0  0  0  0  0  0  0  0  0  0  0
   34.5440   28.5420   49.0690 C   0  0  0  0  0  0  0  0  0  0  0  0
   34.4730   27.6700   48.1760 O   0  0  0  0  0  0  0  0  0  0  0  0
   33.5220   29.1950   49.7570 N   0  0  0  0  0  0  0  0  0  0  0  0
   32.6580   29.7770   49.8630 H   0  0  0  0  0  0  0  0  0  0  0  0
   33.3700   29.2290   50.8030 H   0  0  0  0  0  0  0  0  0  0  0  0
  1  2  1  0  0  0  0
  1 19  1  0  0  0  0
  2  7  1  0  0  0  0
  3  8  1  0  0  0  0
  3  2  2  0  0  0  0
  4  3  1  0  0  0  0
  5  4  2  0  0  0  0
  5  6  1  0  0  0  0
  6  1  2  0  0  0  0
  9  5  1  0  0  0  0
 10  9  1  0  0  0  0
 11 10  2  0  0  0  0
 12 11  1  0  0  0  0
 13 15  1  0  0  0  0
 13 11  1  0  0  0  0
 14 13  2  0  0  0  0
 15 16  1  0  0  0  0
 16 17  2  0  0  0  0
 16  9  1  0  0  0  0
 18 15  1  0  0  0  0
 19 20  1  0  0  0  0
 19 21  1  0  0  0  0
 19 22  1  1  0  0  0
 20 21  1  0  0  0  0
 20 23  1  1  0  0  0
 21 25  1  0  0  0  0
 24 21  1  0  0  0  0
 26 20  1  0  0  0  0
 27 26  1  0  0  0  0
 27 29  1  0  0  0  0
 28 27  2  0  0  0  0
 29 30  1  0  0  0  0
 29 31  1  0  0  0  0
M  END
>  <minimizedAffinity>
-5.72650528

>  <minimizedRMSD>
0.433082581

$$$$
