
 OpenBabel03272508253D

 26 28  0  0  1  0  0  0  0  0999 V2000
   35.5700   30.4410   49.0250 C   0  0  1  0  0  0  0  0  0  0  0  0
   35.1610   29.3350   48.1690 C   0  0  1  0  0  0  0  0  0  0  0  0
   35.9130   29.0140   49.4350 C   0  0  0  0  0  0  0  0  0  0  0  0
   34.9130   31.0020   49.7380 H   0  0  0  0  0  0  0  0  0  0  0  0
   35.8070   29.2020   47.2490 H   0  0  0  0  0  0  0  0  0  0  0  0
   36.9720   28.6850   49.3860 H   0  0  0  0  0  0  0  0  0  0  0  0
   35.3060   28.5580   50.2390 H   0  0  0  0  0  0  0  0  0  0  0  0
   33.8070   28.9240   47.9830 N   0  0  0  0  0  0  0  0  0  0  0  0
   33.2010   28.0000   48.7840 C   0  0  0  0  0  3  0  0  0  0  0  0
   31.9070   27.5780   48.6420 C   0  0  0  0  0  0  0  0  0  0  0  0
   31.5180   26.8300   49.3430 H   0  0  0  0  0  0  0  0  0  0  0  0
   31.1630   28.1260   47.6130 C   0  0  0  0  0  0  0  0  0  0  0  0
   29.9710   27.7580   47.4580 O   0  0  0  0  0  0  0  0  0  0  0  0
   31.7480   29.0510   46.7980 N   0  0  0  0  0  0  0  0  0  0  0  0
   33.0340   29.4200   47.0010 C   0  0  0  0  0  0  0  0  0  0  0  0
   33.4600   30.2650   46.2030 O   0  0  0  0  0  0  0  0  0  0  0  0
   31.1240   29.4040   46.0640 H   0  0  0  0  0  0  0  0  0  0  0  0
   36.7900   31.2680   48.7030 C   0  0  0  0  0  0  0  0  0  0  0  0
   37.2360   32.1560   49.6980 C   0  0  0  0  0  0  0  0  0  0  0  0
   38.3420   32.9270   49.3840 C   0  0  0  0  0  0  0  0  0  0  0  0
   38.9300   32.7950   48.1650 N   0  0  0  0  0  0  0  0  0  0  0  0
   38.4720   31.9200   47.2160 C   0  0  0  0  0  0  0  0  0  0  0  0
   37.3820   31.1550   47.5150 N   0  0  0  0  0  0  0  0  0  0  0  0
   36.7710   32.2650   50.6670 H   0  0  0  0  0  0  0  0  0  0  0  0
   38.7730   33.6490   50.0810 H   0  0  0  0  0  0  0  0  0  0  0  0
   38.9810   31.8600   46.2660 H   0  0  0  0  0  0  0  0  0  0  0  0
  1  3  1  0  0  0  0
  1  4  1  1  0  0  0
  2  5  1  6  0  0  0
  2  1  1  0  0  0  0
  2  3  1  0  0  0  0
  3  7  1  0  0  0  0
  6  3  1  0  0  0  0
  8  2  1  0  0  0  0
  8  9  1  0  0  0  0
 10  9  2  0  0  0  0
 10 11  1  0  0  0  0
 12 10  1  0  0  0  0
 13 12  2  0  0  0  0
 14 15  1  0  0  0  0
 14 12  1  0  0  0  0
 15  8  1  0  0  0  0
 16 15  2  0  0  0  0
 17 14  1  0  0  0  0
 18  1  1  0  0  0  0
 18 19  1  0  0  0  0
 19 24  1  0  0  0  0
 20 19  2  0  0  0  0
 20 25  1  0  0  0  0
 21 20  1  0  0  0  0
 22 23  1  0  0  0  0
 22 21  2  0  0  0  0
 23 18  2  0  0  0  0
 26 22  1  0  0  0  0
M  END
>  <minimizedAffinity>
-5.20197821

>  <minimizedRMSD>
2.21993017

$$$$
