
 OpenBabel03272507203D

 31 33  0  0  1  0  0  0  0  0999 V2000
   37.2770   25.8030   32.9240 C   0  0  0  0  0  0  0  0  0  0  0  0
   36.7880   26.9700   33.4800 C   0  0  0  0  0  0  0  0  0  0  0  0
   37.0860   27.1240   34.8580 C   0  0  0  0  0  0  0  0  0  0  0  0
   37.8030   26.1670   35.5360 N   0  0  0  0  0  0  0  0  0  0  0  0
   38.2480   25.0500   34.9250 C   0  0  0  0  0  0  0  0  0  0  0  0
   37.9800   24.8660   33.5950 N   0  0  0  0  0  0  0  0  0  0  0  0
   36.2260   27.7170   32.9400 H   0  0  0  0  0  0  0  0  0  0  0  0
   36.7390   28.0150   35.3750 H   0  0  0  0  0  0  0  0  0  0  0  0
   38.9810   24.1110   35.7050 N   0  0  0  0  0  0  0  0  0  0  0  0
   40.2370   23.8020   35.2690 C   0  0  0  0  0  3  0  0  0  0  0  0
   41.0090   22.9030   35.9700 C   0  0  0  0  0  0  0  0  0  0  0  0
   42.0010   22.6220   35.6750 H   0  0  0  0  0  0  0  0  0  0  0  0
   40.5280   22.2950   37.1300 C   0  0  0  0  0  0  0  0  0  0  0  0
   41.2320   21.4710   37.7750 O   0  0  0  0  0  0  0  0  0  0  0  0
   39.2760   22.6350   37.5210 N   0  0  0  0  0  0  0  0  0  0  0  0
   38.5380   23.5100   36.8320 C   0  0  0  0  0  0  0  0  0  0  0  0
   37.3680   23.8280   37.1970 O   0  0  0  0  0  0  0  0  0  0  0  0
   38.8960   22.1830   38.3990 H   0  0  0  0  0  0  0  0  0  0  0  0
   37.0140   25.6280   31.4620 C   0  0  1  0  0  0  0  0  0  0  0  0
   36.1100   24.5980   30.9540 C   0  0  2  0  0  0  0  0  0  0  0  0
   35.5580   25.9860   31.0930 C   0  0  0  0  0  0  0  0  0  0  0  0
   37.7790   26.1010   30.8100 H   0  0  0  0  0  0  0  0  0  0  0  0
   36.4390   24.1950   29.9490 H   0  0  0  0  0  0  0  0  0  0  0  0
   34.8400   26.1810   31.9140 H   0  0  0  0  0  0  0  0  0  0  0  0
   35.4510   26.5180   30.1380 H   0  0  0  0  0  0  0  0  0  0  0  0
   35.6980   23.6240   31.8530 O   0  0  0  0  0  0  0  0  0  0  0  0
   35.9670   22.2960   31.8860 C   0  0  0  0  0  0  0  0  0  0  0  0
   35.4500   21.4900   31.0820 O   0  0  0  0  0  0  0  0  0  0  0  0
   36.8660   22.0610   32.9260 N   0  0  0  0  0  0  0  0  0  0  0  0
   37.2110   21.6250   33.8130 H   0  0  0  0  0  0  0  0  0  0  0  0
   37.8200   22.4950   33.0620 H   0  0  0  0  0  0  0  0  0  0  0  0
  1  2  2  0  0  0  0
  1  6  1  0  0  0  0
  2  3  1  0  0  0  0
  3  8  1  0  0  0  0
  3  4  2  0  0  0  0
  5  4  1  0  0  0  0
  5  9  1  0  0  0  0
  6  5  2  0  0  0  0
  7  2  1  0  0  0  0
  9 16  1  0  0  0  0
 10  9  1  0  0  0  0
 10 11  2  0  0  0  0
 11 13  1  0  0  0  0
 12 11  1  0  0  0  0
 13 15  1  0  0  0  0
 13 14  2  0  0  0  0
 15 18  1  0  0  0  0
 16 17  2  0  0  0  0
 16 15  1  0  0  0  0
 19 22  1  6  0  0  0
 19  1  1  0  0  0  0
 20 23  1  6  0  0  0
 20 21  1  0  0  0  0
 20 19  1  0  0  0  0
 20 26  1  0  0  0  0
 21 19  1  0  0  0  0
 21 24  1  0  0  0  0
 25 21  1  0  0  0  0
 26 27  1  0  0  0  0
 27 29  1  0  0  0  0
 28 27  2  0  0  0  0
 29 31  1  0  0  0  0
 29 30  1  0  0  0  0
M  END
>  <minimizedAffinity>
-5.55330992

$$$$

 OpenBabel03272507203D

 31 33  0  0  1  0  0  0  0  0999 V2000
   37.3380   25.6200   33.6710 C   0  0  0  0  0  0  0  0  0  0  0  0
   37.1270   26.8680   34.2250 C   0  0  0  0  0  0  0  0  0  0  0  0
   37.7360   27.0500   35.4920 C   0  0  0  0  0  0  0  0  0  0  0  0
   38.4630   26.0410   36.0770 N   0  0  0  0  0  0  0  0  0  0  0  0
   38.6260   24.8440   35.4750 C   0  0  0  0  0  0  0  0  0  0  0  0
   38.0530   24.6320   34.2500 N   0  0  0  0  0  0  0  0  0  0  0  0
   36.5550   27.6560   33.7590 H   0  0  0  0  0  0  0  0  0  0  0  0
   37.6210   28.0040   36.0000 H   0  0  0  0  0  0  0  0  0  0  0  0
   39.3940   23.8560   36.1530 N   0  0  0  0  0  0  0  0  0  0  0  0
   40.4760   23.3590   35.4880 C   0  0  0  0  0  3  0  0  0  0  0  0
   41.2690   22.4000   36.0790 C   0  0  0  0  0  0  0  0  0  0  0  0
   42.1320   21.9740   35.6040 H   0  0  0  0  0  0  0  0  0  0  0  0
   40.9850   21.9220   37.3580 C   0  0  0  0  0  0  0  0  0  0  0  0
   41.7080   21.0440   37.9030 O   0  0  0  0  0  0  0  0  0  0  0  0
   39.8990   22.4470   37.9770 N   0  0  0  0  0  0  0  0  0  0  0  0
   39.1390   23.3770   37.3920 C   0  0  0  0  0  0  0  0  0  0  0  0
   38.1250   23.8670   37.9700 O   0  0  0  0  0  0  0  0  0  0  0  0
   39.6690   22.0950   38.9470 H   0  0  0  0  0  0  0  0  0  0  0  0
   36.7420   25.4090   32.3150 C   0  0  1  0  0  0  0  0  0  0  0  0
   36.9910   26.3270   31.2060 C   0  0  2  0  0  0  0  0  0  0  0  0
   37.8170   25.0750   31.2590 C   0  0  0  0  0  0  0  0  0  0  0  0
   35.8700   24.7200   32.3130 H   0  0  0  0  0  0  0  0  0  0  0  0
   36.1020   26.4140   30.5120 H   0  0  0  0  0  0  0  0  0  0  0  0
   38.8830   25.1660   31.5470 H   0  0  0  0  0  0  0  0  0  0  0  0
   37.5130   24.3120   30.5290 H   0  0  0  0  0  0  0  0  0  0  0  0
   37.5960   27.5380   31.5160 O   0  0  0  0  0  0  0  0  0  0  0  0
   37.6150   28.7050   30.8280 C   0  0  0  0  0  0  0  0  0  0  0  0
   38.3160   28.8670   29.8060 O   0  0  0  0  0  0  0  0  0  0  0  0
   36.7540   29.5980   31.4660 N   0  0  0  0  0  0  0  0  0  0  0  0
   36.4810   30.4860   31.9480 H   0  0  0  0  0  0  0  0  0  0  0  0
   35.7250   29.4640   31.6710 H   0  0  0  0  0  0  0  0  0  0  0  0
  1  2  2  0  0  0  0
  1  6  1  0  0  0  0
  2  3  1  0  0  0  0
  3  8  1  0  0  0  0
  3  4  2  0  0  0  0
  5  4  1  0  0  0  0
  5  9  1  0  0  0  0
  6  5  2  0  0  0  0
  7  2  1  0  0  0  0
  9 16  1  0  0  0  0
 10 11  2  0  0  0  0
 10  9  1  0  0  0  0
 11 13  1  0  0  0  0
 12 11  1  0  0  0  0
 13 14  2  0  0  0  0
 13 15  1  0  0  0  0
 15 18  1  0  0  0  0
 16 17  2  0  0  0  0
 16 15  1  0  0  0  0
 19 22  1  6  0  0  0
 19  1  1  0  0  0  0
 20 23  1  6  0  0  0
 20 21  1  0  0  0  0
 20 26  1  0  0  0  0
 20 19  1  0  0  0  0
 21 24  1  0  0  0  0
 21 19  1  0  0  0  0
 25 21  1  0  0  0  0
 27 29  1  0  0  0  0
 27 26  1  0  0  0  0
 28 27  2  0  0  0  0
 29 31  1  0  0  0  0
 29 30  1  0  0  0  0
M  END
>  <minimizedAffinity>
-5.29089642

$$$$

 OpenBabel03272507203D

 31 33  0  0  1  0  0  0  0  0999 V2000
   38.1670   23.5060   33.6110 C   0  0  0  0  0  0  0  0  0  0  0  0
   37.4070   22.4080   33.2570 C   0  0  0  0  0  0  0  0  0  0  0  0
   36.6280   22.5950   32.0880 C   0  0  0  0  0  0  0  0  0  0  0  0
   36.6610   23.7850   31.4010 N   0  0  0  0  0  0  0  0  0  0  0  0
   37.4290   24.8170   31.8080 C   0  0  0  0  0  0  0  0  0  0  0  0
   38.1950   24.6730   32.9340 N   0  0  0  0  0  0  0  0  0  0  0  0
   37.3860   21.4760   33.8020 H   0  0  0  0  0  0  0  0  0  0  0  0
   36.0000   21.7800   31.7370 H   0  0  0  0  0  0  0  0  0  0  0  0
   37.4020   26.0130   31.0370 N   0  0  0  0  0  0  0  0  0  0  0  0
   38.5960   26.4530   30.5470 C   0  0  0  0  0  3  0  0  0  0  0  0
   38.6510   27.6030   29.7910 C   0  0  0  0  0  0  0  0  0  0  0  0
   39.5620   27.9950   29.3800 H   0  0  0  0  0  0  0  0  0  0  0  0
   37.4970   28.3350   29.5130 C   0  0  0  0  0  0  0  0  0  0  0  0
   37.5430   29.3890   28.8220 O   0  0  0  0  0  0  0  0  0  0  0  0
   36.3360   27.8580   30.0230 N   0  0  0  0  0  0  0  0  0  0  0  0
   36.2970   26.7400   30.7550 C   0  0  0  0  0  0  0  0  0  0  0  0
   35.2120   26.2940   31.2310 O   0  0  0  0  0  0  0  0  0  0  0  0
   35.4510   28.4010   29.8220 H   0  0  0  0  0  0  0  0  0  0  0  0
   39.0300   23.3280   34.8200 C   0  0  1  0  0  0  0  0  0  0  0  0
   39.1610   24.3650   35.8410 C   0  0  2  0  0  0  0  0  0  0  0  0
   38.1960   23.2490   36.1170 C   0  0  0  0  0  0  0  0  0  0  0  0
   39.7860   22.5200   34.7140 H   0  0  0  0  0  0  0  0  0  0  0  0
   40.1900   24.3800   36.3100 H   0  0  0  0  0  0  0  0  0  0  0  0
   37.1120   23.4710   36.0590 H   0  0  0  0  0  0  0  0  0  0  0  0
   38.5640   22.5160   36.8480 H   0  0  0  0  0  0  0  0  0  0  0  0
   38.6560   25.6210   35.5300 O   0  0  0  0  0  0  0  0  0  0  0  0
   39.2760   26.8240   35.4860 C   0  0  0  0  0  0  0  0  0  0  0  0
   40.2860   27.0290   34.7770 O   0  0  0  0  0  0  0  0  0  0  0  0
   38.5930   27.6950   36.3340 N   0  0  0  0  0  0  0  0  0  0  0  0
   38.4820   28.3650   37.1310 H   0  0  0  0  0  0  0  0  0  0  0  0
   37.5700   27.9590   36.2970 H   0  0  0  0  0  0  0  0  0  0  0  0
  1 19  1  0  0  0  0
  2  1  1  0  0  0  0
  2  7  1  0  0  0  0
  3  2  2  0  0  0  0
  4  5  2  0  0  0  0
  4  3  1  0  0  0  0
  5  6  1  0  0  0  0
  6  1  2  0  0  0  0
  8  3  1  0  0  0  0
  9  5  1  0  0  0  0
 10  9  1  0  0  0  0
 11 10  2  0  0  0  0
 12 11  1  0  0  0  0
 13 11  1  0  0  0  0
 13 15  1  0  0  0  0
 14 13  2  0  0  0  0
 15 16  1  0  0  0  0
 16  9  1  0  0  0  0
 16 17  2  0  0  0  0
 18 15  1  0  0  0  0
 19 22  1  6  0  0  0
 19 20  1  0  0  0  0
 19 21  1  0  0  0  0
 20 21  1  0  0  0  0
 20 23  1  1  0  0  0
 21 25  1  0  0  0  0
 24 21  1  0  0  0  0
 26 20  1  0  0  0  0
 27 26  1  0  0  0  0
 27 29  1  0  0  0  0
 28 27  2  0  0  0  0
 29 30  1  0  0  0  0
 31 29  1  0  0  0  0
M  END
>  <minimizedAffinity>
-5.2336359

$$$$

 OpenBabel03272507203D

 31 33  0  0  1  0  0  0  0  0999 V2000
   38.5910   25.5020   33.6160 C   0  0  0  0  0  0  0  0  0  0  0  0
   39.8050   25.2150   34.2110 C   0  0  0  0  0  0  0  0  0  0  0  0
   40.0290   23.8320   34.4330 C   0  0  0  0  0  0  0  0  0  0  0  0
   39.0880   22.8980   34.0700 N   0  0  0  0  0  0  0  0  0  0  0  0
   37.9210   23.2540   33.4930 C   0  0  0  0  0  0  0  0  0  0  0  0
   37.6700   24.5800   33.2620 N   0  0  0  0  0  0  0  0  0  0  0  0
   40.5390   25.9540   34.4930 H   0  0  0  0  0  0  0  0  0  0  0  0
   40.9600   23.5180   34.8970 H   0  0  0  0  0  0  0  0  0  0  0  0
   37.0050   22.2210   33.1500 N   0  0  0  0  0  0  0  0  0  0  0  0
   36.6260   22.1480   31.8420 C   0  0  0  0  0  3  0  0  0  0  0  0
   35.7410   21.1740   31.4330 C   0  0  0  0  0  0  0  0  0  0  0  0
   35.4090   21.0700   30.4180 H   0  0  0  0  0  0  0  0  0  0  0  0
   35.2200   20.2510   32.3390 C   0  0  0  0  0  0  0  0  0  0  0  0
   34.4100   19.3590   31.9680 O   0  0  0  0  0  0  0  0  0  0  0  0
   35.6270   20.3660   33.6260 N   0  0  0  0  0  0  0  0  0  0  0  0
   36.4860   21.3150   34.0100 C   0  0  0  0  0  0  0  0  0  0  0  0
   36.8660   21.4220   35.2130 O   0  0  0  0  0  0  0  0  0  0  0  0
   35.2410   19.6740   34.3260 H   0  0  0  0  0  0  0  0  0  0  0  0
   38.3410   26.9490   33.3330 C   0  0  1  0  0  0  0  0  0  0  0  0
   37.0900   27.4190   32.7400 C   0  0  2  0  0  0  0  0  0  0  0  0
   37.2260   27.5270   34.2310 C   0  0  0  0  0  0  0  0  0  0  0  0
   39.2650   27.5650   33.3000 H   0  0  0  0  0  0  0  0  0  0  0  0
   37.2430   28.3180   32.0710 H   0  0  0  0  0  0  0  0  0  0  0  0
   36.6410   26.8270   34.8590 H   0  0  0  0  0  0  0  0  0  0  0  0
   37.4150   28.5500   34.5860 H   0  0  0  0  0  0  0  0  0  0  0  0
   36.2410   26.4540   32.2160 O   0  0  0  0  0  0  0  0  0  0  0  0
   35.7190   26.3330   30.9720 C   0  0  0  0  0  0  0  0  0  0  0  0
   34.8840   25.4500   30.6810 O   0  0  0  0  0  0  0  0  0  0  0  0
   36.2790   27.3260   30.1690 N   0  0  0  0  0  0  0  0  0  0  0  0
   36.8030   27.7120   29.3480 H   0  0  0  0  0  0  0  0  0  0  0  0
   36.2590   28.3710   30.3290 H   0  0  0  0  0  0  0  0  0  0  0  0
  1  2  1  0  0  0  0
  2  3  2  0  0  0  0
  2  7  1  0  0  0  0
  3  8  1  0  0  0  0
  4  3  1  0  0  0  0
  5  4  2  0  0  0  0
  6  5  1  0  0  0  0
  6  1  2  0  0  0  0
  9  5  1  0  0  0  0
  9 16  1  0  0  0  0
 10  9  1  0  0  0  0
 11 10  2  0  0  0  0
 11 13  1  0  0  0  0
 12 11  1  0  0  0  0
 13 15  1  0  0  0  0
 14 13  2  0  0  0  0
 15 16  1  0  0  0  0
 15 18  1  0  0  0  0
 16 17  2  0  0  0  0
 19 22  1  6  0  0  0
 19  1  1  0  0  0  0
 19 21  1  0  0  0  0
 20 23  1  6  0  0  0
 20 19  1  0  0  0  0
 20 21  1  0  0  0  0
 21 25  1  0  0  0  0
 21 24  1  0  0  0  0
 26 20  1  0  0  0  0
 27 26  1  0  0  0  0
 28 27  2  0  0  0  0
 29 31  1  0  0  0  0
 29 27  1  0  0  0  0
 30 29  1  0  0  0  0
M  END
>  <minimizedAffinity>
-5.19837093

$$$$

 OpenBabel03272507203D

 31 33  0  0  1  0  0  0  0  0999 V2000
   39.6690   24.0600   34.5480 C   0  0  0  0  0  0  0  0  0  0  0  0
   40.8800   24.4910   35.0540 C   0  0  0  0  0  0  0  0  0  0  0  0
   41.1900   25.8400   34.7440 C   0  0  0  0  0  0  0  0  0  0  0  0
   40.3260   26.6100   34.0030 N   0  0  0  0  0  0  0  0  0  0  0  0
   39.1570   26.1190   33.5400 C   0  0  0  0  0  0  0  0  0  0  0  0
   38.8240   24.8200   33.8190 N   0  0  0  0  0  0  0  0  0  0  0  0
   41.5540   23.8800   35.6360 H   0  0  0  0  0  0  0  0  0  0  0  0
   42.1250   26.2610   35.1040 H   0  0  0  0  0  0  0  0  0  0  0  0
   38.3240   26.9860   32.7800 N   0  0  0  0  0  0  0  0  0  0  0  0
   37.0570   27.1800   33.2450 C   0  0  0  0  0  3  0  0  0  0  0  0
   36.1900   28.0070   32.5630 C   0  0  0  0  0  0  0  0  0  0  0  0
   35.1830   28.1960   32.8820 H   0  0  0  0  0  0  0  0  0  0  0  0
   36.5880   28.6570   31.3950 C   0  0  0  0  0  0  0  0  0  0  0  0
   35.7980   29.4140   30.7680 O   0  0  0  0  0  0  0  0  0  0  0  0
   37.8560   28.4310   30.9740 N   0  0  0  0  0  0  0  0  0  0  0  0
   38.6860   27.6270   31.6450 C   0  0  0  0  0  0  0  0  0  0  0  0
   39.8710   27.4170   31.2520 O   0  0  0  0  0  0  0  0  0  0  0  0
   38.1730   28.9160   30.0900 H   0  0  0  0  0  0  0  0  0  0  0  0
   39.2950   22.6520   34.8900 C   0  0  1  0  0  0  0  0  0  0  0  0
   38.3550   22.3380   35.9650 C   0  0  2  0  0  0  0  0  0  0  0  0
   37.8150   22.3560   34.5650 C   0  0  0  0  0  0  0  0  0  0  0  0
   40.0080   21.8940   34.5030 H   0  0  0  0  0  0  0  0  0  0  0  0
   38.6060   21.3650   36.4840 H   0  0  0  0  0  0  0  0  0  0  0  0
   37.1620   23.2000   34.2690 H   0  0  0  0  0  0  0  0  0  0  0  0
   37.6350   21.3560   34.1470 H   0  0  0  0  0  0  0  0  0  0  0  0
   38.0140   23.3740   36.8240 O   0  0  0  0  0  0  0  0  0  0  0  0
   38.4220   23.6280   38.0900 C   0  0  0  0  0  0  0  0  0  0  0  0
   37.9780   24.5890   38.7560 O   0  0  0  0  0  0  0  0  0  0  0  0
   39.3640   22.6620   38.4440 N   0  0  0  0  0  0  0  0  0  0  0  0
   40.2930   22.3040   38.7690 H   0  0  0  0  0  0  0  0  0  0  0  0
   39.2400   21.6120   38.4450 H   0  0  0  0  0  0  0  0  0  0  0  0
  1 19  1  0  0  0  0
  1  2  1  0  0  0  0
  2  7  1  0  0  0  0
  3  2  2  0  0  0  0
  3  8  1  0  0  0  0
  4  3  1  0  0  0  0
  5  6  1  0  0  0  0
  5  4  2  0  0  0  0
  6  1  2  0  0  0  0
  9 10  1  0  0  0  0
  9  5  1  0  0  0  0
 11 12  1  0  0  0  0
 11 10  2  0  0  0  0
 13 11  1  0  0  0  0
 14 13  2  0  0  0  0
 15 13  1  0  0  0  0
 15 16  1  0  0  0  0
 16  9  1  0  0  0  0
 17 16  2  0  0  0  0
 18 15  1  0  0  0  0
 19 22  1  6  0  0  0
 19 20  1  0  0  0  0
 20 23  1  1  0  0  0
 20 26  1  0  0  0  0
 21 19  1  0  0  0  0
 21 20  1  0  0  0  0
 24 21  1  0  0  0  0
 25 21  1  0  0  0  0
 26 27  1  0  0  0  0
 27 29  1  0  0  0  0
 27 28  2  0  0  0  0
 29 31  1  0  0  0  0
 29 30  1  0  0  0  0
M  END
>  <minimizedAffinity>
-5.19040537

$$$$

 OpenBabel03272507203D

 31 33  0  0  1  0  0  0  0  0999 V2000
   38.0190   25.1650   35.9370 C   0  0  0  0  0  0  0  0  0  0  0  0
   38.3630   26.4460   36.3270 C   0  0  0  0  0  0  0  0  0  0  0  0
   38.9040   27.2420   35.2860 C   0  0  0  0  0  0  0  0  0  0  0  0
   39.0520   26.7380   34.0160 N   0  0  0  0  0  0  0  0  0  0  0  0
   38.6940   25.4730   33.7090 C   0  0  0  0  0  0  0  0  0  0  0  0
   38.1680   24.6740   34.6880 N   0  0  0  0  0  0  0  0  0  0  0  0
   38.2430   26.8340   37.3260 H   0  0  0  0  0  0  0  0  0  0  0  0
   39.2010   28.2640   35.5060 H   0  0  0  0  0  0  0  0  0  0  0  0
   38.8850   25.0340   32.3690 N   0  0  0  0  0  0  0  0  0  0  0  0
   37.7790   24.5800   31.7110 C   0  0  0  0  0  3  0  0  0  0  0  0
   37.8820   24.1380   30.4100 C   0  0  0  0  0  0  0  0  0  0  0  0
   37.0480   23.7710   29.8450 H   0  0  0  0  0  0  0  0  0  0  0  0
   39.1090   24.1450   29.7450 C   0  0  0  0  0  0  0  0  0  0  0  0
   39.2070   23.7410   28.5550 O   0  0  0  0  0  0  0  0  0  0  0  0
   40.1760   24.6040   30.4420 N   0  0  0  0  0  0  0  0  0  0  0  0
   40.0610   25.0310   31.7030 C   0  0  0  0  0  0  0  0  0  0  0  0
   41.0590   25.4600   32.3540 O   0  0  0  0  0  0  0  0  0  0  0  0
   41.1130   24.6160   29.9520 H   0  0  0  0  0  0  0  0  0  0  0  0
   37.4090   24.3110   37.0030 C   0  0  1  0  0  0  0  0  0  0  0  0
   38.0280   23.0630   37.4470 C   0  0  2  0  0  0  0  0  0  0  0  0
   38.2710   24.2860   38.2840 C   0  0  0  0  0  0  0  0  0  0  0  0
   36.3330   24.5200   37.1820 H   0  0  0  0  0  0  0  0  0  0  0  0
   37.2620   22.2880   37.7510 H   0  0  0  0  0  0  0  0  0  0  0  0
   39.2770   24.7480   38.2500 H   0  0  0  0  0  0  0  0  0  0  0  0
   37.6940   24.3050   39.2180 H   0  0  0  0  0  0  0  0  0  0  0  0
   39.0680   22.5670   36.6730 O   0  0  0  0  0  0  0  0  0  0  0  0
   40.4060   22.5940   36.8890 C   0  0  0  0  0  0  0  0  0  0  0  0
   41.1630   23.3890   36.2910 O   0  0  0  0  0  0  0  0  0  0  0  0
   40.7110   21.6190   37.8390 N   0  0  0  0  0  0  0  0  0  0  0  0
   41.1900   20.7700   38.2200 H   0  0  0  0  0  0  0  0  0  0  0  0
   40.3190   21.5290   38.8160 H   0  0  0  0  0  0  0  0  0  0  0  0
  1  2  1  0  0  0  0
  1 19  1  0  0  0  0
  2  7  1  0  0  0  0
  3  8  1  0  0  0  0
  3  2  2  0  0  0  0
  4  3  1  0  0  0  0
  5  4  2  0  0  0  0
  5  6  1  0  0  0  0
  6  1  2  0  0  0  0
  9  5  1  0  0  0  0
 10  9  1  0  0  0  0
 11 10  2  0  0  0  0
 12 11  1  0  0  0  0
 13 11  1  0  0  0  0
 13 15  1  0  0  0  0
 14 13  2  0  0  0  0
 15 16  1  0  0  0  0
 16 17  2  0  0  0  0
 16  9  1  0  0  0  0
 18 15  1  0  0  0  0
 19 22  1  1  0  0  0
 19 20  1  0  0  0  0
 19 21  1  0  0  0  0
 20 23  1  1  0  0  0
 20 21  1  0  0  0  0
 21 25  1  0  0  0  0
 24 21  1  0  0  0  0
 26 27  1  0  0  0  0
 26 20  1  0  0  0  0
 27 29  1  0  0  0  0
 28 27  2  0  0  0  0
 29 30  1  0  0  0  0
 29 31  1  0  0  0  0
M  END
>  <minimizedAffinity>
-5.14210653

$$$$

 OpenBabel03272507203D

 31 33  0  0  1  0  0  0  0  0999 V2000
   37.0360   27.3370   34.0960 C   0  0  0  0  0  0  0  0  0  0  0  0
   37.0610   27.2680   32.7160 C   0  0  0  0  0  0  0  0  0  0  0  0
   36.3960   28.3410   32.0710 C   0  0  0  0  0  0  0  0  0  0  0  0
   35.7960   29.3400   32.8000 N   0  0  0  0  0  0  0  0  0  0  0  0
   35.8130   29.3410   34.1490 C   0  0  0  0  0  0  0  0  0  0  0  0
   36.4450   28.3200   34.8070 N   0  0  0  0  0  0  0  0  0  0  0  0
   37.5340   26.4800   32.1510 H   0  0  0  0  0  0  0  0  0  0  0  0
   36.3680   28.3650   30.9850 H   0  0  0  0  0  0  0  0  0  0  0  0
   35.1650   30.4140   34.8230 N   0  0  0  0  0  0  0  0  0  0  0  0
   35.9310   31.1480   35.6810 C   0  0  0  0  0  3  0  0  0  0  0  0
   35.3750   32.2040   36.3700 C   0  0  0  0  0  0  0  0  0  0  0  0
   35.9290   32.8150   37.0570 H   0  0  0  0  0  0  0  0  0  0  0  0
   34.0320   32.5420   36.2060 C   0  0  0  0  0  0  0  0  0  0  0  0
   33.5200   33.5080   36.8340 O   0  0  0  0  0  0  0  0  0  0  0  0
   33.3150   31.7830   35.3430 N   0  0  0  0  0  0  0  0  0  0  0  0
   33.8660   30.7610   34.6810 C   0  0  0  0  0  0  0  0  0  0  0  0
   33.1960   30.0520   33.8740 O   0  0  0  0  0  0  0  0  0  0  0  0
   32.2950   32.0250   35.2070 H   0  0  0  0  0  0  0  0  0  0  0  0
   37.7630   26.2390   34.8080 C   0  0  1  0  0  0  0  0  0  0  0  0
   39.2160   26.2440   34.9640 C   0  0  2  0  0  0  0  0  0  0  0  0
   38.4000   26.7310   36.1250 C   0  0  0  0  0  0  0  0  0  0  0  0
   37.1710   25.3040   34.9080 H   0  0  0  0  0  0  0  0  0  0  0  0
   39.6520   25.2000   34.9500 H   0  0  0  0  0  0  0  0  0  0  0  0
   38.3950   27.8180   36.3390 H   0  0  0  0  0  0  0  0  0  0  0  0
   38.3370   26.0130   36.9540 H   0  0  0  0  0  0  0  0  0  0  0  0
   39.9260   27.1710   34.2120 O   0  0  0  0  0  0  0  0  0  0  0  0
   41.2370   27.1970   33.8720 C   0  0  0  0  0  0  0  0  0  0  0  0
   41.6500   27.7950   32.8550 O   0  0  0  0  0  0  0  0  0  0  0  0
   41.9480   26.4710   34.8270 N   0  0  0  0  0  0  0  0  0  0  0  0
   42.5890   25.7210   35.1780 H   0  0  0  0  0  0  0  0  0  0  0  0
   41.9750   26.6350   35.8710 H   0  0  0  0  0  0  0  0  0  0  0  0
  1  6  1  0  0  0  0
  1 19  1  0  0  0  0
  2  1  2  0  0  0  0
  3  2  1  0  0  0  0
  3  4  2  0  0  0  0
  4  5  1  0  0  0  0
  5  6  2  0  0  0  0
  5  9  1  0  0  0  0
  7  2  1  0  0  0  0
  8  3  1  0  0  0  0
  9 10  1  0  0  0  0
 10 11  2  0  0  0  0
 11 12  1  0  0  0  0
 13 11  1  0  0  0  0
 13 14  2  0  0  0  0
 15 13  1  0  0  0  0
 16  9  1  0  0  0  0
 16 15  1  0  0  0  0
 17 16  2  0  0  0  0
 18 15  1  0  0  0  0
 19 22  1  1  0  0  0
 19 20  1  0  0  0  0
 19 21  1  0  0  0  0
 20 23  1  1  0  0  0
 20 21  1  0  0  0  0
 21 24  1  0  0  0  0
 21 25  1  0  0  0  0
 26 20  1  0  0  0  0
 27 26  1  0  0  0  0
 27 29  1  0  0  0  0
 28 27  2  0  0  0  0
 29 30  1  0  0  0  0
 29 31  1  0  0  0  0
M  END
>  <minimizedAffinity>
-5.11613274

$$$$

 OpenBabel03272507203D

 31 33  0  0  1  0  0  0  0  0999 V2000
   33.3700   30.7990   35.2900 C   0  0  0  0  0  0  0  0  0  0  0  0
   34.0940   31.5600   36.1870 C   0  0  0  0  0  0  0  0  0  0  0  0
   35.4970   31.3710   36.1070 C   0  0  0  0  0  0  0  0  0  0  0  0
   36.0400   30.4940   35.1990 N   0  0  0  0  0  0  0  0  0  0  0  0
   35.2670   29.7820   34.3520 C   0  0  0  0  0  0  0  0  0  0  0  0
   33.9080   29.9380   34.4000 N   0  0  0  0  0  0  0  0  0  0  0  0
   33.6600   32.2470   36.8980 H   0  0  0  0  0  0  0  0  0  0  0  0
   36.1430   31.9320   36.7780 H   0  0  0  0  0  0  0  0  0  0  0  0
   35.9140   28.8960   33.4450 N   0  0  0  0  0  0  0  0  0  0  0  0
   35.6690   29.0950   32.1180 C   0  0  0  0  0  3  0  0  0  0  0  0
   36.2590   28.2790   31.1770 C   0  0  0  0  0  0  0  0  0  0  0  0
   36.1030   28.3880   30.1210 H   0  0  0  0  0  0  0  0  0  0  0  0
   37.1110   27.2430   31.5600 C   0  0  0  0  0  0  0  0  0  0  0  0
   37.6530   26.4930   30.7020 O   0  0  0  0  0  0  0  0  0  0  0  0
   37.3220   27.0870   32.8890 N   0  0  0  0  0  0  0  0  0  0  0  0
   36.7430   27.8860   33.7900 C   0  0  0  0  0  0  0  0  0  0  0  0
   36.9400   27.7400   35.0320 O   0  0  0  0  0  0  0  0  0  0  0  0
   37.9650   26.3060   33.1960 H   0  0  0  0  0  0  0  0  0  0  0  0
   31.8880   31.0040   35.3230 C   0  0  1  0  0  0  0  0  0  0  0  0
   30.9770   30.0040   35.8760 C   0  0  2  0  0  0  0  0  0  0  0  0
   31.3590   31.1510   36.7650 C   0  0  0  0  0  0  0  0  0  0  0  0
   31.5300   31.7890   34.6230 H   0  0  0  0  0  0  0  0  0  0  0  0
   29.9820   29.9840   35.3390 H   0  0  0  0  0  0  0  0  0  0  0  0
   32.0540   30.9510   37.6040 H   0  0  0  0  0  0  0  0  0  0  0  0
   30.5660   31.9030   36.8830 H   0  0  0  0  0  0  0  0  0  0  0  0
   31.5090   28.7490   36.1430 O   0  0  0  0  0  0  0  0  0  0  0  0
   31.0090   27.5170   35.8840 C   0  0  0  0  0  0  0  0  0  0  0  0
   30.3610   27.2630   34.8450 O   0  0  0  0  0  0  0  0  0  0  0  0
   31.3500   26.6790   36.9450 N   0  0  0  0  0  0  0  0  0  0  0  0
   31.1740   26.0150   37.7360 H   0  0  0  0  0  0  0  0  0  0  0  0
   32.3180   26.4650   37.3110 H   0  0  0  0  0  0  0  0  0  0  0  0
  1 19  1  0  0  0  0
  1  2  1  0  0  0  0
  2  7  1  0  0  0  0
  3  2  2  0  0  0  0
  3  8  1  0  0  0  0
  4  3  1  0  0  0  0
  5  6  1  0  0  0  0
  5  4  2  0  0  0  0
  6  1  2  0  0  0  0
  9 16  1  0  0  0  0
  9  5  1  0  0  0  0
 10  9  1  0  0  0  0
 11 13  1  0  0  0  0
 11 10  2  0  0  0  0
 12 11  1  0  0  0  0
 13 15  1  0  0  0  0
 14 13  2  0  0  0  0
 15 18  1  0  0  0  0
 15 16  1  0  0  0  0
 16 17  2  0  0  0  0
 19 22  1  6  0  0  0
 19 20  1  0  0  0  0
 19 21  1  0  0  0  0
 20 23  1  6  0  0  0
 20 26  1  0  0  0  0
 20 21  1  0  0  0  0
 21 25  1  0  0  0  0
 21 24  1  0  0  0  0
 27 26  1  0  0  0  0
 27 29  1  0  0  0  0
 28 27  2  0  0  0  0
 29 31  1  0  0  0  0
 29 30  1  0  0  0  0
M  END
>  <minimizedAffinity>
-5.06628895

$$$$

 OpenBabel03272507203D

 31 33  0  0  1  0  0  0  0  0999 V2000
   39.7990   23.9140   34.4360 C   0  0  0  0  0  0  0  0  0  0  0  0
   39.5970   25.2240   34.0460 C   0  0  0  0  0  0  0  0  0  0  0  0
   38.4590   25.4130   33.2210 C   0  0  0  0  0  0  0  0  0  0  0  0
   37.6580   24.3530   32.8700 N   0  0  0  0  0  0  0  0  0  0  0  0
   37.9190   23.0980   33.2890 C   0  0  0  0  0  0  0  0  0  0  0  0
   39.0090   22.8760   34.0870 N   0  0  0  0  0  0  0  0  0  0  0  0
   40.2300   26.0510   34.3260 H   0  0  0  0  0  0  0  0  0  0  0  0
   38.2250   26.4140   32.8680 H   0  0  0  0  0  0  0  0  0  0  0  0
   37.0370   22.0600   32.8760 N   0  0  0  0  0  0  0  0  0  0  0  0
   36.4410   21.3340   33.8660 C   0  0  0  0  0  3  0  0  0  0  0  0
   35.5740   20.3120   33.5450 C   0  0  0  0  0  0  0  0  0  0  0  0
   35.0770   19.7090   34.2800 H   0  0  0  0  0  0  0  0  0  0  0  0
   35.2900   20.0020   32.2150 C   0  0  0  0  0  0  0  0  0  0  0  0
   34.4970   19.0680   31.9180 O   0  0  0  0  0  0  0  0  0  0  0  0
   35.9070   20.7520   31.2700 N   0  0  0  0  0  0  0  0  0  0  0  0
   36.7460   21.7400   31.5950 C   0  0  0  0  0  0  0  0  0  0  0  0
   37.3220   22.4410   30.7120 O   0  0  0  0  0  0  0  0  0  0  0  0
   35.7030   20.5300   30.2570 H   0  0  0  0  0  0  0  0  0  0  0  0
   40.9700   23.6860   35.3390 C   0  0  1  0  0  0  0  0  0  0  0  0
   40.8510   22.9400   36.5910 C   0  0  2  0  0  0  0  0  0  0  0  0
   41.3720   22.1970   35.3950 C   0  0  0  0  0  0  0  0  0  0  0  0
   41.8170   24.3810   35.1560 H   0  0  0  0  0  0  0  0  0  0  0  0
   41.5510   23.3280   37.3900 H   0  0  0  0  0  0  0  0  0  0  0  0
   40.7060   21.4530   34.9140 H   0  0  0  0  0  0  0  0  0  0  0  0
   42.4560   22.0210   35.4200 H   0  0  0  0  0  0  0  0  0  0  0  0
   39.5660   22.6650   37.0390 O   0  0  0  0  0  0  0  0  0  0  0  0
   38.7510   23.3860   37.8460 C   0  0  0  0  0  0  0  0  0  0  0  0
   38.2220   24.4570   37.4760 O   0  0  0  0  0  0  0  0  0  0  0  0
   38.6500   22.7190   39.0670 N   0  0  0  0  0  0  0  0  0  0  0  0
   38.7200   22.6080   40.1060 H   0  0  0  0  0  0  0  0  0  0  0  0
   38.3250   21.7270   39.2340 H   0  0  0  0  0  0  0  0  0  0  0  0
  1 19  1  0  0  0  0
  2  7  1  0  0  0  0
  2  1  2  0  0  0  0
  3  2  1  0  0  0  0
  4  3  2  0  0  0  0
  4  5  1  0  0  0  0
  5  6  2  0  0  0  0
  6  1  1  0  0  0  0
  8  3  1  0  0  0  0
  9  5  1  0  0  0  0
  9 10  1  0  0  0  0
 11 10  2  0  0  0  0
 11 12  1  0  0  0  0
 13 11  1  0  0  0  0
 14 13  2  0  0  0  0
 15 16  1  0  0  0  0
 15 13  1  0  0  0  0
 16  9  1  0  0  0  0
 17 16  2  0  0  0  0
 18 15  1  0  0  0  0
 19 22  1  6  0  0  0
 19 21  1  0  0  0  0
 19 20  1  0  0  0  0
 20 26  1  0  0  0  0
 20 23  1  1  0  0  0
 21 25  1  0  0  0  0
 21 20  1  0  0  0  0
 24 21  1  0  0  0  0
 26 27  1  0  0  0  0
 27 29  1  0  0  0  0
 28 27  2  0  0  0  0
 29 31  1  0  0  0  0
 29 30  1  0  0  0  0
M  END
>  <minimizedAffinity>
-5.05937052

$$$$
