
 OpenBabel03272509433D

 39 41  0  0  1  0  0  0  0  0999 V2000
   37.0730   30.9400   49.0310 C   0  0  0  0  0  0  0  0  0  0  0  0
   36.8010   31.8670   50.0390 C   0  0  0  0  0  0  0  0  0  0  0  0
   37.4010   33.1140   50.0750 C   0  0  0  0  0  0  0  0  0  0  0  0
   38.3130   33.4620   49.0670 C   0  0  0  0  0  0  0  0  0  0  0  0
   38.5690   32.5440   48.0850 C   0  0  0  0  0  0  0  0  0  0  0  0
   37.9460   31.3040   48.0850 C   0  0  0  0  0  0  0  0  0  0  0  0
   36.0930   31.5840   50.8120 H   0  0  0  0  0  0  0  0  0  0  0  0
   37.1270   33.7490   50.8890 H   0  0  0  0  0  0  0  0  0  0  0  0
   38.7230   34.4390   49.1750 H   0  0  0  0  0  0  0  0  0  0  0  0
   39.2900   32.9570   47.3840 H   0  0  0  0  0  0  0  0  0  0  0  0
   36.4670   29.6260   49.0210 C   0  0  2  0  0  0  0  0  0  0  0  0
   36.9700   29.0680   48.1400 H   0  0  0  0  0  0  0  0  0  0  0  0
   33.6160   30.0170   46.8010 C   0  0  0  0  0  0  0  0  0  0  0  0
   32.8740   28.8700   47.0050 C   0  0  0  0  0  0  0  0  0  0  0  0
   33.3140   27.9680   47.9630 C   0  0  0  0  0  0  0  0  0  0  0  0
   34.4640   28.2450   48.6670 N   0  0  0  0  0  0  0  0  0  0  0  0
   35.1280   29.3560   48.4230 C   0  0  0  0  0  0  0  0  0  0  0  0
   34.7150   30.2440   47.4990 N   0  0  0  0  0  0  0  0  0  0  0  0
   33.2880   30.7250   46.0620 H   0  0  0  0  0  0  0  0  0  0  0  0
   31.9870   28.7380   46.4050 H   0  0  0  0  0  0  0  0  0  0  0  0
   32.7450   27.0780   48.1280 H   0  0  0  0  0  0  0  0  0  0  0  0
   36.9160   28.8680   49.9580 O   0  0  0  0  0  0  0  0  0  0  0  0
   36.5250   29.0850   50.8540 H   0  0  0  0  0  0  0  0  0  0  0  0
   38.3290   30.4240   47.0060 C   0  0  0  0  0  3  0  0  0  0  0  0
   38.9210   30.8410   45.8810 C   0  0  0  0  0  3  0  0  0  0  0  0
   39.3890   30.0290   44.7350 C   0  0  0  0  0  0  0  0  0  0  0  0
   38.8320   29.0540   44.7710 H   0  0  0  0  0  0  0  0  0  0  0  0
   40.4450   29.7730   44.8110 H   0  0  0  0  0  0  0  0  0  0  0  0
   38.9400   30.8390   43.1960 S   0  0  0  0  0  0  0  0  0  0  0  0
   35.4750   34.1110   43.1880 H   0  0  0  0  0  0  0  0  0  0  0  0
   35.7010   33.0980   43.1400 N   0  0  0  0  0  0  0  0  0  0  0  0
   36.9790   32.6390   43.1880 C   0  0  0  0  0  3  0  0  0  0  0  0
   37.2250   31.2760   43.1210 C   0  0  0  0  0  0  0  0  0  0  0  0
   36.1450   30.4250   43.0070 C   0  0  0  0  0  0  0  0  0  0  0  0
   36.4490   29.2090   42.9520 O   0  0  0  0  0  0  0  0  0  0  0  0
   34.8780   30.8730   42.9590 N   0  0  0  0  0  0  0  0  0  0  0  0
   34.6920   32.2100   43.0280 C   0  0  0  0  0  0  0  0  0  0  0  0
   33.5030   32.6680   42.9850 O   0  0  0  0  0  0  0  0  0  0  0  0
   34.1100   30.1790   42.8710 H   0  0  0  0  0  0  0  0  0  0  0  0
  1  2  1  0  0  0  0
  2  3  2  0  0  0  0
  2  7  1  0  0  0  0
  3  8  1  0  0  0  0
  4  9  1  0  0  0  0
  4  3  1  0  0  0  0
  5  6  1  0  0  0  0
  5  4  2  0  0  0  0
  6  1  2  0  0  0  0
 10  5  1  0  0  0  0
 11 12  1  6  0  0  0
 11  1  1  0  0  0  0
 11 22  1  0  0  0  0
 13 14  2  0  0  0  0
 13 18  1  0  0  0  0
 14 15  1  0  0  0  0
 15 21  1  0  0  0  0
 15 16  2  0  0  0  0
 17 16  1  0  0  0  0
 17 11  1  0  0  0  0
 18 17  2  0  0  0  0
 19 13  1  0  0  0  0
 20 14  1  0  0  0  0
 22 23  1  0  0  0  0
 24  6  1  0  0  0  0
 25 24  2  0  0  0  0
 26 27  1  0  0  0  0
 26 28  1  0  0  0  0
 26 25  1  0  0  0  0
 29 26  1  0  0  0  0
 31 32  1  0  0  0  0
 31 30  1  0  0  0  0
 33 32  2  0  0  0  0
 33 29  1  0  0  0  0
 34 33  1  0  0  0  0
 35 34  2  0  0  0  0
 36 34  1  0  0  0  0
 36 37  1  0  0  0  0
 37 31  1  0  0  0  0
 38 37  2  0  0  0  0
 39 36  1  0  0  0  0
M  END
>  <minimizedAffinity>
-6.03663874

>  <minimizedRMSD>
0.497717977

$$$$
