
 OpenBabel03272509043D

 34 36  0  0  0  0  0  0  0  0999 V2000
   37.2600   29.5670   51.6540 C   0  0  0  0  0  0  0  0  0  0  0  0
   38.0670   30.3940   50.8310 C   0  0  0  0  0  0  0  0  0  0  0  0
   37.4670   30.9540   49.6600 C   0  0  0  0  0  0  0  0  0  0  0  0
   36.1620   30.6500   49.4260 N   0  0  0  0  0  0  0  0  0  0  0  0
   35.4480   29.8650   50.2340 C   0  0  0  0  0  0  0  0  0  0  0  0
   35.9990   29.3300   51.3390 N   0  0  0  0  0  0  0  0  0  0  0  0
   37.7960   29.2000   52.4950 H   0  0  0  0  0  0  0  0  0  0  0  0
   39.1040   30.6370   51.0150 H   0  0  0  0  0  0  0  0  0  0  0  0
   38.2390   31.7910   48.8060 N   0  0  0  0  0  0  0  0  0  0  0  0
   38.4100   33.0270   49.3280 C   0  0  0  0  0  3  0  0  0  0  0  0
   39.1520   33.9570   48.5930 C   0  0  0  0  0  0  0  0  0  0  0  0
   39.3470   34.9670   48.9200 H   0  0  0  0  0  0  0  0  0  0  0  0
   39.6710   33.5840   47.3840 C   0  0  0  0  0  0  0  0  0  0  0  0
   40.3440   34.3360   46.6550 O   0  0  0  0  0  0  0  0  0  0  0  0
   39.4770   32.3370   46.8970 N   0  0  0  0  0  0  0  0  0  0  0  0
   38.7610   31.4480   47.6120 C   0  0  0  0  0  0  0  0  0  0  0  0
   38.4750   30.2570   47.3300 O   0  0  0  0  0  0  0  0  0  0  0  0
   39.8320   31.9710   45.9940 H   0  0  0  0  0  0  0  0  0  0  0  0
   34.0760   29.6370   49.8470 C   0  0  0  0  0  3  0  0  0  0  0  0
   33.7570   28.5120   49.3040 C   0  0  0  0  0  3  0  0  0  0  0  0
   32.4340   28.0700   48.8370 C   0  0  0  0  0  0  0  0  0  0  0  0
   32.0190   28.8730   48.1770 H   0  0  0  0  0  0  0  0  0  0  0  0
   31.6860   27.9480   49.6530 H   0  0  0  0  0  0  0  0  0  0  0  0
   32.5080   26.8240   48.0110 C   0  0  0  0  0  0  0  0  0  0  0  0
   31.4610   25.9890   47.7090 C   0  0  0  0  0  0  0  0  0  0  0  0
   31.6490   24.8650   46.9340 C   0  0  0  0  0  0  0  0  0  0  0  0
   32.9120   24.5350   46.4290 C   0  0  0  0  0  0  0  0  0  0  0  0
   33.9670   25.3520   46.7170 C   0  0  0  0  0  0  0  0  0  0  0  0
   33.7600   26.4770   47.4970 C   0  0  0  0  0  0  0  0  0  0  0  0
   30.4900   26.2750   48.1180 H   0  0  0  0  0  0  0  0  0  0  0  0
   30.7720   24.2540   46.7380 H   0  0  0  0  0  0  0  0  0  0  0  0
   32.9910   23.6530   45.8360 H   0  0  0  0  0  0  0  0  0  0  0  0
   34.9600   25.1300   46.3450 H   0  0  0  0  0  0  0  0  0  0  0  0
   34.6100   27.0940   47.7020 H   0  0  0  0  0  0  0  0  0  0  0  0
  1  7  1  0  0  0  0
  2  8  1  0  0  0  0
  2  1  2  0  0  0  0
  3  2  1  0  0  0  0
  4  3  2  0  0  0  0
  4  5  1  0  0  0  0
  5  6  2  0  0  0  0
  6  1  1  0  0  0  0
  9 10  1  0  0  0  0
  9  3  1  0  0  0  0
 11 12  1  0  0  0  0
 11 10  2  0  0  0  0
 13 11  1  0  0  0  0
 14 13  2  0  0  0  0
 15 13  1  0  0  0  0
 15 16  1  0  0  0  0
 16  9  1  0  0  0  0
 17 16  2  0  0  0  0
 18 15  1  0  0  0  0
 19  5  1  0  0  0  0
 20 19  2  0  0  0  0
 21 20  1  0  0  0  0
 21 23  1  0  0  0  0
 22 21  1  0  0  0  0
 24 21  1  0  0  0  0
 25 24  1  0  0  0  0
 25 30  1  0  0  0  0
 26 25  2  0  0  0  0
 27 28  2  0  0  0  0
 27 26  1  0  0  0  0
 28 29  1  0  0  0  0
 29 34  1  0  0  0  0
 29 24  2  0  0  0  0
 31 26  1  0  0  0  0
 32 27  1  0  0  0  0
 33 28  1  0  0  0  0
M  END
>  <minimizedAffinity>
-5.84180546

>  <minimizedRMSD>
1.77481318

$$$$
