
 OpenBabel03272508473D

 41 45  0  0  0  0  0  0  0  0999 V2000
   35.5360   29.5550   49.6530 C   0  0  0  0  0  0  0  0  0  0  0  0
   36.5850   29.1400   50.4460 C   0  0  0  0  0  0  0  0  0  0  0  0
   37.7030   29.6900   49.8290 C   0  0  0  0  0  0  0  0  0  0  0  0
   37.3010   30.3920   48.7250 C   0  0  0  0  0  0  0  0  0  0  0  0
   35.9810   30.2930   48.6420 O   0  0  0  0  0  0  0  0  0  0  0  0
   36.5950   28.5350   51.3390 H   0  0  0  0  0  0  0  0  0  0  0  0
   38.7300   29.6170   50.1150 H   0  0  0  0  0  0  0  0  0  0  0  0
   38.6490   32.3590   48.1530 C   0  0  0  0  0  0  0  0  0  0  0  0
   38.1460   31.1260   47.7870 C   0  0  0  0  0  0  0  0  0  0  0  0
   38.4220   30.5580   46.5450 C   0  0  0  0  0  0  0  0  0  0  0  0
   39.2210   31.2350   45.6400 C   0  0  0  0  0  0  0  0  0  0  0  0
   39.6660   30.9690   44.3920 N   0  0  0  0  0  0  0  0  0  0  0  0
   40.4140   32.0100   44.0140 N   0  0  0  0  0  0  0  0  0  0  0  0
   40.4550   32.9260   44.9890 C   0  0  0  0  0  0  0  0  0  0  0  0
   39.7000   32.4620   46.0520 C   0  0  0  0  0  0  0  0  0  0  0  0
   39.4610   33.0660   47.2550 C   0  0  0  0  0  0  0  0  0  0  0  0
   38.4420   32.8080   49.1110 H   0  0  0  0  0  0  0  0  0  0  0  0
   38.0230   29.5790   46.2570 H   0  0  0  0  0  0  0  0  0  0  0  0
   39.4220   30.0770   43.8760 H   0  0  0  0  0  0  0  0  0  0  0  0
   41.0140   33.8450   44.8730 H   0  0  0  0  0  0  0  0  0  0  0  0
   39.8690   34.0350   47.5120 H   0  0  0  0  0  0  0  0  0  0  0  0
   34.1310   29.2240   49.8980 C   0  0  0  0  0  0  0  0  0  0  0  0
   33.5600   29.7730   50.8610 O   0  0  0  0  0  0  0  0  0  0  0  0
   31.4590   27.2160   48.4390 C   0  0  0  0  0  0  0  0  0  0  0  0
   32.0980   26.5170   47.4280 C   0  0  0  0  0  0  0  0  0  0  0  0
   33.4440   26.7220   47.2340 C   0  0  0  0  0  0  0  0  0  0  0  0
   34.0860   27.6010   48.0400 N   0  0  0  0  0  0  0  0  0  0  0  0
   33.4490   28.2740   49.0230 C   0  0  0  0  0  0  0  0  0  0  0  0
   32.1350   28.0760   49.2150 N   0  0  0  0  0  0  0  0  0  0  0  0
   30.3930   27.0500   48.5900 H   0  0  0  0  0  0  0  0  0  0  0  0
   31.5170   25.8250   46.8170 H   0  0  0  0  0  0  0  0  0  0  0  0
   34.1080   26.0070   46.1960 N   0  0  0  0  0  0  0  0  0  0  0  0
   34.5680   24.7510   46.3920 C   0  0  0  0  0  3  0  0  0  0  0  0
   35.2190   24.0500   45.3710 C   0  0  0  0  0  0  0  0  0  0  0  0
   35.5880   23.0430   45.5290 H   0  0  0  0  0  0  0  0  0  0  0  0
   35.3590   24.7180   44.1660 C   0  0  0  0  0  0  0  0  0  0  0  0
   35.9470   24.1180   43.2040 O   0  0  0  0  0  0  0  0  0  0  0  0
   34.8820   25.9870   44.0020 N   0  0  0  0  0  0  0  0  0  0  0  0
   34.2630   26.6240   45.0090 C   0  0  0  0  0  0  0  0  0  0  0  0
   33.8680   27.7860   44.7390 O   0  0  0  0  0  0  0  0  0  0  0  0
   35.0280   26.4330   43.0470 H   0  0  0  0  0  0  0  0  0  0  0  0
  1 22  1  0  0  0  0
  1  2  2  0  0  0  0
  2  6  1  0  0  0  0
  3  7  1  0  0  0  0
  3  2  1  0  0  0  0
  4  3  2  0  0  0  0
  5  4  1  0  0  0  0
  5  1  1  0  0  0  0
  8 17  1  0  0  0  0
  9  8  1  0  0  0  0
  9  4  1  0  0  0  0
 10  9  2  0  0  0  0
 11 15  2  0  0  0  0
 11 10  1  0  0  0  0
 12 11  1  0  0  0  0
 13 12  1  0  0  0  0
 13 14  2  0  0  0  0
 14 15  1  0  0  0  0
 15 16  1  0  0  0  0
 16 21  1  0  0  0  0
 16  8  2  0  0  0  0
 18 10  1  0  0  0  0
 19 12  1  0  0  0  0
 20 14  1  0  0  0  0
 22 23  2  0  0  0  0
 24 30  1  0  0  0  0
 24 29  1  0  0  0  0
 25 24  2  0  0  0  0
 26 25  1  0  0  0  0
 26 27  2  0  0  0  0
 27 28  1  0  0  0  0
 28 29  2  0  0  0  0
 28 22  1  0  0  0  0
 31 25  1  0  0  0  0
 32 33  1  0  0  0  0
 32 26  1  0  0  0  0
 34 35  1  0  0  0  0
 34 33  2  0  0  0  0
 36 34  1  0  0  0  0
 37 36  2  0  0  0  0
 38 36  1  0  0  0  0
 38 39  1  0  0  0  0
 39 32  1  0  0  0  0
 40 39  2  0  0  0  0
 41 38  1  0  0  0  0
M  END
>  <minimizedAffinity>
-6.6843338

>  <minimizedRMSD>
0.717520177

$$$$
