
 OpenBabel03262523373D

 35 37  0  0  1  0  0  0  0  0999 V2000
   37.8940   26.1640   33.3590 C   0  0  2  0  0  0  0  0  0  0  0  0
   38.8000   25.1720   34.0510 C   0  0  0  0  0  0  0  0  0  0  0  0
   38.5340   25.0900   35.5240 C   0  0  2  0  0  0  0  0  0  0  0  0
   38.6690   26.4430   36.1800 C   0  0  0  0  0  0  0  0  0  0  0  0
   37.8570   27.4840   35.4960 C   0  0  0  0  0  0  0  0  0  0  0  0
   37.0940   27.0010   34.2890 C   0  0  0  0  0  0  0  0  0  0  0  0
   38.5090   26.7940   32.6920 H   0  0  0  0  0  0  0  0  0  0  0  0
   38.6010   24.1480   33.6420 H   0  0  0  0  0  0  0  0  0  0  0  0
   39.8660   25.3770   33.8030 H   0  0  0  0  0  0  0  0  0  0  0  0
   37.4520   24.8150   35.6240 H   0  0  0  0  0  0  0  0  0  0  0  0
   38.5260   26.3610   37.2630 H   0  0  0  0  0  0  0  0  0  0  0  0
   39.7450   26.7430   36.0480 H   0  0  0  0  0  0  0  0  0  0  0  0
   37.0570   27.7930   36.2310 H   0  0  0  0  0  0  0  0  0  0  0  0
   38.3980   28.4330   35.2890 H   0  0  0  0  0  0  0  0  0  0  0  0
   36.7740   27.9150   33.7240 H   0  0  0  0  0  0  0  0  0  0  0  0
   36.1820   26.4590   34.6010 H   0  0  0  0  0  0  0  0  0  0  0  0
   39.3120   24.0880   36.1540 N   0  0  0  0  0  0  0  0  0  0  0  0
   40.5690   23.7700   35.7270 C   0  0  0  0  0  3  0  0  0  0  0  0
   41.3740   22.8030   36.3020 C   0  0  0  0  0  0  0  0  0  0  0  0
   42.3550   22.6030   35.9150 H   0  0  0  0  0  0  0  0  0  0  0  0
   40.8600   22.1170   37.3860 C   0  0  0  0  0  0  0  0  0  0  0  0
   41.5900   21.2510   37.8960 O   0  0  0  0  0  0  0  0  0  0  0  0
   39.6160   22.4080   37.8360 N   0  0  0  0  0  0  0  0  0  0  0  0
   38.9010   23.3710   37.2080 C   0  0  0  0  0  0  0  0  0  0  0  0
   37.7610   23.5700   37.6960 O   0  0  0  0  0  0  0  0  0  0  0  0
   39.2460   21.8820   38.6520 H   0  0  0  0  0  0  0  0  0  0  0  0
   36.9420   25.4360   32.4710 C   0  0  0  0  0  0  0  0  0  0  0  0
   36.0210   26.2300   31.7620 C   0  0  0  0  0  0  0  0  0  0  0  0
   35.1170   25.5460   30.9320 C   0  0  0  0  0  0  0  0  0  0  0  0
   35.1760   24.1700   30.8580 N   0  0  0  0  0  0  0  0  0  0  0  0
   36.0820   23.4520   31.5630 C   0  0  0  0  0  0  0  0  0  0  0  0
   36.9470   24.0880   32.3540 N   0  0  0  0  0  0  0  0  0  0  0  0
   35.9390   27.2950   31.7900 H   0  0  0  0  0  0  0  0  0  0  0  0
   34.3910   26.1120   30.3680 H   0  0  0  0  0  0  0  0  0  0  0  0
   36.0400   22.3880   31.4320 H   0  0  0  0  0  0  0  0  0  0  0  0
  1  7  1  6  0  0  0
  1  2  1  0  0  0  0
  1  6  1  0  0  0  0
  2  3  1  0  0  0  0
  3 10  1  1  0  0  0
  3 17  1  0  0  0  0
  3  4  1  0  0  0  0
  4 11  1  0  0  0  0
  5  4  1  0  0  0  0
  5 13  1  0  0  0  0
  6 16  1  0  0  0  0
  6  5  1  0  0  0  0
  8  2  1  0  0  0  0
  9  2  1  0  0  0  0
 12  4  1  0  0  0  0
 14  5  1  0  0  0  0
 15  6  1  0  0  0  0
 17 24  1  0  0  0  0
 18 17  1  0  0  0  0
 18 19  2  0  0  0  0
 19 21  1  0  0  0  0
 20 19  1  0  0  0  0
 21 23  1  0  0  0  0
 21 22  2  0  0  0  0
 23 26  1  0  0  0  0
 24 25  2  0  0  0  0
 24 23  1  0  0  0  0
 27  1  1  0  0  0  0
 28 33  1  0  0  0  0
 28 27  2  0  0  0  0
 29 28  1  0  0  0  0
 30 29  2  0  0  0  0
 30 31  1  0  0  0  0
 31 32  2  0  0  0  0
 32 27  1  0  0  0  0
 34 29  1  0  0  0  0
 35 31  1  0  0  0  0
M  END
>  <minimizedAffinity>
-6.1340251

$$$$

 OpenBabel03262523373D

 35 37  0  0  1  0  0  0  0  0999 V2000
   36.9740   28.0660   31.9020 C   0  0  2  0  0  0  0  0  0  0  0  0
   36.4280   28.6720   33.1730 C   0  0  0  0  0  0  0  0  0  0  0  0
   35.4230   29.7520   32.9030 C   0  0  2  0  0  0  0  0  0  0  0  0
   36.0090   30.8390   32.0350 C   0  0  0  0  0  0  0  0  0  0  0  0
   36.6330   30.2970   30.7980 C   0  0  0  0  0  0  0  0  0  0  0  0
   36.5820   28.7960   30.6690 C   0  0  0  0  0  0  0  0  0  0  0  0
   38.0730   28.0010   31.9880 H   0  0  0  0  0  0  0  0  0  0  0  0
   35.8860   27.8810   33.7520 H   0  0  0  0  0  0  0  0  0  0  0  0
   37.2590   28.9940   33.8400 H   0  0  0  0  0  0  0  0  0  0  0  0
   34.6200   29.2730   32.2840 H   0  0  0  0  0  0  0  0  0  0  0  0
   35.2850   31.6470   31.8890 H   0  0  0  0  0  0  0  0  0  0  0  0
   36.8430   31.2960   32.6360 H   0  0  0  0  0  0  0  0  0  0  0  0
   36.0070   30.6760   29.9380 H   0  0  0  0  0  0  0  0  0  0  0  0
   37.6460   30.6960   30.5760 H   0  0  0  0  0  0  0  0  0  0  0  0
   37.3170   28.5180   29.8680 H   0  0  0  0  0  0  0  0  0  0  0  0
   35.5790   28.4710   30.3350 H   0  0  0  0  0  0  0  0  0  0  0  0
   34.8380   30.2480   34.0930 N   0  0  0  0  0  0  0  0  0  0  0  0
   35.5260   31.0440   34.9630 C   0  0  0  0  0  3  0  0  0  0  0  0
   35.0070   31.5570   36.1380 C   0  0  0  0  0  0  0  0  0  0  0  0
   35.6030   32.1790   36.7780 H   0  0  0  0  0  0  0  0  0  0  0  0
   33.6970   31.2350   36.4430 C   0  0  0  0  0  0  0  0  0  0  0  0
   33.2400   31.7010   37.5010 O   0  0  0  0  0  0  0  0  0  0  0  0
   32.9860   30.4480   35.6020 N   0  0  0  0  0  0  0  0  0  0  0  0
   33.5790   29.9920   34.4740 C   0  0  0  0  0  0  0  0  0  0  0  0
   32.8420   29.2710   33.7570 O   0  0  0  0  0  0  0  0  0  0  0  0
   32.0040   30.2160   35.8480 H   0  0  0  0  0  0  0  0  0  0  0  0
   36.4900   26.6610   31.7690 C   0  0  0  0  0  0  0  0  0  0  0  0
   37.2710   25.6720   32.3970 C   0  0  0  0  0  0  0  0  0  0  0  0
   36.8230   24.3470   32.2660 C   0  0  0  0  0  0  0  0  0  0  0  0
   35.6730   24.0900   31.5470 N   0  0  0  0  0  0  0  0  0  0  0  0
   34.9580   25.0800   30.9620 C   0  0  0  0  0  0  0  0  0  0  0  0
   35.3710   26.3420   31.0790 N   0  0  0  0  0  0  0  0  0  0  0  0
   38.1670   25.8250   32.9600 H   0  0  0  0  0  0  0  0  0  0  0  0
   37.3880   23.5530   32.7300 H   0  0  0  0  0  0  0  0  0  0  0  0
   34.0800   24.7690   30.4280 H   0  0  0  0  0  0  0  0  0  0  0  0
  1  7  1  1  0  0  0
  1  2  1  0  0  0  0
  2  8  1  0  0  0  0
  2  9  1  0  0  0  0
  3 10  1  6  0  0  0
  3  2  1  0  0  0  0
  3 17  1  0  0  0  0
  4 12  1  0  0  0  0
  4  3  1  0  0  0  0
  5  4  1  0  0  0  0
  6  5  1  0  0  0  0
  6  1  1  0  0  0  0
 11  4  1  0  0  0  0
 13  5  1  0  0  0  0
 14  5  1  0  0  0  0
 15  6  1  0  0  0  0
 16  6  1  0  0  0  0
 17 24  1  0  0  0  0
 17 18  1  0  0  0  0
 18 19  2  0  0  0  0
 19 21  1  0  0  0  0
 19 20  1  0  0  0  0
 21 22  2  0  0  0  0
 23 26  1  0  0  0  0
 23 21  1  0  0  0  0
 24 23  1  0  0  0  0
 25 24  2  0  0  0  0
 27  1  1  0  0  0  0
 27 28  1  0  0  0  0
 28 33  1  0  0  0  0
 29 28  2  0  0  0  0
 29 34  1  0  0  0  0
 30 29  1  0  0  0  0
 31 32  1  0  0  0  0
 31 30  2  0  0  0  0
 32 27  2  0  0  0  0
 35 31  1  0  0  0  0
M  END
>  <minimizedAffinity>
-5.1866703

$$$$

 OpenBabel03262523373D

 35 37  0  0  1  0  0  0  0  0999 V2000
   36.8480   28.0370   32.0620 C   0  0  2  0  0  0  0  0  0  0  0  0
   36.1530   28.5870   33.2860 C   0  0  0  0  0  0  0  0  0  0  0  0
   35.0180   29.5000   32.9330 C   0  0  2  0  0  0  0  0  0  0  0  0
   35.4850   30.6410   32.0610 C   0  0  0  0  0  0  0  0  0  0  0  0
   36.2450   30.1670   30.8740 C   0  0  0  0  0  0  0  0  0  0  0  0
   36.4210   28.6730   30.7890 C   0  0  0  0  0  0  0  0  0  0  0  0
   37.9390   28.1370   32.2040 H   0  0  0  0  0  0  0  0  0  0  0  0
   35.7020   27.7380   33.8620 H   0  0  0  0  0  0  0  0  0  0  0  0
   36.8920   29.0440   33.9820 H   0  0  0  0  0  0  0  0  0  0  0  0
   34.3270   28.8950   32.2910 H   0  0  0  0  0  0  0  0  0  0  0  0
   34.6590   31.3300   31.8540 H   0  0  0  0  0  0  0  0  0  0  0  0
   36.2100   31.2300   32.6870 H   0  0  0  0  0  0  0  0  0  0  0  0
   35.6170   30.4290   29.9720 H   0  0  0  0  0  0  0  0  0  0  0  0
   37.2000   30.7050   30.6890 H   0  0  0  0  0  0  0  0  0  0  0  0
   37.2290   28.4860   30.0350 H   0  0  0  0  0  0  0  0  0  0  0  0
   35.4940   28.1960   30.4170 H   0  0  0  0  0  0  0  0  0  0  0  0
   34.3040   29.9340   34.0770 N   0  0  0  0  0  0  0  0  0  0  0  0
   33.0460   29.4880   34.3600 C   0  0  0  0  0  3  0  0  0  0  0  0
   32.3030   29.8760   35.4610 C   0  0  0  0  0  0  0  0  0  0  0  0
   31.3170   29.4850   35.6240 H   0  0  0  0  0  0  0  0  0  0  0  0
   32.8860   30.7780   36.3300 C   0  0  0  0  0  0  0  0  0  0  0  0
   32.2120   31.1200   37.3160 O   0  0  0  0  0  0  0  0  0  0  0  0
   34.1340   31.2400   36.0790 N   0  0  0  0  0  0  0  0  0  0  0  0
   34.7850   30.8040   34.9750 C   0  0  0  0  0  0  0  0  0  0  0  0
   35.9350   31.2870   34.8280 O   0  0  0  0  0  0  0  0  0  0  0  0
   34.5570   31.9190   36.7440 H   0  0  0  0  0  0  0  0  0  0  0  0
   36.5820   26.5740   31.9510 C   0  0  0  0  0  0  0  0  0  0  0  0
   35.4700   26.2010   31.1720 C   0  0  0  0  0  0  0  0  0  0  0  0
   35.2110   24.8240   31.0730 C   0  0  0  0  0  0  0  0  0  0  0  0
   36.0360   23.9320   31.7280 N   0  0  0  0  0  0  0  0  0  0  0  0
   37.0940   24.3440   32.4670 C   0  0  0  0  0  0  0  0  0  0  0  0
   37.3510   25.6480   32.5680 N   0  0  0  0  0  0  0  0  0  0  0  0
   34.8050   26.8550   30.6500 H   0  0  0  0  0  0  0  0  0  0  0  0
   34.3690   24.4890   30.4870 H   0  0  0  0  0  0  0  0  0  0  0  0
   37.6680   23.5670   32.9340 H   0  0  0  0  0  0  0  0  0  0  0  0
  1  7  1  1  0  0  0
  1  2  1  0  0  0  0
  2  8  1  0  0  0  0
  2  9  1  0  0  0  0
  3 10  1  6  0  0  0
  3  2  1  0  0  0  0
  3 17  1  0  0  0  0
  4 12  1  0  0  0  0
  4  3  1  0  0  0  0
  5  4  1  0  0  0  0
  6  5  1  0  0  0  0
  6  1  1  0  0  0  0
 11  4  1  0  0  0  0
 13  5  1  0  0  0  0
 14  5  1  0  0  0  0
 15  6  1  0  0  0  0
 16  6  1  0  0  0  0
 17 18  1  0  0  0  0
 17 24  1  0  0  0  0
 18 19  2  0  0  0  0
 19 20  1  0  0  0  0
 19 21  1  0  0  0  0
 21 22  2  0  0  0  0
 23 21  1  0  0  0  0
 23 26  1  0  0  0  0
 24 23  1  0  0  0  0
 25 24  2  0  0  0  0
 27  1  1  0  0  0  0
 27 32  1  0  0  0  0
 28 27  2  0  0  0  0
 29 28  1  0  0  0  0
 29 30  2  0  0  0  0
 30 31  1  0  0  0  0
 31 32  2  0  0  0  0
 31 35  1  0  0  0  0
 33 28  1  0  0  0  0
 34 29  1  0  0  0  0
M  END
>  <minimizedAffinity>
-4.98111963

$$$$

 OpenBabel03262523373D

 35 37  0  0  1  0  0  0  0  0999 V2000
   34.7260   30.5570   32.6460 C   0  0  2  0  0  0  0  0  0  0  0  0
   34.8170   29.0530   32.5330 C   0  0  0  0  0  0  0  0  0  0  0  0
   36.1660   28.5990   32.0600 C   0  0  2  0  0  0  0  0  0  0  0  0
   36.5200   29.2290   30.7340 C   0  0  0  0  0  0  0  0  0  0  0  0
   36.3750   30.7090   30.7570 C   0  0  0  0  0  0  0  0  0  0  0  0
   35.8880   31.2770   32.0650 C   0  0  0  0  0  0  0  0  0  0  0  0
   33.7840   30.8870   32.1750 H   0  0  0  0  0  0  0  0  0  0  0  0
   34.6760   28.6020   33.5490 H   0  0  0  0  0  0  0  0  0  0  0  0
   33.9750   28.6560   31.9250 H   0  0  0  0  0  0  0  0  0  0  0  0
   36.9030   29.0130   32.7950 H   0  0  0  0  0  0  0  0  0  0  0  0
   37.4810   28.8480   30.3720 H   0  0  0  0  0  0  0  0  0  0  0  0
   35.7570   28.8480   29.9990 H   0  0  0  0  0  0  0  0  0  0  0  0
   37.4170   31.1280   30.6370 H   0  0  0  0  0  0  0  0  0  0  0  0
   35.8240   31.1350   29.8910 H   0  0  0  0  0  0  0  0  0  0  0  0
   35.5590   32.3290   31.8560 H   0  0  0  0  0  0  0  0  0  0  0  0
   36.7150   31.3210   32.7990 H   0  0  0  0  0  0  0  0  0  0  0  0
   36.2820   27.1880   32.0520 N   0  0  0  0  0  0  0  0  0  0  0  0
   35.5580   26.4040   31.2010 C   0  0  0  0  0  3  0  0  0  0  0  0
   35.6310   25.0240   31.1480 C   0  0  0  0  0  0  0  0  0  0  0  0
   35.0330   24.4670   30.4530 H   0  0  0  0  0  0  0  0  0  0  0  0
   36.5030   24.4040   32.0240 C   0  0  0  0  0  0  0  0  0  0  0  0
   36.5620   23.1640   31.9690 O   0  0  0  0  0  0  0  0  0  0  0  0
   37.2370   25.1520   32.8820 N   0  0  0  0  0  0  0  0  0  0  0  0
   37.0980   26.4980   32.8610 C   0  0  0  0  0  0  0  0  0  0  0  0
   37.8190   27.1060   33.6910 O   0  0  0  0  0  0  0  0  0  0  0  0
   37.8870   24.6690   33.5330 H   0  0  0  0  0  0  0  0  0  0  0  0
   34.6240   30.9460   34.0830 C   0  0  0  0  0  0  0  0  0  0  0  0
   35.8280   31.3060   34.7170 C   0  0  0  0  0  0  0  0  0  0  0  0
   35.7360   31.6630   36.0730 C   0  0  0  0  0  0  0  0  0  0  0  0
   34.5040   31.6410   36.6960 N   0  0  0  0  0  0  0  0  0  0  0  0
   33.3750   31.2850   36.0390 C   0  0  0  0  0  0  0  0  0  0  0  0
   33.4480   30.9440   34.7510 N   0  0  0  0  0  0  0  0  0  0  0  0
   36.8000   31.3360   34.2760 H   0  0  0  0  0  0  0  0  0  0  0  0
   36.6320   31.9480   36.6030 H   0  0  0  0  0  0  0  0  0  0  0  0
   32.4720   31.3020   36.6180 H   0  0  0  0  0  0  0  0  0  0  0  0
  1  7  1  6  0  0  0
  1 27  1  0  0  0  0
  2  1  1  0  0  0  0
  2  8  1  0  0  0  0
  3  2  1  0  0  0  0
  3 10  1  1  0  0  0
  4  5  1  0  0  0  0
  4  3  1  0  0  0  0
  5  6  1  0  0  0  0
  6  1  1  0  0  0  0
  6 16  1  0  0  0  0
  9  2  1  0  0  0  0
 11  4  1  0  0  0  0
 12  4  1  0  0  0  0
 13  5  1  0  0  0  0
 14  5  1  0  0  0  0
 15  6  1  0  0  0  0
 17  3  1  0  0  0  0
 17 24  1  0  0  0  0
 18 17  1  0  0  0  0
 19 18  2  0  0  0  0
 19 21  1  0  0  0  0
 20 19  1  0  0  0  0
 21 23  1  0  0  0  0
 22 21  2  0  0  0  0
 23 26  1  0  0  0  0
 24 23  1  0  0  0  0
 24 25  2  0  0  0  0
 27 28  2  0  0  0  0
 27 32  1  0  0  0  0
 28 29  1  0  0  0  0
 29 34  1  0  0  0  0
 29 30  2  0  0  0  0
 31 35  1  0  0  0  0
 31 30  1  0  0  0  0
 32 31  2  0  0  0  0
 33 28  1  0  0  0  0
M  END
>  <minimizedAffinity>
-4.96757555

$$$$

 OpenBabel03262523373D

 35 37  0  0  1  0  0  0  0  0999 V2000
   38.7280   24.7080   34.4490 C   0  0  2  0  0  0  0  0  0  0  0  0
   38.1550   23.5000   33.7440 C   0  0  0  0  0  0  0  0  0  0  0  0
   37.5840   22.5000   34.7040 C   0  0  2  0  0  0  0  0  0  0  0  0
   38.6180   22.0560   35.7110 C   0  0  0  0  0  0  0  0  0  0  0  0
   39.2770   23.2060   36.3860 C   0  0  0  0  0  0  0  0  0  0  0  0
   38.8110   24.5630   35.9250 C   0  0  0  0  0  0  0  0  0  0  0  0
   39.7220   24.9260   34.0190 H   0  0  0  0  0  0  0  0  0  0  0  0
   37.3040   23.8270   33.0930 H   0  0  0  0  0  0  0  0  0  0  0  0
   38.9030   23.0670   33.0430 H   0  0  0  0  0  0  0  0  0  0  0  0
   36.8080   23.0520   35.2950 H   0  0  0  0  0  0  0  0  0  0  0  0
   38.2060   21.2860   36.3720 H   0  0  0  0  0  0  0  0  0  0  0  0
   39.4210   21.5360   35.1180 H   0  0  0  0  0  0  0  0  0  0  0  0
   38.9650   23.1540   37.4710 H   0  0  0  0  0  0  0  0  0  0  0  0
   40.3860   23.1450   36.4330 H   0  0  0  0  0  0  0  0  0  0  0  0
   39.5670   25.3050   36.2920 H   0  0  0  0  0  0  0  0  0  0  0  0
   37.8380   24.8150   36.3880 H   0  0  0  0  0  0  0  0  0  0  0  0
   36.9580   21.4180   34.0400 N   0  0  0  0  0  0  0  0  0  0  0  0
   37.3500   21.0020   32.8000 C   0  0  0  0  0  3  0  0  0  0  0  0
   36.7770   19.9530   32.1040 C   0  0  0  0  0  0  0  0  0  0  0  0
   37.1350   19.6770   31.1310 H   0  0  0  0  0  0  0  0  0  0  0  0
   35.7330   19.2850   32.7170 C   0  0  0  0  0  0  0  0  0  0  0  0
   35.2240   18.3440   32.0840 O   0  0  0  0  0  0  0  0  0  0  0  0
   35.3190   19.6720   33.9470 N   0  0  0  0  0  0  0  0  0  0  0  0
   35.9410   20.7110   34.5510 C   0  0  0  0  0  0  0  0  0  0  0  0
   35.4880   20.9950   35.6870 O   0  0  0  0  0  0  0  0  0  0  0  0
   34.5320   19.1580   34.3910 H   0  0  0  0  0  0  0  0  0  0  0  0
   37.8850   25.9040   34.1570 C   0  0  0  0  0  0  0  0  0  0  0  0
   37.3740   26.0000   32.8490 C   0  0  0  0  0  0  0  0  0  0  0  0
   36.5880   27.1310   32.5680 C   0  0  0  0  0  0  0  0  0  0  0  0
   36.3650   28.0620   33.5620 N   0  0  0  0  0  0  0  0  0  0  0  0
   36.8820   27.9220   34.8050 C   0  0  0  0  0  0  0  0  0  0  0  0
   37.6290   26.8540   35.0850 N   0  0  0  0  0  0  0  0  0  0  0  0
   37.5210   25.3060   32.0500 H   0  0  0  0  0  0  0  0  0  0  0  0
   36.1730   27.2490   31.5790 H   0  0  0  0  0  0  0  0  0  0  0  0
   36.6470   28.7050   35.5000 H   0  0  0  0  0  0  0  0  0  0  0  0
  1  7  1  6  0  0  0
  1  6  1  0  0  0  0
  2  1  1  0  0  0  0
  2  3  1  0  0  0  0
  3 10  1  1  0  0  0
  3  4  1  0  0  0  0
  4 11  1  0  0  0  0
  4  5  1  0  0  0  0
  5 14  1  0  0  0  0
  5 13  1  0  0  0  0
  6 15  1  0  0  0  0
  6  5  1  0  0  0  0
  6 16  1  0  0  0  0
  8  2  1  0  0  0  0
  9  2  1  0  0  0  0
 12  4  1  0  0  0  0
 17 24  1  0  0  0  0
 17  3  1  0  0  0  0
 18 17  1  0  0  0  0
 19 21  1  0  0  0  0
 19 18  2  0  0  0  0
 20 19  1  0  0  0  0
 21 23  1  0  0  0  0
 22 21  2  0  0  0  0
 23 26  1  0  0  0  0
 23 24  1  0  0  0  0
 24 25  2  0  0  0  0
 27  1  1  0  0  0  0
 27 32  1  0  0  0  0
 28 27  2  0  0  0  0
 29 28  1  0  0  0  0
 29 30  2  0  0  0  0
 30 31  1  0  0  0  0
 31 32  2  0  0  0  0
 31 35  1  0  0  0  0
 33 28  1  0  0  0  0
 34 29  1  0  0  0  0
M  END
>  <minimizedAffinity>
-4.93203688

$$$$

 OpenBabel03262523373D

 35 37  0  0  1  0  0  0  0  0999 V2000
   38.8420   22.7480   34.1640 C   0  0  2  0  0  0  0  0  0  0  0  0
   38.7780   24.1300   33.5560 C   0  0  0  0  0  0  0  0  0  0  0  0
   37.4100   24.4600   33.0370 C   0  0  2  0  0  0  0  0  0  0  0  0
   36.9490   23.4390   32.0250 C   0  0  0  0  0  0  0  0  0  0  0  0
   37.0610   22.0480   32.5380 C   0  0  0  0  0  0  0  0  0  0  0  0
   37.6250   21.9290   33.9290 C   0  0  0  0  0  0  0  0  0  0  0  0
   39.7410   22.2370   33.7780 H   0  0  0  0  0  0  0  0  0  0  0  0
   39.0010   24.8890   34.3500 H   0  0  0  0  0  0  0  0  0  0  0  0
   39.5840   24.2610   32.8000 H   0  0  0  0  0  0  0  0  0  0  0  0
   36.7180   24.3510   33.9110 H   0  0  0  0  0  0  0  0  0  0  0  0
   35.9740   23.7200   31.6130 H   0  0  0  0  0  0  0  0  0  0  0  0
   37.6660   23.5170   31.1610 H   0  0  0  0  0  0  0  0  0  0  0  0
   36.0030   21.6600   32.6280 H   0  0  0  0  0  0  0  0  0  0  0  0
   37.5390   21.3310   31.8360 H   0  0  0  0  0  0  0  0  0  0  0  0
   37.9140   20.8550   34.0690 H   0  0  0  0  0  0  0  0  0  0  0  0
   36.8510   22.1710   34.6820 H   0  0  0  0  0  0  0  0  0  0  0  0
   37.3260   25.7910   32.5600 N   0  0  0  0  0  0  0  0  0  0  0  0
   37.5230   26.1050   31.2470 C   0  0  0  0  0  3  0  0  0  0  0  0
   37.4530   27.3840   30.7250 C   0  0  0  0  0  0  0  0  0  0  0  0
   37.6180   27.5620   29.6790 H   0  0  0  0  0  0  0  0  0  0  0  0
   37.1620   28.4100   31.6050 C   0  0  0  0  0  0  0  0  0  0  0  0
   37.1010   29.5550   31.1270 O   0  0  0  0  0  0  0  0  0  0  0  0
   36.9610   28.1330   32.9150 N   0  0  0  0  0  0  0  0  0  0  0  0
   37.0500   26.8490   33.3350 C   0  0  0  0  0  0  0  0  0  0  0  0
   36.8480   26.6910   34.5640 O   0  0  0  0  0  0  0  0  0  0  0  0
   36.7440   28.9170   33.5620 H   0  0  0  0  0  0  0  0  0  0  0  0
   39.0370   22.8600   35.6390 C   0  0  0  0  0  0  0  0  0  0  0  0
   37.9880   23.4600   36.3620 C   0  0  0  0  0  0  0  0  0  0  0  0
   38.1730   23.5750   37.7500 C   0  0  0  0  0  0  0  0  0  0  0  0
   39.3410   23.1080   38.3170 N   0  0  0  0  0  0  0  0  0  0  0  0
   40.3200   22.5380   37.5760 C   0  0  0  0  0  0  0  0  0  0  0  0
   40.1580   22.4220   36.2570 N   0  0  0  0  0  0  0  0  0  0  0  0
   37.0700   23.8360   35.9650 H   0  0  0  0  0  0  0  0  0  0  0  0
   37.3960   24.0280   38.3470 H   0  0  0  0  0  0  0  0  0  0  0  0
   41.1860   22.2100   38.1170 H   0  0  0  0  0  0  0  0  0  0  0  0
  1  7  1  6  0  0  0
  1 27  1  0  0  0  0
  2  1  1  0  0  0  0
  2  8  1  0  0  0  0
  3  2  1  0  0  0  0
  3 10  1  1  0  0  0
  4  5  1  0  0  0  0
  4  3  1  0  0  0  0
  5 13  1  0  0  0  0
  5  6  1  0  0  0  0
  6 15  1  0  0  0  0
  6  1  1  0  0  0  0
  6 16  1  0  0  0  0
  9  2  1  0  0  0  0
 11  4  1  0  0  0  0
 12  4  1  0  0  0  0
 14  5  1  0  0  0  0
 17  3  1  0  0  0  0
 17 24  1  0  0  0  0
 18 17  1  0  0  0  0
 19 18  2  0  0  0  0
 19 21  1  0  0  0  0
 20 19  1  0  0  0  0
 21 23  1  0  0  0  0
 22 21  2  0  0  0  0
 23 24  1  0  0  0  0
 23 26  1  0  0  0  0
 24 25  2  0  0  0  0
 27 32  2  0  0  0  0
 27 28  1  0  0  0  0
 28 29  2  0  0  0  0
 29 30  1  0  0  0  0
 29 34  1  0  0  0  0
 31 35  1  0  0  0  0
 31 30  2  0  0  0  0
 32 31  1  0  0  0  0
 33 28  1  0  0  0  0
M  END
>  <minimizedAffinity>
-4.81693459

$$$$

 OpenBabel03262523373D

 35 37  0  0  1  0  0  0  0  0999 V2000
   36.3010   28.3300   31.6210 C   0  0  2  0  0  0  0  0  0  0  0  0
   35.2670   28.9440   32.5350 C   0  0  0  0  0  0  0  0  0  0  0  0
   35.8180   29.2430   33.8980 C   0  0  2  0  0  0  0  0  0  0  0  0
   36.3900   28.0020   34.5400 C   0  0  0  0  0  0  0  0  0  0  0  0
   37.3620   27.3060   33.6550 C   0  0  0  0  0  0  0  0  0  0  0  0
   37.5630   27.9480   32.3070 C   0  0  0  0  0  0  0  0  0  0  0  0
   35.8490   27.4590   31.1150 H   0  0  0  0  0  0  0  0  0  0  0  0
   34.9410   29.9280   32.1100 H   0  0  0  0  0  0  0  0  0  0  0  0
   34.3450   28.3210   32.5550 H   0  0  0  0  0  0  0  0  0  0  0  0
   36.6920   29.9240   33.7310 H   0  0  0  0  0  0  0  0  0  0  0  0
   36.7400   28.2200   35.5550 H   0  0  0  0  0  0  0  0  0  0  0  0
   35.5230   27.2970   34.6730 H   0  0  0  0  0  0  0  0  0  0  0  0
   38.3680   27.3940   34.1620 H   0  0  0  0  0  0  0  0  0  0  0  0
   37.2100   26.2080   33.5700 H   0  0  0  0  0  0  0  0  0  0  0  0
   38.0760   27.1890   31.6610 H   0  0  0  0  0  0  0  0  0  0  0  0
   38.2310   28.8260   32.3930 H   0  0  0  0  0  0  0  0  0  0  0  0
   34.8790   29.9100   34.7200 N   0  0  0  0  0  0  0  0  0  0  0  0
   33.5550   29.5790   34.7260 C   0  0  0  0  0  3  0  0  0  0  0  0
   32.5930   30.1940   35.5080 C   0  0  0  0  0  0  0  0  0  0  0  0
   31.5670   29.8840   35.4640 H   0  0  0  0  0  0  0  0  0  0  0  0
   33.0140   31.2160   36.3380 C   0  0  0  0  0  0  0  0  0  0  0  0
   32.1440   31.7630   37.0370 O   0  0  0  0  0  0  0  0  0  0  0  0
   34.3210   31.5700   36.3570 N   0  0  0  0  0  0  0  0  0  0  0  0
   35.1900   30.9100   35.5560 C   0  0  0  0  0  0  0  0  0  0  0  0
   36.3780   31.3070   35.6430 O   0  0  0  0  0  0  0  0  0  0  0  0
   34.6190   32.3400   36.9880 H   0  0  0  0  0  0  0  0  0  0  0  0
   36.6480   29.2970   30.5380 C   0  0  0  0  0  0  0  0  0  0  0  0
   37.3730   28.7770   29.4490 C   0  0  0  0  0  0  0  0  0  0  0  0
   37.7090   29.6870   28.4330 C   0  0  0  0  0  0  0  0  0  0  0  0
   37.3240   31.0070   28.5530 N   0  0  0  0  0  0  0  0  0  0  0  0
   36.6270   31.4560   29.6230 C   0  0  0  0  0  0  0  0  0  0  0  0
   36.3010   30.6030   30.5950 N   0  0  0  0  0  0  0  0  0  0  0  0
   37.6930   27.7660   29.3160 H   0  0  0  0  0  0  0  0  0  0  0  0
   38.2650   29.3360   27.5760 H   0  0  0  0  0  0  0  0  0  0  0  0
   36.3790   32.5000   29.6150 H   0  0  0  0  0  0  0  0  0  0  0  0
  1  7  1  6  0  0  0
  1  6  1  0  0  0  0
  1  2  1  0  0  0  0
  2  9  1  0  0  0  0
  2  3  1  0  0  0  0
  3 10  1  6  0  0  0
  3  4  1  0  0  0  0
  3 17  1  0  0  0  0
  4 12  1  0  0  0  0
  4 11  1  0  0  0  0
  5 13  1  0  0  0  0
  5  4  1  0  0  0  0
  6 16  1  0  0  0  0
  6  5  1  0  0  0  0
  8  2  1  0  0  0  0
 14  5  1  0  0  0  0
 15  6  1  0  0  0  0
 17 18  1  0  0  0  0
 17 24  1  0  0  0  0
 18 19  2  0  0  0  0
 19 21  1  0  0  0  0
 20 19  1  0  0  0  0
 21 23  1  0  0  0  0
 21 22  2  0  0  0  0
 23 26  1  0  0  0  0
 24 25  2  0  0  0  0
 24 23  1  0  0  0  0
 27 32  1  0  0  0  0
 27  1  1  0  0  0  0
 28 27  2  0  0  0  0
 29 30  2  0  0  0  0
 29 28  1  0  0  0  0
 30 31  1  0  0  0  0
 31 32  2  0  0  0  0
 33 28  1  0  0  0  0
 34 29  1  0  0  0  0
 35 31  1  0  0  0  0
M  END
>  <minimizedAffinity>
-4.81109095

$$$$

 OpenBabel03262523373D

 35 37  0  0  1  0  0  0  0  0999 V2000
   38.6420   22.3950   34.2600 C   0  0  2  0  0  0  0  0  0  0  0  0
   38.8470   23.6710   33.4780 C   0  0  0  0  0  0  0  0  0  0  0  0
   37.5750   24.1700   32.8600 C   0  0  2  0  0  0  0  0  0  0  0  0
   36.9540   23.1230   31.9670 C   0  0  0  0  0  0  0  0  0  0  0  0
   36.7970   21.8150   32.6580 C   0  0  0  0  0  0  0  0  0  0  0  0
   37.3000   21.7840   34.0780 C   0  0  0  0  0  0  0  0  0  0  0  0
   39.4390   21.6830   33.9840 H   0  0  0  0  0  0  0  0  0  0  0  0
   39.1890   24.4770   34.1780 H   0  0  0  0  0  0  0  0  0  0  0  0
   39.6790   23.5530   32.7490 H   0  0  0  0  0  0  0  0  0  0  0  0
   36.8560   24.3050   33.7090 H   0  0  0  0  0  0  0  0  0  0  0  0
   36.0560   23.5160   31.4790 H   0  0  0  0  0  0  0  0  0  0  0  0
   37.6910   22.9530   31.1340 H   0  0  0  0  0  0  0  0  0  0  0  0
   35.6840   21.6400   32.7490 H   0  0  0  0  0  0  0  0  0  0  0  0
   37.1490   20.9360   32.0760 H   0  0  0  0  0  0  0  0  0  0  0  0
   37.3830   20.7040   34.3660 H   0  0  0  0  0  0  0  0  0  0  0  0
   36.5690   22.2600   34.7580 H   0  0  0  0  0  0  0  0  0  0  0  0
   37.7480   25.4180   32.2140 N   0  0  0  0  0  0  0  0  0  0  0  0
   38.2800   25.5190   30.9610 C   0  0  0  0  0  3  0  0  0  0  0  0
   38.4720   26.7090   30.2820 C   0  0  0  0  0  0  0  0  0  0  0  0
   38.8960   26.7170   29.2960 H   0  0  0  0  0  0  0  0  0  0  0  0
   38.0930   27.8720   30.9260 C   0  0  0  0  0  0  0  0  0  0  0  0
   38.2690   28.9350   30.3080 O   0  0  0  0  0  0  0  0  0  0  0  0
   37.5610   27.8070   32.1700 N   0  0  0  0  0  0  0  0  0  0  0  0
   37.4120   26.5960   32.7560 C   0  0  0  0  0  0  0  0  0  0  0  0
   36.9110   26.6370   33.9070 O   0  0  0  0  0  0  0  0  0  0  0  0
   37.2830   28.6910   32.6390 H   0  0  0  0  0  0  0  0  0  0  0  0
   38.8230   22.6660   35.7170 C   0  0  0  0  0  0  0  0  0  0  0  0
   40.0670   22.3030   36.2670 C   0  0  0  0  0  0  0  0  0  0  0  0
   40.2360   22.5480   37.6400 C   0  0  0  0  0  0  0  0  0  0  0  0
   39.2030   23.1150   38.3580 N   0  0  0  0  0  0  0  0  0  0  0  0
   38.0240   23.4450   37.7790 C   0  0  0  0  0  0  0  0  0  0  0  0
   37.8500   23.2180   36.4760 N   0  0  0  0  0  0  0  0  0  0  0  0
   40.8920   21.8610   35.7510 H   0  0  0  0  0  0  0  0  0  0  0  0
   41.1730   22.2870   38.1090 H   0  0  0  0  0  0  0  0  0  0  0  0
   37.2890   23.8790   38.4290 H   0  0  0  0  0  0  0  0  0  0  0  0
  1  7  1  6  0  0  0
  1 27  1  0  0  0  0
  2  8  1  0  0  0  0
  2  1  1  0  0  0  0
  3  2  1  0  0  0  0
  3 10  1  1  0  0  0
  4  5  1  0  0  0  0
  4  3  1  0  0  0  0
  5 13  1  0  0  0  0
  5  6  1  0  0  0  0
  6  1  1  0  0  0  0
  6 15  1  0  0  0  0
  6 16  1  0  0  0  0
  9  2  1  0  0  0  0
 11  4  1  0  0  0  0
 12  4  1  0  0  0  0
 14  5  1  0  0  0  0
 17 24  1  0  0  0  0
 17  3  1  0  0  0  0
 18 17  1  0  0  0  0
 19 21  1  0  0  0  0
 19 18  2  0  0  0  0
 20 19  1  0  0  0  0
 21 23  1  0  0  0  0
 22 21  2  0  0  0  0
 23 26  1  0  0  0  0
 23 24  1  0  0  0  0
 24 25  2  0  0  0  0
 27 28  2  0  0  0  0
 27 32  1  0  0  0  0
 28 29  1  0  0  0  0
 29 34  1  0  0  0  0
 29 30  2  0  0  0  0
 31 30  1  0  0  0  0
 31 35  1  0  0  0  0
 32 31  2  0  0  0  0
 33 28  1  0  0  0  0
M  END
>  <minimizedAffinity>
-4.78739119

$$$$

 OpenBabel03262523373D

 35 37  0  0  1  0  0  0  0  0999 V2000
   38.5430   23.3310   33.4140 C   0  0  2  0  0  0  0  0  0  0  0  0
   38.5970   24.6060   32.6040 C   0  0  0  0  0  0  0  0  0  0  0  0
   37.4490   24.7210   31.6460 C   0  0  2  0  0  0  0  0  0  0  0  0
   37.3910   23.5320   30.7170 C   0  0  0  0  0  0  0  0  0  0  0  0
   37.4130   22.2400   31.4540 C   0  0  0  0  0  0  0  0  0  0  0  0
   37.5110   22.3670   32.9520 C   0  0  0  0  0  0  0  0  0  0  0  0
   39.5450   22.8690   33.4080 H   0  0  0  0  0  0  0  0  0  0  0  0
   38.5130   25.4820   33.2960 H   0  0  0  0  0  0  0  0  0  0  0  0
   39.5930   24.7180   32.1200 H   0  0  0  0  0  0  0  0  0  0  0  0
   36.5220   24.6570   32.2730 H   0  0  0  0  0  0  0  0  0  0  0  0
   36.5830   23.6520   29.9880 H   0  0  0  0  0  0  0  0  0  0  0  0
   38.3400   23.5670   30.1130 H   0  0  0  0  0  0  0  0  0  0  0  0
   36.4050   21.7610   31.2770 H   0  0  0  0  0  0  0  0  0  0  0  0
   38.1290   21.4890   31.0550 H   0  0  0  0  0  0  0  0  0  0  0  0
   37.8010   21.3560   33.3420 H   0  0  0  0  0  0  0  0  0  0  0  0
   36.5260   22.6260   33.3840 H   0  0  0  0  0  0  0  0  0  0  0  0
   37.4460   25.9600   30.9610 N   0  0  0  0  0  0  0  0  0  0  0  0
   38.5810   26.4980   30.4280 C   0  0  0  0  0  3  0  0  0  0  0  0
   38.6380   27.7020   29.7500 C   0  0  0  0  0  0  0  0  0  0  0  0
   39.5660   28.0680   29.3540 H   0  0  0  0  0  0  0  0  0  0  0  0
   37.4550   28.4020   29.6070 C   0  0  0  0  0  0  0  0  0  0  0  0
   37.5150   29.4830   28.9960 O   0  0  0  0  0  0  0  0  0  0  0  0
   36.3100   27.8970   30.1240 N   0  0  0  0  0  0  0  0  0  0  0  0
   36.3520   26.7100   30.7730 C   0  0  0  0  0  0  0  0  0  0  0  0
   35.2420   26.3230   31.2160 O   0  0  0  0  0  0  0  0  0  0  0  0
   35.4300   28.4380   30.0070 H   0  0  0  0  0  0  0  0  0  0  0  0
   38.2520   23.6580   34.8410 C   0  0  0  0  0  0  0  0  0  0  0  0
   37.8430   22.5840   35.6540 C   0  0  0  0  0  0  0  0  0  0  0  0
   37.5590   22.8900   36.9960 C   0  0  0  0  0  0  0  0  0  0  0  0
   37.6900   24.1920   37.4330 N   0  0  0  0  0  0  0  0  0  0  0  0
   38.0870   25.1900   36.6090 C   0  0  0  0  0  0  0  0  0  0  0  0
   38.3600   24.9130   35.3330 N   0  0  0  0  0  0  0  0  0  0  0  0
   37.7270   21.5640   35.3570 H   0  0  0  0  0  0  0  0  0  0  0  0
   37.2430   22.1000   37.6590 H   0  0  0  0  0  0  0  0  0  0  0  0
   38.1550   26.1650   37.0520 H   0  0  0  0  0  0  0  0  0  0  0  0
  1  7  1  6  0  0  0
  1 27  1  0  0  0  0
  2  8  1  0  0  0  0
  2  1  1  0  0  0  0
  3 10  1  1  0  0  0
  3  2  1  0  0  0  0
  4  5  1  0  0  0  0
  4  3  1  0  0  0  0
  5  6  1  0  0  0  0
  6 15  1  0  0  0  0
  6 16  1  0  0  0  0
  6  1  1  0  0  0  0
  9  2  1  0  0  0  0
 11  4  1  0  0  0  0
 12  4  1  0  0  0  0
 13  5  1  0  0  0  0
 14  5  1  0  0  0  0
 17  3  1  0  0  0  0
 18 17  1  0  0  0  0
 19 18  2  0  0  0  0
 20 19  1  0  0  0  0
 21 19  1  0  0  0  0
 21 23  1  0  0  0  0
 22 21  2  0  0  0  0
 23 24  1  0  0  0  0
 24 17  1  0  0  0  0
 24 25  2  0  0  0  0
 26 23  1  0  0  0  0
 27 32  2  0  0  0  0
 27 28  1  0  0  0  0
 28 29  2  0  0  0  0
 29 30  1  0  0  0  0
 29 34  1  0  0  0  0
 31 35  1  0  0  0  0
 31 30  2  0  0  0  0
 32 31  1  0  0  0  0
 33 28  1  0  0  0  0
M  END
>  <minimizedAffinity>
-4.76200342

$$$$
