
 OpenBabel03272507503D

 29 31  0  0  0  0  0  0  0  0999 V2000
   35.5980   30.4050   46.9500 C   0  0  0  0  0  0  0  0  0  0  0  0
   36.2630   30.6380   45.7340 C   0  0  0  0  0  0  0  0  0  0  0  0
   35.4960   30.5460   44.5780 C   0  0  0  0  0  0  0  0  0  0  0  0
   34.1850   30.2450   44.6740 N   0  0  0  0  0  0  0  0  0  0  0  0
   33.5730   30.0270   45.8500 C   0  0  0  0  0  0  0  0  0  0  0  0
   34.2870   30.1070   47.0100 N   0  0  0  0  0  0  0  0  0  0  0  0
   36.0060   30.7260   43.6240 H   0  0  0  0  0  0  0  0  0  0  0  0
   32.5180   29.7860   45.9250 H   0  0  0  0  0  0  0  0  0  0  0  0
   37.6450   30.9460   45.7690 N   0  0  0  0  0  0  0  0  0  0  0  0
   38.0980   32.0890   46.3360 C   0  0  0  0  0  0  0  0  0  0  0  0
   39.4760   32.3420   46.3440 C   0  0  0  0  0  0  0  0  0  0  0  0
   40.2450   31.3740   45.7550 C   0  0  0  0  0  0  0  0  0  0  0  0
   41.4980   31.5990   45.7590 O   0  0  0  0  0  0  0  0  0  0  0  0
   39.8170   30.2420   45.1910 N   0  0  0  0  0  0  0  0  0  0  0  0
   38.4800   30.0350   45.2050 C   0  0  0  0  0  0  0  0  0  0  0  0
   38.0580   28.9740   44.6770 O   0  0  0  0  0  0  0  0  0  0  0  0
   37.4310   32.8030   46.7810 H   0  0  0  0  0  0  0  0  0  0  0  0
   39.8990   33.2290   46.7780 H   0  0  0  0  0  0  0  0  0  0  0  0
   40.4600   29.5460   44.7580 H   0  0  0  0  0  0  0  0  0  0  0  0
   36.2440   30.4630   48.2160 N   0  0  0  0  0  0  0  0  0  0  0  0
   36.9680   31.4880   48.7080 C   0  0  0  0  0  0  0  0  0  0  0  0
   37.5410   31.4050   49.9600 C   0  0  0  0  0  0  0  0  0  0  0  0
   38.1100   32.2580   50.2970 H   0  0  0  0  0  0  0  0  0  0  0  0
   37.3330   30.2370   50.6650 C   0  0  0  0  0  0  0  0  0  0  0  0
   37.8370   30.1330   51.7950 O   0  0  0  0  0  0  0  0  0  0  0  0
   36.6060   29.2150   50.1670 N   0  0  0  0  0  0  0  0  0  0  0  0
   36.0610   29.3390   48.9330 C   0  0  0  0  0  0  0  0  0  0  0  0
   35.4030   28.3230   48.5690 O   0  0  0  0  0  0  0  0  0  0  0  0
   36.4960   28.3670   50.7620 H   0  0  0  0  0  0  0  0  0  0  0  0
  1  6  1  0  0  0  0
  1 20  1  0  0  0  0
  2  9  1  0  0  0  0
  2  1  2  0  0  0  0
  3  4  2  0  0  0  0
  3  2  1  0  0  0  0
  4  5  1  0  0  0  0
  5  8  1  0  0  0  0
  5  6  2  0  0  0  0
  7  3  1  0  0  0  0
  9 10  1  0  0  0  0
 10 11  2  0  0  0  0
 10 17  1  0  0  0  0
 11 18  1  0  0  0  0
 12 13  2  0  0  0  0
 12 11  1  0  0  0  0
 14 15  1  0  0  0  0
 14 12  1  0  0  0  0
 15  9  1  0  0  0  0
 16 15  2  0  0  0  0
 19 14  1  0  0  0  0
 20 21  1  0  0  0  0
 20 27  1  0  0  0  0
 21 22  2  0  0  0  0
 22 23  1  0  0  0  0
 22 24  1  0  0  0  0
 24 25  2  0  0  0  0
 26 24  1  0  0  0  0
 26 29  1  0  0  0  0
 27 26  1  0  0  0  0
 28 27  2  0  0  0  0
M  END
>  <minimizedAffinity>
-5.13750696

>  <minimizedRMSD>
3.08448195

$$$$
