
 OpenBabel03272507323D

 37 40  0  0  1  0  0  0  0  0999 V2000
   33.0640   27.6700   48.3110 C   0  0  0  0  0  0  0  0  0  0  0  0
   31.8460   27.6210   48.6870 O   0  0  0  0  0  0  0  0  0  0  0  0
   35.9100   29.2020   49.8380 C   0  0  0  0  0  0  0  0  0  0  0  0
   34.9330   29.6750   50.6900 C   0  0  0  0  0  0  0  0  0  0  0  0
   33.7050   29.1700   50.2410 C   0  0  0  0  0  0  0  0  0  0  0  0
   34.0180   28.4140   49.1330 C   0  0  0  0  0  0  0  0  0  0  0  0
   35.3180   28.4610   48.9350 O   0  0  0  0  0  0  0  0  0  0  0  0
   35.0370   30.3240   51.5670 H   0  0  0  0  0  0  0  0  0  0  0  0
   32.7470   29.3650   50.7050 H   0  0  0  0  0  0  0  0  0  0  0  0
   37.3140   29.5320   50.0110 C   0  0  0  0  0  0  0  0  0  0  0  0
   37.9850   28.9070   50.8450 O   0  0  0  0  0  0  0  0  0  0  0  0
   37.8440   30.5860   49.1850 C   0  0  0  0  0  0  0  0  0  0  0  0
   38.1840   31.7750   49.8150 C   0  0  0  0  0  0  0  0  0  0  0  0
   38.6980   32.8160   49.0390 C   0  0  0  0  0  0  0  0  0  0  0  0
   38.8370   32.6000   47.6840 N   0  0  0  0  0  0  0  0  0  0  0  0
   38.5010   31.4450   47.1140 C   0  0  0  0  0  0  0  0  0  0  0  0
   38.0060   30.4360   47.8500 N   0  0  0  0  0  0  0  0  0  0  0  0
   38.0630   31.9110   50.8750 H   0  0  0  0  0  0  0  0  0  0  0  0
   38.9630   33.7410   49.5280 H   0  0  0  0  0  0  0  0  0  0  0  0
   38.6410   31.3580   46.0480 H   0  0  0  0  0  0  0  0  0  0  0  0
   33.5110   26.9780   47.0570 C   0  0  1  0  0  0  0  0  0  0  0  0
   33.7470   25.4430   47.3510 C   0  0  0  0  0  0  0  0  0  0  0  0
   32.6890   25.9380   46.4420 C   0  0  2  0  0  0  0  0  0  0  0  0
   34.4370   27.3940   46.6110 H   0  0  0  0  0  0  0  0  0  0  0  0
   33.5090   25.0840   48.3490 H   0  0  0  0  0  0  0  0  0  0  0  0
   34.6390   24.9970   46.8870 H   0  0  0  0  0  0  0  0  0  0  0  0
   31.6560   25.8480   46.8950 H   0  0  0  0  0  0  0  0  0  0  0  0
   32.7230   25.8030   45.0220 N   0  0  0  0  0  0  0  0  0  0  0  0
   33.6990   25.0730   44.4030 C   0  0  0  0  0  3  0  0  0  0  0  0
   33.7420   24.9380   43.0310 C   0  0  0  0  0  0  0  0  0  0  0  0
   34.5700   24.3310   42.6700 H   0  0  0  0  0  0  0  0  0  0  0  0
   32.8000   25.5330   42.2170 C   0  0  0  0  0  0  0  0  0  0  0  0
   32.9660   25.3220   40.9890 O   0  0  0  0  0  0  0  0  0  0  0  0
   31.8420   26.2490   42.8350 N   0  0  0  0  0  0  0  0  0  0  0  0
   31.8390   26.3540   44.1750 C   0  0  0  0  0  0  0  0  0  0  0  0
   30.9010   27.0440   44.6220 O   0  0  0  0  0  0  0  0  0  0  0  0
   31.1470   26.6850   42.2000 H   0  0  0  0  0  0  0  0  0  0  0  0
  1  2  2  0  0  0  0
  1  6  1  0  0  0  0
  3 10  1  0  0  0  0
  3  4  2  0  0  0  0
  4  8  1  0  0  0  0
  5  4  1  0  0  0  0
  5  9  1  0  0  0  0
  6  5  2  0  0  0  0
  7  6  1  0  0  0  0
  7  3  1  0  0  0  0
 10 11  2  0  0  0  0
 12 13  1  0  0  0  0
 12 10  1  0  0  0  0
 13 18  1  0  0  0  0
 14 19  1  0  0  0  0
 14 13  2  0  0  0  0
 15 14  1  0  0  0  0
 16 15  2  0  0  0  0
 16 17  1  0  0  0  0
 17 12  2  0  0  0  0
 20 16  1  0  0  0  0
 21 24  1  6  0  0  0
 21 22  1  0  0  0  0
 21  1  1  0  0  0  0
 22 25  1  0  0  0  0
 23 27  1  1  0  0  0
 23 21  1  0  0  0  0
 23 22  1  0  0  0  0
 26 22  1  0  0  0  0
 28 23  1  0  0  0  0
 29 28  1  0  0  0  0
 30 29  2  0  0  0  0
 31 30  1  0  0  0  0
 32 34  1  0  0  0  0
 32 30  1  0  0  0  0
 33 32  2  0  0  0  0
 34 35  1  0  0  0  0
 35 36  2  0  0  0  0
 35 28  1  0  0  0  0
 37 34  1  0  0  0  0
M  END
>  <minimizedAffinity>
-4.87732744

>  <minimizedRMSD>
0.284110874

$$$$
