
 OpenBabel03262520083D

 19 20  0  0  0  0  0  0  0  0999 V2000
   37.5480   25.9870   35.6650 C   0  0  0  0  0  0  0  0  0  0  0  0
   37.4690   26.2060   34.2740 C   0  0  0  0  0  0  0  0  0  0  0  0
   38.2800   25.4140   33.4350 C   0  0  0  0  0  0  0  0  0  0  0  0
   39.0850   24.4920   34.0200 N   0  0  0  0  0  0  0  0  0  0  0  0
   39.1320   24.3140   35.3540 C   0  0  0  0  0  0  0  0  0  0  0  0
   38.3690   25.0550   36.1790 N   0  0  0  0  0  0  0  0  0  0  0  0
   36.9210   26.6010   36.3190 H   0  0  0  0  0  0  0  0  0  0  0  0
   36.8050   26.9590   33.8690 H   0  0  0  0  0  0  0  0  0  0  0  0
   38.2480   25.5500   32.3630 H   0  0  0  0  0  0  0  0  0  0  0  0
   39.9710   23.3500   35.9850 N   0  0  0  0  0  0  0  0  0  0  0  0
   41.0720   22.9390   35.3300 C   0  0  0  0  0  3  0  0  0  0  0  0
   41.8350   22.0070   36.0020 C   0  0  0  0  0  0  0  0  0  0  0  0
   42.7380   21.6320   35.5300 H   0  0  0  0  0  0  0  0  0  0  0  0
   41.5310   21.5070   37.2520 C   0  0  0  0  0  0  0  0  0  0  0  0
   42.2400   20.6550   37.8490 O   0  0  0  0  0  0  0  0  0  0  0  0
   40.4010   21.9600   37.8700 N   0  0  0  0  0  0  0  0  0  0  0  0
   39.6580   22.8740   37.2050 C   0  0  0  0  0  0  0  0  0  0  0  0
   38.5980   23.3230   37.7430 O   0  0  0  0  0  0  0  0  0  0  0  0
   40.1430   21.6030   38.8130 H   0  0  0  0  0  0  0  0  0  0  0  0
  1  6  1  0  0  0  0
  1  7  1  0  0  0  0
  2  1  2  0  0  0  0
  3  4  2  0  0  0  0
  3  2  1  0  0  0  0
  4  5  1  0  0  0  0
  5 10  1  0  0  0  0
  5  6  2  0  0  0  0
  8  2  1  0  0  0  0
  9  3  1  0  0  0  0
 10 17  1  0  0  0  0
 11 10  1  0  0  0  0
 11 12  2  0  0  0  0
 12 14  1  0  0  0  0
 13 12  1  0  0  0  0
 14 15  2  0  0  0  0
 14 16  1  0  0  0  0
 16 19  1  0  0  0  0
 17 18  2  0  0  0  0
 17 16  1  0  0  0  0
M  END
>  <minimizedAffinity>
-4.46771431

$$$$

 OpenBabel03262520083D

 19 20  0  0  0  0  0  0  0  0999 V2000
   35.1370   20.2530   32.4470 C   0  0  0  0  0  0  0  0  0  0  0  0
   35.9200   20.0810   31.2870 C   0  0  0  0  0  0  0  0  0  0  0  0
   37.2400   20.5760   31.3030 C   0  0  0  0  0  0  0  0  0  0  0  0
   37.6720   21.1880   32.4340 N   0  0  0  0  0  0  0  0  0  0  0  0
   36.8930   21.3330   33.5220 C   0  0  0  0  0  0  0  0  0  0  0  0
   35.6290   20.8700   33.5350 N   0  0  0  0  0  0  0  0  0  0  0  0
   34.1110   19.8700   32.4380 H   0  0  0  0  0  0  0  0  0  0  0  0
   35.5150   19.5830   30.4140 H   0  0  0  0  0  0  0  0  0  0  0  0
   37.8730   20.4640   30.4330 H   0  0  0  0  0  0  0  0  0  0  0  0
   37.3300   21.9720   34.7190 N   0  0  0  0  0  0  0  0  0  0  0  0
   38.3380   22.8600   34.6330 C   0  0  0  0  0  3  0  0  0  0  0  0
   38.7060   23.4380   35.8300 C   0  0  0  0  0  0  0  0  0  0  0  0
   39.5130   24.1640   35.8330 H   0  0  0  0  0  0  0  0  0  0  0  0
   38.1160   23.1570   37.0460 C   0  0  0  0  0  0  0  0  0  0  0  0
   38.4680   23.6950   38.1280 O   0  0  0  0  0  0  0  0  0  0  0  0
   37.0990   22.2470   37.0730 N   0  0  0  0  0  0  0  0  0  0  0  0
   36.7420   21.6850   35.8950 C   0  0  0  0  0  0  0  0  0  0  0  0
   35.8000   20.8320   35.8740 O   0  0  0  0  0  0  0  0  0  0  0  0
   36.6320   22.0120   37.9720 H   0  0  0  0  0  0  0  0  0  0  0  0
  1  6  1  0  0  0  0
  2  3  1  0  0  0  0
  2  1  2  0  0  0  0
  3  4  2  0  0  0  0
  4  5  1  0  0  0  0
  5  6  2  0  0  0  0
  5 10  1  0  0  0  0
  7  1  1  0  0  0  0
  8  2  1  0  0  0  0
  9  3  1  0  0  0  0
 10 17  1  0  0  0  0
 11 10  1  0  0  0  0
 11 12  2  0  0  0  0
 12 13  1  0  0  0  0
 12 14  1  0  0  0  0
 14 16  1  0  0  0  0
 14 15  2  0  0  0  0
 16 19  1  0  0  0  0
 17 16  1  0  0  0  0
 18 17  2  0  0  0  0
M  END
>  <minimizedAffinity>
-4.31083918

$$$$

 OpenBabel03262520083D

 19 20  0  0  0  0  0  0  0  0999 V2000
   39.6950   22.8830   36.8080 C   0  0  0  0  0  0  0  0  0  0  0  0
   39.2390   23.0300   38.1340 C   0  0  0  0  0  0  0  0  0  0  0  0
   38.2710   24.0230   38.3920 C   0  0  0  0  0  0  0  0  0  0  0  0
   37.8420   24.7740   37.3470 N   0  0  0  0  0  0  0  0  0  0  0  0
   38.3030   24.6030   36.0940 C   0  0  0  0  0  0  0  0  0  0  0  0
   39.2270   23.6630   35.8180 N   0  0  0  0  0  0  0  0  0  0  0  0
   40.4470   22.1140   36.6040 H   0  0  0  0  0  0  0  0  0  0  0  0
   39.6230   22.3980   38.9250 H   0  0  0  0  0  0  0  0  0  0  0  0
   37.8960   24.1670   39.3950 H   0  0  0  0  0  0  0  0  0  0  0  0
   37.8630   25.3820   34.9850 N   0  0  0  0  0  0  0  0  0  0  0  0
   37.3540   26.6040   35.2280 C   0  0  0  0  0  3  0  0  0  0  0  0
   36.9500   27.3000   34.1080 C   0  0  0  0  0  0  0  0  0  0  0  0
   36.5290   28.2930   34.2330 H   0  0  0  0  0  0  0  0  0  0  0  0
   37.0410   26.8190   32.8170 C   0  0  0  0  0  0  0  0  0  0  0  0
   36.6650   27.4700   31.8080 O   0  0  0  0  0  0  0  0  0  0  0  0
   37.5650   25.5730   32.6300 N   0  0  0  0  0  0  0  0  0  0  0  0
   37.9600   24.8970   33.7330 C   0  0  0  0  0  0  0  0  0  0  0  0
   38.4540   23.7330   33.6050 O   0  0  0  0  0  0  0  0  0  0  0  0
   37.6480   25.1800   31.6700 H   0  0  0  0  0  0  0  0  0  0  0  0
  1  2  1  0  0  0  0
  2  3  2  0  0  0  0
  2  8  1  0  0  0  0
  3  9  1  0  0  0  0
  4  3  1  0  0  0  0
  5  4  2  0  0  0  0
  6  5  1  0  0  0  0
  6  1  2  0  0  0  0
  7  1  1  0  0  0  0
 10 11  1  0  0  0  0
 10  5  1  0  0  0  0
 12 13  1  0  0  0  0
 12 11  2  0  0  0  0
 14 12  1  0  0  0  0
 15 14  2  0  0  0  0
 16 14  1  0  0  0  0
 16 17  1  0  0  0  0
 17 10  1  0  0  0  0
 18 17  2  0  0  0  0
 19 16  1  0  0  0  0
M  END
>  <minimizedAffinity>
-4.23433733

$$$$

 OpenBabel03262520083D

 19 20  0  0  0  0  0  0  0  0999 V2000
   37.9530   24.2250   38.1980 C   0  0  0  0  0  0  0  0  0  0  0  0
   38.9810   23.3430   38.5880 C   0  0  0  0  0  0  0  0  0  0  0  0
   39.8050   22.8030   37.5780 C   0  0  0  0  0  0  0  0  0  0  0  0
   39.5540   23.1680   36.2950 N   0  0  0  0  0  0  0  0  0  0  0  0
   38.5610   24.0140   35.9640 C   0  0  0  0  0  0  0  0  0  0  0  0
   37.7590   24.5440   36.9070 N   0  0  0  0  0  0  0  0  0  0  0  0
   37.3110   24.6450   38.9790 H   0  0  0  0  0  0  0  0  0  0  0  0
   39.1300   23.0910   39.6300 H   0  0  0  0  0  0  0  0  0  0  0  0
   40.6050   22.1230   37.8350 H   0  0  0  0  0  0  0  0  0  0  0  0
   38.2830   24.4070   34.6230 N   0  0  0  0  0  0  0  0  0  0  0  0
   38.6750   23.5920   33.6260 C   0  0  0  0  0  3  0  0  0  0  0  0
   38.3720   24.0380   32.3570 C   0  0  0  0  0  0  0  0  0  0  0  0
   38.6600   23.4280   31.5060 H   0  0  0  0  0  0  0  0  0  0  0  0
   37.7190   25.2230   32.0820 C   0  0  0  0  0  0  0  0  0  0  0  0
   37.4530   25.6120   30.9150 O   0  0  0  0  0  0  0  0  0  0  0  0
   37.3450   26.0100   33.1320 N   0  0  0  0  0  0  0  0  0  0  0  0
   37.6450   25.5670   34.3740 C   0  0  0  0  0  0  0  0  0  0  0  0
   37.3160   26.2690   35.3810 O   0  0  0  0  0  0  0  0  0  0  0  0
   36.8510   26.9100   32.9590 H   0  0  0  0  0  0  0  0  0  0  0  0
  1  2  1  0  0  0  0
  1  7  1  0  0  0  0
  2  8  1  0  0  0  0
  3  9  1  0  0  0  0
  3  2  2  0  0  0  0
  4  3  1  0  0  0  0
  5  4  2  0  0  0  0
  5  6  1  0  0  0  0
  6  1  2  0  0  0  0
 10  5  1  0  0  0  0
 11 10  1  0  0  0  0
 12 11  2  0  0  0  0
 13 12  1  0  0  0  0
 14 12  1  0  0  0  0
 14 16  1  0  0  0  0
 15 14  2  0  0  0  0
 16 17  1  0  0  0  0
 17 10  1  0  0  0  0
 17 18  2  0  0  0  0
 19 16  1  0  0  0  0
M  END
>  <minimizedAffinity>
-4.17128658

$$$$

 OpenBabel03262520083D

 19 20  0  0  0  0  0  0  0  0999 V2000
   37.2510   23.1740   31.3670 C   0  0  0  0  0  0  0  0  0  0  0  0
   37.5310   24.3770   30.6880 C   0  0  0  0  0  0  0  0  0  0  0  0
   38.0090   25.4660   31.4470 C   0  0  0  0  0  0  0  0  0  0  0  0
   38.1670   25.2850   32.7830 N   0  0  0  0  0  0  0  0  0  0  0  0
   37.8870   24.1180   33.3940 C   0  0  0  0  0  0  0  0  0  0  0  0
   37.4310   23.0620   32.6940 N   0  0  0  0  0  0  0  0  0  0  0  0
   36.8800   22.3260   30.7810 H   0  0  0  0  0  0  0  0  0  0  0  0
   37.3840   24.4580   29.6190 H   0  0  0  0  0  0  0  0  0  0  0  0
   38.2360   26.4070   30.9650 H   0  0  0  0  0  0  0  0  0  0  0  0
   38.0470   23.9100   34.7940 N   0  0  0  0  0  0  0  0  0  0  0  0
   38.0150   24.9850   35.6040 C   0  0  0  0  0  3  0  0  0  0  0  0
   38.1760   24.7060   36.9460 C   0  0  0  0  0  0  0  0  0  0  0  0
   38.1600   25.5280   37.6550 H   0  0  0  0  0  0  0  0  0  0  0  0
   38.3600   23.4390   37.4620 C   0  0  0  0  0  0  0  0  0  0  0  0
   38.5060   23.2070   38.6910 O   0  0  0  0  0  0  0  0  0  0  0  0
   38.3850   22.3870   36.5940 N   0  0  0  0  0  0  0  0  0  0  0  0
   38.2260   22.6670   35.2800 C   0  0  0  0  0  0  0  0  0  0  0  0
   38.2430   21.7180   34.4350 O   0  0  0  0  0  0  0  0  0  0  0  0
   38.5220   21.4190   36.9500 H   0  0  0  0  0  0  0  0  0  0  0  0
  1  6  1  0  0  0  0
  2  1  2  0  0  0  0
  2  3  1  0  0  0  0
  3  4  2  0  0  0  0
  4  5  1  0  0  0  0
  5 10  1  0  0  0  0
  6  5  2  0  0  0  0
  7  1  1  0  0  0  0
  8  2  1  0  0  0  0
  9  3  1  0  0  0  0
 10 17  1  0  0  0  0
 10 11  1  0  0  0  0
 11 12  2  0  0  0  0
 12 14  1  0  0  0  0
 12 13  1  0  0  0  0
 14 15  2  0  0  0  0
 16 19  1  0  0  0  0
 16 14  1  0  0  0  0
 17 16  1  0  0  0  0
 18 17  2  0  0  0  0
M  END
>  <minimizedAffinity>
-4.17038488

$$$$

 OpenBabel03262520083D

 19 20  0  0  0  0  0  0  0  0999 V2000
   38.1470   26.5740   32.7010 C   0  0  0  0  0  0  0  0  0  0  0  0
   37.1920   27.5090   33.1500 C   0  0  0  0  0  0  0  0  0  0  0  0
   36.8170   27.4680   34.5090 C   0  0  0  0  0  0  0  0  0  0  0  0
   37.3990   26.5290   35.2970 N   0  0  0  0  0  0  0  0  0  0  0  0
   38.3080   25.6530   34.8290 C   0  0  0  0  0  0  0  0  0  0  0  0
   38.6840   25.6700   33.5370 N   0  0  0  0  0  0  0  0  0  0  0  0
   38.4400   26.6030   31.6460 H   0  0  0  0  0  0  0  0  0  0  0  0
   36.7640   28.2340   32.4690 H   0  0  0  0  0  0  0  0  0  0  0  0
   36.0880   28.1680   34.8930 H   0  0  0  0  0  0  0  0  0  0  0  0
   38.9280   24.6610   35.6430 N   0  0  0  0  0  0  0  0  0  0  0  0
   38.2870   24.2570   36.7550 C   0  0  0  0  0  3  0  0  0  0  0  0
   38.9480   23.2960   37.4910 C   0  0  0  0  0  0  0  0  0  0  0  0
   38.4860   22.9250   38.4010 H   0  0  0  0  0  0  0  0  0  0  0  0
   40.1740   22.7610   37.1510 C   0  0  0  0  0  0  0  0  0  0  0  0
   40.7610   21.8840   37.8380 O   0  0  0  0  0  0  0  0  0  0  0  0
   40.7790   23.2080   36.0120 N   0  0  0  0  0  0  0  0  0  0  0  0
   40.1250   24.1500   35.2960 C   0  0  0  0  0  0  0  0  0  0  0  0
   40.6520   24.5960   34.2280 O   0  0  0  0  0  0  0  0  0  0  0  0
   41.7040   22.8260   35.7280 H   0  0  0  0  0  0  0  0  0  0  0  0
  1  2  2  0  0  0  0
  1  6  1  0  0  0  0
  2  3  1  0  0  0  0
  3  9  1  0  0  0  0
  3  4  2  0  0  0  0
  5  4  1  0  0  0  0
  5 10  1  0  0  0  0
  6  5  2  0  0  0  0
  7  1  1  0  0  0  0
  8  2  1  0  0  0  0
 10 11  1  0  0  0  0
 11 12  2  0  0  0  0
 12 13  1  0  0  0  0
 14 12  1  0  0  0  0
 14 15  2  0  0  0  0
 16 14  1  0  0  0  0
 17 10  1  0  0  0  0
 17 16  1  0  0  0  0
 18 17  2  0  0  0  0
 19 16  1  0  0  0  0
M  END
>  <minimizedAffinity>
-4.06619167

$$$$

 OpenBabel03262520083D

 19 20  0  0  0  0  0  0  0  0999 V2000
   35.3830   21.6830   31.8370 C   0  0  0  0  0  0  0  0  0  0  0  0
   36.1330   21.0740   32.8640 C   0  0  0  0  0  0  0  0  0  0  0  0
   37.1710   21.8240   33.4560 C   0  0  0  0  0  0  0  0  0  0  0  0
   37.3810   23.0830   32.9980 N   0  0  0  0  0  0  0  0  0  0  0  0
   36.6420   23.6290   32.0130 C   0  0  0  0  0  0  0  0  0  0  0  0
   35.6450   22.9370   31.4310 N   0  0  0  0  0  0  0  0  0  0  0  0
   34.5760   21.1040   31.3760 H   0  0  0  0  0  0  0  0  0  0  0  0
   35.9140   20.0640   33.1860 H   0  0  0  0  0  0  0  0  0  0  0  0
   37.7690   21.3930   34.2470 H   0  0  0  0  0  0  0  0  0  0  0  0
   36.8500   24.9500   31.5200 N   0  0  0  0  0  0  0  0  0  0  0  0
   38.0680   25.5020   31.6730 C   0  0  0  0  0  3  0  0  0  0  0  0
   38.1930   26.7810   31.1720 C   0  0  0  0  0  0  0  0  0  0  0  0
   39.1500   27.2860   31.2620 H   0  0  0  0  0  0  0  0  0  0  0  0
   37.1760   27.4780   30.5520 C   0  0  0  0  0  0  0  0  0  0  0  0
   37.3120   28.6460   30.1010 O   0  0  0  0  0  0  0  0  0  0  0  0
   35.9620   26.8690   30.4240 N   0  0  0  0  0  0  0  0  0  0  0  0
   35.8460   25.6150   30.9180 C   0  0  0  0  0  0  0  0  0  0  0  0
   34.7330   25.0090   30.8210 O   0  0  0  0  0  0  0  0  0  0  0  0
   35.1740   27.3670   29.9630 H   0  0  0  0  0  0  0  0  0  0  0  0
  1  2  1  0  0  0  0
  2  8  1  0  0  0  0
  2  3  2  0  0  0  0
  3  9  1  0  0  0  0
  4  3  1  0  0  0  0
  5  4  2  0  0  0  0
  6  1  2  0  0  0  0
  6  5  1  0  0  0  0
  7  1  1  0  0  0  0
 10 11  1  0  0  0  0
 10  5  1  0  0  0  0
 12 13  1  0  0  0  0
 12 11  2  0  0  0  0
 14 12  1  0  0  0  0
 15 14  2  0  0  0  0
 16 14  1  0  0  0  0
 16 17  1  0  0  0  0
 17 10  1  0  0  0  0
 18 17  2  0  0  0  0
 19 16  1  0  0  0  0
M  END
>  <minimizedAffinity>
-3.99620628

$$$$

 OpenBabel03262520083D

 19 20  0  0  0  0  0  0  0  0999 V2000
   39.7060   22.9710   37.9060 C   0  0  0  0  0  0  0  0  0  0  0  0
   40.7350   22.0850   37.5270 C   0  0  0  0  0  0  0  0  0  0  0  0
   41.0340   21.9710   36.1530 C   0  0  0  0  0  0  0  0  0  0  0  0
   40.3110   22.7220   35.2840 N   0  0  0  0  0  0  0  0  0  0  0  0
   39.3350   23.5570   35.6870 C   0  0  0  0  0  0  0  0  0  0  0  0
   39.0280   23.6860   36.9920 N   0  0  0  0  0  0  0  0  0  0  0  0
   39.4710   23.0620   38.9720 H   0  0  0  0  0  0  0  0  0  0  0  0
   41.2750   21.5130   38.2700 H   0  0  0  0  0  0  0  0  0  0  0  0
   41.8150   21.3020   35.8210 H   0  0  0  0  0  0  0  0  0  0  0  0
   38.5660   24.3530   34.7890 N   0  0  0  0  0  0  0  0  0  0  0  0
   38.4560   23.9440   33.5110 C   0  0  0  0  0  3  0  0  0  0  0  0
   37.6980   24.7630   32.7020 C   0  0  0  0  0  0  0  0  0  0  0  0
   37.5680   24.4920   31.6580 H   0  0  0  0  0  0  0  0  0  0  0  0
   37.0800   25.9230   33.1260 C   0  0  0  0  0  0  0  0  0  0  0  0
   36.3930   26.6570   32.3700 O   0  0  0  0  0  0  0  0  0  0  0  0
   37.2260   26.2890   34.4320 N   0  0  0  0  0  0  0  0  0  0  0  0
   37.9710   25.4810   35.2210 C   0  0  0  0  0  0  0  0  0  0  0  0
   38.1330   25.7840   36.4440 O   0  0  0  0  0  0  0  0  0  0  0  0
   36.7740   27.1570   34.7840 H   0  0  0  0  0  0  0  0  0  0  0  0
  1  7  1  0  0  0  0
  2  1  1  0  0  0  0
  2  8  1  0  0  0  0
  3  2  2  0  0  0  0
  4  5  2  0  0  0  0
  4  3  1  0  0  0  0
  5  6  1  0  0  0  0
  6  1  2  0  0  0  0
  9  3  1  0  0  0  0
 10 17  1  0  0  0  0
 10  5  1  0  0  0  0
 11 10  1  0  0  0  0
 12 14  1  0  0  0  0
 12 11  2  0  0  0  0
 13 12  1  0  0  0  0
 14 16  1  0  0  0  0
 15 14  2  0  0  0  0
 16 19  1  0  0  0  0
 16 17  1  0  0  0  0
 17 18  2  0  0  0  0
M  END
>  <minimizedAffinity>
-3.95642757

$$$$

 OpenBabel03262520083D

 19 20  0  0  0  0  0  0  0  0999 V2000
   38.9660   23.3660   37.1300 C   0  0  0  0  0  0  0  0  0  0  0  0
   39.5590   22.3100   36.4080 C   0  0  0  0  0  0  0  0  0  0  0  0
   39.5640   22.3950   35.0000 C   0  0  0  0  0  0  0  0  0  0  0  0
   38.9980   23.4880   34.4310 N   0  0  0  0  0  0  0  0  0  0  0  0
   38.4410   24.4770   35.1560 C   0  0  0  0  0  0  0  0  0  0  0  0
   38.4220   24.4220   36.5010 N   0  0  0  0  0  0  0  0  0  0  0  0
   38.9600   23.3040   38.2230 H   0  0  0  0  0  0  0  0  0  0  0  0
   39.9950   21.4630   36.9230 H   0  0  0  0  0  0  0  0  0  0  0  0
   40.0090   21.6060   34.4100 H   0  0  0  0  0  0  0  0  0  0  0  0
   37.8420   25.6310   34.5740 N   0  0  0  0  0  0  0  0  0  0  0  0
   37.3870   25.5440   33.3110 C   0  0  0  0  0  3  0  0  0  0  0  0
   36.8210   26.7000   32.8150 C   0  0  0  0  0  0  0  0  0  0  0  0
   36.4330   26.6990   31.8010 H   0  0  0  0  0  0  0  0  0  0  0  0
   36.7080   27.8790   33.5250 C   0  0  0  0  0  0  0  0  0  0  0  0
   36.1880   28.9230   33.0540 O   0  0  0  0  0  0  0  0  0  0  0  0
   37.1880   27.9100   34.8020 N   0  0  0  0  0  0  0  0  0  0  0  0
   37.7420   26.7730   35.2810 C   0  0  0  0  0  0  0  0  0  0  0  0
   38.2010   26.7570   36.4660 O   0  0  0  0  0  0  0  0  0  0  0  0
   37.1190   28.7830   35.3640 H   0  0  0  0  0  0  0  0  0  0  0  0
  1  7  1  0  0  0  0
  2  8  1  0  0  0  0
  2  1  2  0  0  0  0
  3  2  1  0  0  0  0
  4  3  2  0  0  0  0
  4  5  1  0  0  0  0
  5  6  2  0  0  0  0
  6  1  1  0  0  0  0
  9  3  1  0  0  0  0
 10  5  1  0  0  0  0
 10 17  1  0  0  0  0
 11 10  1  0  0  0  0
 12 11  2  0  0  0  0
 12 14  1  0  0  0  0
 13 12  1  0  0  0  0
 14 16  1  0  0  0  0
 15 14  2  0  0  0  0
 16 17  1  0  0  0  0
 16 19  1  0  0  0  0
 17 18  2  0  0  0  0
M  END
>  <minimizedAffinity>
-3.93714523

$$$$
