
 OpenBabel03272502033D

 43 47  0  0  0  0  0  0  0  0999 V2000
   35.5950   29.3230   32.0040 C   0  0  0  0  0  0  0  0  0  0  0  0
   34.6620   29.1440   32.5730 H   0  0  0  0  0  0  0  0  0  0  0  0
   35.3580   29.2610   30.9210 H   0  0  0  0  0  0  0  0  0  0  0  0
   36.5860   28.2620   32.4080 C   0  0  0  0  0  0  0  0  0  0  0  0
   37.6170   27.7560   31.6440 C   0  0  0  0  0  0  0  0  0  0  0  0
   38.2920   26.7970   32.3870 C   0  0  0  0  0  0  0  0  0  0  0  0
   37.6370   26.7570   33.5860 N   0  0  0  0  0  0  0  0  0  0  0  0
   36.6410   27.6180   33.5870 N   0  0  0  0  0  0  0  0  0  0  0  0
   39.2030   25.0430   34.5460 N   0  0  0  0  0  0  0  0  0  0  0  0
   38.1150   25.8460   34.5690 C   0  0  0  0  0  0  0  0  0  0  0  0
   37.5030   25.6390   35.7590 N   0  0  0  0  0  0  0  0  0  0  0  0
   38.1770   24.7300   36.4790 C   0  0  0  0  0  0  0  0  0  0  0  0
   37.9480   24.2020   37.7270 C   0  0  0  0  0  0  0  0  0  0  0  0
   38.8050   23.2860   38.2120 N   0  0  0  0  0  0  0  0  0  0  0  0
   39.8710   22.9030   37.4700 C   0  0  0  0  0  0  0  0  0  0  0  0
   40.0930   23.4260   36.2380 N   0  0  0  0  0  0  0  0  0  0  0  0
   39.2570   24.3450   35.7190 C   0  0  0  0  0  0  0  0  0  0  0  0
   37.8330   28.0830   30.6260 H   0  0  0  0  0  0  0  0  0  0  0  0
   39.1310   26.2550   32.0230 H   0  0  0  0  0  0  0  0  0  0  0  0
   39.8780   24.9720   33.7670 H   0  0  0  0  0  0  0  0  0  0  0  0
   37.0650   24.5610   38.2680 H   0  0  0  0  0  0  0  0  0  0  0  0
   40.5430   22.1640   37.8860 H   0  0  0  0  0  0  0  0  0  0  0  0
   36.2130   30.6350   32.4100 C   0  0  0  0  0  0  0  0  0  0  0  0
   36.2940   31.2630   31.4900 H   0  0  0  0  0  0  0  0  0  0  0  0
   37.2220   30.5380   32.8380 H   0  0  0  0  0  0  0  0  0  0  0  0
   34.3830   33.3220   34.2040 C   0  0  0  0  0  0  0  0  0  0  0  0
   33.5700   32.5830   35.0710 C   0  0  0  0  0  0  0  0  0  0  0  0
   33.6520   31.1790   35.0370 C   0  0  0  0  0  0  0  0  0  0  0  0
   34.5190   30.6220   34.1610 N   0  0  0  0  0  0  0  0  0  0  0  0
   35.2880   31.3610   33.3390 C   0  0  0  0  0  0  0  0  0  0  0  0
   35.2070   32.6720   33.3750 N   0  0  0  0  0  0  0  0  0  0  0  0
   34.3030   34.4040   34.2480 H   0  0  0  0  0  0  0  0  0  0  0  0
   32.8760   33.0030   35.7740 H   0  0  0  0  0  0  0  0  0  0  0  0
   32.8840   30.3120   35.8620 N   0  0  0  0  0  0  0  0  0  0  0  0
   32.5060   29.1430   35.2870 C   0  0  0  0  0  3  0  0  0  0  0  0
   31.7520   28.2770   36.0780 C   0  0  0  0  0  0  0  0  0  0  0  0
   31.4190   27.3280   35.6750 H   0  0  0  0  0  0  0  0  0  0  0  0
   31.4410   28.6570   37.3810 C   0  0  0  0  0  0  0  0  0  0  0  0
   30.7570   27.8810   38.1110 O   0  0  0  0  0  0  0  0  0  0  0  0
   31.8520   29.8460   37.8970 N   0  0  0  0  0  0  0  0  0  0  0  0
   32.5800   30.6750   37.1220 C   0  0  0  0  0  0  0  0  0  0  0  0
   32.9930   31.7900   37.5370 O   0  0  0  0  0  0  0  0  0  0  0  0
   31.6110   30.1270   38.8860 H   0  0  0  0  0  0  0  0  0  0  0  0
  1  4  1  0  0  0  0
  1 23  1  0  0  0  0
  1  2  1  0  0  0  0
  3  1  1  0  0  0  0
  4  8  2  0  0  0  0
  5  6  2  0  0  0  0
  5  4  1  0  0  0  0
  6  7  1  0  0  0  0
  7  8  1  0  0  0  0
  7 10  1  0  0  0  0
  9 10  1  0  0  0  0
  9 17  1  0  0  0  0
 10 11  2  0  0  0  0
 11 12  1  0  0  0  0
 12 13  1  0  0  0  0
 13 14  2  0  0  0  0
 13 21  1  0  0  0  0
 15 22  1  0  0  0  0
 15 14  1  0  0  0  0
 16 15  2  0  0  0  0
 17 16  1  0  0  0  0
 17 12  2  0  0  0  0
 18  5  1  0  0  0  0
 19  6  1  0  0  0  0
 20  9  1  0  0  0  0
 23 25  1  0  0  0  0
 23 30  1  0  0  0  0
 24 23  1  0  0  0  0
 26 32  1  0  0  0  0
 26 27  1  0  0  0  0
 27 33  1  0  0  0  0
 28 27  2  0  0  0  0
 28 34  1  0  0  0  0
 29 28  1  0  0  0  0
 30 31  1  0  0  0  0
 30 29  2  0  0  0  0
 31 26  2  0  0  0  0
 34 41  1  0  0  0  0
 35 34  1  0  0  0  0
 35 36  2  0  0  0  0
 36 38  1  0  0  0  0
 37 36  1  0  0  0  0
 38 40  1  0  0  0  0
 38 39  2  0  0  0  0
 40 43  1  0  0  0  0
 41 42  2  0  0  0  0
 41 40  1  0  0  0  0
M  END
>  <minimizedAffinity>
-6.87826538

$$$$

 OpenBabel03272502033D

 43 47  0  0  0  0  0  0  0  0999 V2000
   37.1350   27.5030   32.9000 C   0  0  0  0  0  0  0  0  0  0  0  0
   37.1740   26.8160   33.7670 H   0  0  0  0  0  0  0  0  0  0  0  0
   38.1160   28.0180   32.8210 H   0  0  0  0  0  0  0  0  0  0  0  0
   36.0200   28.4860   33.1460 C   0  0  0  0  0  0  0  0  0  0  0  0
   34.8880   28.6660   32.3790 C   0  0  0  0  0  0  0  0  0  0  0  0
   34.1170   29.6690   32.9520 C   0  0  0  0  0  0  0  0  0  0  0  0
   34.8190   30.0630   34.0560 N   0  0  0  0  0  0  0  0  0  0  0  0
   35.9300   29.3640   34.1600 N   0  0  0  0  0  0  0  0  0  0  0  0
   33.0670   31.7240   34.7510 N   0  0  0  0  0  0  0  0  0  0  0  0
   34.2610   31.0990   34.8570 C   0  0  0  0  0  0  0  0  0  0  0  0
   34.8960   31.6480   35.9200 N   0  0  0  0  0  0  0  0  0  0  0  0
   34.1320   32.5970   36.4810 C   0  0  0  0  0  0  0  0  0  0  0  0
   34.3440   33.4170   37.5630 C   0  0  0  0  0  0  0  0  0  0  0  0
   33.3860   34.2960   37.9090 N   0  0  0  0  0  0  0  0  0  0  0  0
   32.2390   34.3570   37.1920 C   0  0  0  0  0  0  0  0  0  0  0  0
   32.0350   33.5460   36.1240 N   0  0  0  0  0  0  0  0  0  0  0  0
   32.9700   32.6540   35.7470 C   0  0  0  0  0  0  0  0  0  0  0  0
   34.6710   28.0930   31.4760 H   0  0  0  0  0  0  0  0  0  0  0  0
   33.1900   29.9980   32.5500 H   0  0  0  0  0  0  0  0  0  0  0  0
   32.3500   31.5280   34.0340 H   0  0  0  0  0  0  0  0  0  0  0  0
   35.2960   33.3090   38.0950 H   0  0  0  0  0  0  0  0  0  0  0  0
   31.4870   35.0740   37.4930 H   0  0  0  0  0  0  0  0  0  0  0  0
   36.7500   26.7520   31.6530 C   0  0  0  0  0  0  0  0  0  0  0  0
   37.5240   26.9720   30.8790 H   0  0  0  0  0  0  0  0  0  0  0  0
   35.7720   27.0460   31.2400 H   0  0  0  0  0  0  0  0  0  0  0  0
   36.3040   23.0780   31.3540 C   0  0  0  0  0  0  0  0  0  0  0  0
   36.9980   22.6140   32.4770 C   0  0  0  0  0  0  0  0  0  0  0  0
   37.6110   23.5550   33.3250 C   0  0  0  0  0  0  0  0  0  0  0  0
   37.4920   24.8630   33.0010 N   0  0  0  0  0  0  0  0  0  0  0  0
   36.8170   25.2770   31.9120 C   0  0  0  0  0  0  0  0  0  0  0  0
   36.2470   24.3940   31.1250 N   0  0  0  0  0  0  0  0  0  0  0  0
   35.8390   22.3330   30.7150 H   0  0  0  0  0  0  0  0  0  0  0  0
   37.1060   21.5830   32.7540 H   0  0  0  0  0  0  0  0  0  0  0  0
   38.3450   23.2200   34.4960 N   0  0  0  0  0  0  0  0  0  0  0  0
   39.4100   24.0160   34.7650 C   0  0  0  0  0  3  0  0  0  0  0  0
   40.1440   23.7050   35.9080 C   0  0  0  0  0  0  0  0  0  0  0  0
   41.0070   24.3040   36.1770 H   0  0  0  0  0  0  0  0  0  0  0  0
   39.7490   22.6210   36.6870 C   0  0  0  0  0  0  0  0  0  0  0  0
   40.4060   22.3270   37.7290 O   0  0  0  0  0  0  0  0  0  0  0  0
   38.6690   21.8620   36.3600 N   0  0  0  0  0  0  0  0  0  0  0  0
   37.9670   22.1720   35.2520 C   0  0  0  0  0  0  0  0  0  0  0  0
   36.9570   21.5120   34.8910 O   0  0  0  0  0  0  0  0  0  0  0  0
   38.3750   21.0410   36.9550 H   0  0  0  0  0  0  0  0  0  0  0  0
  1  4  1  0  0  0  0
  1  2  1  0  0  0  0
  3  1  1  0  0  0  0
  4  8  2  0  0  0  0
  5  6  2  0  0  0  0
  5  4  1  0  0  0  0
  6  7  1  0  0  0  0
  7  8  1  0  0  0  0
  7 10  1  0  0  0  0
  9 10  1  0  0  0  0
  9 17  1  0  0  0  0
 10 11  2  0  0  0  0
 11 12  1  0  0  0  0
 12 13  1  0  0  0  0
 13 14  2  0  0  0  0
 13 21  1  0  0  0  0
 15 22  1  0  0  0  0
 15 14  1  0  0  0  0
 16 15  2  0  0  0  0
 17 16  1  0  0  0  0
 17 12  2  0  0  0  0
 18  5  1  0  0  0  0
 19  6  1  0  0  0  0
 20  9  1  0  0  0  0
 23 30  1  0  0  0  0
 23  1  1  0  0  0  0
 24 23  1  0  0  0  0
 25 23  1  0  0  0  0
 26 27  1  0  0  0  0
 27 33  1  0  0  0  0
 27 28  2  0  0  0  0
 28 34  1  0  0  0  0
 29 28  1  0  0  0  0
 30 29  2  0  0  0  0
 31 26  2  0  0  0  0
 31 30  1  0  0  0  0
 32 26  1  0  0  0  0
 34 35  1  0  0  0  0
 34 41  1  0  0  0  0
 35 36  2  0  0  0  0
 36 37  1  0  0  0  0
 36 38  1  0  0  0  0
 38 39  2  0  0  0  0
 40 38  1  0  0  0  0
 40 43  1  0  0  0  0
 41 40  1  0  0  0  0
 42 41  2  0  0  0  0
M  END
>  <minimizedAffinity>
-6.51591682

$$$$

 OpenBabel03272502033D

 43 47  0  0  0  0  0  0  0  0999 V2000
   35.8800   25.6580   31.1300 C   0  0  0  0  0  0  0  0  0  0  0  0
   35.1560   25.5130   30.3060 H   0  0  0  0  0  0  0  0  0  0  0  0
   35.4910   25.1370   32.0300 H   0  0  0  0  0  0  0  0  0  0  0  0
   36.0090   27.1390   31.3700 C   0  0  0  0  0  0  0  0  0  0  0  0
   36.4520   28.0890   30.4730 C   0  0  0  0  0  0  0  0  0  0  0  0
   36.4170   29.3330   31.0890 C   0  0  0  0  0  0  0  0  0  0  0  0
   35.9490   29.0880   32.3490 N   0  0  0  0  0  0  0  0  0  0  0  0
   35.7130   27.8010   32.5020 N   0  0  0  0  0  0  0  0  0  0  0  0
   35.9800   31.5180   32.9870 N   0  0  0  0  0  0  0  0  0  0  0  0
   35.8050   30.1980   33.2270 C   0  0  0  0  0  0  0  0  0  0  0  0
   35.4430   30.0830   34.5270 N   0  0  0  0  0  0  0  0  0  0  0  0
   35.3880   31.2920   35.1050 C   0  0  0  0  0  0  0  0  0  0  0  0
   35.0740   31.6770   36.3870 C   0  0  0  0  0  0  0  0  0  0  0  0
   35.1000   32.9860   36.6960 N   0  0  0  0  0  0  0  0  0  0  0  0
   35.4320   33.8940   35.7490 C   0  0  0  0  0  0  0  0  0  0  0  0
   35.7420   33.5100   34.4850 N   0  0  0  0  0  0  0  0  0  0  0  0
   35.7270   32.2090   34.1380 C   0  0  0  0  0  0  0  0  0  0  0  0
   36.7700   27.8590   29.4550 H   0  0  0  0  0  0  0  0  0  0  0  0
   36.7110   30.2350   30.6080 H   0  0  0  0  0  0  0  0  0  0  0  0
   36.2600   31.9290   32.0820 H   0  0  0  0  0  0  0  0  0  0  0  0
   34.8150   30.8850   37.0980 H   0  0  0  0  0  0  0  0  0  0  0  0
   35.4450   34.9400   36.0270 H   0  0  0  0  0  0  0  0  0  0  0  0
   37.2500   25.1900   30.7120 C   0  0  0  0  0  0  0  0  0  0  0  0
   37.9600   26.0310   30.8980 H   0  0  0  0  0  0  0  0  0  0  0  0
   37.3220   24.9220   29.6470 H   0  0  0  0  0  0  0  0  0  0  0  0
   38.4560   21.8870   31.9030 C   0  0  0  0  0  0  0  0  0  0  0  0
   38.4670   22.0710   33.2900 C   0  0  0  0  0  0  0  0  0  0  0  0
   38.0640   23.3150   33.8070 C   0  0  0  0  0  0  0  0  0  0  0  0
   37.6870   24.2690   32.9250 N   0  0  0  0  0  0  0  0  0  0  0  0
   37.6880   24.0610   31.5940 C   0  0  0  0  0  0  0  0  0  0  0  0
   38.0650   22.8970   31.1180 N   0  0  0  0  0  0  0  0  0  0  0  0
   38.7710   20.9180   31.5270 H   0  0  0  0  0  0  0  0  0  0  0  0
   38.7610   21.3290   34.0090 H   0  0  0  0  0  0  0  0  0  0  0  0
   38.0280   23.6340   35.1930 N   0  0  0  0  0  0  0  0  0  0  0  0
   38.3440   24.9150   35.5050 C   0  0  0  0  0  3  0  0  0  0  0  0
   38.3150   25.2500   36.8580 C   0  0  0  0  0  0  0  0  0  0  0  0
   38.5580   26.2580   37.1720 H   0  0  0  0  0  0  0  0  0  0  0  0
   37.9710   24.2700   37.7860 C   0  0  0  0  0  0  0  0  0  0  0  0
   37.9410   24.5580   39.0180 O   0  0  0  0  0  0  0  0  0  0  0  0
   37.6650   23.0010   37.4040 N   0  0  0  0  0  0  0  0  0  0  0  0
   37.6970   22.6890   36.0930 C   0  0  0  0  0  0  0  0  0  0  0  0
   37.4250   21.5340   35.6710 O   0  0  0  0  0  0  0  0  0  0  0  0
   37.4060   22.2620   38.1130 H   0  0  0  0  0  0  0  0  0  0  0  0
  1  4  1  0  0  0  0
  1  3  1  0  0  0  0
  2  1  1  0  0  0  0
  4  8  2  0  0  0  0
  5  6  2  0  0  0  0
  5  4  1  0  0  0  0
  6  7  1  0  0  0  0
  7  8  1  0  0  0  0
  7 10  1  0  0  0  0
  9 10  1  0  0  0  0
  9 17  1  0  0  0  0
 10 11  2  0  0  0  0
 11 12  1  0  0  0  0
 12 13  1  0  0  0  0
 13 14  2  0  0  0  0
 13 21  1  0  0  0  0
 15 22  1  0  0  0  0
 15 14  1  0  0  0  0
 16 15  2  0  0  0  0
 17 16  1  0  0  0  0
 17 12  2  0  0  0  0
 18  5  1  0  0  0  0
 19  6  1  0  0  0  0
 20  9  1  0  0  0  0
 23 24  1  0  0  0  0
 23  1  1  0  0  0  0
 23 30  1  0  0  0  0
 25 23  1  0  0  0  0
 26 27  1  0  0  0  0
 27 28  2  0  0  0  0
 27 33  1  0  0  0  0
 28 34  1  0  0  0  0
 29 28  1  0  0  0  0
 30 29  2  0  0  0  0
 31 30  1  0  0  0  0
 31 26  2  0  0  0  0
 32 26  1  0  0  0  0
 34 35  1  0  0  0  0
 34 41  1  0  0  0  0
 35 36  2  0  0  0  0
 36 37  1  0  0  0  0
 36 38  1  0  0  0  0
 38 39  2  0  0  0  0
 40 38  1  0  0  0  0
 40 43  1  0  0  0  0
 41 40  1  0  0  0  0
 42 41  2  0  0  0  0
M  END
>  <minimizedAffinity>
-6.43316126

$$$$

 OpenBabel03272502033D

 43 47  0  0  0  0  0  0  0  0999 V2000
   35.5230   31.0130   31.4010 C   0  0  0  0  0  0  0  0  0  0  0  0
   35.6380   31.7330   30.5690 H   0  0  0  0  0  0  0  0  0  0  0  0
   35.9600   31.4660   32.3150 H   0  0  0  0  0  0  0  0  0  0  0  0
   36.2500   29.7510   31.0150 C   0  0  0  0  0  0  0  0  0  0  0  0
   37.4000   29.6540   30.2580 C   0  0  0  0  0  0  0  0  0  0  0  0
   37.7400   28.3140   30.1360 C   0  0  0  0  0  0  0  0  0  0  0  0
   36.7740   27.6410   30.8300 N   0  0  0  0  0  0  0  0  0  0  0  0
   35.9080   28.4920   31.3410 N   0  0  0  0  0  0  0  0  0  0  0  0
   37.8300   25.4010   30.4100 N   0  0  0  0  0  0  0  0  0  0  0  0
   36.8640   26.2220   30.8810 C   0  0  0  0  0  0  0  0  0  0  0  0
   35.9250   25.4310   31.4520 N   0  0  0  0  0  0  0  0  0  0  0  0
   36.2760   24.1410   31.3510 C   0  0  0  0  0  0  0  0  0  0  0  0
   35.6540   22.9900   31.7720 C   0  0  0  0  0  0  0  0  0  0  0  0
   36.2460   21.8070   31.5310 N   0  0  0  0  0  0  0  0  0  0  0  0
   37.4330   21.7680   30.8830 C   0  0  0  0  0  0  0  0  0  0  0  0
   38.0440   22.9070   30.4680 N   0  0  0  0  0  0  0  0  0  0  0  0
   37.4820   24.1100   30.6910 C   0  0  0  0  0  0  0  0  0  0  0  0
   37.9250   30.5150   29.8420 H   0  0  0  0  0  0  0  0  0  0  0  0
   38.5900   27.9710   29.5980 H   0  0  0  0  0  0  0  0  0  0  0  0
   38.6860   25.7040   29.9180 H   0  0  0  0  0  0  0  0  0  0  0  0
   34.6950   23.1000   32.2910 H   0  0  0  0  0  0  0  0  0  0  0  0
   37.8850   20.8020   30.7020 H   0  0  0  0  0  0  0  0  0  0  0  0
   34.0770   30.6200   31.5580 C   0  0  0  0  0  0  0  0  0  0  0  0
   34.0450   29.5110   31.6800 H   0  0  0  0  0  0  0  0  0  0  0  0
   33.4500   30.8800   30.6910 H   0  0  0  0  0  0  0  0  0  0  0  0
   33.0690   33.0140   34.2110 C   0  0  0  0  0  0  0  0  0  0  0  0
   32.5120   32.1600   35.1690 C   0  0  0  0  0  0  0  0  0  0  0  0
   32.4850   30.7790   34.9040 C   0  0  0  0  0  0  0  0  0  0  0  0
   33.0030   30.3550   33.7290 N   0  0  0  0  0  0  0  0  0  0  0  0
   33.5320   31.2030   32.8260 C   0  0  0  0  0  0  0  0  0  0  0  0
   33.5540   32.4920   33.0790 N   0  0  0  0  0  0  0  0  0  0  0  0
   33.0790   34.0770   34.4370 H   0  0  0  0  0  0  0  0  0  0  0  0
   32.0960   32.4730   36.1080 H   0  0  0  0  0  0  0  0  0  0  0  0
   31.9490   29.8030   35.7900 N   0  0  0  0  0  0  0  0  0  0  0  0
   31.3350   28.7500   35.1960 C   0  0  0  0  0  3  0  0  0  0  0  0
   30.8030   27.7820   36.0450 C   0  0  0  0  0  0  0  0  0  0  0  0
   30.3000   26.9160   35.6310 H   0  0  0  0  0  0  0  0  0  0  0  0
   30.9310   27.9510   37.4210 C   0  0  0  0  0  0  0  0  0  0  0  0
   30.4520   27.0800   38.2060 O   0  0  0  0  0  0  0  0  0  0  0  0
   31.5600   29.0340   37.9530 N   0  0  0  0  0  0  0  0  0  0  0  0
   32.0700   29.9640   37.1210 C   0  0  0  0  0  0  0  0  0  0  0  0
   32.6640   30.9900   37.5460 O   0  0  0  0  0  0  0  0  0  0  0  0
   31.6520   29.1560   38.9970 H   0  0  0  0  0  0  0  0  0  0  0  0
  1 23  1  0  0  0  0
  1  3  1  0  0  0  0
  2  1  1  0  0  0  0
  4  8  2  0  0  0  0
  4  1  1  0  0  0  0
  5  4  1  0  0  0  0
  6  5  2  0  0  0  0
  6  7  1  0  0  0  0
  7 10  1  0  0  0  0
  7  8  1  0  0  0  0
  9 17  1  0  0  0  0
  9 10  1  0  0  0  0
 10 11  2  0  0  0  0
 12 11  1  0  0  0  0
 12 13  1  0  0  0  0
 13 21  1  0  0  0  0
 14 13  2  0  0  0  0
 15 14  1  0  0  0  0
 16 17  1  0  0  0  0
 16 15  2  0  0  0  0
 17 12  2  0  0  0  0
 18  5  1  0  0  0  0
 19  6  1  0  0  0  0
 20  9  1  0  0  0  0
 22 15  1  0  0  0  0
 23 24  1  0  0  0  0
 23 30  1  0  0  0  0
 25 23  1  0  0  0  0
 26 32  1  0  0  0  0
 26 27  1  0  0  0  0
 27 33  1  0  0  0  0
 28 27  2  0  0  0  0
 28 34  1  0  0  0  0
 29 28  1  0  0  0  0
 30 31  1  0  0  0  0
 30 29  2  0  0  0  0
 31 26  2  0  0  0  0
 34 41  1  0  0  0  0
 35 34  1  0  0  0  0
 35 36  2  0  0  0  0
 36 38  1  0  0  0  0
 37 36  1  0  0  0  0
 38 40  1  0  0  0  0
 38 39  2  0  0  0  0
 40 43  1  0  0  0  0
 41 42  2  0  0  0  0
 41 40  1  0  0  0  0
M  END
>  <minimizedAffinity>
-6.42778254

$$$$

 OpenBabel03272502033D

 43 47  0  0  0  0  0  0  0  0999 V2000
   37.5310   25.8020   36.3380 C   0  0  0  0  0  0  0  0  0  0  0  0
   37.2550   26.4700   37.1760 H   0  0  0  0  0  0  0  0  0  0  0  0
   36.5960   25.4210   35.8760 H   0  0  0  0  0  0  0  0  0  0  0  0
   38.3580   24.6770   36.9050 C   0  0  0  0  0  0  0  0  0  0  0  0
   38.3020   24.1710   38.1880 C   0  0  0  0  0  0  0  0  0  0  0  0
   39.2270   23.1420   38.3000 C   0  0  0  0  0  0  0  0  0  0  0  0
   39.8150   23.0620   37.0700 N   0  0  0  0  0  0  0  0  0  0  0  0
   39.2990   23.9650   36.2610 N   0  0  0  0  0  0  0  0  0  0  0  0
   41.2560   21.1120   37.7260 N   0  0  0  0  0  0  0  0  0  0  0  0
   40.8250   22.0770   36.8830 C   0  0  0  0  0  0  0  0  0  0  0  0
   41.5510   21.9540   35.7460 N   0  0  0  0  0  0  0  0  0  0  0  0
   42.4230   20.9420   35.8560 C   0  0  0  0  0  0  0  0  0  0  0  0
   43.3580   20.4420   34.9810 C   0  0  0  0  0  0  0  0  0  0  0  0
   44.1130   19.3980   35.3640 N   0  0  0  0  0  0  0  0  0  0  0  0
   43.9430   18.8600   36.5940 C   0  0  0  0  0  0  0  0  0  0  0  0
   43.0200   19.3560   37.4560 N   0  0  0  0  0  0  0  0  0  0  0  0
   42.2450   20.4010   37.1080 C   0  0  0  0  0  0  0  0  0  0  0  0
   37.6260   24.5460   38.9570 H   0  0  0  0  0  0  0  0  0  0  0  0
   39.3810   22.5860   39.1930 H   0  0  0  0  0  0  0  0  0  0  0  0
   40.8950   20.9460   38.6800 H   0  0  0  0  0  0  0  0  0  0  0  0
   43.4370   20.9300   34.0020 H   0  0  0  0  0  0  0  0  0  0  0  0
   44.5660   18.0200   36.8740 H   0  0  0  0  0  0  0  0  0  0  0  0
   38.4300   26.5230   35.3680 C   0  0  0  0  0  0  0  0  0  0  0  0
   39.4170   26.0010   35.3790 H   0  0  0  0  0  0  0  0  0  0  0  0
   38.6080   27.5780   35.6270 H   0  0  0  0  0  0  0  0  0  0  0  0
   37.2300   27.2830   31.9390 C   0  0  0  0  0  0  0  0  0  0  0  0
   36.8960   26.0100   31.4640 C   0  0  0  0  0  0  0  0  0  0  0  0
   37.0830   24.9050   32.3150 C   0  0  0  0  0  0  0  0  0  0  0  0
   37.5770   25.1410   33.5510 N   0  0  0  0  0  0  0  0  0  0  0  0
   37.8890   26.3800   33.9780 C   0  0  0  0  0  0  0  0  0  0  0  0
   37.7130   27.4070   33.1790 N   0  0  0  0  0  0  0  0  0  0  0  0
   37.0770   28.1210   31.2640 H   0  0  0  0  0  0  0  0  0  0  0  0
   36.5020   25.7980   30.4880 H   0  0  0  0  0  0  0  0  0  0  0  0
   36.7850   23.5610   31.9590 N   0  0  0  0  0  0  0  0  0  0  0  0
   37.6180   22.6230   32.4730 C   0  0  0  0  0  3  0  0  0  0  0  0
   37.3450   21.2980   32.1380 C   0  0  0  0  0  0  0  0  0  0  0  0
   37.9750   20.5020   32.5170 H   0  0  0  0  0  0  0  0  0  0  0  0
   36.2570   21.0240   31.3130 C   0  0  0  0  0  0  0  0  0  0  0  0
   35.9960   19.8250   30.9990 O   0  0  0  0  0  0  0  0  0  0  0  0
   35.4600   22.0140   30.8300 N   0  0  0  0  0  0  0  0  0  0  0  0
   35.7340   23.2920   31.1610 C   0  0  0  0  0  0  0  0  0  0  0  0
   35.0370   24.2560   30.7490 O   0  0  0  0  0  0  0  0  0  0  0  0
   34.6370   21.7990   30.2040 H   0  0  0  0  0  0  0  0  0  0  0  0
  1  4  1  0  0  0  0
  1  2  1  0  0  0  0
  3  1  1  0  0  0  0
  4  5  1  0  0  0  0
  5  6  2  0  0  0  0
  5 18  1  0  0  0  0
  6 19  1  0  0  0  0
  7  6  1  0  0  0  0
  8  4  2  0  0  0  0
  8  7  1  0  0  0  0
  9 20  1  0  0  0  0
 10  7  1  0  0  0  0
 10  9  1  0  0  0  0
 11 12  1  0  0  0  0
 11 10  2  0  0  0  0
 12 17  1  0  0  0  0
 13 14  1  0  0  0  0
 13 12  2  0  0  0  0
 14 15  2  0  0  0  0
 15 22  1  0  0  0  0
 15 16  1  0  0  0  0
 17 16  2  0  0  0  0
 17  9  1  0  0  0  0
 21 13  1  0  0  0  0
 23 24  1  0  0  0  0
 23 25  1  0  0  0  0
 23  1  1  0  0  0  0
 26 31  1  0  0  0  0
 27 26  2  0  0  0  0
 27 28  1  0  0  0  0
 28 29  2  0  0  0  0
 29 30  1  0  0  0  0
 30 23  1  0  0  0  0
 31 30  2  0  0  0  0
 32 26  1  0  0  0  0
 33 27  1  0  0  0  0
 34 28  1  0  0  0  0
 34 35  1  0  0  0  0
 36 35  2  0  0  0  0
 36 37  1  0  0  0  0
 38 36  1  0  0  0  0
 39 38  2  0  0  0  0
 40 41  1  0  0  0  0
 40 38  1  0  0  0  0
 41 34  1  0  0  0  0
 42 41  2  0  0  0  0
 43 40  1  0  0  0  0
M  END
>  <minimizedAffinity>
-6.39550257

$$$$

 OpenBabel03272502033D

 43 47  0  0  0  0  0  0  0  0999 V2000
   35.8900   27.6410   31.1240 C   0  0  0  0  0  0  0  0  0  0  0  0
   35.2830   28.0910   31.9330 H   0  0  0  0  0  0  0  0  0  0  0  0
   35.2060   27.1060   30.4330 H   0  0  0  0  0  0  0  0  0  0  0  0
   36.8720   26.6950   31.7630 C   0  0  0  0  0  0  0  0  0  0  0  0
   37.8970   26.0150   31.1380 C   0  0  0  0  0  0  0  0  0  0  0  0
   38.5650   25.2490   32.0840 C   0  0  0  0  0  0  0  0  0  0  0  0
   37.9140   25.4960   33.2590 N   0  0  0  0  0  0  0  0  0  0  0  0
   36.9250   26.3430   33.0600 N   0  0  0  0  0  0  0  0  0  0  0  0
   39.4670   24.0380   34.5910 N   0  0  0  0  0  0  0  0  0  0  0  0
   38.3860   24.8340   34.4270 C   0  0  0  0  0  0  0  0  0  0  0  0
   37.7750   24.9160   35.6330 N   0  0  0  0  0  0  0  0  0  0  0  0
   38.4430   24.1940   36.5450 C   0  0  0  0  0  0  0  0  0  0  0  0
   38.2120   23.9730   37.8810 C   0  0  0  0  0  0  0  0  0  0  0  0
   39.0630   23.1870   38.5660 N   0  0  0  0  0  0  0  0  0  0  0  0
   40.1220   22.6320   37.9330 C   0  0  0  0  0  0  0  0  0  0  0  0
   40.3460   22.8520   36.6130 N   0  0  0  0  0  0  0  0  0  0  0  0
   39.5170   23.6320   35.8950 C   0  0  0  0  0  0  0  0  0  0  0  0
   38.1140   26.0940   30.0720 H   0  0  0  0  0  0  0  0  0  0  0  0
   39.3980   24.6300   31.8550 H   0  0  0  0  0  0  0  0  0  0  0  0
   40.1390   23.7820   33.8500 H   0  0  0  0  0  0  0  0  0  0  0  0
   37.3340   24.4570   38.3250 H   0  0  0  0  0  0  0  0  0  0  0  0
   40.7890   22.0040   38.5090 H   0  0  0  0  0  0  0  0  0  0  0  0
   36.7220   28.6980   30.4460 C   0  0  0  0  0  0  0  0  0  0  0  0
   36.3280   28.8180   29.4090 H   0  0  0  0  0  0  0  0  0  0  0  0
   37.7910   28.4420   30.3690 H   0  0  0  0  0  0  0  0  0  0  0  0
   36.8520   32.3120   31.2860 C   0  0  0  0  0  0  0  0  0  0  0  0
   36.0930   32.3600   32.4600 C   0  0  0  0  0  0  0  0  0  0  0  0
   35.5440   31.1630   32.9540 C   0  0  0  0  0  0  0  0  0  0  0  0
   35.7850   30.0270   32.2600 N   0  0  0  0  0  0  0  0  0  0  0  0
   36.5210   30.0150   31.1320 C   0  0  0  0  0  0  0  0  0  0  0  0
   37.0300   31.1360   30.6750 N   0  0  0  0  0  0  0  0  0  0  0  0
   37.2660   33.2490   30.9230 H   0  0  0  0  0  0  0  0  0  0  0  0
   35.8890   33.2480   33.0280 H   0  0  0  0  0  0  0  0  0  0  0  0
   34.7550   31.0700   34.1340 N   0  0  0  0  0  0  0  0  0  0  0  0
   33.7570   30.1520   34.0990 C   0  0  0  0  0  3  0  0  0  0  0  0
   32.9710   30.0450   35.2450 C   0  0  0  0  0  0  0  0  0  0  0  0
   32.1580   29.3290   35.2780 H   0  0  0  0  0  0  0  0  0  0  0  0
   33.2510   30.8680   36.3310 C   0  0  0  0  0  0  0  0  0  0  0  0
   32.5450   30.7830   37.3800 O   0  0  0  0  0  0  0  0  0  0  0  0
   34.2680   31.7710   36.3010 N   0  0  0  0  0  0  0  0  0  0  0  0
   35.0210   31.8660   35.1870 C   0  0  0  0  0  0  0  0  0  0  0  0
   35.9780   32.6790   35.0920 O   0  0  0  0  0  0  0  0  0  0  0  0
   34.4740   32.3930   37.1290 H   0  0  0  0  0  0  0  0  0  0  0  0
  1  4  1  0  0  0  0
  1  2  1  0  0  0  0
  3  1  1  0  0  0  0
  4  8  2  0  0  0  0
  5  4  1  0  0  0  0
  5  6  2  0  0  0  0
  6  7  1  0  0  0  0
  7 10  1  0  0  0  0
  8  7  1  0  0  0  0
  9 17  1  0  0  0  0
 10  9  1  0  0  0  0
 10 11  2  0  0  0  0
 11 12  1  0  0  0  0
 12 13  1  0  0  0  0
 13 21  1  0  0  0  0
 13 14  2  0  0  0  0
 15 22  1  0  0  0  0
 15 14  1  0  0  0  0
 16 15  2  0  0  0  0
 17 12  2  0  0  0  0
 17 16  1  0  0  0  0
 18  5  1  0  0  0  0
 19  6  1  0  0  0  0
 20  9  1  0  0  0  0
 23  1  1  0  0  0  0
 23 30  1  0  0  0  0
 24 23  1  0  0  0  0
 25 23  1  0  0  0  0
 26 27  1  0  0  0  0
 27 28  2  0  0  0  0
 27 33  1  0  0  0  0
 28 34  1  0  0  0  0
 29 28  1  0  0  0  0
 30 29  2  0  0  0  0
 31 30  1  0  0  0  0
 31 26  2  0  0  0  0
 32 26  1  0  0  0  0
 34 41  1  0  0  0  0
 35 34  1  0  0  0  0
 35 36  2  0  0  0  0
 36 37  1  0  0  0  0
 36 38  1  0  0  0  0
 38 39  2  0  0  0  0
 40 38  1  0  0  0  0
 40 43  1  0  0  0  0
 41 40  1  0  0  0  0
 42 41  2  0  0  0  0
M  END
>  <minimizedAffinity>
-6.37778425

$$$$

 OpenBabel03272502033D

 43 47  0  0  0  0  0  0  0  0999 V2000
   38.2380   27.0900   30.5080 C   0  0  0  0  0  0  0  0  0  0  0  0
   37.7010   27.7890   29.8380 H   0  0  0  0  0  0  0  0  0  0  0  0
   39.1300   26.7080   29.9680 H   0  0  0  0  0  0  0  0  0  0  0  0
   37.2900   25.9720   30.8540 C   0  0  0  0  0  0  0  0  0  0  0  0
   35.9430   26.0820   31.1310 C   0  0  0  0  0  0  0  0  0  0  0  0
   35.4400   24.8170   31.4010 C   0  0  0  0  0  0  0  0  0  0  0  0
   36.5110   23.9780   31.2760 N   0  0  0  0  0  0  0  0  0  0  0  0
   37.5880   24.6650   30.9560 N   0  0  0  0  0  0  0  0  0  0  0  0
   35.1400   21.9250   31.7410 N   0  0  0  0  0  0  0  0  0  0  0  0
   36.2930   22.5900   31.5000 C   0  0  0  0  0  0  0  0  0  0  0  0
   37.2830   21.6660   31.5020 N   0  0  0  0  0  0  0  0  0  0  0  0
   36.7830   20.4450   31.7370 C   0  0  0  0  0  0  0  0  0  0  0  0
   37.3860   19.2140   31.8340 C   0  0  0  0  0  0  0  0  0  0  0  0
   36.6240   18.1350   32.0840 N   0  0  0  0  0  0  0  0  0  0  0  0
   35.2870   18.2760   32.2360 C   0  0  0  0  0  0  0  0  0  0  0  0
   34.6940   19.4940   32.1410 N   0  0  0  0  0  0  0  0  0  0  0  0
   35.4250   20.5970   31.8920 C   0  0  0  0  0  0  0  0  0  0  0  0
   35.4000   27.0280   31.1280 H   0  0  0  0  0  0  0  0  0  0  0  0
   34.4220   24.6300   31.6450 H   0  0  0  0  0  0  0  0  0  0  0  0
   34.2030   22.3550   31.8020 H   0  0  0  0  0  0  0  0  0  0  0  0
   38.4730   19.1770   31.6980 H   0  0  0  0  0  0  0  0  0  0  0  0
   34.6990   17.3900   32.4370 H   0  0  0  0  0  0  0  0  0  0  0  0
   38.5690   27.7660   31.8120 C   0  0  0  0  0  0  0  0  0  0  0  0
   37.6400   27.7670   32.4320 H   0  0  0  0  0  0  0  0  0  0  0  0
   38.8980   28.8110   31.7010 H   0  0  0  0  0  0  0  0  0  0  0  0
   41.7410   26.1490   32.8650 C   0  0  0  0  0  0  0  0  0  0  0  0
   41.3340   25.4310   33.9950 C   0  0  0  0  0  0  0  0  0  0  0  0
   39.9850   25.5040   34.3880 C   0  0  0  0  0  0  0  0  0  0  0  0
   39.1550   26.2690   33.6440 N   0  0  0  0  0  0  0  0  0  0  0  0
   39.5780   26.9490   32.5610 C   0  0  0  0  0  0  0  0  0  0  0  0
   40.8390   26.8770   32.1990 N   0  0  0  0  0  0  0  0  0  0  0  0
   42.7870   26.0770   32.5810 H   0  0  0  0  0  0  0  0  0  0  0  0
   41.9740   24.8170   34.6000 H   0  0  0  0  0  0  0  0  0  0  0  0
   39.4410   24.8260   35.5140 N   0  0  0  0  0  0  0  0  0  0  0  0
   38.4620   25.4900   36.1780 C   0  0  0  0  0  3  0  0  0  0  0  0
   37.9140   24.8430   37.2850 C   0  0  0  0  0  0  0  0  0  0  0  0
   37.1290   25.3220   37.8570 H   0  0  0  0  0  0  0  0  0  0  0  0
   38.3950   23.5840   37.6330 C   0  0  0  0  0  0  0  0  0  0  0  0
   37.9070   22.9840   38.6360 O   0  0  0  0  0  0  0  0  0  0  0  0
   39.3810   22.9730   36.9230 N   0  0  0  0  0  0  0  0  0  0  0  0
   39.9030   23.6080   35.8550 C   0  0  0  0  0  0  0  0  0  0  0  0
   40.8170   23.1000   35.1540 O   0  0  0  0  0  0  0  0  0  0  0  0
   39.7400   22.0180   37.1940 H   0  0  0  0  0  0  0  0  0  0  0  0
  1  4  1  0  0  0  0
  1 23  1  0  0  0  0
  2  1  1  0  0  0  0
  3  1  1  0  0  0  0
  4  8  2  0  0  0  0
  4  5  1  0  0  0  0
  5  6  2  0  0  0  0
  6 19  1  0  0  0  0
  7  6  1  0  0  0  0
  7 10  1  0  0  0  0
  8  7  1  0  0  0  0
  9 20  1  0  0  0  0
  9 17  1  0  0  0  0
 10 11  2  0  0  0  0
 10  9  1  0  0  0  0
 11 12  1  0  0  0  0
 12 13  2  0  0  0  0
 12 17  1  0  0  0  0
 13 14  1  0  0  0  0
 14 15  2  0  0  0  0
 15 22  1  0  0  0  0
 16 15  1  0  0  0  0
 17 16  2  0  0  0  0
 18  5  1  0  0  0  0
 21 13  1  0  0  0  0
 23 24  1  0  0  0  0
 23 30  1  0  0  0  0
 25 23  1  0  0  0  0
 26 27  1  0  0  0  0
 27 28  2  0  0  0  0
 27 33  1  0  0  0  0
 28 34  1  0  0  0  0
 29 28  1  0  0  0  0
 30 29  2  0  0  0  0
 31 30  1  0  0  0  0
 31 26  2  0  0  0  0
 32 26  1  0  0  0  0
 34 41  1  0  0  0  0
 34 35  1  0  0  0  0
 35 36  2  0  0  0  0
 36 38  1  0  0  0  0
 36 37  1  0  0  0  0
 38 39  2  0  0  0  0
 40 43  1  0  0  0  0
 40 38  1  0  0  0  0
 41 40  1  0  0  0  0
 42 41  2  0  0  0  0
M  END
>  <minimizedAffinity>
-6.3005929

$$$$

 OpenBabel03272502033D

 43 47  0  0  0  0  0  0  0  0999 V2000
   38.9240   26.7610   35.6570 C   0  0  0  0  0  0  0  0  0  0  0  0
   39.0180   27.4840   36.4890 H   0  0  0  0  0  0  0  0  0  0  0  0
   39.9280   26.6170   35.2060 H   0  0  0  0  0  0  0  0  0  0  0  0
   37.9550   27.3390   34.6580 C   0  0  0  0  0  0  0  0  0  0  0  0
   38.0050   27.2130   33.2850 C   0  0  0  0  0  0  0  0  0  0  0  0
   36.9270   27.8950   32.7370 C   0  0  0  0  0  0  0  0  0  0  0  0
   36.2580   28.4140   33.8080 N   0  0  0  0  0  0  0  0  0  0  0  0
   36.8680   28.0820   34.9270 N   0  0  0  0  0  0  0  0  0  0  0  0
   34.4520   29.4150   32.3770 N   0  0  0  0  0  0  0  0  0  0  0  0
   35.0860   29.1780   33.5480 C   0  0  0  0  0  0  0  0  0  0  0  0
   34.3840   29.8260   34.5090 N   0  0  0  0  0  0  0  0  0  0  0  0
   33.3320   30.4590   33.9720 C   0  0  0  0  0  0  0  0  0  0  0  0
   32.3480   31.2350   34.5370 C   0  0  0  0  0  0  0  0  0  0  0  0
   31.3960   31.7560   33.7420 N   0  0  0  0  0  0  0  0  0  0  0  0
   31.4210   31.5100   32.4120 C   0  0  0  0  0  0  0  0  0  0  0  0
   32.3950   30.7440   31.8580 N   0  0  0  0  0  0  0  0  0  0  0  0
   33.3650   30.2060   32.6210 C   0  0  0  0  0  0  0  0  0  0  0  0
   38.7820   26.6590   32.7560 H   0  0  0  0  0  0  0  0  0  0  0  0
   36.7380   27.9500   31.6920 H   0  0  0  0  0  0  0  0  0  0  0  0
   34.7450   29.0550   31.4550 H   0  0  0  0  0  0  0  0  0  0  0  0
   32.3930   31.3890   35.6210 H   0  0  0  0  0  0  0  0  0  0  0  0
   30.6420   31.9430   31.7980 H   0  0  0  0  0  0  0  0  0  0  0  0
   38.2950   25.4820   36.1440 C   0  0  0  0  0  0  0  0  0  0  0  0
   37.2230   25.4980   35.8320 H   0  0  0  0  0  0  0  0  0  0  0  0
   38.3220   25.3610   37.2380 H   0  0  0  0  0  0  0  0  0  0  0  0
   40.7870   23.1030   34.7600 C   0  0  0  0  0  0  0  0  0  0  0  0
   39.9630   22.1510   34.1480 C   0  0  0  0  0  0  0  0  0  0  0  0
   38.5690   22.3270   34.2130 C   0  0  0  0  0  0  0  0  0  0  0  0
   38.1030   23.4150   34.8670 N   0  0  0  0  0  0  0  0  0  0  0  0
   38.9230   24.3140   35.4460 C   0  0  0  0  0  0  0  0  0  0  0  0
   40.2240   24.1440   35.3830 N   0  0  0  0  0  0  0  0  0  0  0  0
   41.8600   22.9460   34.6970 H   0  0  0  0  0  0  0  0  0  0  0  0
   40.3100   21.2810   33.6240 H   0  0  0  0  0  0  0  0  0  0  0  0
   37.6220   21.4370   33.6350 N   0  0  0  0  0  0  0  0  0  0  0  0
   36.4660   21.2860   34.3290 C   0  0  0  0  0  3  0  0  0  0  0  0
   35.5230   20.4180   33.7810 C   0  0  0  0  0  0  0  0  0  0  0  0
   34.5790   20.2540   34.2880 H   0  0  0  0  0  0  0  0  0  0  0  0
   35.8180   19.7740   32.5820 C   0  0  0  0  0  0  0  0  0  0  0  0
   34.9710   18.9820   32.0720 O   0  0  0  0  0  0  0  0  0  0  0  0
   36.9990   19.9700   31.9370 N   0  0  0  0  0  0  0  0  0  0  0  0
   37.9040   20.8110   32.4770 C   0  0  0  0  0  0  0  0  0  0  0  0
   39.0160   21.0390   31.9330 O   0  0  0  0  0  0  0  0  0  0  0  0
   37.2170   19.4780   31.0290 H   0  0  0  0  0  0  0  0  0  0  0  0
  1 23  1  0  0  0  0
  1  2  1  0  0  0  0
  3  1  1  0  0  0  0
  4  8  2  0  0  0  0
  4  1  1  0  0  0  0
  5  4  1  0  0  0  0
  6  5  2  0  0  0  0
  6  7  1  0  0  0  0
  7  8  1  0  0  0  0
  9 17  1  0  0  0  0
  9 10  1  0  0  0  0
 10  7  1  0  0  0  0
 10 11  2  0  0  0  0
 12 11  1  0  0  0  0
 12 13  1  0  0  0  0
 13 21  1  0  0  0  0
 14 13  2  0  0  0  0
 15 14  1  0  0  0  0
 16 15  2  0  0  0  0
 16 17  1  0  0  0  0
 17 12  2  0  0  0  0
 18  5  1  0  0  0  0
 19  6  1  0  0  0  0
 20  9  1  0  0  0  0
 22 15  1  0  0  0  0
 23 25  1  0  0  0  0
 24 23  1  0  0  0  0
 26 31  1  0  0  0  0
 27 28  1  0  0  0  0
 27 26  2  0  0  0  0
 28 29  2  0  0  0  0
 29 30  1  0  0  0  0
 30 23  1  0  0  0  0
 31 30  2  0  0  0  0
 32 26  1  0  0  0  0
 33 27  1  0  0  0  0
 34 28  1  0  0  0  0
 34 35  1  0  0  0  0
 36 37  1  0  0  0  0
 36 35  2  0  0  0  0
 38 36  1  0  0  0  0
 39 38  2  0  0  0  0
 40 41  1  0  0  0  0
 40 38  1  0  0  0  0
 41 34  1  0  0  0  0
 42 41  2  0  0  0  0
 43 40  1  0  0  0  0
M  END
>  <minimizedAffinity>
-6.28406906

$$$$

 OpenBabel03272502033D

 43 47  0  0  0  0  0  0  0  0999 V2000
   37.4300   27.8120   31.2360 C   0  0  0  0  0  0  0  0  0  0  0  0
   38.4220   27.7050   30.7550 H   0  0  0  0  0  0  0  0  0  0  0  0
   37.5860   28.1560   32.2800 H   0  0  0  0  0  0  0  0  0  0  0  0
   36.7580   26.4640   31.1990 C   0  0  0  0  0  0  0  0  0  0  0  0
   35.4090   26.2130   31.0550 C   0  0  0  0  0  0  0  0  0  0  0  0
   35.2080   24.8400   31.0710 C   0  0  0  0  0  0  0  0  0  0  0  0
   36.4550   24.3040   31.2260 N   0  0  0  0  0  0  0  0  0  0  0  0
   37.3540   25.2640   31.2990 N   0  0  0  0  0  0  0  0  0  0  0  0
   35.6110   21.9410   31.1090 N   0  0  0  0  0  0  0  0  0  0  0  0
   36.5630   22.8860   31.2780 C   0  0  0  0  0  0  0  0  0  0  0  0
   37.7230   22.2310   31.5220 N   0  0  0  0  0  0  0  0  0  0  0  0
   37.5220   20.9050   31.5110 C   0  0  0  0  0  0  0  0  0  0  0  0
   38.3810   19.8500   31.7050 C   0  0  0  0  0  0  0  0  0  0  0  0
   37.8970   18.5970   31.6350 N   0  0  0  0  0  0  0  0  0  0  0  0
   36.5840   18.3970   31.3780 C   0  0  0  0  0  0  0  0  0  0  0  0
   35.7380   19.4420   31.1880 N   0  0  0  0  0  0  0  0  0  0  0  0
   36.1860   20.7100   31.2500 C   0  0  0  0  0  0  0  0  0  0  0  0
   34.6560   26.9950   30.9490 H   0  0  0  0  0  0  0  0  0  0  0  0
   34.2520   24.3850   30.9780 H   0  0  0  0  0  0  0  0  0  0  0  0
   34.6140   22.1250   30.9070 H   0  0  0  0  0  0  0  0  0  0  0  0
   39.4310   20.0900   31.9080 H   0  0  0  0  0  0  0  0  0  0  0  0
   36.2220   17.3780   31.3290 H   0  0  0  0  0  0  0  0  0  0  0  0
   36.5520   28.7300   30.4260 C   0  0  0  0  0  0  0  0  0  0  0  0
   35.5100   28.3350   30.4890 H   0  0  0  0  0  0  0  0  0  0  0  0
   36.8260   28.7810   29.3610 H   0  0  0  0  0  0  0  0  0  0  0  0
   37.0710   32.3520   31.0530 C   0  0  0  0  0  0  0  0  0  0  0  0
   36.4310   32.5220   32.2860 C   0  0  0  0  0  0  0  0  0  0  0  0
   35.8300   31.4040   32.8920 C   0  0  0  0  0  0  0  0  0  0  0  0
   35.9070   30.2210   32.2420 N   0  0  0  0  0  0  0  0  0  0  0  0
   36.5300   30.0900   31.0550 C   0  0  0  0  0  0  0  0  0  0  0  0
   37.0890   31.1380   30.4940 N   0  0  0  0  0  0  0  0  0  0  0  0
   37.5280   33.2290   30.6040 H   0  0  0  0  0  0  0  0  0  0  0  0
   36.3590   33.4510   32.8210 H   0  0  0  0  0  0  0  0  0  0  0  0
   35.1500   31.4390   34.1400 N   0  0  0  0  0  0  0  0  0  0  0  0
   34.0780   30.6140   34.2440 C   0  0  0  0  0  3  0  0  0  0  0  0
   33.3960   30.6310   35.4590 C   0  0  0  0  0  0  0  0  0  0  0  0
   32.5310   29.9950   35.6040 H   0  0  0  0  0  0  0  0  0  0  0  0
   33.8460   31.4760   36.4700 C   0  0  0  0  0  0  0  0  0  0  0  0
   33.2370   31.5030   37.5800 O   0  0  0  0  0  0  0  0  0  0  0  0
   34.9300   32.2800   36.3010 N   0  0  0  0  0  0  0  0  0  0  0  0
   35.5810   32.2550   35.1210 C   0  0  0  0  0  0  0  0  0  0  0  0
   36.5910   32.9720   34.8970 O   0  0  0  0  0  0  0  0  0  0  0  0
   35.2650   32.9180   37.0720 H   0  0  0  0  0  0  0  0  0  0  0  0
  1  3  1  0  0  0  0
  2  1  1  0  0  0  0
  4  1  1  0  0  0  0
  4  8  2  0  0  0  0
  5  6  2  0  0  0  0
  5  4  1  0  0  0  0
  6  7  1  0  0  0  0
  7 10  1  0  0  0  0
  7  8  1  0  0  0  0
  9 17  1  0  0  0  0
  9 10  1  0  0  0  0
 10 11  2  0  0  0  0
 12 11  1  0  0  0  0
 12 13  1  0  0  0  0
 13 21  1  0  0  0  0
 14 13  2  0  0  0  0
 15 14  1  0  0  0  0
 16 17  1  0  0  0  0
 16 15  2  0  0  0  0
 17 12  2  0  0  0  0
 18  5  1  0  0  0  0
 19  6  1  0  0  0  0
 20  9  1  0  0  0  0
 22 15  1  0  0  0  0
 23 24  1  0  0  0  0
 23 30  1  0  0  0  0
 23  1  1  0  0  0  0
 25 23  1  0  0  0  0
 26 27  1  0  0  0  0
 27 33  1  0  0  0  0
 27 28  2  0  0  0  0
 28 34  1  0  0  0  0
 29 28  1  0  0  0  0
 30 29  2  0  0  0  0
 31 26  2  0  0  0  0
 31 30  1  0  0  0  0
 32 26  1  0  0  0  0
 34 35  1  0  0  0  0
 34 41  1  0  0  0  0
 35 36  2  0  0  0  0
 36 37  1  0  0  0  0
 36 38  1  0  0  0  0
 38 39  2  0  0  0  0
 40 38  1  0  0  0  0
 40 43  1  0  0  0  0
 41 40  1  0  0  0  0
 42 41  2  0  0  0  0
M  END
>  <minimizedAffinity>
-6.28117037

$$$$
