
 OpenBabel03272507333D

 37 40  0  0  1  0  0  0  0  0999 V2000
   33.0910   27.6680   48.2940 C   0  0  0  0  0  0  0  0  0  0  0  0
   31.8730   27.6150   48.6700 O   0  0  0  0  0  0  0  0  0  0  0  0
   35.9260   29.2430   49.7990 C   0  0  0  0  0  0  0  0  0  0  0  0
   34.9500   29.6880   50.6680 C   0  0  0  0  0  0  0  0  0  0  0  0
   33.7270   29.1630   50.2290 C   0  0  0  0  0  0  0  0  0  0  0  0
   34.0410   28.4230   49.1110 C   0  0  0  0  0  0  0  0  0  0  0  0
   35.3370   28.4980   48.8970 O   0  0  0  0  0  0  0  0  0  0  0  0
   35.0530   30.3320   51.5490 H   0  0  0  0  0  0  0  0  0  0  0  0
   32.7710   29.3350   50.7070 H   0  0  0  0  0  0  0  0  0  0  0  0
   37.3250   29.5990   49.9570 C   0  0  0  0  0  0  0  0  0  0  0  0
   38.0010   29.0290   50.8250 O   0  0  0  0  0  0  0  0  0  0  0  0
   37.8440   30.6120   49.0760 C   0  0  0  0  0  0  0  0  0  0  0  0
   38.2020   31.8260   49.6470 C   0  0  0  0  0  0  0  0  0  0  0  0
   38.7070   32.8280   48.8160 C   0  0  0  0  0  0  0  0  0  0  0  0
   38.8200   32.5530   47.4710 N   0  0  0  0  0  0  0  0  0  0  0  0
   38.4670   31.3760   46.9580 C   0  0  0  0  0  0  0  0  0  0  0  0
   37.9810   30.4030   47.7470 N   0  0  0  0  0  0  0  0  0  0  0  0
   38.1010   32.0090   50.7020 H   0  0  0  0  0  0  0  0  0  0  0  0
   38.9850   33.7730   49.2600 H   0  0  0  0  0  0  0  0  0  0  0  0
   38.5880   31.2420   45.8940 H   0  0  0  0  0  0  0  0  0  0  0  0
   33.5430   26.9680   47.0460 C   0  0  1  0  0  0  0  0  0  0  0  0
   33.7470   25.4290   47.3420 C   0  0  0  0  0  0  0  0  0  0  0  0
   32.7100   25.9430   46.4190 C   0  0  2  0  0  0  0  0  0  0  0  0
   34.4820   27.3680   46.6130 H   0  0  0  0  0  0  0  0  0  0  0  0
   33.4890   25.0740   48.3360 H   0  0  0  0  0  0  0  0  0  0  0  0
   34.6370   24.9670   46.8890 H   0  0  0  0  0  0  0  0  0  0  0  0
   31.6700   25.8720   46.8570 H   0  0  0  0  0  0  0  0  0  0  0  0
   32.7610   25.8090   44.9990 N   0  0  0  0  0  0  0  0  0  0  0  0
   33.7290   25.0560   44.3940 C   0  0  0  0  0  3  0  0  0  0  0  0
   33.7880   24.9210   43.0210 C   0  0  0  0  0  0  0  0  0  0  0  0
   34.6050   24.2950   42.6730 H   0  0  0  0  0  0  0  0  0  0  0  0
   32.8710   25.5380   42.1960 C   0  0  0  0  0  0  0  0  0  0  0  0
   33.0490   25.3240   40.9690 O   0  0  0  0  0  0  0  0  0  0  0  0
   31.9230   26.2770   42.8010 N   0  0  0  0  0  0  0  0  0  0  0  0
   31.9040   26.3820   44.1400 C   0  0  0  0  0  0  0  0  0  0  0  0
   30.9760   27.0930   44.5750 O   0  0  0  0  0  0  0  0  0  0  0  0
   31.2470   26.7300   42.1560 H   0  0  0  0  0  0  0  0  0  0  0  0
  1  2  2  0  0  0  0
  1  6  1  0  0  0  0
  3 10  1  0  0  0  0
  3  4  2  0  0  0  0
  4  8  1  0  0  0  0
  5  4  1  0  0  0  0
  5  9  1  0  0  0  0
  6  5  2  0  0  0  0
  7  6  1  0  0  0  0
  7  3  1  0  0  0  0
 10 11  2  0  0  0  0
 12 13  1  0  0  0  0
 12 10  1  0  0  0  0
 13 18  1  0  0  0  0
 14 19  1  0  0  0  0
 14 13  2  0  0  0  0
 15 14  1  0  0  0  0
 16 15  2  0  0  0  0
 16 17  1  0  0  0  0
 17 12  2  0  0  0  0
 20 16  1  0  0  0  0
 21 24  1  6  0  0  0
 21 22  1  0  0  0  0
 21  1  1  0  0  0  0
 22 25  1  0  0  0  0
 23 27  1  1  0  0  0
 23 21  1  0  0  0  0
 23 22  1  0  0  0  0
 26 22  1  0  0  0  0
 28 23  1  0  0  0  0
 29 28  1  0  0  0  0
 30 29  2  0  0  0  0
 31 30  1  0  0  0  0
 32 34  1  0  0  0  0
 32 30  1  0  0  0  0
 33 32  2  0  0  0  0
 34 35  1  0  0  0  0
 35 36  2  0  0  0  0
 35 28  1  0  0  0  0
 37 34  1  0  0  0  0
M  END
>  <minimizedAffinity>
-4.88412905

>  <minimizedRMSD>
0.547388017

$$$$
