
 OpenBabel03272508253D

 26 28  0  0  1  0  0  0  0  0999 V2000
   36.1290   30.4560   49.4190 C   0  0  1  0  0  0  0  0  0  0  0  0
   35.8150   29.1980   48.7530 C   0  0  1  0  0  0  0  0  0  0  0  0
   36.6410   29.1490   50.0120 C   0  0  0  0  0  0  0  0  0  0  0  0
   35.4400   31.0460   50.0760 H   0  0  0  0  0  0  0  0  0  0  0  0
   36.4380   28.9970   47.8310 H   0  0  0  0  0  0  0  0  0  0  0  0
   37.7280   28.9270   49.9570 H   0  0  0  0  0  0  0  0  0  0  0  0
   36.1160   28.7560   50.9030 H   0  0  0  0  0  0  0  0  0  0  0  0
   34.5080   28.6260   48.6970 N   0  0  0  0  0  0  0  0  0  0  0  0
   34.1460   27.7050   47.7600 C   0  0  0  0  0  0  0  0  0  0  0  0
   32.9070   27.1330   47.6690 C   0  0  0  0  0  0  0  0  0  0  0  0
   32.7220   26.4000   46.8740 H   0  0  0  0  0  0  0  0  0  0  0  0
   31.9550   27.5160   48.5960 C   0  0  0  0  0  0  0  0  0  0  0  0
   30.8060   27.0060   48.5390 O   0  0  0  0  0  0  0  0  0  0  0  0
   32.2920   28.4370   49.5460 N   0  0  0  0  0  0  0  0  0  0  0  0
   33.5410   28.9600   49.5710 C   0  0  0  0  0  0  0  0  0  0  0  0
   33.7350   29.7840   50.4720 O   0  0  0  0  0  0  0  0  0  0  0  0
   31.5280   28.6620   50.1900 H   0  0  0  0  0  0  0  0  0  0  0  0
   37.2390   31.3470   48.9190 C   0  0  0  0  0  0  0  0  0  0  0  0
   37.4880   32.5220   49.6510 C   0  0  0  0  0  0  0  0  0  0  0  0
   38.4920   33.3450   49.1710 C   0  0  0  0  0  0  0  0  0  0  0  0
   39.1740   32.9910   48.0480 N   0  0  0  0  0  0  0  0  0  0  0  0
   38.9080   31.8380   47.3580 C   0  0  0  0  0  0  0  0  0  0  0  0
   37.9200   31.0190   47.8220 N   0  0  0  0  0  0  0  0  0  0  0  0
   36.9480   32.8080   50.5420 H   0  0  0  0  0  0  0  0  0  0  0  0
   38.7690   34.2810   49.6600 H   0  0  0  0  0  0  0  0  0  0  0  0
   39.4840   31.6100   46.4730 H   0  0  0  0  0  0  0  0  0  0  0  0
  1  3  1  0  0  0  0
  1  4  1  1  0  0  0
  2  5  1  6  0  0  0
  2  1  1  0  0  0  0
  2  3  1  0  0  0  0
  3  7  1  0  0  0  0
  6  3  1  0  0  0  0
  8  2  1  0  0  0  0
  8 15  1  0  0  0  0
  9  8  1  0  0  0  0
 10  9  2  0  0  0  0
 10 12  1  0  0  0  0
 11 10  1  0  0  0  0
 12 14  1  0  0  0  0
 13 12  2  0  0  0  0
 14 15  1  0  0  0  0
 14 17  1  0  0  0  0
 15 16  2  0  0  0  0
 18  1  1  0  0  0  0
 18 19  1  0  0  0  0
 19 24  1  0  0  0  0
 20 19  2  0  0  0  0
 20 25  1  0  0  0  0
 21 20  1  0  0  0  0
 22 23  1  0  0  0  0
 22 21  2  0  0  0  0
 23 18  2  0  0  0  0
 26 22  1  0  0  0  0
M  END
>  <minimizedAffinity>
-5.36315441

>  <minimizedRMSD>
1.12852764

$$$$
