
 OpenBabel03272504033D

 42 45  0  0  0  0  0  0  0  0999 V2000
   34.4990   29.4020   50.2420 C   0  0  0  0  0  0  0  0  0  0  0  0
   33.7650   30.1960   49.9130 H   0  0  0  0  0  0  0  0  0  0  0  0
   34.1800   29.1260   51.2420 H   0  0  0  0  0  0  0  0  0  0  0  0
   35.8300   30.0450   50.2230 C   0  0  0  0  0  0  0  0  0  0  0  0
   36.7890   29.8050   51.2090 C   0  0  0  0  0  0  0  0  0  0  0  0
   37.8910   30.5400   50.9040 C   0  0  0  0  0  0  0  0  0  0  0  0
   37.6260   31.2080   49.7750 N   0  0  0  0  0  0  0  0  0  0  0  0
   36.4040   30.8920   49.4050 N   0  0  0  0  0  0  0  0  0  0  0  0
   36.6950   29.1510   52.0750 H   0  0  0  0  0  0  0  0  0  0  0  0
   38.8470   30.6430   51.4000 H   0  0  0  0  0  0  0  0  0  0  0  0
   38.4010   32.1150   49.0080 C   0  0  0  0  0  0  0  0  0  0  0  0
   38.7710   33.2790   49.6290 C   0  0  0  0  0  0  0  0  0  0  0  0
   39.5320   34.2670   49.0060 C   0  0  0  0  0  0  0  0  0  0  0  0
   39.9170   34.0280   47.6960 C   0  0  0  0  0  0  0  0  0  0  0  0
   39.5500   32.8640   47.0680 C   0  0  0  0  0  0  0  0  0  0  0  0
   38.7960   31.8980   47.7000 C   0  0  0  0  0  0  0  0  0  0  0  0
   38.5020   33.5300   50.6600 H   0  0  0  0  0  0  0  0  0  0  0  0
   39.8280   35.1770   49.4750 H   0  0  0  0  0  0  0  0  0  0  0  0
   40.5070   34.7070   47.0950 H   0  0  0  0  0  0  0  0  0  0  0  0
   39.7940   32.5670   46.0390 H   0  0  0  0  0  0  0  0  0  0  0  0
   38.4770   30.9630   47.2560 H   0  0  0  0  0  0  0  0  0  0  0  0
   34.3620   28.2810   49.2840 C   0  0  0  0  0  0  0  0  0  0  0  0
   33.6100   27.5790   49.7320 H   0  0  0  0  0  0  0  0  0  0  0  0
   35.3080   27.6940   49.3140 H   0  0  0  0  0  0  0  0  0  0  0  0
   33.9120   28.5910   47.9550 C   0  0  0  0  0  0  0  0  0  0  0  0
   32.6430   28.2920   47.5530 C   0  0  0  0  0  0  0  0  0  0  0  0
   32.1880   28.5920   46.2470 C   0  0  0  0  0  0  0  0  0  0  0  0
   33.1130   29.2000   45.4250 N   0  0  0  0  0  0  0  0  0  0  0  0
   34.3620   29.4780   45.8630 C   0  0  0  0  0  0  0  0  0  0  0  0
   34.7490   29.1710   47.1210 N   0  0  0  0  0  0  0  0  0  0  0  0
   31.9330   27.8110   48.2250 H   0  0  0  0  0  0  0  0  0  0  0  0
   31.2040   28.3640   45.9250 H   0  0  0  0  0  0  0  0  0  0  0  0
   35.2670   30.1070   44.9620 N   0  0  0  0  0  0  0  0  0  0  0  0
   36.5290   30.4770   45.2510 C   0  0  0  0  0  0  0  0  0  0  0  0
   37.3090   31.0790   44.2880 C   0  0  0  0  0  0  0  0  0  0  0  0
   38.3320   31.3740   44.5410 H   0  0  0  0  0  0  0  0  0  0  0  0
   36.8420   31.3260   43.0080 C   0  0  0  0  0  0  0  0  0  0  0  0
   37.5200   31.8710   42.1090 O   0  0  0  0  0  0  0  0  0  0  0  0
   35.5830   30.9440   42.7590 N   0  0  0  0  0  0  0  0  0  0  0  0
   34.8490   30.3650   43.7010 C   0  0  0  0  0  0  0  0  0  0  0  0
   33.6590   30.0330   43.3770 O   0  0  0  0  0  0  0  0  0  0  0  0
   35.1910   31.1150   41.7940 H   0  0  0  0  0  0  0  0  0  0  0  0
  1  3  1  0  0  0  0
  2  1  1  0  0  0  0
  4  1  1  0  0  0  0
  4  5  1  0  0  0  0
  5  9  1  0  0  0  0
  6  5  2  0  0  0  0
  6 10  1  0  0  0  0
  7  6  1  0  0  0  0
  8  7  1  0  0  0  0
  8  4  2  0  0  0  0
 11 12  1  0  0  0  0
 11  7  1  0  0  0  0
 12 17  1  0  0  0  0
 13 18  1  0  0  0  0
 13 12  2  0  0  0  0
 14 13  1  0  0  0  0
 15 14  2  0  0  0  0
 15 16  1  0  0  0  0
 16 11  2  0  0  0  0
 19 14  1  0  0  0  0
 20 15  1  0  0  0  0
 21 16  1  0  0  0  0
 22 24  1  0  0  0  0
 22 23  1  0  0  0  0
 22  1  1  0  0  0  0
 25 22  1  0  0  0  0
 26 25  1  0  0  0  0
 26 31  1  0  0  0  0
 27 26  2  0  0  0  0
 28 29  2  0  0  0  0
 28 27  1  0  0  0  0
 29 30  1  0  0  0  0
 30 25  2  0  0  0  0
 32 27  1  0  0  0  0
 33 34  1  0  0  0  0
 33 29  1  0  0  0  0
 35 36  1  0  0  0  0
 35 34  2  0  0  0  0
 37 35  1  0  0  0  0
 38 37  2  0  0  0  0
 39 37  1  0  0  0  0
 39 40  1  0  0  0  0
 40 33  1  0  0  0  0
 41 40  2  0  0  0  0
 42 39  1  0  0  0  0
M  END
>  <minimizedAffinity>
-6.56491756

>  <minimizedRMSD>
1.59077144

$$$$
