
 OpenBabel03272509043D

 34 36  0  0  0  0  0  0  0  0999 V2000
   37.4210   29.6370   51.5700 C   0  0  0  0  0  0  0  0  0  0  0  0
   38.1810   30.3580   50.6120 C   0  0  0  0  0  0  0  0  0  0  0  0
   37.5080   30.8070   49.4330 C   0  0  0  0  0  0  0  0  0  0  0  0
   36.1870   30.5070   49.3200 N   0  0  0  0  0  0  0  0  0  0  0  0
   35.5190   29.8250   50.2510 C   0  0  0  0  0  0  0  0  0  0  0  0
   36.1380   29.3950   51.3670 N   0  0  0  0  0  0  0  0  0  0  0  0
   38.0090   29.3480   52.4070 H   0  0  0  0  0  0  0  0  0  0  0  0
   39.2310   30.5980   50.7000 H   0  0  0  0  0  0  0  0  0  0  0  0
   38.2310   31.5350   48.4460 N   0  0  0  0  0  0  0  0  0  0  0  0
   38.7980   30.7160   47.5290 C   0  0  0  0  0  3  0  0  0  0  0  0
   39.5420   31.2970   46.4970 C   0  0  0  0  0  0  0  0  0  0  0  0
   40.0340   30.7340   45.7180 H   0  0  0  0  0  0  0  0  0  0  0  0
   39.6640   32.6580   46.4540 C   0  0  0  0  0  0  0  0  0  0  0  0
   40.3040   33.2710   45.5780 O   0  0  0  0  0  0  0  0  0  0  0  0
   39.0810   33.4420   47.3900 N   0  0  0  0  0  0  0  0  0  0  0  0
   38.3670   32.8740   48.3800 C   0  0  0  0  0  0  0  0  0  0  0  0
   37.7580   33.4270   49.3310 O   0  0  0  0  0  0  0  0  0  0  0  0
   39.1220   34.4770   47.4330 H   0  0  0  0  0  0  0  0  0  0  0  0
   34.1210   29.5860   49.9840 C   0  0  0  0  0  3  0  0  0  0  0  0
   33.7810   28.5410   49.3100 C   0  0  0  0  0  3  0  0  0  0  0  0
   32.4300   28.1060   48.9250 C   0  0  0  0  0  0  0  0  0  0  0  0
   31.9630   28.9300   48.3270 H   0  0  0  0  0  0  0  0  0  0  0  0
   31.7450   27.9480   49.7890 H   0  0  0  0  0  0  0  0  0  0  0  0
   32.4490   26.8920   48.0500 C   0  0  0  0  0  0  0  0  0  0  0  0
   31.3610   26.1390   47.6860 C   0  0  0  0  0  0  0  0  0  0  0  0
   31.5000   25.0360   46.8710 C   0  0  0  0  0  0  0  0  0  0  0  0
   32.7540   24.6470   46.3850 C   0  0  0  0  0  0  0  0  0  0  0  0
   33.8490   25.3830   46.7350 C   0  0  0  0  0  0  0  0  0  0  0  0
   33.6910   26.4870   47.5540 C   0  0  0  0  0  0  0  0  0  0  0  0
   30.3990   26.4690   48.0820 H   0  0  0  0  0  0  0  0  0  0  0  0
   30.5930   24.4910   46.6270 H   0  0  0  0  0  0  0  0  0  0  0  0
   32.7950   23.7860   45.7590 H   0  0  0  0  0  0  0  0  0  0  0  0
   34.8370   25.1130   46.3790 H   0  0  0  0  0  0  0  0  0  0  0  0
   34.5720   27.0400   47.8080 H   0  0  0  0  0  0  0  0  0  0  0  0
  1  7  1  0  0  0  0
  2  8  1  0  0  0  0
  2  1  2  0  0  0  0
  3  2  1  0  0  0  0
  4  3  2  0  0  0  0
  4  5  1  0  0  0  0
  5  6  2  0  0  0  0
  6  1  1  0  0  0  0
  9  3  1  0  0  0  0
 10  9  1  0  0  0  0
 11 10  2  0  0  0  0
 12 11  1  0  0  0  0
 13 11  1  0  0  0  0
 13 15  1  0  0  0  0
 14 13  2  0  0  0  0
 15 18  1  0  0  0  0
 15 16  1  0  0  0  0
 16  9  1  0  0  0  0
 16 17  2  0  0  0  0
 19  5  1  0  0  0  0
 20 19  2  0  0  0  0
 21 20  1  0  0  0  0
 21 23  1  0  0  0  0
 22 21  1  0  0  0  0
 24 21  1  0  0  0  0
 25 24  1  0  0  0  0
 25 30  1  0  0  0  0
 26 25  2  0  0  0  0
 27 28  2  0  0  0  0
 27 26  1  0  0  0  0
 28 29  1  0  0  0  0
 29 34  1  0  0  0  0
 29 24  2  0  0  0  0
 31 26  1  0  0  0  0
 32 27  1  0  0  0  0
 33 28  1  0  0  0  0
M  END
>  <minimizedAffinity>
-6.53854895

>  <minimizedRMSD>
1.59328055

$$$$
