
 OpenBabel03272508583D

 41 44  0  0  1  0  0  0  0  0999 V2000
   39.1680   31.4490   43.3650 C   0  0  0  0  0  0  0  0  0  0  0  0
   40.1570   30.5170   43.5340 C   0  0  0  0  0  0  0  0  0  0  0  0
   40.8850   30.1580   42.4050 C   0  0  0  0  0  0  0  0  0  0  0  0
   40.5670   30.7560   41.2040 C   0  0  0  0  0  0  0  0  0  0  0  0
   39.5670   31.6940   41.0450 C   0  0  0  0  0  0  0  0  0  0  0  0
   38.8780   32.0220   42.1670 N   0  0  0  0  0  0  0  0  0  0  0  0
   40.3900   30.0590   44.4880 H   0  0  0  0  0  0  0  0  0  0  0  0
   41.6700   29.4380   42.4620 H   0  0  0  0  0  0  0  0  0  0  0  0
   41.1500   30.4560   40.3490 H   0  0  0  0  0  0  0  0  0  0  0  0
   38.3700   31.8710   44.5420 C   0  0  0  0  0  0  0  0  0  0  0  0
   37.2790   32.4390   44.4330 O   0  0  0  0  0  0  0  0  0  0  0  0
   38.9340   31.5850   45.8540 N   0  0  0  0  0  0  0  0  0  0  0  0
   39.9230   31.3110   46.0170 H   0  0  0  0  0  0  0  0  0  0  0  0
   38.4130   31.1010   48.2420 C   0  0  2  0  0  0  0  0  0  0  0  0
   38.6420   32.5660   48.1340 C   0  0  0  0  0  0  0  0  0  0  0  0
   38.0540   31.6930   46.9950 C   0  0  1  0  0  0  0  0  0  0  0  0
   39.3590   30.5300   48.3590 H   0  0  0  0  0  0  0  0  0  0  0  0
   37.9440   33.2670   48.6400 H   0  0  0  0  0  0  0  0  0  0  0  0
   39.6460   32.9660   48.0050 H   0  0  0  0  0  0  0  0  0  0  0  0
   36.9640   31.9120   46.7820 H   0  0  0  0  0  0  0  0  0  0  0  0
   35.0490   30.2050   49.5370 C   0  0  0  0  0  0  0  0  0  0  0  0
   35.3730   29.5610   50.7650 C   0  0  0  0  0  0  0  0  0  0  0  0
   36.7620   29.4510   51.1360 C   0  0  0  0  0  0  0  0  0  0  0  0
   37.7260   29.9660   50.3000 N   0  0  0  0  0  0  0  0  0  0  0  0
   37.3260   30.5680   49.1430 C   0  0  0  0  0  0  0  0  0  0  0  0
   36.0060   30.7060   48.7280 N   0  0  0  0  0  0  0  0  0  0  0  0
   34.0140   30.2760   49.2800 H   0  0  0  0  0  0  0  0  0  0  0  0
   34.6320   29.1610   51.4120 H   0  0  0  0  0  0  0  0  0  0  0  0
   37.0150   28.9630   52.0660 H   0  0  0  0  0  0  0  0  0  0  0  0
   39.2750   32.2800   39.7500 C   0  0  0  0  0  0  0  0  0  0  0  0
   38.7950   33.4290   39.6750 O   0  0  0  0  0  0  0  0  0  0  0  0
   41.8460   30.6700   36.3790 H   0  0  0  0  0  0  0  0  0  0  0  0
   40.9450   30.6400   36.9040 N   0  0  0  0  0  0  0  0  0  0  0  0
   40.7960   31.5020   37.9480 C   0  0  0  0  0  3  0  0  0  0  0  0
   39.5870   31.4250   38.6110 C   0  0  0  0  0  0  0  0  0  0  0  0
   38.5770   30.5470   38.2650 C   0  0  0  0  0  0  0  0  0  0  0  0
   37.4910   30.4780   38.8600 O   0  0  0  0  0  0  0  0  0  0  0  0
   38.7770   29.7050   37.2110 N   0  0  0  0  0  0  0  0  0  0  0  0
   39.9660   29.7800   36.5580 C   0  0  0  0  0  0  0  0  0  0  0  0
   40.0910   28.9790   35.5950 O   0  0  0  0  0  0  0  0  0  0  0  0
   38.0220   29.0440   36.9460 H   0  0  0  0  0  0  0  0  0  0  0  0
  1  2  1  0  0  0  0
  1 10  1  0  0  0  0
  2  7  1  0  0  0  0
  3  8  1  0  0  0  0
  3  2  2  0  0  0  0
  4  3  1  0  0  0  0
  5  4  2  0  0  0  0
  5  6  1  0  0  0  0
  6  1  2  0  0  0  0
  9  4  1  0  0  0  0
 10 12  1  0  0  0  0
 11 10  2  0  0  0  0
 12 13  1  0  0  0  0
 12 16  1  0  0  0  0
 14 17  1  6  0  0  0
 14 25  1  0  0  0  0
 15 14  1  0  0  0  0
 15 18  1  0  0  0  0
 16 20  1  6  0  0  0
 16 15  1  0  0  0  0
 16 14  1  0  0  0  0
 19 15  1  0  0  0  0
 21 22  1  0  0  0  0
 22 23  2  0  0  0  0
 22 28  1  0  0  0  0
 23 29  1  0  0  0  0
 24 23  1  0  0  0  0
 25 24  2  0  0  0  0
 26 25  1  0  0  0  0
 26 21  2  0  0  0  0
 27 21  1  0  0  0  0
 30  5  1  0  0  0  0
 31 30  2  0  0  0  0
 32 33  1  0  0  0  0
 33 34  1  0  0  0  0
 34 35  2  0  0  0  0
 35 30  1  0  0  0  0
 36 35  1  0  0  0  0
 36 37  2  0  0  0  0
 38 36  1  0  0  0  0
 39 33  1  0  0  0  0
 39 38  1  0  0  0  0
 40 39  2  0  0  0  0
 41 38  1  0  0  0  0
M  END
>  <minimizedAffinity>
-5.00396109

>  <minimizedRMSD>
0.322189897

$$$$
