
 OpenBabel03272507333D

 37 40  0  0  1  0  0  0  0  0999 V2000
   33.1100   27.6470   48.2710 C   0  0  0  0  0  0  0  0  0  0  0  0
   31.8820   27.6100   48.6150 O   0  0  0  0  0  0  0  0  0  0  0  0
   35.9210   29.2070   49.8350 C   0  0  0  0  0  0  0  0  0  0  0  0
   34.9290   29.6600   50.6810 C   0  0  0  0  0  0  0  0  0  0  0  0
   33.7130   29.1410   50.2170 C   0  0  0  0  0  0  0  0  0  0  0  0
   34.0460   28.3980   49.1070 C   0  0  0  0  0  0  0  0  0  0  0  0
   35.3470   28.4640   48.9220 O   0  0  0  0  0  0  0  0  0  0  0  0
   35.0170   30.3050   51.5630 H   0  0  0  0  0  0  0  0  0  0  0  0
   32.7480   29.3200   50.6740 H   0  0  0  0  0  0  0  0  0  0  0  0
   37.3190   29.5550   50.0230 C   0  0  0  0  0  0  0  0  0  0  0  0
   37.9840   28.9480   50.8740 O   0  0  0  0  0  0  0  0  0  0  0  0
   37.8480   30.6040   49.1910 C   0  0  0  0  0  0  0  0  0  0  0  0
   38.1810   31.7990   49.8130 C   0  0  0  0  0  0  0  0  0  0  0  0
   38.6950   32.8350   49.0300 C   0  0  0  0  0  0  0  0  0  0  0  0
   38.8410   32.6090   47.6780 N   0  0  0  0  0  0  0  0  0  0  0  0
   38.5110   31.4480   47.1160 C   0  0  0  0  0  0  0  0  0  0  0  0
   38.0160   30.4430   47.8580 N   0  0  0  0  0  0  0  0  0  0  0  0
   38.0550   31.9430   50.8710 H   0  0  0  0  0  0  0  0  0  0  0  0
   38.9550   33.7650   49.5130 H   0  0  0  0  0  0  0  0  0  0  0  0
   38.6570   31.3530   46.0510 H   0  0  0  0  0  0  0  0  0  0  0  0
   33.5870   26.9330   47.0400 C   0  0  1  0  0  0  0  0  0  0  0  0
   33.7430   25.3900   47.3460 C   0  0  0  0  0  0  0  0  0  0  0  0
   32.7500   25.9270   46.3870 C   0  0  2  0  0  0  0  0  0  0  0  0
   34.5490   27.3090   46.6380 H   0  0  0  0  0  0  0  0  0  0  0  0
   33.4430   25.0450   48.3320 H   0  0  0  0  0  0  0  0  0  0  0  0
   34.6360   24.9060   46.9240 H   0  0  0  0  0  0  0  0  0  0  0  0
   31.6950   25.8830   46.7900 H   0  0  0  0  0  0  0  0  0  0  0  0
   32.8460   25.7880   44.9710 N   0  0  0  0  0  0  0  0  0  0  0  0
   34.0600   25.7780   44.3410 C   0  0  0  0  0  3  0  0  0  0  0  0
   34.1620   25.6440   42.9710 C   0  0  0  0  0  0  0  0  0  0  0  0
   35.1850   25.6520   42.6000 H   0  0  0  0  0  0  0  0  0  0  0  0
   33.0450   25.5150   42.1710 C   0  0  0  0  0  0  0  0  0  0  0  0
   33.2930   25.4020   40.9440 O   0  0  0  0  0  0  0  0  0  0  0  0
   31.8550   25.5270   42.8010 N   0  0  0  0  0  0  0  0  0  0  0  0
   31.8020   25.6580   44.1380 C   0  0  0  0  0  0  0  0  0  0  0  0
   30.6420   25.6540   44.5960 O   0  0  0  0  0  0  0  0  0  0  0  0
   31.0320   25.4270   42.1770 H   0  0  0  0  0  0  0  0  0  0  0  0
  1  2  2  0  0  0  0
  1  6  1  0  0  0  0
  3 10  1  0  0  0  0
  3  4  2  0  0  0  0
  4  8  1  0  0  0  0
  5  9  1  0  0  0  0
  5  4  1  0  0  0  0
  6  5  2  0  0  0  0
  7  6  1  0  0  0  0
  7  3  1  0  0  0  0
 10 11  2  0  0  0  0
 12 13  1  0  0  0  0
 12 10  1  0  0  0  0
 13 18  1  0  0  0  0
 14 19  1  0  0  0  0
 14 13  2  0  0  0  0
 15 14  1  0  0  0  0
 16 15  2  0  0  0  0
 16 17  1  0  0  0  0
 17 12  2  0  0  0  0
 20 16  1  0  0  0  0
 21 24  1  6  0  0  0
 21 22  1  0  0  0  0
 21  1  1  0  0  0  0
 22 25  1  0  0  0  0
 23 27  1  1  0  0  0
 23 21  1  0  0  0  0
 23 22  1  0  0  0  0
 26 22  1  0  0  0  0
 28 23  1  0  0  0  0
 29 28  1  0  0  0  0
 30 29  2  0  0  0  0
 31 30  1  0  0  0  0
 32 34  1  0  0  0  0
 32 30  1  0  0  0  0
 33 32  2  0  0  0  0
 34 35  1  0  0  0  0
 35 36  2  0  0  0  0
 35 28  1  0  0  0  0
 37 34  1  0  0  0  0
M  END
>  <minimizedAffinity>
-4.8963275

>  <minimizedRMSD>
0.183550671

$$$$
