
 OpenBabel03272503353D

 42 45  0  0  1  0  0  0  0  0999 V2000
   36.0460   29.9100   31.7170 C   0  0  0  0  0  0  0  0  0  0  0  0
   36.5150   30.2900   30.4570 C   0  0  0  0  0  0  0  0  0  0  0  0
   36.9960   29.2770   29.6230 C   0  0  0  0  0  0  0  0  0  0  0  0
   36.9690   27.9910   30.1100 N   0  0  0  0  0  0  0  0  0  0  0  0
   36.5170   27.6760   31.3100 C   0  0  0  0  0  0  0  0  0  0  0  0
   36.0480   28.6380   32.1350 N   0  0  0  0  0  0  0  0  0  0  0  0
   36.5310   31.2870   30.0910 H   0  0  0  0  0  0  0  0  0  0  0  0
   37.3760   29.4690   28.6370 H   0  0  0  0  0  0  0  0  0  0  0  0
   35.5510   30.9540   32.5760 N   0  0  0  0  0  0  0  0  0  0  0  0
   34.9950   30.7940   33.8880 C   0  0  0  0  0  0  0  0  0  0  0  0
   35.3220   32.1360   34.5410 C   0  0  2  0  0  0  0  0  0  0  0  0
   36.1830   32.8990   33.5380 C   0  0  0  0  0  0  0  0  0  0  0  0
   35.5260   32.3780   32.2650 C   0  0  0  0  0  0  0  0  0  0  0  0
   33.9090   30.6030   33.8890 H   0  0  0  0  0  0  0  0  0  0  0  0
   35.5930   30.0350   34.4310 H   0  0  0  0  0  0  0  0  0  0  0  0
   34.3770   32.7170   34.6120 H   0  0  0  0  0  0  0  0  0  0  0  0
   37.2470   32.6000   33.5820 H   0  0  0  0  0  0  0  0  0  0  0  0
   36.0110   33.9750   33.5860 H   0  0  0  0  0  0  0  0  0  0  0  0
   36.1420   32.5490   31.3630 H   0  0  0  0  0  0  0  0  0  0  0  0
   34.5080   32.7860   32.2090 H   0  0  0  0  0  0  0  0  0  0  0  0
   36.0220   31.9620   35.8660 C   0  0  0  0  0  0  0  0  0  0  0  0
   37.1020   32.8220   35.8620 F   0  0  0  0  0  0  0  0  0  0  0  0
   36.5410   30.6820   35.8860 F   0  0  0  0  0  0  0  0  0  0  0  0
   35.2030   32.1740   36.9410 F   0  0  0  0  0  0  0  0  0  0  0  0
   36.5160   25.9890   31.8690 S   0  0  0  0  0  0  0  0  0  0  0  0
   37.3960   25.5990   33.2440 C   0  0  0  0  0  0  0  0  0  0  0  0
   37.6330   26.0180   34.5210 C   0  0  0  0  0  0  0  0  0  0  0  0
   38.4630   25.4210   35.4110 C   0  0  0  0  0  0  0  0  0  0  0  0
   39.1250   24.2120   34.8520 C   0  0  0  0  0  0  0  0  0  0  0  0
   38.4890   24.0790   33.1460 S   0  0  0  0  0  0  0  0  0  0  0  0
   37.0610   26.9080   34.7390 H   0  0  0  0  0  0  0  0  0  0  0  0
   38.6470   25.7430   36.3960 H   0  0  0  0  0  0  0  0  0  0  0  0
   40.0250   23.4400   35.5990 N   0  0  0  0  0  0  0  0  0  0  0  0
   41.3460   23.6630   35.7360 C   0  0  0  0  0  3  0  0  0  0  0  0
   42.0900   22.7980   36.5120 C   0  0  0  0  0  0  0  0  0  0  0  0
   43.1540   22.9750   36.6240 H   0  0  0  0  0  0  0  0  0  0  0  0
   41.5060   21.7050   37.1540 C   0  0  0  0  0  0  0  0  0  0  0  0
   42.1700   20.9110   37.8630 O   0  0  0  0  0  0  0  0  0  0  0  0
   40.1650   21.5340   36.9760 N   0  0  0  0  0  0  0  0  0  0  0  0
   39.4350   22.3820   36.2140 C   0  0  0  0  0  0  0  0  0  0  0  0
   38.2020   22.1050   36.1350 O   0  0  0  0  0  0  0  0  0  0  0  0
   39.7190   20.7130   37.4560 H   0  0  0  0  0  0  0  0  0  0  0  0
  1  6  1  0  0  0  0
  1  9  1  0  0  0  0
  2  1  2  0  0  0  0
  3  4  2  0  0  0  0
  3  2  1  0  0  0  0
  4  5  1  0  0  0  0
  5 25  1  0  0  0  0
  5  6  2  0  0  0  0
  7  2  1  0  0  0  0
  8  3  1  0  0  0  0
  9 10  1  0  0  0  0
 10 14  1  0  0  0  0
 10 15  1  0  0  0  0
 10 11  1  0  0  0  0
 11 16  1  1  0  0  0
 11 21  1  0  0  0  0
 12 17  1  0  0  0  0
 12 18  1  0  0  0  0
 12 11  1  0  0  0  0
 13  9  1  0  0  0  0
 13 12  1  0  0  0  0
 19 13  1  0  0  0  0
 20 13  1  0  0  0  0
 21 23  1  0  0  0  0
 21 24  1  0  0  0  0
 22 21  1  0  0  0  0
 25 26  1  0  0  0  0
 26 27  2  0  0  0  0
 27 31  1  0  0  0  0
 27 28  1  0  0  0  0
 28 32  1  0  0  0  0
 29 28  2  0  0  0  0
 29 33  1  0  0  0  0
 30 26  1  0  0  0  0
 30 29  1  0  0  0  0
 33 34  1  0  0  0  0
 33 40  1  0  0  0  0
 34 35  2  0  0  0  0
 35 36  1  0  0  0  0
 35 37  1  0  0  0  0
 37 38  2  0  0  0  0
 39 37  1  0  0  0  0
 39 42  1  0  0  0  0
 40 39  1  0  0  0  0
 41 40  2  0  0  0  0
M  END
>  <minimizedAffinity>
-6.59985828

$$$$

 OpenBabel03272503353D

 42 45  0  0  1  0  0  0  0  0999 V2000
   35.5930   31.1200   33.2800 C   0  0  0  0  0  0  0  0  0  0  0  0
   35.8160   31.8130   32.0870 C   0  0  0  0  0  0  0  0  0  0  0  0
   36.2470   31.0680   30.9860 C   0  0  0  0  0  0  0  0  0  0  0  0
   36.4170   29.7150   31.1660 N   0  0  0  0  0  0  0  0  0  0  0  0
   36.1950   29.0990   32.3130 C   0  0  0  0  0  0  0  0  0  0  0  0
   35.7780   29.7980   33.3920 N   0  0  0  0  0  0  0  0  0  0  0  0
   35.6810   32.8590   31.9590 H   0  0  0  0  0  0  0  0  0  0  0  0
   36.4430   31.5100   30.0280 H   0  0  0  0  0  0  0  0  0  0  0  0
   35.1500   31.8880   34.4140 N   0  0  0  0  0  0  0  0  0  0  0  0
   33.8250   32.3800   34.6520 C   0  0  0  0  0  0  0  0  0  0  0  0
   33.7750   32.4420   36.1770 C   0  0  2  0  0  0  0  0  0  0  0  0
   35.0800   31.8270   36.6720 C   0  0  0  0  0  0  0  0  0  0  0  0
   35.9770   32.3100   35.5380 C   0  0  0  0  0  0  0  0  0  0  0  0
   33.6320   33.3700   34.2050 H   0  0  0  0  0  0  0  0  0  0  0  0
   33.1010   31.5950   34.3530 H   0  0  0  0  0  0  0  0  0  0  0  0
   33.8280   33.5120   36.4750 H   0  0  0  0  0  0  0  0  0  0  0  0
   35.0420   30.7210   36.7000 H   0  0  0  0  0  0  0  0  0  0  0  0
   35.4280   32.2920   37.5950 H   0  0  0  0  0  0  0  0  0  0  0  0
   36.9380   31.7640   35.4880 H   0  0  0  0  0  0  0  0  0  0  0  0
   36.0730   33.4000   35.6130 H   0  0  0  0  0  0  0  0  0  0  0  0
   32.5680   31.7240   36.7300 C   0  0  0  0  0  0  0  0  0  0  0  0
   32.9760   31.0940   37.8900 F   0  0  0  0  0  0  0  0  0  0  0  0
   32.2450   30.7240   35.8350 F   0  0  0  0  0  0  0  0  0  0  0  0
   31.5000   32.5500   36.9460 F   0  0  0  0  0  0  0  0  0  0  0  0
   36.4380   27.3460   32.4680 S   0  0  0  0  0  0  0  0  0  0  0  0
   37.4230   26.7780   33.7030 C   0  0  0  0  0  0  0  0  0  0  0  0
   37.9910   27.1600   34.8830 C   0  0  0  0  0  0  0  0  0  0  0  0
   38.7860   26.3910   35.6670 C   0  0  0  0  0  0  0  0  0  0  0  0
   38.9930   25.0280   35.1070 C   0  0  0  0  0  0  0  0  0  0  0  0
   38.0410   25.0150   33.5490 S   0  0  0  0  0  0  0  0  0  0  0  0
   37.7230   28.1790   35.1180 H   0  0  0  0  0  0  0  0  0  0  0  0
   39.2260   26.6840   36.5770 H   0  0  0  0  0  0  0  0  0  0  0  0
   39.7800   24.0660   35.7530 N   0  0  0  0  0  0  0  0  0  0  0  0
   41.1080   23.8930   35.6090 C   0  0  0  0  0  3  0  0  0  0  0  0
   41.7300   22.8910   36.3250 C   0  0  0  0  0  0  0  0  0  0  0  0
   42.7990   22.7490   36.2100 H   0  0  0  0  0  0  0  0  0  0  0  0
   41.0170   22.0590   37.1890 C   0  0  0  0  0  0  0  0  0  0  0  0
   41.5700   21.1440   37.8460 O   0  0  0  0  0  0  0  0  0  0  0  0
   39.6770   22.2860   37.2910 N   0  0  0  0  0  0  0  0  0  0  0  0
   39.0660   23.2680   36.5890 C   0  0  0  0  0  0  0  0  0  0  0  0
   37.8180   23.3670   36.7800 O   0  0  0  0  0  0  0  0  0  0  0  0
   39.1330   21.6630   37.9400 H   0  0  0  0  0  0  0  0  0  0  0  0
  1  6  1  0  0  0  0
  1  9  1  0  0  0  0
  2  1  2  0  0  0  0
  3  4  2  0  0  0  0
  3  2  1  0  0  0  0
  4  5  1  0  0  0  0
  5 25  1  0  0  0  0
  5  6  2  0  0  0  0
  7  2  1  0  0  0  0
  8  3  1  0  0  0  0
  9 10  1  0  0  0  0
  9 13  1  0  0  0  0
 10 11  1  0  0  0  0
 11 16  1  1  0  0  0
 11 12  1  0  0  0  0
 11 21  1  0  0  0  0
 12 17  1  0  0  0  0
 12 18  1  0  0  0  0
 13 20  1  0  0  0  0
 13 12  1  0  0  0  0
 14 10  1  0  0  0  0
 15 10  1  0  0  0  0
 19 13  1  0  0  0  0
 21 24  1  0  0  0  0
 21 22  1  0  0  0  0
 23 21  1  0  0  0  0
 25 26  1  0  0  0  0
 26 27  2  0  0  0  0
 27 31  1  0  0  0  0
 27 28  1  0  0  0  0
 28 32  1  0  0  0  0
 29 28  2  0  0  0  0
 29 33  1  0  0  0  0
 30 26  1  0  0  0  0
 30 29  1  0  0  0  0
 33 40  1  0  0  0  0
 34 33  1  0  0  0  0
 34 35  2  0  0  0  0
 35 37  1  0  0  0  0
 36 35  1  0  0  0  0
 37 39  1  0  0  0  0
 37 38  2  0  0  0  0
 39 42  1  0  0  0  0
 40 41  2  0  0  0  0
 40 39  1  0  0  0  0
M  END
>  <minimizedAffinity>
-6.44443321

$$$$

 OpenBabel03272503353D

 42 45  0  0  1  0  0  0  0  0999 V2000
   37.9380   24.0740   33.1170 C   0  0  0  0  0  0  0  0  0  0  0  0
   37.0800   23.0880   32.6210 C   0  0  0  0  0  0  0  0  0  0  0  0
   36.3250   23.4080   31.4900 C   0  0  0  0  0  0  0  0  0  0  0  0
   36.4870   24.6650   30.9570 N   0  0  0  0  0  0  0  0  0  0  0  0
   37.3100   25.5680   31.4580 C   0  0  0  0  0  0  0  0  0  0  0  0
   38.0500   25.2820   32.5520 N   0  0  0  0  0  0  0  0  0  0  0  0
   36.9630   22.1190   33.0420 H   0  0  0  0  0  0  0  0  0  0  0  0
   35.6400   22.7170   31.0360 H   0  0  0  0  0  0  0  0  0  0  0  0
   38.7150   23.7440   34.2820 N   0  0  0  0  0  0  0  0  0  0  0  0
   38.8880   24.5500   35.4550 C   0  0  0  0  0  0  0  0  0  0  0  0
   39.1380   23.4970   36.5340 C   0  0  2  0  0  0  0  0  0  0  0  0
   38.9390   22.1420   35.8620 C   0  0  0  0  0  0  0  0  0  0  0  0
   39.4760   22.5160   34.4850 C   0  0  0  0  0  0  0  0  0  0  0  0
   39.7300   25.2590   35.3860 H   0  0  0  0  0  0  0  0  0  0  0  0
   37.9140   25.0190   35.7040 H   0  0  0  0  0  0  0  0  0  0  0  0
   40.2170   23.5340   36.8000 H   0  0  0  0  0  0  0  0  0  0  0  0
   37.8730   21.8520   35.8030 H   0  0  0  0  0  0  0  0  0  0  0  0
   39.5950   21.3780   36.2800 H   0  0  0  0  0  0  0  0  0  0  0  0
   39.1850   21.7930   33.7000 H   0  0  0  0  0  0  0  0  0  0  0  0
   40.5560   22.6910   34.5690 H   0  0  0  0  0  0  0  0  0  0  0  0
   38.2220   23.6780   37.7190 C   0  0  0  0  0  0  0  0  0  0  0  0
   38.0730   25.0390   37.9030 F   0  0  0  0  0  0  0  0  0  0  0  0
   38.8940   23.2050   38.8290 F   0  0  0  0  0  0  0  0  0  0  0  0
   37.0170   23.0480   37.5720 F   0  0  0  0  0  0  0  0  0  0  0  0
   37.4640   27.1740   30.7130 S   0  0  0  0  0  0  0  0  0  0  0  0
   36.8000   28.4950   31.5080 C   0  0  0  0  0  0  0  0  0  0  0  0
   36.4500   29.7990   31.3140 C   0  0  0  0  0  0  0  0  0  0  0  0
   35.9050   30.6210   32.2440 C   0  0  0  0  0  0  0  0  0  0  0  0
   35.7100   29.9490   33.5570 C   0  0  0  0  0  0  0  0  0  0  0  0
   36.3210   28.2470   33.3040 S   0  0  0  0  0  0  0  0  0  0  0  0
   36.6680   30.1020   30.3010 H   0  0  0  0  0  0  0  0  0  0  0  0
   35.6350   31.6280   32.0960 H   0  0  0  0  0  0  0  0  0  0  0  0
   35.1600   30.6120   34.6620 N   0  0  0  0  0  0  0  0  0  0  0  0
   35.8290   31.3700   35.5520 C   0  0  0  0  0  3  0  0  0  0  0  0
   35.1300   31.9530   36.5880 C   0  0  0  0  0  0  0  0  0  0  0  0
   35.6660   32.5630   37.3070 H   0  0  0  0  0  0  0  0  0  0  0  0
   33.7540   31.7750   36.7330 C   0  0  0  0  0  0  0  0  0  0  0  0
   33.1050   32.3000   37.6690 O   0  0  0  0  0  0  0  0  0  0  0  0
   33.1350   30.9970   35.7990 N   0  0  0  0  0  0  0  0  0  0  0  0
   33.8200   30.4250   34.7830 C   0  0  0  0  0  0  0  0  0  0  0  0
   33.1210   29.7290   33.9890 O   0  0  0  0  0  0  0  0  0  0  0  0
   32.0980   30.8590   35.9010 H   0  0  0  0  0  0  0  0  0  0  0  0
  1  9  1  0  0  0  0
  2  7  1  0  0  0  0
  2  1  1  0  0  0  0
  3  2  2  0  0  0  0
  4  5  2  0  0  0  0
  4  3  1  0  0  0  0
  5  6  1  0  0  0  0
  6  1  2  0  0  0  0
  8  3  1  0  0  0  0
  9 13  1  0  0  0  0
  9 10  1  0  0  0  0
 10 15  1  0  0  0  0
 10 11  1  0  0  0  0
 11 16  1  1  0  0  0
 11 21  1  0  0  0  0
 12 18  1  0  0  0  0
 12 11  1  0  0  0  0
 13 20  1  0  0  0  0
 13 12  1  0  0  0  0
 14 10  1  0  0  0  0
 17 12  1  0  0  0  0
 19 13  1  0  0  0  0
 21 22  1  0  0  0  0
 21 23  1  0  0  0  0
 24 21  1  0  0  0  0
 25  5  1  0  0  0  0
 25 26  1  0  0  0  0
 26 30  1  0  0  0  0
 27 26  2  0  0  0  0
 27 28  1  0  0  0  0
 28 29  2  0  0  0  0
 29 33  1  0  0  0  0
 30 29  1  0  0  0  0
 31 27  1  0  0  0  0
 32 28  1  0  0  0  0
 33 40  1  0  0  0  0
 33 34  1  0  0  0  0
 34 35  2  0  0  0  0
 35 37  1  0  0  0  0
 35 36  1  0  0  0  0
 37 38  2  0  0  0  0
 39 42  1  0  0  0  0
 39 37  1  0  0  0  0
 40 39  1  0  0  0  0
 41 40  2  0  0  0  0
M  END
>  <minimizedAffinity>
-6.43768311

$$$$

 OpenBabel03272503353D

 42 45  0  0  1  0  0  0  0  0999 V2000
   35.0000   30.6680   32.9130 C   0  0  0  0  0  0  0  0  0  0  0  0
   35.6750   31.4510   31.9720 C   0  0  0  0  0  0  0  0  0  0  0  0
   36.5990   30.8050   31.1470 C   0  0  0  0  0  0  0  0  0  0  0  0
   36.7690   29.4520   31.3280 N   0  0  0  0  0  0  0  0  0  0  0  0
   36.1100   28.7490   32.2300 C   0  0  0  0  0  0  0  0  0  0  0  0
   35.2120   29.3520   33.0400 N   0  0  0  0  0  0  0  0  0  0  0  0
   35.5360   32.4970   31.8420 H   0  0  0  0  0  0  0  0  0  0  0  0
   37.1650   31.3200   30.3950 H   0  0  0  0  0  0  0  0  0  0  0  0
   34.0490   31.3350   33.7630 N   0  0  0  0  0  0  0  0  0  0  0  0
   33.4480   30.8110   34.9540 C   0  0  0  0  0  0  0  0  0  0  0  0
   33.1610   32.0810   35.7540 C   0  0  2  0  0  0  0  0  0  0  0  0
   33.7770   33.2310   34.9630 C   0  0  0  0  0  0  0  0  0  0  0  0
   33.5200   32.6790   33.5650 C   0  0  0  0  0  0  0  0  0  0  0  0
   32.5240   30.2380   34.7690 H   0  0  0  0  0  0  0  0  0  0  0  0
   34.2230   30.2590   35.5230 H   0  0  0  0  0  0  0  0  0  0  0  0
   32.0640   32.2610   35.7220 H   0  0  0  0  0  0  0  0  0  0  0  0
   34.8620   33.3390   35.1500 H   0  0  0  0  0  0  0  0  0  0  0  0
   33.2040   34.1530   35.0680 H   0  0  0  0  0  0  0  0  0  0  0  0
   34.1250   33.1810   32.7870 H   0  0  0  0  0  0  0  0  0  0  0  0
   32.4380   32.6900   33.3820 H   0  0  0  0  0  0  0  0  0  0  0  0
   33.7160   32.0000   37.1550 C   0  0  0  0  0  0  0  0  0  0  0  0
   35.0150   31.5430   37.0430 F   0  0  0  0  0  0  0  0  0  0  0  0
   33.0100   31.0140   37.8160 F   0  0  0  0  0  0  0  0  0  0  0  0
   33.6480   33.1870   37.8320 F   0  0  0  0  0  0  0  0  0  0  0  0
   36.3850   27.0020   32.4040 S   0  0  0  0  0  0  0  0  0  0  0  0
   37.3270   26.4620   33.6830 C   0  0  0  0  0  0  0  0  0  0  0  0
   37.7450   26.8160   34.9330 C   0  0  0  0  0  0  0  0  0  0  0  0
   38.5610   26.0880   35.7340 C   0  0  0  0  0  0  0  0  0  0  0  0
   38.9820   24.8070   35.1060 C   0  0  0  0  0  0  0  0  0  0  0  0
   38.1700   24.8000   33.4710 S   0  0  0  0  0  0  0  0  0  0  0  0
   37.3340   27.7760   35.2100 H   0  0  0  0  0  0  0  0  0  0  0  0
   38.8850   26.3610   36.6970 H   0  0  0  0  0  0  0  0  0  0  0  0
   39.8260   23.8970   35.7570 N   0  0  0  0  0  0  0  0  0  0  0  0
   41.1680   23.8400   35.6550 C   0  0  0  0  0  3  0  0  0  0  0  0
   41.8490   22.8760   36.3680 C   0  0  0  0  0  0  0  0  0  0  0  0
   42.9300   22.8270   36.2870 H   0  0  0  0  0  0  0  0  0  0  0  0
   41.1820   21.9640   37.1860 C   0  0  0  0  0  0  0  0  0  0  0  0
   41.7880   21.0820   37.8410 O   0  0  0  0  0  0  0  0  0  0  0  0
   39.8240   22.0740   37.2470 N   0  0  0  0  0  0  0  0  0  0  0  0
   39.1550   23.0200   36.5480 C   0  0  0  0  0  0  0  0  0  0  0  0
   37.8970   23.0080   36.6970 O   0  0  0  0  0  0  0  0  0  0  0  0
   39.3150   21.3910   37.8620 H   0  0  0  0  0  0  0  0  0  0  0  0
  1  6  1  0  0  0  0
  1  9  1  0  0  0  0
  2  1  2  0  0  0  0
  3  4  2  0  0  0  0
  3  2  1  0  0  0  0
  4  5  1  0  0  0  0
  5 25  1  0  0  0  0
  5  6  2  0  0  0  0
  7  2  1  0  0  0  0
  8  3  1  0  0  0  0
  9 10  1  0  0  0  0
 10 15  1  0  0  0  0
 10 11  1  0  0  0  0
 11 16  1  1  0  0  0
 11 21  1  0  0  0  0
 12 18  1  0  0  0  0
 12 17  1  0  0  0  0
 12 11  1  0  0  0  0
 13  9  1  0  0  0  0
 13 12  1  0  0  0  0
 14 10  1  0  0  0  0
 19 13  1  0  0  0  0
 20 13  1  0  0  0  0
 21 23  1  0  0  0  0
 21 24  1  0  0  0  0
 22 21  1  0  0  0  0
 25 26  1  0  0  0  0
 26 27  2  0  0  0  0
 27 31  1  0  0  0  0
 27 28  1  0  0  0  0
 28 32  1  0  0  0  0
 29 28  2  0  0  0  0
 29 33  1  0  0  0  0
 30 26  1  0  0  0  0
 30 29  1  0  0  0  0
 33 40  1  0  0  0  0
 34 33  1  0  0  0  0
 34 35  2  0  0  0  0
 35 37  1  0  0  0  0
 36 35  1  0  0  0  0
 37 39  1  0  0  0  0
 37 38  2  0  0  0  0
 39 42  1  0  0  0  0
 40 41  2  0  0  0  0
 40 39  1  0  0  0  0
M  END
>  <minimizedAffinity>
-6.34037733

$$$$

 OpenBabel03272503353D

 42 45  0  0  1  0  0  0  0  0999 V2000
   36.4910   32.0670   31.6310 C   0  0  0  0  0  0  0  0  0  0  0  0
   36.8360   32.9290   30.5860 C   0  0  0  0  0  0  0  0  0  0  0  0
   37.2630   32.3450   29.3910 C   0  0  0  0  0  0  0  0  0  0  0  0
   37.3080   30.9720   29.3390 N   0  0  0  0  0  0  0  0  0  0  0  0
   36.9720   30.1930   30.3520 C   0  0  0  0  0  0  0  0  0  0  0  0
   36.5570   30.7350   31.5180 N   0  0  0  0  0  0  0  0  0  0  0  0
   36.7980   33.9900   30.6370 H   0  0  0  0  0  0  0  0  0  0  0  0
   37.5480   32.9230   28.5320 H   0  0  0  0  0  0  0  0  0  0  0  0
   36.0520   32.6700   32.8620 N   0  0  0  0  0  0  0  0  0  0  0  0
   34.9550   32.2460   33.6820 C   0  0  0  0  0  0  0  0  0  0  0  0
   35.3910   32.7140   35.0690 C   0  0  2  0  0  0  0  0  0  0  0  0
   36.8080   33.2570   34.9100 C   0  0  0  0  0  0  0  0  0  0  0  0
   36.6510   33.8320   33.5070 C   0  0  0  0  0  0  0  0  0  0  0  0
   33.9880   32.6920   33.3950 H   0  0  0  0  0  0  0  0  0  0  0  0
   34.9540   31.1370   33.7190 H   0  0  0  0  0  0  0  0  0  0  0  0
   34.7710   33.5970   35.3390 H   0  0  0  0  0  0  0  0  0  0  0  0
   37.5710   32.4560   34.9230 H   0  0  0  0  0  0  0  0  0  0  0  0
   37.0080   34.0850   35.5900 H   0  0  0  0  0  0  0  0  0  0  0  0
   37.6200   34.0420   33.0170 H   0  0  0  0  0  0  0  0  0  0  0  0
   35.9690   34.6910   33.5590 H   0  0  0  0  0  0  0  0  0  0  0  0
   35.3250   31.6010   36.0850 C   0  0  0  0  0  0  0  0  0  0  0  0
   36.5370   30.9390   36.0300 F   0  0  0  0  0  0  0  0  0  0  0  0
   34.3700   30.7050   35.6460 F   0  0  0  0  0  0  0  0  0  0  0  0
   35.0400   32.0390   37.3490 F   0  0  0  0  0  0  0  0  0  0  0  0
   37.0570   28.4240   30.2090 S   0  0  0  0  0  0  0  0  0  0  0  0
   37.8380   27.5580   31.4160 C   0  0  0  0  0  0  0  0  0  0  0  0
   39.0830   27.2380   31.8730 C   0  0  0  0  0  0  0  0  0  0  0  0
   39.3580   26.4600   32.9480 C   0  0  0  0  0  0  0  0  0  0  0  0
   38.1290   25.9620   33.6220 C   0  0  0  0  0  0  0  0  0  0  0  0
   36.7500   26.6570   32.6490 S   0  0  0  0  0  0  0  0  0  0  0  0
   39.8410   27.6940   31.2530 H   0  0  0  0  0  0  0  0  0  0  0  0
   40.3190   26.2120   33.3010 H   0  0  0  0  0  0  0  0  0  0  0  0
   38.1800   25.1400   34.7560 N   0  0  0  0  0  0  0  0  0  0  0  0
   38.2830   23.7970   34.7640 C   0  0  0  0  0  3  0  0  0  0  0  0
   38.3190   23.1400   35.9770 C   0  0  0  0  0  0  0  0  0  0  0  0
   38.4010   22.0590   35.9870 H   0  0  0  0  0  0  0  0  0  0  0  0
   38.2500   23.8330   37.1860 C   0  0  0  0  0  0  0  0  0  0  0  0
   38.2820   23.2490   38.2960 O   0  0  0  0  0  0  0  0  0  0  0  0
   38.1470   25.1910   37.1100 N   0  0  0  0  0  0  0  0  0  0  0  0
   38.1110   25.8350   35.9210 C   0  0  0  0  0  0  0  0  0  0  0  0
   38.0140   27.0960   35.9970 O   0  0  0  0  0  0  0  0  0  0  0  0
   38.0950   25.7190   38.0170 H   0  0  0  0  0  0  0  0  0  0  0  0
  1  9  1  0  0  0  0
  2  7  1  0  0  0  0
  2  1  2  0  0  0  0
  3  2  1  0  0  0  0
  4  3  2  0  0  0  0
  4  5  1  0  0  0  0
  5  6  2  0  0  0  0
  6  1  1  0  0  0  0
  8  3  1  0  0  0  0
  9 13  1  0  0  0  0
  9 10  1  0  0  0  0
 10 15  1  0  0  0  0
 10 11  1  0  0  0  0
 11 16  1  1  0  0  0
 11 21  1  0  0  0  0
 12 17  1  0  0  0  0
 12 11  1  0  0  0  0
 12 18  1  0  0  0  0
 13 20  1  0  0  0  0
 13 12  1  0  0  0  0
 14 10  1  0  0  0  0
 19 13  1  0  0  0  0
 21 24  1  0  0  0  0
 22 21  1  0  0  0  0
 23 21  1  0  0  0  0
 25  5  1  0  0  0  0
 25 26  1  0  0  0  0
 26 27  2  0  0  0  0
 26 30  1  0  0  0  0
 27 28  1  0  0  0  0
 28 32  1  0  0  0  0
 28 29  2  0  0  0  0
 29 33  1  0  0  0  0
 30 29  1  0  0  0  0
 31 27  1  0  0  0  0
 33 34  1  0  0  0  0
 33 40  1  0  0  0  0
 34 35  2  0  0  0  0
 35 36  1  0  0  0  0
 35 37  1  0  0  0  0
 37 38  2  0  0  0  0
 39 37  1  0  0  0  0
 39 42  1  0  0  0  0
 40 41  2  0  0  0  0
 40 39  1  0  0  0  0
M  END
>  <minimizedAffinity>
-6.10216093

$$$$

 OpenBabel03272503353D

 42 45  0  0  1  0  0  0  0  0999 V2000
   34.5470   29.5900   32.4560 C   0  0  0  0  0  0  0  0  0  0  0  0
   35.1570   30.5970   31.7040 C   0  0  0  0  0  0  0  0  0  0  0  0
   36.3170   30.2580   31.0040 C   0  0  0  0  0  0  0  0  0  0  0  0
   36.7640   28.9620   31.1130 N   0  0  0  0  0  0  0  0  0  0  0  0
   36.1570   28.0400   31.8360 C   0  0  0  0  0  0  0  0  0  0  0  0
   35.0330   28.3440   32.5220 N   0  0  0  0  0  0  0  0  0  0  0  0
   34.8020   31.5960   31.6270 H   0  0  0  0  0  0  0  0  0  0  0  0
   36.8560   30.9620   30.3980 H   0  0  0  0  0  0  0  0  0  0  0  0
   33.3510   29.9410   33.1770 N   0  0  0  0  0  0  0  0  0  0  0  0
   32.0660   29.3150   33.0650 C   0  0  0  0  0  0  0  0  0  0  0  0
   31.4680   29.5600   34.4490 C   0  0  2  0  0  0  0  0  0  0  0  0
   32.5700   30.2070   35.2820 C   0  0  0  0  0  0  0  0  0  0  0  0
   33.2290   31.0070   34.1640 C   0  0  0  0  0  0  0  0  0  0  0  0
   31.4310   29.7450   32.2730 H   0  0  0  0  0  0  0  0  0  0  0  0
   32.2170   28.2190   32.9850 H   0  0  0  0  0  0  0  0  0  0  0  0
   30.6850   30.3430   34.3460 H   0  0  0  0  0  0  0  0  0  0  0  0
   33.2750   29.4630   35.7000 H   0  0  0  0  0  0  0  0  0  0  0  0
   32.1720   30.9140   36.0090 H   0  0  0  0  0  0  0  0  0  0  0  0
   34.2440   31.3570   34.4270 H   0  0  0  0  0  0  0  0  0  0  0  0
   32.5370   31.8010   33.8530 H   0  0  0  0  0  0  0  0  0  0  0  0
   30.9620   28.2840   35.0770 C   0  0  0  0  0  0  0  0  0  0  0  0
   30.8570   27.3550   34.0600 F   0  0  0  0  0  0  0  0  0  0  0  0
   29.6760   28.5300   35.5160 F   0  0  0  0  0  0  0  0  0  0  0  0
   31.7510   27.8360   36.1000 F   0  0  0  0  0  0  0  0  0  0  0  0
   36.7960   26.3840   31.9280 S   0  0  0  0  0  0  0  0  0  0  0  0
   37.6820   25.9410   33.2830 C   0  0  0  0  0  0  0  0  0  0  0  0
   38.0210   26.3730   34.5320 C   0  0  0  0  0  0  0  0  0  0  0  0
   38.8120   25.7130   35.4130 C   0  0  0  0  0  0  0  0  0  0  0  0
   39.3000   24.4130   34.8790 C   0  0  0  0  0  0  0  0  0  0  0  0
   38.5800   24.2970   33.2050 S   0  0  0  0  0  0  0  0  0  0  0  0
   37.5690   27.3330   34.7350 H   0  0  0  0  0  0  0  0  0  0  0  0
   39.0750   26.0450   36.3770 H   0  0  0  0  0  0  0  0  0  0  0  0
   40.1330   23.5650   35.6220 N   0  0  0  0  0  0  0  0  0  0  0  0
   41.4690   23.6700   35.7500 C   0  0  0  0  0  3  0  0  0  0  0  0
   42.1380   22.7440   36.5230 C   0  0  0  0  0  0  0  0  0  0  0  0
   43.2150   22.8250   36.6270 H   0  0  0  0  0  0  0  0  0  0  0  0
   41.4640   21.7080   37.1710 C   0  0  0  0  0  0  0  0  0  0  0  0
   42.0590   20.8590   37.8770 O   0  0  0  0  0  0  0  0  0  0  0  0
   40.1120   21.6570   37.0020 N   0  0  0  0  0  0  0  0  0  0  0  0
   39.4550   22.5650   36.2430 C   0  0  0  0  0  0  0  0  0  0  0  0
   38.2010   22.3990   36.1730 O   0  0  0  0  0  0  0  0  0  0  0  0
   39.5970   20.8800   37.4870 H   0  0  0  0  0  0  0  0  0  0  0  0
  1  6  1  0  0  0  0
  1  9  1  0  0  0  0
  2  1  2  0  0  0  0
  3  4  2  0  0  0  0
  3  2  1  0  0  0  0
  4  5  1  0  0  0  0
  5 25  1  0  0  0  0
  5  6  2  0  0  0  0
  7  2  1  0  0  0  0
  8  3  1  0  0  0  0
  9 13  1  0  0  0  0
 10  9  1  0  0  0  0
 10 11  1  0  0  0  0
 11 16  1  6  0  0  0
 11 21  1  0  0  0  0
 11 12  1  0  0  0  0
 12 17  1  0  0  0  0
 12 18  1  0  0  0  0
 13 19  1  0  0  0  0
 13 12  1  0  0  0  0
 14 10  1  0  0  0  0
 15 10  1  0  0  0  0
 20 13  1  0  0  0  0
 21 23  1  0  0  0  0
 21 24  1  0  0  0  0
 22 21  1  0  0  0  0
 25 26  1  0  0  0  0
 26 27  2  0  0  0  0
 27 31  1  0  0  0  0
 27 28  1  0  0  0  0
 28 32  1  0  0  0  0
 29 28  2  0  0  0  0
 29 33  1  0  0  0  0
 30 26  1  0  0  0  0
 30 29  1  0  0  0  0
 33 34  1  0  0  0  0
 33 40  1  0  0  0  0
 34 35  2  0  0  0  0
 35 36  1  0  0  0  0
 35 37  1  0  0  0  0
 37 38  2  0  0  0  0
 39 37  1  0  0  0  0
 39 42  1  0  0  0  0
 40 39  1  0  0  0  0
 41 40  2  0  0  0  0
M  END
>  <minimizedAffinity>
-6.10097265

$$$$

 OpenBabel03272503353D

 42 45  0  0  1  0  0  0  0  0999 V2000
   38.9070   25.0940   33.9870 C   0  0  0  0  0  0  0  0  0  0  0  0
   40.1460   25.6380   33.6380 C   0  0  0  0  0  0  0  0  0  0  0  0
   40.1450   26.6880   32.7170 C   0  0  0  0  0  0  0  0  0  0  0  0
   38.9270   27.1000   32.2290 N   0  0  0  0  0  0  0  0  0  0  0  0
   37.7780   26.5560   32.5860 C   0  0  0  0  0  0  0  0  0  0  0  0
   37.7530   25.5390   33.4750 N   0  0  0  0  0  0  0  0  0  0  0  0
   41.0810   25.3120   34.0220 H   0  0  0  0  0  0  0  0  0  0  0  0
   41.0450   27.1720   32.3880 H   0  0  0  0  0  0  0  0  0  0  0  0
   38.9080   24.0110   34.9360 N   0  0  0  0  0  0  0  0  0  0  0  0
   39.6030   23.9700   36.1900 C   0  0  0  0  0  0  0  0  0  0  0  0
   38.7260   23.0270   37.0120 C   0  0  2  0  0  0  0  0  0  0  0  0
   37.5030   22.7240   36.1510 C   0  0  0  0  0  0  0  0  0  0  0  0
   38.1960   22.7470   34.7940 C   0  0  0  0  0  0  0  0  0  0  0  0
   40.6360   23.5910   36.1130 H   0  0  0  0  0  0  0  0  0  0  0  0
   39.5160   24.9660   36.6700 H   0  0  0  0  0  0  0  0  0  0  0  0
   39.2640   22.0570   37.1030 H   0  0  0  0  0  0  0  0  0  0  0  0
   36.7350   23.5180   36.2140 H   0  0  0  0  0  0  0  0  0  0  0  0
   37.1260   21.7140   36.3160 H   0  0  0  0  0  0  0  0  0  0  0  0
   37.4870   22.8400   33.9510 H   0  0  0  0  0  0  0  0  0  0  0  0
   38.8690   21.8810   34.7340 H   0  0  0  0  0  0  0  0  0  0  0  0
   38.3440   23.6280   38.3410 C   0  0  0  0  0  0  0  0  0  0  0  0
   39.4560   23.5320   39.1560 F   0  0  0  0  0  0  0  0  0  0  0  0
   37.3810   22.8100   38.8970 F   0  0  0  0  0  0  0  0  0  0  0  0
   37.8930   24.9160   38.2420 F   0  0  0  0  0  0  0  0  0  0  0  0
   36.2420   27.1430   31.9090 S   0  0  0  0  0  0  0  0  0  0  0  0
   35.6170   28.5930   32.4780 C   0  0  0  0  0  0  0  0  0  0  0  0
   34.8890   29.6760   32.0820 C   0  0  0  0  0  0  0  0  0  0  0  0
   34.5520   30.7340   32.8600 C   0  0  0  0  0  0  0  0  0  0  0  0
   35.0660   30.6070   34.2500 C   0  0  0  0  0  0  0  0  0  0  0  0
   35.9560   29.0130   34.2740 S   0  0  0  0  0  0  0  0  0  0  0  0
   34.6090   29.5830   31.0430 H   0  0  0  0  0  0  0  0  0  0  0  0
   33.9910   31.5710   32.5550 H   0  0  0  0  0  0  0  0  0  0  0  0
   34.8350   31.5870   35.2250 N   0  0  0  0  0  0  0  0  0  0  0  0
   35.5410   32.7190   35.4010 C   0  0  0  0  0  3  0  0  0  0  0  0
   35.1760   33.5800   36.4160 C   0  0  0  0  0  0  0  0  0  0  0  0
   35.7440   34.4930   36.5610 H   0  0  0  0  0  0  0  0  0  0  0  0
   34.1000   33.3020   37.2590 C   0  0  0  0  0  0  0  0  0  0  0  0
   33.7570   34.0750   38.1850 O   0  0  0  0  0  0  0  0  0  0  0  0
   33.4250   32.1400   37.0280 N   0  0  0  0  0  0  0  0  0  0  0  0
   33.7820   31.2960   36.0330 C   0  0  0  0  0  0  0  0  0  0  0  0
   33.0690   30.2530   35.9310 O   0  0  0  0  0  0  0  0  0  0  0  0
   32.6120   31.9240   37.6580 H   0  0  0  0  0  0  0  0  0  0  0  0
  1  9  1  0  0  0  0
  2  1  1  0  0  0  0
  2  7  1  0  0  0  0
  3  2  2  0  0  0  0
  4  5  2  0  0  0  0
  4  3  1  0  0  0  0
  5  6  1  0  0  0  0
  6  1  2  0  0  0  0
  8  3  1  0  0  0  0
  9 10  1  0  0  0  0
 10 15  1  0  0  0  0
 10 11  1  0  0  0  0
 11 16  1  1  0  0  0
 11 21  1  0  0  0  0
 12 17  1  0  0  0  0
 12 18  1  0  0  0  0
 12 11  1  0  0  0  0
 13  9  1  0  0  0  0
 13 12  1  0  0  0  0
 14 10  1  0  0  0  0
 19 13  1  0  0  0  0
 20 13  1  0  0  0  0
 21 23  1  0  0  0  0
 21 22  1  0  0  0  0
 24 21  1  0  0  0  0
 25 26  1  0  0  0  0
 25  5  1  0  0  0  0
 26 30  1  0  0  0  0
 27 26  2  0  0  0  0
 27 28  1  0  0  0  0
 28 29  2  0  0  0  0
 29 30  1  0  0  0  0
 29 33  1  0  0  0  0
 31 27  1  0  0  0  0
 32 28  1  0  0  0  0
 33 34  1  0  0  0  0
 33 40  1  0  0  0  0
 34 35  2  0  0  0  0
 35 36  1  0  0  0  0
 35 37  1  0  0  0  0
 37 38  2  0  0  0  0
 39 37  1  0  0  0  0
 39 42  1  0  0  0  0
 40 39  1  0  0  0  0
 41 40  2  0  0  0  0
M  END
>  <minimizedAffinity>
-6.08370352

$$$$

 OpenBabel03272503353D

 42 45  0  0  1  0  0  0  0  0999 V2000
   35.6360   29.5200   32.1410 C   0  0  0  0  0  0  0  0  0  0  0  0
   36.6280   30.0820   31.3330 C   0  0  0  0  0  0  0  0  0  0  0  0
   37.2820   29.2300   30.4390 C   0  0  0  0  0  0  0  0  0  0  0  0
   36.8960   27.9100   30.4270 N   0  0  0  0  0  0  0  0  0  0  0  0
   35.9530   27.4200   31.2100 C   0  0  0  0  0  0  0  0  0  0  0  0
   35.3070   28.2230   32.0830 N   0  0  0  0  0  0  0  0  0  0  0  0
   36.9170   31.1040   31.3500 H   0  0  0  0  0  0  0  0  0  0  0  0
   38.0560   29.5690   29.7760 H   0  0  0  0  0  0  0  0  0  0  0  0
   34.9630   30.3980   33.0630 N   0  0  0  0  0  0  0  0  0  0  0  0
   33.5500   30.4890   33.2850 C   0  0  0  0  0  0  0  0  0  0  0  0
   33.4830   30.9660   34.7350 C   0  0  2  0  0  0  0  0  0  0  0  0
   34.9180   30.9660   35.2500 C   0  0  0  0  0  0  0  0  0  0  0  0
   35.6040   31.3640   33.9480 C   0  0  0  0  0  0  0  0  0  0  0  0
   33.0390   31.1950   32.6080 H   0  0  0  0  0  0  0  0  0  0  0  0
   33.1280   29.4640   33.2790 H   0  0  0  0  0  0  0  0  0  0  0  0
   33.1770   32.0350   34.7260 H   0  0  0  0  0  0  0  0  0  0  0  0
   35.2500   29.9620   35.5780 H   0  0  0  0  0  0  0  0  0  0  0  0
   35.0930   31.7610   35.9750 H   0  0  0  0  0  0  0  0  0  0  0  0
   36.6910   31.1610   33.9550 H   0  0  0  0  0  0  0  0  0  0  0  0
   35.3330   32.4010   33.7160 H   0  0  0  0  0  0  0  0  0  0  0  0
   32.5830   30.0920   35.5730 C   0  0  0  0  0  0  0  0  0  0  0  0
   32.7520   30.4890   36.8850 F   0  0  0  0  0  0  0  0  0  0  0  0
   33.0750   28.8030   35.4890 F   0  0  0  0  0  0  0  0  0  0  0  0
   31.2720   30.1400   35.1880 F   0  0  0  0  0  0  0  0  0  0  0  0
   35.5110   25.7000   31.1370 S   0  0  0  0  0  0  0  0  0  0  0  0
   36.5320   24.5780   31.8540 C   0  0  0  0  0  0  0  0  0  0  0  0
   37.0000   23.3050   31.7070 C   0  0  0  0  0  0  0  0  0  0  0  0
   37.8730   22.6790   32.5340 C   0  0  0  0  0  0  0  0  0  0  0  0
   38.3010   23.5400   33.6700 C   0  0  0  0  0  0  0  0  0  0  0  0
   37.4140   25.1160   33.4190 S   0  0  0  0  0  0  0  0  0  0  0  0
   36.5750   22.8460   30.8270 H   0  0  0  0  0  0  0  0  0  0  0  0
   38.2340   21.6970   32.4220 H   0  0  0  0  0  0  0  0  0  0  0  0
   39.2010   23.0950   34.6470 N   0  0  0  0  0  0  0  0  0  0  0  0
   40.5340   23.2850   34.6500 C   0  0  0  0  0  3  0  0  0  0  0  0
   41.2760   22.7760   35.6960 C   0  0  0  0  0  0  0  0  0  0  0  0
   42.3510   22.9260   35.7000 H   0  0  0  0  0  0  0  0  0  0  0  0
   40.6790   22.0750   36.7430 C   0  0  0  0  0  0  0  0  0  0  0  0
   41.3410   21.6070   37.7010 O   0  0  0  0  0  0  0  0  0  0  0  0
   39.3260   21.9170   36.6820 N   0  0  0  0  0  0  0  0  0  0  0  0
   38.5970   22.4160   35.6570 C   0  0  0  0  0  0  0  0  0  0  0  0
   37.3520   22.1970   35.7270 O   0  0  0  0  0  0  0  0  0  0  0  0
   38.8690   21.3900   37.4680 H   0  0  0  0  0  0  0  0  0  0  0  0
  1  9  1  0  0  0  0
  2  7  1  0  0  0  0
  2  1  2  0  0  0  0
  3  2  1  0  0  0  0
  4  3  2  0  0  0  0
  4  5  1  0  0  0  0
  5  6  2  0  0  0  0
  6  1  1  0  0  0  0
  8  3  1  0  0  0  0
  9 10  1  0  0  0  0
  9 13  1  0  0  0  0
 10 11  1  0  0  0  0
 11 16  1  1  0  0  0
 11 12  1  0  0  0  0
 11 21  1  0  0  0  0
 12 17  1  0  0  0  0
 12 18  1  0  0  0  0
 13 19  1  0  0  0  0
 13 12  1  0  0  0  0
 14 10  1  0  0  0  0
 15 10  1  0  0  0  0
 20 13  1  0  0  0  0
 21 22  1  0  0  0  0
 23 21  1  0  0  0  0
 24 21  1  0  0  0  0
 25  5  1  0  0  0  0
 25 26  1  0  0  0  0
 26 30  1  0  0  0  0
 27 26  2  0  0  0  0
 27 28  1  0  0  0  0
 28 29  2  0  0  0  0
 29 33  1  0  0  0  0
 30 29  1  0  0  0  0
 31 27  1  0  0  0  0
 32 28  1  0  0  0  0
 33 34  1  0  0  0  0
 33 40  1  0  0  0  0
 34 35  2  0  0  0  0
 35 36  1  0  0  0  0
 35 37  1  0  0  0  0
 37 38  2  0  0  0  0
 39 37  1  0  0  0  0
 39 42  1  0  0  0  0
 40 41  2  0  0  0  0
 40 39  1  0  0  0  0
M  END
>  <minimizedAffinity>
-5.86469841

$$$$

 OpenBabel03272503353D

 42 45  0  0  1  0  0  0  0  0999 V2000
   40.1220   25.3460   33.9280 C   0  0  0  0  0  0  0  0  0  0  0  0
   41.3050   25.9770   34.3220 C   0  0  0  0  0  0  0  0  0  0  0  0
   41.6660   27.1400   33.6390 C   0  0  0  0  0  0  0  0  0  0  0  0
   40.8290   27.5700   32.6350 N   0  0  0  0  0  0  0  0  0  0  0  0
   39.7190   26.9420   32.2950 C   0  0  0  0  0  0  0  0  0  0  0  0
   39.3490   25.8140   32.9410 N   0  0  0  0  0  0  0  0  0  0  0  0
   41.9440   25.6360   35.1000 H   0  0  0  0  0  0  0  0  0  0  0  0
   42.5550   27.6960   33.8700 H   0  0  0  0  0  0  0  0  0  0  0  0
   39.7500   24.1460   34.6320 N   0  0  0  0  0  0  0  0  0  0  0  0
   40.6260   23.0910   35.0510 C   0  0  0  0  0  0  0  0  0  0  0  0
   39.8960   22.5330   36.2720 C   0  0  2  0  0  0  0  0  0  0  0  0
   38.7010   23.4520   36.5110 C   0  0  0  0  0  0  0  0  0  0  0  0
   38.4020   23.7830   35.0530 C   0  0  0  0  0  0  0  0  0  0  0  0
   40.7790   22.3120   34.2860 H   0  0  0  0  0  0  0  0  0  0  0  0
   41.5620   23.5450   35.4350 H   0  0  0  0  0  0  0  0  0  0  0  0
   39.4550   21.5540   35.9840 H   0  0  0  0  0  0  0  0  0  0  0  0
   38.9770   24.3650   37.0720 H   0  0  0  0  0  0  0  0  0  0  0  0
   37.8440   22.9130   36.9130 H   0  0  0  0  0  0  0  0  0  0  0  0
   37.7510   24.6690   34.9380 H   0  0  0  0  0  0  0  0  0  0  0  0
   38.0310   22.8750   34.5610 H   0  0  0  0  0  0  0  0  0  0  0  0
   40.7970   22.4550   37.4790 C   0  0  0  0  0  0  0  0  0  0  0  0
   40.1250   23.0700   38.5180 F   0  0  0  0  0  0  0  0  0  0  0  0
   41.9030   23.2370   37.2120 F   0  0  0  0  0  0  0  0  0  0  0  0
   41.1670   21.1770   37.7950 F   0  0  0  0  0  0  0  0  0  0  0  0
   38.6880   27.5590   30.9850 S   0  0  0  0  0  0  0  0  0  0  0  0
   37.3290   28.4570   31.3880 C   0  0  0  0  0  0  0  0  0  0  0  0
   36.5380   29.4700   30.9320 C   0  0  0  0  0  0  0  0  0  0  0  0
   35.4500   29.9750   31.5630 C   0  0  0  0  0  0  0  0  0  0  0  0
   35.1760   29.2960   32.8580 C   0  0  0  0  0  0  0  0  0  0  0  0
   36.4900   28.0380   33.0120 S   0  0  0  0  0  0  0  0  0  0  0  0
   36.8980   29.8300   29.9790 H   0  0  0  0  0  0  0  0  0  0  0  0
   34.8400   30.7570   31.2130 H   0  0  0  0  0  0  0  0  0  0  0  0
   34.0990   29.6570   33.6790 N   0  0  0  0  0  0  0  0  0  0  0  0
   32.8050   29.3420   33.4810 C   0  0  0  0  0  3  0  0  0  0  0  0
   31.8670   29.7820   34.3920 C   0  0  0  0  0  0  0  0  0  0  0  0
   30.8230   29.5300   34.2350 H   0  0  0  0  0  0  0  0  0  0  0  0
   32.2280   30.5410   35.5050 C   0  0  0  0  0  0  0  0  0  0  0  0
   31.3850   30.9470   36.3420 O   0  0  0  0  0  0  0  0  0  0  0  0
   33.5540   30.8260   35.6490 N   0  0  0  0  0  0  0  0  0  0  0  0
   34.4740   30.3950   34.7560 C   0  0  0  0  0  0  0  0  0  0  0  0
   35.6680   30.7310   35.0120 O   0  0  0  0  0  0  0  0  0  0  0  0
   33.8330   31.3970   36.4850 H   0  0  0  0  0  0  0  0  0  0  0  0
  1  2  1  0  0  0  0
  1  9  1  0  0  0  0
  2  7  1  0  0  0  0
  3  8  1  0  0  0  0
  3  2  2  0  0  0  0
  4  3  1  0  0  0  0
  5  4  2  0  0  0  0
  5  6  1  0  0  0  0
  6  1  2  0  0  0  0
  9 10  1  0  0  0  0
  9 13  1  0  0  0  0
 10 15  1  0  0  0  0
 10 11  1  0  0  0  0
 11 16  1  6  0  0  0
 11 12  1  0  0  0  0
 11 21  1  0  0  0  0
 12 18  1  0  0  0  0
 12 17  1  0  0  0  0
 13 12  1  0  0  0  0
 14 10  1  0  0  0  0
 19 13  1  0  0  0  0
 20 13  1  0  0  0  0
 21 24  1  0  0  0  0
 21 22  1  0  0  0  0
 23 21  1  0  0  0  0
 25 26  1  0  0  0  0
 25  5  1  0  0  0  0
 26 30  1  0  0  0  0
 27 26  2  0  0  0  0
 27 28  1  0  0  0  0
 28 29  2  0  0  0  0
 29 30  1  0  0  0  0
 29 33  1  0  0  0  0
 31 27  1  0  0  0  0
 32 28  1  0  0  0  0
 33 40  1  0  0  0  0
 34 33  1  0  0  0  0
 34 35  2  0  0  0  0
 35 37  1  0  0  0  0
 36 35  1  0  0  0  0
 37 39  1  0  0  0  0
 37 38  2  0  0  0  0
 39 42  1  0  0  0  0
 40 41  2  0  0  0  0
 40 39  1  0  0  0  0
M  END
>  <minimizedAffinity>
-5.84008217

$$$$
