
 OpenBabel03272506343D

 20 21  0  0  0  0  0  0  0  0999 V2000
   37.4600   29.9880   50.9770 C   0  0  0  0  0  0  0  0  0  0  0  0
   38.1110   30.9960   50.2640 C   0  0  0  0  0  0  0  0  0  0  0  0
   37.5830   31.3890   49.0220 C   0  0  0  0  0  0  0  0  0  0  0  0
   36.4590   30.7640   48.5740 N   0  0  0  0  0  0  0  0  0  0  0  0
   35.8480   29.7840   49.2910 C   0  0  0  0  0  0  0  0  0  0  0  0
   36.3510   29.4130   50.4710 N   0  0  0  0  0  0  0  0  0  0  0  0
   39.0180   31.5120   50.6090 H   0  0  0  0  0  0  0  0  0  0  0  0
   38.0540   32.1620   48.4440 H   0  0  0  0  0  0  0  0  0  0  0  0
   34.6730   29.1270   48.8280 N   0  0  0  0  0  0  0  0  0  0  0  0
   34.5790   28.5770   47.6060 C   0  0  0  0  0  3  0  0  0  0  0  0
   33.3790   27.9590   47.2560 C   0  0  0  0  0  0  0  0  0  0  0  0
   33.3390   27.5270   46.2620 H   0  0  0  0  0  0  0  0  0  0  0  0
   32.3440   27.9240   48.1420 C   0  0  0  0  0  0  0  0  0  0  0  0
   31.2620   27.3740   47.8410 O   0  0  0  0  0  0  0  0  0  0  0  0
   32.4930   28.4950   49.3590 N   0  0  0  0  0  0  0  0  0  0  0  0
   33.6580   29.1020   49.7180 C   0  0  0  0  0  0  0  0  0  0  0  0
   33.6810   29.5960   50.8710 O   0  0  0  0  0  0  0  0  0  0  0  0
   31.6640   28.4410   50.0070 H   0  0  0  0  0  0  0  0  0  0  0  0
   38.0830   29.7020   52.1740 O   0  0  0  0  0  0  0  0  0  0  0  0
   37.4740   29.3310   52.9130 H   0  0  0  0  0  0  0  0  0  0  0  0
  1 19  1  0  0  0  0
  2  7  1  0  0  0  0
  2  1  2  0  0  0  0
  3  2  1  0  0  0  0
  4  3  2  0  0  0  0
  4  5  1  0  0  0  0
  5  6  2  0  0  0  0
  6  1  1  0  0  0  0
  8  3  1  0  0  0  0
  9  5  1  0  0  0  0
  9 16  1  0  0  0  0
 10  9  1  0  0  0  0
 11 10  2  0  0  0  0
 11 13  1  0  0  0  0
 12 11  1  0  0  0  0
 13 15  1  0  0  0  0
 14 13  2  0  0  0  0
 15 16  1  0  0  0  0
 15 18  1  0  0  0  0
 16 17  2  0  0  0  0
 19 20  1  0  0  0  0
M  END
>  <minimizedAffinity>
-5.06925583

>  <minimizedRMSD>
1.06964219

$$$$
