
 OpenBabel03272507333D

 37 40  0  0  1  0  0  0  0  0999 V2000
   33.0740   27.6530   48.2920 C   0  0  0  0  0  0  0  0  0  0  0  0
   31.8530   27.6070   48.6570 O   0  0  0  0  0  0  0  0  0  0  0  0
   35.9080   29.1950   49.8310 C   0  0  0  0  0  0  0  0  0  0  0  0
   34.9250   29.6630   50.6790 C   0  0  0  0  0  0  0  0  0  0  0  0
   33.7020   29.1540   50.2250 C   0  0  0  0  0  0  0  0  0  0  0  0
   34.0220   28.4000   49.1180 C   0  0  0  0  0  0  0  0  0  0  0  0
   35.3230   28.4520   48.9260 O   0  0  0  0  0  0  0  0  0  0  0  0
   35.0230   30.3130   51.5560 H   0  0  0  0  0  0  0  0  0  0  0  0
   32.7410   29.3460   50.6850 H   0  0  0  0  0  0  0  0  0  0  0  0
   37.3100   29.5310   50.0100 C   0  0  0  0  0  0  0  0  0  0  0  0
   37.9790   28.9080   50.8470 O   0  0  0  0  0  0  0  0  0  0  0  0
   37.8390   30.5850   49.1850 C   0  0  0  0  0  0  0  0  0  0  0  0
   38.1730   31.7760   49.8160 C   0  0  0  0  0  0  0  0  0  0  0  0
   38.6870   32.8180   49.0410 C   0  0  0  0  0  0  0  0  0  0  0  0
   38.8320   32.6020   47.6870 N   0  0  0  0  0  0  0  0  0  0  0  0
   38.5020   31.4450   47.1170 C   0  0  0  0  0  0  0  0  0  0  0  0
   38.0070   30.4350   47.8510 N   0  0  0  0  0  0  0  0  0  0  0  0
   38.0480   31.9120   50.8760 H   0  0  0  0  0  0  0  0  0  0  0  0
   38.9470   33.7440   49.5310 H   0  0  0  0  0  0  0  0  0  0  0  0
   38.6470   31.3580   46.0500 H   0  0  0  0  0  0  0  0  0  0  0  0
   33.5320   26.9530   47.0460 C   0  0  1  0  0  0  0  0  0  0  0  0
   33.7410   25.4150   47.3450 C   0  0  0  0  0  0  0  0  0  0  0  0
   32.7040   25.9240   46.4190 C   0  0  2  0  0  0  0  0  0  0  0  0
   34.4700   27.3560   46.6140 H   0  0  0  0  0  0  0  0  0  0  0  0
   33.4820   25.0610   48.3390 H   0  0  0  0  0  0  0  0  0  0  0  0
   34.6340   24.9560   46.8950 H   0  0  0  0  0  0  0  0  0  0  0  0
   31.6630   25.8490   46.8550 H   0  0  0  0  0  0  0  0  0  0  0  0
   32.7590   25.7870   44.9990 N   0  0  0  0  0  0  0  0  0  0  0  0
   33.7290   25.0330   44.3970 C   0  0  0  0  0  3  0  0  0  0  0  0
   33.7890   24.8950   43.0260 C   0  0  0  0  0  0  0  0  0  0  0  0
   34.6090   24.2690   42.6800 H   0  0  0  0  0  0  0  0  0  0  0  0
   32.8760   25.5120   42.1960 C   0  0  0  0  0  0  0  0  0  0  0  0
   33.0570   25.2960   40.9710 O   0  0  0  0  0  0  0  0  0  0  0  0
   31.9260   26.2520   42.7980 N   0  0  0  0  0  0  0  0  0  0  0  0
   31.9040   26.3590   44.1380 C   0  0  0  0  0  0  0  0  0  0  0  0
   30.9750   27.0720   44.5680 O   0  0  0  0  0  0  0  0  0  0  0  0
   31.2530   26.7050   42.1510 H   0  0  0  0  0  0  0  0  0  0  0  0
  1  2  2  0  0  0  0
  1  6  1  0  0  0  0
  3 10  1  0  0  0  0
  3  4  2  0  0  0  0
  4  8  1  0  0  0  0
  5  4  1  0  0  0  0
  5  9  1  0  0  0  0
  6  5  2  0  0  0  0
  7  6  1  0  0  0  0
  7  3  1  0  0  0  0
 10 11  2  0  0  0  0
 12 13  1  0  0  0  0
 12 10  1  0  0  0  0
 13 18  1  0  0  0  0
 14 19  1  0  0  0  0
 14 13  2  0  0  0  0
 15 14  1  0  0  0  0
 16 15  2  0  0  0  0
 16 17  1  0  0  0  0
 17 12  2  0  0  0  0
 20 16  1  0  0  0  0
 21 24  1  6  0  0  0
 21 22  1  0  0  0  0
 21  1  1  0  0  0  0
 22 25  1  0  0  0  0
 23 27  1  1  0  0  0
 23 21  1  0  0  0  0
 23 22  1  0  0  0  0
 26 22  1  0  0  0  0
 28 23  1  0  0  0  0
 29 28  1  0  0  0  0
 30 29  2  0  0  0  0
 31 30  1  0  0  0  0
 32 34  1  0  0  0  0
 32 30  1  0  0  0  0
 33 32  2  0  0  0  0
 34 35  1  0  0  0  0
 35 36  2  0  0  0  0
 35 28  1  0  0  0  0
 37 34  1  0  0  0  0
M  END
>  <minimizedAffinity>
-4.87240458

>  <minimizedRMSD>
0.16695492

$$$$
