
 OpenBabel03272509043D

 34 36  0  0  0  0  0  0  0  0999 V2000
   37.0390   29.7980   51.8010 C   0  0  0  0  0  0  0  0  0  0  0  0
   37.8430   30.6080   50.9580 C   0  0  0  0  0  0  0  0  0  0  0  0
   37.3810   30.8430   49.6250 C   0  0  0  0  0  0  0  0  0  0  0  0
   36.2010   30.2690   49.2680 N   0  0  0  0  0  0  0  0  0  0  0  0
   35.4840   29.5140   50.1010 C   0  0  0  0  0  0  0  0  0  0  0  0
   35.9060   29.2840   51.3580 N   0  0  0  0  0  0  0  0  0  0  0  0
   37.4680   29.6840   52.7670 H   0  0  0  0  0  0  0  0  0  0  0  0
   38.7810   31.0660   51.2400 H   0  0  0  0  0  0  0  0  0  0  0  0
   38.1550   31.6510   48.7450 N   0  0  0  0  0  0  0  0  0  0  0  0
   38.5800   32.7870   49.3440 C   0  0  0  0  0  3  0  0  0  0  0  0
   39.3540   33.6780   48.5930 C   0  0  0  0  0  0  0  0  0  0  0  0
   39.7420   34.6100   48.9750 H   0  0  0  0  0  0  0  0  0  0  0  0
   39.6480   33.3680   47.2940 C   0  0  0  0  0  0  0  0  0  0  0  0
   40.3280   34.0920   46.5440 O   0  0  0  0  0  0  0  0  0  0  0  0
   39.2030   32.2210   46.7320 N   0  0  0  0  0  0  0  0  0  0  0  0
   38.4580   31.3690   47.4630 C   0  0  0  0  0  0  0  0  0  0  0  0
   37.9580   30.2660   47.1220 O   0  0  0  0  0  0  0  0  0  0  0  0
   39.3770   31.9080   45.7600 H   0  0  0  0  0  0  0  0  0  0  0  0
   34.2540   28.9750   49.5710 C   0  0  0  0  0  3  0  0  0  0  0  0
   34.3050   27.9590   48.7790 C   0  0  0  0  0  3  0  0  0  0  0  0
   33.1890   27.2550   48.1300 C   0  0  0  0  0  0  0  0  0  0  0  0
   32.5680   28.0190   47.5950 H   0  0  0  0  0  0  0  0  0  0  0  0
   32.4910   26.7610   48.8430 H   0  0  0  0  0  0  0  0  0  0  0  0
   33.6550   26.2760   47.0990 C   0  0  0  0  0  0  0  0  0  0  0  0
   33.9230   24.9460   47.3070 C   0  0  0  0  0  0  0  0  0  0  0  0
   34.3490   24.1360   46.2760 C   0  0  0  0  0  0  0  0  0  0  0  0
   34.5210   24.6410   44.9810 C   0  0  0  0  0  0  0  0  0  0  0  0
   34.2590   25.9610   44.7520 C   0  0  0  0  0  0  0  0  0  0  0  0
   33.8330   26.7590   45.8000 C   0  0  0  0  0  0  0  0  0  0  0  0
   33.7780   24.5850   48.3270 H   0  0  0  0  0  0  0  0  0  0  0  0
   34.5400   23.0950   46.5190 H   0  0  0  0  0  0  0  0  0  0  0  0
   34.8520   23.9640   44.2280 H   0  0  0  0  0  0  0  0  0  0  0  0
   34.3820   26.3890   43.7640 H   0  0  0  0  0  0  0  0  0  0  0  0
   33.6380   27.7900   45.5830 H   0  0  0  0  0  0  0  0  0  0  0  0
  1  7  1  0  0  0  0
  2  8  1  0  0  0  0
  2  1  2  0  0  0  0
  3  2  1  0  0  0  0
  4  3  2  0  0  0  0
  4  5  1  0  0  0  0
  5  6  2  0  0  0  0
  6  1  1  0  0  0  0
  9 10  1  0  0  0  0
  9  3  1  0  0  0  0
 11 12  1  0  0  0  0
 11 10  2  0  0  0  0
 13 11  1  0  0  0  0
 14 13  2  0  0  0  0
 15 13  1  0  0  0  0
 15 16  1  0  0  0  0
 16  9  1  0  0  0  0
 17 16  2  0  0  0  0
 18 15  1  0  0  0  0
 19  5  1  0  0  0  0
 20 19  2  0  0  0  0
 21 20  1  0  0  0  0
 21 23  1  0  0  0  0
 22 21  1  0  0  0  0
 24 25  1  0  0  0  0
 24 21  1  0  0  0  0
 25 30  1  0  0  0  0
 26 31  1  0  0  0  0
 26 25  2  0  0  0  0
 27 26  1  0  0  0  0
 28 27  2  0  0  0  0
 28 29  1  0  0  0  0
 29 24  2  0  0  0  0
 32 27  1  0  0  0  0
 33 28  1  0  0  0  0
 34 29  1  0  0  0  0
M  END
>  <minimizedAffinity>
-6.34004211

>  <minimizedRMSD>
1.1286695

$$$$
