
 OpenBabel03272508043D

 36 39  0  0  0  0  0  0  0  0999 V2000
   38.8450   30.9000   45.8370 C   0  0  0  0  0  0  0  0  0  0  0  0
   40.0270   31.5760   46.1050 C   0  0  0  0  0  0  0  0  0  0  0  0
   40.8680   31.5300   45.0060 C   0  0  0  0  0  0  0  0  0  0  0  0
   40.1510   30.8110   44.0950 N   0  0  0  0  0  0  0  0  0  0  0  0
   38.9850   30.4520   44.5840 N   0  0  0  0  0  0  0  0  0  0  0  0
   40.2720   32.0740   47.0290 H   0  0  0  0  0  0  0  0  0  0  0  0
   41.8490   31.9330   44.8400 H   0  0  0  0  0  0  0  0  0  0  0  0
   37.7250   30.7320   46.7360 C   0  0  0  0  0  0  0  0  0  0  0  0
   37.9300   30.9230   48.1300 C   0  0  0  0  0  0  0  0  0  0  0  0
   36.8360   30.7580   48.9690 C   0  0  0  0  0  0  0  0  0  0  0  0
   35.6420   30.4240   48.4210 N   0  0  0  0  0  0  0  0  0  0  0  0
   35.4670   30.2460   47.0870 C   0  0  0  0  0  0  0  0  0  0  0  0
   36.5170   30.4030   46.2570 N   0  0  0  0  0  0  0  0  0  0  0  0
   38.9190   31.1900   48.4950 H   0  0  0  0  0  0  0  0  0  0  0  0
   34.4740   29.9810   46.7480 H   0  0  0  0  0  0  0  0  0  0  0  0
   37.0370   30.9550   50.4380 C   0  0  0  0  0  0  0  0  0  0  0  0
   36.5490   32.2110   50.7120 F   0  0  0  0  0  0  0  0  0  0  0  0
   36.3340   30.0310   51.1930 F   0  0  0  0  0  0  0  0  0  0  0  0
   38.3830   30.9310   50.7870 F   0  0  0  0  0  0  0  0  0  0  0  0
   40.5400   30.4460   42.7380 C   0  0  0  0  0  0  0  0  0  0  0  0
   40.1220   31.2140   41.6350 C   0  0  0  0  0  0  0  0  0  0  0  0
   40.5360   30.8230   40.3920 C   0  0  0  0  0  0  0  0  0  0  0  0
   41.3670   29.6650   40.2500 C   0  0  0  0  0  0  0  0  0  0  0  0
   41.5550   29.1180   42.0060 S   0  0  0  0  0  0  0  0  0  0  0  0
   39.4940   32.0910   41.7120 H   0  0  0  0  0  0  0  0  0  0  0  0
   40.3180   31.2850   39.4420 H   0  0  0  0  0  0  0  0  0  0  0  0
   41.9300   29.0260   39.2280 N   0  0  0  0  0  0  0  0  0  0  0  0
   41.4370   27.8460   38.8020 C   0  0  0  0  0  3  0  0  0  0  0  0
   42.0340   27.1790   37.7260 C   0  0  0  0  0  0  0  0  0  0  0  0
   41.6930   26.2370   37.3370 H   0  0  0  0  0  0  0  0  0  0  0  0
   43.1310   27.7890   37.1420 C   0  0  0  0  0  0  0  0  0  0  0  0
   43.7690   27.2910   36.1570 O   0  0  0  0  0  0  0  0  0  0  0  0
   43.6280   28.9720   37.5660 N   0  0  0  0  0  0  0  0  0  0  0  0
   43.0000   29.5710   38.6200 C   0  0  0  0  0  0  0  0  0  0  0  0
   43.4630   30.6690   39.0120 O   0  0  0  0  0  0  0  0  0  0  0  0
   44.4560   29.4390   37.1320 H   0  0  0  0  0  0  0  0  0  0  0  0
  1  2  1  0  0  0  0
  1  8  1  0  0  0  0
  2  6  1  0  0  0  0
  3  2  2  0  0  0  0
  4  5  1  0  0  0  0
  4  3  1  0  0  0  0
  5  1  2  0  0  0  0
  7  3  1  0  0  0  0
  8  9  1  0  0  0  0
  9 14  1  0  0  0  0
  9 10  2  0  0  0  0
 10 16  1  0  0  0  0
 11 10  1  0  0  0  0
 12 11  2  0  0  0  0
 13  8  2  0  0  0  0
 13 12  1  0  0  0  0
 15 12  1  0  0  0  0
 16 17  1  0  0  0  0
 16 19  1  0  0  0  0
 16 18  1  0  0  0  0
 20  4  1  0  0  0  0
 21 25  1  0  0  0  0
 21 20  2  0  0  0  0
 22 21  1  0  0  0  0
 23 22  2  0  0  0  0
 23 24  1  0  0  0  0
 24 20  1  0  0  0  0
 26 22  1  0  0  0  0
 27 23  1  0  0  0  0
 28 27  1  0  0  0  0
 29 28  2  0  0  0  0
 30 29  1  0  0  0  0
 31 33  1  0  0  0  0
 31 29  1  0  0  0  0
 32 31  2  0  0  0  0
 33 34  1  0  0  0  0
 34 35  2  0  0  0  0
 34 27  1  0  0  0  0
 36 33  1  0  0  0  0
M  END
>  <minimizedAffinity>
-6.56032753

>  <minimizedRMSD>
0.73768723

$$$$
