
 OpenBabel03272506333D

 20 21  0  0  0  0  0  0  0  0999 V2000
   37.4730   30.2820   50.7680 C   0  0  0  0  0  0  0  0  0  0  0  0
   38.3560   31.2350   50.2600 C   0  0  0  0  0  0  0  0  0  0  0  0
   38.1270   31.7420   48.9690 C   0  0  0  0  0  0  0  0  0  0  0  0
   37.0510   31.2750   48.2770 N   0  0  0  0  0  0  0  0  0  0  0  0
   36.2100   30.3440   48.7990 C   0  0  0  0  0  0  0  0  0  0  0  0
   36.4300   29.8650   50.0260 N   0  0  0  0  0  0  0  0  0  0  0  0
   39.2290   31.6250   50.8030 H   0  0  0  0  0  0  0  0  0  0  0  0
   38.7830   32.4780   48.5420 H   0  0  0  0  0  0  0  0  0  0  0  0
   35.0840   29.8520   48.0790 N   0  0  0  0  0  0  0  0  0  0  0  0
   34.9890   29.9190   46.7420 C   0  0  0  0  0  0  0  0  0  0  0  0
   33.8410   29.4060   46.1390 C   0  0  0  0  0  0  0  0  0  0  0  0
   33.7980   29.4770   45.0570 H   0  0  0  0  0  0  0  0  0  0  0  0
   32.8540   28.8570   46.9040 C   0  0  0  0  0  0  0  0  0  0  0  0
   31.8190   28.3940   46.3790 O   0  0  0  0  0  0  0  0  0  0  0  0
   33.0030   28.8160   48.2480 N   0  0  0  0  0  0  0  0  0  0  0  0
   34.1180   29.3130   48.8520 C   0  0  0  0  0  0  0  0  0  0  0  0
   34.1460   29.2200   50.1040 O   0  0  0  0  0  0  0  0  0  0  0  0
   32.2130   28.3830   48.7940 H   0  0  0  0  0  0  0  0  0  0  0  0
   37.8160   29.8720   52.0410 O   0  0  0  0  0  0  0  0  0  0  0  0
   37.0370   29.5440   52.6250 H   0  0  0  0  0  0  0  0  0  0  0  0
  1 19  1  0  0  0  0
  2  1  1  0  0  0  0
  2  7  1  0  0  0  0
  3  2  2  0  0  0  0
  4  5  2  0  0  0  0
  4  3  1  0  0  0  0
  5  6  1  0  0  0  0
  6  1  2  0  0  0  0
  8  3  1  0  0  0  0
  9  5  1  0  0  0  0
  9 16  1  0  0  0  0
 10  9  1  0  0  0  0
 11 10  2  0  0  0  0
 11 13  1  0  0  0  0
 12 11  1  0  0  0  0
 13 15  1  0  0  0  0
 14 13  2  0  0  0  0
 15 18  1  0  0  0  0
 15 16  1  0  0  0  0
 16 17  2  0  0  0  0
 19 20  1  0  0  0  0
M  END
>  <minimizedAffinity>
-5.29890347

>  <minimizedRMSD>
1.8629607

$$$$
