
 OpenBabel03272506343D

 20 21  0  0  0  0  0  0  0  0999 V2000
   37.5390   30.2400   50.7540 C   0  0  0  0  0  0  0  0  0  0  0  0
   38.2030   31.2530   50.0600 C   0  0  0  0  0  0  0  0  0  0  0  0
   37.6930   31.6580   48.8140 C   0  0  0  0  0  0  0  0  0  0  0  0
   36.5740   31.0400   48.3450 N   0  0  0  0  0  0  0  0  0  0  0  0
   35.9510   30.0550   49.0440 C   0  0  0  0  0  0  0  0  0  0  0  0
   36.4370   29.6730   50.2280 N   0  0  0  0  0  0  0  0  0  0  0  0
   39.1050   31.7640   50.4210 H   0  0  0  0  0  0  0  0  0  0  0  0
   38.1740   32.4350   48.2490 H   0  0  0  0  0  0  0  0  0  0  0  0
   34.7810   29.4050   48.5580 N   0  0  0  0  0  0  0  0  0  0  0  0
   34.5870   29.1280   47.2590 C   0  0  0  0  0  3  0  0  0  0  0  0
   33.4040   28.4880   46.8940 C   0  0  0  0  0  0  0  0  0  0  0  0
   33.2820   28.2810   45.8350 H   0  0  0  0  0  0  0  0  0  0  0  0
   32.4820   28.1630   47.8430 C   0  0  0  0  0  0  0  0  0  0  0  0
   31.4160   27.5900   47.5300 O   0  0  0  0  0  0  0  0  0  0  0  0
   32.7280   28.4660   49.1380 N   0  0  0  0  0  0  0  0  0  0  0  0
   33.8790   29.0910   49.5120 C   0  0  0  0  0  0  0  0  0  0  0  0
   33.9990   29.3210   50.7400 O   0  0  0  0  0  0  0  0  0  0  0  0
   31.9850   28.1940   49.8330 H   0  0  0  0  0  0  0  0  0  0  0  0
   38.1450   29.9430   51.9570 O   0  0  0  0  0  0  0  0  0  0  0  0
   37.5240   29.5670   52.6840 H   0  0  0  0  0  0  0  0  0  0  0  0
  1 19  1  0  0  0  0
  2  7  1  0  0  0  0
  2  1  2  0  0  0  0
  3  2  1  0  0  0  0
  4  3  2  0  0  0  0
  4  5  1  0  0  0  0
  5  6  2  0  0  0  0
  6  1  1  0  0  0  0
  8  3  1  0  0  0  0
  9  5  1  0  0  0  0
  9 16  1  0  0  0  0
 10  9  1  0  0  0  0
 11 10  2  0  0  0  0
 11 13  1  0  0  0  0
 12 11  1  0  0  0  0
 13 15  1  0  0  0  0
 14 13  2  0  0  0  0
 15 16  1  0  0  0  0
 15 18  1  0  0  0  0
 16 17  2  0  0  0  0
 19 20  1  0  0  0  0
M  END
>  <minimizedAffinity>
-5.17194319

>  <minimizedRMSD>
1.25358546

$$$$
