
 OpenBabel03272508573D

 41 44  0  0  1  0  0  0  0  0999 V2000
   39.1510   31.4730   43.3360 C   0  0  0  0  0  0  0  0  0  0  0  0
   40.1590   30.5620   43.5020 C   0  0  0  0  0  0  0  0  0  0  0  0
   40.8840   30.2100   42.3690 C   0  0  0  0  0  0  0  0  0  0  0  0
   40.5430   30.7930   41.1670 C   0  0  0  0  0  0  0  0  0  0  0  0
   39.5230   31.7100   41.0110 C   0  0  0  0  0  0  0  0  0  0  0  0
   38.8380   32.0310   42.1370 N   0  0  0  0  0  0  0  0  0  0  0  0
   40.4100   30.1160   44.4570 H   0  0  0  0  0  0  0  0  0  0  0  0
   41.6850   29.5060   42.4230 H   0  0  0  0  0  0  0  0  0  0  0  0
   41.1240   30.4990   40.3080 H   0  0  0  0  0  0  0  0  0  0  0  0
   38.3550   31.8870   44.5170 C   0  0  0  0  0  0  0  0  0  0  0  0
   37.2530   32.4360   44.4150 O   0  0  0  0  0  0  0  0  0  0  0  0
   38.9340   31.6180   45.8260 N   0  0  0  0  0  0  0  0  0  0  0  0
   39.9290   31.3610   45.9820 H   0  0  0  0  0  0  0  0  0  0  0  0
   38.4250   31.1060   48.2110 C   0  0  2  0  0  0  0  0  0  0  0  0
   38.6630   32.5700   48.1210 C   0  0  0  0  0  0  0  0  0  0  0  0
   38.0620   31.7170   46.9740 C   0  0  1  0  0  0  0  0  0  0  0  0
   39.3680   30.5270   48.3140 H   0  0  0  0  0  0  0  0  0  0  0  0
   37.9730   33.2690   48.6410 H   0  0  0  0  0  0  0  0  0  0  0  0
   39.6690   32.9650   47.9910 H   0  0  0  0  0  0  0  0  0  0  0  0
   36.9720   31.9460   46.7710 H   0  0  0  0  0  0  0  0  0  0  0  0
   35.0620   30.2290   49.5220 C   0  0  0  0  0  0  0  0  0  0  0  0
   35.3890   29.5520   50.7310 C   0  0  0  0  0  0  0  0  0  0  0  0
   36.7800   29.4140   51.0840 C   0  0  0  0  0  0  0  0  0  0  0  0
   37.7430   29.9340   50.2500 N   0  0  0  0  0  0  0  0  0  0  0  0
   37.3400   30.5680   49.1110 C   0  0  0  0  0  0  0  0  0  0  0  0
   36.0180   30.7340   48.7140 N   0  0  0  0  0  0  0  0  0  0  0  0
   34.0260   30.3210   49.2780 H   0  0  0  0  0  0  0  0  0  0  0  0
   34.6490   29.1490   51.3770 H   0  0  0  0  0  0  0  0  0  0  0  0
   37.0360   28.9010   52.0000 H   0  0  0  0  0  0  0  0  0  0  0  0
   39.2070   32.2800   39.7140 C   0  0  0  0  0  0  0  0  0  0  0  0
   38.8790   33.4800   39.6200 O   0  0  0  0  0  0  0  0  0  0  0  0
   41.2430   30.2480   36.2080 H   0  0  0  0  0  0  0  0  0  0  0  0
   40.4000   30.3430   36.8150 N   0  0  0  0  0  0  0  0  0  0  0  0
   40.4490   31.2590   37.8220 C   0  0  0  0  0  3  0  0  0  0  0  0
   39.3100   31.3480   38.5980 C   0  0  0  0  0  0  0  0  0  0  0  0
   38.1820   30.5770   38.3950 C   0  0  0  0  0  0  0  0  0  0  0  0
   37.1580   30.6560   39.0910 O   0  0  0  0  0  0  0  0  0  0  0  0
   38.1840   29.6740   37.3720 N   0  0  0  0  0  0  0  0  0  0  0  0
   39.3040   29.5860   36.6080 C   0  0  0  0  0  0  0  0  0  0  0  0
   39.2450   28.7360   35.6820 O   0  0  0  0  0  0  0  0  0  0  0  0
   37.3400   29.0910   37.2130 H   0  0  0  0  0  0  0  0  0  0  0  0
  1  2  1  0  0  0  0
  1 10  1  0  0  0  0
  2  7  1  0  0  0  0
  3  8  1  0  0  0  0
  3  2  2  0  0  0  0
  4  3  1  0  0  0  0
  5  4  2  0  0  0  0
  5  6  1  0  0  0  0
  6  1  2  0  0  0  0
  9  4  1  0  0  0  0
 10 12  1  0  0  0  0
 11 10  2  0  0  0  0
 12 13  1  0  0  0  0
 12 16  1  0  0  0  0
 14 17  1  6  0  0  0
 14 25  1  0  0  0  0
 15 14  1  0  0  0  0
 15 18  1  0  0  0  0
 16 20  1  6  0  0  0
 16 15  1  0  0  0  0
 16 14  1  0  0  0  0
 19 15  1  0  0  0  0
 21 22  1  0  0  0  0
 22 23  2  0  0  0  0
 22 28  1  0  0  0  0
 23 29  1  0  0  0  0
 24 23  1  0  0  0  0
 25 24  2  0  0  0  0
 26 25  1  0  0  0  0
 26 21  2  0  0  0  0
 27 21  1  0  0  0  0
 30  5  1  0  0  0  0
 31 30  2  0  0  0  0
 32 33  1  0  0  0  0
 33 34  1  0  0  0  0
 34 35  2  0  0  0  0
 35 30  1  0  0  0  0
 36 35  1  0  0  0  0
 36 37  2  0  0  0  0
 38 36  1  0  0  0  0
 39 33  1  0  0  0  0
 39 38  1  0  0  0  0
 40 39  2  0  0  0  0
 41 38  1  0  0  0  0
M  END
>  <minimizedAffinity>
-4.96341753

>  <minimizedRMSD>
0.178786799

$$$$
