
 OpenBabel03272502523D

 28 30  0  0  0  0  0  0  0  0999 V2000
   37.5630   31.1730   49.5120 C   0  0  0  0  0  0  0  0  0  0  0  0
   37.8400   30.7820   50.7940 C   0  0  0  0  0  0  0  0  0  0  0  0
   37.0680   29.8610   51.4700 C   0  0  0  0  0  0  0  0  0  0  0  0
   36.0000   29.3580   50.7700 C   0  0  0  0  0  0  0  0  0  0  0  0
   35.6720   29.7250   49.4500 C   0  0  0  0  0  0  0  0  0  0  0  0
   36.4960   30.6380   48.8770 N   0  0  0  0  0  0  0  0  0  0  0  0
   38.6990   31.2210   51.2860 H   0  0  0  0  0  0  0  0  0  0  0  0
   37.2640   29.5350   52.4830 H   0  0  0  0  0  0  0  0  0  0  0  0
   35.3640   28.6260   51.2700 H   0  0  0  0  0  0  0  0  0  0  0  0
   34.5800   29.2060   48.7430 N   0  0  0  0  0  0  0  0  0  0  0  0
   33.6970   28.3550   49.2950 C   0  0  0  0  0  0  0  0  0  0  0  0
   32.6090   27.8200   48.6330 C   0  0  0  0  0  0  0  0  0  0  0  0
   31.9110   27.1410   49.0860 H   0  0  0  0  0  0  0  0  0  0  0  0
   32.4470   28.2160   47.3020 C   0  0  0  0  0  0  0  0  0  0  0  0
   31.4740   27.7630   46.6470 O   0  0  0  0  0  0  0  0  0  0  0  0
   33.3510   29.0690   46.7860 N   0  0  0  0  0  0  0  0  0  0  0  0
   34.3980   29.5620   47.4760 C   0  0  0  0  0  0  0  0  0  0  0  0
   35.1460   30.3500   46.8370 O   0  0  0  0  0  0  0  0  0  0  0  0
   33.1530   29.3170   45.7720 H   0  0  0  0  0  0  0  0  0  0  0  0
   39.5420   34.1710   48.8580 C   0  0  0  0  0  0  0  0  0  0  0  0
   39.9870   33.9970   47.5490 C   0  0  0  0  0  0  0  0  0  0  0  0
   39.5980   32.8350   46.8980 C   0  0  0  0  0  0  0  0  0  0  0  0
   38.8100   31.9470   47.5770 N   0  0  0  0  0  0  0  0  0  0  0  0
   38.4050   32.1540   48.8310 C   0  0  0  0  0  0  0  0  0  0  0  0
   38.7660   33.2730   49.4940 N   0  0  0  0  0  0  0  0  0  0  0  0
   39.8170   35.0590   49.4130 H   0  0  0  0  0  0  0  0  0  0  0  0
   40.6060   34.7250   47.0590 H   0  0  0  0  0  0  0  0  0  0  0  0
   39.9030   32.6280   45.8820 H   0  0  0  0  0  0  0  0  0  0  0  0
  1  2  1  0  0  0  0
  2  7  1  0  0  0  0
  2  3  2  0  0  0  0
  3  8  1  0  0  0  0
  4  9  1  0  0  0  0
  4  3  1  0  0  0  0
  5  4  2  0  0  0  0
  6  5  1  0  0  0  0
  6  1  2  0  0  0  0
 10 11  1  0  0  0  0
 10  5  1  0  0  0  0
 12 13  1  0  0  0  0
 12 11  2  0  0  0  0
 14 12  1  0  0  0  0
 15 14  2  0  0  0  0
 16 14  1  0  0  0  0
 16 17  1  0  0  0  0
 17 10  1  0  0  0  0
 18 17  2  0  0  0  0
 19 16  1  0  0  0  0
 20 26  1  0  0  0  0
 20 25  1  0  0  0  0
 21 20  2  0  0  0  0
 22 21  1  0  0  0  0
 22 23  2  0  0  0  0
 23 24  1  0  0  0  0
 24 25  2  0  0  0  0
 24  1  1  0  0  0  0
 27 21  1  0  0  0  0
 28 22  1  0  0  0  0
M  END
>  <minimizedAffinity>
-6.52068901

>  <minimizedRMSD>
2.51972604

$$$$
