
 OpenBabel03272508473D

 41 45  0  0  0  0  0  0  0  0999 V2000
   35.5240   29.5680   49.6670 C   0  0  0  0  0  0  0  0  0  0  0  0
   36.5490   29.2360   50.5270 C   0  0  0  0  0  0  0  0  0  0  0  0
   37.6830   29.7420   49.9000 C   0  0  0  0  0  0  0  0  0  0  0  0
   37.3120   30.3400   48.7260 C   0  0  0  0  0  0  0  0  0  0  0  0
   35.9960   30.2200   48.6100 O   0  0  0  0  0  0  0  0  0  0  0  0
   36.5340   28.7120   51.4690 H   0  0  0  0  0  0  0  0  0  0  0  0
   38.7000   29.7060   50.2250 H   0  0  0  0  0  0  0  0  0  0  0  0
   38.6210   32.2840   48.0040 C   0  0  0  0  0  0  0  0  0  0  0  0
   38.1820   30.9990   47.7560 C   0  0  0  0  0  0  0  0  0  0  0  0
   38.5460   30.3070   46.6020 C   0  0  0  0  0  0  0  0  0  0  0  0
   39.3700   30.9100   45.6680 C   0  0  0  0  0  0  0  0  0  0  0  0
   39.8920   30.5250   44.4830 N   0  0  0  0  0  0  0  0  0  0  0  0
   40.6230   31.5460   44.0280 N   0  0  0  0  0  0  0  0  0  0  0  0
   40.5790   32.5670   44.8930 C   0  0  0  0  0  0  0  0  0  0  0  0
   39.7820   32.1940   45.9620 C   0  0  0  0  0  0  0  0  0  0  0  0
   39.4560   32.9190   47.0750 C   0  0  0  0  0  0  0  0  0  0  0  0
   38.3460   32.8290   48.8930 H   0  0  0  0  0  0  0  0  0  0  0  0
   38.1970   29.2870   46.4070 H   0  0  0  0  0  0  0  0  0  0  0  0
   39.7080   29.5720   44.0600 H   0  0  0  0  0  0  0  0  0  0  0  0
   41.1110   33.4890   44.7020 H   0  0  0  0  0  0  0  0  0  0  0  0
   39.8170   33.9260   47.2410 H   0  0  0  0  0  0  0  0  0  0  0  0
   34.1140   29.2440   49.8940 C   0  0  0  0  0  0  0  0  0  0  0  0
   33.5340   29.7970   50.8490 O   0  0  0  0  0  0  0  0  0  0  0  0
   31.4620   27.2090   48.4370 C   0  0  0  0  0  0  0  0  0  0  0  0
   32.0990   26.5450   47.4010 C   0  0  0  0  0  0  0  0  0  0  0  0
   33.4370   26.7840   47.1890 C   0  0  0  0  0  0  0  0  0  0  0  0
   34.0730   27.6600   48.0030 N   0  0  0  0  0  0  0  0  0  0  0  0
   33.4380   28.2990   49.0100 C   0  0  0  0  0  0  0  0  0  0  0  0
   32.1320   28.0680   49.2200 N   0  0  0  0  0  0  0  0  0  0  0  0
   30.4020   27.0170   48.6030 H   0  0  0  0  0  0  0  0  0  0  0  0
   31.5230   25.8530   46.7850 H   0  0  0  0  0  0  0  0  0  0  0  0
   34.0980   26.1050   46.1260 N   0  0  0  0  0  0  0  0  0  0  0  0
   34.5720   24.8490   46.2820 C   0  0  0  0  0  3  0  0  0  0  0  0
   35.2210   24.1830   45.2360 C   0  0  0  0  0  0  0  0  0  0  0  0
   35.6000   23.1760   45.3620 H   0  0  0  0  0  0  0  0  0  0  0  0
   35.3440   24.8870   44.0490 C   0  0  0  0  0  0  0  0  0  0  0  0
   35.9300   24.3220   43.0660 O   0  0  0  0  0  0  0  0  0  0  0  0
   34.8540   26.1560   43.9260 N   0  0  0  0  0  0  0  0  0  0  0  0
   34.2380   26.7570   44.9560 C   0  0  0  0  0  0  0  0  0  0  0  0
   33.8300   27.9230   44.7230 O   0  0  0  0  0  0  0  0  0  0  0  0
   34.9880   26.6300   42.9840 H   0  0  0  0  0  0  0  0  0  0  0  0
  1 22  1  0  0  0  0
  1  2  2  0  0  0  0
  2  6  1  0  0  0  0
  3  7  1  0  0  0  0
  3  2  1  0  0  0  0
  4  3  2  0  0  0  0
  5  4  1  0  0  0  0
  5  1  1  0  0  0  0
  8 17  1  0  0  0  0
  9  8  1  0  0  0  0
  9  4  1  0  0  0  0
 10  9  2  0  0  0  0
 11 15  2  0  0  0  0
 11 10  1  0  0  0  0
 12 11  1  0  0  0  0
 13 12  1  0  0  0  0
 13 14  2  0  0  0  0
 14 15  1  0  0  0  0
 15 16  1  0  0  0  0
 16 21  1  0  0  0  0
 16  8  2  0  0  0  0
 18 10  1  0  0  0  0
 19 12  1  0  0  0  0
 20 14  1  0  0  0  0
 22 23  2  0  0  0  0
 24 30  1  0  0  0  0
 24 29  1  0  0  0  0
 25 24  2  0  0  0  0
 26 25  1  0  0  0  0
 26 27  2  0  0  0  0
 27 28  1  0  0  0  0
 28 29  2  0  0  0  0
 28 22  1  0  0  0  0
 31 25  1  0  0  0  0
 32 33  1  0  0  0  0
 32 26  1  0  0  0  0
 34 35  1  0  0  0  0
 34 33  2  0  0  0  0
 36 34  1  0  0  0  0
 37 36  2  0  0  0  0
 38 36  1  0  0  0  0
 38 39  1  0  0  0  0
 39 32  1  0  0  0  0
 40 39  2  0  0  0  0
 41 38  1  0  0  0  0
M  END
>  <minimizedAffinity>
-6.69403887

>  <minimizedRMSD>
0.852986515

$$$$
