
 OpenBabel03272509043D

 34 36  0  0  0  0  0  0  0  0999 V2000
   37.2400   30.4270   51.2600 C   0  0  0  0  0  0  0  0  0  0  0  0
   37.7860   31.1230   50.1500 C   0  0  0  0  0  0  0  0  0  0  0  0
   37.3140   30.7700   48.8470 C   0  0  0  0  0  0  0  0  0  0  0  0
   36.3750   29.7890   48.7730 N   0  0  0  0  0  0  0  0  0  0  0  0
   35.8960   29.1650   49.8500 C   0  0  0  0  0  0  0  0  0  0  0  0
   36.3300   29.4870   51.0820 N   0  0  0  0  0  0  0  0  0  0  0  0
   37.6540   30.7620   52.1800 H   0  0  0  0  0  0  0  0  0  0  0  0
   38.5320   31.9040   50.2070 H   0  0  0  0  0  0  0  0  0  0  0  0
   37.8330   31.4430   47.7060 N   0  0  0  0  0  0  0  0  0  0  0  0
   37.2950   30.9730   46.5560 C   0  0  0  0  0  3  0  0  0  0  0  0
   37.7160   31.5450   45.3500 C   0  0  0  0  0  0  0  0  0  0  0  0
   37.3500   31.2440   44.3800 H   0  0  0  0  0  0  0  0  0  0  0  0
   38.6440   32.5480   45.3810 C   0  0  0  0  0  0  0  0  0  0  0  0
   39.0820   33.1210   44.3650 O   0  0  0  0  0  0  0  0  0  0  0  0
   39.1570   32.9900   46.5520 N   0  0  0  0  0  0  0  0  0  0  0  0
   38.7470   32.4330   47.7080 C   0  0  0  0  0  0  0  0  0  0  0  0
   39.1010   32.7030   48.8840 O   0  0  0  0  0  0  0  0  0  0  0  0
   39.8610   33.7420   46.6680 H   0  0  0  0  0  0  0  0  0  0  0  0
   34.9040   28.1450   49.6040 C   0  0  0  0  0  3  0  0  0  0  0  0
   34.1840   28.2160   48.5360 C   0  0  0  0  0  3  0  0  0  0  0  0
   33.1270   27.2970   48.0900 C   0  0  0  0  0  0  0  0  0  0  0  0
   32.3430   27.9040   47.5690 H   0  0  0  0  0  0  0  0  0  0  0  0
   32.5920   26.7860   48.9230 H   0  0  0  0  0  0  0  0  0  0  0  0
   33.6250   26.2910   47.1010 C   0  0  0  0  0  0  0  0  0  0  0  0
   33.9030   24.9720   47.3560 C   0  0  0  0  0  0  0  0  0  0  0  0
   34.3590   24.1350   46.3600 C   0  0  0  0  0  0  0  0  0  0  0  0
   34.5540   24.6010   45.0550 C   0  0  0  0  0  0  0  0  0  0  0  0
   34.2840   25.9100   44.7790 C   0  0  0  0  0  0  0  0  0  0  0  0
   33.8270   26.7360   45.7910 C   0  0  0  0  0  0  0  0  0  0  0  0
   33.7390   24.6410   48.3830 H   0  0  0  0  0  0  0  0  0  0  0  0
   34.5550   23.1040   46.6400 H   0  0  0  0  0  0  0  0  0  0  0  0
   34.9080   23.9040   44.3300 H   0  0  0  0  0  0  0  0  0  0  0  0
   34.4240   26.3080   43.7800 H   0  0  0  0  0  0  0  0  0  0  0  0
   33.6260   27.7570   45.5380 H   0  0  0  0  0  0  0  0  0  0  0  0
  1  7  1  0  0  0  0
  2  8  1  0  0  0  0
  2  1  2  0  0  0  0
  3  2  1  0  0  0  0
  4  3  2  0  0  0  0
  4  5  1  0  0  0  0
  5  6  2  0  0  0  0
  6  1  1  0  0  0  0
  9 16  1  0  0  0  0
  9  3  1  0  0  0  0
 10  9  1  0  0  0  0
 11 13  1  0  0  0  0
 11 10  2  0  0  0  0
 12 11  1  0  0  0  0
 13 15  1  0  0  0  0
 14 13  2  0  0  0  0
 15 18  1  0  0  0  0
 15 16  1  0  0  0  0
 16 17  2  0  0  0  0
 19  5  1  0  0  0  0
 20 19  2  0  0  0  0
 21 20  1  0  0  0  0
 21 23  1  0  0  0  0
 22 21  1  0  0  0  0
 24 25  1  0  0  0  0
 24 21  1  0  0  0  0
 25 30  1  0  0  0  0
 26 31  1  0  0  0  0
 26 25  2  0  0  0  0
 27 26  1  0  0  0  0
 28 27  2  0  0  0  0
 28 29  1  0  0  0  0
 29 24  2  0  0  0  0
 32 27  1  0  0  0  0
 33 28  1  0  0  0  0
 34 29  1  0  0  0  0
M  END
>  <minimizedAffinity>
-6.84528399

>  <minimizedRMSD>
0.779582202

$$$$
