
 OpenBabel03272509433D

 39 41  0  0  1  0  0  0  0  0999 V2000
   37.0890   30.9350   49.0360 C   0  0  0  0  0  0  0  0  0  0  0  0
   36.8240   31.8690   50.0390 C   0  0  0  0  0  0  0  0  0  0  0  0
   37.4170   33.1190   50.0570 C   0  0  0  0  0  0  0  0  0  0  0  0
   38.3160   33.4630   49.0370 C   0  0  0  0  0  0  0  0  0  0  0  0
   38.5670   32.5380   48.0600 C   0  0  0  0  0  0  0  0  0  0  0  0
   37.9510   31.2950   48.0780 C   0  0  0  0  0  0  0  0  0  0  0  0
   36.1250   31.5890   50.8210 H   0  0  0  0  0  0  0  0  0  0  0  0
   37.1480   33.7600   50.8680 H   0  0  0  0  0  0  0  0  0  0  0  0
   38.7230   34.4440   49.1310 H   0  0  0  0  0  0  0  0  0  0  0  0
   39.2790   32.9490   47.3480 H   0  0  0  0  0  0  0  0  0  0  0  0
   36.4910   29.6180   49.0440 C   0  0  2  0  0  0  0  0  0  0  0  0
   36.9840   29.0560   48.1600 H   0  0  0  0  0  0  0  0  0  0  0  0
   33.6120   29.9680   46.8540 C   0  0  0  0  0  0  0  0  0  0  0  0
   32.8740   28.8240   47.0870 C   0  0  0  0  0  0  0  0  0  0  0  0
   33.3260   27.9390   48.0540 C   0  0  0  0  0  0  0  0  0  0  0  0
   34.4850   28.2290   48.7390 N   0  0  0  0  0  0  0  0  0  0  0  0
   35.1450   29.3360   48.4680 C   0  0  0  0  0  0  0  0  0  0  0  0
   34.7190   30.2070   47.5350 N   0  0  0  0  0  0  0  0  0  0  0  0
   33.2740   30.6630   46.1080 H   0  0  0  0  0  0  0  0  0  0  0  0
   31.9790   28.6810   46.5000 H   0  0  0  0  0  0  0  0  0  0  0  0
   32.7610   27.0520   48.2420 H   0  0  0  0  0  0  0  0  0  0  0  0
   36.9580   28.8690   49.9800 O   0  0  0  0  0  0  0  0  0  0  0  0
   36.5790   29.0900   50.8800 H   0  0  0  0  0  0  0  0  0  0  0  0
   38.3280   30.4070   47.0030 C   0  0  0  0  0  3  0  0  0  0  0  0
   38.9190   30.8150   45.8750 C   0  0  0  0  0  3  0  0  0  0  0  0
   39.3820   29.9940   44.7320 C   0  0  0  0  0  0  0  0  0  0  0  0
   38.7780   29.0470   44.7400 H   0  0  0  0  0  0  0  0  0  0  0  0
   40.4210   29.6870   44.8360 H   0  0  0  0  0  0  0  0  0  0  0  0
   39.0170   30.8430   43.1920 S   0  0  0  0  0  0  0  0  0  0  0  0
   35.5830   34.1460   43.2490 H   0  0  0  0  0  0  0  0  0  0  0  0
   35.8040   33.1380   43.1260 N   0  0  0  0  0  0  0  0  0  0  0  0
   37.0730   32.6600   43.2160 C   0  0  0  0  0  3  0  0  0  0  0  0
   37.3140   31.3060   43.0450 C   0  0  0  0  0  0  0  0  0  0  0  0
   36.2390   30.4820   42.7860 C   0  0  0  0  0  0  0  0  0  0  0  0
   36.5380   29.2720   42.6430 O   0  0  0  0  0  0  0  0  0  0  0  0
   34.9810   30.9480   42.6950 N   0  0  0  0  0  0  0  0  0  0  0  0
   34.7990   32.2750   42.8700 C   0  0  0  0  0  0  0  0  0  0  0  0
   33.6190   32.7500   42.7910 O   0  0  0  0  0  0  0  0  0  0  0  0
   34.2170   30.2730   42.4970 H   0  0  0  0  0  0  0  0  0  0  0  0
  1 11  1  0  0  0  0
  1  2  1  0  0  0  0
  2  3  2  0  0  0  0
  2  7  1  0  0  0  0
  3  8  1  0  0  0  0
  4  9  1  0  0  0  0
  4  3  1  0  0  0  0
  5  6  1  0  0  0  0
  5  4  2  0  0  0  0
  6  1  2  0  0  0  0
 10  5  1  0  0  0  0
 11 12  1  6  0  0  0
 11 22  1  0  0  0  0
 13 14  2  0  0  0  0
 13 18  1  0  0  0  0
 14 15  1  0  0  0  0
 15 21  1  0  0  0  0
 15 16  2  0  0  0  0
 17 16  1  0  0  0  0
 17 11  1  0  0  0  0
 18 17  2  0  0  0  0
 19 13  1  0  0  0  0
 20 14  1  0  0  0  0
 22 23  1  0  0  0  0
 24  6  1  0  0  0  0
 25 24  2  0  0  0  0
 26 27  1  0  0  0  0
 26 28  1  0  0  0  0
 26 25  1  0  0  0  0
 29 26  1  0  0  0  0
 31 32  1  0  0  0  0
 31 30  1  0  0  0  0
 33 29  1  0  0  0  0
 33 32  2  0  0  0  0
 34 33  1  0  0  0  0
 35 34  2  0  0  0  0
 36 34  1  0  0  0  0
 36 37  1  0  0  0  0
 37 31  1  0  0  0  0
 38 37  2  0  0  0  0
 39 36  1  0  0  0  0
M  END
>  <minimizedAffinity>
-6.06191921

>  <minimizedRMSD>
0.598887384

$$$$
