
 OpenBabel03272501093D

 41 44  0  0  1  0  0  0  0  0999 V2000
   38.4080   26.0090   31.9430 O   0  0  0  0  0  0  0  0  0  0  0  0
   37.3930   25.7800   31.0730 C   0  0  2  0  0  0  0  0  0  0  0  0
   36.0460   26.4040   31.5680 C   0  0  2  0  0  0  0  0  0  0  0  0
   35.0870   25.5220   30.9240 C   0  0  0  0  0  0  0  0  0  0  0  0
   35.6160   24.2370   30.9110 O   0  0  0  0  0  0  0  0  0  0  0  0
   36.9320   24.3050   31.2270 C   0  0  0  0  0  0  0  0  0  0  0  0
   37.5580   25.9660   30.0160 H   0  0  0  0  0  0  0  0  0  0  0  0
   36.0910   26.2290   32.6620 H   0  0  0  0  0  0  0  0  0  0  0  0
   34.1550   25.4810   31.5620 H   0  0  0  0  0  0  0  0  0  0  0  0
   34.7810   25.7590   29.9070 H   0  0  0  0  0  0  0  0  0  0  0  0
   37.1250   23.9590   32.2700 H   0  0  0  0  0  0  0  0  0  0  0  0
   37.5380   23.7390   30.5150 H   0  0  0  0  0  0  0  0  0  0  0  0
   36.6300   29.8010   30.0630 C   0  0  0  0  0  0  0  0  0  0  0  0
   36.7360   28.3940   30.2550 C   0  0  0  0  0  0  0  0  0  0  0  0
   35.9760   27.8180   31.3160 C   0  0  0  0  0  0  0  0  0  0  0  0
   35.1850   28.6330   32.1000 N   0  0  0  0  0  0  0  0  0  0  0  0
   35.1270   29.9510   31.8720 C   0  0  0  0  0  0  0  0  0  0  0  0
   35.8280   30.5450   30.8770 N   0  0  0  0  0  0  0  0  0  0  0  0
   37.1950   30.2540   29.2690 H   0  0  0  0  0  0  0  0  0  0  0  0
   37.3600   27.8120   29.6240 H   0  0  0  0  0  0  0  0  0  0  0  0
   34.5000   30.5670   32.4990 H   0  0  0  0  0  0  0  0  0  0  0  0
   39.7730   23.4850   33.0730 Cl  0  0  0  0  0  0  0  0  0  0  0  0
   39.2100   24.8370   34.0190 C   0  0  0  0  0  0  0  0  0  0  0  0
   38.6260   25.8490   33.2650 C   0  0  0  0  0  0  0  0  0  0  0  0
   38.1670   26.9260   34.0060 C   0  0  0  0  0  0  0  0  0  0  0  0
   38.2810   26.9860   35.3840 C   0  0  0  0  0  0  0  0  0  0  0  0
   38.8670   25.9580   36.0630 C   0  0  0  0  0  0  0  0  0  0  0  0
   39.3350   24.8740   35.3770 C   0  0  0  0  0  0  0  0  0  0  0  0
   37.6850   27.8030   33.5970 H   0  0  0  0  0  0  0  0  0  0  0  0
   37.9310   27.8160   35.9840 H   0  0  0  0  0  0  0  0  0  0  0  0
   38.9950   25.9270   37.1360 H   0  0  0  0  0  0  0  0  0  0  0  0
   39.9600   23.7560   36.0060 N   0  0  0  0  0  0  0  0  0  0  0  0
   41.3100   23.8100   35.9880 C   0  0  0  0  0  3  0  0  0  0  0  0
   42.0400   22.7910   36.5630 C   0  0  0  0  0  0  0  0  0  0  0  0
   43.1270   22.8370   36.5470 H   0  0  0  0  0  0  0  0  0  0  0  0
   41.4440   21.6960   37.1690 C   0  0  0  0  0  0  0  0  0  0  0  0
   42.0800   20.7480   37.7040 O   0  0  0  0  0  0  0  0  0  0  0  0
   40.0880   21.7230   37.1420 N   0  0  0  0  0  0  0  0  0  0  0  0
   39.3640   22.7110   36.5840 C   0  0  0  0  0  0  0  0  0  0  0  0
   38.1210   22.7240   36.5680 O   0  0  0  0  0  0  0  0  0  0  0  0
   39.5890   20.9190   37.5870 H   0  0  0  0  0  0  0  0  0  0  0  0
  1 24  1  0  0  0  0
  2  7  1  6  0  0  0
  2  6  1  0  0  0  0
  2  3  1  0  0  0  0
  2  1  1  0  0  0  0
  3  8  1  1  0  0  0
  4  9  1  0  0  0  0
  4  3  1  0  0  0  0
  5  4  1  0  0  0  0
  5  6  1  0  0  0  0
  6 11  1  0  0  0  0
 10  4  1  0  0  0  0
 12  6  1  0  0  0  0
 13 14  2  0  0  0  0
 13 18  1  0  0  0  0
 14 15  1  0  0  0  0
 15  3  1  0  0  0  0
 15 16  2  0  0  0  0
 17 16  1  0  0  0  0
 17 21  1  0  0  0  0
 18 17  2  0  0  0  0
 19 13  1  0  0  0  0
 20 14  1  0  0  0  0
 22 23  1  0  0  0  0
 23 28  1  0  0  0  0
 24 25  1  0  0  0  0
 24 23  2  0  0  0  0
 25 26  2  0  0  0  0
 26 30  1  0  0  0  0
 26 27  1  0  0  0  0
 27 31  1  0  0  0  0
 28 32  1  0  0  0  0
 28 27  2  0  0  0  0
 29 25  1  0  0  0  0
 32 39  1  0  0  0  0
 33 32  1  0  0  0  0
 33 34  2  0  0  0  0
 34 36  1  0  0  0  0
 35 34  1  0  0  0  0
 36 37  2  0  0  0  0
 38 36  1  0  0  0  0
 38 41  1  0  0  0  0
 39 38  1  0  0  0  0
 40 39  2  0  0  0  0
M  END
>  <minimizedAffinity>
-6.22162914

$$$$

 OpenBabel03272501093D

 41 44  0  0  1  0  0  0  0  0999 V2000
   38.0200   25.2040   32.3800 O   0  0  0  0  0  0  0  0  0  0  0  0
   36.6700   25.1240   32.2820 C   0  0  2  0  0  0  0  0  0  0  0  0
   36.2210   24.2890   31.0360 C   0  0  2  0  0  0  0  0  0  0  0  0
   34.9200   24.8800   30.7680 C   0  0  0  0  0  0  0  0  0  0  0  0
   34.9910   26.2380   31.0540 O   0  0  0  0  0  0  0  0  0  0  0  0
   36.1310   26.4790   31.7460 C   0  0  0  0  0  0  0  0  0  0  0  0
   36.0950   24.8670   33.1660 H   0  0  0  0  0  0  0  0  0  0  0  0
   36.9680   24.5830   30.2720 H   0  0  0  0  0  0  0  0  0  0  0  0
   34.7100   24.7920   29.6610 H   0  0  0  0  0  0  0  0  0  0  0  0
   34.0610   24.4790   31.3010 H   0  0  0  0  0  0  0  0  0  0  0  0
   36.9070   26.9650   31.1090 H   0  0  0  0  0  0  0  0  0  0  0  0
   35.9310   27.0800   32.6370 H   0  0  0  0  0  0  0  0  0  0  0  0
   35.4340   20.7960   32.1880 C   0  0  0  0  0  0  0  0  0  0  0  0
   35.2800   22.1970   31.9830 C   0  0  0  0  0  0  0  0  0  0  0  0
   36.3130   22.8730   31.2700 C   0  0  0  0  0  0  0  0  0  0  0  0
   37.4020   22.1550   30.8160 N   0  0  0  0  0  0  0  0  0  0  0  0
   37.4930   20.8390   31.0410 C   0  0  0  0  0  0  0  0  0  0  0  0
   36.5380   20.1520   31.7120 N   0  0  0  0  0  0  0  0  0  0  0  0
   34.6670   20.2680   32.7230 H   0  0  0  0  0  0  0  0  0  0  0  0
   34.4220   22.7010   32.3530 H   0  0  0  0  0  0  0  0  0  0  0  0
   38.3550   20.3010   30.6760 H   0  0  0  0  0  0  0  0  0  0  0  0
   38.7770   22.6750   33.9730 Cl  0  0  0  0  0  0  0  0  0  0  0  0
   39.4510   24.2630   34.2220 C   0  0  0  0  0  0  0  0  0  0  0  0
   38.9350   25.2340   33.3710 C   0  0  0  0  0  0  0  0  0  0  0  0
   39.4560   26.5030   33.5630 C   0  0  0  0  0  0  0  0  0  0  0  0
   40.4110   26.7790   34.5260 C   0  0  0  0  0  0  0  0  0  0  0  0
   40.8760   25.7780   35.3290 C   0  0  0  0  0  0  0  0  0  0  0  0
   40.3920   24.5100   35.1770 C   0  0  0  0  0  0  0  0  0  0  0  0
   39.1780   27.3830   33.0010 H   0  0  0  0  0  0  0  0  0  0  0  0
   40.8340   27.7610   34.6960 H   0  0  0  0  0  0  0  0  0  0  0  0
   41.6200   25.9090   36.1020 H   0  0  0  0  0  0  0  0  0  0  0  0
   40.8220   23.4050   35.9720 N   0  0  0  0  0  0  0  0  0  0  0  0
   41.9960   22.8720   35.5680 C   0  0  0  0  0  3  0  0  0  0  0  0
   42.5270   21.7980   36.2500 C   0  0  0  0  0  0  0  0  0  0  0  0
   43.4720   21.3710   35.9230 H   0  0  0  0  0  0  0  0  0  0  0  0
   41.9010   21.2280   37.3490 C   0  0  0  0  0  0  0  0  0  0  0  0
   42.3570   20.2470   37.9950 O   0  0  0  0  0  0  0  0  0  0  0  0
   40.7290   21.8250   37.6840 N   0  0  0  0  0  0  0  0  0  0  0  0
   40.2010   22.8740   37.0270 C   0  0  0  0  0  0  0  0  0  0  0  0
   39.1270   23.4110   37.3460 O   0  0  0  0  0  0  0  0  0  0  0  0
   40.2180   21.4330   38.5080 H   0  0  0  0  0  0  0  0  0  0  0  0
  1 24  1  0  0  0  0
  2  1  1  0  0  0  0
  2  7  1  1  0  0  0
  3  8  1  6  0  0  0
  3 15  1  0  0  0  0
  3  2  1  0  0  0  0
  4  3  1  0  0  0  0
  4  5  1  0  0  0  0
  4 10  1  0  0  0  0
  5  6  1  0  0  0  0
  6  2  1  0  0  0  0
  6 12  1  0  0  0  0
  9  4  1  0  0  0  0
 11  6  1  0  0  0  0
 13 19  1  0  0  0  0
 14 13  1  0  0  0  0
 14 20  1  0  0  0  0
 15 14  2  0  0  0  0
 16 17  2  0  0  0  0
 16 15  1  0  0  0  0
 17 18  1  0  0  0  0
 18 13  2  0  0  0  0
 21 17  1  0  0  0  0
 22 23  1  0  0  0  0
 23 28  1  0  0  0  0
 24 25  1  0  0  0  0
 24 23  2  0  0  0  0
 25 26  2  0  0  0  0
 26 30  1  0  0  0  0
 26 27  1  0  0  0  0
 27 31  1  0  0  0  0
 28 27  2  0  0  0  0
 28 32  1  0  0  0  0
 29 25  1  0  0  0  0
 32 39  1  0  0  0  0
 33 32  1  0  0  0  0
 33 34  2  0  0  0  0
 34 36  1  0  0  0  0
 35 34  1  0  0  0  0
 36 38  1  0  0  0  0
 36 37  2  0  0  0  0
 38 41  1  0  0  0  0
 39 40  2  0  0  0  0
 39 38  1  0  0  0  0
M  END
>  <minimizedAffinity>
-5.96716452

$$$$

 OpenBabel03272501093D

 41 44  0  0  1  0  0  0  0  0999 V2000
   36.6020   26.2790   32.4130 O   0  0  0  0  0  0  0  0  0  0  0  0
   36.9220   26.5500   31.1240 C   0  0  2  0  0  0  0  0  0  0  0  0
   38.4020   27.0380   30.9770 C   0  0  2  0  0  0  0  0  0  0  0  0
   38.3010   27.8530   29.7780 C   0  0  0  0  0  0  0  0  0  0  0  0
   37.0650   28.4870   29.7850 O   0  0  0  0  0  0  0  0  0  0  0  0
   36.2840   27.9110   30.7310 C   0  0  0  0  0  0  0  0  0  0  0  0
   36.6590   25.8290   30.3560 H   0  0  0  0  0  0  0  0  0  0  0  0
   38.5370   27.6610   31.8840 H   0  0  0  0  0  0  0  0  0  0  0  0
   39.0820   28.6670   29.8330 H   0  0  0  0  0  0  0  0  0  0  0  0
   38.4070   27.3570   28.8160 H   0  0  0  0  0  0  0  0  0  0  0  0
   36.1880   28.5550   31.6370 H   0  0  0  0  0  0  0  0  0  0  0  0
   35.2990   27.6600   30.3300 H   0  0  0  0  0  0  0  0  0  0  0  0
   41.4040   24.9240   31.7940 C   0  0  0  0  0  0  0  0  0  0  0  0
   40.5110   26.0340   31.8160 C   0  0  0  0  0  0  0  0  0  0  0  0
   39.3390   25.9480   31.0060 C   0  0  0  0  0  0  0  0  0  0  0  0
   39.1230   24.8140   30.2480 N   0  0  0  0  0  0  0  0  0  0  0  0
   40.0000   23.8030   30.2680 C   0  0  0  0  0  0  0  0  0  0  0  0
   41.1260   23.8360   31.0210 N   0  0  0  0  0  0  0  0  0  0  0  0
   42.2920   24.9680   32.3960 H   0  0  0  0  0  0  0  0  0  0  0  0
   40.7240   26.8820   32.4160 H   0  0  0  0  0  0  0  0  0  0  0  0
   39.8070   22.9280   29.6660 H   0  0  0  0  0  0  0  0  0  0  0  0
   37.9710   23.7250   33.4710 Cl  0  0  0  0  0  0  0  0  0  0  0  0
   37.9280   25.2610   34.2940 C   0  0  0  0  0  0  0  0  0  0  0  0
   37.2410   26.2530   33.6020 C   0  0  0  0  0  0  0  0  0  0  0  0
   37.1910   27.4770   34.2490 C   0  0  0  0  0  0  0  0  0  0  0  0
   37.7780   27.6920   35.4840 C   0  0  0  0  0  0  0  0  0  0  0  0
   38.4380   26.6740   36.1100 C   0  0  0  0  0  0  0  0  0  0  0  0
   38.5140   25.4490   35.5110 C   0  0  0  0  0  0  0  0  0  0  0  0
   36.7040   28.3640   33.8690 H   0  0  0  0  0  0  0  0  0  0  0  0
   37.7530   28.6370   36.0100 H   0  0  0  0  0  0  0  0  0  0  0  0
   38.9220   26.7590   37.0730 H   0  0  0  0  0  0  0  0  0  0  0  0
   39.1830   24.3310   36.0920 N   0  0  0  0  0  0  0  0  0  0  0  0
   40.4550   24.1790   35.6650 C   0  0  0  0  0  3  0  0  0  0  0  0
   41.2180   23.1370   36.1490 C   0  0  0  0  0  0  0  0  0  0  0  0
   42.2420   23.0170   35.8030 H   0  0  0  0  0  0  0  0  0  0  0  0
   40.7310   22.2210   37.0690 C   0  0  0  0  0  0  0  0  0  0  0  0
   41.3980   21.2570   37.5320 O   0  0  0  0  0  0  0  0  0  0  0  0
   39.4460   22.4480   37.4430 N   0  0  0  0  0  0  0  0  0  0  0  0
   38.6920   23.4610   36.9780 C   0  0  0  0  0  0  0  0  0  0  0  0
   37.5170   23.6570   37.3310 O   0  0  0  0  0  0  0  0  0  0  0  0
   39.0310   21.7840   38.1370 H   0  0  0  0  0  0  0  0  0  0  0  0
  1 24  1  0  0  0  0
  2  7  1  6  0  0  0
  2  1  1  0  0  0  0
  3 15  1  0  0  0  0
  3  2  1  0  0  0  0
  3  8  1  1  0  0  0
  4  5  1  0  0  0  0
  4  9  1  0  0  0  0
  4  3  1  0  0  0  0
  5  6  1  0  0  0  0
  6  2  1  0  0  0  0
  6 11  1  0  0  0  0
 10  4  1  0  0  0  0
 12  6  1  0  0  0  0
 13 14  1  0  0  0  0
 13 19  1  0  0  0  0
 14 20  1  0  0  0  0
 15 14  2  0  0  0  0
 16 17  2  0  0  0  0
 16 15  1  0  0  0  0
 17 18  1  0  0  0  0
 18 13  2  0  0  0  0
 21 17  1  0  0  0  0
 22 23  1  0  0  0  0
 23 28  1  0  0  0  0
 24 25  1  0  0  0  0
 24 23  2  0  0  0  0
 25 26  2  0  0  0  0
 26 30  1  0  0  0  0
 26 27  1  0  0  0  0
 27 31  1  0  0  0  0
 28 32  1  0  0  0  0
 28 27  2  0  0  0  0
 29 25  1  0  0  0  0
 32 39  1  0  0  0  0
 33 32  1  0  0  0  0
 33 34  2  0  0  0  0
 34 36  1  0  0  0  0
 35 34  1  0  0  0  0
 36 38  1  0  0  0  0
 36 37  2  0  0  0  0
 38 41  1  0  0  0  0
 39 40  2  0  0  0  0
 39 38  1  0  0  0  0
M  END
>  <minimizedAffinity>
-5.90373755

$$$$

 OpenBabel03272501093D

 41 44  0  0  1  0  0  0  0  0999 V2000
   38.1990   23.2290   35.2440 O   0  0  0  0  0  0  0  0  0  0  0  0
   38.6580   23.8460   36.3610 C   0  0  2  0  0  0  0  0  0  0  0  0
   39.3350   22.8400   37.3500 C   0  0  2  0  0  0  0  0  0  0  0  0
   39.1200   23.5190   38.6170 C   0  0  0  0  0  0  0  0  0  0  0  0
   37.8840   24.1500   38.5690 O   0  0  0  0  0  0  0  0  0  0  0  0
   37.4490   24.1620   37.2850 C   0  0  0  0  0  0  0  0  0  0  0  0
   39.2390   24.7570   36.2540 H   0  0  0  0  0  0  0  0  0  0  0  0
   38.6920   21.9430   37.2530 H   0  0  0  0  0  0  0  0  0  0  0  0
   39.0540   22.7400   39.4320 H   0  0  0  0  0  0  0  0  0  0  0  0
   39.8530   24.2610   38.9270 H   0  0  0  0  0  0  0  0  0  0  0  0
   36.6420   23.4110   37.1150 H   0  0  0  0  0  0  0  0  0  0  0  0
   37.1170   25.1600   36.9900 H   0  0  0  0  0  0  0  0  0  0  0  0
   42.7100   22.9660   35.6920 C   0  0  0  0  0  0  0  0  0  0  0  0
   41.3880   23.3560   36.0540 C   0  0  0  0  0  0  0  0  0  0  0  0
   40.6770   22.5070   36.9520 C   0  0  0  0  0  0  0  0  0  0  0  0
   41.2860   21.3610   37.4240 N   0  0  0  0  0  0  0  0  0  0  0  0
   42.5310   21.0460   37.0470 C   0  0  0  0  0  0  0  0  0  0  0  0
   43.2480   21.8200   36.1980 N   0  0  0  0  0  0  0  0  0  0  0  0
   43.2630   23.5920   35.0170 H   0  0  0  0  0  0  0  0  0  0  0  0
   40.9660   24.2470   35.6620 H   0  0  0  0  0  0  0  0  0  0  0  0
   42.9840   20.1440   37.4310 H   0  0  0  0  0  0  0  0  0  0  0  0
   37.4080   25.9900   34.1200 Cl  0  0  0  0  0  0  0  0  0  0  0  0
   37.8740   24.6080   33.1650 C   0  0  0  0  0  0  0  0  0  0  0  0
   38.1800   23.4790   33.9180 C   0  0  0  0  0  0  0  0  0  0  0  0
   38.5430   22.3700   33.1720 C   0  0  0  0  0  0  0  0  0  0  0  0
   38.5960   22.3870   31.7890 C   0  0  0  0  0  0  0  0  0  0  0  0
   38.2830   23.5300   31.1100 C   0  0  0  0  0  0  0  0  0  0  0  0
   37.9190   24.6490   31.8030 C   0  0  0  0  0  0  0  0  0  0  0  0
   38.8130   21.4060   33.5790 H   0  0  0  0  0  0  0  0  0  0  0  0
   38.8760   21.5350   31.1830 H   0  0  0  0  0  0  0  0  0  0  0  0
   38.3000   23.6260   30.0340 H   0  0  0  0  0  0  0  0  0  0  0  0
   37.5770   25.8830   31.1750 N   0  0  0  0  0  0  0  0  0  0  0  0
   38.6420   26.6770   30.9260 C   0  0  0  0  0  3  0  0  0  0  0  0
   38.4530   27.9010   30.3200 C   0  0  0  0  0  0  0  0  0  0  0  0
   39.3110   28.5380   30.1210 H   0  0  0  0  0  0  0  0  0  0  0  0
   37.1990   28.3650   29.9500 C   0  0  0  0  0  0  0  0  0  0  0  0
   36.9890   29.4770   29.3960 O   0  0  0  0  0  0  0  0  0  0  0  0
   36.1890   27.5060   30.2380 N   0  0  0  0  0  0  0  0  0  0  0  0
   36.3600   26.3090   30.8270 C   0  0  0  0  0  0  0  0  0  0  0  0
   35.4250   25.5310   31.0840 O   0  0  0  0  0  0  0  0  0  0  0  0
   35.2220   27.8080   29.9780 H   0  0  0  0  0  0  0  0  0  0  0  0
  1  2  1  0  0  0  0
  2  7  1  6  0  0  0
  2  6  1  0  0  0  0
  2  3  1  0  0  0  0
  3  8  1  1  0  0  0
  3  4  1  0  0  0  0
  4 10  1  0  0  0  0
  4  9  1  0  0  0  0
  5  4  1  0  0  0  0
  6  5  1  0  0  0  0
 11  6  1  0  0  0  0
 12  6  1  0  0  0  0
 13 14  2  0  0  0  0
 13 18  1  0  0  0  0
 14 15  1  0  0  0  0
 15  3  1  0  0  0  0
 15 16  2  0  0  0  0
 17 16  1  0  0  0  0
 17 21  1  0  0  0  0
 18 17  2  0  0  0  0
 19 13  1  0  0  0  0
 20 14  1  0  0  0  0
 23 24  1  0  0  0  0
 23 22  1  0  0  0  0
 24  1  1  0  0  0  0
 25 29  1  0  0  0  0
 25 24  2  0  0  0  0
 26 25  1  0  0  0  0
 27 26  2  0  0  0  0
 27 28  1  0  0  0  0
 28 23  2  0  0  0  0
 30 26  1  0  0  0  0
 31 27  1  0  0  0  0
 32 28  1  0  0  0  0
 33 32  1  0  0  0  0
 34 33  2  0  0  0  0
 35 34  1  0  0  0  0
 36 38  1  0  0  0  0
 36 34  1  0  0  0  0
 37 36  2  0  0  0  0
 38 39  1  0  0  0  0
 39 40  2  0  0  0  0
 39 32  1  0  0  0  0
 41 38  1  0  0  0  0
M  END
>  <minimizedAffinity>
-5.84656

$$$$

 OpenBabel03272501093D

 41 44  0  0  1  0  0  0  0  0999 V2000
   35.5750   31.1960   33.8740 O   0  0  0  0  0  0  0  0  0  0  0  0
   35.2220   30.9660   35.1620 C   0  0  2  0  0  0  0  0  0  0  0  0
   33.7320   31.3560   35.4400 C   0  0  2  0  0  0  0  0  0  0  0  0
   33.7920   31.6670   36.8580 C   0  0  0  0  0  0  0  0  0  0  0  0
   35.0180   32.2650   37.1210 O   0  0  0  0  0  0  0  0  0  0  0  0
   35.8290   32.0870   36.0500 C   0  0  0  0  0  0  0  0  0  0  0  0
   35.4780   30.0130   35.6130 H   0  0  0  0  0  0  0  0  0  0  0  0
   33.6080   32.2710   34.8260 H   0  0  0  0  0  0  0  0  0  0  0  0
   33.0000   32.4390   37.0890 H   0  0  0  0  0  0  0  0  0  0  0  0
   33.6710   30.8480   37.5640 H   0  0  0  0  0  0  0  0  0  0  0  0
   35.9360   33.0220   35.4520 H   0  0  0  0  0  0  0  0  0  0  0  0
   36.8090   31.7110   36.3560 H   0  0  0  0  0  0  0  0  0  0  0  0
   31.3740   28.4260   35.3830 C   0  0  0  0  0  0  0  0  0  0  0  0
   32.2730   29.4020   35.9010 C   0  0  0  0  0  0  0  0  0  0  0  0
   32.8120   30.3500   34.9810 C   0  0  0  0  0  0  0  0  0  0  0  0
   32.4490   30.2830   33.6510 N   0  0  0  0  0  0  0  0  0  0  0  0
   31.6010   29.3410   33.2220 C   0  0  0  0  0  0  0  0  0  0  0  0
   31.0600   28.4200   34.0560 N   0  0  0  0  0  0  0  0  0  0  0  0
   30.9560   27.7030   36.0580 H   0  0  0  0  0  0  0  0  0  0  0  0
   32.5190   29.4100   36.9330 H   0  0  0  0  0  0  0  0  0  0  0  0
   31.3330   29.3100   32.1770 H   0  0  0  0  0  0  0  0  0  0  0  0
   36.0630   28.1580   34.0730 Cl  0  0  0  0  0  0  0  0  0  0  0  0
   36.1600   29.1010   32.6100 C   0  0  0  0  0  0  0  0  0  0  0  0
   35.8980   30.4540   32.7940 C   0  0  0  0  0  0  0  0  0  0  0  0
   35.9800   31.2180   31.6400 C   0  0  0  0  0  0  0  0  0  0  0  0
   36.2970   30.6740   30.4080 C   0  0  0  0  0  0  0  0  0  0  0  0
   36.5420   29.3360   30.2970 C   0  0  0  0  0  0  0  0  0  0  0  0
   36.4730   28.5420   31.4070 C   0  0  0  0  0  0  0  0  0  0  0  0
   35.8110   32.2840   31.5850 H   0  0  0  0  0  0  0  0  0  0  0  0
   36.3670   31.2490   29.4930 H   0  0  0  0  0  0  0  0  0  0  0  0
   36.7950   28.8340   29.3740 H   0  0  0  0  0  0  0  0  0  0  0  0
   36.7140   27.1360   31.3820 N   0  0  0  0  0  0  0  0  0  0  0  0
   35.6070   26.4020   31.1350 C   0  0  0  0  0  3  0  0  0  0  0  0
   35.6980   25.0270   31.0830 C   0  0  0  0  0  0  0  0  0  0  0  0
   34.8060   24.4380   30.8850 H   0  0  0  0  0  0  0  0  0  0  0  0
   36.8940   24.3510   31.2770 C   0  0  0  0  0  0  0  0  0  0  0  0
   37.0140   23.0970   31.2360 O   0  0  0  0  0  0  0  0  0  0  0  0
   37.9530   25.1650   31.5180 N   0  0  0  0  0  0  0  0  0  0  0  0
   37.8760   26.5070   31.5710 C   0  0  0  0  0  0  0  0  0  0  0  0
   38.8550   27.2410   31.7930 O   0  0  0  0  0  0  0  0  0  0  0  0
   38.8790   24.7040   31.6710 H   0  0  0  0  0  0  0  0  0  0  0  0
  1  2  1  0  0  0  0
  2  3  1  0  0  0  0
  2  7  1  1  0  0  0
  2  6  1  0  0  0  0
  3  8  1  6  0  0  0
  3  4  1  0  0  0  0
  4  9  1  0  0  0  0
  4  5  1  0  0  0  0
  4 10  1  0  0  0  0
  6 12  1  0  0  0  0
  6  5  1  0  0  0  0
 11  6  1  0  0  0  0
 13 14  1  0  0  0  0
 13 19  1  0  0  0  0
 14 20  1  0  0  0  0
 15  3  1  0  0  0  0
 15 14  2  0  0  0  0
 16 15  1  0  0  0  0
 17 16  2  0  0  0  0
 17 18  1  0  0  0  0
 18 13  2  0  0  0  0
 21 17  1  0  0  0  0
 23 24  1  0  0  0  0
 23 22  1  0  0  0  0
 24  1  1  0  0  0  0
 25 24  2  0  0  0  0
 26 25  1  0  0  0  0
 27 26  2  0  0  0  0
 27 28  1  0  0  0  0
 28 23  2  0  0  0  0
 29 25  1  0  0  0  0
 30 26  1  0  0  0  0
 31 27  1  0  0  0  0
 32 28  1  0  0  0  0
 32 39  1  0  0  0  0
 33 32  1  0  0  0  0
 34 33  2  0  0  0  0
 34 36  1  0  0  0  0
 35 34  1  0  0  0  0
 36 38  1  0  0  0  0
 37 36  2  0  0  0  0
 38 39  1  0  0  0  0
 38 41  1  0  0  0  0
 39 40  2  0  0  0  0
M  END
>  <minimizedAffinity>
-5.7566638

$$$$

 OpenBabel03272501093D

 41 44  0  0  1  0  0  0  0  0999 V2000
   37.9800   26.4230   32.5540 O   0  0  0  0  0  0  0  0  0  0  0  0
   39.2250   26.0650   32.9520 C   0  0  2  0  0  0  0  0  0  0  0  0
   39.3340   25.9560   34.5090 C   0  0  2  0  0  0  0  0  0  0  0  0
   40.7470   26.2390   34.7020 C   0  0  0  0  0  0  0  0  0  0  0  0
   41.1330   27.1900   33.7660 O   0  0  0  0  0  0  0  0  0  0  0  0
   40.1580   27.3010   32.8300 C   0  0  0  0  0  0  0  0  0  0  0  0
   39.7140   25.2330   32.4550 H   0  0  0  0  0  0  0  0  0  0  0  0
   38.6990   26.7970   34.8510 H   0  0  0  0  0  0  0  0  0  0  0  0
   40.8790   26.7140   35.7190 H   0  0  0  0  0  0  0  0  0  0  0  0
   41.4460   25.4090   34.6320 H   0  0  0  0  0  0  0  0  0  0  0  0
   39.5630   28.2350   32.9630 H   0  0  0  0  0  0  0  0  0  0  0  0
   40.5740   27.2490   31.8210 H   0  0  0  0  0  0  0  0  0  0  0  0
   37.7160   23.4060   36.7520 C   0  0  0  0  0  0  0  0  0  0  0  0
   38.2280   24.6620   36.3150 C   0  0  0  0  0  0  0  0  0  0  0  0
   38.7930   24.7200   35.0060 C   0  0  0  0  0  0  0  0  0  0  0  0
   38.8220   23.5780   34.2320 N   0  0  0  0  0  0  0  0  0  0  0  0
   38.3270   22.4250   34.6980 C   0  0  0  0  0  0  0  0  0  0  0  0
   37.7780   22.3190   35.9320 N   0  0  0  0  0  0  0  0  0  0  0  0
   37.2860   23.3410   37.7340 H   0  0  0  0  0  0  0  0  0  0  0  0
   38.1810   25.5100   36.9500 H   0  0  0  0  0  0  0  0  0  0  0  0
   38.3610   21.5460   34.0720 H   0  0  0  0  0  0  0  0  0  0  0  0
   36.5560   27.6030   35.0230 Cl  0  0  0  0  0  0  0  0  0  0  0  0
   36.5370   28.2930   33.4220 C   0  0  0  0  0  0  0  0  0  0  0  0
   37.2570   27.5610   32.4840 C   0  0  0  0  0  0  0  0  0  0  0  0
   37.2430   28.0940   31.2050 C   0  0  0  0  0  0  0  0  0  0  0  0
   36.5670   29.2590   30.8900 C   0  0  0  0  0  0  0  0  0  0  0  0
   35.8790   29.9300   31.8600 C   0  0  0  0  0  0  0  0  0  0  0  0
   35.8640   29.4430   33.1360 C   0  0  0  0  0  0  0  0  0  0  0  0
   37.7430   27.6670   30.3470 H   0  0  0  0  0  0  0  0  0  0  0  0
   36.5400   29.6950   29.9000 H   0  0  0  0  0  0  0  0  0  0  0  0
   35.3260   30.8440   31.6970 H   0  0  0  0  0  0  0  0  0  0  0  0
   35.1720   30.0790   34.2100 N   0  0  0  0  0  0  0  0  0  0  0  0
   35.9570   30.8860   34.9570 C   0  0  0  0  0  3  0  0  0  0  0  0
   35.4140   31.5640   36.0280 C   0  0  0  0  0  0  0  0  0  0  0  0
   36.0480   32.2120   36.6280 H   0  0  0  0  0  0  0  0  0  0  0  0
   34.0780   31.4530   36.3820 C   0  0  0  0  0  0  0  0  0  0  0  0
   33.5490   32.0570   37.3530 O   0  0  0  0  0  0  0  0  0  0  0  0
   33.3640   30.6230   35.5790 N   0  0  0  0  0  0  0  0  0  0  0  0
   33.8820   29.9570   34.5310 C   0  0  0  0  0  0  0  0  0  0  0  0
   33.2160   29.2010   33.8040 O   0  0  0  0  0  0  0  0  0  0  0  0
   32.3500   30.5060   35.8030 H   0  0  0  0  0  0  0  0  0  0  0  0
  1  2  1  0  0  0  0
  2  7  1  6  0  0  0
  2  3  1  0  0  0  0
  3  4  1  0  0  0  0
  3  8  1  1  0  0  0
  3 15  1  0  0  0  0
  4  9  1  0  0  0  0
  5  4  1  0  0  0  0
  6  2  1  0  0  0  0
  6 11  1  0  0  0  0
  6  5  1  0  0  0  0
 10  4  1  0  0  0  0
 12  6  1  0  0  0  0
 13 19  1  0  0  0  0
 14 13  1  0  0  0  0
 14 20  1  0  0  0  0
 15 14  2  0  0  0  0
 16 17  2  0  0  0  0
 16 15  1  0  0  0  0
 17 18  1  0  0  0  0
 18 13  2  0  0  0  0
 21 17  1  0  0  0  0
 23 22  1  0  0  0  0
 24  1  1  0  0  0  0
 24 23  2  0  0  0  0
 25 24  1  0  0  0  0
 26 25  2  0  0  0  0
 26 27  1  0  0  0  0
 27 28  2  0  0  0  0
 28 23  1  0  0  0  0
 28 32  1  0  0  0  0
 29 25  1  0  0  0  0
 30 26  1  0  0  0  0
 31 27  1  0  0  0  0
 32 39  1  0  0  0  0
 32 33  1  0  0  0  0
 33 34  2  0  0  0  0
 34 36  1  0  0  0  0
 34 35  1  0  0  0  0
 36 37  2  0  0  0  0
 38 41  1  0  0  0  0
 38 36  1  0  0  0  0
 39 38  1  0  0  0  0
 40 39  2  0  0  0  0
M  END
>  <minimizedAffinity>
-5.75128031

$$$$

 OpenBabel03272501093D

 41 44  0  0  1  0  0  0  0  0999 V2000
   36.5770   26.6470   32.8280 O   0  0  0  0  0  0  0  0  0  0  0  0
   37.0430   27.8870   32.5390 C   0  0  2  0  0  0  0  0  0  0  0  0
   35.9380   28.7950   31.9040 C   0  0  2  0  0  0  0  0  0  0  0  0
   36.7540   29.7040   31.1160 C   0  0  0  0  0  0  0  0  0  0  0  0
   37.8360   28.9930   30.6120 O   0  0  0  0  0  0  0  0  0  0  0  0
   37.9130   27.8020   31.2550 C   0  0  0  0  0  0  0  0  0  0  0  0
   37.6160   28.4190   33.2920 H   0  0  0  0  0  0  0  0  0  0  0  0
   35.3860   28.0800   31.2600 H   0  0  0  0  0  0  0  0  0  0  0  0
   36.1480   30.0460   30.2260 H   0  0  0  0  0  0  0  0  0  0  0  0
   37.1470   30.5900   31.6090 H   0  0  0  0  0  0  0  0  0  0  0  0
   37.5550   26.9620   30.6150 H   0  0  0  0  0  0  0  0  0  0  0  0
   38.9290   27.6120   31.6100 H   0  0  0  0  0  0  0  0  0  0  0  0
   34.6220   30.5360   34.9680 C   0  0  0  0  0  0  0  0  0  0  0  0
   35.5610   30.0340   34.0210 C   0  0  0  0  0  0  0  0  0  0  0  0
   35.0420   29.3330   32.8920 C   0  0  0  0  0  0  0  0  0  0  0  0
   33.6770   29.1720   32.7660 N   0  0  0  0  0  0  0  0  0  0  0  0
   32.8430   29.6650   33.6890 C   0  0  0  0  0  0  0  0  0  0  0  0
   33.2860   30.3390   34.7780 N   0  0  0  0  0  0  0  0  0  0  0  0
   34.9920   31.0660   35.8250 H   0  0  0  0  0  0  0  0  0  0  0  0
   36.6010   30.1850   34.1660 H   0  0  0  0  0  0  0  0  0  0  0  0
   31.7800   29.5260   33.5670 H   0  0  0  0  0  0  0  0  0  0  0  0
   38.2710   25.7070   35.2270 Cl  0  0  0  0  0  0  0  0  0  0  0  0
   37.8540   24.7320   33.8440 C   0  0  0  0  0  0  0  0  0  0  0  0
   37.0810   25.3970   32.8980 C   0  0  0  0  0  0  0  0  0  0  0  0
   36.7500   24.6360   31.7880 C   0  0  0  0  0  0  0  0  0  0  0  0
   37.1550   23.3220   31.6370 C   0  0  0  0  0  0  0  0  0  0  0  0
   37.9120   22.7280   32.6060 C   0  0  0  0  0  0  0  0  0  0  0  0
   38.2650   23.4380   33.7180 C   0  0  0  0  0  0  0  0  0  0  0  0
   36.1590   24.9790   30.9510 H   0  0  0  0  0  0  0  0  0  0  0  0
   36.9100   22.7070   30.7810 H   0  0  0  0  0  0  0  0  0  0  0  0
   38.2690   21.7080   32.5650 H   0  0  0  0  0  0  0  0  0  0  0  0
   39.0530   22.8970   34.7770 N   0  0  0  0  0  0  0  0  0  0  0  0
   40.3830   22.9930   34.5660 C   0  0  0  0  0  3  0  0  0  0  0  0
   41.2610   22.5090   35.5120 C   0  0  0  0  0  0  0  0  0  0  0  0
   42.3320   22.5870   35.3390 H   0  0  0  0  0  0  0  0  0  0  0  0
   40.8350   21.9170   36.6920 C   0  0  0  0  0  0  0  0  0  0  0  0
   41.6080   21.4640   37.5780 O   0  0  0  0  0  0  0  0  0  0  0  0
   39.4850   21.8620   36.8220 N   0  0  0  0  0  0  0  0  0  0  0  0
   38.6190   22.3310   35.9060 C   0  0  0  0  0  0  0  0  0  0  0  0
   37.3840   22.2750   36.0390 O   0  0  0  0  0  0  0  0  0  0  0  0
   39.1120   21.4250   37.6950 H   0  0  0  0  0  0  0  0  0  0  0  0
  1 24  1  0  0  0  0
  2  1  1  0  0  0  0
  2  7  1  1  0  0  0
  3  8  1  6  0  0  0
  3  2  1  0  0  0  0
  3 15  1  0  0  0  0
  4 10  1  0  0  0  0
  4  3  1  0  0  0  0
  5  4  1  0  0  0  0
  5  6  1  0  0  0  0
  6 12  1  0  0  0  0
  6  2  1  0  0  0  0
  9  4  1  0  0  0  0
 11  6  1  0  0  0  0
 13 19  1  0  0  0  0
 14 20  1  0  0  0  0
 14 13  2  0  0  0  0
 15 14  1  0  0  0  0
 16 15  2  0  0  0  0
 16 17  1  0  0  0  0
 17 18  2  0  0  0  0
 18 13  1  0  0  0  0
 21 17  1  0  0  0  0
 23 22  1  0  0  0  0
 24 23  2  0  0  0  0
 25 24  1  0  0  0  0
 26 25  2  0  0  0  0
 26 27  1  0  0  0  0
 27 28  2  0  0  0  0
 28 23  1  0  0  0  0
 28 32  1  0  0  0  0
 29 25  1  0  0  0  0
 30 26  1  0  0  0  0
 31 27  1  0  0  0  0
 32 39  1  0  0  0  0
 33 32  1  0  0  0  0
 33 34  2  0  0  0  0
 34 36  1  0  0  0  0
 35 34  1  0  0  0  0
 36 38  1  0  0  0  0
 36 37  2  0  0  0  0
 38 41  1  0  0  0  0
 39 40  2  0  0  0  0
 39 38  1  0  0  0  0
M  END
>  <minimizedAffinity>
-5.74647093

$$$$

 OpenBabel03272501093D

 41 44  0  0  1  0  0  0  0  0999 V2000
   37.7650   24.0890   33.3960 O   0  0  0  0  0  0  0  0  0  0  0  0
   39.0140   23.5630   33.4070 C   0  0  2  0  0  0  0  0  0  0  0  0
   39.9510   24.2990   34.4220 C   0  0  2  0  0  0  0  0  0  0  0  0
   41.2490   24.0690   33.8080 C   0  0  0  0  0  0  0  0  0  0  0  0
   41.0910   24.1050   32.4280 O   0  0  0  0  0  0  0  0  0  0  0  0
   39.7680   24.0480   32.1390 C   0  0  0  0  0  0  0  0  0  0  0  0
   39.1270   22.4840   33.4660 H   0  0  0  0  0  0  0  0  0  0  0  0
   39.6310   25.3550   34.3160 H   0  0  0  0  0  0  0  0  0  0  0  0
   41.9290   24.9290   34.0790 H   0  0  0  0  0  0  0  0  0  0  0  0
   41.7700   23.1460   34.0520 H   0  0  0  0  0  0  0  0  0  0  0  0
   39.3700   25.0420   31.8250 H   0  0  0  0  0  0  0  0  0  0  0  0
   39.5640   23.2920   31.3770 H   0  0  0  0  0  0  0  0  0  0  0  0
   40.3700   22.5800   37.7420 C   0  0  0  0  0  0  0  0  0  0  0  0
   40.6490   22.9740   36.4020 C   0  0  0  0  0  0  0  0  0  0  0  0
   39.7300   23.8690   35.7760 C   0  0  0  0  0  0  0  0  0  0  0  0
   38.6270   24.3060   36.4810 N   0  0  0  0  0  0  0  0  0  0  0  0
   38.4160   23.8990   37.7390 C   0  0  0  0  0  0  0  0  0  0  0  0
   39.2600   23.0520   38.3770 N   0  0  0  0  0  0  0  0  0  0  0  0
   41.0490   21.9070   38.2310 H   0  0  0  0  0  0  0  0  0  0  0  0
   41.5120   22.6090   35.9040 H   0  0  0  0  0  0  0  0  0  0  0  0
   37.5460   24.2560   38.2690 H   0  0  0  0  0  0  0  0  0  0  0  0
   38.1150   27.1310   33.0240 Cl  0  0  0  0  0  0  0  0  0  0  0  0
   36.9560   26.1380   32.1810 C   0  0  0  0  0  0  0  0  0  0  0  0
   37.0010   24.7940   32.5350 C   0  0  0  0  0  0  0  0  0  0  0  0
   36.0790   23.9950   31.8790 C   0  0  0  0  0  0  0  0  0  0  0  0
   35.1860   24.4970   30.9480 C   0  0  0  0  0  0  0  0  0  0  0  0
   35.1960   25.8280   30.6450 C   0  0  0  0  0  0  0  0  0  0  0  0
   36.0870   26.6560   31.2670 C   0  0  0  0  0  0  0  0  0  0  0  0
   35.9630   22.9300   32.0230 H   0  0  0  0  0  0  0  0  0  0  0  0
   34.4570   23.8940   30.4230 H   0  0  0  0  0  0  0  0  0  0  0  0
   34.5340   26.2980   29.9320 H   0  0  0  0  0  0  0  0  0  0  0  0
   36.1660   28.0570   31.0110 N   0  0  0  0  0  0  0  0  0  0  0  0
   36.9710   28.3740   29.9740 C   0  0  0  0  0  3  0  0  0  0  0  0
   37.1370   29.6960   29.6170 C   0  0  0  0  0  0  0  0  0  0  0  0
   37.7860   29.9480   28.7820 H   0  0  0  0  0  0  0  0  0  0  0  0
   36.5050   30.7340   30.2860 C   0  0  0  0  0  0  0  0  0  0  0  0
   36.6340   31.9510   29.9890 O   0  0  0  0  0  0  0  0  0  0  0  0
   35.7170   30.3260   31.3130 N   0  0  0  0  0  0  0  0  0  0  0  0
   35.5470   29.0390   31.6700 C   0  0  0  0  0  0  0  0  0  0  0  0
   34.8200   28.6810   32.6120 O   0  0  0  0  0  0  0  0  0  0  0  0
   35.2170   31.0710   31.8500 H   0  0  0  0  0  0  0  0  0  0  0  0
  1  2  1  0  0  0  0
  2  7  1  1  0  0  0
  2  3  1  0  0  0  0
  3  8  1  6  0  0  0
  3 15  1  0  0  0  0
  4 10  1  0  0  0  0
  4  9  1  0  0  0  0
  4  3  1  0  0  0  0
  5  4  1  0  0  0  0
  6  5  1  0  0  0  0
  6  2  1  0  0  0  0
 11  6  1  0  0  0  0
 12  6  1  0  0  0  0
 13 19  1  0  0  0  0
 13 18  1  0  0  0  0
 14 13  2  0  0  0  0
 15 14  1  0  0  0  0
 15 16  2  0  0  0  0
 16 17  1  0  0  0  0
 17 21  1  0  0  0  0
 17 18  2  0  0  0  0
 20 14  1  0  0  0  0
 23 24  1  0  0  0  0
 23 22  1  0  0  0  0
 24  1  1  0  0  0  0
 25 29  1  0  0  0  0
 25 24  2  0  0  0  0
 26 25  1  0  0  0  0
 27 26  2  0  0  0  0
 27 28  1  0  0  0  0
 28 23  2  0  0  0  0
 30 26  1  0  0  0  0
 31 27  1  0  0  0  0
 32 28  1  0  0  0  0
 32 39  1  0  0  0  0
 33 32  1  0  0  0  0
 34 33  2  0  0  0  0
 34 36  1  0  0  0  0
 35 34  1  0  0  0  0
 36 38  1  0  0  0  0
 37 36  2  0  0  0  0
 38 39  1  0  0  0  0
 38 41  1  0  0  0  0
 39 40  2  0  0  0  0
M  END
>  <minimizedAffinity>
-5.7146163

$$$$

 OpenBabel03272501093D

 41 44  0  0  1  0  0  0  0  0999 V2000
   36.4040   26.6520   32.4620 O   0  0  0  0  0  0  0  0  0  0  0  0
   36.0790   27.6110   31.5600 C   0  0  2  0  0  0  0  0  0  0  0  0
   37.2450   28.6310   31.3430 C   0  0  2  0  0  0  0  0  0  0  0  0
   36.5010   29.8140   30.9450 C   0  0  0  0  0  0  0  0  0  0  0  0
   35.3080   29.8380   31.6580 O   0  0  0  0  0  0  0  0  0  0  0  0
   35.1240   28.6290   32.2420 C   0  0  0  0  0  0  0  0  0  0  0  0
   35.6260   27.3120   30.6190 H   0  0  0  0  0  0  0  0  0  0  0  0
   37.6620   28.7350   32.3650 H   0  0  0  0  0  0  0  0  0  0  0  0
   37.0860   30.7270   31.2620 H   0  0  0  0  0  0  0  0  0  0  0  0
   36.2540   29.9280   29.8920 H   0  0  0  0  0  0  0  0  0  0  0  0
   35.3320   28.6620   33.3370 H   0  0  0  0  0  0  0  0  0  0  0  0
   34.1170   28.2490   32.0520 H   0  0  0  0  0  0  0  0  0  0  0  0
   39.2480   27.8540   28.2550 C   0  0  0  0  0  0  0  0  0  0  0  0
   38.2150   28.4010   29.0700 C   0  0  0  0  0  0  0  0  0  0  0  0
   38.2630   28.1150   30.4670 C   0  0  0  0  0  0  0  0  0  0  0  0
   39.2870   27.3340   30.9620 N   0  0  0  0  0  0  0  0  0  0  0  0
   40.2290   26.8460   30.1460 C   0  0  0  0  0  0  0  0  0  0  0  0
   40.2290   27.0900   28.8140 N   0  0  0  0  0  0  0  0  0  0  0  0
   39.2300   28.0570   27.2000 H   0  0  0  0  0  0  0  0  0  0  0  0
   37.4500   28.9950   28.6390 H   0  0  0  0  0  0  0  0  0  0  0  0
   41.0200   26.2380   30.5590 H   0  0  0  0  0  0  0  0  0  0  0  0
   38.1190   24.1680   33.0930 Cl  0  0  0  0  0  0  0  0  0  0  0  0
   37.9960   25.5890   34.0950 C   0  0  0  0  0  0  0  0  0  0  0  0
   37.1500   26.5680   33.5840 C   0  0  0  0  0  0  0  0  0  0  0  0
   37.0350   27.7000   34.3750 C   0  0  0  0  0  0  0  0  0  0  0  0
   37.7090   27.8410   35.5750 C   0  0  0  0  0  0  0  0  0  0  0  0
   38.5250   26.8420   36.0200 C   0  0  0  0  0  0  0  0  0  0  0  0
   38.6700   25.7060   35.2740 C   0  0  0  0  0  0  0  0  0  0  0  0
   36.4260   28.5620   34.1440 H   0  0  0  0  0  0  0  0  0  0  0  0
   37.6360   28.7150   36.2110 H   0  0  0  0  0  0  0  0  0  0  0  0
   39.0850   26.8740   36.9440 H   0  0  0  0  0  0  0  0  0  0  0  0
   39.5010   24.6140   35.6630 N   0  0  0  0  0  0  0  0  0  0  0  0
   38.8920   23.7390   36.4930 C   0  0  0  0  0  3  0  0  0  0  0  0
   39.5830   22.6350   36.9460 C   0  0  0  0  0  0  0  0  0  0  0  0
   39.0910   21.9320   37.6150 H   0  0  0  0  0  0  0  0  0  0  0  0
   40.8960   22.3750   36.5830 C   0  0  0  0  0  0  0  0  0  0  0  0
   41.5570   21.3780   36.9770 O   0  0  0  0  0  0  0  0  0  0  0  0
   41.4290   23.3030   35.7480 N   0  0  0  0  0  0  0  0  0  0  0  0
   40.7650   24.3850   35.2990 C   0  0  0  0  0  0  0  0  0  0  0  0
   41.2650   25.2260   34.5330 O   0  0  0  0  0  0  0  0  0  0  0  0
   42.4170   23.1540   35.4430 H   0  0  0  0  0  0  0  0  0  0  0  0
  1 24  1  0  0  0  0
  2  7  1  6  0  0  0
  2  6  1  0  0  0  0
  2  1  1  0  0  0  0
  3  2  1  0  0  0  0
  3  8  1  1  0  0  0
  4  9  1  0  0  0  0
  4  3  1  0  0  0  0
  4  5  1  0  0  0  0
  5  6  1  0  0  0  0
  6 11  1  0  0  0  0
 10  4  1  0  0  0  0
 12  6  1  0  0  0  0
 13 18  2  0  0  0  0
 13 14  1  0  0  0  0
 14 15  2  0  0  0  0
 15 16  1  0  0  0  0
 15  3  1  0  0  0  0
 17 21  1  0  0  0  0
 17 16  2  0  0  0  0
 18 17  1  0  0  0  0
 19 13  1  0  0  0  0
 20 14  1  0  0  0  0
 22 23  1  0  0  0  0
 23 28  1  0  0  0  0
 24 23  2  0  0  0  0
 24 25  1  0  0  0  0
 25 26  2  0  0  0  0
 26 27  1  0  0  0  0
 26 30  1  0  0  0  0
 27 31  1  0  0  0  0
 28 32  1  0  0  0  0
 28 27  2  0  0  0  0
 29 25  1  0  0  0  0
 32 33  1  0  0  0  0
 33 34  2  0  0  0  0
 34 35  1  0  0  0  0
 36 34  1  0  0  0  0
 36 37  2  0  0  0  0
 38 36  1  0  0  0  0
 39 32  1  0  0  0  0
 39 38  1  0  0  0  0
 40 39  2  0  0  0  0
 41 38  1  0  0  0  0
M  END
>  <minimizedAffinity>
-5.71076059

$$$$
