
 OpenBabel03262520123D

 43 45  0  0  0  0  0  0  0  0999 V2000
   35.2920   30.4610   49.4410 C   0  0  0  0  0  0  0  0  0  0  0  0
   34.9950   31.4970   49.7640 H   0  0  0  0  0  0  0  0  0  0  0  0
   36.1890   30.2190   50.0750 H   0  0  0  0  0  0  0  0  0  0  0  0
   38.1970   31.6180   48.9650 Br  0  0  0  0  0  0  0  0  0  0  0  0
   36.9660   30.9720   47.6380 C   0  0  0  0  0  0  0  0  0  0  0  0
   37.3110   30.9800   46.3110 C   0  0  0  0  0  0  0  0  0  0  0  0
   36.3920   30.5180   45.4070 C   0  0  0  0  0  0  0  0  0  0  0  0
   35.1420   30.0490   45.7860 C   0  0  0  0  0  0  0  0  0  0  0  0
   34.8290   30.0570   47.1520 C   0  0  0  0  0  0  0  0  0  0  0  0
   35.7450   30.5180   48.0560 C   0  0  0  0  0  0  0  0  0  0  0  0
   36.7190   30.5460   44.3540 H   0  0  0  0  0  0  0  0  0  0  0  0
   34.5370   29.7220   44.9560 H   0  0  0  0  0  0  0  0  0  0  0  0
   33.8390   29.6800   47.2310 H   0  0  0  0  0  0  0  0  0  0  0  0
   39.8620   33.2570   45.0370 C   0  0  0  0  0  0  0  0  0  0  0  0
   41.0430   32.4640   45.0130 C   0  0  0  0  0  0  0  0  0  0  0  0
   40.9270   31.1560   45.4400 C   0  0  0  0  0  0  0  0  0  0  0  0
   39.7100   30.6710   45.8630 N   0  0  0  0  0  0  0  0  0  0  0  0
   38.6220   31.4690   45.8650 C   0  0  0  0  0  0  0  0  0  0  0  0
   38.7120   32.7430   45.4550 N   0  0  0  0  0  0  0  0  0  0  0  0
   39.9790   34.2680   44.7010 H   0  0  0  0  0  0  0  0  0  0  0  0
   41.9920   32.8710   44.6730 H   0  0  0  0  0  0  0  0  0  0  0  0
   41.8030   30.5180   45.4360 H   0  0  0  0  0  0  0  0  0  0  0  0
   34.2310   29.4740   49.7710 C   0  0  0  0  0  0  0  0  0  0  0  0
   33.2450   29.7680   49.4660 H   0  0  0  0  0  0  0  0  0  0  0  0
   34.1730   29.5260   50.9140 H   0  0  0  0  0  0  0  0  0  0  0  0
   34.7130   28.1670   49.5100 N   0  0  0  0  0  0  0  0  0  0  0  0
   35.1750   27.6810   50.3000 H   0  0  0  0  0  0  0  0  0  0  0  0
   33.9060   27.3150   48.7210 C   0  0  0  0  0  0  0  0  0  0  0  0
   34.2640   27.2910   47.6690 H   0  0  0  0  0  0  0  0  0  0  0  0
   34.0170   26.2830   49.0970 H   0  0  0  0  0  0  0  0  0  0  0  0
   32.4960   27.8100   48.7690 C   0  0  0  0  0  0  0  0  0  0  0  0
   31.9330   27.4230   49.6470 H   0  0  0  0  0  0  0  0  0  0  0  0
   32.2780   28.8290   48.5110 H   0  0  0  0  0  0  0  0  0  0  0  0
   31.8410   27.0710   47.6400 N   0  0  0  0  0  0  0  0  0  0  0  0
   31.7760   25.7070   47.6670 C   0  0  0  0  0  3  0  0  0  0  0  0
   31.1770   25.0110   46.6390 C   0  0  0  0  0  0  0  0  0  0  0  0
   31.1240   23.9380   46.6540 H   0  0  0  0  0  0  0  0  0  0  0  0
   30.6360   25.6920   45.5700 C   0  0  0  0  0  0  0  0  0  0  0  0
   30.0740   25.1310   44.5970 O   0  0  0  0  0  0  0  0  0  0  0  0
   30.7230   27.0330   45.5880 N   0  0  0  0  0  0  0  0  0  0  0  0
   31.3010   27.7360   46.5770 C   0  0  0  0  0  0  0  0  0  0  0  0
   31.4050   28.9750   46.6360 O   0  0  0  0  0  0  0  0  0  0  0  0
   30.3470   27.6610   44.8310 H   0  0  0  0  0  0  0  0  0  0  0  0
  1  2  1  0  0  0  0
  1 23  1  0  0  0  0
  1  3  1  0  0  0  0
  5 10  1  0  0  0  0
  5  4  1  0  0  0  0
  6  5  2  0  0  0  0
  7  8  2  0  0  0  0
  7  6  1  0  0  0  0
  8  9  1  0  0  0  0
  9 13  1  0  0  0  0
  9 10  2  0  0  0  0
 10  1  1  0  0  0  0
 11  7  1  0  0  0  0
 12  8  1  0  0  0  0
 14 19  1  0  0  0  0
 15 14  2  0  0  0  0
 15 16  1  0  0  0  0
 16 17  2  0  0  0  0
 17 18  1  0  0  0  0
 18  6  1  0  0  0  0
 19 18  2  0  0  0  0
 20 14  1  0  0  0  0
 21 15  1  0  0  0  0
 22 16  1  0  0  0  0
 23 25  1  0  0  0  0
 24 23  1  0  0  0  0
 26 23  1  0  0  0  0
 26 27  1  0  0  0  0
 28 31  1  0  0  0  0
 28 30  1  0  0  0  0
 28 26  1  0  0  0  0
 29 28  1  0  0  0  0
 31 32  1  0  0  0  0
 33 31  1  0  0  0  0
 34 35  1  0  0  0  0
 34 31  1  0  0  0  0
 36 37  1  0  0  0  0
 36 35  2  0  0  0  0
 38 40  1  0  0  0  0
 38 36  1  0  0  0  0
 39 38  2  0  0  0  0
 40 41  1  0  0  0  0
 41 42  2  0  0  0  0
 41 34  1  0  0  0  0
 43 40  1  0  0  0  0
M  END
>  <minimizedAffinity>
-5.29675055

>  <minimizedRMSD>
0.771311462

$$$$
