
 OpenBabel03272504053D

 42 45  0  0  0  0  0  0  0  0999 V2000
   39.0990   25.8880   31.8360 C   0  0  0  0  0  0  0  0  0  0  0  0
   39.0660   26.6370   30.9910 H   0  0  0  0  0  0  0  0  0  0  0  0
   40.0400   25.3630   31.7050 H   0  0  0  0  0  0  0  0  0  0  0  0
   37.9250   25.0110   31.6510 C   0  0  0  0  0  0  0  0  0  0  0  0
   36.6740   25.5060   31.2770 C   0  0  0  0  0  0  0  0  0  0  0  0
   35.8180   24.4530   31.1910 C   0  0  0  0  0  0  0  0  0  0  0  0
   36.5110   23.3500   31.5000 N   0  0  0  0  0  0  0  0  0  0  0  0
   37.7450   23.7170   31.7650 N   0  0  0  0  0  0  0  0  0  0  0  0
   36.4070   26.5440   31.0820 H   0  0  0  0  0  0  0  0  0  0  0  0
   34.7690   24.3970   30.9350 H   0  0  0  0  0  0  0  0  0  0  0  0
   36.1320   21.9840   31.5730 C   0  0  0  0  0  0  0  0  0  0  0  0
   36.8790   21.1040   30.8350 C   0  0  0  0  0  0  0  0  0  0  0  0
   36.6300   19.7330   30.8050 C   0  0  0  0  0  0  0  0  0  0  0  0
   35.5690   19.2720   31.5700 C   0  0  0  0  0  0  0  0  0  0  0  0
   34.8190   20.1490   32.3110 C   0  0  0  0  0  0  0  0  0  0  0  0
   35.0790   21.5020   32.3290 C   0  0  0  0  0  0  0  0  0  0  0  0
   37.7280   21.4010   30.2110 H   0  0  0  0  0  0  0  0  0  0  0  0
   37.2000   19.0350   30.2370 H   0  0  0  0  0  0  0  0  0  0  0  0
   35.2670   18.2360   31.6380 H   0  0  0  0  0  0  0  0  0  0  0  0
   33.9600   19.9010   32.9510 H   0  0  0  0  0  0  0  0  0  0  0  0
   34.5210   22.2390   32.8930 H   0  0  0  0  0  0  0  0  0  0  0  0
   39.0690   26.6710   33.0930 C   0  0  0  0  0  0  0  0  0  0  0  0
   38.2410   27.4190   32.9740 H   0  0  0  0  0  0  0  0  0  0  0  0
   39.9850   27.3070   33.1140 H   0  0  0  0  0  0  0  0  0  0  0  0
   38.8260   25.9600   34.3170 C   0  0  0  0  0  0  0  0  0  0  0  0
   37.7630   26.2720   35.1140 C   0  0  0  0  0  0  0  0  0  0  0  0
   37.5140   25.5790   36.3220 C   0  0  0  0  0  0  0  0  0  0  0  0
   38.4130   24.5790   36.6260 N   0  0  0  0  0  0  0  0  0  0  0  0
   39.4530   24.3030   35.8080 C   0  0  0  0  0  0  0  0  0  0  0  0
   39.6500   24.9940   34.6640 N   0  0  0  0  0  0  0  0  0  0  0  0
   37.0690   27.0670   34.8470 H   0  0  0  0  0  0  0  0  0  0  0  0
   36.6900   25.8130   36.9480 H   0  0  0  0  0  0  0  0  0  0  0  0
   40.3450   23.2580   36.1820 N   0  0  0  0  0  0  0  0  0  0  0  0
   41.4060   22.8390   35.4660 C   0  0  0  0  0  3  0  0  0  0  0  0
   42.1960   21.8140   35.9390 C   0  0  0  0  0  0  0  0  0  0  0  0
   43.0530   21.4870   35.3440 H   0  0  0  0  0  0  0  0  0  0  0  0
   41.9400   21.1810   37.1440 C   0  0  0  0  0  0  0  0  0  0  0  0
   42.6340   20.2470   37.6040 O   0  0  0  0  0  0  0  0  0  0  0  0
   40.8770   21.6240   37.8260 N   0  0  0  0  0  0  0  0  0  0  0  0
   40.1300   22.6140   37.3530 C   0  0  0  0  0  0  0  0  0  0  0  0
   39.1360   22.9730   38.0690 O   0  0  0  0  0  0  0  0  0  0  0  0
   40.6500   21.1670   38.7500 H   0  0  0  0  0  0  0  0  0  0  0  0
  1 22  1  0  0  0  0
  2  1  1  0  0  0  0
  3  1  1  0  0  0  0
  4  8  2  0  0  0  0
  4  1  1  0  0  0  0
  5  4  1  0  0  0  0
  6  5  2  0  0  0  0
  6  7  1  0  0  0  0
  7 11  1  0  0  0  0
  7  8  1  0  0  0  0
  9  5  1  0  0  0  0
 10  6  1  0  0  0  0
 11 16  1  0  0  0  0
 12 11  2  0  0  0  0
 13 12  1  0  0  0  0
 13 14  2  0  0  0  0
 14 19  1  0  0  0  0
 14 15  1  0  0  0  0
 15 16  2  0  0  0  0
 15 20  1  0  0  0  0
 16 21  1  0  0  0  0
 17 12  1  0  0  0  0
 18 13  1  0  0  0  0
 22 24  1  0  0  0  0
 22 25  1  0  0  0  0
 23 22  1  0  0  0  0
 25 30  2  0  0  0  0
 25 26  1  0  0  0  0
 26 27  2  0  0  0  0
 27 28  1  0  0  0  0
 27 32  1  0  0  0  0
 29 33  1  0  0  0  0
 29 28  2  0  0  0  0
 30 29  1  0  0  0  0
 31 26  1  0  0  0  0
 33 40  1  0  0  0  0
 34 35  2  0  0  0  0
 34 33  1  0  0  0  0
 35 37  1  0  0  0  0
 36 35  1  0  0  0  0
 37 38  2  0  0  0  0
 37 39  1  0  0  0  0
 39 42  1  0  0  0  0
 40 39  1  0  0  0  0
 40 41  2  0  0  0  0
M  END
>  <minimizedAffinity>
-6.56184816

$$$$

 OpenBabel03272504053D

 42 45  0  0  0  0  0  0  0  0999 V2000
   37.4240   27.9450   31.8300 C   0  0  0  0  0  0  0  0  0  0  0  0
   37.9900   27.5590   32.7290 H   0  0  0  0  0  0  0  0  0  0  0  0
   38.1730   28.4470   31.2260 H   0  0  0  0  0  0  0  0  0  0  0  0
   36.4030   28.8720   32.3600 C   0  0  0  0  0  0  0  0  0  0  0  0
   35.4970   29.5380   31.5320 C   0  0  0  0  0  0  0  0  0  0  0  0
   34.6990   30.3050   32.3220 C   0  0  0  0  0  0  0  0  0  0  0  0
   35.0950   30.1230   33.5870 N   0  0  0  0  0  0  0  0  0  0  0  0
   36.0990   29.2740   33.5700 N   0  0  0  0  0  0  0  0  0  0  0  0
   35.4220   29.4710   30.4470 H   0  0  0  0  0  0  0  0  0  0  0  0
   33.8790   30.9700   32.0860 H   0  0  0  0  0  0  0  0  0  0  0  0
   34.6280   30.6640   34.8120 C   0  0  0  0  0  0  0  0  0  0  0  0
   33.3360   30.3670   35.1570 C   0  0  0  0  0  0  0  0  0  0  0  0
   32.7350   30.8260   36.3290 C   0  0  0  0  0  0  0  0  0  0  0  0
   33.5120   31.6170   37.1620 C   0  0  0  0  0  0  0  0  0  0  0  0
   34.8060   31.9170   36.8220 C   0  0  0  0  0  0  0  0  0  0  0  0
   35.3840   31.4550   35.6590 C   0  0  0  0  0  0  0  0  0  0  0  0
   32.6700   29.7500   34.5460 H   0  0  0  0  0  0  0  0  0  0  0  0
   31.7320   30.6050   36.6120 H   0  0  0  0  0  0  0  0  0  0  0  0
   33.1730   32.0380   38.0990 H   0  0  0  0  0  0  0  0  0  0  0  0
   35.5120   32.5300   37.3990 H   0  0  0  0  0  0  0  0  0  0  0  0
   36.3980   31.6600   35.3390 H   0  0  0  0  0  0  0  0  0  0  0  0
   36.8610   26.7590   31.1460 C   0  0  0  0  0  0  0  0  0  0  0  0
   37.2360   26.8010   30.0890 H   0  0  0  0  0  0  0  0  0  0  0  0
   35.7650   26.9240   31.0350 H   0  0  0  0  0  0  0  0  0  0  0  0
   37.2040   25.4640   31.6650 C   0  0  0  0  0  0  0  0  0  0  0  0
   37.3100   24.3800   30.8440 C   0  0  0  0  0  0  0  0  0  0  0  0
   37.6470   23.1000   31.3440 C   0  0  0  0  0  0  0  0  0  0  0  0
   37.8560   23.0350   32.7050 N   0  0  0  0  0  0  0  0  0  0  0  0
   37.7400   24.1330   33.4840 C   0  0  0  0  0  0  0  0  0  0  0  0
   37.4150   25.3350   32.9590 N   0  0  0  0  0  0  0  0  0  0  0  0
   37.1400   24.4630   29.7710 H   0  0  0  0  0  0  0  0  0  0  0  0
   37.7330   22.2520   30.7130 H   0  0  0  0  0  0  0  0  0  0  0  0
   37.9690   23.9950   34.8820 N   0  0  0  0  0  0  0  0  0  0  0  0
   37.9230   24.9920   35.7860 C   0  0  0  0  0  3  0  0  0  0  0  0
   38.1640   24.7280   37.1170 C   0  0  0  0  0  0  0  0  0  0  0  0
   38.1240   25.5500   37.8370 H   0  0  0  0  0  0  0  0  0  0  0  0
   38.4580   23.4550   37.5760 C   0  0  0  0  0  0  0  0  0  0  0  0
   38.6830   23.1780   38.7750 O   0  0  0  0  0  0  0  0  0  0  0  0
   38.4940   22.4900   36.6480 N   0  0  0  0  0  0  0  0  0  0  0  0
   38.2580   22.7660   35.3710 C   0  0  0  0  0  0  0  0  0  0  0  0
   38.3140   21.7860   34.5540 O   0  0  0  0  0  0  0  0  0  0  0  0
   38.7140   21.5060   36.9580 H   0  0  0  0  0  0  0  0  0  0  0  0
  1  4  1  0  0  0  0
  1  2  1  0  0  0  0
  3  1  1  0  0  0  0
  4  8  2  0  0  0  0
  5  6  2  0  0  0  0
  5  4  1  0  0  0  0
  6  7  1  0  0  0  0
  7 11  1  0  0  0  0
  8  7  1  0  0  0  0
  9  5  1  0  0  0  0
 10  6  1  0  0  0  0
 11 12  2  0  0  0  0
 11 16  1  0  0  0  0
 12 13  1  0  0  0  0
 13 18  1  0  0  0  0
 13 14  2  0  0  0  0
 14 19  1  0  0  0  0
 15 14  1  0  0  0  0
 15 20  1  0  0  0  0
 16 15  2  0  0  0  0
 17 12  1  0  0  0  0
 21 16  1  0  0  0  0
 22 25  1  0  0  0  0
 22  1  1  0  0  0  0
 23 22  1  0  0  0  0
 24 22  1  0  0  0  0
 25 30  1  0  0  0  0
 26 27  1  0  0  0  0
 26 25  2  0  0  0  0
 27 28  2  0  0  0  0
 28 29  1  0  0  0  0
 29 33  1  0  0  0  0
 30 29  2  0  0  0  0
 31 26  1  0  0  0  0
 32 27  1  0  0  0  0
 33 40  1  0  0  0  0
 33 34  1  0  0  0  0
 34 35  2  0  0  0  0
 35 37  1  0  0  0  0
 35 36  1  0  0  0  0
 37 38  2  0  0  0  0
 39 42  1  0  0  0  0
 39 37  1  0  0  0  0
 40 39  1  0  0  0  0
 41 40  2  0  0  0  0
M  END
>  <minimizedAffinity>
-6.53051043

$$$$

 OpenBabel03272504053D

 42 45  0  0  0  0  0  0  0  0999 V2000
   37.6280   26.5720   32.8590 C   0  0  0  0  0  0  0  0  0  0  0  0
   37.9600   26.5560   31.7780 H   0  0  0  0  0  0  0  0  0  0  0  0
   37.0040   25.6910   32.9700 H   0  0  0  0  0  0  0  0  0  0  0  0
   36.8750   27.8310   33.0340 C   0  0  0  0  0  0  0  0  0  0  0  0
   36.6360   28.7130   31.9780 C   0  0  0  0  0  0  0  0  0  0  0  0
   35.9230   29.7630   32.4660 C   0  0  0  0  0  0  0  0  0  0  0  0
   35.7280   29.5410   33.7710 N   0  0  0  0  0  0  0  0  0  0  0  0
   36.3030   28.3960   34.0690 N   0  0  0  0  0  0  0  0  0  0  0  0
   36.9530   28.6010   30.9410 H   0  0  0  0  0  0  0  0  0  0  0  0
   35.5370   30.6540   31.9890 H   0  0  0  0  0  0  0  0  0  0  0  0
   35.0590   30.2950   34.7690 C   0  0  0  0  0  0  0  0  0  0  0  0
   35.8310   31.1570   35.5020 C   0  0  0  0  0  0  0  0  0  0  0  0
   35.3180   31.9640   36.5170 C   0  0  0  0  0  0  0  0  0  0  0  0
   33.9580   31.8640   36.7690 C   0  0  0  0  0  0  0  0  0  0  0  0
   33.1800   31.0020   36.0380 C   0  0  0  0  0  0  0  0  0  0  0  0
   33.7050   30.2120   35.0380 C   0  0  0  0  0  0  0  0  0  0  0  0
   36.9080   31.2840   35.3550 H   0  0  0  0  0  0  0  0  0  0  0  0
   35.9040   32.6390   37.0960 H   0  0  0  0  0  0  0  0  0  0  0  0
   33.4310   32.4300   37.5260 H   0  0  0  0  0  0  0  0  0  0  0  0
   32.0990   30.8390   36.1480 H   0  0  0  0  0  0  0  0  0  0  0  0
   33.1410   29.5150   34.4310 H   0  0  0  0  0  0  0  0  0  0  0  0
   38.8590   26.4910   33.6780 C   0  0  0  0  0  0  0  0  0  0  0  0
   39.0470   27.5290   34.0620 H   0  0  0  0  0  0  0  0  0  0  0  0
   39.7140   26.3180   32.9840 H   0  0  0  0  0  0  0  0  0  0  0  0
   38.8470   25.6140   34.8150 C   0  0  0  0  0  0  0  0  0  0  0  0
   37.8790   25.7140   35.7720 C   0  0  0  0  0  0  0  0  0  0  0  0
   37.8570   24.8560   36.8970 C   0  0  0  0  0  0  0  0  0  0  0  0
   38.8730   23.9260   36.9500 N   0  0  0  0  0  0  0  0  0  0  0  0
   39.8130   23.8610   35.9810 C   0  0  0  0  0  0  0  0  0  0  0  0
   39.7920   24.7040   34.9250 N   0  0  0  0  0  0  0  0  0  0  0  0
   37.0880   26.4590   35.7020 H   0  0  0  0  0  0  0  0  0  0  0  0
   37.1090   24.9250   37.6450 H   0  0  0  0  0  0  0  0  0  0  0  0
   40.8350   22.8770   36.0980 N   0  0  0  0  0  0  0  0  0  0  0  0
   41.8220   22.6620   35.2080 C   0  0  0  0  0  3  0  0  0  0  0  0
   42.7550   21.6750   35.4370 C   0  0  0  0  0  0  0  0  0  0  0  0
   43.5490   21.5140   34.7020 H   0  0  0  0  0  0  0  0  0  0  0  0
   42.7220   20.8760   36.5670 C   0  0  0  0  0  0  0  0  0  0  0  0
   43.5500   19.9700   36.8080 O   0  0  0  0  0  0  0  0  0  0  0  0
   41.7270   21.1190   37.4290 N   0  0  0  0  0  0  0  0  0  0  0  0
   40.8390   22.0760   37.1900 C   0  0  0  0  0  0  0  0  0  0  0  0
   39.9230   22.2390   38.0640 O   0  0  0  0  0  0  0  0  0  0  0  0
   41.6680   20.5310   38.3030 H   0  0  0  0  0  0  0  0  0  0  0  0
  1  3  1  0  0  0  0
  1  4  1  0  0  0  0
  1 22  1  0  0  0  0
  2  1  1  0  0  0  0
  4  8  2  0  0  0  0
  5  6  2  0  0  0  0
  5  4  1  0  0  0  0
  6  7  1  0  0  0  0
  7  8  1  0  0  0  0
  7 11  1  0  0  0  0
  9  5  1  0  0  0  0
 10  6  1  0  0  0  0
 11 16  2  0  0  0  0
 11 12  1  0  0  0  0
 12 13  2  0  0  0  0
 13 14  1  0  0  0  0
 13 18  1  0  0  0  0
 14 19  1  0  0  0  0
 15 20  1  0  0  0  0
 15 14  2  0  0  0  0
 16 15  1  0  0  0  0
 17 12  1  0  0  0  0
 21 16  1  0  0  0  0
 22 23  1  0  0  0  0
 22 25  1  0  0  0  0
 24 22  1  0  0  0  0
 25 30  2  0  0  0  0
 25 26  1  0  0  0  0
 26 27  2  0  0  0  0
 27 28  1  0  0  0  0
 27 32  1  0  0  0  0
 29 33  1  0  0  0  0
 29 28  2  0  0  0  0
 30 29  1  0  0  0  0
 31 26  1  0  0  0  0
 33 40  1  0  0  0  0
 34 35  2  0  0  0  0
 34 33  1  0  0  0  0
 35 37  1  0  0  0  0
 36 35  1  0  0  0  0
 37 38  2  0  0  0  0
 37 39  1  0  0  0  0
 39 42  1  0  0  0  0
 40 39  1  0  0  0  0
 40 41  2  0  0  0  0
M  END
>  <minimizedAffinity>
-6.36494017

$$$$

 OpenBabel03272504053D

 42 45  0  0  0  0  0  0  0  0999 V2000
   39.4280   25.5300   35.1940 C   0  0  0  0  0  0  0  0  0  0  0  0
   39.8640   25.7340   34.1710 H   0  0  0  0  0  0  0  0  0  0  0  0
   40.2860   25.4950   35.8590 H   0  0  0  0  0  0  0  0  0  0  0  0
   38.7340   24.2300   35.0890 C   0  0  0  0  0  0  0  0  0  0  0  0
   38.7360   23.2960   36.1260 C   0  0  0  0  0  0  0  0  0  0  0  0
   38.0140   22.2190   35.7170 C   0  0  0  0  0  0  0  0  0  0  0  0
   37.5820   22.4750   34.4770 N   0  0  0  0  0  0  0  0  0  0  0  0
   38.0250   23.6670   34.1410 N   0  0  0  0  0  0  0  0  0  0  0  0
   39.2210   23.3890   37.0980 H   0  0  0  0  0  0  0  0  0  0  0  0
   37.7710   21.2860   36.2090 H   0  0  0  0  0  0  0  0  0  0  0  0
   36.7960   21.7160   33.5720 C   0  0  0  0  0  0  0  0  0  0  0  0
   36.8240   22.1100   32.2610 C   0  0  0  0  0  0  0  0  0  0  0  0
   36.1050   21.4640   31.2560 C   0  0  0  0  0  0  0  0  0  0  0  0
   35.3360   20.3750   31.6360 C   0  0  0  0  0  0  0  0  0  0  0  0
   35.3040   19.9760   32.9480 C   0  0  0  0  0  0  0  0  0  0  0  0
   36.0210   20.6260   33.9290 C   0  0  0  0  0  0  0  0  0  0  0  0
   37.4090   22.9590   31.8930 H   0  0  0  0  0  0  0  0  0  0  0  0
   36.1160   21.7570   30.2310 H   0  0  0  0  0  0  0  0  0  0  0  0
   34.7310   19.7850   30.9620 H   0  0  0  0  0  0  0  0  0  0  0  0
   34.7350   19.1340   33.3650 H   0  0  0  0  0  0  0  0  0  0  0  0
   36.0340   20.3570   34.9780 H   0  0  0  0  0  0  0  0  0  0  0  0
   38.5300   26.6660   35.5030 C   0  0  0  0  0  0  0  0  0  0  0  0
   39.1730   27.4480   35.9880 H   0  0  0  0  0  0  0  0  0  0  0  0
   37.8540   26.3460   36.3280 H   0  0  0  0  0  0  0  0  0  0  0  0
   37.8510   27.2970   34.4060 C   0  0  0  0  0  0  0  0  0  0  0  0
   36.6790   27.9700   34.5950 C   0  0  0  0  0  0  0  0  0  0  0  0
   36.0010   28.5940   33.5210 C   0  0  0  0  0  0  0  0  0  0  0  0
   36.6070   28.4720   32.2890 N   0  0  0  0  0  0  0  0  0  0  0  0
   37.7680   27.7950   32.1450 C   0  0  0  0  0  0  0  0  0  0  0  0
   38.3780   27.2150   33.2020 N   0  0  0  0  0  0  0  0  0  0  0  0
   36.2250   28.0500   35.5810 H   0  0  0  0  0  0  0  0  0  0  0  0
   35.0900   29.1210   33.6580 H   0  0  0  0  0  0  0  0  0  0  0  0
   38.3400   27.7070   30.8440 N   0  0  0  0  0  0  0  0  0  0  0  0
   39.5020   27.0990   30.5380 C   0  0  0  0  0  3  0  0  0  0  0  0
   39.9490   27.0810   29.2350 C   0  0  0  0  0  0  0  0  0  0  0  0
   40.8950   26.5840   29.0050 H   0  0  0  0  0  0  0  0  0  0  0  0
   39.2410   27.6750   28.2040 C   0  0  0  0  0  0  0  0  0  0  0  0
   39.6150   27.6800   27.0100 O   0  0  0  0  0  0  0  0  0  0  0  0
   38.0910   28.2690   28.5470 N   0  0  0  0  0  0  0  0  0  0  0  0
   37.6780   28.2740   29.8080 C   0  0  0  0  0  0  0  0  0  0  0  0
   36.5700   28.8630   30.0460 O   0  0  0  0  0  0  0  0  0  0  0  0
   37.5220   28.7320   27.7880 H   0  0  0  0  0  0  0  0  0  0  0  0
  1 22  1  0  0  0  0
  1  3  1  0  0  0  0
  2  1  1  0  0  0  0
  4  1  1  0  0  0  0
  4  5  1  0  0  0  0
  5  9  1  0  0  0  0
  6  5  2  0  0  0  0
  6 10  1  0  0  0  0
  7  6  1  0  0  0  0
  8  7  1  0  0  0  0
  8  4  2  0  0  0  0
 11 16  1  0  0  0  0
 11  7  1  0  0  0  0
 12 11  2  0  0  0  0
 13 14  2  0  0  0  0
 13 12  1  0  0  0  0
 14 15  1  0  0  0  0
 15 20  1  0  0  0  0
 15 16  2  0  0  0  0
 16 21  1  0  0  0  0
 17 12  1  0  0  0  0
 18 13  1  0  0  0  0
 19 14  1  0  0  0  0
 22 23  1  0  0  0  0
 22 24  1  0  0  0  0
 25 26  1  0  0  0  0
 25 22  1  0  0  0  0
 26 31  1  0  0  0  0
 27 32  1  0  0  0  0
 27 26  2  0  0  0  0
 28 27  1  0  0  0  0
 29 28  2  0  0  0  0
 29 30  1  0  0  0  0
 30 25  2  0  0  0  0
 33 29  1  0  0  0  0
 34 33  1  0  0  0  0
 35 34  2  0  0  0  0
 36 35  1  0  0  0  0
 37 39  1  0  0  0  0
 37 35  1  0  0  0  0
 38 37  2  0  0  0  0
 39 40  1  0  0  0  0
 40 41  2  0  0  0  0
 40 33  1  0  0  0  0
 42 39  1  0  0  0  0
M  END
>  <minimizedAffinity>
-6.25898027

$$$$

 OpenBabel03272504053D

 42 45  0  0  0  0  0  0  0  0999 V2000
   39.9910   26.4420   35.0580 C   0  0  0  0  0  0  0  0  0  0  0  0
   39.6720   26.6590   36.1210 H   0  0  0  0  0  0  0  0  0  0  0  0
   40.9210   26.9870   34.9320 H   0  0  0  0  0  0  0  0  0  0  0  0
   38.9070   26.9560   34.1960 C   0  0  0  0  0  0  0  0  0  0  0  0
   38.8700   26.7180   32.8210 C   0  0  0  0  0  0  0  0  0  0  0  0
   37.7550   27.3190   32.3240 C   0  0  0  0  0  0  0  0  0  0  0  0
   37.1270   27.9050   33.3500 N   0  0  0  0  0  0  0  0  0  0  0  0
   37.8340   27.6700   34.4350 N   0  0  0  0  0  0  0  0  0  0  0  0
   39.5910   26.1550   32.2290 H   0  0  0  0  0  0  0  0  0  0  0  0
   37.3560   27.3780   31.3200 H   0  0  0  0  0  0  0  0  0  0  0  0
   35.9310   28.6650   33.4190 C   0  0  0  0  0  0  0  0  0  0  0  0
   35.7420   29.4040   34.5570 C   0  0  0  0  0  0  0  0  0  0  0  0
   34.6180   30.2000   34.7700 C   0  0  0  0  0  0  0  0  0  0  0  0
   33.6660   30.2210   33.7620 C   0  0  0  0  0  0  0  0  0  0  0  0
   33.8490   29.4830   32.6210 C   0  0  0  0  0  0  0  0  0  0  0  0
   34.9680   28.7020   32.4260 C   0  0  0  0  0  0  0  0  0  0  0  0
   36.4530   29.4310   35.3890 H   0  0  0  0  0  0  0  0  0  0  0  0
   34.4550   30.7800   35.6480 H   0  0  0  0  0  0  0  0  0  0  0  0
   32.7480   30.7940   33.7960 H   0  0  0  0  0  0  0  0  0  0  0  0
   33.1680   29.4220   31.7610 H   0  0  0  0  0  0  0  0  0  0  0  0
   35.1650   28.0990   31.5490 H   0  0  0  0  0  0  0  0  0  0  0  0
   40.1860   24.9770   34.9680 C   0  0  0  0  0  0  0  0  0  0  0  0
   41.1230   24.7520   35.5440 H   0  0  0  0  0  0  0  0  0  0  0  0
   40.4690   24.7400   33.9170 H   0  0  0  0  0  0  0  0  0  0  0  0
   39.1510   24.1330   35.4960 C   0  0  0  0  0  0  0  0  0  0  0  0
   38.7830   24.2040   36.8080 C   0  0  0  0  0  0  0  0  0  0  0  0
   37.7660   23.3770   37.3400 C   0  0  0  0  0  0  0  0  0  0  0  0
   37.1830   22.5080   36.4430 N   0  0  0  0  0  0  0  0  0  0  0  0
   37.5770   22.4680   35.1500 C   0  0  0  0  0  0  0  0  0  0  0  0
   38.5560   23.2790   34.6890 N   0  0  0  0  0  0  0  0  0  0  0  0
   39.2620   24.9020   37.4940 H   0  0  0  0  0  0  0  0  0  0  0  0
   37.4720   23.4260   38.3580 H   0  0  0  0  0  0  0  0  0  0  0  0
   36.9340   21.5460   34.2770 N   0  0  0  0  0  0  0  0  0  0  0  0
   37.1870   21.4050   32.9620 C   0  0  0  0  0  3  0  0  0  0  0  0
   36.4940   20.4720   32.2230 C   0  0  0  0  0  0  0  0  0  0  0  0
   36.7110   20.3710   31.1560 H   0  0  0  0  0  0  0  0  0  0  0  0
   35.5270   19.6550   32.7840 C   0  0  0  0  0  0  0  0  0  0  0  0
   34.8770   18.7980   32.1450 O   0  0  0  0  0  0  0  0  0  0  0  0
   35.3030   19.8240   34.0940 N   0  0  0  0  0  0  0  0  0  0  0  0
   35.9830   20.7290   34.7880 C   0  0  0  0  0  0  0  0  0  0  0  0
   35.7060   20.8240   36.0300 O   0  0  0  0  0  0  0  0  0  0  0  0
   34.5740   19.2200   34.5580 H   0  0  0  0  0  0  0  0  0  0  0  0
  1  2  1  0  0  0  0
  3  1  1  0  0  0  0
  4  8  2  0  0  0  0
  4  1  1  0  0  0  0
  5  4  1  0  0  0  0
  6  5  2  0  0  0  0
  6  7  1  0  0  0  0
  7 11  1  0  0  0  0
  7  8  1  0  0  0  0
  9  5  1  0  0  0  0
 10  6  1  0  0  0  0
 11 12  1  0  0  0  0
 12 13  2  0  0  0  0
 12 17  1  0  0  0  0
 13 18  1  0  0  0  0
 14 19  1  0  0  0  0
 14 13  1  0  0  0  0
 15 14  2  0  0  0  0
 16 15  1  0  0  0  0
 16 11  2  0  0  0  0
 20 15  1  0  0  0  0
 21 16  1  0  0  0  0
 22  1  1  0  0  0  0
 22 25  1  0  0  0  0
 22 23  1  0  0  0  0
 24 22  1  0  0  0  0
 25 26  1  0  0  0  0
 26 27  2  0  0  0  0
 26 31  1  0  0  0  0
 27 32  1  0  0  0  0
 28 27  1  0  0  0  0
 29 28  2  0  0  0  0
 30 29  1  0  0  0  0
 30 25  2  0  0  0  0
 33 40  1  0  0  0  0
 33 29  1  0  0  0  0
 34 33  1  0  0  0  0
 35 37  1  0  0  0  0
 35 34  2  0  0  0  0
 36 35  1  0  0  0  0
 37 39  1  0  0  0  0
 38 37  2  0  0  0  0
 39 42  1  0  0  0  0
 39 40  1  0  0  0  0
 40 41  2  0  0  0  0
M  END
>  <minimizedAffinity>
-6.18518114

$$$$

 OpenBabel03272504053D

 42 45  0  0  0  0  0  0  0  0999 V2000
   36.7130   26.8950   32.3570 C   0  0  0  0  0  0  0  0  0  0  0  0
   36.5670   28.0130   32.4410 H   0  0  0  0  0  0  0  0  0  0  0  0
   35.7210   26.4750   32.4900 H   0  0  0  0  0  0  0  0  0  0  0  0
   37.6420   26.5230   33.4440 C   0  0  0  0  0  0  0  0  0  0  0  0
   38.8790   27.1470   33.6170 C   0  0  0  0  0  0  0  0  0  0  0  0
   39.4840   26.5810   34.6950 C   0  0  0  0  0  0  0  0  0  0  0  0
   38.6560   25.6440   35.1700 N   0  0  0  0  0  0  0  0  0  0  0  0
   37.5830   25.6380   34.4090 N   0  0  0  0  0  0  0  0  0  0  0  0
   39.3040   27.9470   33.0110 H   0  0  0  0  0  0  0  0  0  0  0  0
   40.4400   26.7690   35.1650 H   0  0  0  0  0  0  0  0  0  0  0  0
   38.7670   24.7500   36.2670 C   0  0  0  0  0  0  0  0  0  0  0  0
   37.9550   24.9990   37.3420 C   0  0  0  0  0  0  0  0  0  0  0  0
   37.9510   24.2110   38.4920 C   0  0  0  0  0  0  0  0  0  0  0  0
   38.8210   23.1320   38.5150 C   0  0  0  0  0  0  0  0  0  0  0  0
   39.6360   22.8770   37.4410 C   0  0  0  0  0  0  0  0  0  0  0  0
   39.6280   23.6680   36.3120 C   0  0  0  0  0  0  0  0  0  0  0  0
   37.2470   25.8320   37.3880 H   0  0  0  0  0  0  0  0  0  0  0  0
   37.3260   24.3900   39.3360 H   0  0  0  0  0  0  0  0  0  0  0  0
   38.9200   22.4400   39.3410 H   0  0  0  0  0  0  0  0  0  0  0  0
   40.3620   22.0570   37.3460 H   0  0  0  0  0  0  0  0  0  0  0  0
   40.2480   23.5160   35.4370 H   0  0  0  0  0  0  0  0  0  0  0  0
   37.2470   26.6430   30.9990 C   0  0  0  0  0  0  0  0  0  0  0  0
   38.1100   27.3480   30.8680 H   0  0  0  0  0  0  0  0  0  0  0  0
   36.4970   27.0200   30.2670 H   0  0  0  0  0  0  0  0  0  0  0  0
   37.7320   25.3220   30.7080 C   0  0  0  0  0  0  0  0  0  0  0  0
   38.9040   25.1330   30.0360 C   0  0  0  0  0  0  0  0  0  0  0  0
   39.3910   23.8370   29.7440 C   0  0  0  0  0  0  0  0  0  0  0  0
   38.6010   22.7970   30.1830 N   0  0  0  0  0  0  0  0  0  0  0  0
   37.4450   23.0270   30.8440 C   0  0  0  0  0  0  0  0  0  0  0  0
   37.0210   24.2850   31.1000 N   0  0  0  0  0  0  0  0  0  0  0  0
   39.5080   25.9760   29.7020 H   0  0  0  0  0  0  0  0  0  0  0  0
   40.3020   23.6800   29.2230 H   0  0  0  0  0  0  0  0  0  0  0  0
   36.6770   21.9070   31.2700 N   0  0  0  0  0  0  0  0  0  0  0  0
   35.5240   21.9650   31.9630 C   0  0  0  0  0  3  0  0  0  0  0  0
   34.8720   20.8040   32.3170 C   0  0  0  0  0  0  0  0  0  0  0  0
   33.9380   20.8700   32.8810 H   0  0  0  0  0  0  0  0  0  0  0  0
   35.3610   19.5520   31.9830 C   0  0  0  0  0  0  0  0  0  0  0  0
   34.7980   18.4770   32.2870 O   0  0  0  0  0  0  0  0  0  0  0  0
   36.5090   19.5350   31.2940 N   0  0  0  0  0  0  0  0  0  0  0  0
   37.1200   20.6660   30.9630 C   0  0  0  0  0  0  0  0  0  0  0  0
   38.2100   20.5560   30.3060 O   0  0  0  0  0  0  0  0  0  0  0  0
   36.9140   18.5990   31.0200 H   0  0  0  0  0  0  0  0  0  0  0  0
  1  2  1  0  0  0  0
  1  3  1  0  0  0  0
  1  4  1  0  0  0  0
  4  5  1  0  0  0  0
  4  8  2  0  0  0  0
  5  6  2  0  0  0  0
  6 10  1  0  0  0  0
  6  7  1  0  0  0  0
  7 11  1  0  0  0  0
  8  7  1  0  0  0  0
  9  5  1  0  0  0  0
 11 16  2  0  0  0  0
 11 12  1  0  0  0  0
 12 17  1  0  0  0  0
 12 13  2  0  0  0  0
 13 14  1  0  0  0  0
 13 18  1  0  0  0  0
 14 19  1  0  0  0  0
 15 14  2  0  0  0  0
 16 15  1  0  0  0  0
 20 15  1  0  0  0  0
 21 16  1  0  0  0  0
 22  1  1  0  0  0  0
 23 22  1  0  0  0  0
 24 22  1  0  0  0  0
 25 22  1  0  0  0  0
 25 30  1  0  0  0  0
 26 25  2  0  0  0  0
 27 26  1  0  0  0  0
 27 28  2  0  0  0  0
 28 29  1  0  0  0  0
 29 30  2  0  0  0  0
 29 33  1  0  0  0  0
 31 26  1  0  0  0  0
 32 27  1  0  0  0  0
 33 34  1  0  0  0  0
 34 35  2  0  0  0  0
 35 36  1  0  0  0  0
 37 38  2  0  0  0  0
 37 35  1  0  0  0  0
 39 37  1  0  0  0  0
 40 33  1  0  0  0  0
 40 39  1  0  0  0  0
 41 40  2  0  0  0  0
 42 39  1  0  0  0  0
M  END
>  <minimizedAffinity>
-6.14010382

$$$$

 OpenBabel03272504053D

 42 45  0  0  0  0  0  0  0  0999 V2000
   36.9320   27.9220   31.3620 C   0  0  0  0  0  0  0  0  0  0  0  0
   37.0950   28.2170   30.2830 H   0  0  0  0  0  0  0  0  0  0  0  0
   36.2220   27.1020   31.3220 H   0  0  0  0  0  0  0  0  0  0  0  0
   36.3840   29.1190   32.0330 C   0  0  0  0  0  0  0  0  0  0  0  0
   36.2560   30.3480   31.3820 C   0  0  0  0  0  0  0  0  0  0  0  0
   35.7230   31.2330   32.2660 C   0  0  0  0  0  0  0  0  0  0  0  0
   35.5300   30.5800   33.4180 N   0  0  0  0  0  0  0  0  0  0  0  0
   35.9300   29.3400   33.2430 N   0  0  0  0  0  0  0  0  0  0  0  0
   36.5260   30.5800   30.3520 H   0  0  0  0  0  0  0  0  0  0  0  0
   35.4660   32.2800   32.1690 H   0  0  0  0  0  0  0  0  0  0  0  0
   35.0080   31.0010   34.6680 C   0  0  0  0  0  0  0  0  0  0  0  0
   33.7080   30.6580   34.9330 C   0  0  0  0  0  0  0  0  0  0  0  0
   33.0570   31.0000   36.1170 C   0  0  0  0  0  0  0  0  0  0  0  0
   33.7880   31.7200   37.0490 C   0  0  0  0  0  0  0  0  0  0  0  0
   35.0900   32.0650   36.7900 C   0  0  0  0  0  0  0  0  0  0  0  0
   35.7190   31.7190   35.6130 C   0  0  0  0  0  0  0  0  0  0  0  0
   33.0760   30.0920   34.2420 H   0  0  0  0  0  0  0  0  0  0  0  0
   32.0470   30.7410   36.3390 H   0  0  0  0  0  0  0  0  0  0  0  0
   33.4080   32.0480   38.0070 H   0  0  0  0  0  0  0  0  0  0  0  0
   35.7640   32.6310   37.4480 H   0  0  0  0  0  0  0  0  0  0  0  0
   36.7410   31.9650   35.3540 H   0  0  0  0  0  0  0  0  0  0  0  0
   38.2500   27.4940   31.8840 C   0  0  0  0  0  0  0  0  0  0  0  0
   38.6230   28.3400   32.5200 H   0  0  0  0  0  0  0  0  0  0  0  0
   38.9640   27.4840   31.0280 H   0  0  0  0  0  0  0  0  0  0  0  0
   38.2940   26.3060   32.6900 C   0  0  0  0  0  0  0  0  0  0  0  0
   39.0020   26.2700   33.8560 C   0  0  0  0  0  0  0  0  0  0  0  0
   39.0530   25.1060   34.6580 C   0  0  0  0  0  0  0  0  0  0  0  0
   38.3420   24.0270   34.1780 N   0  0  0  0  0  0  0  0  0  0  0  0
   37.6540   24.1040   33.0170 C   0  0  0  0  0  0  0  0  0  0  0  0
   37.6360   25.2390   32.2850 N   0  0  0  0  0  0  0  0  0  0  0  0
   39.5540   27.1400   34.2100 H   0  0  0  0  0  0  0  0  0  0  0  0
   39.6000   25.0690   35.5660 H   0  0  0  0  0  0  0  0  0  0  0  0
   36.9410   22.9520   32.5790 N   0  0  0  0  0  0  0  0  0  0  0  0
   36.1850   22.8740   31.4670 C   0  0  0  0  0  3  0  0  0  0  0  0
   35.5440   21.6960   31.1510 C   0  0  0  0  0  0  0  0  0  0  0  0
   34.9340   21.6510   30.2440 H   0  0  0  0  0  0  0  0  0  0  0  0
   35.6440   20.5650   31.9430 C   0  0  0  0  0  0  0  0  0  0  0  0
   35.0760   19.4800   31.6880 O   0  0  0  0  0  0  0  0  0  0  0  0
   36.4040   20.6810   33.0390 N   0  0  0  0  0  0  0  0  0  0  0  0
   37.0140   21.8250   33.3250 C   0  0  0  0  0  0  0  0  0  0  0  0
   37.7180   21.8470   34.3900 O   0  0  0  0  0  0  0  0  0  0  0  0
   36.5050   19.8400   33.6680 H   0  0  0  0  0  0  0  0  0  0  0  0
  1 22  1  0  0  0  0
  1  4  1  0  0  0  0
  2  1  1  0  0  0  0
  3  1  1  0  0  0  0
  4  8  2  0  0  0  0
  5  4  1  0  0  0  0
  5  6  2  0  0  0  0
  6  7  1  0  0  0  0
  7 11  1  0  0  0  0
  8  7  1  0  0  0  0
  9  5  1  0  0  0  0
 10  6  1  0  0  0  0
 11 12  2  0  0  0  0
 11 16  1  0  0  0  0
 12 13  1  0  0  0  0
 13 18  1  0  0  0  0
 13 14  2  0  0  0  0
 14 19  1  0  0  0  0
 15 14  1  0  0  0  0
 15 20  1  0  0  0  0
 16 15  2  0  0  0  0
 17 12  1  0  0  0  0
 21 16  1  0  0  0  0
 22 23  1  0  0  0  0
 22 25  1  0  0  0  0
 24 22  1  0  0  0  0
 25 26  1  0  0  0  0
 26 31  1  0  0  0  0
 26 27  2  0  0  0  0
 27 32  1  0  0  0  0
 28 27  1  0  0  0  0
 29 28  2  0  0  0  0
 30 25  2  0  0  0  0
 30 29  1  0  0  0  0
 33 29  1  0  0  0  0
 33 40  1  0  0  0  0
 34 33  1  0  0  0  0
 35 34  2  0  0  0  0
 35 37  1  0  0  0  0
 36 35  1  0  0  0  0
 37 39  1  0  0  0  0
 38 37  2  0  0  0  0
 39 40  1  0  0  0  0
 39 42  1  0  0  0  0
 40 41  2  0  0  0  0
M  END
>  <minimizedAffinity>
-6.10965109

$$$$

 OpenBabel03272504053D

 42 45  0  0  0  0  0  0  0  0999 V2000
   37.6950   27.1550   33.6530 C   0  0  0  0  0  0  0  0  0  0  0  0
   38.3300   27.4230   32.7570 H   0  0  0  0  0  0  0  0  0  0  0  0
   37.2950   26.1720   33.4250 H   0  0  0  0  0  0  0  0  0  0  0  0
   36.6480   28.1940   33.7350 C   0  0  0  0  0  0  0  0  0  0  0  0
   35.9160   28.6060   32.6200 C   0  0  0  0  0  0  0  0  0  0  0  0
   35.0400   29.5630   33.0280 C   0  0  0  0  0  0  0  0  0  0  0  0
   35.2220   29.7370   34.3420 N   0  0  0  0  0  0  0  0  0  0  0  0
   36.1760   28.9150   34.7230 N   0  0  0  0  0  0  0  0  0  0  0  0
   36.0090   28.2410   31.5970 H   0  0  0  0  0  0  0  0  0  0  0  0
   34.2990   30.1370   32.4880 H   0  0  0  0  0  0  0  0  0  0  0  0
   34.5940   30.5970   35.2790 C   0  0  0  0  0  0  0  0  0  0  0  0
   35.4100   31.4710   35.9470 C   0  0  0  0  0  0  0  0  0  0  0  0
   34.9410   32.3770   36.8970 C   0  0  0  0  0  0  0  0  0  0  0  0
   33.5780   32.3670   37.1530 C   0  0  0  0  0  0  0  0  0  0  0  0
   32.7560   31.4930   36.4870 C   0  0  0  0  0  0  0  0  0  0  0  0
   33.2370   30.6040   35.5510 C   0  0  0  0  0  0  0  0  0  0  0  0
   36.4920   31.5320   35.7920 H   0  0  0  0  0  0  0  0  0  0  0  0
   35.5610   33.0640   37.4250 H   0  0  0  0  0  0  0  0  0  0  0  0
   33.0820   33.0150   37.8630 H   0  0  0  0  0  0  0  0  0  0  0  0
   31.6680   31.3940   36.6060 H   0  0  0  0  0  0  0  0  0  0  0  0
   32.6380   29.8930   34.9960 H   0  0  0  0  0  0  0  0  0  0  0  0
   38.6060   27.1300   34.8200 C   0  0  0  0  0  0  0  0  0  0  0  0
   38.0720   26.5500   35.6190 H   0  0  0  0  0  0  0  0  0  0  0  0
   38.6470   28.1620   35.2380 H   0  0  0  0  0  0  0  0  0  0  0  0
   39.8960   26.5220   34.6460 C   0  0  0  0  0  0  0  0  0  0  0  0
   40.8490   27.1010   33.8590 C   0  0  0  0  0  0  0  0  0  0  0  0
   42.1220   26.5110   33.6800 C   0  0  0  0  0  0  0  0  0  0  0  0
   42.3230   25.3250   34.3520 N   0  0  0  0  0  0  0  0  0  0  0  0
   41.3520   24.7830   35.1210 C   0  0  0  0  0  0  0  0  0  0  0  0
   40.1500   25.3850   35.2610 N   0  0  0  0  0  0  0  0  0  0  0  0
   40.6610   28.0400   33.3410 H   0  0  0  0  0  0  0  0  0  0  0  0
   42.8690   26.9540   33.0710 H   0  0  0  0  0  0  0  0  0  0  0  0
   41.6260   23.5550   35.7870 N   0  0  0  0  0  0  0  0  0  0  0  0
   40.7810   22.9050   36.6100 C   0  0  0  0  0  3  0  0  0  0  0  0
   41.1660   21.7190   37.1960 C   0  0  0  0  0  0  0  0  0  0  0  0
   40.4670   21.2050   37.8630 H   0  0  0  0  0  0  0  0  0  0  0  0
   42.4090   21.1530   36.9700 C   0  0  0  0  0  0  0  0  0  0  0  0
   42.7930   20.0790   37.4840 O   0  0  0  0  0  0  0  0  0  0  0  0
   43.2210   21.8280   36.1470 N   0  0  0  0  0  0  0  0  0  0  0  0
   42.8300   22.9690   35.5920 C   0  0  0  0  0  0  0  0  0  0  0  0
   43.6680   23.5470   34.8200 O   0  0  0  0  0  0  0  0  0  0  0  0
   44.1770   21.4290   35.9490 H   0  0  0  0  0  0  0  0  0  0  0  0
  1  4  1  0  0  0  0
  1 22  1  0  0  0  0
  2  1  1  0  0  0  0
  3  1  1  0  0  0  0
  4  8  2  0  0  0  0
  5  6  2  0  0  0  0
  5  4  1  0  0  0  0
  6  7  1  0  0  0  0
  7  8  1  0  0  0  0
  7 11  1  0  0  0  0
  9  5  1  0  0  0  0
 10  6  1  0  0  0  0
 11 16  2  0  0  0  0
 11 12  1  0  0  0  0
 12 13  2  0  0  0  0
 13 14  1  0  0  0  0
 13 18  1  0  0  0  0
 14 19  1  0  0  0  0
 15 20  1  0  0  0  0
 15 14  2  0  0  0  0
 16 15  1  0  0  0  0
 17 12  1  0  0  0  0
 21 16  1  0  0  0  0
 22 24  1  0  0  0  0
 22 23  1  0  0  0  0
 25 22  1  0  0  0  0
 25 30  1  0  0  0  0
 26 25  2  0  0  0  0
 27 26  1  0  0  0  0
 27 28  2  0  0  0  0
 28 29  1  0  0  0  0
 29 30  2  0  0  0  0
 29 33  1  0  0  0  0
 31 26  1  0  0  0  0
 32 27  1  0  0  0  0
 33 34  1  0  0  0  0
 34 35  2  0  0  0  0
 35 36  1  0  0  0  0
 37 35  1  0  0  0  0
 37 38  2  0  0  0  0
 39 37  1  0  0  0  0
 40 33  1  0  0  0  0
 40 39  1  0  0  0  0
 41 40  2  0  0  0  0
 42 39  1  0  0  0  0
M  END
>  <minimizedAffinity>
-6.10279989

$$$$

 OpenBabel03272504053D

 42 45  0  0  0  0  0  0  0  0999 V2000
   36.1220   27.4260   31.5330 C   0  0  0  0  0  0  0  0  0  0  0  0
   36.6140   27.6780   30.5470 H   0  0  0  0  0  0  0  0  0  0  0  0
   35.1980   26.9250   31.2610 H   0  0  0  0  0  0  0  0  0  0  0  0
   35.8930   28.7160   32.2160 C   0  0  0  0  0  0  0  0  0  0  0  0
   36.2000   29.9410   31.6220 C   0  0  0  0  0  0  0  0  0  0  0  0
   35.8720   30.9240   32.5020 C   0  0  0  0  0  0  0  0  0  0  0  0
   35.3830   30.3320   33.5980 N   0  0  0  0  0  0  0  0  0  0  0  0
   35.4110   29.0330   33.3930 N   0  0  0  0  0  0  0  0  0  0  0  0
   36.6250   30.1060   30.6320 H   0  0  0  0  0  0  0  0  0  0  0  0
   35.9480   32.0010   32.4380 H   0  0  0  0  0  0  0  0  0  0  0  0
   34.8920   30.8600   34.8200 C   0  0  0  0  0  0  0  0  0  0  0  0
   33.6000   30.5410   35.1460 C   0  0  0  0  0  0  0  0  0  0  0  0
   32.9780   30.9840   36.3120 C   0  0  0  0  0  0  0  0  0  0  0  0
   33.7310   31.7830   37.1590 C   0  0  0  0  0  0  0  0  0  0  0  0
   35.0250   32.1050   36.8370 C   0  0  0  0  0  0  0  0  0  0  0  0
   35.6240   31.6580   35.6800 C   0  0  0  0  0  0  0  0  0  0  0  0
   32.9520   29.9160   34.5230 H   0  0  0  0  0  0  0  0  0  0  0  0
   31.9750   30.7460   36.5810 H   0  0  0  0  0  0  0  0  0  0  0  0
   33.3740   32.1940   38.0940 H   0  0  0  0  0  0  0  0  0  0  0  0
   35.7130   32.7270   37.4270 H   0  0  0  0  0  0  0  0  0  0  0  0
   36.6390   31.8810   35.3740 H   0  0  0  0  0  0  0  0  0  0  0  0
   37.0540   26.5250   32.2490 C   0  0  0  0  0  0  0  0  0  0  0  0
   36.5280   26.2170   33.1920 H   0  0  0  0  0  0  0  0  0  0  0  0
   37.9020   27.1460   32.6220 H   0  0  0  0  0  0  0  0  0  0  0  0
   37.4650   25.3220   31.5810 C   0  0  0  0  0  0  0  0  0  0  0  0
   38.4470   25.3410   30.6340 C   0  0  0  0  0  0  0  0  0  0  0  0
   38.8590   24.1620   29.9690 C   0  0  0  0  0  0  0  0  0  0  0  0
   38.2010   23.0110   30.3460 N   0  0  0  0  0  0  0  0  0  0  0  0
   37.2320   23.0350   31.2890 C   0  0  0  0  0  0  0  0  0  0  0  0
   36.8730   24.1880   31.8960 N   0  0  0  0  0  0  0  0  0  0  0  0
   38.9490   26.2660   30.3570 H   0  0  0  0  0  0  0  0  0  0  0  0
   39.6220   24.1660   29.2320 H   0  0  0  0  0  0  0  0  0  0  0  0
   36.5930   21.8100   31.6310 N   0  0  0  0  0  0  0  0  0  0  0  0
   35.6370   21.6600   32.5660 C   0  0  0  0  0  3  0  0  0  0  0  0
   35.0940   20.4160   32.8050 C   0  0  0  0  0  0  0  0  0  0  0  0
   34.3190   20.3130   33.5690 H   0  0  0  0  0  0  0  0  0  0  0  0
   35.4990   19.2890   32.1100 C   0  0  0  0  0  0  0  0  0  0  0  0
   35.0300   18.1450   32.2990 O   0  0  0  0  0  0  0  0  0  0  0  0
   36.4510   19.4780   31.1880 N   0  0  0  0  0  0  0  0  0  0  0  0
   36.9600   20.6850   30.9730 C   0  0  0  0  0  0  0  0  0  0  0  0
   37.8640   20.7740   30.0760 O   0  0  0  0  0  0  0  0  0  0  0  0
   36.7860   18.6430   30.6370 H   0  0  0  0  0  0  0  0  0  0  0  0
  1  4  1  0  0  0  0
  1 22  1  0  0  0  0
  2  1  1  0  0  0  0
  3  1  1  0  0  0  0
  4  8  2  0  0  0  0
  5  4  1  0  0  0  0
  5  6  2  0  0  0  0
  6  7  1  0  0  0  0
  7 11  1  0  0  0  0
  8  7  1  0  0  0  0
  9  5  1  0  0  0  0
 10  6  1  0  0  0  0
 11 12  2  0  0  0  0
 11 16  1  0  0  0  0
 12 13  1  0  0  0  0
 13 18  1  0  0  0  0
 13 14  2  0  0  0  0
 14 19  1  0  0  0  0
 15 14  1  0  0  0  0
 15 20  1  0  0  0  0
 16 15  2  0  0  0  0
 17 12  1  0  0  0  0
 21 16  1  0  0  0  0
 22 24  1  0  0  0  0
 22 23  1  0  0  0  0
 25 30  1  0  0  0  0
 25 22  1  0  0  0  0
 26 25  2  0  0  0  0
 27 28  2  0  0  0  0
 27 26  1  0  0  0  0
 28 29  1  0  0  0  0
 29 33  1  0  0  0  0
 29 30  2  0  0  0  0
 31 26  1  0  0  0  0
 32 27  1  0  0  0  0
 33 34  1  0  0  0  0
 34 35  2  0  0  0  0
 35 36  1  0  0  0  0
 37 38  2  0  0  0  0
 37 35  1  0  0  0  0
 39 37  1  0  0  0  0
 40 39  1  0  0  0  0
 40 33  1  0  0  0  0
 41 40  2  0  0  0  0
 42 39  1  0  0  0  0
M  END
>  <minimizedAffinity>
-6.03799105

$$$$
