
 OpenBabel03272508043D

 36 39  0  0  0  0  0  0  0  0999 V2000
   38.8360   30.9330   45.8100 C   0  0  0  0  0  0  0  0  0  0  0  0
   39.9900   31.6640   46.0590 C   0  0  0  0  0  0  0  0  0  0  0  0
   40.8370   31.6140   44.9650 C   0  0  0  0  0  0  0  0  0  0  0  0
   40.1520   30.8380   44.0760 N   0  0  0  0  0  0  0  0  0  0  0  0
   38.9990   30.4500   44.5730 N   0  0  0  0  0  0  0  0  0  0  0  0
   40.2110   32.2010   46.9670 H   0  0  0  0  0  0  0  0  0  0  0  0
   41.8030   32.0490   44.7890 H   0  0  0  0  0  0  0  0  0  0  0  0
   37.7190   30.7520   46.7100 C   0  0  0  0  0  0  0  0  0  0  0  0
   37.9240   30.9440   48.1040 C   0  0  0  0  0  0  0  0  0  0  0  0
   36.8340   30.7650   48.9450 C   0  0  0  0  0  0  0  0  0  0  0  0
   35.6430   30.4180   48.3980 N   0  0  0  0  0  0  0  0  0  0  0  0
   35.4680   30.2380   47.0650 C   0  0  0  0  0  0  0  0  0  0  0  0
   36.5150   30.4080   46.2330 N   0  0  0  0  0  0  0  0  0  0  0  0
   38.9100   31.2230   48.4680 H   0  0  0  0  0  0  0  0  0  0  0  0
   34.4780   29.9620   46.7260 H   0  0  0  0  0  0  0  0  0  0  0  0
   37.0340   30.9640   50.4130 C   0  0  0  0  0  0  0  0  0  0  0  0
   36.5470   32.2200   50.6850 F   0  0  0  0  0  0  0  0  0  0  0  0
   36.3300   30.0420   51.1700 F   0  0  0  0  0  0  0  0  0  0  0  0
   38.3800   30.9390   50.7630 F   0  0  0  0  0  0  0  0  0  0  0  0
   40.5620   30.4440   42.7330 C   0  0  0  0  0  0  0  0  0  0  0  0
   40.1670   31.1920   41.6080 C   0  0  0  0  0  0  0  0  0  0  0  0
   40.6000   30.7740   40.3810 C   0  0  0  0  0  0  0  0  0  0  0  0
   41.4250   29.6080   40.2750 C   0  0  0  0  0  0  0  0  0  0  0  0
   41.5800   29.0950   42.0450 S   0  0  0  0  0  0  0  0  0  0  0  0
   39.5440   32.0750   41.6580 H   0  0  0  0  0  0  0  0  0  0  0  0
   40.4000   31.2180   39.4190 H   0  0  0  0  0  0  0  0  0  0  0  0
   42.0000   28.9460   39.2760 N   0  0  0  0  0  0  0  0  0  0  0  0
   43.1210   29.4190   38.6960 C   0  0  0  0  0  3  0  0  0  0  0  0
   43.7230   28.7160   37.6450 C   0  0  0  0  0  0  0  0  0  0  0  0
   44.6160   29.0370   37.1380 H   0  0  0  0  0  0  0  0  0  0  0  0
   43.1130   27.5380   37.2480 C   0  0  0  0  0  0  0  0  0  0  0  0
   43.5540   26.8020   36.3060 O   0  0  0  0  0  0  0  0  0  0  0  0
   41.9890   27.0610   37.8280 N   0  0  0  0  0  0  0  0  0  0  0  0
   41.4520   27.7940   38.8470 C   0  0  0  0  0  0  0  0  0  0  0  0
   40.4090   27.3470   39.3840 O   0  0  0  0  0  0  0  0  0  0  0  0
   41.5210   26.1730   37.5360 H   0  0  0  0  0  0  0  0  0  0  0  0
  1  2  1  0  0  0  0
  1  8  1  0  0  0  0
  2  6  1  0  0  0  0
  3  2  2  0  0  0  0
  4  5  1  0  0  0  0
  4  3  1  0  0  0  0
  5  1  2  0  0  0  0
  7  3  1  0  0  0  0
  8  9  1  0  0  0  0
  9 14  1  0  0  0  0
  9 10  2  0  0  0  0
 10 16  1  0  0  0  0
 11 10  1  0  0  0  0
 12 11  2  0  0  0  0
 13  8  2  0  0  0  0
 13 12  1  0  0  0  0
 15 12  1  0  0  0  0
 16 17  1  0  0  0  0
 16 19  1  0  0  0  0
 16 18  1  0  0  0  0
 20  4  1  0  0  0  0
 21 25  1  0  0  0  0
 21 20  2  0  0  0  0
 22 21  1  0  0  0  0
 23 22  2  0  0  0  0
 23 24  1  0  0  0  0
 24 20  1  0  0  0  0
 26 22  1  0  0  0  0
 27 23  1  0  0  0  0
 28 27  1  0  0  0  0
 29 28  2  0  0  0  0
 30 29  1  0  0  0  0
 31 29  1  0  0  0  0
 31 33  1  0  0  0  0
 32 31  2  0  0  0  0
 33 34  1  0  0  0  0
 34 27  1  0  0  0  0
 34 35  2  0  0  0  0
 36 33  1  0  0  0  0
M  END
>  <minimizedAffinity>
-6.46236134

>  <minimizedRMSD>
0.279463172

$$$$
