
 OpenBabel03272508583D

 41 44  0  0  1  0  0  0  0  0999 V2000
   39.1780   31.3250   43.4260 C   0  0  0  0  0  0  0  0  0  0  0  0
   40.2850   30.5300   43.5590 C   0  0  0  0  0  0  0  0  0  0  0  0
   40.9530   30.1800   42.3910 C   0  0  0  0  0  0  0  0  0  0  0  0
   40.4640   30.6500   41.1910 C   0  0  0  0  0  0  0  0  0  0  0  0
   39.3460   31.4500   41.0690 C   0  0  0  0  0  0  0  0  0  0  0  0
   38.7190   31.7730   42.2290 N   0  0  0  0  0  0  0  0  0  0  0  0
   40.6530   30.1720   44.5130 H   0  0  0  0  0  0  0  0  0  0  0  0
   41.8240   29.5630   42.4180 H   0  0  0  0  0  0  0  0  0  0  0  0
   41.0040   30.3600   40.3050 H   0  0  0  0  0  0  0  0  0  0  0  0
   38.4370   31.7330   44.6450 C   0  0  0  0  0  0  0  0  0  0  0  0
   37.3790   32.3690   44.5950 O   0  0  0  0  0  0  0  0  0  0  0  0
   39.0160   31.3490   45.9250 N   0  0  0  0  0  0  0  0  0  0  0  0
   39.9910   31.0100   46.0460 H   0  0  0  0  0  0  0  0  0  0  0  0
   38.6690   31.0690   48.3760 C   0  0  2  0  0  0  0  0  0  0  0  0
   38.6570   32.5290   48.0990 C   0  0  0  0  0  0  0  0  0  0  0  0
   38.1730   31.4510   47.0950 C   0  0  1  0  0  0  0  0  0  0  0  0
   39.6980   30.6680   48.5020 H   0  0  0  0  0  0  0  0  0  0  0  0
   37.8750   33.1670   48.5640 H   0  0  0  0  0  0  0  0  0  0  0  0
   39.5790   33.0620   47.8720 H   0  0  0  0  0  0  0  0  0  0  0  0
   37.0550   31.4730   46.9190 H   0  0  0  0  0  0  0  0  0  0  0  0
   35.7580   29.2810   49.8350 C   0  0  0  0  0  0  0  0  0  0  0  0
   36.0210   29.3870   51.2300 C   0  0  0  0  0  0  0  0  0  0  0  0
   37.2090   30.0880   51.6520 C   0  0  0  0  0  0  0  0  0  0  0  0
   38.0460   30.6290   50.7030 N   0  0  0  0  0  0  0  0  0  0  0  0
   37.7160   30.4810   49.3880 C   0  0  0  0  0  0  0  0  0  0  0  0
   36.5880   29.8180   48.9160 N   0  0  0  0  0  0  0  0  0  0  0  0
   34.8730   28.7580   49.5430 H   0  0  0  0  0  0  0  0  0  0  0  0
   35.3790   28.9700   51.9650 H   0  0  0  0  0  0  0  0  0  0  0  0
   37.4160   30.1720   52.7090 H   0  0  0  0  0  0  0  0  0  0  0  0
   38.8750   31.9040   39.7730 C   0  0  0  0  0  0  0  0  0  0  0  0
   39.6800   32.0680   38.8350 O   0  0  0  0  0  0  0  0  0  0  0  0
   34.5260   30.7110   39.2880 H   0  0  0  0  0  0  0  0  0  0  0  0
   35.2320   31.4650   39.4400 N   0  0  0  0  0  0  0  0  0  0  0  0
   36.5430   31.1000   39.4910 C   0  0  0  0  0  0  0  0  0  0  0  0
   37.4370   32.1320   39.6950 C   0  0  0  0  0  0  0  0  0  0  0  0
   37.0630   33.4540   39.8400 C   0  0  0  0  0  0  0  0  0  0  0  0
   37.8650   34.3820   40.0230 O   0  0  0  0  0  0  0  0  0  0  0  0
   35.7360   33.7670   39.7820 N   0  0  0  0  0  0  0  0  0  0  0  0
   34.8540   32.7510   39.5810 C   0  0  0  0  0  0  0  0  0  0  0  0
   33.6470   33.1020   39.5360 O   0  0  0  0  0  0  0  0  0  0  0  0
   35.4470   34.7580   39.8900 H   0  0  0  0  0  0  0  0  0  0  0  0
  1  2  1  0  0  0  0
  1 10  1  0  0  0  0
  2  7  1  0  0  0  0
  3  8  1  0  0  0  0
  3  2  2  0  0  0  0
  4  3  1  0  0  0  0
  5  4  2  0  0  0  0
  5  6  1  0  0  0  0
  6  1  2  0  0  0  0
  9  4  1  0  0  0  0
 10 12  1  0  0  0  0
 11 10  2  0  0  0  0
 12 13  1  0  0  0  0
 12 16  1  0  0  0  0
 14 17  1  6  0  0  0
 14 25  1  0  0  0  0
 15 14  1  0  0  0  0
 15 18  1  0  0  0  0
 16 20  1  6  0  0  0
 16 15  1  0  0  0  0
 16 14  1  0  0  0  0
 19 15  1  0  0  0  0
 21 22  1  0  0  0  0
 22 23  2  0  0  0  0
 22 28  1  0  0  0  0
 23 29  1  0  0  0  0
 24 23  1  0  0  0  0
 25 24  2  0  0  0  0
 26 25  1  0  0  0  0
 26 21  2  0  0  0  0
 27 21  1  0  0  0  0
 30  5  1  0  0  0  0
 31 30  2  0  0  0  0
 32 33  1  0  0  0  0
 33 34  1  0  0  0  0
 33 39  1  0  0  0  0
 34 35  2  0  0  0  0
 35 30  1  0  0  0  0
 35 36  1  0  0  0  0
 36 37  2  0  0  0  0
 38 36  1  0  0  0  0
 38 41  1  0  0  0  0
 39 38  1  0  0  0  0
 40 39  2  0  0  0  0
M  END
>  <minimizedAffinity>
-5.27840233

>  <minimizedRMSD>
2.82305336

$$$$
