
 OpenBabel03262520123D

 43 45  0  0  0  0  0  0  0  0999 V2000
   35.3150   30.3800   49.4110 C   0  0  0  0  0  0  0  0  0  0  0  0
   35.0930   31.4200   49.7790 H   0  0  0  0  0  0  0  0  0  0  0  0
   36.1970   30.0510   50.0260 H   0  0  0  0  0  0  0  0  0  0  0  0
   38.2080   31.5710   48.9420 Br  0  0  0  0  0  0  0  0  0  0  0  0
   36.9770   30.9350   47.6090 C   0  0  0  0  0  0  0  0  0  0  0  0
   37.3170   30.9670   46.2810 C   0  0  0  0  0  0  0  0  0  0  0  0
   36.3990   30.5110   45.3730 C   0  0  0  0  0  0  0  0  0  0  0  0
   35.1550   30.0250   45.7500 C   0  0  0  0  0  0  0  0  0  0  0  0
   34.8470   30.0090   47.1170 C   0  0  0  0  0  0  0  0  0  0  0  0
   35.7620   30.4630   48.0250 C   0  0  0  0  0  0  0  0  0  0  0  0
   36.7210   30.5580   44.3200 H   0  0  0  0  0  0  0  0  0  0  0  0
   34.5490   29.7050   44.9180 H   0  0  0  0  0  0  0  0  0  0  0  0
   33.8610   29.6210   47.1950 H   0  0  0  0  0  0  0  0  0  0  0  0
   39.8370   33.2790   45.0080 C   0  0  0  0  0  0  0  0  0  0  0  0
   41.0300   32.5040   44.9910 C   0  0  0  0  0  0  0  0  0  0  0  0
   40.9330   31.1960   45.4220 C   0  0  0  0  0  0  0  0  0  0  0  0
   39.7220   30.6940   45.8430 N   0  0  0  0  0  0  0  0  0  0  0  0
   38.6210   31.4750   45.8380 C   0  0  0  0  0  0  0  0  0  0  0  0
   38.6930   32.7480   45.4240 N   0  0  0  0  0  0  0  0  0  0  0  0
   39.9390   34.2900   44.6690 H   0  0  0  0  0  0  0  0  0  0  0  0
   41.9740   32.9250   44.6530 H   0  0  0  0  0  0  0  0  0  0  0  0
   41.8190   30.5730   45.4230 H   0  0  0  0  0  0  0  0  0  0  0  0
   34.1910   29.4570   49.7090 C   0  0  0  0  0  0  0  0  0  0  0  0
   33.2340   29.7970   49.3610 H   0  0  0  0  0  0  0  0  0  0  0  0
   34.0900   29.5280   50.8490 H   0  0  0  0  0  0  0  0  0  0  0  0
   34.6120   28.1220   49.4860 N   0  0  0  0  0  0  0  0  0  0  0  0
   35.0240   27.6270   50.2970 H   0  0  0  0  0  0  0  0  0  0  0  0
   33.7860   27.2980   48.6860 C   0  0  0  0  0  0  0  0  0  0  0  0
   34.1290   27.2980   47.6290 H   0  0  0  0  0  0  0  0  0  0  0  0
   33.8920   26.2560   49.0340 H   0  0  0  0  0  0  0  0  0  0  0  0
   32.3810   27.8050   48.7660 C   0  0  0  0  0  0  0  0  0  0  0  0
   31.9020   27.5930   49.7470 H   0  0  0  0  0  0  0  0  0  0  0  0
   32.1330   28.7600   48.3440 H   0  0  0  0  0  0  0  0  0  0  0  0
   31.6350   26.8750   47.8570 N   0  0  0  0  0  0  0  0  0  0  0  0
   32.1600   25.6510   47.5550 C   0  0  0  0  0  3  0  0  0  0  0  0
   31.4870   24.7830   46.7220 C   0  0  0  0  0  0  0  0  0  0  0  0
   31.8960   23.8200   46.4810 H   0  0  0  0  0  0  0  0  0  0  0  0
   30.2710   25.1470   46.1840 C   0  0  0  0  0  0  0  0  0  0  0  0
   29.5980   24.4130   45.4200 O   0  0  0  0  0  0  0  0  0  0  0  0
   29.7940   26.3610   46.5110 N   0  0  0  0  0  0  0  0  0  0  0  0
   30.4290   27.2260   47.3200 C   0  0  0  0  0  0  0  0  0  0  0  0
   30.0280   28.3580   47.6480 O   0  0  0  0  0  0  0  0  0  0  0  0
   28.8800   26.7500   46.1650 H   0  0  0  0  0  0  0  0  0  0  0  0
  1 23  1  0  0  0  0
  1  2  1  0  0  0  0
  1  3  1  0  0  0  0
  5 10  1  0  0  0  0
  5  4  1  0  0  0  0
  6  5  2  0  0  0  0
  7  8  2  0  0  0  0
  7  6  1  0  0  0  0
  8  9  1  0  0  0  0
  9 13  1  0  0  0  0
  9 10  2  0  0  0  0
 10  1  1  0  0  0  0
 11  7  1  0  0  0  0
 12  8  1  0  0  0  0
 14 19  1  0  0  0  0
 15 14  2  0  0  0  0
 15 16  1  0  0  0  0
 16 22  1  0  0  0  0
 16 17  2  0  0  0  0
 18 17  1  0  0  0  0
 18  6  1  0  0  0  0
 19 18  2  0  0  0  0
 20 14  1  0  0  0  0
 21 15  1  0  0  0  0
 23 25  1  0  0  0  0
 24 23  1  0  0  0  0
 26 23  1  0  0  0  0
 26 27  1  0  0  0  0
 28 31  1  0  0  0  0
 28 30  1  0  0  0  0
 28 26  1  0  0  0  0
 29 28  1  0  0  0  0
 31 32  1  0  0  0  0
 33 31  1  0  0  0  0
 34 31  1  0  0  0  0
 35 34  1  0  0  0  0
 36 35  2  0  0  0  0
 37 36  1  0  0  0  0
 38 40  1  0  0  0  0
 38 36  1  0  0  0  0
 39 38  2  0  0  0  0
 40 41  1  0  0  0  0
 41 42  2  0  0  0  0
 41 34  1  0  0  0  0
 43 40  1  0  0  0  0
M  END
>  <minimizedAffinity>
-5.3909936

>  <minimizedRMSD>
0.42372629

$$$$
