
 OpenBabel03262520123D

 43 45  0  0  0  0  0  0  0  0999 V2000
   35.3080   30.4090   49.4230 C   0  0  0  0  0  0  0  0  0  0  0  0
   35.0880   31.4510   49.7850 H   0  0  0  0  0  0  0  0  0  0  0  0
   36.1890   30.0810   50.0420 H   0  0  0  0  0  0  0  0  0  0  0  0
   38.2060   31.5880   48.9520 Br  0  0  0  0  0  0  0  0  0  0  0  0
   36.9750   30.9480   47.6210 C   0  0  0  0  0  0  0  0  0  0  0  0
   37.3170   30.9720   46.2930 C   0  0  0  0  0  0  0  0  0  0  0  0
   36.3990   30.5140   45.3870 C   0  0  0  0  0  0  0  0  0  0  0  0
   35.1530   30.0330   45.7640 C   0  0  0  0  0  0  0  0  0  0  0  0
   34.8420   30.0260   47.1310 C   0  0  0  0  0  0  0  0  0  0  0  0
   35.7580   30.4820   48.0380 C   0  0  0  0  0  0  0  0  0  0  0  0
   36.7230   30.5540   44.3340 H   0  0  0  0  0  0  0  0  0  0  0  0
   34.5470   29.7110   44.9330 H   0  0  0  0  0  0  0  0  0  0  0  0
   33.8560   29.6410   47.2090 H   0  0  0  0  0  0  0  0  0  0  0  0
   39.8480   33.2730   45.0220 C   0  0  0  0  0  0  0  0  0  0  0  0
   41.0370   32.4910   45.0010 C   0  0  0  0  0  0  0  0  0  0  0  0
   40.9330   31.1830   45.4290 C   0  0  0  0  0  0  0  0  0  0  0  0
   39.7200   30.6860   45.8510 N   0  0  0  0  0  0  0  0  0  0  0  0
   38.6240   31.4740   45.8490 C   0  0  0  0  0  0  0  0  0  0  0  0
   38.7020   32.7480   45.4380 N   0  0  0  0  0  0  0  0  0  0  0  0
   39.9550   34.2840   44.6850 H   0  0  0  0  0  0  0  0  0  0  0  0
   41.9820   32.9070   44.6630 H   0  0  0  0  0  0  0  0  0  0  0  0
   41.8150   30.5540   45.4280 H   0  0  0  0  0  0  0  0  0  0  0  0
   34.1810   29.4890   49.7250 C   0  0  0  0  0  0  0  0  0  0  0  0
   33.2270   29.8280   49.3680 H   0  0  0  0  0  0  0  0  0  0  0  0
   34.0740   29.5730   50.8630 H   0  0  0  0  0  0  0  0  0  0  0  0
   34.6020   28.1520   49.5180 N   0  0  0  0  0  0  0  0  0  0  0  0
   35.0000   27.6620   50.3380 H   0  0  0  0  0  0  0  0  0  0  0  0
   33.7860   27.3240   48.7110 C   0  0  0  0  0  0  0  0  0  0  0  0
   34.1350   27.3290   47.6560 H   0  0  0  0  0  0  0  0  0  0  0  0
   33.8960   26.2830   49.0580 H   0  0  0  0  0  0  0  0  0  0  0  0
   32.3780   27.8230   48.7850 C   0  0  0  0  0  0  0  0  0  0  0  0
   31.8950   27.6080   49.7640 H   0  0  0  0  0  0  0  0  0  0  0  0
   32.1260   28.7760   48.3600 H   0  0  0  0  0  0  0  0  0  0  0  0
   31.6410   26.8870   47.8730 N   0  0  0  0  0  0  0  0  0  0  0  0
   32.1760   25.6660   47.5730 C   0  0  0  0  0  3  0  0  0  0  0  0
   31.5130   24.7930   46.7370 C   0  0  0  0  0  0  0  0  0  0  0  0
   31.9300   23.8330   46.4990 H   0  0  0  0  0  0  0  0  0  0  0  0
   30.2970   25.1490   46.1960 C   0  0  0  0  0  0  0  0  0  0  0  0
   29.6330   24.4100   45.4280 O   0  0  0  0  0  0  0  0  0  0  0  0
   29.8100   26.3590   46.5190 N   0  0  0  0  0  0  0  0  0  0  0  0
   30.4350   27.2290   47.3310 C   0  0  0  0  0  0  0  0  0  0  0  0
   30.0240   28.3580   47.6570 O   0  0  0  0  0  0  0  0  0  0  0  0
   28.8930   26.7420   46.1690 H   0  0  0  0  0  0  0  0  0  0  0  0
  1 23  1  0  0  0  0
  1  2  1  0  0  0  0
  1  3  1  0  0  0  0
  5 10  1  0  0  0  0
  5  4  1  0  0  0  0
  6  5  2  0  0  0  0
  7  8  2  0  0  0  0
  7  6  1  0  0  0  0
  8  9  1  0  0  0  0
  9 13  1  0  0  0  0
  9 10  2  0  0  0  0
 10  1  1  0  0  0  0
 11  7  1  0  0  0  0
 12  8  1  0  0  0  0
 14 19  1  0  0  0  0
 15 14  2  0  0  0  0
 15 16  1  0  0  0  0
 16 17  2  0  0  0  0
 18 17  1  0  0  0  0
 18  6  1  0  0  0  0
 19 18  2  0  0  0  0
 20 14  1  0  0  0  0
 21 15  1  0  0  0  0
 22 16  1  0  0  0  0
 23 25  1  0  0  0  0
 24 23  1  0  0  0  0
 26 23  1  0  0  0  0
 26 27  1  0  0  0  0
 28 31  1  0  0  0  0
 28 30  1  0  0  0  0
 28 26  1  0  0  0  0
 29 28  1  0  0  0  0
 31 32  1  0  0  0  0
 33 31  1  0  0  0  0
 34 31  1  0  0  0  0
 35 34  1  0  0  0  0
 36 35  2  0  0  0  0
 37 36  1  0  0  0  0
 38 40  1  0  0  0  0
 38 36  1  0  0  0  0
 39 38  2  0  0  0  0
 40 41  1  0  0  0  0
 41 42  2  0  0  0  0
 41 34  1  0  0  0  0
 43 40  1  0  0  0  0
M  END
>  <minimizedAffinity>
-5.39160013

>  <minimizedRMSD>
0.510170817

$$$$
