
 OpenBabel03272509433D

 39 41  0  0  1  0  0  0  0  0999 V2000
   37.1550   30.9250   49.0700 C   0  0  0  0  0  0  0  0  0  0  0  0
   36.8940   31.8670   50.0660 C   0  0  0  0  0  0  0  0  0  0  0  0
   37.4360   33.1400   50.0370 C   0  0  0  0  0  0  0  0  0  0  0  0
   38.2790   33.4990   48.9740 C   0  0  0  0  0  0  0  0  0  0  0  0
   38.5270   32.5660   48.0050 C   0  0  0  0  0  0  0  0  0  0  0  0
   37.9620   31.3000   48.0710 C   0  0  0  0  0  0  0  0  0  0  0  0
   36.2390   31.5760   50.8820 H   0  0  0  0  0  0  0  0  0  0  0  0
   37.1750   33.7860   50.8480 H   0  0  0  0  0  0  0  0  0  0  0  0
   38.6490   34.4960   49.0350 H   0  0  0  0  0  0  0  0  0  0  0  0
   39.1910   32.9900   47.2570 H   0  0  0  0  0  0  0  0  0  0  0  0
   36.6110   29.5860   49.1270 C   0  0  2  0  0  0  0  0  0  0  0  0
   37.0780   29.0310   48.2240 H   0  0  0  0  0  0  0  0  0  0  0  0
   33.6040   29.7950   47.0970 C   0  0  0  0  0  0  0  0  0  0  0  0
   32.9270   28.6250   47.3800 C   0  0  0  0  0  0  0  0  0  0  0  0
   33.4680   27.7690   48.3300 C   0  0  0  0  0  0  0  0  0  0  0  0
   34.6500   28.1140   48.9460 N   0  0  0  0  0  0  0  0  0  0  0  0
   35.2480   29.2440   48.6290 C   0  0  0  0  0  0  0  0  0  0  0  0
   34.7370   30.0860   47.7130 N   0  0  0  0  0  0  0  0  0  0  0  0
   33.1980   30.4670   46.3640 H   0  0  0  0  0  0  0  0  0  0  0  0
   32.0080   28.4390   46.8460 H   0  0  0  0  0  0  0  0  0  0  0  0
   32.9500   26.8630   48.5570 H   0  0  0  0  0  0  0  0  0  0  0  0
   37.1580   28.8690   50.0450 O   0  0  0  0  0  0  0  0  0  0  0  0
   36.8190   29.0870   50.9610 H   0  0  0  0  0  0  0  0  0  0  0  0
   38.3300   30.4060   46.9980 C   0  0  0  0  0  3  0  0  0  0  0  0
   38.9260   30.8070   45.8690 C   0  0  0  0  0  3  0  0  0  0  0  0
   39.3800   29.9800   44.7270 C   0  0  0  0  0  0  0  0  0  0  0  0
   38.9910   28.9390   44.8980 H   0  0  0  0  0  0  0  0  0  0  0  0
   40.4650   29.8900   44.6850 H   0  0  0  0  0  0  0  0  0  0  0  0
   38.6330   30.5820   43.2090 S   0  0  0  0  0  0  0  0  0  0  0  0
   34.2640   28.8570   44.0070 H   0  0  0  0  0  0  0  0  0  0  0  0
   34.8250   29.7000   43.7790 N   0  0  0  0  0  0  0  0  0  0  0  0
   36.1780   29.6540   43.6490 C   0  0  0  0  0  3  0  0  0  0  0  0
   36.8810   30.8080   43.3440 C   0  0  0  0  0  0  0  0  0  0  0  0
   36.1700   31.9790   43.1810 C   0  0  0  0  0  0  0  0  0  0  0  0
   36.8770   32.9790   42.9070 O   0  0  0  0  0  0  0  0  0  0  0  0
   34.8330   32.0330   43.3090 N   0  0  0  0  0  0  0  0  0  0  0  0
   34.1950   30.8790   43.6070 C   0  0  0  0  0  0  0  0  0  0  0  0
   32.9260   30.8940   43.7350 O   0  0  0  0  0  0  0  0  0  0  0  0
   34.3580   32.9460   43.1730 H   0  0  0  0  0  0  0  0  0  0  0  0
  1 11  1  0  0  0  0
  1  2  1  0  0  0  0
  2  7  1  0  0  0  0
  3  2  2  0  0  0  0
  3  8  1  0  0  0  0
  4  9  1  0  0  0  0
  4  3  1  0  0  0  0
  5  6  1  0  0  0  0
  5  4  2  0  0  0  0
  6  1  2  0  0  0  0
 10  5  1  0  0  0  0
 11 12  1  6  0  0  0
 11 22  1  0  0  0  0
 13 14  2  0  0  0  0
 13 18  1  0  0  0  0
 14 15  1  0  0  0  0
 15 21  1  0  0  0  0
 15 16  2  0  0  0  0
 17 16  1  0  0  0  0
 17 11  1  0  0  0  0
 18 17  2  0  0  0  0
 19 13  1  0  0  0  0
 20 14  1  0  0  0  0
 22 23  1  0  0  0  0
 24  6  1  0  0  0  0
 25 24  2  0  0  0  0
 26 27  1  0  0  0  0
 26 25  1  0  0  0  0
 28 26  1  0  0  0  0
 29 33  1  0  0  0  0
 29 26  1  0  0  0  0
 31 30  1  0  0  0  0
 32 31  1  0  0  0  0
 33 32  2  0  0  0  0
 34 36  1  0  0  0  0
 34 33  1  0  0  0  0
 35 34  2  0  0  0  0
 36 37  1  0  0  0  0
 37 38  2  0  0  0  0
 37 31  1  0  0  0  0
 39 36  1  0  0  0  0
M  END
>  <minimizedAffinity>
-5.81770563

>  <minimizedRMSD>
0.953033268

$$$$
