
 OpenBabel03262521533D

 24 25  0  0  0  0  0  0  0  0999 V2000
   35.1020   29.6780   49.4120 C   0  0  0  0  0  0  0  0  0  0  0  0
   34.6570   28.6720   49.6110 H   0  0  0  0  0  0  0  0  0  0  0  0
   34.6080   30.4700   49.9800 H   0  0  0  0  0  0  0  0  0  0  0  0
   36.8360   29.5330   49.9080 S   0  0  0  0  0  0  0  0  0  0  0  0
   37.7660   30.8000   49.0500 C   0  0  0  0  0  0  0  0  0  0  0  0
   37.9600   31.9730   49.7780 C   0  0  0  0  0  0  0  0  0  0  0  0
   38.6770   32.9740   49.1370 C   0  0  0  0  0  0  0  0  0  0  0  0
   39.1580   32.7990   47.8650 N   0  0  0  0  0  0  0  0  0  0  0  0
   38.9280   31.6300   47.2220 C   0  0  0  0  0  0  0  0  0  0  0  0
   38.2420   30.6500   47.8140 N   0  0  0  0  0  0  0  0  0  0  0  0
   37.6210   32.1900   50.7710 H   0  0  0  0  0  0  0  0  0  0  0  0
   38.8730   33.9070   49.6190 H   0  0  0  0  0  0  0  0  0  0  0  0
   39.3470   31.5940   46.2250 H   0  0  0  0  0  0  0  0  0  0  0  0
   34.9540   29.9410   47.6080 S   0  0  0  0  0  0  0  0  0  0  0  0
   30.5290   29.9480   45.5380 H   0  0  0  0  0  0  0  0  0  0  0  0
   31.2610   29.3530   46.0290 N   0  0  0  0  0  0  0  0  0  0  0  0
   32.3630   30.0410   46.3670 C   0  0  0  0  0  0  0  0  0  0  0  0
   33.3840   29.3660   47.0120 C   0  0  0  0  0  0  0  0  0  0  0  0
   33.2180   28.0030   47.2790 C   0  0  0  0  0  0  0  0  0  0  0  0
   34.0390   27.2320   47.8560 O   0  0  0  0  0  0  0  0  0  0  0  0
   32.0860   27.3380   46.9230 N   0  0  0  0  0  0  0  0  0  0  0  0
   31.1160   28.0460   46.2930 C   0  0  0  0  0  0  0  0  0  0  0  0
   30.0430   27.4760   45.9400 O   0  0  0  0  0  0  0  0  0  0  0  0
   31.9010   26.3400   47.0900 H   0  0  0  0  0  0  0  0  0  0  0  0
  1  2  1  0  0  0  0
  1  4  1  0  0  0  0
  1  3  1  0  0  0  0
  5  6  1  0  0  0  0
  5  4  1  0  0  0  0
  6 11  1  0  0  0  0
  7 12  1  0  0  0  0
  7  6  2  0  0  0  0
  8  7  1  0  0  0  0
  9 10  1  0  0  0  0
  9  8  2  0  0  0  0
 10  5  2  0  0  0  0
 13  9  1  0  0  0  0
 14  1  1  0  0  0  0
 15 16  1  0  0  0  0
 16 22  1  0  0  0  0
 16 17  1  0  0  0  0
 17 18  2  0  0  0  0
 18 19  1  0  0  0  0
 18 14  1  0  0  0  0
 19 20  2  0  0  0  0
 21 24  1  0  0  0  0
 21 19  1  0  0  0  0
 22 21  1  0  0  0  0
 23 22  2  0  0  0  0
M  END
>  <minimizedAffinity>
-3.94562435

>  <minimizedRMSD>
4.33024931

$$$$
