
 OpenBabel03272508473D

 41 45  0  0  0  0  0  0  0  0999 V2000
   35.5390   29.5480   49.6450 C   0  0  0  0  0  0  0  0  0  0  0  0
   36.5890   29.1450   50.4430 C   0  0  0  0  0  0  0  0  0  0  0  0
   37.7050   29.6970   49.8230 C   0  0  0  0  0  0  0  0  0  0  0  0
   37.3000   30.3880   48.7130 C   0  0  0  0  0  0  0  0  0  0  0  0
   35.9820   30.2820   48.6290 O   0  0  0  0  0  0  0  0  0  0  0  0
   36.6010   28.5470   51.3400 H   0  0  0  0  0  0  0  0  0  0  0  0
   38.7320   29.6310   50.1110 H   0  0  0  0  0  0  0  0  0  0  0  0
   38.6560   32.3490   48.1370 C   0  0  0  0  0  0  0  0  0  0  0  0
   38.1440   31.1200   47.7720 C   0  0  0  0  0  0  0  0  0  0  0  0
   38.4080   30.5540   46.5260 C   0  0  0  0  0  0  0  0  0  0  0  0
   39.2040   31.2290   45.6170 C   0  0  0  0  0  0  0  0  0  0  0  0
   39.6380   30.9640   44.3650 N   0  0  0  0  0  0  0  0  0  0  0  0
   40.3890   32.0010   43.9850 N   0  0  0  0  0  0  0  0  0  0  0  0
   40.4430   32.9140   44.9620 C   0  0  0  0  0  0  0  0  0  0  0  0
   39.6920   32.4520   46.0290 C   0  0  0  0  0  0  0  0  0  0  0  0
   39.4650   33.0540   47.2360 C   0  0  0  0  0  0  0  0  0  0  0  0
   38.4580   32.7970   49.0980 H   0  0  0  0  0  0  0  0  0  0  0  0
   38.0010   29.5780   46.2380 H   0  0  0  0  0  0  0  0  0  0  0  0
   39.3850   30.0750   43.8490 H   0  0  0  0  0  0  0  0  0  0  0  0
   41.0060   33.8310   44.8450 H   0  0  0  0  0  0  0  0  0  0  0  0
   39.8810   34.0200   47.4920 H   0  0  0  0  0  0  0  0  0  0  0  0
   34.1350   29.2110   49.8900 C   0  0  0  0  0  0  0  0  0  0  0  0
   33.5750   29.7230   50.8800 O   0  0  0  0  0  0  0  0  0  0  0  0
   31.4480   27.2510   48.3930 C   0  0  0  0  0  0  0  0  0  0  0  0
   32.0710   26.6110   47.3340 C   0  0  0  0  0  0  0  0  0  0  0  0
   33.4100   26.8400   47.1190 C   0  0  0  0  0  0  0  0  0  0  0  0
   34.0620   27.6840   47.9540 N   0  0  0  0  0  0  0  0  0  0  0  0
   33.4420   28.3000   48.9840 C   0  0  0  0  0  0  0  0  0  0  0  0
   32.1340   28.0790   49.1960 N   0  0  0  0  0  0  0  0  0  0  0  0
   30.3880   27.0670   48.5600 H   0  0  0  0  0  0  0  0  0  0  0  0
   31.4810   25.9450   46.7020 H   0  0  0  0  0  0  0  0  0  0  0  0
   34.0550   26.1850   46.0310 N   0  0  0  0  0  0  0  0  0  0  0  0
   34.2330   26.8050   44.8440 C   0  0  0  0  0  3  0  0  0  0  0  0
   34.8670   26.1610   43.7770 C   0  0  0  0  0  0  0  0  0  0  0  0
   35.0100   26.6590   42.8250 H   0  0  0  0  0  0  0  0  0  0  0  0
   35.2940   24.8640   44.0150 C   0  0  0  0  0  0  0  0  0  0  0  0
   35.8790   24.2340   43.0700 O   0  0  0  0  0  0  0  0  0  0  0  0
   35.0980   24.2670   45.2260 N   0  0  0  0  0  0  0  0  0  0  0  0
   34.4830   24.9230   46.2240 C   0  0  0  0  0  0  0  0  0  0  0  0
   34.3610   24.2710   47.2920 O   0  0  0  0  0  0  0  0  0  0  0  0
   35.4530   23.2700   45.3310 H   0  0  0  0  0  0  0  0  0  0  0  0
  1 22  1  0  0  0  0
  1  2  2  0  0  0  0
  2  6  1  0  0  0  0
  3  7  1  0  0  0  0
  3  2  1  0  0  0  0
  4  3  2  0  0  0  0
  5  4  1  0  0  0  0
  5  1  1  0  0  0  0
  8 17  1  0  0  0  0
  9  8  1  0  0  0  0
  9  4  1  0  0  0  0
 10  9  2  0  0  0  0
 11 15  2  0  0  0  0
 11 10  1  0  0  0  0
 12 11  1  0  0  0  0
 13 12  1  0  0  0  0
 13 14  2  0  0  0  0
 14 15  1  0  0  0  0
 15 16  1  0  0  0  0
 16 21  1  0  0  0  0
 16  8  2  0  0  0  0
 18 10  1  0  0  0  0
 19 12  1  0  0  0  0
 20 14  1  0  0  0  0
 22 23  2  0  0  0  0
 24 30  1  0  0  0  0
 24 29  1  0  0  0  0
 25 24  2  0  0  0  0
 26 25  1  0  0  0  0
 26 27  2  0  0  0  0
 27 28  1  0  0  0  0
 28 29  2  0  0  0  0
 28 22  1  0  0  0  0
 31 25  1  0  0  0  0
 32 39  1  0  0  0  0
 32 26  1  0  0  0  0
 33 32  1  0  0  0  0
 34 36  1  0  0  0  0
 34 33  2  0  0  0  0
 35 34  1  0  0  0  0
 36 38  1  0  0  0  0
 37 36  2  0  0  0  0
 38 41  1  0  0  0  0
 38 39  1  0  0  0  0
 39 40  2  0  0  0  0
M  END
>  <minimizedAffinity>
-6.64441872

>  <minimizedRMSD>
0.812020481

$$$$
