
 OpenBabel03272507333D

 37 40  0  0  1  0  0  0  0  0999 V2000
   33.1010   27.6220   48.2370 C   0  0  0  0  0  0  0  0  0  0  0  0
   31.8670   27.6030   48.5620 O   0  0  0  0  0  0  0  0  0  0  0  0
   35.9020   29.1840   49.8180 C   0  0  0  0  0  0  0  0  0  0  0  0
   34.9050   29.6370   50.6570 C   0  0  0  0  0  0  0  0  0  0  0  0
   33.6910   29.1180   50.1860 C   0  0  0  0  0  0  0  0  0  0  0  0
   34.0320   28.3740   49.0790 C   0  0  0  0  0  0  0  0  0  0  0  0
   35.3340   28.4400   48.9010 O   0  0  0  0  0  0  0  0  0  0  0  0
   34.9860   30.2830   51.5400 H   0  0  0  0  0  0  0  0  0  0  0  0
   32.7230   29.2970   50.6360 H   0  0  0  0  0  0  0  0  0  0  0  0
   37.2980   29.5320   50.0150 C   0  0  0  0  0  0  0  0  0  0  0  0
   37.9600   28.9230   50.8670 O   0  0  0  0  0  0  0  0  0  0  0  0
   37.8310   30.5850   49.1900 C   0  0  0  0  0  0  0  0  0  0  0  0
   38.1670   31.7750   49.8190 C   0  0  0  0  0  0  0  0  0  0  0  0
   38.6840   32.8150   49.0430 C   0  0  0  0  0  0  0  0  0  0  0  0
   38.8310   32.5970   47.6900 N   0  0  0  0  0  0  0  0  0  0  0  0
   38.4980   31.4400   47.1210 C   0  0  0  0  0  0  0  0  0  0  0  0
   38.0000   30.4320   47.8560 N   0  0  0  0  0  0  0  0  0  0  0  0
   38.0400   31.9130   50.8780 H   0  0  0  0  0  0  0  0  0  0  0  0
   38.9460   33.7410   49.5320 H   0  0  0  0  0  0  0  0  0  0  0  0
   38.6440   31.3510   46.0550 H   0  0  0  0  0  0  0  0  0  0  0  0
   33.5900   26.8870   47.0240 C   0  0  1  0  0  0  0  0  0  0  0  0
   33.7490   25.3510   47.3590 C   0  0  0  0  0  0  0  0  0  0  0  0
   32.7630   25.8660   46.3840 C   0  0  2  0  0  0  0  0  0  0  0  0
   34.5540   27.2590   46.6220 H   0  0  0  0  0  0  0  0  0  0  0  0
   33.4430   25.0230   48.3490 H   0  0  0  0  0  0  0  0  0  0  0  0
   34.6470   24.8620   46.9540 H   0  0  0  0  0  0  0  0  0  0  0  0
   31.7040   25.8250   46.7790 H   0  0  0  0  0  0  0  0  0  0  0  0
   32.8690   25.7000   44.9700 N   0  0  0  0  0  0  0  0  0  0  0  0
   34.0120   26.0440   44.3020 C   0  0  0  0  0  3  0  0  0  0  0  0
   34.1250   25.8890   42.9340 C   0  0  0  0  0  0  0  0  0  0  0  0
   35.0850   26.2020   42.5320 H   0  0  0  0  0  0  0  0  0  0  0  0
   33.0890   25.3780   42.1780 C   0  0  0  0  0  0  0  0  0  0  0  0
   33.3370   25.2950   40.9480 O   0  0  0  0  0  0  0  0  0  0  0  0
   31.9700   25.0420   42.8450 N   0  0  0  0  0  0  0  0  0  0  0  0
   31.9030   25.2110   44.1770 C   0  0  0  0  0  0  0  0  0  0  0  0
   30.8130   24.8620   44.6740 O   0  0  0  0  0  0  0  0  0  0  0  0
   31.2080   24.6620   42.2530 H   0  0  0  0  0  0  0  0  0  0  0  0
  1  2  2  0  0  0  0
  1  6  1  0  0  0  0
  3 10  1  0  0  0  0
  3  4  2  0  0  0  0
  4  8  1  0  0  0  0
  5  9  1  0  0  0  0
  5  4  1  0  0  0  0
  6  5  2  0  0  0  0
  7  6  1  0  0  0  0
  7  3  1  0  0  0  0
 10 11  2  0  0  0  0
 12 13  1  0  0  0  0
 12 10  1  0  0  0  0
 13 18  1  0  0  0  0
 14 19  1  0  0  0  0
 14 13  2  0  0  0  0
 15 14  1  0  0  0  0
 16 15  2  0  0  0  0
 16 17  1  0  0  0  0
 17 12  2  0  0  0  0
 20 16  1  0  0  0  0
 21 24  1  6  0  0  0
 21 22  1  0  0  0  0
 21  1  1  0  0  0  0
 22 25  1  0  0  0  0
 23 27  1  1  0  0  0
 23 21  1  0  0  0  0
 23 22  1  0  0  0  0
 26 22  1  0  0  0  0
 28 23  1  0  0  0  0
 29 28  1  0  0  0  0
 30 29  2  0  0  0  0
 31 30  1  0  0  0  0
 32 34  1  0  0  0  0
 32 30  1  0  0  0  0
 33 32  2  0  0  0  0
 34 35  1  0  0  0  0
 35 36  2  0  0  0  0
 35 28  1  0  0  0  0
 37 34  1  0  0  0  0
M  END
>  <minimizedAffinity>
-4.89259815

>  <minimizedRMSD>
0.188381135

$$$$
