
 OpenBabel03272507333D

 37 40  0  0  1  0  0  0  0  0999 V2000
   33.0080   27.7330   48.3480 C   0  0  0  0  0  0  0  0  0  0  0  0
   31.7990   27.6810   48.7530 O   0  0  0  0  0  0  0  0  0  0  0  0
   35.8990   29.2130   49.8420 C   0  0  0  0  0  0  0  0  0  0  0  0
   34.9420   29.6940   50.7120 C   0  0  0  0  0  0  0  0  0  0  0  0
   33.7000   29.2100   50.2780 C   0  0  0  0  0  0  0  0  0  0  0  0
   33.9850   28.4570   49.1610 C   0  0  0  0  0  0  0  0  0  0  0  0
   35.2830   28.4860   48.9440 O   0  0  0  0  0  0  0  0  0  0  0  0
   35.0690   30.3360   51.5910 H   0  0  0  0  0  0  0  0  0  0  0  0
   32.7520   29.4160   50.7570 H   0  0  0  0  0  0  0  0  0  0  0  0
   37.3110   29.5210   49.9960 C   0  0  0  0  0  0  0  0  0  0  0  0
   37.9860   28.8760   50.8110 O   0  0  0  0  0  0  0  0  0  0  0  0
   37.8410   30.5770   49.1740 C   0  0  0  0  0  0  0  0  0  0  0  0
   38.1840   31.7630   49.8090 C   0  0  0  0  0  0  0  0  0  0  0  0
   38.6990   32.8060   49.0370 C   0  0  0  0  0  0  0  0  0  0  0  0
   38.8380   32.5960   47.6810 N   0  0  0  0  0  0  0  0  0  0  0  0
   38.4990   31.4440   47.1070 C   0  0  0  0  0  0  0  0  0  0  0  0
   38.0030   30.4330   47.8390 N   0  0  0  0  0  0  0  0  0  0  0  0
   38.0630   31.8950   50.8700 H   0  0  0  0  0  0  0  0  0  0  0  0
   38.9660   33.7290   49.5300 H   0  0  0  0  0  0  0  0  0  0  0  0
   38.6390   31.3610   46.0400 H   0  0  0  0  0  0  0  0  0  0  0  0
   33.4220   27.0630   47.0710 C   0  0  1  0  0  0  0  0  0  0  0  0
   33.7420   25.5400   47.3480 C   0  0  0  0  0  0  0  0  0  0  0  0
   32.6170   25.9860   46.4960 C   0  0  2  0  0  0  0  0  0  0  0  0
   34.3030   27.5220   46.5790 H   0  0  0  0  0  0  0  0  0  0  0  0
   33.5720   25.1700   48.3560 H   0  0  0  0  0  0  0  0  0  0  0  0
   34.6280   25.1350   46.8370 H   0  0  0  0  0  0  0  0  0  0  0  0
   31.6140   25.8490   47.0000 H   0  0  0  0  0  0  0  0  0  0  0  0
   32.5840   25.8550   45.0750 N   0  0  0  0  0  0  0  0  0  0  0  0
   33.6380   25.3160   44.3900 C   0  0  0  0  0  3  0  0  0  0  0  0
   33.6160   25.1860   43.0160 C   0  0  0  0  0  0  0  0  0  0  0  0
   34.5170   24.7420   42.5990 H   0  0  0  0  0  0  0  0  0  0  0  0
   32.5290   25.5910   42.2690 C   0  0  0  0  0  0  0  0  0  0  0  0
   32.6520   25.4100   41.0310 O   0  0  0  0  0  0  0  0  0  0  0  0
   31.4970   26.1200   42.9530 N   0  0  0  0  0  0  0  0  0  0  0  0
   31.5610   26.2280   44.2910 C   0  0  0  0  0  0  0  0  0  0  0  0
   30.5410   26.7330   44.8020 O   0  0  0  0  0  0  0  0  0  0  0  0
   30.6930   26.4170   42.3670 H   0  0  0  0  0  0  0  0  0  0  0  0
  1  2  2  0  0  0  0
  1  6  1  0  0  0  0
  3 10  1  0  0  0  0
  3  4  2  0  0  0  0
  4  8  1  0  0  0  0
  5  4  1  0  0  0  0
  5  9  1  0  0  0  0
  6  5  2  0  0  0  0
  7  6  1  0  0  0  0
  7  3  1  0  0  0  0
 10 11  2  0  0  0  0
 12 13  1  0  0  0  0
 12 10  1  0  0  0  0
 13 18  1  0  0  0  0
 14 19  1  0  0  0  0
 14 13  2  0  0  0  0
 15 14  1  0  0  0  0
 16 15  2  0  0  0  0
 16 17  1  0  0  0  0
 17 12  2  0  0  0  0
 20 16  1  0  0  0  0
 21 24  1  6  0  0  0
 21 22  1  0  0  0  0
 21  1  1  0  0  0  0
 22 25  1  0  0  0  0
 23 27  1  1  0  0  0
 23 21  1  0  0  0  0
 23 22  1  0  0  0  0
 26 22  1  0  0  0  0
 28 23  1  0  0  0  0
 29 28  1  0  0  0  0
 30 29  2  0  0  0  0
 31 30  1  0  0  0  0
 32 34  1  0  0  0  0
 32 30  1  0  0  0  0
 33 32  2  0  0  0  0
 34 35  1  0  0  0  0
 35 36  2  0  0  0  0
 35 28  1  0  0  0  0
 37 34  1  0  0  0  0
M  END
>  <minimizedAffinity>
-4.88086605

>  <minimizedRMSD>
0.840986371

$$$$
