
 OpenBabel03272508593D

 41 44  0  0  1  0  0  0  0  0999 V2000
   36.0580   23.5700   31.4990 C   0  0  0  0  0  0  0  0  0  0  0  0
   35.3740   22.4920   31.0050 C   0  0  0  0  0  0  0  0  0  0  0  0
   35.7550   21.2370   31.4680 C   0  0  0  0  0  0  0  0  0  0  0  0
   36.7840   21.1620   32.3830 C   0  0  0  0  0  0  0  0  0  0  0  0
   37.4670   22.2560   32.8740 C   0  0  0  0  0  0  0  0  0  0  0  0
   37.0680   23.4650   32.4010 N   0  0  0  0  0  0  0  0  0  0  0  0
   34.5670   22.5740   30.2860 H   0  0  0  0  0  0  0  0  0  0  0  0
   35.2660   20.3520   31.1270 H   0  0  0  0  0  0  0  0  0  0  0  0
   37.0540   20.1760   32.7210 H   0  0  0  0  0  0  0  0  0  0  0  0
   35.6820   24.9300   31.0420 C   0  0  0  0  0  0  0  0  0  0  0  0
   34.5120   25.2500   30.8070 O   0  0  0  0  0  0  0  0  0  0  0  0
   36.7640   25.8910   30.8770 N   0  0  0  0  0  0  0  0  0  0  0  0
   37.7700   25.6360   30.8490 H   0  0  0  0  0  0  0  0  0  0  0  0
   36.2920   28.1140   31.8980 C   0  0  2  0  0  0  0  0  0  0  0  0
   37.5560   28.2470   31.1280 C   0  0  0  0  0  0  0  0  0  0  0  0
   36.4040   27.2840   30.7440 C   0  0  1  0  0  0  0  0  0  0  0  0
   36.4570   27.7080   32.9200 H   0  0  0  0  0  0  0  0  0  0  0  0
   37.7070   29.1340   30.4750 H   0  0  0  0  0  0  0  0  0  0  0  0
   38.4840   27.8130   31.4980 H   0  0  0  0  0  0  0  0  0  0  0  0
   35.8670   27.5850   29.7930 H   0  0  0  0  0  0  0  0  0  0  0  0
   34.6240   31.3390   31.1160 C   0  0  0  0  0  0  0  0  0  0  0  0
   33.4310   31.2440   31.8870 C   0  0  0  0  0  0  0  0  0  0  0  0
   33.2210   30.0580   32.6810 C   0  0  0  0  0  0  0  0  0  0  0  0
   34.1700   29.0620   32.6690 N   0  0  0  0  0  0  0  0  0  0  0  0
   35.2840   29.2370   31.9020 C   0  0  0  0  0  0  0  0  0  0  0  0
   35.5460   30.3540   31.1150 N   0  0  0  0  0  0  0  0  0  0  0  0
   34.7610   32.2260   30.5350 H   0  0  0  0  0  0  0  0  0  0  0  0
   32.6960   32.0090   31.8970 H   0  0  0  0  0  0  0  0  0  0  0  0
   32.3180   29.9780   33.2680 H   0  0  0  0  0  0  0  0  0  0  0  0
   38.5500   22.1090   33.8290 C   0  0  0  0  0  0  0  0  0  0  0  0
   39.6180   21.5620   33.4870 O   0  0  0  0  0  0  0  0  0  0  0  0
   36.6340   22.1480   37.9400 H   0  0  0  0  0  0  0  0  0  0  0  0
   37.2600   22.6100   37.2440 N   0  0  0  0  0  0  0  0  0  0  0  0
   37.4300   21.9930   36.0410 C   0  0  0  0  0  3  0  0  0  0  0  0
   38.2670   22.6420   35.1550 C   0  0  0  0  0  0  0  0  0  0  0  0
   38.9030   23.8360   35.4360 C   0  0  0  0  0  0  0  0  0  0  0  0
   39.6550   24.4210   34.6420 O   0  0  0  0  0  0  0  0  0  0  0  0
   38.7000   24.4130   36.6560 N   0  0  0  0  0  0  0  0  0  0  0  0
   37.8760   23.7740   37.5290 C   0  0  0  0  0  0  0  0  0  0  0  0
   37.7270   24.3550   38.6350 O   0  0  0  0  0  0  0  0  0  0  0  0
   39.1740   25.3100   36.8740 H   0  0  0  0  0  0  0  0  0  0  0  0
  1  6  1  0  0  0  0
  2  3  1  0  0  0  0
  2  1  2  0  0  0  0
  3  4  2  0  0  0  0
  4  9  1  0  0  0  0
  4  5  1  0  0  0  0
  5 30  1  0  0  0  0
  6  5  2  0  0  0  0
  7  2  1  0  0  0  0
  8  3  1  0  0  0  0
 10  1  1  0  0  0  0
 11 10  2  0  0  0  0
 12 10  1  0  0  0  0
 13 12  1  0  0  0  0
 14 25  1  0  0  0  0
 14 17  1  1  0  0  0
 15 19  1  0  0  0  0
 15 14  1  0  0  0  0
 16 20  1  6  0  0  0
 16 12  1  0  0  0  0
 16 15  1  0  0  0  0
 16 14  1  0  0  0  0
 18 15  1  0  0  0  0
 21 22  1  0  0  0  0
 22 28  1  0  0  0  0
 22 23  2  0  0  0  0
 23 29  1  0  0  0  0
 24 23  1  0  0  0  0
 25 24  2  0  0  0  0
 26 21  2  0  0  0  0
 26 25  1  0  0  0  0
 27 21  1  0  0  0  0
 30 35  1  0  0  0  0
 31 30  2  0  0  0  0
 33 39  1  0  0  0  0
 33 32  1  0  0  0  0
 34 33  1  0  0  0  0
 35 36  1  0  0  0  0
 35 34  2  0  0  0  0
 36 38  1  0  0  0  0
 37 36  2  0  0  0  0
 38 41  1  0  0  0  0
 38 39  1  0  0  0  0
 39 40  2  0  0  0  0
M  END
>  <minimizedAffinity>
-6.25348234

$$$$

 OpenBabel03272508593D

 41 44  0  0  1  0  0  0  0  0999 V2000
   36.9730   24.9840   32.5080 C   0  0  0  0  0  0  0  0  0  0  0  0
   36.9740   23.7180   31.9880 C   0  0  0  0  0  0  0  0  0  0  0  0
   37.5900   22.7260   32.7430 C   0  0  0  0  0  0  0  0  0  0  0  0
   38.1540   23.0790   33.9510 C   0  0  0  0  0  0  0  0  0  0  0  0
   38.1480   24.3600   34.4660 C   0  0  0  0  0  0  0  0  0  0  0  0
   37.5370   25.3020   33.7030 N   0  0  0  0  0  0  0  0  0  0  0  0
   36.5250   23.4630   31.0350 H   0  0  0  0  0  0  0  0  0  0  0  0
   37.6290   21.7160   32.4000 H   0  0  0  0  0  0  0  0  0  0  0  0
   38.6230   22.2880   34.5120 H   0  0  0  0  0  0  0  0  0  0  0  0
   36.3200   26.0740   31.7430 C   0  0  0  0  0  0  0  0  0  0  0  0
   35.5720   25.8550   30.7840 O   0  0  0  0  0  0  0  0  0  0  0  0
   36.5990   27.4370   32.1730 N   0  0  0  0  0  0  0  0  0  0  0  0
   37.3690   27.6990   32.8190 H   0  0  0  0  0  0  0  0  0  0  0  0
   35.3090   29.5420   32.5160 C   0  0  2  0  0  0  0  0  0  0  0  0
   36.4450   29.8690   31.6150 C   0  0  0  0  0  0  0  0  0  0  0  0
   35.7450   28.4860   31.6620 C   0  0  1  0  0  0  0  0  0  0  0  0
   35.5950   29.5720   33.5900 H   0  0  0  0  0  0  0  0  0  0  0  0
   36.2640   30.4910   30.7120 H   0  0  0  0  0  0  0  0  0  0  0  0
   37.4600   29.9410   32.0000 H   0  0  0  0  0  0  0  0  0  0  0  0
   35.1520   28.2520   30.7260 H   0  0  0  0  0  0  0  0  0  0  0  0
   32.6040   31.6280   31.0570 C   0  0  0  0  0  0  0  0  0  0  0  0
   31.4840   31.2470   31.8500 C   0  0  0  0  0  0  0  0  0  0  0  0
   31.6830   30.2710   32.8920 C   0  0  0  0  0  0  0  0  0  0  0  0
   32.9370   29.7400   33.0890 N   0  0  0  0  0  0  0  0  0  0  0  0
   33.9530   30.1620   32.2840 C   0  0  0  0  0  0  0  0  0  0  0  0
   33.8290   31.0980   31.2630 N   0  0  0  0  0  0  0  0  0  0  0  0
   32.4370   32.3530   30.2900 H   0  0  0  0  0  0  0  0  0  0  0  0
   30.5150   31.6540   31.7000 H   0  0  0  0  0  0  0  0  0  0  0  0
   30.8370   29.9770   33.4970 H   0  0  0  0  0  0  0  0  0  0  0  0
   38.7680   24.6690   35.7410 C   0  0  0  0  0  0  0  0  0  0  0  0
   38.4670   25.7160   36.3480 O   0  0  0  0  0  0  0  0  0  0  0  0
   42.6750   22.3660   35.7010 H   0  0  0  0  0  0  0  0  0  0  0  0
   41.7420   22.5300   36.1390 N   0  0  0  0  0  0  0  0  0  0  0  0
   40.9500   23.4950   35.5930 C   0  0  0  0  0  3  0  0  0  0  0  0
   39.7270   23.6750   36.2070 C   0  0  0  0  0  0  0  0  0  0  0  0
   39.3020   22.9440   37.2990 C   0  0  0  0  0  0  0  0  0  0  0  0
   38.2040   23.1040   37.8520 O   0  0  0  0  0  0  0  0  0  0  0  0
   40.1330   21.9890   37.8090 N   0  0  0  0  0  0  0  0  0  0  0  0
   41.3390   21.8110   37.2050 C   0  0  0  0  0  0  0  0  0  0  0  0
   42.0590   20.9160   37.7190 O   0  0  0  0  0  0  0  0  0  0  0  0
   39.8210   21.4350   38.6290 H   0  0  0  0  0  0  0  0  0  0  0  0
  1  6  1  0  0  0  0
  2  1  2  0  0  0  0
  2  3  1  0  0  0  0
  3  4  2  0  0  0  0
  4  5  1  0  0  0  0
  4  9  1  0  0  0  0
  5 30  1  0  0  0  0
  6  5  2  0  0  0  0
  7  2  1  0  0  0  0
  8  3  1  0  0  0  0
 10 12  1  0  0  0  0
 10  1  1  0  0  0  0
 11 10  2  0  0  0  0
 12 13  1  0  0  0  0
 14 17  1  1  0  0  0
 15 16  1  0  0  0  0
 15 19  1  0  0  0  0
 15 14  1  0  0  0  0
 16 20  1  6  0  0  0
 16 12  1  0  0  0  0
 16 14  1  0  0  0  0
 18 15  1  0  0  0  0
 21 26  2  0  0  0  0
 21 22  1  0  0  0  0
 22 23  2  0  0  0  0
 23 24  1  0  0  0  0
 23 29  1  0  0  0  0
 25 14  1  0  0  0  0
 25 24  2  0  0  0  0
 26 25  1  0  0  0  0
 27 21  1  0  0  0  0
 28 22  1  0  0  0  0
 30 35  1  0  0  0  0
 30 31  2  0  0  0  0
 32 33  1  0  0  0  0
 33 39  1  0  0  0  0
 34 33  1  0  0  0  0
 34 35  2  0  0  0  0
 35 36  1  0  0  0  0
 36 38  1  0  0  0  0
 36 37  2  0  0  0  0
 38 41  1  0  0  0  0
 39 40  2  0  0  0  0
 39 38  1  0  0  0  0
M  END
>  <minimizedAffinity>
-6.07198381

$$$$

 OpenBabel03272508593D

 41 44  0  0  1  0  0  0  0  0999 V2000
   36.6930   25.5170   32.1100 C   0  0  0  0  0  0  0  0  0  0  0  0
   35.8190   25.2290   31.0970 C   0  0  0  0  0  0  0  0  0  0  0  0
   35.5720   23.8850   30.8400 C   0  0  0  0  0  0  0  0  0  0  0  0
   36.2150   22.9420   31.6140 C   0  0  0  0  0  0  0  0  0  0  0  0
   37.0950   23.2440   32.6330 C   0  0  0  0  0  0  0  0  0  0  0  0
   37.3120   24.5650   32.8560 N   0  0  0  0  0  0  0  0  0  0  0  0
   35.3250   25.9870   30.5000 H   0  0  0  0  0  0  0  0  0  0  0  0
   34.9010   23.5860   30.0650 H   0  0  0  0  0  0  0  0  0  0  0  0
   36.0010   21.9100   31.3900 H   0  0  0  0  0  0  0  0  0  0  0  0
   36.9820   26.9370   32.4270 C   0  0  0  0  0  0  0  0  0  0  0  0
   38.0990   27.3200   32.7910 O   0  0  0  0  0  0  0  0  0  0  0  0
   35.8790   27.8780   32.2920 N   0  0  0  0  0  0  0  0  0  0  0  0
   34.8830   27.5990   32.2020 H   0  0  0  0  0  0  0  0  0  0  0  0
   35.7800   30.1180   31.2050 C   0  0  2  0  0  0  0  0  0  0  0  0
   34.9550   30.1950   32.4390 C   0  0  0  0  0  0  0  0  0  0  0  0
   36.2020   29.2870   32.2850 C   0  0  1  0  0  0  0  0  0  0  0  0
   35.2170   29.7020   30.3420 H   0  0  0  0  0  0  0  0  0  0  0  0
   35.0560   31.0760   33.1100 H   0  0  0  0  0  0  0  0  0  0  0  0
   33.9770   29.7180   32.4880 H   0  0  0  0  0  0  0  0  0  0  0  0
   37.0760   29.6150   32.9250 H   0  0  0  0  0  0  0  0  0  0  0  0
   38.1690   32.2180   29.2870 C   0  0  0  0  0  0  0  0  0  0  0  0
   38.1700   33.4230   30.0450 C   0  0  0  0  0  0  0  0  0  0  0  0
   37.3430   33.4910   31.2240 C   0  0  0  0  0  0  0  0  0  0  0  0
   36.5830   32.4010   31.5790 N   0  0  0  0  0  0  0  0  0  0  0  0
   36.6430   31.2860   30.7960 C   0  0  0  0  0  0  0  0  0  0  0  0
   37.4190   31.1560   29.6480 N   0  0  0  0  0  0  0  0  0  0  0  0
   38.7890   32.1870   28.4170 H   0  0  0  0  0  0  0  0  0  0  0  0
   38.7540   34.2670   29.7730 H   0  0  0  0  0  0  0  0  0  0  0  0
   37.3380   34.4030   31.8040 H   0  0  0  0  0  0  0  0  0  0  0  0
   37.7480   22.2030   33.4050 C   0  0  0  0  0  0  0  0  0  0  0  0
   38.8700   21.7780   33.0620 O   0  0  0  0  0  0  0  0  0  0  0  0
   34.5580   19.7980   35.5530 H   0  0  0  0  0  0  0  0  0  0  0  0
   35.3440   20.4840   35.6050 N   0  0  0  0  0  0  0  0  0  0  0  0
   35.9590   20.8280   34.4390 C   0  0  0  0  0  3  0  0  0  0  0  0
   36.9910   21.7360   34.5600 C   0  0  0  0  0  0  0  0  0  0  0  0
   37.3970   22.2810   35.7630 C   0  0  0  0  0  0  0  0  0  0  0  0
   38.3240   23.0980   35.8730 O   0  0  0  0  0  0  0  0  0  0  0  0
   36.7480   21.9040   36.9020 N   0  0  0  0  0  0  0  0  0  0  0  0
   35.7310   21.0080   36.7850 C   0  0  0  0  0  0  0  0  0  0  0  0
   35.1710   20.7010   37.8680 O   0  0  0  0  0  0  0  0  0  0  0  0
   37.0470   22.3090   37.8100 H   0  0  0  0  0  0  0  0  0  0  0  0
  1 10  1  0  0  0  0
  1  6  1  0  0  0  0
  2  1  2  0  0  0  0
  3  2  1  0  0  0  0
  3  4  2  0  0  0  0
  4  5  1  0  0  0  0
  5  6  2  0  0  0  0
  5 30  1  0  0  0  0
  7  2  1  0  0  0  0
  8  3  1  0  0  0  0
  9  4  1  0  0  0  0
 10 11  2  0  0  0  0
 12 10  1  0  0  0  0
 13 12  1  0  0  0  0
 14 17  1  6  0  0  0
 14 16  1  0  0  0  0
 14 15  1  0  0  0  0
 15 19  1  0  0  0  0
 15 18  1  0  0  0  0
 16 12  1  0  0  0  0
 16 15  1  0  0  0  0
 16 20  1  1  0  0  0
 21 26  2  0  0  0  0
 21 22  1  0  0  0  0
 22 23  2  0  0  0  0
 23 24  1  0  0  0  0
 23 29  1  0  0  0  0
 25 14  1  0  0  0  0
 25 24  2  0  0  0  0
 26 25  1  0  0  0  0
 27 21  1  0  0  0  0
 28 22  1  0  0  0  0
 30 35  1  0  0  0  0
 31 30  2  0  0  0  0
 32 33  1  0  0  0  0
 33 39  1  0  0  0  0
 34 35  2  0  0  0  0
 34 33  1  0  0  0  0
 35 36  1  0  0  0  0
 36 37  2  0  0  0  0
 36 38  1  0  0  0  0
 38 41  1  0  0  0  0
 39 38  1  0  0  0  0
 39 40  2  0  0  0  0
M  END
>  <minimizedAffinity>
-5.90342283

$$$$

 OpenBabel03272508593D

 41 44  0  0  1  0  0  0  0  0999 V2000
   39.0410   26.2880   33.5720 C   0  0  0  0  0  0  0  0  0  0  0  0
   40.1210   27.1270   33.5190 C   0  0  0  0  0  0  0  0  0  0  0  0
   41.2570   26.7380   34.2210 C   0  0  0  0  0  0  0  0  0  0  0  0
   41.2210   25.5480   34.9150 C   0  0  0  0  0  0  0  0  0  0  0  0
   40.1260   24.7090   34.9620 C   0  0  0  0  0  0  0  0  0  0  0  0
   39.0350   25.1200   34.2650 N   0  0  0  0  0  0  0  0  0  0  0  0
   40.1270   28.0600   32.9670 H   0  0  0  0  0  0  0  0  0  0  0  0
   42.1360   27.3430   34.2250 H   0  0  0  0  0  0  0  0  0  0  0  0
   42.1170   25.2750   35.4480 H   0  0  0  0  0  0  0  0  0  0  0  0
   37.8090   26.6560   32.8320 C   0  0  0  0  0  0  0  0  0  0  0  0
   36.7520   26.0280   32.9510 O   0  0  0  0  0  0  0  0  0  0  0  0
   37.8960   27.8050   31.9420 N   0  0  0  0  0  0  0  0  0  0  0  0
   38.7890   28.2380   31.6340 H   0  0  0  0  0  0  0  0  0  0  0  0
   36.2330   29.6610   31.9000 C   0  0  2  0  0  0  0  0  0  0  0  0
   36.8670   29.6130   30.5570 C   0  0  0  0  0  0  0  0  0  0  0  0
   36.6560   28.3710   31.4610 C   0  0  1  0  0  0  0  0  0  0  0  0
   36.8300   30.2460   32.6320 H   0  0  0  0  0  0  0  0  0  0  0  0
   36.2300   29.6870   29.6490 H   0  0  0  0  0  0  0  0  0  0  0  0
   37.8850   29.9700   30.4070 H   0  0  0  0  0  0  0  0  0  0  0  0
   35.8870   27.6470   31.0530 H   0  0  0  0  0  0  0  0  0  0  0  0
   32.7040   29.4500   33.0410 C   0  0  0  0  0  0  0  0  0  0  0  0
   32.0940   30.4970   32.2920 C   0  0  0  0  0  0  0  0  0  0  0  0
   32.9180   31.2630   31.3900 C   0  0  0  0  0  0  0  0  0  0  0  0
   34.2560   30.9640   31.2790 N   0  0  0  0  0  0  0  0  0  0  0  0
   34.7570   29.9440   32.0330 C   0  0  0  0  0  0  0  0  0  0  0  0
   34.0190   29.1690   32.9210 N   0  0  0  0  0  0  0  0  0  0  0  0
   32.0770   28.8940   33.7040 H   0  0  0  0  0  0  0  0  0  0  0  0
   31.0620   30.7310   32.3760 H   0  0  0  0  0  0  0  0  0  0  0  0
   32.4620   32.0590   30.8190 H   0  0  0  0  0  0  0  0  0  0  0  0
   40.1480   23.4720   35.7210 C   0  0  0  0  0  0  0  0  0  0  0  0
   41.2140   23.0640   36.2230 O   0  0  0  0  0  0  0  0  0  0  0  0
   36.7290   20.8570   34.2910 H   0  0  0  0  0  0  0  0  0  0  0  0
   37.1410   21.4540   35.0420 N   0  0  0  0  0  0  0  0  0  0  0  0
   38.3570   22.0200   34.8020 C   0  0  0  0  0  3  0  0  0  0  0  0
   38.8600   22.7990   35.8250 C   0  0  0  0  0  0  0  0  0  0  0  0
   38.2020   23.0130   37.0200 C   0  0  0  0  0  0  0  0  0  0  0  0
   38.6510   23.7130   37.9410 O   0  0  0  0  0  0  0  0  0  0  0  0
   36.9860   22.4230   37.2120 N   0  0  0  0  0  0  0  0  0  0  0  0
   36.4900   21.6550   36.2050 C   0  0  0  0  0  0  0  0  0  0  0  0
   35.3670   21.1390   36.4400 O   0  0  0  0  0  0  0  0  0  0  0  0
   36.4860   22.5790   38.1080 H   0  0  0  0  0  0  0  0  0  0  0  0
  1  6  1  0  0  0  0
  2  1  2  0  0  0  0
  2  3  1  0  0  0  0
  3  8  1  0  0  0  0
  3  4  2  0  0  0  0
  4  5  1  0  0  0  0
  4  9  1  0  0  0  0
  5 30  1  0  0  0  0
  6  5  2  0  0  0  0
  7  2  1  0  0  0  0
 10 11  2  0  0  0  0
 10  1  1  0  0  0  0
 12 10  1  0  0  0  0
 13 12  1  0  0  0  0
 14 25  1  0  0  0  0
 14 17  1  1  0  0  0
 15 16  1  0  0  0  0
 15 14  1  0  0  0  0
 16 20  1  6  0  0  0
 16 14  1  0  0  0  0
 16 12  1  0  0  0  0
 18 15  1  0  0  0  0
 19 15  1  0  0  0  0
 21 27  1  0  0  0  0
 22 28  1  0  0  0  0
 22 21  2  0  0  0  0
 23 22  1  0  0  0  0
 24 23  2  0  0  0  0
 24 25  1  0  0  0  0
 25 26  2  0  0  0  0
 26 21  1  0  0  0  0
 29 23  1  0  0  0  0
 30 35  1  0  0  0  0
 30 31  2  0  0  0  0
 32 33  1  0  0  0  0
 33 39  1  0  0  0  0
 34 33  1  0  0  0  0
 34 35  2  0  0  0  0
 35 36  1  0  0  0  0
 36 38  1  0  0  0  0
 36 37  2  0  0  0  0
 38 41  1  0  0  0  0
 39 40  2  0  0  0  0
 39 38  1  0  0  0  0
M  END
>  <minimizedAffinity>
-5.89249945

$$$$

 OpenBabel03272508593D

 41 44  0  0  1  0  0  0  0  0999 V2000
   36.3470   25.7760   31.7990 C   0  0  0  0  0  0  0  0  0  0  0  0
   35.4810   25.0050   31.0710 C   0  0  0  0  0  0  0  0  0  0  0  0
   35.6570   23.6280   31.1350 C   0  0  0  0  0  0  0  0  0  0  0  0
   36.6800   23.1340   31.9160 C   0  0  0  0  0  0  0  0  0  0  0  0
   37.5480   23.9210   32.6450 C   0  0  0  0  0  0  0  0  0  0  0  0
   37.3470   25.2610   32.5610 N   0  0  0  0  0  0  0  0  0  0  0  0
   34.6820   25.4150   30.4630 H   0  0  0  0  0  0  0  0  0  0  0  0
   35.0180   22.9650   30.5940 H   0  0  0  0  0  0  0  0  0  0  0  0
   36.7890   22.0630   31.9440 H   0  0  0  0  0  0  0  0  0  0  0  0
   36.1930   27.2510   31.7700 C   0  0  0  0  0  0  0  0  0  0  0  0
   36.0930   27.8870   30.7150 O   0  0  0  0  0  0  0  0  0  0  0  0
   36.1650   27.9340   33.0560 N   0  0  0  0  0  0  0  0  0  0  0  0
   36.4530   27.4980   33.9540 H   0  0  0  0  0  0  0  0  0  0  0  0
   34.4570   29.6390   33.6780 C   0  0  2  0  0  0  0  0  0  0  0  0
   35.6650   29.9120   34.4990 C   0  0  0  0  0  0  0  0  0  0  0  0
   35.7050   29.3040   33.0740 C   0  0  1  0  0  0  0  0  0  0  0  0
   33.8050   28.8590   34.1260 H   0  0  0  0  0  0  0  0  0  0  0  0
   36.0260   30.9570   34.6090 H   0  0  0  0  0  0  0  0  0  0  0  0
   35.9280   29.2690   35.3370 H   0  0  0  0  0  0  0  0  0  0  0  0
   36.1500   30.0030   32.3020 H   0  0  0  0  0  0  0  0  0  0  0  0
   32.1740   31.5780   31.4810 C   0  0  0  0  0  0  0  0  0  0  0  0
   32.1620   32.8490   32.1250 C   0  0  0  0  0  0  0  0  0  0  0  0
   32.9560   33.0210   33.3160 C   0  0  0  0  0  0  0  0  0  0  0  0
   33.6960   31.9630   33.7920 N   0  0  0  0  0  0  0  0  0  0  0  0
   33.6500   30.7820   33.1130 C   0  0  0  0  0  0  0  0  0  0  0  0
   32.9050   30.5500   31.9610 N   0  0  0  0  0  0  0  0  0  0  0  0
   31.5790   31.4710   30.6000 H   0  0  0  0  0  0  0  0  0  0  0  0
   31.5910   33.6670   31.7600 H   0  0  0  0  0  0  0  0  0  0  0  0
   32.9510   33.9820   33.8100 H   0  0  0  0  0  0  0  0  0  0  0  0
   38.6140   23.3400   33.4410 C   0  0  0  0  0  0  0  0  0  0  0  0
   39.6850   22.9980   32.9010 O   0  0  0  0  0  0  0  0  0  0  0  0
   36.8500   21.3570   37.1190 H   0  0  0  0  0  0  0  0  0  0  0  0
   37.3870   22.1510   36.7060 N   0  0  0  0  0  0  0  0  0  0  0  0
   37.5940   22.1390   35.3590 C   0  0  0  0  0  3  0  0  0  0  0  0
   38.3100   23.2090   34.8600 C   0  0  0  0  0  0  0  0  0  0  0  0
   38.7960   24.2380   35.6430 C   0  0  0  0  0  0  0  0  0  0  0  0
   39.4390   25.2010   35.1970 O   0  0  0  0  0  0  0  0  0  0  0  0
   38.5620   24.2030   36.9870 N   0  0  0  0  0  0  0  0  0  0  0  0
   37.8570   23.1490   37.4790 C   0  0  0  0  0  0  0  0  0  0  0  0
   37.6730   23.1740   38.7240 O   0  0  0  0  0  0  0  0  0  0  0  0
   38.9230   24.9730   37.5820 H   0  0  0  0  0  0  0  0  0  0  0  0
  1  6  1  0  0  0  0
  2  3  1  0  0  0  0
  2  1  2  0  0  0  0
  3  4  2  0  0  0  0
  4  9  1  0  0  0  0
  4  5  1  0  0  0  0
  5 30  1  0  0  0  0
  6  5  2  0  0  0  0
  7  2  1  0  0  0  0
  8  3  1  0  0  0  0
 10  1  1  0  0  0  0
 10 12  1  0  0  0  0
 11 10  2  0  0  0  0
 12 16  1  0  0  0  0
 12 13  1  0  0  0  0
 14 17  1  1  0  0  0
 14 15  1  0  0  0  0
 15 18  1  0  0  0  0
 15 19  1  0  0  0  0
 16 20  1  6  0  0  0
 16 14  1  0  0  0  0
 16 15  1  0  0  0  0
 21 26  2  0  0  0  0
 21 22  1  0  0  0  0
 22 23  2  0  0  0  0
 23 24  1  0  0  0  0
 23 29  1  0  0  0  0
 25 14  1  0  0  0  0
 25 24  2  0  0  0  0
 26 25  1  0  0  0  0
 27 21  1  0  0  0  0
 28 22  1  0  0  0  0
 30 35  1  0  0  0  0
 31 30  2  0  0  0  0
 33 32  1  0  0  0  0
 33 39  1  0  0  0  0
 34 33  1  0  0  0  0
 35 34  2  0  0  0  0
 35 36  1  0  0  0  0
 36 38  1  0  0  0  0
 37 36  2  0  0  0  0
 38 39  1  0  0  0  0
 38 41  1  0  0  0  0
 39 40  2  0  0  0  0
M  END
>  <minimizedAffinity>
-5.80713272

$$$$

 OpenBabel03272508593D

 41 44  0  0  1  0  0  0  0  0999 V2000
   36.2120   26.5080   31.9680 C   0  0  0  0  0  0  0  0  0  0  0  0
   35.3940   25.7650   31.1600 C   0  0  0  0  0  0  0  0  0  0  0  0
   35.6430   24.3980   31.0960 C   0  0  0  0  0  0  0  0  0  0  0  0
   36.6850   23.8880   31.8400 C   0  0  0  0  0  0  0  0  0  0  0  0
   37.5050   24.6470   32.6500 C   0  0  0  0  0  0  0  0  0  0  0  0
   37.2320   25.9760   32.6900 N   0  0  0  0  0  0  0  0  0  0  0  0
   34.5800   26.1880   30.5830 H   0  0  0  0  0  0  0  0  0  0  0  0
   35.0450   23.7570   30.4860 H   0  0  0  0  0  0  0  0  0  0  0  0
   36.8520   22.8260   31.7680 H   0  0  0  0  0  0  0  0  0  0  0  0
   35.9800   27.9690   32.0770 C   0  0  0  0  0  0  0  0  0  0  0  0
   35.8770   28.6990   31.0850 O   0  0  0  0  0  0  0  0  0  0  0  0
   35.8760   28.5200   33.4210 N   0  0  0  0  0  0  0  0  0  0  0  0
   36.1610   28.0130   34.2820 H   0  0  0  0  0  0  0  0  0  0  0  0
   34.3120   30.1300   34.5010 C   0  0  2  0  0  0  0  0  0  0  0  0
   35.6870   30.5130   34.9160 C   0  0  0  0  0  0  0  0  0  0  0  0
   35.3430   29.8560   33.5550 C   0  0  1  0  0  0  0  0  0  0  0  0
   33.8840   29.3260   35.1370 H   0  0  0  0  0  0  0  0  0  0  0  0
   35.9860   31.5830   34.8960 H   0  0  0  0  0  0  0  0  0  0  0  0
   36.2350   29.9190   35.6460 H   0  0  0  0  0  0  0  0  0  0  0  0
   35.4840   30.5540   32.6740 H   0  0  0  0  0  0  0  0  0  0  0  0
   31.1130   31.7550   33.5410 C   0  0  0  0  0  0  0  0  0  0  0  0
   31.4400   33.1360   33.6630 C   0  0  0  0  0  0  0  0  0  0  0  0
   32.7770   33.4890   34.0720 C   0  0  0  0  0  0  0  0  0  0  0  0
   33.6890   32.4920   34.3310 N   0  0  0  0  0  0  0  0  0  0  0  0
   33.2910   31.1960   34.1880 C   0  0  0  0  0  0  0  0  0  0  0  0
   32.0190   30.7880   33.7980 N   0  0  0  0  0  0  0  0  0  0  0  0
   30.1170   31.5140   33.2370 H   0  0  0  0  0  0  0  0  0  0  0  0
   30.7390   33.9080   33.4650 H   0  0  0  0  0  0  0  0  0  0  0  0
   33.0330   34.5350   34.1670 H   0  0  0  0  0  0  0  0  0  0  0  0
   38.5940   24.0490   33.4010 C   0  0  0  0  0  0  0  0  0  0  0  0
   39.6500   23.7230   32.8230 O   0  0  0  0  0  0  0  0  0  0  0  0
   38.2830   25.3820   37.7260 H   0  0  0  0  0  0  0  0  0  0  0  0
   38.1900   24.6190   37.0190 N   0  0  0  0  0  0  0  0  0  0  0  0
   38.4700   24.9230   35.7210 C   0  0  0  0  0  3  0  0  0  0  0  0
   38.3310   23.8830   34.8250 C   0  0  0  0  0  0  0  0  0  0  0  0
   37.9380   22.6080   35.1850 C   0  0  0  0  0  0  0  0  0  0  0  0
   37.8130   21.6710   34.3820 O   0  0  0  0  0  0  0  0  0  0  0  0
   37.6680   22.3540   36.4990 N   0  0  0  0  0  0  0  0  0  0  0  0
   37.8050   23.3800   37.3820 C   0  0  0  0  0  0  0  0  0  0  0  0
   37.5440   23.0840   38.5770 O   0  0  0  0  0  0  0  0  0  0  0  0
   37.3730   21.3990   36.7770 H   0  0  0  0  0  0  0  0  0  0  0  0
  1 10  1  0  0  0  0
  1  6  1  0  0  0  0
  2  1  2  0  0  0  0
  3  2  1  0  0  0  0
  3  4  2  0  0  0  0
  4  5  1  0  0  0  0
  5  6  2  0  0  0  0
  5 30  1  0  0  0  0
  7  2  1  0  0  0  0
  8  3  1  0  0  0  0
  9  4  1  0  0  0  0
 10 12  1  0  0  0  0
 11 10  2  0  0  0  0
 12 16  1  0  0  0  0
 12 13  1  0  0  0  0
 14 15  1  0  0  0  0
 14 17  1  1  0  0  0
 15 19  1  0  0  0  0
 16 20  1  6  0  0  0
 16 14  1  0  0  0  0
 16 15  1  0  0  0  0
 18 15  1  0  0  0  0
 21 22  2  0  0  0  0
 21 26  1  0  0  0  0
 22 23  1  0  0  0  0
 23 29  1  0  0  0  0
 23 24  2  0  0  0  0
 25 24  1  0  0  0  0
 25 14  1  0  0  0  0
 26 25  2  0  0  0  0
 27 21  1  0  0  0  0
 28 22  1  0  0  0  0
 30 35  1  0  0  0  0
 31 30  2  0  0  0  0
 33 39  1  0  0  0  0
 33 32  1  0  0  0  0
 34 33  1  0  0  0  0
 35 36  1  0  0  0  0
 35 34  2  0  0  0  0
 36 38  1  0  0  0  0
 37 36  2  0  0  0  0
 38 41  1  0  0  0  0
 38 39  1  0  0  0  0
 39 40  2  0  0  0  0
M  END
>  <minimizedAffinity>
-5.79523182

$$$$

 OpenBabel03272508593D

 41 44  0  0  1  0  0  0  0  0999 V2000
   36.9520   25.0620   32.3030 C   0  0  0  0  0  0  0  0  0  0  0  0
   36.8650   23.7540   31.9100 C   0  0  0  0  0  0  0  0  0  0  0  0
   37.4270   22.8030   32.7550 C   0  0  0  0  0  0  0  0  0  0  0  0
   38.0270   23.2350   33.9190 C   0  0  0  0  0  0  0  0  0  0  0  0
   38.1100   24.5580   34.3050 C   0  0  0  0  0  0  0  0  0  0  0  0
   37.5500   25.4580   33.4570 N   0  0  0  0  0  0  0  0  0  0  0  0
   36.3880   23.4360   30.9900 H   0  0  0  0  0  0  0  0  0  0  0  0
   37.3960   21.7640   32.5130 H   0  0  0  0  0  0  0  0  0  0  0  0
   38.4530   22.4740   34.5510 H   0  0  0  0  0  0  0  0  0  0  0  0
   36.3590   26.1120   31.4390 C   0  0  0  0  0  0  0  0  0  0  0  0
   35.1430   26.3260   31.3960 O   0  0  0  0  0  0  0  0  0  0  0  0
   37.2820   26.8940   30.6280 N   0  0  0  0  0  0  0  0  0  0  0  0
   38.2720   26.6310   30.4550 H   0  0  0  0  0  0  0  0  0  0  0  0
   37.2670   29.3800   30.4580 C   0  0  2  0  0  0  0  0  0  0  0  0
   37.8450   28.8590   29.1910 C   0  0  0  0  0  0  0  0  0  0  0  0
   36.7790   28.1100   30.0300 C   0  0  1  0  0  0  0  0  0  0  0  0
   38.0230   29.4650   31.2670 H   0  0  0  0  0  0  0  0  0  0  0  0
   37.5110   29.2870   28.2220 H   0  0  0  0  0  0  0  0  0  0  0  0
   38.8540   28.4510   29.1640 H   0  0  0  0  0  0  0  0  0  0  0  0
   35.7700   28.0500   29.5200 H   0  0  0  0  0  0  0  0  0  0  0  0
   35.8370   32.7030   29.6180 C   0  0  0  0  0  0  0  0  0  0  0  0
   34.6300   32.7000   30.3730 C   0  0  0  0  0  0  0  0  0  0  0  0
   34.3280   31.5400   31.1760 C   0  0  0  0  0  0  0  0  0  0  0  0
   35.2060   30.4810   31.1880 N   0  0  0  0  0  0  0  0  0  0  0  0
   36.3390   30.5700   30.4350 C   0  0  0  0  0  0  0  0  0  0  0  0
   36.6890   31.6570   29.6410 N   0  0  0  0  0  0  0  0  0  0  0  0
   36.0420   33.5720   29.0300 H   0  0  0  0  0  0  0  0  0  0  0  0
   33.9490   33.5140   30.3650 H   0  0  0  0  0  0  0  0  0  0  0  0
   33.4130   31.5300   31.7510 H   0  0  0  0  0  0  0  0  0  0  0  0
   38.7660   24.9490   35.5390 C   0  0  0  0  0  0  0  0  0  0  0  0
   38.6520   26.1150   35.9670 O   0  0  0  0  0  0  0  0  0  0  0  0
   39.4710   21.5880   38.5010 H   0  0  0  0  0  0  0  0  0  0  0  0
   39.8330   22.1790   37.7210 N   0  0  0  0  0  0  0  0  0  0  0  0
   39.0040   23.1340   37.2150 C   0  0  0  0  0  3  0  0  0  0  0  0
   39.5280   23.8890   36.1850 C   0  0  0  0  0  0  0  0  0  0  0  0
   40.8020   23.7150   35.6780 C   0  0  0  0  0  0  0  0  0  0  0  0
   41.2750   24.3910   34.7530 O   0  0  0  0  0  0  0  0  0  0  0  0
   41.5930   22.7430   36.2190 N   0  0  0  0  0  0  0  0  0  0  0  0
   41.0770   22.0000   37.2340 C   0  0  0  0  0  0  0  0  0  0  0  0
   41.8530   21.1220   37.6920 O   0  0  0  0  0  0  0  0  0  0  0  0
   42.5510   22.6070   35.8440 H   0  0  0  0  0  0  0  0  0  0  0  0
  1  6  1  0  0  0  0
  2  1  2  0  0  0  0
  2  3  1  0  0  0  0
  3  4  2  0  0  0  0
  4  5  1  0  0  0  0
  4  9  1  0  0  0  0
  5 30  1  0  0  0  0
  6  5  2  0  0  0  0
  7  2  1  0  0  0  0
  8  3  1  0  0  0  0
 10  1  1  0  0  0  0
 11 10  2  0  0  0  0
 12 10  1  0  0  0  0
 13 12  1  0  0  0  0
 14 17  1  1  0  0  0
 15 16  1  0  0  0  0
 15 14  1  0  0  0  0
 16 20  1  6  0  0  0
 16 14  1  0  0  0  0
 16 12  1  0  0  0  0
 18 15  1  0  0  0  0
 19 15  1  0  0  0  0
 21 26  2  0  0  0  0
 21 22  1  0  0  0  0
 22 23  2  0  0  0  0
 23 24  1  0  0  0  0
 23 29  1  0  0  0  0
 25 14  1  0  0  0  0
 25 24  2  0  0  0  0
 26 25  1  0  0  0  0
 27 21  1  0  0  0  0
 28 22  1  0  0  0  0
 30 31  2  0  0  0  0
 30 35  1  0  0  0  0
 33 32  1  0  0  0  0
 34 33  1  0  0  0  0
 35 34  2  0  0  0  0
 36 35  1  0  0  0  0
 36 38  1  0  0  0  0
 37 36  2  0  0  0  0
 38 39  1  0  0  0  0
 39 40  2  0  0  0  0
 39 33  1  0  0  0  0
 41 38  1  0  0  0  0
M  END
>  <minimizedAffinity>
-5.71504545

$$$$

 OpenBabel03272508593D

 41 44  0  0  1  0  0  0  0  0999 V2000
   37.3090   28.0040   32.4310 C   0  0  0  0  0  0  0  0  0  0  0  0
   37.5430   27.8770   31.0880 C   0  0  0  0  0  0  0  0  0  0  0  0
   36.8030   28.6920   30.2390 C   0  0  0  0  0  0  0  0  0  0  0  0
   35.8920   29.5630   30.7980 C   0  0  0  0  0  0  0  0  0  0  0  0
   35.6630   29.6820   32.1540 C   0  0  0  0  0  0  0  0  0  0  0  0
   36.4040   28.8720   32.9530 N   0  0  0  0  0  0  0  0  0  0  0  0
   38.2650   27.1850   30.6690 H   0  0  0  0  0  0  0  0  0  0  0  0
   36.9320   28.6480   29.1800 H   0  0  0  0  0  0  0  0  0  0  0  0
   35.3340   30.1800   30.1130 H   0  0  0  0  0  0  0  0  0  0  0  0
   38.0820   27.1630   33.3760 C   0  0  0  0  0  0  0  0  0  0  0  0
   38.3510   27.5320   34.5250 O   0  0  0  0  0  0  0  0  0  0  0  0
   38.5210   25.8620   32.8910 N   0  0  0  0  0  0  0  0  0  0  0  0
   38.5180   25.5810   31.8910 H   0  0  0  0  0  0  0  0  0  0  0  0
   38.0600   24.1810   34.6720 C   0  0  2  0  0  0  0  0  0  0  0  0
   38.6260   23.4430   33.5120 C   0  0  0  0  0  0  0  0  0  0  0  0
   38.9890   24.9080   33.8700 C   0  0  1  0  0  0  0  0  0  0  0  0
   36.9650   24.3450   34.5780 H   0  0  0  0  0  0  0  0  0  0  0  0
   39.4110   22.6760   33.6840 H   0  0  0  0  0  0  0  0  0  0  0  0
   38.0310   23.2680   32.6170 H   0  0  0  0  0  0  0  0  0  0  0  0
   40.0550   25.0280   34.2330 H   0  0  0  0  0  0  0  0  0  0  0  0
   39.9550   22.7440   37.5250 C   0  0  0  0  0  0  0  0  0  0  0  0
   39.1540   23.1390   38.6340 C   0  0  0  0  0  0  0  0  0  0  0  0
   37.9540   23.8960   38.3770 C   0  0  0  0  0  0  0  0  0  0  0  0
   37.6220   24.2140   37.0810 N   0  0  0  0  0  0  0  0  0  0  0  0
   38.4460   23.7950   36.0790 C   0  0  0  0  0  0  0  0  0  0  0  0
   39.6150   23.0630   36.2580 N   0  0  0  0  0  0  0  0  0  0  0  0
   40.8400   22.1830   37.7360 H   0  0  0  0  0  0  0  0  0  0  0  0
   39.4090   22.8970   39.6360 H   0  0  0  0  0  0  0  0  0  0  0  0
   37.3420   24.2000   39.2140 H   0  0  0  0  0  0  0  0  0  0  0  0
   34.6810   30.6120   32.6800 C   0  0  0  0  0  0  0  0  0  0  0  0
   34.8130   31.8380   32.4900 O   0  0  0  0  0  0  0  0  0  0  0  0
   30.8120   28.2890   33.1340 H   0  0  0  0  0  0  0  0  0  0  0  0
   31.6050   28.7970   33.5850 N   0  0  0  0  0  0  0  0  0  0  0  0
   32.5590   29.3280   32.7700 C   0  0  0  0  0  3  0  0  0  0  0  0
   33.5860   29.9900   33.4120 C   0  0  0  0  0  0  0  0  0  0  0  0
   33.6710   30.1240   34.7850 C   0  0  0  0  0  0  0  0  0  0  0  0
   34.5930   30.7180   35.3640 O   0  0  0  0  0  0  0  0  0  0  0  0
   32.6900   29.5730   35.5570 N   0  0  0  0  0  0  0  0  0  0  0  0
   31.6780   28.9210   34.9250 C   0  0  0  0  0  0  0  0  0  0  0  0
   30.8050   28.4360   35.6890 O   0  0  0  0  0  0  0  0  0  0  0  0
   32.7470   29.6700   36.5890 H   0  0  0  0  0  0  0  0  0  0  0  0
  1  6  1  0  0  0  0
  1 10  1  0  0  0  0
  2  1  2  0  0  0  0
  3  4  2  0  0  0  0
  3  2  1  0  0  0  0
  4  5  1  0  0  0  0
  5 30  1  0  0  0  0
  5  6  2  0  0  0  0
  7  2  1  0  0  0  0
  8  3  1  0  0  0  0
  9  4  1  0  0  0  0
 10 11  2  0  0  0  0
 12 10  1  0  0  0  0
 12 16  1  0  0  0  0
 13 12  1  0  0  0  0
 14 17  1  6  0  0  0
 14 25  1  0  0  0  0
 15 18  1  0  0  0  0
 15 16  1  0  0  0  0
 15 14  1  0  0  0  0
 16 20  1  1  0  0  0
 16 14  1  0  0  0  0
 19 15  1  0  0  0  0
 21 27  1  0  0  0  0
 21 22  1  0  0  0  0
 22 28  1  0  0  0  0
 23 22  2  0  0  0  0
 23 29  1  0  0  0  0
 24 23  1  0  0  0  0
 25 26  1  0  0  0  0
 25 24  2  0  0  0  0
 26 21  2  0  0  0  0
 30 35  1  0  0  0  0
 31 30  2  0  0  0  0
 32 33  1  0  0  0  0
 33 39  1  0  0  0  0
 34 35  2  0  0  0  0
 34 33  1  0  0  0  0
 35 36  1  0  0  0  0
 36 37  2  0  0  0  0
 36 38  1  0  0  0  0
 38 41  1  0  0  0  0
 39 38  1  0  0  0  0
 39 40  2  0  0  0  0
M  END
>  <minimizedAffinity>
-5.64141655

$$$$

 OpenBabel03272508593D

 41 44  0  0  1  0  0  0  0  0999 V2000
   36.7930   25.4650   32.1230 C   0  0  0  0  0  0  0  0  0  0  0  0
   35.7300   25.0470   31.3670 C   0  0  0  0  0  0  0  0  0  0  0  0
   35.5140   23.6760   31.2850 C   0  0  0  0  0  0  0  0  0  0  0  0
   36.3740   22.8370   31.9610 C   0  0  0  0  0  0  0  0  0  0  0  0
   37.4430   23.2690   32.7200 C   0  0  0  0  0  0  0  0  0  0  0  0
   37.6230   24.6130   32.7780 N   0  0  0  0  0  0  0  0  0  0  0  0
   35.0660   25.7250   30.8430 H   0  0  0  0  0  0  0  0  0  0  0  0
   34.7040   23.2790   30.7140 H   0  0  0  0  0  0  0  0  0  0  0  0
   36.1790   21.7810   31.8770 H   0  0  0  0  0  0  0  0  0  0  0  0
   37.0580   26.9180   32.2480 C   0  0  0  0  0  0  0  0  0  0  0  0
   38.1950   27.3940   32.1650 O   0  0  0  0  0  0  0  0  0  0  0  0
   35.9060   27.7790   32.4770 N   0  0  0  0  0  0  0  0  0  0  0  0
   34.9690   27.4350   32.7660 H   0  0  0  0  0  0  0  0  0  0  0  0
   35.8380   29.7970   31.0170 C   0  0  2  0  0  0  0  0  0  0  0  0
   34.7570   29.9520   32.0250 C   0  0  0  0  0  0  0  0  0  0  0  0
   36.0880   29.2010   32.2880 C   0  0  1  0  0  0  0  0  0  0  0  0
   35.5220   29.1870   30.1440 H   0  0  0  0  0  0  0  0  0  0  0  0
   34.6240   30.9290   32.5370 H   0  0  0  0  0  0  0  0  0  0  0  0
   33.8430   29.3650   31.9580 H   0  0  0  0  0  0  0  0  0  0  0  0
   36.7630   29.7320   33.0250 H   0  0  0  0  0  0  0  0  0  0  0  0
   37.4350   33.1510   31.0470 C   0  0  0  0  0  0  0  0  0  0  0  0
   38.1750   33.1320   29.8310 C   0  0  0  0  0  0  0  0  0  0  0  0
   38.1050   31.9510   29.0050 C   0  0  0  0  0  0  0  0  0  0  0  0
   37.3330   30.8880   29.4130 N   0  0  0  0  0  0  0  0  0  0  0  0
   36.6570   30.9920   30.5930 C   0  0  0  0  0  0  0  0  0  0  0  0
   36.6810   32.1000   31.4340 N   0  0  0  0  0  0  0  0  0  0  0  0
   37.4990   34.0350   31.6440 H   0  0  0  0  0  0  0  0  0  0  0  0
   38.7720   33.9500   29.5140 H   0  0  0  0  0  0  0  0  0  0  0  0
   38.6640   31.9290   28.0810 H   0  0  0  0  0  0  0  0  0  0  0  0
   38.3190   22.3320   33.4000 C   0  0  0  0  0  0  0  0  0  0  0  0
   38.8840   21.4230   32.7590 O   0  0  0  0  0  0  0  0  0  0  0  0
   37.0380   22.1680   37.7480 H   0  0  0  0  0  0  0  0  0  0  0  0
   37.7510   22.4480   37.0380 N   0  0  0  0  0  0  0  0  0  0  0  0
   37.4840   22.1700   35.7320 C   0  0  0  0  0  3  0  0  0  0  0  0
   38.4570   22.5590   34.8320 C   0  0  0  0  0  0  0  0  0  0  0  0
   39.6300   23.1900   35.1980 C   0  0  0  0  0  0  0  0  0  0  0  0
   40.5060   23.5410   34.3910 O   0  0  0  0  0  0  0  0  0  0  0  0
   39.8510   23.4460   36.5200 N   0  0  0  0  0  0  0  0  0  0  0  0
   38.8930   23.0620   37.4060 C   0  0  0  0  0  0  0  0  0  0  0  0
   39.1520   23.3260   38.6090 O   0  0  0  0  0  0  0  0  0  0  0  0
   40.7300   23.9190   36.8020 H   0  0  0  0  0  0  0  0  0  0  0  0
  1 10  1  0  0  0  0
  1  6  1  0  0  0  0
  2  1  2  0  0  0  0
  3  2  1  0  0  0  0
  3  4  2  0  0  0  0
  4  5  1  0  0  0  0
  5  6  2  0  0  0  0
  5 30  1  0  0  0  0
  7  2  1  0  0  0  0
  8  3  1  0  0  0  0
  9  4  1  0  0  0  0
 10 12  1  0  0  0  0
 11 10  2  0  0  0  0
 12 13  1  0  0  0  0
 14 17  1  6  0  0  0
 14 15  1  0  0  0  0
 14 16  1  0  0  0  0
 15 16  1  0  0  0  0
 15 18  1  0  0  0  0
 16 12  1  0  0  0  0
 16 20  1  1  0  0  0
 19 15  1  0  0  0  0
 21 26  1  0  0  0  0
 21 27  1  0  0  0  0
 22 21  2  0  0  0  0
 23 24  2  0  0  0  0
 23 22  1  0  0  0  0
 24 25  1  0  0  0  0
 25 14  1  0  0  0  0
 25 26  2  0  0  0  0
 28 22  1  0  0  0  0
 29 23  1  0  0  0  0
 30 35  1  0  0  0  0
 31 30  2  0  0  0  0
 33 39  1  0  0  0  0
 33 32  1  0  0  0  0
 34 33  1  0  0  0  0
 35 36  1  0  0  0  0
 35 34  2  0  0  0  0
 36 38  1  0  0  0  0
 37 36  2  0  0  0  0
 38 41  1  0  0  0  0
 38 39  1  0  0  0  0
 39 40  2  0  0  0  0
M  END
>  <minimizedAffinity>
-5.63163376

$$$$
