
 OpenBabel03262520123D

 43 45  0  0  0  0  0  0  0  0999 V2000
   35.3810   30.5720   49.4880 C   0  0  0  0  0  0  0  0  0  0  0  0
   35.0800   31.6160   49.7810 H   0  0  0  0  0  0  0  0  0  0  0  0
   36.2890   30.3570   50.1170 H   0  0  0  0  0  0  0  0  0  0  0  0
   38.2600   31.7590   48.9310 Br  0  0  0  0  0  0  0  0  0  0  0  0
   37.0220   31.0460   47.6440 C   0  0  0  0  0  0  0  0  0  0  0  0
   37.3500   31.0130   46.3130 C   0  0  0  0  0  0  0  0  0  0  0  0
   36.4270   30.5040   45.4390 C   0  0  0  0  0  0  0  0  0  0  0  0
   35.1900   30.0280   45.8510 C   0  0  0  0  0  0  0  0  0  0  0  0
   34.8950   30.0800   47.2210 C   0  0  0  0  0  0  0  0  0  0  0  0
   35.8150   30.5870   48.0950 C   0  0  0  0  0  0  0  0  0  0  0  0
   36.7390   30.5000   44.3810 H   0  0  0  0  0  0  0  0  0  0  0  0
   34.5790   29.6620   45.0430 H   0  0  0  0  0  0  0  0  0  0  0  0
   33.9130   29.6890   47.3270 H   0  0  0  0  0  0  0  0  0  0  0  0
   39.8370   33.2740   44.8950 C   0  0  0  0  0  0  0  0  0  0  0  0
   41.0380   32.5100   44.9100 C   0  0  0  0  0  0  0  0  0  0  0  0
   40.9570   31.2270   45.4120 C   0  0  0  0  0  0  0  0  0  0  0  0
   39.7530   30.7380   45.8700 N   0  0  0  0  0  0  0  0  0  0  0  0
   38.6460   31.5080   45.8320 C   0  0  0  0  0  0  0  0  0  0  0  0
   38.7020   32.7570   45.3490 N   0  0  0  0  0  0  0  0  0  0  0  0
   39.9280   34.2660   44.5010 H   0  0  0  0  0  0  0  0  0  0  0  0
   41.9750   32.9200   44.5420 H   0  0  0  0  0  0  0  0  0  0  0  0
   41.8480   30.6120   45.4400 H   0  0  0  0  0  0  0  0  0  0  0  0
   34.3330   29.5890   49.8640 C   0  0  0  0  0  0  0  0  0  0  0  0
   33.3370   29.8750   49.5830 H   0  0  0  0  0  0  0  0  0  0  0  0
   34.3080   29.6590   51.0080 H   0  0  0  0  0  0  0  0  0  0  0  0
   34.8110   28.2790   49.6110 N   0  0  0  0  0  0  0  0  0  0  0  0
   35.2950   27.8060   50.3940 H   0  0  0  0  0  0  0  0  0  0  0  0
   33.9830   27.4120   48.8580 C   0  0  0  0  0  0  0  0  0  0  0  0
   34.3250   27.3540   47.8020 H   0  0  0  0  0  0  0  0  0  0  0  0
   34.0890   26.3910   49.2630 H   0  0  0  0  0  0  0  0  0  0  0  0
   32.5790   27.9230   48.9120 C   0  0  0  0  0  0  0  0  0  0  0  0
   32.0110   27.5350   49.7860 H   0  0  0  0  0  0  0  0  0  0  0  0
   32.3740   28.9480   48.6640 H   0  0  0  0  0  0  0  0  0  0  0  0
   31.9150   27.2040   47.7760 N   0  0  0  0  0  0  0  0  0  0  0  0
   32.5450   27.1090   46.5680 C   0  0  0  0  0  3  0  0  0  0  0  0
   31.9500   26.4510   45.5130 C   0  0  0  0  0  0  0  0  0  0  0  0
   32.4410   26.3750   44.5610 H   0  0  0  0  0  0  0  0  0  0  0  0
   30.7050   25.8820   45.6720 C   0  0  0  0  0  0  0  0  0  0  0  0
   30.0970   25.2670   44.7600 O   0  0  0  0  0  0  0  0  0  0  0  0
   30.1230   26.0010   46.8780 N   0  0  0  0  0  0  0  0  0  0  0  0
   30.6820   26.6360   47.9220 C   0  0  0  0  0  0  0  0  0  0  0  0
   30.1820   26.7710   49.0550 O   0  0  0  0  0  0  0  0  0  0  0  0
   29.1770   25.6090   47.1210 H   0  0  0  0  0  0  0  0  0  0  0  0
  1  2  1  0  0  0  0
  1 23  1  0  0  0  0
  1  3  1  0  0  0  0
  5 10  1  0  0  0  0
  5  4  1  0  0  0  0
  6  5  2  0  0  0  0
  7  8  2  0  0  0  0
  7  6  1  0  0  0  0
  8  9  1  0  0  0  0
  9 13  1  0  0  0  0
  9 10  2  0  0  0  0
 10  1  1  0  0  0  0
 11  7  1  0  0  0  0
 12  8  1  0  0  0  0
 14 15  2  0  0  0  0
 14 19  1  0  0  0  0
 15 16  1  0  0  0  0
 16 22  1  0  0  0  0
 16 17  2  0  0  0  0
 18 17  1  0  0  0  0
 18  6  1  0  0  0  0
 19 18  2  0  0  0  0
 20 14  1  0  0  0  0
 21 15  1  0  0  0  0
 23 25  1  0  0  0  0
 24 23  1  0  0  0  0
 26 23  1  0  0  0  0
 26 27  1  0  0  0  0
 28 31  1  0  0  0  0
 28 30  1  0  0  0  0
 28 26  1  0  0  0  0
 29 28  1  0  0  0  0
 31 32  1  0  0  0  0
 33 31  1  0  0  0  0
 34 41  1  0  0  0  0
 34 31  1  0  0  0  0
 35 34  1  0  0  0  0
 36 38  1  0  0  0  0
 36 35  2  0  0  0  0
 37 36  1  0  0  0  0
 38 40  1  0  0  0  0
 39 38  2  0  0  0  0
 40 43  1  0  0  0  0
 40 41  1  0  0  0  0
 41 42  2  0  0  0  0
M  END
>  <minimizedAffinity>
-5.33942366

>  <minimizedRMSD>
0.80112493

$$$$
