
 OpenBabel03272508483D

 41 45  0  0  0  0  0  0  0  0999 V2000
   35.5430   29.5740   49.6690 C   0  0  0  0  0  0  0  0  0  0  0  0
   36.5880   29.1980   50.4860 C   0  0  0  0  0  0  0  0  0  0  0  0
   37.7050   29.7490   49.8680 C   0  0  0  0  0  0  0  0  0  0  0  0
   37.3060   30.4140   48.7390 C   0  0  0  0  0  0  0  0  0  0  0  0
   35.9890   30.2920   48.6440 O   0  0  0  0  0  0  0  0  0  0  0  0
   36.5970   28.6190   51.3960 H   0  0  0  0  0  0  0  0  0  0  0  0
   38.7300   29.7000   50.1680 H   0  0  0  0  0  0  0  0  0  0  0  0
   38.6700   32.3640   48.1480 C   0  0  0  0  0  0  0  0  0  0  0  0
   38.1520   31.1350   47.7930 C   0  0  0  0  0  0  0  0  0  0  0  0
   38.4130   30.5580   46.5510 C   0  0  0  0  0  0  0  0  0  0  0  0
   39.2120   31.2230   45.6370 C   0  0  0  0  0  0  0  0  0  0  0  0
   39.6450   30.9470   44.3870 N   0  0  0  0  0  0  0  0  0  0  0  0
   40.4000   31.9790   43.9980 N   0  0  0  0  0  0  0  0  0  0  0  0
   40.4570   32.8990   44.9690 C   0  0  0  0  0  0  0  0  0  0  0  0
   39.7050   32.4480   46.0390 C   0  0  0  0  0  0  0  0  0  0  0  0
   39.4810   33.0600   47.2420 C   0  0  0  0  0  0  0  0  0  0  0  0
   38.4740   32.8210   49.1060 H   0  0  0  0  0  0  0  0  0  0  0  0
   38.0020   29.5820   46.2700 H   0  0  0  0  0  0  0  0  0  0  0  0
   39.3880   30.0560   43.8770 H   0  0  0  0  0  0  0  0  0  0  0  0
   41.0240   33.8120   44.8450 H   0  0  0  0  0  0  0  0  0  0  0  0
   39.9010   34.0250   47.4910 H   0  0  0  0  0  0  0  0  0  0  0  0
   34.1400   29.2280   49.9060 C   0  0  0  0  0  0  0  0  0  0  0  0
   33.5790   29.7160   50.9070 O   0  0  0  0  0  0  0  0  0  0  0  0
   31.4710   27.2590   48.3900 C   0  0  0  0  0  0  0  0  0  0  0  0
   32.0850   26.6770   47.2930 C   0  0  0  0  0  0  0  0  0  0  0  0
   33.4130   26.9490   47.0590 C   0  0  0  0  0  0  0  0  0  0  0  0
   34.0620   27.7760   47.9130 N   0  0  0  0  0  0  0  0  0  0  0  0
   33.4500   28.3360   48.9800 C   0  0  0  0  0  0  0  0  0  0  0  0
   32.1530   28.0720   49.2110 N   0  0  0  0  0  0  0  0  0  0  0  0
   30.4190   27.0410   48.5730 H   0  0  0  0  0  0  0  0  0  0  0  0
   31.4990   26.0210   46.6480 H   0  0  0  0  0  0  0  0  0  0  0  0
   34.0500   26.3540   45.9330 N   0  0  0  0  0  0  0  0  0  0  0  0
   34.2050   27.0320   44.7750 C   0  0  0  0  0  3  0  0  0  0  0  0
   34.8320   26.4470   43.6690 C   0  0  0  0  0  0  0  0  0  0  0  0
   34.9560   26.9910   42.7410 H   0  0  0  0  0  0  0  0  0  0  0  0
   35.2750   25.1450   43.8390 C   0  0  0  0  0  0  0  0  0  0  0  0
   35.8540   24.5670   42.8580 O   0  0  0  0  0  0  0  0  0  0  0  0
   35.1020   24.4890   45.0240 N   0  0  0  0  0  0  0  0  0  0  0  0
   34.4950   25.0890   46.0600 C   0  0  0  0  0  0  0  0  0  0  0  0
   34.3940   24.3850   47.0970 O   0  0  0  0  0  0  0  0  0  0  0  0
   35.4690   23.4920   45.0760 H   0  0  0  0  0  0  0  0  0  0  0  0
  1 22  1  0  0  0  0
  1  2  2  0  0  0  0
  2  6  1  0  0  0  0
  3  7  1  0  0  0  0
  3  2  1  0  0  0  0
  4  3  2  0  0  0  0
  5  4  1  0  0  0  0
  5  1  1  0  0  0  0
  8 17  1  0  0  0  0
  9  8  1  0  0  0  0
  9  4  1  0  0  0  0
 10  9  2  0  0  0  0
 11 15  2  0  0  0  0
 11 10  1  0  0  0  0
 12 11  1  0  0  0  0
 13 12  1  0  0  0  0
 13 14  2  0  0  0  0
 14 15  1  0  0  0  0
 15 16  1  0  0  0  0
 16 21  1  0  0  0  0
 16  8  2  0  0  0  0
 18 10  1  0  0  0  0
 19 12  1  0  0  0  0
 20 14  1  0  0  0  0
 22 23  2  0  0  0  0
 24 30  1  0  0  0  0
 24 29  1  0  0  0  0
 25 24  2  0  0  0  0
 26 25  1  0  0  0  0
 26 27  2  0  0  0  0
 27 28  1  0  0  0  0
 28 29  2  0  0  0  0
 28 22  1  0  0  0  0
 31 25  1  0  0  0  0
 32 39  1  0  0  0  0
 32 26  1  0  0  0  0
 33 32  1  0  0  0  0
 34 36  1  0  0  0  0
 34 33  2  0  0  0  0
 35 34  1  0  0  0  0
 36 38  1  0  0  0  0
 37 36  2  0  0  0  0
 38 41  1  0  0  0  0
 38 39  1  0  0  0  0
 39 40  2  0  0  0  0
M  END
>  <minimizedAffinity>
-6.63267183

>  <minimizedRMSD>
0.88461715

$$$$
