
 OpenBabel03262523353D

 35 37  0  0  1  0  0  0  0  0999 V2000
   35.2930   30.2570   49.6510 C   0  0  2  0  0  0  0  0  0  0  0  0
   36.1560   31.0820   48.7250 C   0  0  0  0  0  0  0  0  0  0  0  0
   37.5810   30.6160   48.7100 C   0  0  2  0  0  0  0  0  0  0  0  0
   38.1740   30.6260   50.0980 C   0  0  0  0  0  0  0  0  0  0  0  0
   37.3280   29.8920   51.0770 C   0  0  0  0  0  0  0  0  0  0  0  0
   36.0570   29.3150   50.5090 C   0  0  0  0  0  0  0  0  0  0  0  0
   34.6830   30.9420   50.2650 H   0  0  0  0  0  0  0  0  0  0  0  0
   35.7800   30.9670   47.6760 H   0  0  0  0  0  0  0  0  0  0  0  0
   36.0450   32.1660   48.9510 H   0  0  0  0  0  0  0  0  0  0  0  0
   37.5460   29.5380   48.4060 H   0  0  0  0  0  0  0  0  0  0  0  0
   39.2300   30.3360   50.0680 H   0  0  0  0  0  0  0  0  0  0  0  0
   38.1740   31.7030   50.4250 H   0  0  0  0  0  0  0  0  0  0  0  0
   37.9290   28.9900   51.3970 H   0  0  0  0  0  0  0  0  0  0  0  0
   37.1460   30.4330   52.0310 H   0  0  0  0  0  0  0  0  0  0  0  0
   35.4040   29.0540   51.3820 H   0  0  0  0  0  0  0  0  0  0  0  0
   36.2710   28.3820   49.9540 H   0  0  0  0  0  0  0  0  0  0  0  0
   38.3650   31.3250   47.7670 N   0  0  0  0  0  0  0  0  0  0  0  0
   38.7830   30.7580   46.5980 C   0  0  0  0  0  0  0  0  0  0  0  0
   39.5490   31.4000   45.6420 C   0  0  0  0  0  0  0  0  0  0  0  0
   39.8430   30.8950   44.7420 H   0  0  0  0  0  0  0  0  0  0  0  0
   39.9110   32.7090   45.8980 C   0  0  0  0  0  0  0  0  0  0  0  0
   40.5980   33.2780   45.0340 O   0  0  0  0  0  0  0  0  0  0  0  0
   39.5130   33.3020   47.0490 N   0  0  0  0  0  0  0  0  0  0  0  0
   38.7640   32.5940   47.9260 C   0  0  0  0  0  0  0  0  0  0  0  0
   38.4440   33.2270   48.9620 O   0  0  0  0  0  0  0  0  0  0  0  0
   39.7950   34.2870   47.2250 H   0  0  0  0  0  0  0  0  0  0  0  0
   34.3240   29.4550   48.8480 C   0  0  0  0  0  0  0  0  0  0  0  0
   34.1480   29.8500   47.5080 C   0  0  0  0  0  0  0  0  0  0  0  0
   33.2290   29.1020   46.7530 C   0  0  0  0  0  0  0  0  0  0  0  0
   32.5630   28.0500   47.3480 N   0  0  0  0  0  0  0  0  0  0  0  0
   32.7680   27.7120   48.6430 C   0  0  0  0  0  0  0  0  0  0  0  0
   33.6390   28.4120   49.3710 N   0  0  0  0  0  0  0  0  0  0  0  0
   34.6400   30.6560   47.0090 H   0  0  0  0  0  0  0  0  0  0  0  0
   33.0600   29.3670   45.7210 H   0  0  0  0  0  0  0  0  0  0  0  0
   32.1990   26.8770   49.0040 H   0  0  0  0  0  0  0  0  0  0  0  0
  1  7  1  1  0  0  0
  1  6  1  0  0  0  0
  2  9  1  0  0  0  0
  2  1  1  0  0  0  0
  3 10  1  6  0  0  0
  3  2  1  0  0  0  0
  3  4  1  0  0  0  0
  4 12  1  0  0  0  0
  4  5  1  0  0  0  0
  5 13  1  0  0  0  0
  5 14  1  0  0  0  0
  6  5  1  0  0  0  0
  6 15  1  0  0  0  0
  8  2  1  0  0  0  0
 11  4  1  0  0  0  0
 16  6  1  0  0  0  0
 17 24  1  0  0  0  0
 17  3  1  0  0  0  0
 18 17  1  0  0  0  0
 19 21  1  0  0  0  0
 19 18  2  0  0  0  0
 20 19  1  0  0  0  0
 21 23  1  0  0  0  0
 22 21  2  0  0  0  0
 23 26  1  0  0  0  0
 23 24  1  0  0  0  0
 24 25  2  0  0  0  0
 27 32  1  0  0  0  0
 27  1  1  0  0  0  0
 28 27  2  0  0  0  0
 29 30  2  0  0  0  0
 29 28  1  0  0  0  0
 30 31  1  0  0  0  0
 31 35  1  0  0  0  0
 31 32  2  0  0  0  0
 33 28  1  0  0  0  0
 34 29  1  0  0  0  0
M  END
>  <minimizedAffinity>
-7.03667212

>  <minimizedRMSD>
0.847507775

$$$$
