
 OpenBabel03272509043D

 34 36  0  0  0  0  0  0  0  0999 V2000
   38.4340   32.6080   49.4660 C   0  0  0  0  0  0  0  0  0  0  0  0
   38.8910   32.5790   48.1230 C   0  0  0  0  0  0  0  0  0  0  0  0
   38.5150   31.4590   47.3170 C   0  0  0  0  0  0  0  0  0  0  0  0
   37.7450   30.5040   47.9040 N   0  0  0  0  0  0  0  0  0  0  0  0
   37.3410   30.5800   49.1720 C   0  0  0  0  0  0  0  0  0  0  0  0
   37.6880   31.6280   49.9430 N   0  0  0  0  0  0  0  0  0  0  0  0
   38.7660   33.4780   49.9790 H   0  0  0  0  0  0  0  0  0  0  0  0
   39.5030   33.3370   47.6540 H   0  0  0  0  0  0  0  0  0  0  0  0
   38.9510   31.3880   45.9640 N   0  0  0  0  0  0  0  0  0  0  0  0
   40.3010   31.4030   45.8670 C   0  0  0  0  0  3  0  0  0  0  0  0
   40.8700   31.3390   44.5910 C   0  0  0  0  0  0  0  0  0  0  0  0
   41.9330   31.3450   44.4030 H   0  0  0  0  0  0  0  0  0  0  0  0
   40.0480   31.2640   43.5010 C   0  0  0  0  0  0  0  0  0  0  0  0
   40.4550   31.2030   42.3250 O   0  0  0  0  0  0  0  0  0  0  0  0
   38.7020   31.2510   43.6410 N   0  0  0  0  0  0  0  0  0  0  0  0
   38.1630   31.3130   44.8730 C   0  0  0  0  0  0  0  0  0  0  0  0
   36.9500   31.3140   45.2050 O   0  0  0  0  0  0  0  0  0  0  0  0
   38.0070   31.1960   42.8740 H   0  0  0  0  0  0  0  0  0  0  0  0
   36.5290   29.4860   49.6480 C   0  0  0  0  0  3  0  0  0  0  0  0
   35.5070   29.1170   48.9530 C   0  0  0  0  0  3  0  0  0  0  0  0
   34.5510   28.0380   49.2440 C   0  0  0  0  0  0  0  0  0  0  0  0
   33.6970   28.4830   49.8170 H   0  0  0  0  0  0  0  0  0  0  0  0
   34.9600   27.2400   49.9050 H   0  0  0  0  0  0  0  0  0  0  0  0
   33.9740   27.4370   48.0020 C   0  0  0  0  0  0  0  0  0  0  0  0
   33.5980   26.1270   47.8340 C   0  0  0  0  0  0  0  0  0  0  0  0
   33.0750   25.6840   46.6380 C   0  0  0  0  0  0  0  0  0  0  0  0
   32.9080   26.5540   45.5540 C   0  0  0  0  0  0  0  0  0  0  0  0
   33.2740   27.8610   45.7000 C   0  0  0  0  0  0  0  0  0  0  0  0
   33.7980   28.2880   46.9080 C   0  0  0  0  0  0  0  0  0  0  0  0
   33.7420   25.4760   48.6980 H   0  0  0  0  0  0  0  0  0  0  0  0
   32.8020   24.6340   46.5830 H   0  0  0  0  0  0  0  0  0  0  0  0
   32.4970   26.1510   44.6570 H   0  0  0  0  0  0  0  0  0  0  0  0
   33.1600   28.5650   44.8830 H   0  0  0  0  0  0  0  0  0  0  0  0
   34.0740   29.3190   46.9850 H   0  0  0  0  0  0  0  0  0  0  0  0
  1  6  1  0  0  0  0
  1  7  1  0  0  0  0
  2  1  2  0  0  0  0
  3  4  2  0  0  0  0
  3  2  1  0  0  0  0
  4  5  1  0  0  0  0
  5 19  1  0  0  0  0
  5  6  2  0  0  0  0
  8  2  1  0  0  0  0
  9  3  1  0  0  0  0
 10  9  1  0  0  0  0
 11 10  2  0  0  0  0
 12 11  1  0  0  0  0
 13 15  1  0  0  0  0
 13 11  1  0  0  0  0
 14 13  2  0  0  0  0
 15 16  1  0  0  0  0
 16 17  2  0  0  0  0
 16  9  1  0  0  0  0
 18 15  1  0  0  0  0
 20 21  1  0  0  0  0
 20 19  2  0  0  0  0
 21 22  1  0  0  0  0
 21 23  1  0  0  0  0
 24 21  1  0  0  0  0
 25 24  1  0  0  0  0
 25 30  1  0  0  0  0
 26 25  2  0  0  0  0
 27 28  2  0  0  0  0
 27 26  1  0  0  0  0
 28 29  1  0  0  0  0
 29 34  1  0  0  0  0
 29 24  2  0  0  0  0
 31 26  1  0  0  0  0
 32 27  1  0  0  0  0
 33 28  1  0  0  0  0
M  END
>  <minimizedAffinity>
-6.43052578

>  <minimizedRMSD>
2.28395557

$$$$
