
 OpenBabel03262520143D

 43 45  0  0  0  0  0  0  0  0999 V2000
   38.4470   26.0510   32.1740 C   0  0  0  0  0  0  0  0  0  0  0  0
   38.8280   26.5530   31.2410 H   0  0  0  0  0  0  0  0  0  0  0  0
   39.2650   25.3330   32.4560 H   0  0  0  0  0  0  0  0  0  0  0  0
   38.6600   22.9400   32.7090 Br  0  0  0  0  0  0  0  0  0  0  0  0
   37.1580   23.9010   31.9890 C   0  0  0  0  0  0  0  0  0  0  0  0
   36.0110   23.2340   31.6440 C   0  0  0  0  0  0  0  0  0  0  0  0
   34.9760   23.9660   31.1260 C   0  0  0  0  0  0  0  0  0  0  0  0
   35.0500   25.3400   30.9430 C   0  0  0  0  0  0  0  0  0  0  0  0
   36.2400   25.9840   31.3100 C   0  0  0  0  0  0  0  0  0  0  0  0
   37.2750   25.2550   31.8270 C   0  0  0  0  0  0  0  0  0  0  0  0
   34.0770   23.3830   30.8650 H   0  0  0  0  0  0  0  0  0  0  0  0
   34.1530   25.7670   30.5260 H   0  0  0  0  0  0  0  0  0  0  0  0
   36.1040   27.0120   31.0830 H   0  0  0  0  0  0  0  0  0  0  0  0
   36.1280   19.6730   30.8610 C   0  0  0  0  0  0  0  0  0  0  0  0
   35.6880   19.0470   32.0610 C   0  0  0  0  0  0  0  0  0  0  0  0
   35.3600   19.8760   33.1150 C   0  0  0  0  0  0  0  0  0  0  0  0
   35.4650   21.2430   32.9790 N   0  0  0  0  0  0  0  0  0  0  0  0
   35.8890   21.7820   31.8170 C   0  0  0  0  0  0  0  0  0  0  0  0
   36.2130   20.9950   30.7800 N   0  0  0  0  0  0  0  0  0  0  0  0
   36.3750   19.0070   30.0590 H   0  0  0  0  0  0  0  0  0  0  0  0
   35.6130   17.9660   32.1420 H   0  0  0  0  0  0  0  0  0  0  0  0
   35.0200   19.4400   34.0460 H   0  0  0  0  0  0  0  0  0  0  0  0
   38.3030   27.0270   33.2850 C   0  0  0  0  0  0  0  0  0  0  0  0
   37.9230   27.9850   32.9850 H   0  0  0  0  0  0  0  0  0  0  0  0
   39.3890   27.2580   33.5700 H   0  0  0  0  0  0  0  0  0  0  0  0
   37.7830   26.3620   34.4230 N   0  0  0  0  0  0  0  0  0  0  0  0
   36.9830   25.7250   34.2600 H   0  0  0  0  0  0  0  0  0  0  0  0
   38.7070   25.8700   35.3750 C   0  0  0  0  0  0  0  0  0  0  0  0
   39.5210   25.2990   34.8800 H   0  0  0  0  0  0  0  0  0  0  0  0
   39.1990   26.7310   35.8600 H   0  0  0  0  0  0  0  0  0  0  0  0
   37.9790   24.9890   36.3390 C   0  0  0  0  0  0  0  0  0  0  0  0
   37.7930   25.4820   37.3190 H   0  0  0  0  0  0  0  0  0  0  0  0
   37.1760   24.3660   35.9910 H   0  0  0  0  0  0  0  0  0  0  0  0
   39.0120   23.9650   36.7060 N   0  0  0  0  0  0  0  0  0  0  0  0
   40.0790   23.7500   35.8820 C   0  0  0  0  0  3  0  0  0  0  0  0
   41.0390   22.8130   36.2030 C   0  0  0  0  0  0  0  0  0  0  0  0
   41.8800   22.6400   35.5580 H   0  0  0  0  0  0  0  0  0  0  0  0
   40.9260   22.0830   37.3670 C   0  0  0  0  0  0  0  0  0  0  0  0
   41.7560   21.2140   37.7290 O   0  0  0  0  0  0  0  0  0  0  0  0
   39.8580   22.3300   38.1460 N   0  0  0  0  0  0  0  0  0  0  0  0
   38.9100   23.2380   37.8560 C   0  0  0  0  0  0  0  0  0  0  0  0
   37.9070   23.4990   38.5460 O   0  0  0  0  0  0  0  0  0  0  0  0
   39.6640   21.8380   39.0570 H   0  0  0  0  0  0  0  0  0  0  0  0
  1  3  1  0  0  0  0
  1 23  1  0  0  0  0
  2  1  1  0  0  0  0
  5  4  1  0  0  0  0
  6 18  1  0  0  0  0
  6  5  2  0  0  0  0
  7  6  1  0  0  0  0
  8  7  2  0  0  0  0
  8  9  1  0  0  0  0
  9 10  2  0  0  0  0
 10  5  1  0  0  0  0
 10  1  1  0  0  0  0
 11  7  1  0  0  0  0
 12  8  1  0  0  0  0
 13  9  1  0  0  0  0
 14 15  1  0  0  0  0
 15 21  1  0  0  0  0
 15 16  2  0  0  0  0
 16 22  1  0  0  0  0
 17 16  1  0  0  0  0
 18 17  2  0  0  0  0
 19 14  2  0  0  0  0
 19 18  1  0  0  0  0
 20 14  1  0  0  0  0
 23 25  1  0  0  0  0
 23 26  1  0  0  0  0
 24 23  1  0  0  0  0
 26 28  1  0  0  0  0
 27 26  1  0  0  0  0
 28 30  1  0  0  0  0
 28 31  1  0  0  0  0
 29 28  1  0  0  0  0
 31 34  1  0  0  0  0
 31 32  1  0  0  0  0
 33 31  1  0  0  0  0
 34 41  1  0  0  0  0
 35 36  2  0  0  0  0
 35 34  1  0  0  0  0
 36 38  1  0  0  0  0
 37 36  1  0  0  0  0
 38 39  2  0  0  0  0
 38 40  1  0  0  0  0
 40 43  1  0  0  0  0
 41 40  1  0  0  0  0
 41 42  2  0  0  0  0
M  END
>  <minimizedAffinity>
-5.95415401

$$$$

 OpenBabel03262520143D

 43 45  0  0  0  0  0  0  0  0999 V2000
   38.7200   26.6010   32.4970 C   0  0  0  0  0  0  0  0  0  0  0  0
   39.0300   26.6830   33.5760 H   0  0  0  0  0  0  0  0  0  0  0  0
   39.6330   26.9190   31.9220 H   0  0  0  0  0  0  0  0  0  0  0  0
   37.1910   27.7280   35.0270 Br  0  0  0  0  0  0  0  0  0  0  0  0
   36.9110   28.2040   33.1850 C   0  0  0  0  0  0  0  0  0  0  0  0
   35.9580   29.1300   32.8470 C   0  0  0  0  0  0  0  0  0  0  0  0
   35.7930   29.4240   31.5200 C   0  0  0  0  0  0  0  0  0  0  0  0
   36.5490   28.8240   30.5230 C   0  0  0  0  0  0  0  0  0  0  0  0
   37.5130   27.8830   30.9110 C   0  0  0  0  0  0  0  0  0  0  0  0
   37.6790   27.5880   32.2350 C   0  0  0  0  0  0  0  0  0  0  0  0
   35.0160   30.1740   31.3020 H   0  0  0  0  0  0  0  0  0  0  0  0
   36.2980   29.1620   29.5310 H   0  0  0  0  0  0  0  0  0  0  0  0
   37.9650   27.5350   30.0150 H   0  0  0  0  0  0  0  0  0  0  0  0
   34.9540   31.5140   35.4200 C   0  0  0  0  0  0  0  0  0  0  0  0
   33.6520   31.0790   35.7960 C   0  0  0  0  0  0  0  0  0  0  0  0
   33.1530   29.9670   35.1480 C   0  0  0  0  0  0  0  0  0  0  0  0
   33.9050   29.3310   34.1850 N   0  0  0  0  0  0  0  0  0  0  0  0
   35.1350   29.7880   33.8690 C   0  0  0  0  0  0  0  0  0  0  0  0
   35.6390   30.8670   34.4860 N   0  0  0  0  0  0  0  0  0  0  0  0
   35.3180   32.3790   35.9380 H   0  0  0  0  0  0  0  0  0  0  0  0
   33.0790   31.5990   36.5590 H   0  0  0  0  0  0  0  0  0  0  0  0
   32.1660   29.6030   35.4050 H   0  0  0  0  0  0  0  0  0  0  0  0
   38.4290   25.1910   32.1320 C   0  0  0  0  0  0  0  0  0  0  0  0
   39.2560   24.6700   31.6880 H   0  0  0  0  0  0  0  0  0  0  0  0
   37.6930   25.2950   31.2590 H   0  0  0  0  0  0  0  0  0  0  0  0
   37.6600   24.5920   33.1600 N   0  0  0  0  0  0  0  0  0  0  0  0
   36.6850   24.3410   32.9190 H   0  0  0  0  0  0  0  0  0  0  0  0
   38.2980   23.6360   33.9850 C   0  0  0  0  0  0  0  0  0  0  0  0
   37.7650   22.6610   33.9490 H   0  0  0  0  0  0  0  0  0  0  0  0
   39.3050   23.4410   33.5780 H   0  0  0  0  0  0  0  0  0  0  0  0
   38.3210   24.1530   35.3880 C   0  0  0  0  0  0  0  0  0  0  0  0
   38.7950   25.1560   35.4710 H   0  0  0  0  0  0  0  0  0  0  0  0
   37.4700   24.0060   36.0250 H   0  0  0  0  0  0  0  0  0  0  0  0
   39.3440   23.2790   36.0520 N   0  0  0  0  0  0  0  0  0  0  0  0
   40.3580   22.7380   35.3150 C   0  0  0  0  0  3  0  0  0  0  0  0
   41.3070   21.9320   35.9080 C   0  0  0  0  0  0  0  0  0  0  0  0
   42.1060   21.5040   35.3330 H   0  0  0  0  0  0  0  0  0  0  0  0
   41.2370   21.6670   37.2590 C   0  0  0  0  0  0  0  0  0  0  0  0
   42.0620   20.9450   37.8720 O   0  0  0  0  0  0  0  0  0  0  0  0
   40.2220   22.2220   37.9430 N   0  0  0  0  0  0  0  0  0  0  0  0
   39.2840   23.0110   37.3890 C   0  0  0  0  0  0  0  0  0  0  0  0
   38.3290   23.5440   37.9820 O   0  0  0  0  0  0  0  0  0  0  0  0
   40.0640   22.0930   38.9770 H   0  0  0  0  0  0  0  0  0  0  0  0
  1  2  1  0  0  0  0
  3  1  1  0  0  0  0
  5  4  1  0  0  0  0
  6  5  1  0  0  0  0
  6 18  1  0  0  0  0
  7  6  2  0  0  0  0
  8  9  2  0  0  0  0
  8  7  1  0  0  0  0
  9 10  1  0  0  0  0
 10  1  1  0  0  0  0
 10  5  2  0  0  0  0
 11  7  1  0  0  0  0
 12  8  1  0  0  0  0
 13  9  1  0  0  0  0
 14 15  1  0  0  0  0
 14 20  1  0  0  0  0
 15 21  1  0  0  0  0
 16 22  1  0  0  0  0
 16 15  2  0  0  0  0
 17 16  1  0  0  0  0
 18 17  2  0  0  0  0
 18 19  1  0  0  0  0
 19 14  2  0  0  0  0
 23  1  1  0  0  0  0
 23 26  1  0  0  0  0
 24 23  1  0  0  0  0
 25 23  1  0  0  0  0
 26 28  1  0  0  0  0
 27 26  1  0  0  0  0
 28 31  1  0  0  0  0
 29 28  1  0  0  0  0
 30 28  1  0  0  0  0
 31 32  1  0  0  0  0
 31 33  1  0  0  0  0
 31 34  1  0  0  0  0
 34 41  1  0  0  0  0
 35 36  2  0  0  0  0
 35 34  1  0  0  0  0
 36 38  1  0  0  0  0
 37 36  1  0  0  0  0
 38 39  2  0  0  0  0
 38 40  1  0  0  0  0
 40 43  1  0  0  0  0
 41 40  1  0  0  0  0
 41 42  2  0  0  0  0
M  END
>  <minimizedAffinity>
-5.50726748

$$$$

 OpenBabel03262520143D

 43 45  0  0  0  0  0  0  0  0999 V2000
   37.7530   27.4920   32.6240 C   0  0  0  0  0  0  0  0  0  0  0  0
   38.7690   27.9630   32.7360 H   0  0  0  0  0  0  0  0  0  0  0  0
   37.1070   28.0490   33.3570 H   0  0  0  0  0  0  0  0  0  0  0  0
   38.5320   27.0600   35.6600 Br  0  0  0  0  0  0  0  0  0  0  0  0
   38.1370   25.7070   34.3520 C   0  0  0  0  0  0  0  0  0  0  0  0
   38.1760   24.3800   34.6950 C   0  0  0  0  0  0  0  0  0  0  0  0
   37.8980   23.4580   33.7220 C   0  0  0  0  0  0  0  0  0  0  0  0
   37.5810   23.8200   32.4200 C   0  0  0  0  0  0  0  0  0  0  0  0
   37.5510   25.1870   32.1100 C   0  0  0  0  0  0  0  0  0  0  0  0
   37.8290   26.1090   33.0810 C   0  0  0  0  0  0  0  0  0  0  0  0
   37.9420   22.4070   34.0490 H   0  0  0  0  0  0  0  0  0  0  0  0
   37.3880   22.9780   31.7750 H   0  0  0  0  0  0  0  0  0  0  0  0
   37.3070   25.2520   31.0790 H   0  0  0  0  0  0  0  0  0  0  0  0
   37.8220   23.7840   38.2770 C   0  0  0  0  0  0  0  0  0  0  0  0
   39.0570   23.1770   38.6440 C   0  0  0  0  0  0  0  0  0  0  0  0
   39.9840   22.9890   37.6380 C   0  0  0  0  0  0  0  0  0  0  0  0
   39.6970   23.3820   36.3500 N   0  0  0  0  0  0  0  0  0  0  0  0
   38.5090   23.9530   36.0600 C   0  0  0  0  0  0  0  0  0  0  0  0
   37.5940   24.1450   37.0210 N   0  0  0  0  0  0  0  0  0  0  0  0
   37.1210   23.9190   39.0760 H   0  0  0  0  0  0  0  0  0  0  0  0
   39.2580   22.8770   39.6690 H   0  0  0  0  0  0  0  0  0  0  0  0
   40.9360   22.5310   37.8750 H   0  0  0  0  0  0  0  0  0  0  0  0
   37.2000   27.7310   31.2660 C   0  0  0  0  0  0  0  0  0  0  0  0
   37.3400   26.9160   30.5820 H   0  0  0  0  0  0  0  0  0  0  0  0
   37.8900   28.5430   30.8430 H   0  0  0  0  0  0  0  0  0  0  0  0
   35.9440   28.3750   31.3820 N   0  0  0  0  0  0  0  0  0  0  0  0
   35.1070   27.7730   31.2850 H   0  0  0  0  0  0  0  0  0  0  0  0
   35.8060   29.3720   32.3760 C   0  0  0  0  0  0  0  0  0  0  0  0
   36.5420   29.2210   33.1950 H   0  0  0  0  0  0  0  0  0  0  0  0
   36.0540   30.3490   31.9270 H   0  0  0  0  0  0  0  0  0  0  0  0
   34.4150   29.3140   32.9240 C   0  0  0  0  0  0  0  0  0  0  0  0
   33.6850   29.8860   32.3100 H   0  0  0  0  0  0  0  0  0  0  0  0
   34.0370   28.3920   33.3240 H   0  0  0  0  0  0  0  0  0  0  0  0
   34.5030   30.1610   34.1580 N   0  0  0  0  0  0  0  0  0  0  0  0
   35.6970   30.7190   34.5160 C   0  0  0  0  0  3  0  0  0  0  0  0
   35.7970   31.5010   35.6480 C   0  0  0  0  0  0  0  0  0  0  0  0
   36.7340   31.9420   35.9340 H   0  0  0  0  0  0  0  0  0  0  0  0
   34.6850   31.7250   36.4300 C   0  0  0  0  0  0  0  0  0  0  0  0
   34.6940   32.4240   37.4730 O   0  0  0  0  0  0  0  0  0  0  0  0
   33.5320   31.1550   36.0370 N   0  0  0  0  0  0  0  0  0  0  0  0
   33.4070   30.3900   34.9390 C   0  0  0  0  0  0  0  0  0  0  0  0
   32.3630   29.8430   34.5380 O   0  0  0  0  0  0  0  0  0  0  0  0
   32.6170   31.2540   36.5510 H   0  0  0  0  0  0  0  0  0  0  0  0
  1  2  1  0  0  0  0
  1 10  1  0  0  0  0
  1  3  1  0  0  0  0
  5  6  1  0  0  0  0
  5  4  1  0  0  0  0
  6 18  1  0  0  0  0
  7 11  1  0  0  0  0
  7  6  2  0  0  0  0
  8  7  1  0  0  0  0
  9  8  2  0  0  0  0
  9 10  1  0  0  0  0
 10  5  2  0  0  0  0
 12  8  1  0  0  0  0
 13  9  1  0  0  0  0
 14 15  1  0  0  0  0
 14 20  1  0  0  0  0
 15 21  1  0  0  0  0
 16 22  1  0  0  0  0
 16 15  2  0  0  0  0
 17 16  1  0  0  0  0
 18 17  2  0  0  0  0
 18 19  1  0  0  0  0
 19 14  2  0  0  0  0
 23 26  1  0  0  0  0
 23  1  1  0  0  0  0
 24 23  1  0  0  0  0
 25 23  1  0  0  0  0
 26 28  1  0  0  0  0
 27 26  1  0  0  0  0
 28 31  1  0  0  0  0
 28 29  1  0  0  0  0
 30 28  1  0  0  0  0
 31 33  1  0  0  0  0
 31 34  1  0  0  0  0
 32 31  1  0  0  0  0
 34 35  1  0  0  0  0
 34 41  1  0  0  0  0
 35 36  2  0  0  0  0
 36 37  1  0  0  0  0
 36 38  1  0  0  0  0
 38 39  2  0  0  0  0
 40 38  1  0  0  0  0
 40 43  1  0  0  0  0
 41 40  1  0  0  0  0
 42 41  2  0  0  0  0
M  END
>  <minimizedAffinity>
-5.49719763

$$$$

 OpenBabel03262520143D

 43 45  0  0  0  0  0  0  0  0999 V2000
   37.3380   27.5730   31.5470 C   0  0  0  0  0  0  0  0  0  0  0  0
   37.9490   27.3350   32.4620 H   0  0  0  0  0  0  0  0  0  0  0  0
   38.1020   27.7830   30.7490 H   0  0  0  0  0  0  0  0  0  0  0  0
   36.4740   28.1410   34.5370 Br  0  0  0  0  0  0  0  0  0  0  0  0
   36.1590   29.2520   33.0000 C   0  0  0  0  0  0  0  0  0  0  0  0
   35.4910   30.4420   33.1310 C   0  0  0  0  0  0  0  0  0  0  0  0
   35.2840   31.1890   32.0020 C   0  0  0  0  0  0  0  0  0  0  0  0
   35.7240   30.7850   30.7490 C   0  0  0  0  0  0  0  0  0  0  0  0
   36.4030   29.5620   30.6580 C   0  0  0  0  0  0  0  0  0  0  0  0
   36.6110   28.8160   31.7840 C   0  0  0  0  0  0  0  0  0  0  0  0
   34.7430   32.1360   32.1610 H   0  0  0  0  0  0  0  0  0  0  0  0
   35.4830   31.4830   29.9640 H   0  0  0  0  0  0  0  0  0  0  0  0
   36.6400   29.4300   29.6320 H   0  0  0  0  0  0  0  0  0  0  0  0
   35.4630   32.1090   36.3770 C   0  0  0  0  0  0  0  0  0  0  0  0
   34.1700   31.8180   36.8960 C   0  0  0  0  0  0  0  0  0  0  0  0
   33.3370   31.0500   36.1070 C   0  0  0  0  0  0  0  0  0  0  0  0
   33.7680   30.6000   34.8780 N   0  0  0  0  0  0  0  0  0  0  0  0
   35.0050   30.9070   34.4360 C   0  0  0  0  0  0  0  0  0  0  0  0
   35.8300   31.6520   35.1860 N   0  0  0  0  0  0  0  0  0  0  0  0
   36.0890   32.7060   37.0090 H   0  0  0  0  0  0  0  0  0  0  0  0
   33.8550   32.1850   37.8690 H   0  0  0  0  0  0  0  0  0  0  0  0
   32.3450   30.8050   36.4660 H   0  0  0  0  0  0  0  0  0  0  0  0
   36.5460   26.3940   31.1120 C   0  0  0  0  0  0  0  0  0  0  0  0
   36.0790   26.5050   30.1520 H   0  0  0  0  0  0  0  0  0  0  0  0
   35.6550   26.3970   31.8330 H   0  0  0  0  0  0  0  0  0  0  0  0
   37.2520   25.2110   31.4440 N   0  0  0  0  0  0  0  0  0  0  0  0
   38.2070   25.1200   31.0560 H   0  0  0  0  0  0  0  0  0  0  0  0
   37.1360   24.7280   32.7690 C   0  0  0  0  0  0  0  0  0  0  0  0
   36.8340   25.5410   33.4630 H   0  0  0  0  0  0  0  0  0  0  0  0
   36.3170   23.9880   32.7990 H   0  0  0  0  0  0  0  0  0  0  0  0
   38.4550   24.1620   33.1890 C   0  0  0  0  0  0  0  0  0  0  0  0
   38.6300   23.1360   32.7960 H   0  0  0  0  0  0  0  0  0  0  0  0
   39.3260   24.7900   33.2030 H   0  0  0  0  0  0  0  0  0  0  0  0
   38.2570   23.8960   34.6520 N   0  0  0  0  0  0  0  0  0  0  0  0
   38.2000   24.9400   35.5310 C   0  0  0  0  0  3  0  0  0  0  0  0
   38.0180   24.7150   36.8790 C   0  0  0  0  0  0  0  0  0  0  0  0
   37.9730   25.5320   37.5750 H   0  0  0  0  0  0  0  0  0  0  0  0
   37.8930   23.4260   37.3520 C   0  0  0  0  0  0  0  0  0  0  0  0
   37.7240   23.1400   38.5620 O   0  0  0  0  0  0  0  0  0  0  0  0
   37.9550   22.4320   36.4490 N   0  0  0  0  0  0  0  0  0  0  0  0
   38.1310   22.6240   35.1300 C   0  0  0  0  0  0  0  0  0  0  0  0
   38.1950   21.7360   34.2590 O   0  0  0  0  0  0  0  0  0  0  0  0
   37.8720   21.4090   36.6870 H   0  0  0  0  0  0  0  0  0  0  0  0
  1 10  1  0  0  0  0
  1  2  1  0  0  0  0
  3  1  1  0  0  0  0
  5  6  1  0  0  0  0
  5  4  1  0  0  0  0
  6 18  1  0  0  0  0
  7 11  1  0  0  0  0
  7  6  2  0  0  0  0
  8  7  1  0  0  0  0
  9  8  2  0  0  0  0
  9 10  1  0  0  0  0
 10  5  2  0  0  0  0
 12  8  1  0  0  0  0
 13  9  1  0  0  0  0
 14 15  1  0  0  0  0
 14 20  1  0  0  0  0
 15 21  1  0  0  0  0
 16 22  1  0  0  0  0
 16 15  2  0  0  0  0
 17 16  1  0  0  0  0
 18 17  2  0  0  0  0
 18 19  1  0  0  0  0
 19 14  2  0  0  0  0
 23 26  1  0  0  0  0
 23  1  1  0  0  0  0
 23 25  1  0  0  0  0
 24 23  1  0  0  0  0
 26 28  1  0  0  0  0
 27 26  1  0  0  0  0
 28 30  1  0  0  0  0
 28 31  1  0  0  0  0
 28 29  1  0  0  0  0
 31 33  1  0  0  0  0
 31 34  1  0  0  0  0
 32 31  1  0  0  0  0
 34 41  1  0  0  0  0
 34 35  1  0  0  0  0
 35 36  2  0  0  0  0
 36 38  1  0  0  0  0
 36 37  1  0  0  0  0
 38 39  2  0  0  0  0
 40 43  1  0  0  0  0
 40 38  1  0  0  0  0
 41 40  1  0  0  0  0
 42 41  2  0  0  0  0
M  END
>  <minimizedAffinity>
-5.36543894

$$$$

 OpenBabel03262520143D

 43 45  0  0  0  0  0  0  0  0999 V2000
   37.1660   27.5460   31.6040 C   0  0  0  0  0  0  0  0  0  0  0  0
   37.8870   27.3280   30.7680 H   0  0  0  0  0  0  0  0  0  0  0  0
   36.9450   28.6440   31.5000 H   0  0  0  0  0  0  0  0  0  0  0  0
   40.1320   26.4580   31.4380 Br  0  0  0  0  0  0  0  0  0  0  0  0
   39.1440   26.9160   33.0220 C   0  0  0  0  0  0  0  0  0  0  0  0
   39.7200   26.7850   34.2590 C   0  0  0  0  0  0  0  0  0  0  0  0
   38.9670   27.1150   35.3550 C   0  0  0  0  0  0  0  0  0  0  0  0
   37.6610   27.5730   35.2530 C   0  0  0  0  0  0  0  0  0  0  0  0
   37.1100   27.6940   33.9690 C   0  0  0  0  0  0  0  0  0  0  0  0
   37.8590   27.3640   32.8750 C   0  0  0  0  0  0  0  0  0  0  0  0
   39.4760   26.9930   36.3250 H   0  0  0  0  0  0  0  0  0  0  0  0
   37.2060   27.7900   36.2050 H   0  0  0  0  0  0  0  0  0  0  0  0
   36.1150   28.0390   34.1050 H   0  0  0  0  0  0  0  0  0  0  0  0
   43.3670   26.7580   34.1710 C   0  0  0  0  0  0  0  0  0  0  0  0
   43.7090   25.4720   34.6750 C   0  0  0  0  0  0  0  0  0  0  0  0
   42.6650   24.6430   35.0350 C   0  0  0  0  0  0  0  0  0  0  0  0
   41.3630   25.0710   34.8990 N   0  0  0  0  0  0  0  0  0  0  0  0
   41.0980   26.3020   34.4140 C   0  0  0  0  0  0  0  0  0  0  0  0
   42.0960   27.1240   34.0600 N   0  0  0  0  0  0  0  0  0  0  0  0
   44.1950   27.3810   33.8990 H   0  0  0  0  0  0  0  0  0  0  0  0
   44.7450   25.1590   34.7720 H   0  0  0  0  0  0  0  0  0  0  0  0
   42.8830   23.6550   35.4220 H   0  0  0  0  0  0  0  0  0  0  0  0
   35.8890   26.8110   31.4140 C   0  0  0  0  0  0  0  0  0  0  0  0
   35.0700   27.4250   31.0920 H   0  0  0  0  0  0  0  0  0  0  0  0
   35.5910   26.5260   32.4840 H   0  0  0  0  0  0  0  0  0  0  0  0
   36.1560   25.5680   30.7890 N   0  0  0  0  0  0  0  0  0  0  0  0
   37.0020   25.5230   30.1950 H   0  0  0  0  0  0  0  0  0  0  0  0
   35.9380   24.3920   31.5460 C   0  0  0  0  0  0  0  0  0  0  0  0
   35.7440   24.6370   32.6130 H   0  0  0  0  0  0  0  0  0  0  0  0
   35.0180   23.9070   31.1780 H   0  0  0  0  0  0  0  0  0  0  0  0
   37.1480   23.5200   31.4350 C   0  0  0  0  0  0  0  0  0  0  0  0
   37.4710   23.3630   30.3820 H   0  0  0  0  0  0  0  0  0  0  0  0
   37.9520   23.6300   32.1390 H   0  0  0  0  0  0  0  0  0  0  0  0
   36.6200   22.1640   31.7960 N   0  0  0  0  0  0  0  0  0  0  0  0
   35.2770   21.9790   31.9620 C   0  0  0  0  0  3  0  0  0  0  0  0
   34.7730   20.7390   32.2940 C   0  0  0  0  0  0  0  0  0  0  0  0
   33.7180   20.5880   32.4260 H   0  0  0  0  0  0  0  0  0  0  0  0
   35.6280   19.6710   32.4610 C   0  0  0  0  0  0  0  0  0  0  0  0
   35.2480   18.5130   32.7620 O   0  0  0  0  0  0  0  0  0  0  0  0
   36.9410   19.9010   32.2870 N   0  0  0  0  0  0  0  0  0  0  0  0
   37.4580   21.1000   31.9630 C   0  0  0  0  0  0  0  0  0  0  0  0
   38.6640   21.3580   31.7930 O   0  0  0  0  0  0  0  0  0  0  0  0
   37.6900   19.1670   32.3870 H   0  0  0  0  0  0  0  0  0  0  0  0
  1 10  1  0  0  0  0
  2  1  1  0  0  0  0
  3  1  1  0  0  0  0
  4  5  1  0  0  0  0
  5  6  1  0  0  0  0
  6 18  1  0  0  0  0
  6  7  2  0  0  0  0
  7 11  1  0  0  0  0
  8  7  1  0  0  0  0
  8 12  1  0  0  0  0
  9 13  1  0  0  0  0
  9  8  2  0  0  0  0
 10  5  2  0  0  0  0
 10  9  1  0  0  0  0
 14 15  1  0  0  0  0
 15 21  1  0  0  0  0
 15 16  2  0  0  0  0
 16 22  1  0  0  0  0
 17 16  1  0  0  0  0
 18 17  2  0  0  0  0
 19 14  2  0  0  0  0
 19 18  1  0  0  0  0
 20 14  1  0  0  0  0
 23  1  1  0  0  0  0
 23 25  1  0  0  0  0
 24 23  1  0  0  0  0
 26 23  1  0  0  0  0
 26 28  1  0  0  0  0
 27 26  1  0  0  0  0
 28 29  1  0  0  0  0
 30 28  1  0  0  0  0
 31 28  1  0  0  0  0
 31 34  1  0  0  0  0
 31 33  1  0  0  0  0
 32 31  1  0  0  0  0
 34 35  1  0  0  0  0
 34 41  1  0  0  0  0
 35 36  2  0  0  0  0
 36 37  1  0  0  0  0
 36 38  1  0  0  0  0
 38 39  2  0  0  0  0
 40 43  1  0  0  0  0
 40 38  1  0  0  0  0
 41 40  1  0  0  0  0
 42 41  2  0  0  0  0
M  END
>  <minimizedAffinity>
-5.34679508

$$$$

 OpenBabel03262520143D

 43 45  0  0  0  0  0  0  0  0999 V2000
   37.0170   27.4630   31.7430 C   0  0  0  0  0  0  0  0  0  0  0  0
   37.7160   27.4040   30.8630 H   0  0  0  0  0  0  0  0  0  0  0  0
   36.6140   28.5130   31.7080 H   0  0  0  0  0  0  0  0  0  0  0  0
   40.0470   26.6240   31.3910 Br  0  0  0  0  0  0  0  0  0  0  0  0
   39.1240   27.0030   33.0350 C   0  0  0  0  0  0  0  0  0  0  0  0
   39.7840   26.9220   34.2340 C   0  0  0  0  0  0  0  0  0  0  0  0
   39.0750   27.1920   35.3740 C   0  0  0  0  0  0  0  0  0  0  0  0
   37.7320   27.5400   35.3540 C   0  0  0  0  0  0  0  0  0  0  0  0
   37.0950   27.6110   34.1080 C   0  0  0  0  0  0  0  0  0  0  0  0
   37.8000   27.3420   32.9680 C   0  0  0  0  0  0  0  0  0  0  0  0
   39.6520   27.1140   36.3110 H   0  0  0  0  0  0  0  0  0  0  0  0
   37.3200   27.7200   36.3340 H   0  0  0  0  0  0  0  0  0  0  0  0
   36.0850   27.8730   34.3050 H   0  0  0  0  0  0  0  0  0  0  0  0
   42.7880   24.9930   34.9840 C   0  0  0  0  0  0  0  0  0  0  0  0
   43.8440   25.7960   34.4700 C   0  0  0  0  0  0  0  0  0  0  0  0
   43.4890   26.9900   33.8740 C   0  0  0  0  0  0  0  0  0  0  0  0
   42.1640   27.3580   33.7970 N   0  0  0  0  0  0  0  0  0  0  0  0
   41.2040   26.5560   34.3020 C   0  0  0  0  0  0  0  0  0  0  0  0
   41.5260   25.3920   34.8840 N   0  0  0  0  0  0  0  0  0  0  0  0
   43.0910   24.0720   35.4410 H   0  0  0  0  0  0  0  0  0  0  0  0
   44.8820   25.4830   34.5440 H   0  0  0  0  0  0  0  0  0  0  0  0
   44.2630   27.6310   33.4710 H   0  0  0  0  0  0  0  0  0  0  0  0
   35.8680   26.5360   31.5750 C   0  0  0  0  0  0  0  0  0  0  0  0
   34.9070   26.9980   31.6920 H   0  0  0  0  0  0  0  0  0  0  0  0
   35.9430   25.8590   32.4970 H   0  0  0  0  0  0  0  0  0  0  0  0
   36.1280   25.6640   30.4890 N   0  0  0  0  0  0  0  0  0  0  0  0
   36.2910   26.1110   29.5690 H   0  0  0  0  0  0  0  0  0  0  0  0
   36.9660   24.5500   30.7270 C   0  0  0  0  0  0  0  0  0  0  0  0
   37.5080   24.2540   29.8020 H   0  0  0  0  0  0  0  0  0  0  0  0
   37.7470   24.8490   31.4480 H   0  0  0  0  0  0  0  0  0  0  0  0
   36.1250   23.4120   31.2100 C   0  0  0  0  0  0  0  0  0  0  0  0
   35.1330   23.7410   31.5930 H   0  0  0  0  0  0  0  0  0  0  0  0
   36.1090   22.4890   30.6630 H   0  0  0  0  0  0  0  0  0  0  0  0
   36.8150   22.9960   32.4750 N   0  0  0  0  0  0  0  0  0  0  0  0
   37.8240   23.7620   32.9840 C   0  0  0  0  0  3  0  0  0  0  0  0
   38.4700   23.3950   34.1450 C   0  0  0  0  0  0  0  0  0  0  0  0
   39.2640   23.9950   34.5490 H   0  0  0  0  0  0  0  0  0  0  0  0
   38.0990   22.2440   34.8050 C   0  0  0  0  0  0  0  0  0  0  0  0
   38.6360   21.8430   35.8670 O   0  0  0  0  0  0  0  0  0  0  0  0
   37.1000   21.5220   34.2670 N   0  0  0  0  0  0  0  0  0  0  0  0
   36.4540   21.8570   33.1370 C   0  0  0  0  0  0  0  0  0  0  0  0
   35.5270   21.2210   32.6030 O   0  0  0  0  0  0  0  0  0  0  0  0
   36.7290   20.6260   34.6780 H   0  0  0  0  0  0  0  0  0  0  0  0
  1 10  1  0  0  0  0
  2  1  1  0  0  0  0
  3  1  1  0  0  0  0
  4  5  1  0  0  0  0
  5  6  1  0  0  0  0
  6 18  1  0  0  0  0
  6  7  2  0  0  0  0
  7 11  1  0  0  0  0
  8  7  1  0  0  0  0
  8 12  1  0  0  0  0
  9 13  1  0  0  0  0
  9  8  2  0  0  0  0
 10  5  2  0  0  0  0
 10  9  1  0  0  0  0
 14 20  1  0  0  0  0
 15 21  1  0  0  0  0
 15 14  2  0  0  0  0
 16 15  1  0  0  0  0
 17 16  2  0  0  0  0
 17 18  1  0  0  0  0
 18 19  2  0  0  0  0
 19 14  1  0  0  0  0
 22 16  1  0  0  0  0
 23 24  1  0  0  0  0
 23  1  1  0  0  0  0
 23 25  1  0  0  0  0
 26 28  1  0  0  0  0
 26 23  1  0  0  0  0
 27 26  1  0  0  0  0
 28 31  1  0  0  0  0
 28 30  1  0  0  0  0
 29 28  1  0  0  0  0
 31 32  1  0  0  0  0
 31 34  1  0  0  0  0
 33 31  1  0  0  0  0
 34 35  1  0  0  0  0
 34 41  1  0  0  0  0
 35 36  2  0  0  0  0
 36 37  1  0  0  0  0
 36 38  1  0  0  0  0
 38 39  2  0  0  0  0
 40 43  1  0  0  0  0
 40 38  1  0  0  0  0
 41 40  1  0  0  0  0
 42 41  2  0  0  0  0
M  END
>  <minimizedAffinity>
-5.33530378

$$$$

 OpenBabel03262520143D

 43 45  0  0  0  0  0  0  0  0999 V2000
   41.4570   26.9470   34.0800 C   0  0  0  0  0  0  0  0  0  0  0  0
   41.7110   27.9690   34.4760 H   0  0  0  0  0  0  0  0  0  0  0  0
   41.6030   27.0360   32.9680 H   0  0  0  0  0  0  0  0  0  0  0  0
   39.7210   26.2680   31.5240 Br  0  0  0  0  0  0  0  0  0  0  0  0
   39.1200   26.3810   33.3470 C   0  0  0  0  0  0  0  0  0  0  0  0
   37.8040   26.1540   33.6570 C   0  0  0  0  0  0  0  0  0  0  0  0
   37.4290   26.2580   34.9700 C   0  0  0  0  0  0  0  0  0  0  0  0
   38.3250   26.5790   35.9800 C   0  0  0  0  0  0  0  0  0  0  0  0
   39.6610   26.8020   35.6200 C   0  0  0  0  0  0  0  0  0  0  0  0
   40.0380   26.6990   34.3100 C   0  0  0  0  0  0  0  0  0  0  0  0
   36.3610   26.0660   35.1660 H   0  0  0  0  0  0  0  0  0  0  0  0
   37.8730   26.6210   36.9580 H   0  0  0  0  0  0  0  0  0  0  0  0
   40.1740   27.0440   36.5180 H   0  0  0  0  0  0  0  0  0  0  0  0
   35.7620   24.1350   31.4070 C   0  0  0  0  0  0  0  0  0  0  0  0
   34.9950   25.0960   30.6900 C   0  0  0  0  0  0  0  0  0  0  0  0
   35.2050   26.4240   31.0050 C   0  0  0  0  0  0  0  0  0  0  0  0
   36.1210   26.7700   31.9730 N   0  0  0  0  0  0  0  0  0  0  0  0
   36.8210   25.8150   32.6210 C   0  0  0  0  0  0  0  0  0  0  0  0
   36.6330   24.5190   32.3310 N   0  0  0  0  0  0  0  0  0  0  0  0
   35.5810   23.1120   31.1430 H   0  0  0  0  0  0  0  0  0  0  0  0
   34.2790   24.7960   29.9300 H   0  0  0  0  0  0  0  0  0  0  0  0
   34.6410   27.1870   30.4820 H   0  0  0  0  0  0  0  0  0  0  0  0
   42.4160   25.9270   34.5780 C   0  0  0  0  0  0  0  0  0  0  0  0
   42.3390   25.7250   35.6290 H   0  0  0  0  0  0  0  0  0  0  0  0
   43.4280   26.4570   34.4900 H   0  0  0  0  0  0  0  0  0  0  0  0
   42.5000   24.8690   33.6380 N   0  0  0  0  0  0  0  0  0  0  0  0
   43.3100   24.8900   32.9930 H   0  0  0  0  0  0  0  0  0  0  0  0
   42.1720   23.5680   34.0840 C   0  0  0  0  0  0  0  0  0  0  0  0
   41.3080   23.1590   33.5160 H   0  0  0  0  0  0  0  0  0  0  0  0
   43.0200   22.8980   33.8610 H   0  0  0  0  0  0  0  0  0  0  0  0
   41.8390   23.6290   35.5410 C   0  0  0  0  0  0  0  0  0  0  0  0
   42.4080   22.8880   36.1450 H   0  0  0  0  0  0  0  0  0  0  0  0
   41.6990   24.5810   36.0170 H   0  0  0  0  0  0  0  0  0  0  0  0
   40.4520   23.0620   35.5950 N   0  0  0  0  0  0  0  0  0  0  0  0
   39.7070   22.9790   34.4530 C   0  0  0  0  0  3  0  0  0  0  0  0
   38.4290   22.4610   34.4840 C   0  0  0  0  0  0  0  0  0  0  0  0
   37.8390   22.3930   33.5890 H   0  0  0  0  0  0  0  0  0  0  0  0
   37.8920   22.0210   35.6740 C   0  0  0  0  0  0  0  0  0  0  0  0
   36.7390   21.5360   35.7840 O   0  0  0  0  0  0  0  0  0  0  0  0
   38.6640   22.1230   36.7710 N   0  0  0  0  0  0  0  0  0  0  0  0
   39.9120   22.6230   36.7690 C   0  0  0  0  0  0  0  0  0  0  0  0
   40.6600   22.7370   37.7570 O   0  0  0  0  0  0  0  0  0  0  0  0
   38.3650   21.8210   37.7350 H   0  0  0  0  0  0  0  0  0  0  0  0
  1 10  1  0  0  0  0
  1  2  1  0  0  0  0
  1 23  1  0  0  0  0
  3  1  1  0  0  0  0
  4  5  1  0  0  0  0
  5  6  2  0  0  0  0
  5 10  1  0  0  0  0
  6  7  1  0  0  0  0
  7 11  1  0  0  0  0
  7  8  2  0  0  0  0
  8 12  1  0  0  0  0
  9  8  1  0  0  0  0
  9 13  1  0  0  0  0
 10  9  2  0  0  0  0
 14 19  1  0  0  0  0
 15 16  1  0  0  0  0
 15 14  2  0  0  0  0
 16 17  2  0  0  0  0
 17 18  1  0  0  0  0
 18  6  1  0  0  0  0
 19 18  2  0  0  0  0
 20 14  1  0  0  0  0
 21 15  1  0  0  0  0
 22 16  1  0  0  0  0
 23 24  1  0  0  0  0
 25 23  1  0  0  0  0
 26 28  1  0  0  0  0
 26 23  1  0  0  0  0
 27 26  1  0  0  0  0
 28 31  1  0  0  0  0
 29 28  1  0  0  0  0
 30 28  1  0  0  0  0
 31 34  1  0  0  0  0
 31 33  1  0  0  0  0
 31 32  1  0  0  0  0
 34 41  1  0  0  0  0
 35 36  2  0  0  0  0
 35 34  1  0  0  0  0
 36 38  1  0  0  0  0
 37 36  1  0  0  0  0
 38 39  2  0  0  0  0
 38 40  1  0  0  0  0
 40 43  1  0  0  0  0
 41 40  1  0  0  0  0
 41 42  2  0  0  0  0
M  END
>  <minimizedAffinity>
-5.30268431

$$$$

 OpenBabel03262520143D

 43 45  0  0  0  0  0  0  0  0999 V2000
   36.5800   27.4130   32.6160 C   0  0  0  0  0  0  0  0  0  0  0  0
   36.6910   27.2790   31.5050 H   0  0  0  0  0  0  0  0  0  0  0  0
   35.6780   26.7950   32.8820 H   0  0  0  0  0  0  0  0  0  0  0  0
   36.8560   29.4140   30.1820 Br  0  0  0  0  0  0  0  0  0  0  0  0
   36.2840   29.8240   31.9710 C   0  0  0  0  0  0  0  0  0  0  0  0
   35.9390   31.1070   32.3110 C   0  0  0  0  0  0  0  0  0  0  0  0
   35.5490   31.3450   33.6010 C   0  0  0  0  0  0  0  0  0  0  0  0
   35.4910   30.3440   34.5610 C   0  0  0  0  0  0  0  0  0  0  0  0
   35.8520   29.0460   34.1730 C   0  0  0  0  0  0  0  0  0  0  0  0
   36.2420   28.8060   32.8850 C   0  0  0  0  0  0  0  0  0  0  0  0
   35.2810   32.3910   33.8220 H   0  0  0  0  0  0  0  0  0  0  0  0
   35.1660   30.6930   35.5270 H   0  0  0  0  0  0  0  0  0  0  0  0
   35.7570   28.4400   35.0390 H   0  0  0  0  0  0  0  0  0  0  0  0
   34.8450   33.4240   29.7120 C   0  0  0  0  0  0  0  0  0  0  0  0
   35.9950   34.2260   29.4680 C   0  0  0  0  0  0  0  0  0  0  0  0
   37.1240   33.9450   30.2110 C   0  0  0  0  0  0  0  0  0  0  0  0
   37.1060   32.9270   31.1390 N   0  0  0  0  0  0  0  0  0  0  0  0
   35.9870   32.1970   31.3290 C   0  0  0  0  0  0  0  0  0  0  0  0
   34.8790   32.4540   30.6180 N   0  0  0  0  0  0  0  0  0  0  0  0
   33.9830   33.6620   29.1220 H   0  0  0  0  0  0  0  0  0  0  0  0
   35.9830   35.0230   28.7290 H   0  0  0  0  0  0  0  0  0  0  0  0
   38.0200   34.5320   30.0550 H   0  0  0  0  0  0  0  0  0  0  0  0
   37.7430   26.8430   33.3430 C   0  0  0  0  0  0  0  0  0  0  0  0
   38.2110   27.5210   34.0290 H   0  0  0  0  0  0  0  0  0  0  0  0
   38.5320   26.7250   32.5190 H   0  0  0  0  0  0  0  0  0  0  0  0
   37.4460   25.5110   33.7260 N   0  0  0  0  0  0  0  0  0  0  0  0
   36.9140   24.9430   33.0430 H   0  0  0  0  0  0  0  0  0  0  0  0
   38.4550   24.7810   34.3970 C   0  0  0  0  0  0  0  0  0  0  0  0
   38.5760   23.7690   33.9520 H   0  0  0  0  0  0  0  0  0  0  0  0
   39.4190   25.2940   34.2400 H   0  0  0  0  0  0  0  0  0  0  0  0
   38.0800   24.6610   35.8400 C   0  0  0  0  0  0  0  0  0  0  0  0
   38.3100   25.5800   36.4230 H   0  0  0  0  0  0  0  0  0  0  0  0
   37.1640   24.1740   36.1150 H   0  0  0  0  0  0  0  0  0  0  0  0
   39.1000   23.7010   36.3750 N   0  0  0  0  0  0  0  0  0  0  0  0
   40.1360   23.2970   35.5820 C   0  0  0  0  0  3  0  0  0  0  0  0
   41.0840   22.4150   36.0560 C   0  0  0  0  0  0  0  0  0  0  0  0
   41.9000   22.0940   35.4360 H   0  0  0  0  0  0  0  0  0  0  0  0
   40.9900   21.9300   37.3430 C   0  0  0  0  0  0  0  0  0  0  0  0
   41.8110   21.1260   37.8470 O   0  0  0  0  0  0  0  0  0  0  0  0
   39.9530   22.3550   38.0860 N   0  0  0  0  0  0  0  0  0  0  0  0
   39.0170   23.2150   37.6470 C   0  0  0  0  0  0  0  0  0  0  0  0
   38.0420   23.6350   38.2990 O   0  0  0  0  0  0  0  0  0  0  0  0
   39.7750   22.0570   39.0800 H   0  0  0  0  0  0  0  0  0  0  0  0
  1  3  1  0  0  0  0
  1 10  1  0  0  0  0
  1 23  1  0  0  0  0
  2  1  1  0  0  0  0
  4  5  1  0  0  0  0
  5  6  2  0  0  0  0
  5 10  1  0  0  0  0
  6  7  1  0  0  0  0
  7 11  1  0  0  0  0
  7  8  2  0  0  0  0
  8 12  1  0  0  0  0
  9  8  1  0  0  0  0
  9 13  1  0  0  0  0
 10  9  2  0  0  0  0
 14 19  1  0  0  0  0
 15 14  2  0  0  0  0
 15 16  1  0  0  0  0
 16 17  2  0  0  0  0
 17 18  1  0  0  0  0
 18  6  1  0  0  0  0
 19 18  2  0  0  0  0
 20 14  1  0  0  0  0
 21 15  1  0  0  0  0
 22 16  1  0  0  0  0
 23 26  1  0  0  0  0
 23 24  1  0  0  0  0
 25 23  1  0  0  0  0
 26 28  1  0  0  0  0
 27 26  1  0  0  0  0
 28 31  1  0  0  0  0
 29 28  1  0  0  0  0
 30 28  1  0  0  0  0
 31 33  1  0  0  0  0
 31 34  1  0  0  0  0
 31 32  1  0  0  0  0
 34 41  1  0  0  0  0
 35 36  2  0  0  0  0
 35 34  1  0  0  0  0
 36 38  1  0  0  0  0
 37 36  1  0  0  0  0
 38 39  2  0  0  0  0
 38 40  1  0  0  0  0
 40 43  1  0  0  0  0
 41 40  1  0  0  0  0
 41 42  2  0  0  0  0
M  END
>  <minimizedAffinity>
-5.28098917

$$$$

 OpenBabel03262520143D

 43 45  0  0  0  0  0  0  0  0999 V2000
   37.0070   27.4540   32.9310 C   0  0  0  0  0  0  0  0  0  0  0  0
   37.9300   27.9690   32.5460 H   0  0  0  0  0  0  0  0  0  0  0  0
   36.8200   27.9300   33.9330 H   0  0  0  0  0  0  0  0  0  0  0  0
   38.6680   26.8250   35.5500 Br  0  0  0  0  0  0  0  0  0  0  0  0
   38.0210   25.5670   34.2470 C   0  0  0  0  0  0  0  0  0  0  0  0
   38.2670   24.2270   34.3980 C   0  0  0  0  0  0  0  0  0  0  0  0
   37.7930   23.3760   33.4340 C   0  0  0  0  0  0  0  0  0  0  0  0
   37.0830   23.8220   32.3290 C   0  0  0  0  0  0  0  0  0  0  0  0
   36.8530   25.2000   32.2120 C   0  0  0  0  0  0  0  0  0  0  0  0
   37.3250   26.0510   33.1730 C   0  0  0  0  0  0  0  0  0  0  0  0
   38.0170   22.3100   33.6030 H   0  0  0  0  0  0  0  0  0  0  0  0
   36.7800   23.0290   31.6640 H   0  0  0  0  0  0  0  0  0  0  0  0
   36.3150   25.3360   31.3070 H   0  0  0  0  0  0  0  0  0  0  0  0
   41.0690   23.0040   36.3890 C   0  0  0  0  0  0  0  0  0  0  0  0
   40.4920   22.7440   37.6630 C   0  0  0  0  0  0  0  0  0  0  0  0
   39.1420   22.9990   37.8020 C   0  0  0  0  0  0  0  0  0  0  0  0
   38.4160   23.4830   36.7370 N   0  0  0  0  0  0  0  0  0  0  0  0
   39.0160   23.7110   35.5500 C   0  0  0  0  0  0  0  0  0  0  0  0
   40.3260   23.4710   35.3930 N   0  0  0  0  0  0  0  0  0  0  0  0
   42.1180   22.7980   36.3070 H   0  0  0  0  0  0  0  0  0  0  0  0
   41.0880   22.3620   38.4880 H   0  0  0  0  0  0  0  0  0  0  0  0
   38.6640   22.8140   38.7560 H   0  0  0  0  0  0  0  0  0  0  0  0
   35.8320   27.7470   32.0700 C   0  0  0  0  0  0  0  0  0  0  0  0
   35.3500   26.8760   31.6700 H   0  0  0  0  0  0  0  0  0  0  0  0
   36.3030   28.2290   31.1430 H   0  0  0  0  0  0  0  0  0  0  0  0
   35.0760   28.7930   32.6540 N   0  0  0  0  0  0  0  0  0  0  0  0
   34.0770   28.5920   32.8380 H   0  0  0  0  0  0  0  0  0  0  0  0
   35.6910   29.5580   33.6730 C   0  0  0  0  0  0  0  0  0  0  0  0
   35.9180   28.9290   34.5600 H   0  0  0  0  0  0  0  0  0  0  0  0
   36.6680   29.9120   33.3000 H   0  0  0  0  0  0  0  0  0  0  0  0
   34.7700   30.6720   34.0590 C   0  0  0  0  0  0  0  0  0  0  0  0
   34.1020   30.9860   33.2270 H   0  0  0  0  0  0  0  0  0  0  0  0
   34.3090   30.6710   35.0280 H   0  0  0  0  0  0  0  0  0  0  0  0
   35.6920   31.8490   34.1690 N   0  0  0  0  0  0  0  0  0  0  0  0
   36.1110   32.4930   33.0390 C   0  0  0  0  0  3  0  0  0  0  0  0
   36.9590   33.5770   33.1210 C   0  0  0  0  0  0  0  0  0  0  0  0
   37.2910   34.0880   32.2360 H   0  0  0  0  0  0  0  0  0  0  0  0
   37.3930   34.0210   34.3520 C   0  0  0  0  0  0  0  0  0  0  0  0
   38.1640   34.9990   34.5090 O   0  0  0  0  0  0  0  0  0  0  0  0
   36.9550   33.3550   35.4350 N   0  0  0  0  0  0  0  0  0  0  0  0
   36.1280   32.2960   35.3820 C   0  0  0  0  0  0  0  0  0  0  0  0
   35.6980   31.6510   36.3560 O   0  0  0  0  0  0  0  0  0  0  0  0
   37.2160   33.5990   36.4260 H   0  0  0  0  0  0  0  0  0  0  0  0
  1 10  1  0  0  0  0
  1  3  1  0  0  0  0
  2  1  1  0  0  0  0
  5  6  1  0  0  0  0
  5  4  1  0  0  0  0
  6 18  1  0  0  0  0
  7 11  1  0  0  0  0
  7  6  2  0  0  0  0
  8  7  1  0  0  0  0
  9  8  2  0  0  0  0
  9 10  1  0  0  0  0
 10  5  2  0  0  0  0
 12  8  1  0  0  0  0
 13  9  1  0  0  0  0
 14 15  1  0  0  0  0
 15 16  2  0  0  0  0
 15 21  1  0  0  0  0
 16 22  1  0  0  0  0
 17 16  1  0  0  0  0
 18 17  2  0  0  0  0
 19 18  1  0  0  0  0
 19 14  2  0  0  0  0
 20 14  1  0  0  0  0
 23 26  1  0  0  0  0
 23  1  1  0  0  0  0
 24 23  1  0  0  0  0
 25 23  1  0  0  0  0
 26 27  1  0  0  0  0
 26 28  1  0  0  0  0
 28 31  1  0  0  0  0
 28 29  1  0  0  0  0
 30 28  1  0  0  0  0
 31 34  1  0  0  0  0
 31 33  1  0  0  0  0
 32 31  1  0  0  0  0
 34 41  1  0  0  0  0
 35 36  2  0  0  0  0
 35 34  1  0  0  0  0
 36 38  1  0  0  0  0
 37 36  1  0  0  0  0
 38 39  2  0  0  0  0
 38 40  1  0  0  0  0
 40 43  1  0  0  0  0
 41 40  1  0  0  0  0
 41 42  2  0  0  0  0
M  END
>  <minimizedAffinity>
-5.14214087

$$$$
