
 OpenBabel03262520123D

 43 45  0  0  0  0  0  0  0  0999 V2000
   35.2920   30.4620   49.4430 C   0  0  0  0  0  0  0  0  0  0  0  0
   34.9950   31.4980   49.7660 H   0  0  0  0  0  0  0  0  0  0  0  0
   36.1890   30.2190   50.0770 H   0  0  0  0  0  0  0  0  0  0  0  0
   38.1970   31.6190   48.9660 Br  0  0  0  0  0  0  0  0  0  0  0  0
   36.9650   30.9720   47.6390 C   0  0  0  0  0  0  0  0  0  0  0  0
   37.3110   30.9800   46.3120 C   0  0  0  0  0  0  0  0  0  0  0  0
   36.3920   30.5180   45.4080 C   0  0  0  0  0  0  0  0  0  0  0  0
   35.1420   30.0490   45.7870 C   0  0  0  0  0  0  0  0  0  0  0  0
   34.8280   30.0580   47.1540 C   0  0  0  0  0  0  0  0  0  0  0  0
   35.7450   30.5180   48.0580 C   0  0  0  0  0  0  0  0  0  0  0  0
   36.7180   30.5450   44.3550 H   0  0  0  0  0  0  0  0  0  0  0  0
   34.5360   29.7220   44.9580 H   0  0  0  0  0  0  0  0  0  0  0  0
   33.8390   29.6800   47.2330 H   0  0  0  0  0  0  0  0  0  0  0  0
   39.8610   33.2570   45.0370 C   0  0  0  0  0  0  0  0  0  0  0  0
   41.0420   32.4640   45.0130 C   0  0  0  0  0  0  0  0  0  0  0  0
   40.9270   31.1560   45.4400 C   0  0  0  0  0  0  0  0  0  0  0  0
   39.7090   30.6710   45.8640 N   0  0  0  0  0  0  0  0  0  0  0  0
   38.6210   31.4690   45.8650 C   0  0  0  0  0  0  0  0  0  0  0  0
   38.7110   32.7430   45.4550 N   0  0  0  0  0  0  0  0  0  0  0  0
   39.9780   34.2670   44.7010 H   0  0  0  0  0  0  0  0  0  0  0  0
   41.9910   32.8710   44.6730 H   0  0  0  0  0  0  0  0  0  0  0  0
   41.8020   30.5180   45.4370 H   0  0  0  0  0  0  0  0  0  0  0  0
   34.2300   29.4760   49.7720 C   0  0  0  0  0  0  0  0  0  0  0  0
   33.2440   29.7690   49.4670 H   0  0  0  0  0  0  0  0  0  0  0  0
   34.1720   29.5280   50.9160 H   0  0  0  0  0  0  0  0  0  0  0  0
   34.7120   28.1690   49.5130 N   0  0  0  0  0  0  0  0  0  0  0  0
   35.1710   27.6820   50.3030 H   0  0  0  0  0  0  0  0  0  0  0  0
   33.9070   27.3170   48.7210 C   0  0  0  0  0  0  0  0  0  0  0  0
   34.2640   27.2970   47.6690 H   0  0  0  0  0  0  0  0  0  0  0  0
   34.0200   26.2850   49.0940 H   0  0  0  0  0  0  0  0  0  0  0  0
   32.4950   27.8090   48.7710 C   0  0  0  0  0  0  0  0  0  0  0  0
   31.9330   27.4210   49.6490 H   0  0  0  0  0  0  0  0  0  0  0  0
   32.2760   28.8280   48.5140 H   0  0  0  0  0  0  0  0  0  0  0  0
   31.8410   27.0710   47.6410 N   0  0  0  0  0  0  0  0  0  0  0  0
   31.7750   25.7070   47.6680 C   0  0  0  0  0  3  0  0  0  0  0  0
   31.1760   25.0110   46.6390 C   0  0  0  0  0  0  0  0  0  0  0  0
   31.1220   23.9400   46.6550 H   0  0  0  0  0  0  0  0  0  0  0  0
   30.6350   25.6930   45.5700 C   0  0  0  0  0  0  0  0  0  0  0  0
   30.0750   25.1320   44.5970 O   0  0  0  0  0  0  0  0  0  0  0  0
   30.7240   27.0350   45.5880 N   0  0  0  0  0  0  0  0  0  0  0  0
   31.3030   27.7360   46.5780 C   0  0  0  0  0  0  0  0  0  0  0  0
   31.4060   28.9750   46.6370 O   0  0  0  0  0  0  0  0  0  0  0  0
   30.3500   27.6630   44.8300 H   0  0  0  0  0  0  0  0  0  0  0  0
  1  2  1  0  0  0  0
  1 23  1  0  0  0  0
  1  3  1  0  0  0  0
  5 10  1  0  0  0  0
  5  4  1  0  0  0  0
  6  5  2  0  0  0  0
  7  8  2  0  0  0  0
  7  6  1  0  0  0  0
  8  9  1  0  0  0  0
  9 13  1  0  0  0  0
  9 10  2  0  0  0  0
 10  1  1  0  0  0  0
 11  7  1  0  0  0  0
 12  8  1  0  0  0  0
 14 19  1  0  0  0  0
 15 14  2  0  0  0  0
 15 16  1  0  0  0  0
 16 17  2  0  0  0  0
 17 18  1  0  0  0  0
 18  6  1  0  0  0  0
 19 18  2  0  0  0  0
 20 14  1  0  0  0  0
 21 15  1  0  0  0  0
 22 16  1  0  0  0  0
 23 25  1  0  0  0  0
 24 23  1  0  0  0  0
 26 23  1  0  0  0  0
 26 27  1  0  0  0  0
 28 31  1  0  0  0  0
 28 30  1  0  0  0  0
 28 26  1  0  0  0  0
 29 28  1  0  0  0  0
 31 32  1  0  0  0  0
 33 31  1  0  0  0  0
 34 35  1  0  0  0  0
 34 31  1  0  0  0  0
 36 37  1  0  0  0  0
 36 35  2  0  0  0  0
 38 40  1  0  0  0  0
 38 36  1  0  0  0  0
 39 38  2  0  0  0  0
 40 41  1  0  0  0  0
 41 42  2  0  0  0  0
 41 34  1  0  0  0  0
 43 40  1  0  0  0  0
M  END
>  <minimizedAffinity>
-5.29792833

>  <minimizedRMSD>
0.567735136

$$$$
