
 OpenBabel03272506503D

 35 37  0  0  1  0  0  0  0  0999 V2000
   34.5110   30.1950   49.1010 C   0  0  1  0  0  0  0  0  0  0  0  0
   34.1890   30.3140   47.6740 C   0  0  0  0  0  0  0  0  0  0  0  0
   34.3690   29.0860   46.8460 C   0  0  0  0  0  0  0  0  0  0  0  0
   33.9800   27.8140   47.4610 C   0  0  1  0  0  0  0  0  0  0  0  0
   34.3100   27.6820   48.9050 C   0  0  0  0  0  0  0  0  0  0  0  0
   34.0290   28.9160   49.7040 C   0  0  0  0  0  0  0  0  0  0  0  0
   33.9130   30.9950   49.6500 H   0  0  0  0  0  0  0  0  0  0  0  0
   34.6300   31.1410   47.1290 H   0  0  0  0  0  0  0  0  0  0  0  0
   33.0770   30.5500   47.6330 H   0  0  0  0  0  0  0  0  0  0  0  0
   33.9010   29.2340   45.8590 H   0  0  0  0  0  0  0  0  0  0  0  0
   35.4630   29.0480   46.6140 H   0  0  0  0  0  0  0  0  0  0  0  0
   34.6360   27.0250   46.9580 H   0  0  0  0  0  0  0  0  0  0  0  0
   33.8280   26.8550   49.4130 H   0  0  0  0  0  0  0  0  0  0  0  0
   35.4180   27.4900   49.0070 H   0  0  0  0  0  0  0  0  0  0  0  0
   32.8920   28.9890   49.7260 H   0  0  0  0  0  0  0  0  0  0  0  0
   34.2950   28.7280   50.7370 H   0  0  0  0  0  0  0  0  0  0  0  0
   32.6530   27.3270   47.2260 N   0  0  0  0  0  0  0  0  0  0  0  0
   32.1610   26.7020   46.1740 C   0  0  0  0  0  3  0  0  0  0  0  0
   30.8800   26.2600   46.0130 C   0  0  0  0  0  0  0  0  0  0  0  0
   30.5450   25.7560   45.1240 H   0  0  0  0  0  0  0  0  0  0  0  0
   29.9770   26.4790   47.0550 C   0  0  0  0  0  0  0  0  0  0  0  0
   28.7880   26.0910   46.9510 O   0  0  0  0  0  0  0  0  0  0  0  0
   30.4780   27.1250   48.1470 N   0  0  0  0  0  0  0  0  0  0  0  0
   31.7550   27.5310   48.2340 C   0  0  0  0  0  0  0  0  0  0  0  0
   31.9670   28.1050   49.3530 O   0  0  0  0  0  0  0  0  0  0  0  0
   29.7400   27.2500   48.8780 H   0  0  0  0  0  0  0  0  0  0  0  0
   36.7670   31.2530   48.6390 C   0  0  0  0  0  0  0  0  0  0  0  0
   35.9080   30.5280   49.4840 C   0  0  0  0  0  0  0  0  0  0  0  0
   36.4160   30.1330   50.7060 C   0  0  0  0  0  0  0  0  0  0  0  0
   37.6930   30.4490   51.0350 N   0  0  0  0  0  0  0  0  0  0  0  0
   38.4900   31.1500   50.1890 C   0  0  0  0  0  0  0  0  0  0  0  0
   38.0130   31.5500   48.9860 N   0  0  0  0  0  0  0  0  0  0  0  0
   36.4710   31.6080   47.6670 H   0  0  0  0  0  0  0  0  0  0  0  0
   35.9040   29.5800   51.4710 H   0  0  0  0  0  0  0  0  0  0  0  0
   39.5030   31.3600   50.5360 H   0  0  0  0  0  0  0  0  0  0  0  0
  1 28  1  0  0  0  0
  1  7  1  1  0  0  0
  1  6  1  0  0  0  0
  2  1  1  0  0  0  0
  3  4  1  0  0  0  0
  3  2  1  0  0  0  0
  4 12  1  6  0  0  0
  4  5  1  0  0  0  0
  5 14  1  0  0  0  0
  5 13  1  0  0  0  0
  5  6  1  0  0  0  0
  6 15  1  0  0  0  0
  6 16  1  0  0  0  0
  8  2  1  0  0  0  0
  9  2  1  0  0  0  0
 10  3  1  0  0  0  0
 11  3  1  0  0  0  0
 17  4  1  0  0  0  0
 17 24  1  0  0  0  0
 18 17  1  0  0  0  0
 19 18  2  0  0  0  0
 19 21  1  0  0  0  0
 20 19  1  0  0  0  0
 21 23  1  0  0  0  0
 22 21  2  0  0  0  0
 23 24  1  0  0  0  0
 23 26  1  0  0  0  0
 24 25  2  0  0  0  0
 27 32  2  0  0  0  0
 27 28  1  0  0  0  0
 28 29  2  0  0  0  0
 29 30  1  0  0  0  0
 29 34  1  0  0  0  0
 31 35  1  0  0  0  0
 31 30  2  0  0  0  0
 32 31  1  0  0  0  0
 33 27  1  0  0  0  0
M  END
>  <minimizedAffinity>
-5.30904913

>  <minimizedRMSD>
0.251245767

$$$$
