
 OpenBabel03272505563D

 35 37  0  0  1  0  0  0  0  0999 V2000
   37.9190   26.1940   33.3750 C   0  0  2  0  0  0  0  0  0  0  0  0
   38.8210   25.1930   34.0600 C   0  0  0  0  0  0  0  0  0  0  0  0
   38.5560   25.1050   35.5340 C   0  0  2  0  0  0  0  0  0  0  0  0
   38.6990   26.4540   36.1960 C   0  0  0  0  0  0  0  0  0  0  0  0
   37.8930   27.5030   35.5180 C   0  0  0  0  0  0  0  0  0  0  0  0
   37.1250   27.0310   34.3110 C   0  0  0  0  0  0  0  0  0  0  0  0
   38.5360   26.8240   32.7110 H   0  0  0  0  0  0  0  0  0  0  0  0
   38.6150   24.1730   33.6460 H   0  0  0  0  0  0  0  0  0  0  0  0
   39.8870   25.3940   33.8110 H   0  0  0  0  0  0  0  0  0  0  0  0
   37.4730   24.8360   35.6330 H   0  0  0  0  0  0  0  0  0  0  0  0
   38.5580   26.3680   37.2790 H   0  0  0  0  0  0  0  0  0  0  0  0
   39.7770   26.7490   36.0640 H   0  0  0  0  0  0  0  0  0  0  0  0
   37.0950   27.8130   36.2560 H   0  0  0  0  0  0  0  0  0  0  0  0
   38.4380   28.4500   35.3160 H   0  0  0  0  0  0  0  0  0  0  0  0
   36.8090   27.9490   33.7510 H   0  0  0  0  0  0  0  0  0  0  0  0
   36.2100   26.4920   34.6220 H   0  0  0  0  0  0  0  0  0  0  0  0
   39.3300   24.0960   36.1570 N   0  0  0  0  0  0  0  0  0  0  0  0
   40.5780   23.7630   35.7170 C   0  0  0  0  0  3  0  0  0  0  0  0
   41.3790   22.7880   36.2850 C   0  0  0  0  0  0  0  0  0  0  0  0
   42.3530   22.5760   35.8890 H   0  0  0  0  0  0  0  0  0  0  0  0
   40.8680   22.1100   37.3760 C   0  0  0  0  0  0  0  0  0  0  0  0
   41.5950   21.2370   37.8800 O   0  0  0  0  0  0  0  0  0  0  0  0
   39.6330   22.4160   37.8390 N   0  0  0  0  0  0  0  0  0  0  0  0
   38.9220   23.3860   37.2170 C   0  0  0  0  0  0  0  0  0  0  0  0
   37.7900   23.5990   37.7170 O   0  0  0  0  0  0  0  0  0  0  0  0
   39.2660   21.8950   38.6600 H   0  0  0  0  0  0  0  0  0  0  0  0
   36.9610   25.4750   32.4850 C   0  0  0  0  0  0  0  0  0  0  0  0
   36.0570   26.2800   31.7660 C   0  0  0  0  0  0  0  0  0  0  0  0
   35.1470   25.6060   30.9340 C   0  0  0  0  0  0  0  0  0  0  0  0
   35.1860   24.2280   30.8680 N   0  0  0  0  0  0  0  0  0  0  0  0
   36.0770   23.5000   31.5810 C   0  0  0  0  0  0  0  0  0  0  0  0
   36.9460   24.1270   32.3750 N   0  0  0  0  0  0  0  0  0  0  0  0
   35.9910   27.3460   31.7880 H   0  0  0  0  0  0  0  0  0  0  0  0
   34.4340   26.1790   30.3630 H   0  0  0  0  0  0  0  0  0  0  0  0
   36.0200   22.4360   31.4550 H   0  0  0  0  0  0  0  0  0  0  0  0
  1  7  1  6  0  0  0
  1  2  1  0  0  0  0
  1  6  1  0  0  0  0
  2  3  1  0  0  0  0
  3 10  1  1  0  0  0
  3 17  1  0  0  0  0
  3  4  1  0  0  0  0
  4 11  1  0  0  0  0
  5  4  1  0  0  0  0
  5 13  1  0  0  0  0
  6 16  1  0  0  0  0
  6  5  1  0  0  0  0
  8  2  1  0  0  0  0
  9  2  1  0  0  0  0
 12  4  1  0  0  0  0
 14  5  1  0  0  0  0
 15  6  1  0  0  0  0
 17 24  1  0  0  0  0
 18 17  1  0  0  0  0
 18 19  2  0  0  0  0
 19 21  1  0  0  0  0
 20 19  1  0  0  0  0
 21 23  1  0  0  0  0
 21 22  2  0  0  0  0
 23 26  1  0  0  0  0
 24 25  2  0  0  0  0
 24 23  1  0  0  0  0
 27  1  1  0  0  0  0
 28 33  1  0  0  0  0
 28 27  2  0  0  0  0
 29 28  1  0  0  0  0
 30 29  2  0  0  0  0
 30 31  1  0  0  0  0
 31 32  2  0  0  0  0
 32 27  1  0  0  0  0
 34 29  1  0  0  0  0
 35 31  1  0  0  0  0
M  END
>  <minimizedAffinity>
-6.13392115

$$$$

 OpenBabel03272505563D

 35 37  0  0  1  0  0  0  0  0999 V2000
   37.0500   27.9920   31.8560 C   0  0  2  0  0  0  0  0  0  0  0  0
   36.5130   28.6240   33.1190 C   0  0  0  0  0  0  0  0  0  0  0  0
   35.4640   29.6580   32.8350 C   0  0  2  0  0  0  0  0  0  0  0  0
   35.9910   30.7330   31.9150 C   0  0  0  0  0  0  0  0  0  0  0  0
   36.6050   30.1690   30.6840 C   0  0  0  0  0  0  0  0  0  0  0  0
   36.6050   28.6640   30.6080 C   0  0  0  0  0  0  0  0  0  0  0  0
   38.1520   27.9680   31.9180 H   0  0  0  0  0  0  0  0  0  0  0  0
   36.0120   27.8360   33.7370 H   0  0  0  0  0  0  0  0  0  0  0  0
   37.3470   28.9990   33.7530 H   0  0  0  0  0  0  0  0  0  0  0  0
   34.6650   29.1300   32.2530 H   0  0  0  0  0  0  0  0  0  0  0  0
   35.2350   31.5100   31.7590 H   0  0  0  0  0  0  0  0  0  0  0  0
   36.8220   31.2400   32.4790 H   0  0  0  0  0  0  0  0  0  0  0  0
   35.9460   30.4940   29.8260 H   0  0  0  0  0  0  0  0  0  0  0  0
   37.5980   30.5950   30.4230 H   0  0  0  0  0  0  0  0  0  0  0  0
   37.3300   28.3820   29.8000 H   0  0  0  0  0  0  0  0  0  0  0  0
   35.6060   28.2920   30.3110 H   0  0  0  0  0  0  0  0  0  0  0  0
   34.8890   30.1760   34.0210 N   0  0  0  0  0  0  0  0  0  0  0  0
   35.5950   30.9610   34.8870 C   0  0  0  0  0  3  0  0  0  0  0  0
   35.0870   31.4940   36.0580 C   0  0  0  0  0  0  0  0  0  0  0  0
   35.6970   32.1050   36.6950 H   0  0  0  0  0  0  0  0  0  0  0  0
   33.7690   31.2060   36.3630 C   0  0  0  0  0  0  0  0  0  0  0  0
   33.3210   31.6900   37.4160 O   0  0  0  0  0  0  0  0  0  0  0  0
   33.0410   30.4310   35.5250 N   0  0  0  0  0  0  0  0  0  0  0  0
   33.6240   29.9530   34.4010 C   0  0  0  0  0  0  0  0  0  0  0  0
   32.8710   29.2460   33.6880 O   0  0  0  0  0  0  0  0  0  0  0  0
   32.0520   30.2250   35.7710 H   0  0  0  0  0  0  0  0  0  0  0  0
   36.6140   26.5670   31.7850 C   0  0  0  0  0  0  0  0  0  0  0  0
   35.4350   26.3130   31.0590 C   0  0  0  0  0  0  0  0  0  0  0  0
   35.0160   24.9730   30.9990 C   0  0  0  0  0  0  0  0  0  0  0  0
   35.7610   24.0030   31.6390 N   0  0  0  0  0  0  0  0  0  0  0  0
   36.8880   24.3020   32.3260 C   0  0  0  0  0  0  0  0  0  0  0  0
   37.2980   25.5690   32.3900 N   0  0  0  0  0  0  0  0  0  0  0  0
   34.8280   27.0310   30.5510 H   0  0  0  0  0  0  0  0  0  0  0  0
   34.1180   24.7280   30.4530 H   0  0  0  0  0  0  0  0  0  0  0  0
   37.3900   23.4720   32.7850 H   0  0  0  0  0  0  0  0  0  0  0  0
  1  7  1  1  0  0  0
  1  2  1  0  0  0  0
  2  8  1  0  0  0  0
  2  9  1  0  0  0  0
  3 10  1  6  0  0  0
  3  2  1  0  0  0  0
  3 17  1  0  0  0  0
  4 12  1  0  0  0  0
  4  3  1  0  0  0  0
  5  4  1  0  0  0  0
  6  5  1  0  0  0  0
  6  1  1  0  0  0  0
 11  4  1  0  0  0  0
 13  5  1  0  0  0  0
 14  5  1  0  0  0  0
 15  6  1  0  0  0  0
 16  6  1  0  0  0  0
 17 24  1  0  0  0  0
 17 18  1  0  0  0  0
 18 19  2  0  0  0  0
 19 21  1  0  0  0  0
 19 20  1  0  0  0  0
 21 22  2  0  0  0  0
 23 26  1  0  0  0  0
 23 21  1  0  0  0  0
 24 23  1  0  0  0  0
 25 24  2  0  0  0  0
 27  1  1  0  0  0  0
 27 32  1  0  0  0  0
 28 27  2  0  0  0  0
 29 28  1  0  0  0  0
 29 30  2  0  0  0  0
 30 31  1  0  0  0  0
 31 32  2  0  0  0  0
 31 35  1  0  0  0  0
 33 28  1  0  0  0  0
 34 29  1  0  0  0  0
M  END
>  <minimizedAffinity>
-5.11898708

$$$$

 OpenBabel03272505563D

 35 37  0  0  1  0  0  0  0  0999 V2000
   38.4170   22.1700   34.3300 C   0  0  2  0  0  0  0  0  0  0  0  0
   38.6000   23.3830   33.4490 C   0  0  0  0  0  0  0  0  0  0  0  0
   37.3070   23.8570   32.8560 C   0  0  2  0  0  0  0  0  0  0  0  0
   36.6310   22.7580   32.0710 C   0  0  0  0  0  0  0  0  0  0  0  0
   36.4900   21.5070   32.8620 C   0  0  0  0  0  0  0  0  0  0  0  0
   37.0600   21.5700   34.2550 C   0  0  0  0  0  0  0  0  0  0  0  0
   39.1900   21.4270   34.0700 H   0  0  0  0  0  0  0  0  0  0  0  0
   38.9860   24.2320   34.0710 H   0  0  0  0  0  0  0  0  0  0  0  0
   39.3960   23.1990   32.6930 H   0  0  0  0  0  0  0  0  0  0  0  0
   36.6310   24.0640   33.7250 H   0  0  0  0  0  0  0  0  0  0  0  0
   35.7160   23.1300   31.5980 H   0  0  0  0  0  0  0  0  0  0  0  0
   37.3260   22.5170   31.2190 H   0  0  0  0  0  0  0  0  0  0  0  0
   35.3810   21.3570   33.0170 H   0  0  0  0  0  0  0  0  0  0  0  0
   36.8030   20.5820   32.3290 H   0  0  0  0  0  0  0  0  0  0  0  0
   37.1420   20.5120   34.6170 H   0  0  0  0  0  0  0  0  0  0  0  0
   36.3670   22.1060   34.9320 H   0  0  0  0  0  0  0  0  0  0  0  0
   37.4650   25.0520   32.1130 N   0  0  0  0  0  0  0  0  0  0  0  0
   37.0980   26.2690   32.6100 C   0  0  0  0  0  3  0  0  0  0  0  0
   37.2290   27.4680   31.9320 C   0  0  0  0  0  0  0  0  0  0  0  0
   36.9210   28.3920   32.3820 H   0  0  0  0  0  0  0  0  0  0  0  0
   37.7710   27.4170   30.6610 C   0  0  0  0  0  0  0  0  0  0  0  0
   37.8860   28.4990   30.0590 O   0  0  0  0  0  0  0  0  0  0  0  0
   38.1460   26.2260   30.1380 N   0  0  0  0  0  0  0  0  0  0  0  0
   37.9790   25.1040   30.8770 C   0  0  0  0  0  0  0  0  0  0  0  0
   38.3550   24.0490   30.3090 O   0  0  0  0  0  0  0  0  0  0  0  0
   38.5510   26.2070   29.1810 H   0  0  0  0  0  0  0  0  0  0  0  0
   38.6700   22.5420   35.7530 C   0  0  0  0  0  0  0  0  0  0  0  0
   39.9510   22.2440   36.2560 C   0  0  0  0  0  0  0  0  0  0  0  0
   40.1890   22.5850   37.5980 C   0  0  0  0  0  0  0  0  0  0  0  0
   39.1820   23.1760   38.3340 N   0  0  0  0  0  0  0  0  0  0  0  0
   37.9650   23.4410   37.8020 C   0  0  0  0  0  0  0  0  0  0  0  0
   37.7260   23.1230   36.5290 N   0  0  0  0  0  0  0  0  0  0  0  0
   40.7570   21.7870   35.7240 H   0  0  0  0  0  0  0  0  0  0  0  0
   41.1560   22.3770   38.0290 H   0  0  0  0  0  0  0  0  0  0  0  0
   37.2560   23.9020   38.4620 H   0  0  0  0  0  0  0  0  0  0  0  0
  1  7  1  6  0  0  0
  1 27  1  0  0  0  0
  2  8  1  0  0  0  0
  2  1  1  0  0  0  0
  3  2  1  0  0  0  0
  3 10  1  1  0  0  0
  4  3  1  0  0  0  0
  4  5  1  0  0  0  0
  5 13  1  0  0  0  0
  5  6  1  0  0  0  0
  6  1  1  0  0  0  0
  6 15  1  0  0  0  0
  6 16  1  0  0  0  0
  9  2  1  0  0  0  0
 11  4  1  0  0  0  0
 12  4  1  0  0  0  0
 14  5  1  0  0  0  0
 17 18  1  0  0  0  0
 17  3  1  0  0  0  0
 19 20  1  0  0  0  0
 19 18  2  0  0  0  0
 21 19  1  0  0  0  0
 22 21  2  0  0  0  0
 23 21  1  0  0  0  0
 23 24  1  0  0  0  0
 24 17  1  0  0  0  0
 25 24  2  0  0  0  0
 26 23  1  0  0  0  0
 27 28  2  0  0  0  0
 27 32  1  0  0  0  0
 28 29  1  0  0  0  0
 29 34  1  0  0  0  0
 29 30  2  0  0  0  0
 31 30  1  0  0  0  0
 31 35  1  0  0  0  0
 32 31  2  0  0  0  0
 33 28  1  0  0  0  0
M  END
>  <minimizedAffinity>
-5.0050683

$$$$

 OpenBabel03272505563D

 35 37  0  0  1  0  0  0  0  0999 V2000
   34.7080   30.5580   32.6690 C   0  0  2  0  0  0  0  0  0  0  0  0
   34.7990   29.0540   32.5530 C   0  0  0  0  0  0  0  0  0  0  0  0
   36.1440   28.6020   32.0690 C   0  0  2  0  0  0  0  0  0  0  0  0
   36.4890   29.2350   30.7420 C   0  0  0  0  0  0  0  0  0  0  0  0
   36.3440   30.7150   30.7700 C   0  0  0  0  0  0  0  0  0  0  0  0
   35.8660   31.2800   32.0820 C   0  0  0  0  0  0  0  0  0  0  0  0
   33.7620   30.8880   32.2060 H   0  0  0  0  0  0  0  0  0  0  0  0
   34.6650   28.6000   33.5680 H   0  0  0  0  0  0  0  0  0  0  0  0
   33.9530   28.6570   31.9480 H   0  0  0  0  0  0  0  0  0  0  0  0
   36.8860   29.0150   32.8000 H   0  0  0  0  0  0  0  0  0  0  0  0
   37.4480   28.8560   30.3730 H   0  0  0  0  0  0  0  0  0  0  0  0
   35.7220   28.8550   30.0120 H   0  0  0  0  0  0  0  0  0  0  0  0
   37.3850   31.1350   30.6440 H   0  0  0  0  0  0  0  0  0  0  0  0
   35.7860   31.1430   29.9080 H   0  0  0  0  0  0  0  0  0  0  0  0
   35.5340   32.3310   31.8780 H   0  0  0  0  0  0  0  0  0  0  0  0
   36.6980   31.3230   32.8100 H   0  0  0  0  0  0  0  0  0  0  0  0
   36.2620   27.1910   32.0570 N   0  0  0  0  0  0  0  0  0  0  0  0
   35.5610   26.4110   31.1830 C   0  0  0  0  0  3  0  0  0  0  0  0
   35.6360   25.0310   31.1260 C   0  0  0  0  0  0  0  0  0  0  0  0
   35.0560   24.4780   30.4120 H   0  0  0  0  0  0  0  0  0  0  0  0
   36.4850   24.4070   32.0210 C   0  0  0  0  0  0  0  0  0  0  0  0
   36.5460   23.1670   31.9620 O   0  0  0  0  0  0  0  0  0  0  0  0
   37.1950   25.1510   32.9010 N   0  0  0  0  0  0  0  0  0  0  0  0
   37.0570   26.4970   32.8840 C   0  0  0  0  0  0  0  0  0  0  0  0
   37.7550   27.1010   33.7350 O   0  0  0  0  0  0  0  0  0  0  0  0
   37.8280   24.6650   33.5670 H   0  0  0  0  0  0  0  0  0  0  0  0
   34.6150   30.9430   34.1080 C   0  0  0  0  0  0  0  0  0  0  0  0
   35.8140   31.3500   34.7220 C   0  0  0  0  0  0  0  0  0  0  0  0
   35.7320   31.7040   36.0790 C   0  0  0  0  0  0  0  0  0  0  0  0
   34.5130   31.6340   36.7220 N   0  0  0  0  0  0  0  0  0  0  0  0
   33.3870   31.2350   36.0850 C   0  0  0  0  0  0  0  0  0  0  0  0
   33.4510   30.8970   34.7960 N   0  0  0  0  0  0  0  0  0  0  0  0
   36.7780   31.4170   34.2640 H   0  0  0  0  0  0  0  0  0  0  0  0
   36.6250   32.0230   36.5940 H   0  0  0  0  0  0  0  0  0  0  0  0
   32.4940   31.2170   36.6790 H   0  0  0  0  0  0  0  0  0  0  0  0
  1  7  1  6  0  0  0
  1 27  1  0  0  0  0
  2  1  1  0  0  0  0
  2  8  1  0  0  0  0
  3  2  1  0  0  0  0
  3 10  1  1  0  0  0
  4  5  1  0  0  0  0
  4  3  1  0  0  0  0
  5  6  1  0  0  0  0
  6  1  1  0  0  0  0
  6 16  1  0  0  0  0
  9  2  1  0  0  0  0
 11  4  1  0  0  0  0
 12  4  1  0  0  0  0
 13  5  1  0  0  0  0
 14  5  1  0  0  0  0
 15  6  1  0  0  0  0
 17  3  1  0  0  0  0
 17 24  1  0  0  0  0
 18 17  1  0  0  0  0
 19 18  2  0  0  0  0
 19 21  1  0  0  0  0
 20 19  1  0  0  0  0
 21 23  1  0  0  0  0
 22 21  2  0  0  0  0
 23 26  1  0  0  0  0
 24 23  1  0  0  0  0
 24 25  2  0  0  0  0
 27 28  2  0  0  0  0
 27 32  1  0  0  0  0
 28 29  1  0  0  0  0
 29 34  1  0  0  0  0
 29 30  2  0  0  0  0
 31 35  1  0  0  0  0
 31 30  1  0  0  0  0
 32 31  2  0  0  0  0
 33 28  1  0  0  0  0
M  END
>  <minimizedAffinity>
-4.98238754

$$$$

 OpenBabel03272505563D

 35 37  0  0  1  0  0  0  0  0999 V2000
   38.8710   24.6820   34.2600 C   0  0  2  0  0  0  0  0  0  0  0  0
   38.2450   23.4680   33.6130 C   0  0  0  0  0  0  0  0  0  0  0  0
   37.6460   22.5320   34.6200 C   0  0  2  0  0  0  0  0  0  0  0  0
   38.6720   22.0920   35.6350 C   0  0  0  0  0  0  0  0  0  0  0  0
   39.3810   23.2430   36.2550 C   0  0  0  0  0  0  0  0  0  0  0  0
   38.9620   24.5960   35.7410 C   0  0  0  0  0  0  0  0  0  0  0  0
   39.8670   24.8430   33.8130 H   0  0  0  0  0  0  0  0  0  0  0  0
   37.4010   23.8000   32.9560 H   0  0  0  0  0  0  0  0  0  0  0  0
   38.9680   22.9780   32.9240 H   0  0  0  0  0  0  0  0  0  0  0  0
   36.8970   23.1390   35.1930 H   0  0  0  0  0  0  0  0  0  0  0  0
   38.2380   21.3670   36.3320 H   0  0  0  0  0  0  0  0  0  0  0  0
   39.4480   21.5160   35.0580 H   0  0  0  0  0  0  0  0  0  0  0  0
   39.0780   23.2500   37.3440 H   0  0  0  0  0  0  0  0  0  0  0  0
   40.4870   23.1410   36.2960 H   0  0  0  0  0  0  0  0  0  0  0  0
   39.7500   25.3230   36.0690 H   0  0  0  0  0  0  0  0  0  0  0  0
   38.0040   24.9050   36.2010 H   0  0  0  0  0  0  0  0  0  0  0  0
   36.9720   21.4480   34.0070 N   0  0  0  0  0  0  0  0  0  0  0  0
   37.2890   21.0110   32.7530 C   0  0  0  0  0  3  0  0  0  0  0  0
   36.6660   19.9590   32.1060 C   0  0  0  0  0  0  0  0  0  0  0  0
   36.9660   19.6660   31.1180 H   0  0  0  0  0  0  0  0  0  0  0  0
   35.6530   19.3110   32.7860 C   0  0  0  0  0  0  0  0  0  0  0  0
   35.1000   18.3670   32.1970 O   0  0  0  0  0  0  0  0  0  0  0  0
   35.3130   19.7190   34.0320 N   0  0  0  0  0  0  0  0  0  0  0  0
   35.9790   20.7590   34.5850 C   0  0  0  0  0  0  0  0  0  0  0  0
   35.5940   21.0640   35.7410 O   0  0  0  0  0  0  0  0  0  0  0  0
   34.5480   19.2190   34.5280 H   0  0  0  0  0  0  0  0  0  0  0  0
   38.0710   25.8960   33.9250 C   0  0  0  0  0  0  0  0  0  0  0  0
   37.5040   26.5880   35.0120 C   0  0  0  0  0  0  0  0  0  0  0  0
   36.7420   27.7260   34.6980 C   0  0  0  0  0  0  0  0  0  0  0  0
   36.5920   28.0950   33.3770 N   0  0  0  0  0  0  0  0  0  0  0  0
   37.1590   27.3930   32.3670 C   0  0  0  0  0  0  0  0  0  0  0  0
   37.8850   26.3110   32.6510 N   0  0  0  0  0  0  0  0  0  0  0  0
   37.5920   26.3370   36.0470 H   0  0  0  0  0  0  0  0  0  0  0  0
   36.2870   28.2900   35.4980 H   0  0  0  0  0  0  0  0  0  0  0  0
   36.9780   27.7680   31.3780 H   0  0  0  0  0  0  0  0  0  0  0  0
  1  7  1  6  0  0  0
  1  6  1  0  0  0  0
  2  1  1  0  0  0  0
  2  3  1  0  0  0  0
  3 10  1  1  0  0  0
  3  4  1  0  0  0  0
  4  5  1  0  0  0  0
  4 11  1  0  0  0  0
  5 14  1  0  0  0  0
  5 13  1  0  0  0  0
  6 15  1  0  0  0  0
  6 16  1  0  0  0  0
  6  5  1  0  0  0  0
  8  2  1  0  0  0  0
  9  2  1  0  0  0  0
 12  4  1  0  0  0  0
 17 24  1  0  0  0  0
 17  3  1  0  0  0  0
 18 17  1  0  0  0  0
 19 18  2  0  0  0  0
 19 21  1  0  0  0  0
 20 19  1  0  0  0  0
 21 23  1  0  0  0  0
 22 21  2  0  0  0  0
 23 26  1  0  0  0  0
 23 24  1  0  0  0  0
 24 25  2  0  0  0  0
 27  1  1  0  0  0  0
 27 28  1  0  0  0  0
 28 33  1  0  0  0  0
 29 28  2  0  0  0  0
 29 34  1  0  0  0  0
 30 29  1  0  0  0  0
 31 32  1  0  0  0  0
 31 30  2  0  0  0  0
 32 27  2  0  0  0  0
 35 31  1  0  0  0  0
M  END
>  <minimizedAffinity>
-4.9773736

$$$$

 OpenBabel03272505563D

 35 37  0  0  1  0  0  0  0  0999 V2000
   35.0460   31.6400   36.1320 C   0  0  2  0  0  0  0  0  0  0  0  0
   35.6850   30.9510   34.9490 C   0  0  0  0  0  0  0  0  0  0  0  0
   34.6800   30.5530   33.9100 C   0  0  2  0  0  0  0  0  0  0  0  0
   33.6100   29.6640   34.4970 C   0  0  0  0  0  0  0  0  0  0  0  0
   32.9930   30.2550   35.7150 C   0  0  0  0  0  0  0  0  0  0  0  0
   33.5610   31.5860   36.1310 C   0  0  0  0  0  0  0  0  0  0  0  0
   35.4550   31.1990   37.0570 H   0  0  0  0  0  0  0  0  0  0  0  0
   36.3870   31.6650   34.4450 H   0  0  0  0  0  0  0  0  0  0  0  0
   36.3300   30.1090   35.2890 H   0  0  0  0  0  0  0  0  0  0  0  0
   34.1550   31.4990   33.6150 H   0  0  0  0  0  0  0  0  0  0  0  0
   32.9120   29.3360   33.7190 H   0  0  0  0  0  0  0  0  0  0  0  0
   34.1380   28.7280   34.8320 H   0  0  0  0  0  0  0  0  0  0  0  0
   31.9180   30.4780   35.4450 H   0  0  0  0  0  0  0  0  0  0  0  0
   32.9030   29.5570   36.5750 H   0  0  0  0  0  0  0  0  0  0  0  0
   33.2210   31.7670   37.1840 H   0  0  0  0  0  0  0  0  0  0  0  0
   33.1510   32.3960   35.4990 H   0  0  0  0  0  0  0  0  0  0  0  0
   35.2900   30.0000   32.7580 N   0  0  0  0  0  0  0  0  0  0  0  0
   36.1130   28.9130   32.8250 C   0  0  0  0  0  3  0  0  0  0  0  0
   36.7350   28.3300   31.7350 C   0  0  0  0  0  0  0  0  0  0  0  0
   37.3710   27.4740   31.8570 H   0  0  0  0  0  0  0  0  0  0  0  0
   36.5000   28.8960   30.4960 C   0  0  0  0  0  0  0  0  0  0  0  0
   37.0630   28.3660   29.5240 O   0  0  0  0  0  0  0  0  0  0  0  0
   35.6880   29.9750   30.3950 N   0  0  0  0  0  0  0  0  0  0  0  0
   35.1230   30.4780   31.5180 C   0  0  0  0  0  0  0  0  0  0  0  0
   34.3870   31.4770   31.3250 O   0  0  0  0  0  0  0  0  0  0  0  0
   35.5230   30.3880   29.4560 H   0  0  0  0  0  0  0  0  0  0  0  0
   35.4480   33.0770   36.1510 C   0  0  0  0  0  0  0  0  0  0  0  0
   36.6380   33.3990   35.4700 C   0  0  0  0  0  0  0  0  0  0  0  0
   37.0250   34.7490   35.4950 C   0  0  0  0  0  0  0  0  0  0  0  0
   36.2400   35.6640   36.1670 N   0  0  0  0  0  0  0  0  0  0  0  0
   35.1030   35.3020   36.8070 C   0  0  0  0  0  0  0  0  0  0  0  0
   34.7240   34.0230   36.7910 N   0  0  0  0  0  0  0  0  0  0  0  0
   37.2760   32.7240   34.9400 H   0  0  0  0  0  0  0  0  0  0  0  0
   37.9300   35.0460   34.9880 H   0  0  0  0  0  0  0  0  0  0  0  0
   34.5690   36.0930   37.2970 H   0  0  0  0  0  0  0  0  0  0  0  0
  1 27  1  0  0  0  0
  1  7  1  1  0  0  0
  2  9  1  0  0  0  0
  2  1  1  0  0  0  0
  3 10  1  6  0  0  0
  3  4  1  0  0  0  0
  3  2  1  0  0  0  0
  4 12  1  0  0  0  0
  4  5  1  0  0  0  0
  5  6  1  0  0  0  0
  5 14  1  0  0  0  0
  6  1  1  0  0  0  0
  6 15  1  0  0  0  0
  8  2  1  0  0  0  0
 11  4  1  0  0  0  0
 13  5  1  0  0  0  0
 16  6  1  0  0  0  0
 17 18  1  0  0  0  0
 17  3  1  0  0  0  0
 19 20  1  0  0  0  0
 19 18  2  0  0  0  0
 21 19  1  0  0  0  0
 22 21  2  0  0  0  0
 23 21  1  0  0  0  0
 23 24  1  0  0  0  0
 24 17  1  0  0  0  0
 25 24  2  0  0  0  0
 26 23  1  0  0  0  0
 27 32  1  0  0  0  0
 28 29  1  0  0  0  0
 28 27  2  0  0  0  0
 29 30  2  0  0  0  0
 30 31  1  0  0  0  0
 31 35  1  0  0  0  0
 32 31  2  0  0  0  0
 33 28  1  0  0  0  0
 34 29  1  0  0  0  0
M  END
>  <minimizedAffinity>
-4.94381571

$$$$

 OpenBabel03272505563D

 35 37  0  0  1  0  0  0  0  0999 V2000
   38.7140   22.5310   34.2160 C   0  0  2  0  0  0  0  0  0  0  0  0
   38.7470   23.8810   33.5380 C   0  0  0  0  0  0  0  0  0  0  0  0
   37.3960   24.3000   33.0400 C   0  0  2  0  0  0  0  0  0  0  0  0
   36.8190   23.2730   32.0960 C   0  0  0  0  0  0  0  0  0  0  0  0
   36.8290   21.9050   32.6780 C   0  0  0  0  0  0  0  0  0  0  0  0
   37.4260   21.8080   34.0580 C   0  0  0  0  0  0  0  0  0  0  0  0
   39.5540   21.9250   33.8330 H   0  0  0  0  0  0  0  0  0  0  0  0
   39.0580   24.6560   34.2840 H   0  0  0  0  0  0  0  0  0  0  0  0
   39.5370   23.9040   32.7540 H   0  0  0  0  0  0  0  0  0  0  0  0
   36.7250   24.2940   33.9370 H   0  0  0  0  0  0  0  0  0  0  0  0
   35.8580   23.6150   31.6960 H   0  0  0  0  0  0  0  0  0  0  0  0
   37.5120   23.2460   31.2100 H   0  0  0  0  0  0  0  0  0  0  0  0
   35.7460   21.6140   32.8180 H   0  0  0  0  0  0  0  0  0  0  0  0
   37.2230   21.1150   32.0020 H   0  0  0  0  0  0  0  0  0  0  0  0
   37.6280   20.7210   34.2460 H   0  0  0  0  0  0  0  0  0  0  0  0
   36.6990   22.1530   34.8180 H   0  0  0  0  0  0  0  0  0  0  0  0
   37.4090   25.6080   32.4960 N   0  0  0  0  0  0  0  0  0  0  0  0
   37.6930   25.8450   31.1820 C   0  0  0  0  0  3  0  0  0  0  0  0
   37.7200   27.0980   30.5970 C   0  0  0  0  0  0  0  0  0  0  0  0
   37.9510   27.2140   29.5550 H   0  0  0  0  0  0  0  0  0  0  0  0
   37.4370   28.1800   31.4090 C   0  0  0  0  0  0  0  0  0  0  0  0
   37.4630   29.3010   30.8750 O   0  0  0  0  0  0  0  0  0  0  0  0
   37.1510   27.9800   32.7170 N   0  0  0  0  0  0  0  0  0  0  0  0
   37.1490   26.7160   33.2020 C   0  0  0  0  0  0  0  0  0  0  0  0
   36.8720   26.6310   34.4240 O   0  0  0  0  0  0  0  0  0  0  0  0
   36.9410   28.8060   33.3130 H   0  0  0  0  0  0  0  0  0  0  0  0
   38.9640   22.6990   35.6770 C   0  0  0  0  0  0  0  0  0  0  0  0
   37.9110   23.2540   36.4290 C   0  0  0  0  0  0  0  0  0  0  0  0
   38.1480   23.4230   37.8030 C   0  0  0  0  0  0  0  0  0  0  0  0
   39.3670   23.0470   38.3300 N   0  0  0  0  0  0  0  0  0  0  0  0
   40.3480   22.5170   37.5620 C   0  0  0  0  0  0  0  0  0  0  0  0
   40.1360   22.3510   36.2560 N   0  0  0  0  0  0  0  0  0  0  0  0
   36.9550   23.5600   36.0630 H   0  0  0  0  0  0  0  0  0  0  0  0
   37.3710   23.8450   38.4220 H   0  0  0  0  0  0  0  0  0  0  0  0
   41.2550   22.2600   38.0740 H   0  0  0  0  0  0  0  0  0  0  0  0
  1  7  1  6  0  0  0
  1 27  1  0  0  0  0
  2  1  1  0  0  0  0
  2  8  1  0  0  0  0
  3  2  1  0  0  0  0
  3 10  1  1  0  0  0
  4  5  1  0  0  0  0
  4  3  1  0  0  0  0
  5 13  1  0  0  0  0
  5  6  1  0  0  0  0
  6  1  1  0  0  0  0
  6 15  1  0  0  0  0
  6 16  1  0  0  0  0
  9  2  1  0  0  0  0
 11  4  1  0  0  0  0
 12  4  1  0  0  0  0
 14  5  1  0  0  0  0
 17  3  1  0  0  0  0
 17 24  1  0  0  0  0
 18 17  1  0  0  0  0
 19 18  2  0  0  0  0
 19 21  1  0  0  0  0
 20 19  1  0  0  0  0
 21 23  1  0  0  0  0
 22 21  2  0  0  0  0
 23 24  1  0  0  0  0
 23 26  1  0  0  0  0
 24 25  2  0  0  0  0
 27 32  2  0  0  0  0
 27 28  1  0  0  0  0
 28 29  2  0  0  0  0
 29 30  1  0  0  0  0
 29 34  1  0  0  0  0
 31 35  1  0  0  0  0
 31 30  2  0  0  0  0
 32 31  1  0  0  0  0
 33 28  1  0  0  0  0
M  END
>  <minimizedAffinity>
-4.82454157

$$$$

 OpenBabel03272505563D

 35 37  0  0  1  0  0  0  0  0999 V2000
   37.7530   25.2520   35.6260 C   0  0  2  0  0  0  0  0  0  0  0  0
   37.9000   24.8220   34.1850 C   0  0  0  0  0  0  0  0  0  0  0  0
   38.6780   25.8130   33.3720 C   0  0  2  0  0  0  0  0  0  0  0  0
   38.0460   27.1830   33.4310 C   0  0  0  0  0  0  0  0  0  0  0  0
   37.8050   27.6330   34.8280 C   0  0  0  0  0  0  0  0  0  0  0  0
   38.2050   26.6420   35.8900 C   0  0  0  0  0  0  0  0  0  0  0  0
   36.7000   25.1170   35.9270 H   0  0  0  0  0  0  0  0  0  0  0  0
   38.4800   23.8650   34.1470 H   0  0  0  0  0  0  0  0  0  0  0  0
   36.9060   24.5720   33.7500 H   0  0  0  0  0  0  0  0  0  0  0  0
   39.6690   25.9170   33.8850 H   0  0  0  0  0  0  0  0  0  0  0  0
   38.5910   27.8860   32.7910 H   0  0  0  0  0  0  0  0  0  0  0  0
   37.0330   27.0760   32.9530 H   0  0  0  0  0  0  0  0  0  0  0  0
   38.4860   28.5180   34.9960 H   0  0  0  0  0  0  0  0  0  0  0  0
   36.7910   28.0490   35.0130 H   0  0  0  0  0  0  0  0  0  0  0  0
   37.7170   26.9770   36.8430 H   0  0  0  0  0  0  0  0  0  0  0  0
   39.3010   26.6640   36.0450 H   0  0  0  0  0  0  0  0  0  0  0  0
   38.9010   25.3620   32.0490 N   0  0  0  0  0  0  0  0  0  0  0  0
   38.0070   24.5650   31.3930 C   0  0  0  0  0  3  0  0  0  0  0  0
   38.1720   24.0950   30.1030 C   0  0  0  0  0  0  0  0  0  0  0  0
   37.4280   23.4710   29.6450 H   0  0  0  0  0  0  0  0  0  0  0  0
   39.3260   24.4650   29.4380 C   0  0  0  0  0  0  0  0  0  0  0  0
   39.4650   24.0390   28.2800 O   0  0  0  0  0  0  0  0  0  0  0  0
   40.2330   25.2560   30.0600 N   0  0  0  0  0  0  0  0  0  0  0  0
   39.9860   25.6670   31.3250 C   0  0  0  0  0  0  0  0  0  0  0  0
   40.8830   26.3950   31.8170 O   0  0  0  0  0  0  0  0  0  0  0  0
   41.0950   25.5240   29.5450 H   0  0  0  0  0  0  0  0  0  0  0  0
   38.5490   24.3420   36.5020 C   0  0  0  0  0  0  0  0  0  0  0  0
   38.0990   24.2080   37.8300 C   0  0  0  0  0  0  0  0  0  0  0  0
   38.8520   23.3600   38.6600 C   0  0  0  0  0  0  0  0  0  0  0  0
   39.9630   22.7220   38.1450 N   0  0  0  0  0  0  0  0  0  0  0  0
   40.3520   22.8870   36.8590 C   0  0  0  0  0  0  0  0  0  0  0  0
   39.6470   23.6880   36.0600 N   0  0  0  0  0  0  0  0  0  0  0  0
   37.2490   24.6820   38.2700 H   0  0  0  0  0  0  0  0  0  0  0  0
   38.5480   23.2240   39.6860 H   0  0  0  0  0  0  0  0  0  0  0  0
   41.2290   22.3440   36.5630 H   0  0  0  0  0  0  0  0  0  0  0  0
  1  6  1  0  0  0  0
  1  7  1  1  0  0  0
  1 27  1  0  0  0  0
  2  1  1  0  0  0  0
  3  4  1  0  0  0  0
  3 10  1  1  0  0  0
  3  2  1  0  0  0  0
  4  5  1  0  0  0  0
  5 13  1  0  0  0  0
  5 14  1  0  0  0  0
  5  6  1  0  0  0  0
  6 16  1  0  0  0  0
  6 15  1  0  0  0  0
  8  2  1  0  0  0  0
  9  2  1  0  0  0  0
 11  4  1  0  0  0  0
 12  4  1  0  0  0  0
 17  3  1  0  0  0  0
 18 17  1  0  0  0  0
 19 18  2  0  0  0  0
 20 19  1  0  0  0  0
 21 23  1  0  0  0  0
 21 19  1  0  0  0  0
 22 21  2  0  0  0  0
 23 24  1  0  0  0  0
 24 25  2  0  0  0  0
 24 17  1  0  0  0  0
 26 23  1  0  0  0  0
 27 28  1  0  0  0  0
 28 33  1  0  0  0  0
 28 29  2  0  0  0  0
 29 34  1  0  0  0  0
 30 29  1  0  0  0  0
 31 30  2  0  0  0  0
 32 27  2  0  0  0  0
 32 31  1  0  0  0  0
 35 31  1  0  0  0  0
M  END
>  <minimizedAffinity>
-4.8149848

$$$$

 OpenBabel03272505563D

 35 37  0  0  1  0  0  0  0  0999 V2000
   36.2420   28.4860   31.5530 C   0  0  2  0  0  0  0  0  0  0  0  0
   35.2230   29.0780   32.4980 C   0  0  0  0  0  0  0  0  0  0  0  0
   35.7910   29.3250   33.8640 C   0  0  2  0  0  0  0  0  0  0  0  0
   36.3580   28.0580   34.4580 C   0  0  0  0  0  0  0  0  0  0  0  0
   37.3140   27.3850   33.5390 C   0  0  0  0  0  0  0  0  0  0  0  0
   37.5070   28.0700   32.2120 C   0  0  0  0  0  0  0  0  0  0  0  0
   35.7770   27.6360   31.0230 H   0  0  0  0  0  0  0  0  0  0  0  0
   34.9020   30.0780   32.1100 H   0  0  0  0  0  0  0  0  0  0  0  0
   34.2960   28.4620   32.5070 H   0  0  0  0  0  0  0  0  0  0  0  0
   36.6690   30.0040   33.7110 H   0  0  0  0  0  0  0  0  0  0  0  0
   36.7200   28.2390   35.4760 H   0  0  0  0  0  0  0  0  0  0  0  0
   35.4860   27.3570   34.5770 H   0  0  0  0  0  0  0  0  0  0  0  0
   38.3260   27.4460   34.0390 H   0  0  0  0  0  0  0  0  0  0  0  0
   37.1520   26.2910   33.4200 H   0  0  0  0  0  0  0  0  0  0  0  0
   38.0070   27.3280   31.5360 H   0  0  0  0  0  0  0  0  0  0  0  0
   38.1840   28.9390   32.3200 H   0  0  0  0  0  0  0  0  0  0  0  0
   34.8660   29.9720   34.7190 N   0  0  0  0  0  0  0  0  0  0  0  0
   33.5440   29.6350   34.7460 C   0  0  0  0  0  3  0  0  0  0  0  0
   32.5960   30.2310   35.5580 C   0  0  0  0  0  0  0  0  0  0  0  0
   31.5700   29.9160   35.5300 H   0  0  0  0  0  0  0  0  0  0  0  0
   33.0300   31.2390   36.3990 C   0  0  0  0  0  0  0  0  0  0  0  0
   32.1720   31.7680   37.1260 O   0  0  0  0  0  0  0  0  0  0  0  0
   34.3350   31.5980   36.3980 N   0  0  0  0  0  0  0  0  0  0  0  0
   35.1910   30.9570   35.5670 C   0  0  0  0  0  0  0  0  0  0  0  0
   36.3780   31.3590   35.6370 O   0  0  0  0  0  0  0  0  0  0  0  0
   34.6430   32.3580   37.0370 H   0  0  0  0  0  0  0  0  0  0  0  0
   36.5870   29.4860   30.5000 C   0  0  0  0  0  0  0  0  0  0  0  0
   37.3500   29.0100   29.4160 C   0  0  0  0  0  0  0  0  0  0  0  0
   37.6850   29.9520   28.4290 C   0  0  0  0  0  0  0  0  0  0  0  0
   37.2590   31.2570   28.5680 N   0  0  0  0  0  0  0  0  0  0  0  0
   36.5260   31.6630   29.6310 C   0  0  0  0  0  0  0  0  0  0  0  0
   36.2020   30.7800   30.5760 N   0  0  0  0  0  0  0  0  0  0  0  0
   37.7010   28.0120   29.2690 H   0  0  0  0  0  0  0  0  0  0  0  0
   38.2690   29.6360   27.5780 H   0  0  0  0  0  0  0  0  0  0  0  0
   36.2490   32.7000   29.6400 H   0  0  0  0  0  0  0  0  0  0  0  0
  1  7  1  6  0  0  0
  1  6  1  0  0  0  0
  1  2  1  0  0  0  0
  2  9  1  0  0  0  0
  2  3  1  0  0  0  0
  3 10  1  6  0  0  0
  3  4  1  0  0  0  0
  3 17  1  0  0  0  0
  4 12  1  0  0  0  0
  4 11  1  0  0  0  0
  5 13  1  0  0  0  0
  5  4  1  0  0  0  0
  6 16  1  0  0  0  0
  6  5  1  0  0  0  0
  8  2  1  0  0  0  0
 14  5  1  0  0  0  0
 15  6  1  0  0  0  0
 17 18  1  0  0  0  0
 17 24  1  0  0  0  0
 18 19  2  0  0  0  0
 19 21  1  0  0  0  0
 20 19  1  0  0  0  0
 21 22  2  0  0  0  0
 23 21  1  0  0  0  0
 23 26  1  0  0  0  0
 24 25  2  0  0  0  0
 24 23  1  0  0  0  0
 27 32  1  0  0  0  0
 27  1  1  0  0  0  0
 28 27  2  0  0  0  0
 29 30  2  0  0  0  0
 29 28  1  0  0  0  0
 30 31  1  0  0  0  0
 31 35  1  0  0  0  0
 31 32  2  0  0  0  0
 33 28  1  0  0  0  0
 34 29  1  0  0  0  0
M  END
>  <minimizedAffinity>
-4.80446291

$$$$
