
 OpenBabel03272506173D

 35 37  0  0  0  0  0  0  0  0999 V2000
   34.5980   29.5250   48.8990 C   0  0  0  0  0  0  0  0  0  0  0  0
   34.1230   30.1770   47.7460 C   0  0  0  0  0  0  0  0  0  0  0  0
   33.3150   29.4090   46.8850 C   0  0  0  0  0  0  0  0  0  0  0  0
   33.0370   28.0960   47.2040 N   0  0  0  0  0  0  0  0  0  0  0  0
   33.5290   27.5210   48.3400 C   0  0  0  0  0  0  0  0  0  0  0  0
   34.2950   28.2320   49.1660 N   0  0  0  0  0  0  0  0  0  0  0  0
   34.3000   31.1770   47.4480 H   0  0  0  0  0  0  0  0  0  0  0  0
   33.3190   26.5030   48.5970 H   0  0  0  0  0  0  0  0  0  0  0  0
   32.7850   29.9730   45.6950 N   0  0  0  0  0  0  0  0  0  0  0  0
   33.5810   30.4750   44.7160 C   0  0  0  0  0  0  0  0  0  0  0  0
   33.0180   31.0130   43.5780 C   0  0  0  0  0  0  0  0  0  0  0  0
   33.6640   31.4040   42.8140 H   0  0  0  0  0  0  0  0  0  0  0  0
   31.6570   31.0290   43.4600 C   0  0  0  0  0  0  0  0  0  0  0  0
   31.1370   31.5230   42.4180 O   0  0  0  0  0  0  0  0  0  0  0  0
   30.8650   30.5310   44.4360 N   0  0  0  0  0  0  0  0  0  0  0  0
   31.4570   30.0160   45.5270 C   0  0  0  0  0  0  0  0  0  0  0  0
   30.6220   29.5730   46.3850 O   0  0  0  0  0  0  0  0  0  0  0  0
   29.8470   30.5800   44.2710 H   0  0  0  0  0  0  0  0  0  0  0  0
   35.4490   30.3540   49.8100 C   0  0  0  0  0  0  0  0  0  0  0  0
   36.4430   31.1490   48.9900 C   0  0  0  0  0  0  0  0  0  0  0  0
   37.8550   30.6820   49.1800 C   0  0  0  0  0  0  0  0  0  0  0  0
   38.2810   30.6420   50.6190 C   0  0  0  0  0  0  0  0  0  0  0  0
   37.2350   30.0840   51.5360 C   0  0  0  0  0  0  0  0  0  0  0  0
   36.0920   29.4290   50.7870 C   0  0  0  0  0  0  0  0  0  0  0  0
   34.7380   31.0270   50.3340 H   0  0  0  0  0  0  0  0  0  0  0  0
   36.3220   32.2130   49.2520 H   0  0  0  0  0  0  0  0  0  0  0  0
   36.2130   31.0690   47.9050 H   0  0  0  0  0  0  0  0  0  0  0  0
   38.5060   31.4320   48.6630 H   0  0  0  0  0  0  0  0  0  0  0  0
   38.0090   29.7150   48.6660 H   0  0  0  0  0  0  0  0  0  0  0  0
   39.1660   29.9420   50.6620 H   0  0  0  0  0  0  0  0  0  0  0  0
   38.6980   31.6180   50.9760 H   0  0  0  0  0  0  0  0  0  0  0  0
   37.6100   29.4030   52.3080 H   0  0  0  0  0  0  0  0  0  0  0  0
   36.7710   30.9370   52.0980 H   0  0  0  0  0  0  0  0  0  0  0  0
   36.4620   28.4990   50.2650 H   0  0  0  0  0  0  0  0  0  0  0  0
   35.3620   29.0860   51.5250 H   0  0  0  0  0  0  0  0  0  0  0  0
  1  6  1  0  0  0  0
  1 19  1  0  0  0  0
  2  1  2  0  0  0  0
  3  4  2  0  0  0  0
  3  2  1  0  0  0  0
  4  5  1  0  0  0  0
  5  8  1  0  0  0  0
  5  6  2  0  0  0  0
  7  2  1  0  0  0  0
  9  3  1  0  0  0  0
 10  9  1  0  0  0  0
 11 10  2  0  0  0  0
 12 11  1  0  0  0  0
 13 11  1  0  0  0  0
 13 15  1  0  0  0  0
 14 13  2  0  0  0  0
 15 16  1  0  0  0  0
 16  9  1  0  0  0  0
 16 17  2  0  0  0  0
 18 15  1  0  0  0  0
 19 25  1  0  0  0  0
 19 24  1  0  0  0  0
 20 21  1  0  0  0  0
 20 26  1  0  0  0  0
 20 19  1  0  0  0  0
 21 22  1  0  0  0  0
 22 30  1  0  0  0  0
 22 31  1  0  0  0  0
 22 23  1  0  0  0  0
 23 33  1  0  0  0  0
 23 32  1  0  0  0  0
 24 35  1  0  0  0  0
 24 23  1  0  0  0  0
 27 20  1  0  0  0  0
 28 21  1  0  0  0  0
 29 21  1  0  0  0  0
 34 24  1  0  0  0  0
M  END
>  <minimizedAffinity>
-5.82023096

>  <minimizedRMSD>
0.250909388

$$$$
