
 OpenBabel03272506313D

 41 43  0  0  1  0  0  0  0  0999 V2000
   34.1680   29.3150   48.6410 C   0  0  1  0  0  0  0  0  0  0  0  0
   33.7850   30.0370   49.8330 C   0  0  0  0  0  0  0  0  0  0  0  0
   34.4920   29.6660   51.1210 C   0  0  0  0  0  0  0  0  0  0  0  0
   35.9380   29.3320   50.9860 C   0  0  0  0  0  0  0  0  0  0  0  0
   36.3680   28.6220   49.7540 C   0  0  0  0  0  0  0  0  0  0  0  0
   35.6620   29.1050   48.5420 C   0  0  2  0  0  0  0  0  0  0  0  0
   33.9610   29.9600   47.7310 H   0  0  0  0  0  0  0  0  0  0  0  0
   32.7290   30.1120   50.0770 H   0  0  0  0  0  0  0  0  0  0  0  0
   34.1040   31.1080   49.6770 H   0  0  0  0  0  0  0  0  0  0  0  0
   34.3970   30.5100   51.8400 H   0  0  0  0  0  0  0  0  0  0  0  0
   33.9130   28.8190   51.5690 H   0  0  0  0  0  0  0  0  0  0  0  0
   36.1710   28.6380   51.8410 H   0  0  0  0  0  0  0  0  0  0  0  0
   36.5950   30.2090   51.1710 H   0  0  0  0  0  0  0  0  0  0  0  0
   36.1710   27.5190   49.8700 H   0  0  0  0  0  0  0  0  0  0  0  0
   37.4390   28.8090   49.6100 H   0  0  0  0  0  0  0  0  0  0  0  0
   35.9750   28.5400   47.6480 H   0  0  0  0  0  0  0  0  0  0  0  0
   32.0850   27.8370   48.7700 C   0  0  0  0  0  0  0  0  0  0  0  0
   33.4270   28.0770   48.3400 C   0  0  0  0  0  0  0  0  0  0  0  0
   34.0100   27.0540   47.6120 C   0  0  0  0  0  0  0  0  0  0  0  0
   33.3020   25.9090   47.3480 N   0  0  0  0  0  0  0  0  0  0  0  0
   32.0380   25.7450   47.7810 C   0  0  0  0  0  0  0  0  0  0  0  0
   31.4260   26.7240   48.5020 N   0  0  0  0  0  0  0  0  0  0  0  0
   31.6040   28.6200   49.3420 H   0  0  0  0  0  0  0  0  0  0  0  0
   35.0090   27.1130   47.2340 H   0  0  0  0  0  0  0  0  0  0  0  0
   31.5170   24.8260   47.5500 H   0  0  0  0  0  0  0  0  0  0  0  0
   36.2290   30.5290   48.3000 C   0  0  0  0  0  0  0  0  0  0  0  0
   36.2140   31.1210   49.2220 H   0  0  0  0  0  0  0  0  0  0  0  0
   35.6660   31.0490   47.5000 H   0  0  0  0  0  0  0  0  0  0  0  0
   37.6690   30.4480   47.8110 C   0  0  0  0  0  0  0  0  0  0  0  0
   38.1810   29.6370   48.3520 H   0  0  0  0  0  0  0  0  0  0  0  0
   37.6540   30.3220   46.7090 H   0  0  0  0  0  0  0  0  0  0  0  0
   38.2990   31.7390   48.1080 N   0  0  0  0  0  0  0  0  0  0  0  0
   38.2520   32.2910   49.3460 C   0  0  0  0  0  3  0  0  0  0  0  0
   38.8950   33.5220   49.4750 C   0  0  0  0  0  0  0  0  0  0  0  0
   38.8620   33.9750   50.4700 H   0  0  0  0  0  0  0  0  0  0  0  0
   39.5360   34.1410   48.4240 C   0  0  0  0  0  0  0  0  0  0  0  0
   40.0720   35.2420   48.6780 O   0  0  0  0  0  0  0  0  0  0  0  0
   39.5600   33.5560   47.2020 N   0  0  0  0  0  0  0  0  0  0  0  0
   38.9360   32.3790   47.1110 C   0  0  0  0  0  0  0  0  0  0  0  0
   38.9610   31.8360   45.9680 O   0  0  0  0  0  0  0  0  0  0  0  0
   40.0440   34.0270   46.4220 H   0  0  0  0  0  0  0  0  0  0  0  0
  1  7  1  6  0  0  0
  1  2  1  0  0  0  0
  2  8  1  0  0  0  0
  2  3  1  0  0  0  0
  3 11  1  0  0  0  0
  3 10  1  0  0  0  0
  4  3  1  0  0  0  0
  4 13  1  0  0  0  0
  4 12  1  0  0  0  0
  5 14  1  0  0  0  0
  5  4  1  0  0  0  0
  6 16  1  6  0  0  0
  6  1  1  0  0  0  0
  6  5  1  0  0  0  0
  9  2  1  0  0  0  0
 15  5  1  0  0  0  0
 17 23  1  0  0  0  0
 18  1  1  0  0  0  0
 18 17  2  0  0  0  0
 19 18  1  0  0  0  0
 20 19  2  0  0  0  0
 20 21  1  0  0  0  0
 21 22  2  0  0  0  0
 22 17  1  0  0  0  0
 24 19  1  0  0  0  0
 25 21  1  0  0  0  0
 26  6  1  0  0  0  0
 26 27  1  0  0  0  0
 28 26  1  0  0  0  0
 29 32  1  0  0  0  0
 29 26  1  0  0  0  0
 29 30  1  0  0  0  0
 31 29  1  0  0  0  0
 32 33  1  0  0  0  0
 33 34  2  0  0  0  0
 34 35  1  0  0  0  0
 36 37  2  0  0  0  0
 36 34  1  0  0  0  0
 38 36  1  0  0  0  0
 39 38  1  0  0  0  0
 39 32  1  0  0  0  0
 40 39  2  0  0  0  0
 41 38  1  0  0  0  0
M  END
>  <minimizedAffinity>
-5.46826363

>  <minimizedRMSD>
3.17903209

$$$$
