
 OpenBabel03272509433D

 39 41  0  0  1  0  0  0  0  0999 V2000
   37.1550   30.9240   49.0700 C   0  0  0  0  0  0  0  0  0  0  0  0
   36.8940   31.8670   50.0660 C   0  0  0  0  0  0  0  0  0  0  0  0
   37.4360   33.1400   50.0370 C   0  0  0  0  0  0  0  0  0  0  0  0
   38.2790   33.4990   48.9740 C   0  0  0  0  0  0  0  0  0  0  0  0
   38.5260   32.5650   48.0050 C   0  0  0  0  0  0  0  0  0  0  0  0
   37.9610   31.2990   48.0710 C   0  0  0  0  0  0  0  0  0  0  0  0
   36.2390   31.5750   50.8820 H   0  0  0  0  0  0  0  0  0  0  0  0
   37.1760   33.7850   50.8470 H   0  0  0  0  0  0  0  0  0  0  0  0
   38.6500   34.4950   49.0340 H   0  0  0  0  0  0  0  0  0  0  0  0
   39.1910   32.9890   47.2570 H   0  0  0  0  0  0  0  0  0  0  0  0
   36.6100   29.5850   49.1270 C   0  0  2  0  0  0  0  0  0  0  0  0
   37.0770   29.0300   48.2250 H   0  0  0  0  0  0  0  0  0  0  0  0
   33.6040   29.7970   47.0970 C   0  0  0  0  0  0  0  0  0  0  0  0
   32.9270   28.6260   47.3770 C   0  0  0  0  0  0  0  0  0  0  0  0
   33.4690   27.7680   48.3240 C   0  0  0  0  0  0  0  0  0  0  0  0
   34.6500   28.1120   48.9420 N   0  0  0  0  0  0  0  0  0  0  0  0
   35.2480   29.2430   48.6280 C   0  0  0  0  0  0  0  0  0  0  0  0
   34.7360   30.0880   47.7130 N   0  0  0  0  0  0  0  0  0  0  0  0
   33.1960   30.4710   46.3650 H   0  0  0  0  0  0  0  0  0  0  0  0
   32.0080   28.4400   46.8420 H   0  0  0  0  0  0  0  0  0  0  0  0
   32.9520   26.8600   48.5490 H   0  0  0  0  0  0  0  0  0  0  0  0
   37.1560   28.8690   50.0450 O   0  0  0  0  0  0  0  0  0  0  0  0
   36.8170   29.0880   50.9620 H   0  0  0  0  0  0  0  0  0  0  0  0
   38.3290   30.4050   46.9970 C   0  0  0  0  0  3  0  0  0  0  0  0
   38.9250   30.8060   45.8680 C   0  0  0  0  0  3  0  0  0  0  0  0
   39.3790   29.9780   44.7270 C   0  0  0  0  0  0  0  0  0  0  0  0
   38.9900   28.9380   44.8970 H   0  0  0  0  0  0  0  0  0  0  0  0
   40.4630   29.8890   44.6840 H   0  0  0  0  0  0  0  0  0  0  0  0
   38.6320   30.5810   43.2090 S   0  0  0  0  0  0  0  0  0  0  0  0
   34.2620   28.8570   44.0060 H   0  0  0  0  0  0  0  0  0  0  0  0
   34.8240   29.7010   43.7790 N   0  0  0  0  0  0  0  0  0  0  0  0
   36.1770   29.6530   43.6490 C   0  0  0  0  0  3  0  0  0  0  0  0
   36.8800   30.8080   43.3440 C   0  0  0  0  0  0  0  0  0  0  0  0
   36.1690   31.9790   43.1820 C   0  0  0  0  0  0  0  0  0  0  0  0
   36.8770   32.9790   42.9070 O   0  0  0  0  0  0  0  0  0  0  0  0
   34.8320   32.0320   43.3090 N   0  0  0  0  0  0  0  0  0  0  0  0
   34.1930   30.8790   43.6070 C   0  0  0  0  0  0  0  0  0  0  0  0
   32.9250   30.8950   43.7350 O   0  0  0  0  0  0  0  0  0  0  0  0
   34.3580   32.9470   43.1750 H   0  0  0  0  0  0  0  0  0  0  0  0
  1 11  1  0  0  0  0
  1  2  1  0  0  0  0
  2  7  1  0  0  0  0
  3  2  2  0  0  0  0
  3  8  1  0  0  0  0
  4  9  1  0  0  0  0
  4  3  1  0  0  0  0
  5  6  1  0  0  0  0
  5  4  2  0  0  0  0
  6  1  2  0  0  0  0
 10  5  1  0  0  0  0
 11 12  1  6  0  0  0
 11 22  1  0  0  0  0
 13 14  2  0  0  0  0
 13 18  1  0  0  0  0
 14 15  1  0  0  0  0
 15 21  1  0  0  0  0
 15 16  2  0  0  0  0
 17 16  1  0  0  0  0
 17 11  1  0  0  0  0
 18 17  2  0  0  0  0
 19 13  1  0  0  0  0
 20 14  1  0  0  0  0
 22 23  1  0  0  0  0
 24  6  1  0  0  0  0
 25 24  2  0  0  0  0
 26 27  1  0  0  0  0
 26 25  1  0  0  0  0
 28 26  1  0  0  0  0
 29 33  1  0  0  0  0
 29 26  1  0  0  0  0
 31 30  1  0  0  0  0
 32 31  1  0  0  0  0
 33 32  2  0  0  0  0
 34 36  1  0  0  0  0
 34 33  1  0  0  0  0
 35 34  2  0  0  0  0
 36 37  1  0  0  0  0
 37 38  2  0  0  0  0
 37 31  1  0  0  0  0
 39 36  1  0  0  0  0
M  END
>  <minimizedAffinity>
-5.81804228

>  <minimizedRMSD>
1.22009885

$$$$
