
 OpenBabel03272502533D

 28 30  0  0  0  0  0  0  0  0999 V2000
   39.9030   23.0270   36.7620 C   0  0  0  0  0  0  0  0  0  0  0  0
   39.2410   23.0250   37.9600 C   0  0  0  0  0  0  0  0  0  0  0  0
   38.2090   23.8960   38.2370 C   0  0  0  0  0  0  0  0  0  0  0  0
   37.8850   24.7690   37.2280 C   0  0  0  0  0  0  0  0  0  0  0  0
   38.5330   24.8120   35.9780 C   0  0  0  0  0  0  0  0  0  0  0  0
   39.5350   23.9130   35.8090 N   0  0  0  0  0  0  0  0  0  0  0  0
   39.5500   22.3090   38.7110 H   0  0  0  0  0  0  0  0  0  0  0  0
   37.6690   23.9160   39.1750 H   0  0  0  0  0  0  0  0  0  0  0  0
   37.0730   25.4740   37.4080 H   0  0  0  0  0  0  0  0  0  0  0  0
   38.1960   25.7060   34.9540 N   0  0  0  0  0  0  0  0  0  0  0  0
   37.2600   26.6600   35.1040 C   0  0  0  0  0  3  0  0  0  0  0  0
   36.8980   27.5600   34.1200 C   0  0  0  0  0  0  0  0  0  0  0  0
   36.1490   28.3180   34.2520 H   0  0  0  0  0  0  0  0  0  0  0  0
   37.5730   27.4400   32.9020 C   0  0  0  0  0  0  0  0  0  0  0  0
   37.2880   28.2310   31.9680 O   0  0  0  0  0  0  0  0  0  0  0  0
   38.5030   26.4740   32.7910 N   0  0  0  0  0  0  0  0  0  0  0  0
   38.8200   25.6190   33.7840 C   0  0  0  0  0  0  0  0  0  0  0  0
   39.7140   24.7740   33.5090 O   0  0  0  0  0  0  0  0  0  0  0  0
   38.9660   26.4530   31.8350 H   0  0  0  0  0  0  0  0  0  0  0  0
   42.4430   21.0680   35.0190 C   0  0  0  0  0  0  0  0  0  0  0  0
   43.0460   20.3260   36.0330 C   0  0  0  0  0  0  0  0  0  0  0  0
   42.5650   20.5110   37.3220 C   0  0  0  0  0  0  0  0  0  0  0  0
   41.5430   21.4000   37.5100 N   0  0  0  0  0  0  0  0  0  0  0  0
   40.9940   22.0890   36.5080 C   0  0  0  0  0  0  0  0  0  0  0  0
   41.4380   21.9350   35.2420 N   0  0  0  0  0  0  0  0  0  0  0  0
   42.7790   20.9630   33.9950 H   0  0  0  0  0  0  0  0  0  0  0  0
   43.8470   19.6400   35.8350 H   0  0  0  0  0  0  0  0  0  0  0  0
   42.9810   19.9730   38.1620 H   0  0  0  0  0  0  0  0  0  0  0  0
  1  2  1  0  0  0  0
  2  3  2  0  0  0  0
  2  7  1  0  0  0  0
  3  8  1  0  0  0  0
  4  9  1  0  0  0  0
  4  3  1  0  0  0  0
  5  4  2  0  0  0  0
  6  5  1  0  0  0  0
  6  1  2  0  0  0  0
 10 11  1  0  0  0  0
 10  5  1  0  0  0  0
 12 13  1  0  0  0  0
 12 11  2  0  0  0  0
 14 12  1  0  0  0  0
 15 14  2  0  0  0  0
 16 14  1  0  0  0  0
 16 17  1  0  0  0  0
 17 10  1  0  0  0  0
 18 17  2  0  0  0  0
 19 16  1  0  0  0  0
 20 25  2  0  0  0  0
 20 21  1  0  0  0  0
 21 22  2  0  0  0  0
 22 23  1  0  0  0  0
 22 28  1  0  0  0  0
 24  1  1  0  0  0  0
 24 23  2  0  0  0  0
 25 24  1  0  0  0  0
 26 20  1  0  0  0  0
 27 21  1  0  0  0  0
M  END
>  <minimizedAffinity>
-5.45752621

$$$$

 OpenBabel03272502533D

 28 30  0  0  0  0  0  0  0  0999 V2000
   38.3180   24.7550   36.0770 C   0  0  0  0  0  0  0  0  0  0  0  0
   37.7180   24.7540   37.3080 C   0  0  0  0  0  0  0  0  0  0  0  0
   38.1530   23.9530   38.3420 C   0  0  0  0  0  0  0  0  0  0  0  0
   39.2320   23.1540   38.0580 C   0  0  0  0  0  0  0  0  0  0  0  0
   39.8860   23.1180   36.8100 C   0  0  0  0  0  0  0  0  0  0  0  0
   39.3780   23.9440   35.8620 N   0  0  0  0  0  0  0  0  0  0  0  0
   36.8700   25.4100   37.4610 H   0  0  0  0  0  0  0  0  0  0  0  0
   37.6970   23.9330   39.3230 H   0  0  0  0  0  0  0  0  0  0  0  0
   39.6070   22.5060   38.8510 H   0  0  0  0  0  0  0  0  0  0  0  0
   40.9870   22.2990   36.5290 N   0  0  0  0  0  0  0  0  0  0  0  0
   41.4770   21.4140   37.4150 C   0  0  0  0  0  3  0  0  0  0  0  0
   42.5600   20.5890   37.1770 C   0  0  0  0  0  0  0  0  0  0  0  0
   42.9420   19.8860   37.8930 H   0  0  0  0  0  0  0  0  0  0  0  0
   43.1590   20.7120   35.9200 C   0  0  0  0  0  0  0  0  0  0  0  0
   44.1490   19.9880   35.6440 O   0  0  0  0  0  0  0  0  0  0  0  0
   42.6390   21.6080   35.0610 N   0  0  0  0  0  0  0  0  0  0  0  0
   41.5790   22.3910   35.3430 C   0  0  0  0  0  0  0  0  0  0  0  0
   41.2230   23.1760   34.4220 O   0  0  0  0  0  0  0  0  0  0  0  0
   43.1530   21.6370   34.1320 H   0  0  0  0  0  0  0  0  0  0  0  0
   36.9680   27.6550   34.3170 C   0  0  0  0  0  0  0  0  0  0  0  0
   36.9000   27.2370   32.9900 C   0  0  0  0  0  0  0  0  0  0  0  0
   37.3250   25.9450   32.7110 C   0  0  0  0  0  0  0  0  0  0  0  0
   37.7770   25.1760   33.7470 N   0  0  0  0  0  0  0  0  0  0  0  0
   37.8250   25.6170   35.0050 C   0  0  0  0  0  0  0  0  0  0  0  0
   37.4200   26.8680   35.3110 N   0  0  0  0  0  0  0  0  0  0  0  0
   36.6500   28.6530   34.5900 H   0  0  0  0  0  0  0  0  0  0  0  0
   36.5360   27.8790   32.2100 H   0  0  0  0  0  0  0  0  0  0  0  0
   37.3030   25.5480   31.7060 H   0  0  0  0  0  0  0  0  0  0  0  0
  1  2  1  0  0  0  0
  2  7  1  0  0  0  0
  2  3  2  0  0  0  0
  3  8  1  0  0  0  0
  4  3  1  0  0  0  0
  4  9  1  0  0  0  0
  5  4  2  0  0  0  0
  6  1  2  0  0  0  0
  6  5  1  0  0  0  0
 10  5  1  0  0  0  0
 10 11  1  0  0  0  0
 12 11  2  0  0  0  0
 12 13  1  0  0  0  0
 14 12  1  0  0  0  0
 15 14  2  0  0  0  0
 16 17  1  0  0  0  0
 16 14  1  0  0  0  0
 17 10  1  0  0  0  0
 18 17  2  0  0  0  0
 19 16  1  0  0  0  0
 20 26  1  0  0  0  0
 20 25  1  0  0  0  0
 21 20  2  0  0  0  0
 22 21  1  0  0  0  0
 22 23  2  0  0  0  0
 23 24  1  0  0  0  0
 24 25  2  0  0  0  0
 24  1  1  0  0  0  0
 27 21  1  0  0  0  0
 28 22  1  0  0  0  0
M  END
>  <minimizedAffinity>
-5.34716988

$$$$

 OpenBabel03272502533D

 28 30  0  0  0  0  0  0  0  0999 V2000
   38.5140   24.2090   34.5700 C   0  0  0  0  0  0  0  0  0  0  0  0
   39.0090   23.3390   33.6360 C   0  0  0  0  0  0  0  0  0  0  0  0
   38.9150   23.5750   32.2810 C   0  0  0  0  0  0  0  0  0  0  0  0
   38.2910   24.7450   31.9270 C   0  0  0  0  0  0  0  0  0  0  0  0
   37.7660   25.6740   32.8460 C   0  0  0  0  0  0  0  0  0  0  0  0
   37.9100   25.3460   34.1540 N   0  0  0  0  0  0  0  0  0  0  0  0
   39.4890   22.4350   33.9870 H   0  0  0  0  0  0  0  0  0  0  0  0
   39.2980   22.9050   31.5220 H   0  0  0  0  0  0  0  0  0  0  0  0
   38.1970   24.9690   30.8630 H   0  0  0  0  0  0  0  0  0  0  0  0
   37.1300   26.8660   32.4760 N   0  0  0  0  0  0  0  0  0  0  0  0
   36.9010   27.1970   31.1920 C   0  0  0  0  0  3  0  0  0  0  0  0
   36.2790   28.3620   30.7850 C   0  0  0  0  0  0  0  0  0  0  0  0
   36.1010   28.6140   29.7570 H   0  0  0  0  0  0  0  0  0  0  0  0
   35.8740   29.2280   31.8050 C   0  0  0  0  0  0  0  0  0  0  0  0
   35.3010   30.3040   31.4970 O   0  0  0  0  0  0  0  0  0  0  0  0
   36.1200   28.8620   33.0760 N   0  0  0  0  0  0  0  0  0  0  0  0
   36.7330   27.7120   33.4210 C   0  0  0  0  0  0  0  0  0  0  0  0
   36.8840   27.5270   34.6590 O   0  0  0  0  0  0  0  0  0  0  0  0
   35.7810   29.5760   33.7850 H   0  0  0  0  0  0  0  0  0  0  0  0
   39.7150   22.8370   37.7320 C   0  0  0  0  0  0  0  0  0  0  0  0
   38.8520   23.3810   38.6810 C   0  0  0  0  0  0  0  0  0  0  0  0
   37.8530   24.2250   38.2150 C   0  0  0  0  0  0  0  0  0  0  0  0
   37.7830   24.4650   36.8710 N   0  0  0  0  0  0  0  0  0  0  0  0
   38.6310   23.9210   35.9970 C   0  0  0  0  0  0  0  0  0  0  0  0
   39.6160   23.0970   36.4150 N   0  0  0  0  0  0  0  0  0  0  0  0
   40.5130   22.1730   38.0410 H   0  0  0  0  0  0  0  0  0  0  0  0
   38.9480   23.1630   39.7280 H   0  0  0  0  0  0  0  0  0  0  0  0
   37.1440   24.6870   38.8890 H   0  0  0  0  0  0  0  0  0  0  0  0
  1 24  1  0  0  0  0
  2  7  1  0  0  0  0
  2  1  2  0  0  0  0
  3  2  1  0  0  0  0
  4  3  2  0  0  0  0
  4  5  1  0  0  0  0
  5  6  2  0  0  0  0
  6  1  1  0  0  0  0
  8  3  1  0  0  0  0
  9  4  1  0  0  0  0
 10  5  1  0  0  0  0
 10 17  1  0  0  0  0
 11 10  1  0  0  0  0
 12 11  2  0  0  0  0
 12 14  1  0  0  0  0
 13 12  1  0  0  0  0
 14 16  1  0  0  0  0
 15 14  2  0  0  0  0
 16 17  1  0  0  0  0
 16 19  1  0  0  0  0
 17 18  2  0  0  0  0
 20 26  1  0  0  0  0
 20 21  1  0  0  0  0
 21 27  1  0  0  0  0
 22 21  2  0  0  0  0
 22 28  1  0  0  0  0
 23 22  1  0  0  0  0
 24 25  1  0  0  0  0
 24 23  2  0  0  0  0
 25 20  2  0  0  0  0
M  END
>  <minimizedAffinity>
-5.26677942

$$$$

 OpenBabel03272502533D

 28 30  0  0  0  0  0  0  0  0999 V2000
   37.0990   26.0190   31.7760 C   0  0  0  0  0  0  0  0  0  0  0  0
   37.2010   25.0690   30.7960 C   0  0  0  0  0  0  0  0  0  0  0  0
   37.5890   23.7720   31.0600 C   0  0  0  0  0  0  0  0  0  0  0  0
   37.8670   23.4940   32.3750 C   0  0  0  0  0  0  0  0  0  0  0  0
   37.7770   24.4340   33.4210 C   0  0  0  0  0  0  0  0  0  0  0  0
   37.3870   25.6800   33.0530 N   0  0  0  0  0  0  0  0  0  0  0  0
   36.9670   25.3580   29.7800 H   0  0  0  0  0  0  0  0  0  0  0  0
   37.6770   23.0020   30.3050 H   0  0  0  0  0  0  0  0  0  0  0  0
   38.1770   22.4790   32.6260 H   0  0  0  0  0  0  0  0  0  0  0  0
   38.0620   24.1420   34.7600 N   0  0  0  0  0  0  0  0  0  0  0  0
   38.5210   22.9420   35.1590 C   0  0  0  0  0  3  0  0  0  0  0  0
   38.8140   22.6130   36.4690 C   0  0  0  0  0  0  0  0  0  0  0  0
   39.1800   21.6510   36.7740 H   0  0  0  0  0  0  0  0  0  0  0  0
   38.6080   23.6220   37.4140 C   0  0  0  0  0  0  0  0  0  0  0  0
   38.8570   23.3840   38.6230 O   0  0  0  0  0  0  0  0  0  0  0  0
   38.1490   24.8090   36.9760 N   0  0  0  0  0  0  0  0  0  0  0  0
   37.8780   25.0790   35.6840 C   0  0  0  0  0  0  0  0  0  0  0  0
   37.4540   26.2430   35.4500 O   0  0  0  0  0  0  0  0  0  0  0  0
   38.0210   25.5170   37.7580 H   0  0  0  0  0  0  0  0  0  0  0  0
   35.4210   29.2560   31.9560 C   0  0  0  0  0  0  0  0  0  0  0  0
   35.9130   29.9480   30.8510 C   0  0  0  0  0  0  0  0  0  0  0  0
   36.8290   29.2850   30.0460 C   0  0  0  0  0  0  0  0  0  0  0  0
   37.1840   28.0090   30.3870 N   0  0  0  0  0  0  0  0  0  0  0  0
   36.6870   27.3830   31.4550 C   0  0  0  0  0  0  0  0  0  0  0  0
   35.7950   28.0000   32.2600 N   0  0  0  0  0  0  0  0  0  0  0  0
   34.7050   29.7270   32.6180 H   0  0  0  0  0  0  0  0  0  0  0  0
   35.6020   30.9510   30.6250 H   0  0  0  0  0  0  0  0  0  0  0  0
   37.2560   29.7550   29.1720 H   0  0  0  0  0  0  0  0  0  0  0  0
  1  6  1  0  0  0  0
  2  3  1  0  0  0  0
  2  1  2  0  0  0  0
  3  4  2  0  0  0  0
  4  9  1  0  0  0  0
  4  5  1  0  0  0  0
  5 10  1  0  0  0  0
  6  5  2  0  0  0  0
  7  2  1  0  0  0  0
  8  3  1  0  0  0  0
 10 11  1  0  0  0  0
 10 17  1  0  0  0  0
 11 12  2  0  0  0  0
 12 13  1  0  0  0  0
 12 14  1  0  0  0  0
 14 15  2  0  0  0  0
 16 14  1  0  0  0  0
 16 19  1  0  0  0  0
 17 16  1  0  0  0  0
 18 17  2  0  0  0  0
 20 25  1  0  0  0  0
 20 26  1  0  0  0  0
 21 20  2  0  0  0  0
 22 23  2  0  0  0  0
 22 21  1  0  0  0  0
 23 24  1  0  0  0  0
 24  1  1  0  0  0  0
 24 25  2  0  0  0  0
 27 21  1  0  0  0  0
 28 22  1  0  0  0  0
M  END
>  <minimizedAffinity>
-5.12063551

$$$$

 OpenBabel03272502533D

 28 30  0  0  0  0  0  0  0  0999 V2000
   40.6020   24.8470   34.8250 C   0  0  0  0  0  0  0  0  0  0  0  0
   41.3110   26.0180   34.8550 C   0  0  0  0  0  0  0  0  0  0  0  0
   40.9300   27.1320   34.1380 C   0  0  0  0  0  0  0  0  0  0  0  0
   39.7880   26.9920   33.3900 C   0  0  0  0  0  0  0  0  0  0  0  0
   39.0220   25.8110   33.3260 C   0  0  0  0  0  0  0  0  0  0  0  0
   39.4840   24.7750   34.0680 N   0  0  0  0  0  0  0  0  0  0  0  0
   42.2030   26.0570   35.4670 H   0  0  0  0  0  0  0  0  0  0  0  0
   41.4720   28.0690   34.1440 H   0  0  0  0  0  0  0  0  0  0  0  0
   39.4520   27.8520   32.8080 H   0  0  0  0  0  0  0  0  0  0  0  0
   37.8570   25.6770   32.5590 N   0  0  0  0  0  0  0  0  0  0  0  0
   37.4020   26.6540   31.7530 C   0  0  0  0  0  3  0  0  0  0  0  0
   36.2590   26.5610   30.9820 C   0  0  0  0  0  0  0  0  0  0  0  0
   35.9070   27.3490   30.3430 H   0  0  0  0  0  0  0  0  0  0  0  0
   35.5560   25.3570   31.0730 C   0  0  0  0  0  0  0  0  0  0  0  0
   34.5070   25.2130   30.3940 O   0  0  0  0  0  0  0  0  0  0  0  0
   36.0420   24.4040   31.8890 N   0  0  0  0  0  0  0  0  0  0  0  0
   37.1650   24.5450   32.6220 C   0  0  0  0  0  0  0  0  0  0  0  0
   37.4760   23.5520   33.3340 O   0  0  0  0  0  0  0  0  0  0  0  0
   35.4480   23.5240   31.8980 H   0  0  0  0  0  0  0  0  0  0  0  0
   40.5920   22.0580   37.1810 C   0  0  0  0  0  0  0  0  0  0  0  0
   41.8650   21.5060   37.0490 C   0  0  0  0  0  0  0  0  0  0  0  0
   42.7230   22.1080   36.1390 C   0  0  0  0  0  0  0  0  0  0  0  0
   42.2680   23.1910   35.4390 N   0  0  0  0  0  0  0  0  0  0  0  0
   41.0400   23.6870   35.5980 C   0  0  0  0  0  0  0  0  0  0  0  0
   40.1790   23.1260   36.4740 N   0  0  0  0  0  0  0  0  0  0  0  0
   39.8820   21.6280   37.8760 H   0  0  0  0  0  0  0  0  0  0  0  0
   42.1760   20.6530   37.6220 H   0  0  0  0  0  0  0  0  0  0  0  0
   43.7260   21.7370   35.9790 H   0  0  0  0  0  0  0  0  0  0  0  0
  1  2  1  0  0  0  0
  1 24  1  0  0  0  0
  2  7  1  0  0  0  0
  3  8  1  0  0  0  0
  3  2  2  0  0  0  0
  4  3  1  0  0  0  0
  5  4  2  0  0  0  0
  5  6  1  0  0  0  0
  6  1  2  0  0  0  0
  9  4  1  0  0  0  0
 10 17  1  0  0  0  0
 10  5  1  0  0  0  0
 11 10  1  0  0  0  0
 12 14  1  0  0  0  0
 12 11  2  0  0  0  0
 13 12  1  0  0  0  0
 14 16  1  0  0  0  0
 15 14  2  0  0  0  0
 16 19  1  0  0  0  0
 16 17  1  0  0  0  0
 17 18  2  0  0  0  0
 20 26  1  0  0  0  0
 21 20  1  0  0  0  0
 21 27  1  0  0  0  0
 22 21  2  0  0  0  0
 23 24  2  0  0  0  0
 23 22  1  0  0  0  0
 24 25  1  0  0  0  0
 25 20  2  0  0  0  0
 28 22  1  0  0  0  0
M  END
>  <minimizedAffinity>
-5.11161566

$$$$

 OpenBabel03272502533D

 28 30  0  0  0  0  0  0  0  0999 V2000
   37.3520   22.0550   33.3320 C   0  0  0  0  0  0  0  0  0  0  0  0
   38.0200   22.1180   34.5250 C   0  0  0  0  0  0  0  0  0  0  0  0
   38.4750   23.3050   35.0570 C   0  0  0  0  0  0  0  0  0  0  0  0
   38.2130   24.4260   34.3100 C   0  0  0  0  0  0  0  0  0  0  0  0
   37.5300   24.4170   33.0780 C   0  0  0  0  0  0  0  0  0  0  0  0
   37.1250   23.1980   32.6450 N   0  0  0  0  0  0  0  0  0  0  0  0
   38.1920   21.1930   35.0610 H   0  0  0  0  0  0  0  0  0  0  0  0
   39.0050   23.3820   35.9980 H   0  0  0  0  0  0  0  0  0  0  0  0
   38.5570   25.3860   34.6970 H   0  0  0  0  0  0  0  0  0  0  0  0
   37.2680   25.5670   32.3230 N   0  0  0  0  0  0  0  0  0  0  0  0
   37.7120   26.7860   32.6780 C   0  0  0  0  0  3  0  0  0  0  0  0
   37.4750   27.9430   31.9620 C   0  0  0  0  0  0  0  0  0  0  0  0
   37.8360   28.9110   32.2560 H   0  0  0  0  0  0  0  0  0  0  0  0
   36.7190   27.7970   30.7950 C   0  0  0  0  0  0  0  0  0  0  0  0
   36.4700   28.8150   30.1000 O   0  0  0  0  0  0  0  0  0  0  0  0
   36.2930   26.5620   30.4730 N   0  0  0  0  0  0  0  0  0  0  0  0
   36.5520   25.4620   31.2080 C   0  0  0  0  0  0  0  0  0  0  0  0
   36.0750   24.3850   30.7600 O   0  0  0  0  0  0  0  0  0  0  0  0
   35.7270   26.5410   29.5740 H   0  0  0  0  0  0  0  0  0  0  0  0
   37.2560   18.9110   31.4790 C   0  0  0  0  0  0  0  0  0  0  0  0
   36.0130   18.3720   31.8020 C   0  0  0  0  0  0  0  0  0  0  0  0
   35.2110   19.1060   32.6650 C   0  0  0  0  0  0  0  0  0  0  0  0
   35.6890   20.2970   33.1360 N   0  0  0  0  0  0  0  0  0  0  0  0
   36.8870   20.7760   32.8000 C   0  0  0  0  0  0  0  0  0  0  0  0
   37.6940   20.0880   31.9630 N   0  0  0  0  0  0  0  0  0  0  0  0
   37.9230   18.3800   30.8110 H   0  0  0  0  0  0  0  0  0  0  0  0
   35.6820   17.4300   31.4050 H   0  0  0  0  0  0  0  0  0  0  0  0
   34.2330   18.7540   32.9640 H   0  0  0  0  0  0  0  0  0  0  0  0
  1  2  1  0  0  0  0
  2  3  2  0  0  0  0
  2  7  1  0  0  0  0
  3  8  1  0  0  0  0
  4  9  1  0  0  0  0
  4  3  1  0  0  0  0
  5  4  2  0  0  0  0
  6  5  1  0  0  0  0
  6  1  2  0  0  0  0
 10 11  1  0  0  0  0
 10  5  1  0  0  0  0
 12 13  1  0  0  0  0
 12 11  2  0  0  0  0
 14 12  1  0  0  0  0
 15 14  2  0  0  0  0
 16 14  1  0  0  0  0
 16 17  1  0  0  0  0
 17 10  1  0  0  0  0
 18 17  2  0  0  0  0
 19 16  1  0  0  0  0
 20 21  2  0  0  0  0
 20 25  1  0  0  0  0
 21 22  1  0  0  0  0
 22 28  1  0  0  0  0
 22 23  2  0  0  0  0
 24 23  1  0  0  0  0
 24  1  1  0  0  0  0
 25 24  2  0  0  0  0
 26 20  1  0  0  0  0
 27 21  1  0  0  0  0
M  END
>  <minimizedAffinity>
-5.05296087

$$$$

 OpenBabel03272502533D

 28 30  0  0  0  0  0  0  0  0999 V2000
   35.4960   29.8000   33.5910 C   0  0  0  0  0  0  0  0  0  0  0  0
   35.3800   30.3420   32.3390 C   0  0  0  0  0  0  0  0  0  0  0  0
   35.9040   29.7340   31.2180 C   0  0  0  0  0  0  0  0  0  0  0  0
   36.5520   28.5450   31.4390 C   0  0  0  0  0  0  0  0  0  0  0  0
   36.6980   27.9440   32.7050 C   0  0  0  0  0  0  0  0  0  0  0  0
   36.1460   28.6230   33.7400 N   0  0  0  0  0  0  0  0  0  0  0  0
   34.8550   31.2840   32.2390 H   0  0  0  0  0  0  0  0  0  0  0  0
   35.8270   30.1410   30.2190 H   0  0  0  0  0  0  0  0  0  0  0  0
   36.9810   28.0320   30.5770 H   0  0  0  0  0  0  0  0  0  0  0  0
   37.3610   26.7290   32.9200 N   0  0  0  0  0  0  0  0  0  0  0  0
   37.9850   26.0580   31.9360 C   0  0  0  0  0  3  0  0  0  0  0  0
   38.6490   24.8580   32.1070 C   0  0  0  0  0  0  0  0  0  0  0  0
   39.1430   24.3330   31.3110 H   0  0  0  0  0  0  0  0  0  0  0  0
   38.6510   24.3400   33.4050 C   0  0  0  0  0  0  0  0  0  0  0  0
   39.2400   23.2510   33.6230 O   0  0  0  0  0  0  0  0  0  0  0  0
   38.0170   25.0400   34.3630 N   0  0  0  0  0  0  0  0  0  0  0  0
   37.3820   26.2090   34.1430 C   0  0  0  0  0  0  0  0  0  0  0  0
   36.8400   26.7300   35.1550 O   0  0  0  0  0  0  0  0  0  0  0  0
   38.0680   24.5760   35.3170 H   0  0  0  0  0  0  0  0  0  0  0  0
   33.1050   30.9240   36.1110 C   0  0  0  0  0  0  0  0  0  0  0  0
   33.8610   31.7470   36.9430 C   0  0  0  0  0  0  0  0  0  0  0  0
   35.2020   31.9070   36.6240 C   0  0  0  0  0  0  0  0  0  0  0  0
   35.6880   31.2550   35.5260 N   0  0  0  0  0  0  0  0  0  0  0  0
   34.9280   30.4760   34.7550 C   0  0  0  0  0  0  0  0  0  0  0  0
   33.6190   30.2970   35.0370 N   0  0  0  0  0  0  0  0  0  0  0  0
   32.0530   30.7630   36.3140 H   0  0  0  0  0  0  0  0  0  0  0  0
   33.4330   32.2390   37.7960 H   0  0  0  0  0  0  0  0  0  0  0  0
   35.8540   32.5290   37.2220 H   0  0  0  0  0  0  0  0  0  0  0  0
  1  6  1  0  0  0  0
  1 24  1  0  0  0  0
  2  1  2  0  0  0  0
  3  4  2  0  0  0  0
  3  2  1  0  0  0  0
  4  5  1  0  0  0  0
  5 10  1  0  0  0  0
  5  6  2  0  0  0  0
  7  2  1  0  0  0  0
  8  3  1  0  0  0  0
  9  4  1  0  0  0  0
 10 17  1  0  0  0  0
 11 12  2  0  0  0  0
 11 10  1  0  0  0  0
 12 14  1  0  0  0  0
 13 12  1  0  0  0  0
 14 15  2  0  0  0  0
 14 16  1  0  0  0  0
 16 19  1  0  0  0  0
 17 16  1  0  0  0  0
 17 18  2  0  0  0  0
 20 26  1  0  0  0  0
 20 21  1  0  0  0  0
 21 27  1  0  0  0  0
 22 21  2  0  0  0  0
 22 28  1  0  0  0  0
 23 22  1  0  0  0  0
 24 25  1  0  0  0  0
 24 23  2  0  0  0  0
 25 20  2  0  0  0  0
M  END
>  <minimizedAffinity>
-4.99301481

$$$$

 OpenBabel03272502533D

 28 30  0  0  0  0  0  0  0  0999 V2000
   37.0200   27.5220   34.2490 C   0  0  0  0  0  0  0  0  0  0  0  0
   37.6960   27.8800   35.3840 C   0  0  0  0  0  0  0  0  0  0  0  0
   38.5100   27.0030   36.0690 C   0  0  0  0  0  0  0  0  0  0  0  0
   38.5990   25.7410   35.5370 C   0  0  0  0  0  0  0  0  0  0  0  0
   37.9260   25.3220   34.3730 C   0  0  0  0  0  0  0  0  0  0  0  0
   37.1520   26.2620   33.7760 N   0  0  0  0  0  0  0  0  0  0  0  0
   37.5790   28.8930   35.7470 H   0  0  0  0  0  0  0  0  0  0  0  0
   39.0550   27.2610   36.9680 H   0  0  0  0  0  0  0  0  0  0  0  0
   39.2330   25.0170   36.0500 H   0  0  0  0  0  0  0  0  0  0  0  0
   38.0230   24.0320   33.8370 N   0  0  0  0  0  0  0  0  0  0  0  0
   38.7200   23.0480   34.4340 C   0  0  0  0  0  3  0  0  0  0  0  0
   38.8410   21.7640   33.9390 C   0  0  0  0  0  0  0  0  0  0  0  0
   39.4000   20.9880   34.4260 H   0  0  0  0  0  0  0  0  0  0  0  0
   38.1790   21.5080   32.7340 C   0  0  0  0  0  0  0  0  0  0  0  0
   38.2510   20.3570   32.2340 O   0  0  0  0  0  0  0  0  0  0  0  0
   37.4910   22.5170   32.1680 N   0  0  0  0  0  0  0  0  0  0  0  0
   37.4050   23.7550   32.6930 C   0  0  0  0  0  0  0  0  0  0  0  0
   36.7200   24.5790   32.0300 O   0  0  0  0  0  0  0  0  0  0  0  0
   37.0210   22.2360   31.2580 H   0  0  0  0  0  0  0  0  0  0  0  0
   34.4280   30.0100   33.6020 C   0  0  0  0  0  0  0  0  0  0  0  0
   34.5600   30.2830   32.2420 C   0  0  0  0  0  0  0  0  0  0  0  0
   35.5530   29.5990   31.5540 C   0  0  0  0  0  0  0  0  0  0  0  0
   36.3270   28.7120   32.2490 N   0  0  0  0  0  0  0  0  0  0  0  0
   36.1660   28.4810   33.5520 C   0  0  0  0  0  0  0  0  0  0  0  0
   35.2100   29.1290   34.2530 N   0  0  0  0  0  0  0  0  0  0  0  0
   33.6700   30.5160   34.1880 H   0  0  0  0  0  0  0  0  0  0  0  0
   33.9270   30.9910   31.7410 H   0  0  0  0  0  0  0  0  0  0  0  0
   35.7180   29.7570   30.4980 H   0  0  0  0  0  0  0  0  0  0  0  0
  1  2  1  0  0  0  0
  2  7  1  0  0  0  0
  2  3  2  0  0  0  0
  3  8  1  0  0  0  0
  4  9  1  0  0  0  0
  4  3  1  0  0  0  0
  5  4  2  0  0  0  0
  6  1  2  0  0  0  0
  6  5  1  0  0  0  0
 10  5  1  0  0  0  0
 10 11  1  0  0  0  0
 12 13  1  0  0  0  0
 12 11  2  0  0  0  0
 14 12  1  0  0  0  0
 15 14  2  0  0  0  0
 16 17  1  0  0  0  0
 16 14  1  0  0  0  0
 17 10  1  0  0  0  0
 18 17  2  0  0  0  0
 19 16  1  0  0  0  0
 20 26  1  0  0  0  0
 20 25  1  0  0  0  0
 21 20  2  0  0  0  0
 22 21  1  0  0  0  0
 22 23  2  0  0  0  0
 23 24  1  0  0  0  0
 24  1  1  0  0  0  0
 24 25  2  0  0  0  0
 27 21  1  0  0  0  0
 28 22  1  0  0  0  0
M  END
>  <minimizedAffinity>
-4.96850681

$$$$

 OpenBabel03272502533D

 28 30  0  0  0  0  0  0  0  0999 V2000
   37.5550   27.7980   32.1040 C   0  0  0  0  0  0  0  0  0  0  0  0
   36.6190   28.6330   32.6540 C   0  0  0  0  0  0  0  0  0  0  0  0
   36.1730   28.4930   33.9510 C   0  0  0  0  0  0  0  0  0  0  0  0
   36.7310   27.4590   34.6590 C   0  0  0  0  0  0  0  0  0  0  0  0
   37.6970   26.5730   34.1420 C   0  0  0  0  0  0  0  0  0  0  0  0
   38.0660   26.7980   32.8570 N   0  0  0  0  0  0  0  0  0  0  0  0
   36.2210   29.4280   32.0360 H   0  0  0  0  0  0  0  0  0  0  0  0
   35.4350   29.1380   34.4090 H   0  0  0  0  0  0  0  0  0  0  0  0
   36.4050   27.3150   35.6900 H   0  0  0  0  0  0  0  0  0  0  0  0
   38.2610   25.5200   34.8730 N   0  0  0  0  0  0  0  0  0  0  0  0
   37.8740   25.2160   36.1250 C   0  0  0  0  0  3  0  0  0  0  0  0
   38.4050   24.1870   36.8790 C   0  0  0  0  0  0  0  0  0  0  0  0
   38.0860   23.9540   37.8770 H   0  0  0  0  0  0  0  0  0  0  0  0
   39.4100   23.4330   36.2650 C   0  0  0  0  0  0  0  0  0  0  0  0
   39.9310   22.4830   36.9010 O   0  0  0  0  0  0  0  0  0  0  0  0
   39.7700   23.7680   35.0120 N   0  0  0  0  0  0  0  0  0  0  0  0
   39.2190   24.7840   34.3180 C   0  0  0  0  0  0  0  0  0  0  0  0
   39.6760   24.9590   33.1570 O   0  0  0  0  0  0  0  0  0  0  0  0
   40.5370   23.1460   34.6220 H   0  0  0  0  0  0  0  0  0  0  0  0
   37.6940   28.9330   28.6370 C   0  0  0  0  0  0  0  0  0  0  0  0
   38.8370   28.3170   28.1310 C   0  0  0  0  0  0  0  0  0  0  0  0
   39.5570   27.5080   29.0000 C   0  0  0  0  0  0  0  0  0  0  0  0
   39.1010   27.3700   30.2810 N   0  0  0  0  0  0  0  0  0  0  0  0
   38.0000   27.9780   30.7240 C   0  0  0  0  0  0  0  0  0  0  0  0
   37.2760   28.7730   29.9060 N   0  0  0  0  0  0  0  0  0  0  0  0
   37.0960   29.5750   28.0020 H   0  0  0  0  0  0  0  0  0  0  0  0
   39.1550   28.4570   27.1140 H   0  0  0  0  0  0  0  0  0  0  0  0
   40.4540   26.9960   28.6820 H   0  0  0  0  0  0  0  0  0  0  0  0
  1  2  2  0  0  0  0
  1  6  1  0  0  0  0
  2  3  1  0  0  0  0
  3  8  1  0  0  0  0
  3  4  2  0  0  0  0
  4  9  1  0  0  0  0
  5  4  1  0  0  0  0
  5 10  1  0  0  0  0
  6  5  2  0  0  0  0
  7  2  1  0  0  0  0
 10 11  1  0  0  0  0
 11 12  2  0  0  0  0
 12 13  1  0  0  0  0
 14 12  1  0  0  0  0
 14 15  2  0  0  0  0
 16 14  1  0  0  0  0
 17 10  1  0  0  0  0
 17 16  1  0  0  0  0
 18 17  2  0  0  0  0
 19 16  1  0  0  0  0
 20 25  1  0  0  0  0
 21 20  2  0  0  0  0
 21 22  1  0  0  0  0
 22 23  2  0  0  0  0
 23 24  1  0  0  0  0
 24  1  1  0  0  0  0
 25 24  2  0  0  0  0
 26 20  1  0  0  0  0
 27 21  1  0  0  0  0
 28 22  1  0  0  0  0
M  END
>  <minimizedAffinity>
-4.9120574

$$$$
