
 OpenBabel03272508583D

 41 44  0  0  1  0  0  0  0  0999 V2000
   39.2010   31.4070   43.3650 C   0  0  0  0  0  0  0  0  0  0  0  0
   40.2320   30.5260   43.5560 C   0  0  0  0  0  0  0  0  0  0  0  0
   40.9580   30.1520   42.4310 C   0  0  0  0  0  0  0  0  0  0  0  0
   40.5980   30.6860   41.2120 C   0  0  0  0  0  0  0  0  0  0  0  0
   39.5560   31.5730   41.0310 C   0  0  0  0  0  0  0  0  0  0  0  0
   38.8690   31.9160   42.1510 N   0  0  0  0  0  0  0  0  0  0  0  0
   40.4980   30.1180   44.5250 H   0  0  0  0  0  0  0  0  0  0  0  0
   41.7750   29.4690   42.5050 H   0  0  0  0  0  0  0  0  0  0  0  0
   41.1810   30.3760   40.3610 H   0  0  0  0  0  0  0  0  0  0  0  0
   38.4020   31.8420   44.5370 C   0  0  0  0  0  0  0  0  0  0  0  0
   37.3260   32.4370   44.4210 O   0  0  0  0  0  0  0  0  0  0  0  0
   38.9460   31.5370   45.8530 N   0  0  0  0  0  0  0  0  0  0  0  0
   39.9270   31.2390   46.0240 H   0  0  0  0  0  0  0  0  0  0  0  0
   38.4110   31.0890   48.2450 C   0  0  2  0  0  0  0  0  0  0  0  0
   38.6370   32.5520   48.1160 C   0  0  0  0  0  0  0  0  0  0  0  0
   38.0590   31.6610   46.9870 C   0  0  1  0  0  0  0  0  0  0  0  0
   39.3570   30.5220   48.3770 H   0  0  0  0  0  0  0  0  0  0  0  0
   37.9340   33.2590   48.6060 H   0  0  0  0  0  0  0  0  0  0  0  0
   39.6420   32.9530   47.9870 H   0  0  0  0  0  0  0  0  0  0  0  0
   36.9690   31.8740   46.7630 H   0  0  0  0  0  0  0  0  0  0  0  0
   35.0400   30.2090   49.5320 C   0  0  0  0  0  0  0  0  0  0  0  0
   35.3560   29.5810   50.7710 C   0  0  0  0  0  0  0  0  0  0  0  0
   36.7440   29.4770   51.1510 C   0  0  0  0  0  0  0  0  0  0  0  0
   37.7120   29.9810   50.3140 N   0  0  0  0  0  0  0  0  0  0  0  0
   37.3190   30.5670   49.1470 C   0  0  0  0  0  0  0  0  0  0  0  0
   36.0010   30.6990   48.7220 N   0  0  0  0  0  0  0  0  0  0  0  0
   34.0060   30.2760   49.2690 H   0  0  0  0  0  0  0  0  0  0  0  0
   34.6120   29.1900   51.4190 H   0  0  0  0  0  0  0  0  0  0  0  0
   36.9920   29.0020   52.0890 H   0  0  0  0  0  0  0  0  0  0  0  0
   39.2190   32.0910   39.7180 C   0  0  0  0  0  0  0  0  0  0  0  0
   38.9740   33.3050   39.5670 O   0  0  0  0  0  0  0  0  0  0  0  0
   37.5450   28.5910   37.3710 H   0  0  0  0  0  0  0  0  0  0  0  0
   38.2990   29.3020   37.4940 N   0  0  0  0  0  0  0  0  0  0  0  0
   38.1810   30.1730   38.5350 C   0  0  0  0  0  3  0  0  0  0  0  0
   39.2020   31.0930   38.6570 C   0  0  0  0  0  0  0  0  0  0  0  0
   40.2850   31.1550   37.8000 C   0  0  0  0  0  0  0  0  0  0  0  0
   41.2040   31.9810   37.9080 O   0  0  0  0  0  0  0  0  0  0  0  0
   40.3570   30.2590   36.7730 N   0  0  0  0  0  0  0  0  0  0  0  0
   39.3510   29.3520   36.6530 C   0  0  0  0  0  0  0  0  0  0  0  0
   39.4740   28.5550   35.6870 O   0  0  0  0  0  0  0  0  0  0  0  0
   41.1670   30.2990   36.1260 H   0  0  0  0  0  0  0  0  0  0  0  0
  1  2  1  0  0  0  0
  1 10  1  0  0  0  0
  2  7  1  0  0  0  0
  3  8  1  0  0  0  0
  3  2  2  0  0  0  0
  4  3  1  0  0  0  0
  5  4  2  0  0  0  0
  5  6  1  0  0  0  0
  6  1  2  0  0  0  0
  9  4  1  0  0  0  0
 10 12  1  0  0  0  0
 11 10  2  0  0  0  0
 12 13  1  0  0  0  0
 12 16  1  0  0  0  0
 14 17  1  6  0  0  0
 14 25  1  0  0  0  0
 15 14  1  0  0  0  0
 15 18  1  0  0  0  0
 16 20  1  6  0  0  0
 16 15  1  0  0  0  0
 16 14  1  0  0  0  0
 19 15  1  0  0  0  0
 21 22  1  0  0  0  0
 22 23  2  0  0  0  0
 22 28  1  0  0  0  0
 23 29  1  0  0  0  0
 24 23  1  0  0  0  0
 25 24  2  0  0  0  0
 26 25  1  0  0  0  0
 26 21  2  0  0  0  0
 27 21  1  0  0  0  0
 30  5  1  0  0  0  0
 31 30  2  0  0  0  0
 32 33  1  0  0  0  0
 33 34  1  0  0  0  0
 34 35  2  0  0  0  0
 35 30  1  0  0  0  0
 36 37  2  0  0  0  0
 36 35  1  0  0  0  0
 38 36  1  0  0  0  0
 39 38  1  0  0  0  0
 39 33  1  0  0  0  0
 40 39  2  0  0  0  0
 41 38  1  0  0  0  0
M  END
>  <minimizedAffinity>
-4.99236822

>  <minimizedRMSD>
0.405031145

$$$$
