
 OpenBabel03272508473D

 41 45  0  0  0  0  0  0  0  0999 V2000
   35.5360   29.5550   49.6530 C   0  0  0  0  0  0  0  0  0  0  0  0
   36.5860   29.1410   50.4470 C   0  0  0  0  0  0  0  0  0  0  0  0
   37.7040   29.6920   49.8290 C   0  0  0  0  0  0  0  0  0  0  0  0
   37.3010   30.3930   48.7240 C   0  0  0  0  0  0  0  0  0  0  0  0
   35.9810   30.2930   48.6420 O   0  0  0  0  0  0  0  0  0  0  0  0
   36.5960   28.5370   51.3400 H   0  0  0  0  0  0  0  0  0  0  0  0
   38.7310   29.6190   50.1140 H   0  0  0  0  0  0  0  0  0  0  0  0
   38.6510   32.3580   48.1520 C   0  0  0  0  0  0  0  0  0  0  0  0
   38.1460   31.1260   47.7860 C   0  0  0  0  0  0  0  0  0  0  0  0
   38.4200   30.5580   46.5430 C   0  0  0  0  0  0  0  0  0  0  0  0
   39.2180   31.2350   45.6380 C   0  0  0  0  0  0  0  0  0  0  0  0
   39.6610   30.9700   44.3880 N   0  0  0  0  0  0  0  0  0  0  0  0
   40.4100   32.0100   44.0100 N   0  0  0  0  0  0  0  0  0  0  0  0
   40.4530   32.9250   44.9860 C   0  0  0  0  0  0  0  0  0  0  0  0
   39.6990   32.4620   46.0490 C   0  0  0  0  0  0  0  0  0  0  0  0
   39.4620   33.0650   47.2540 C   0  0  0  0  0  0  0  0  0  0  0  0
   38.4460   32.8070   49.1110 H   0  0  0  0  0  0  0  0  0  0  0  0
   38.0190   29.5810   46.2550 H   0  0  0  0  0  0  0  0  0  0  0  0
   39.4150   30.0790   43.8720 H   0  0  0  0  0  0  0  0  0  0  0  0
   41.0130   33.8440   44.8700 H   0  0  0  0  0  0  0  0  0  0  0  0
   39.8730   34.0330   47.5110 H   0  0  0  0  0  0  0  0  0  0  0  0
   34.1310   29.2240   49.8980 C   0  0  0  0  0  0  0  0  0  0  0  0
   33.5610   29.7730   50.8620 O   0  0  0  0  0  0  0  0  0  0  0  0
   31.4590   27.2170   48.4390 C   0  0  0  0  0  0  0  0  0  0  0  0
   32.0980   26.5180   47.4280 C   0  0  0  0  0  0  0  0  0  0  0  0
   33.4440   26.7230   47.2340 C   0  0  0  0  0  0  0  0  0  0  0  0
   34.0860   27.6010   48.0410 N   0  0  0  0  0  0  0  0  0  0  0  0
   33.4490   28.2750   49.0230 C   0  0  0  0  0  0  0  0  0  0  0  0
   32.1350   28.0770   49.2160 N   0  0  0  0  0  0  0  0  0  0  0  0
   30.3930   27.0520   48.5910 H   0  0  0  0  0  0  0  0  0  0  0  0
   31.5170   25.8260   46.8170 H   0  0  0  0  0  0  0  0  0  0  0  0
   34.1080   26.0080   46.1960 N   0  0  0  0  0  0  0  0  0  0  0  0
   34.5670   24.7520   46.3920 C   0  0  0  0  0  3  0  0  0  0  0  0
   35.2190   24.0510   45.3720 C   0  0  0  0  0  0  0  0  0  0  0  0
   35.5880   23.0440   45.5300 H   0  0  0  0  0  0  0  0  0  0  0  0
   35.3590   24.7190   44.1650 C   0  0  0  0  0  0  0  0  0  0  0  0
   35.9470   24.1200   43.2040 O   0  0  0  0  0  0  0  0  0  0  0  0
   34.8820   25.9880   44.0020 N   0  0  0  0  0  0  0  0  0  0  0  0
   34.2630   26.6240   45.0090 C   0  0  0  0  0  0  0  0  0  0  0  0
   33.8670   27.7860   44.7390 O   0  0  0  0  0  0  0  0  0  0  0  0
   35.0270   26.4330   43.0470 H   0  0  0  0  0  0  0  0  0  0  0  0
  1 22  1  0  0  0  0
  1  2  2  0  0  0  0
  2  6  1  0  0  0  0
  3  7  1  0  0  0  0
  3  2  1  0  0  0  0
  4  3  2  0  0  0  0
  5  4  1  0  0  0  0
  5  1  1  0  0  0  0
  8 17  1  0  0  0  0
  9  8  1  0  0  0  0
  9  4  1  0  0  0  0
 10  9  2  0  0  0  0
 11 15  2  0  0  0  0
 11 10  1  0  0  0  0
 12 11  1  0  0  0  0
 13 12  1  0  0  0  0
 13 14  2  0  0  0  0
 14 15  1  0  0  0  0
 15 16  1  0  0  0  0
 16 21  1  0  0  0  0
 16  8  2  0  0  0  0
 18 10  1  0  0  0  0
 19 12  1  0  0  0  0
 20 14  1  0  0  0  0
 22 23  2  0  0  0  0
 24 30  1  0  0  0  0
 24 29  1  0  0  0  0
 25 24  2  0  0  0  0
 26 25  1  0  0  0  0
 26 27  2  0  0  0  0
 27 28  1  0  0  0  0
 28 29  2  0  0  0  0
 28 22  1  0  0  0  0
 31 25  1  0  0  0  0
 32 33  1  0  0  0  0
 32 26  1  0  0  0  0
 34 35  1  0  0  0  0
 34 33  2  0  0  0  0
 36 34  1  0  0  0  0
 37 36  2  0  0  0  0
 38 36  1  0  0  0  0
 38 39  1  0  0  0  0
 39 32  1  0  0  0  0
 40 39  2  0  0  0  0
 41 38  1  0  0  0  0
M  END
>  <minimizedAffinity>
-6.68450642

>  <minimizedRMSD>
0.763512313

$$$$
