
 OpenBabel03272508053D

 36 39  0  0  0  0  0  0  0  0999 V2000
   38.8460   30.8990   45.8370 C   0  0  0  0  0  0  0  0  0  0  0  0
   40.0280   31.5740   46.1050 C   0  0  0  0  0  0  0  0  0  0  0  0
   40.8700   31.5270   45.0060 C   0  0  0  0  0  0  0  0  0  0  0  0
   40.1520   30.8100   44.0950 N   0  0  0  0  0  0  0  0  0  0  0  0
   38.9850   30.4520   44.5840 N   0  0  0  0  0  0  0  0  0  0  0  0
   40.2740   32.0710   47.0300 H   0  0  0  0  0  0  0  0  0  0  0  0
   41.8520   31.9290   44.8410 H   0  0  0  0  0  0  0  0  0  0  0  0
   37.7250   30.7320   46.7350 C   0  0  0  0  0  0  0  0  0  0  0  0
   37.9310   30.9230   48.1300 C   0  0  0  0  0  0  0  0  0  0  0  0
   36.8370   30.7580   48.9690 C   0  0  0  0  0  0  0  0  0  0  0  0
   35.6420   30.4250   48.4210 N   0  0  0  0  0  0  0  0  0  0  0  0
   35.4680   30.2470   47.0870 C   0  0  0  0  0  0  0  0  0  0  0  0
   36.5170   30.4030   46.2560 N   0  0  0  0  0  0  0  0  0  0  0  0
   38.9200   31.1890   48.4950 H   0  0  0  0  0  0  0  0  0  0  0  0
   34.4740   29.9830   46.7470 H   0  0  0  0  0  0  0  0  0  0  0  0
   37.0370   30.9550   50.4370 C   0  0  0  0  0  0  0  0  0  0  0  0
   36.5470   32.2100   50.7120 F   0  0  0  0  0  0  0  0  0  0  0  0
   36.3360   30.0300   51.1930 F   0  0  0  0  0  0  0  0  0  0  0  0
   38.3830   30.9330   50.7860 F   0  0  0  0  0  0  0  0  0  0  0  0
   40.5410   30.4460   42.7380 C   0  0  0  0  0  0  0  0  0  0  0  0
   40.1220   31.2130   41.6350 C   0  0  0  0  0  0  0  0  0  0  0  0
   40.5370   30.8230   40.3930 C   0  0  0  0  0  0  0  0  0  0  0  0
   41.3670   29.6650   40.2490 C   0  0  0  0  0  0  0  0  0  0  0  0
   41.5560   29.1170   42.0060 S   0  0  0  0  0  0  0  0  0  0  0  0
   39.4950   32.0910   41.7130 H   0  0  0  0  0  0  0  0  0  0  0  0
   40.3180   31.2850   39.4430 H   0  0  0  0  0  0  0  0  0  0  0  0
   41.9300   29.0260   39.2270 N   0  0  0  0  0  0  0  0  0  0  0  0
   41.4380   27.8460   38.8020 C   0  0  0  0  0  3  0  0  0  0  0  0
   42.0340   27.1790   37.7260 C   0  0  0  0  0  0  0  0  0  0  0  0
   41.6930   26.2360   37.3360 H   0  0  0  0  0  0  0  0  0  0  0  0
   43.1320   27.7880   37.1410 C   0  0  0  0  0  0  0  0  0  0  0  0
   43.7690   27.2900   36.1560 O   0  0  0  0  0  0  0  0  0  0  0  0
   43.6290   28.9710   37.5660 N   0  0  0  0  0  0  0  0  0  0  0  0
   43.0000   29.5710   38.6200 C   0  0  0  0  0  0  0  0  0  0  0  0
   43.4640   30.6690   39.0110 O   0  0  0  0  0  0  0  0  0  0  0  0
   44.4560   29.4390   37.1310 H   0  0  0  0  0  0  0  0  0  0  0  0
  1  2  1  0  0  0  0
  1  8  1  0  0  0  0
  2  6  1  0  0  0  0
  3  2  2  0  0  0  0
  4  5  1  0  0  0  0
  4  3  1  0  0  0  0
  5  1  2  0  0  0  0
  7  3  1  0  0  0  0
  8  9  1  0  0  0  0
  9 14  1  0  0  0  0
  9 10  2  0  0  0  0
 10 16  1  0  0  0  0
 11 10  1  0  0  0  0
 12 11  2  0  0  0  0
 13  8  2  0  0  0  0
 13 12  1  0  0  0  0
 15 12  1  0  0  0  0
 16 17  1  0  0  0  0
 16 19  1  0  0  0  0
 16 18  1  0  0  0  0
 20  4  1  0  0  0  0
 21 25  1  0  0  0  0
 21 20  2  0  0  0  0
 22 21  1  0  0  0  0
 23 22  2  0  0  0  0
 23 24  1  0  0  0  0
 24 20  1  0  0  0  0
 26 22  1  0  0  0  0
 27 23  1  0  0  0  0
 28 27  1  0  0  0  0
 29 28  2  0  0  0  0
 30 29  1  0  0  0  0
 31 33  1  0  0  0  0
 31 29  1  0  0  0  0
 32 31  2  0  0  0  0
 33 34  1  0  0  0  0
 34 35  2  0  0  0  0
 34 27  1  0  0  0  0
 36 33  1  0  0  0  0
M  END
>  <minimizedAffinity>
-6.56065226

>  <minimizedRMSD>
0.315269142

$$$$
