
 OpenBabel03272506353D

 20 21  0  0  0  0  0  0  0  0999 V2000
   39.6030   22.7410   37.5770 C   0  0  0  0  0  0  0  0  0  0  0  0
   38.9470   23.3160   38.6660 C   0  0  0  0  0  0  0  0  0  0  0  0
   38.0010   24.3280   38.4220 C   0  0  0  0  0  0  0  0  0  0  0  0
   37.7730   24.6970   37.1310 N   0  0  0  0  0  0  0  0  0  0  0  0
   38.4300   24.1190   36.0920 C   0  0  0  0  0  0  0  0  0  0  0  0
   39.3270   23.1580   36.3260 N   0  0  0  0  0  0  0  0  0  0  0  0
   39.1160   23.0310   39.7130 H   0  0  0  0  0  0  0  0  0  0  0  0
   37.4730   24.7940   39.2330 H   0  0  0  0  0  0  0  0  0  0  0  0
   38.1960   24.5020   34.7400 N   0  0  0  0  0  0  0  0  0  0  0  0
   37.6680   25.6880   34.4010 C   0  0  0  0  0  3  0  0  0  0  0  0
   37.4810   25.9590   33.0460 C   0  0  0  0  0  0  0  0  0  0  0  0
   37.0520   26.9280   32.8080 H   0  0  0  0  0  0  0  0  0  0  0  0
   37.8310   25.0340   32.1080 C   0  0  0  0  0  0  0  0  0  0  0  0
   37.6690   25.2620   30.8910 O   0  0  0  0  0  0  0  0  0  0  0  0
   38.3590   23.8540   32.5070 N   0  0  0  0  0  0  0  0  0  0  0  0
   38.5480   23.5730   33.8270 C   0  0  0  0  0  0  0  0  0  0  0  0
   39.0460   22.4480   34.0780 O   0  0  0  0  0  0  0  0  0  0  0  0
   38.6120   23.1720   31.7450 H   0  0  0  0  0  0  0  0  0  0  0  0
   40.5010   21.7660   37.9590 O   0  0  0  0  0  0  0  0  0  0  0  0
   40.6800   21.0320   37.2630 H   0  0  0  0  0  0  0  0  0  0  0  0
  1 19  1  0  0  0  0
  1  2  1  0  0  0  0
  2  7  1  0  0  0  0
  3  2  2  0  0  0  0
  3  8  1  0  0  0  0
  4  3  1  0  0  0  0
  5  6  1  0  0  0  0
  5  4  2  0  0  0  0
  6  1  2  0  0  0  0
  9  5  1  0  0  0  0
 10  9  1  0  0  0  0
 11 10  2  0  0  0  0
 12 11  1  0  0  0  0
 13 15  1  0  0  0  0
 13 11  1  0  0  0  0
 14 13  2  0  0  0  0
 15 16  1  0  0  0  0
 16 17  2  0  0  0  0
 16  9  1  0  0  0  0
 18 15  1  0  0  0  0
 20 19  1  0  0  0  0
M  END
>  <minimizedAffinity>
-4.90127945

$$$$

 OpenBabel03272506353D

 20 21  0  0  0  0  0  0  0  0999 V2000
   35.2280   19.8920   32.1380 C   0  0  0  0  0  0  0  0  0  0  0  0
   36.0650   19.7870   31.0270 C   0  0  0  0  0  0  0  0  0  0  0  0
   37.3370   20.3830   31.0860 C   0  0  0  0  0  0  0  0  0  0  0  0
   37.6890   21.0350   32.2280 N   0  0  0  0  0  0  0  0  0  0  0  0
   36.8500   21.1210   33.2940 C   0  0  0  0  0  0  0  0  0  0  0  0
   35.6430   20.5540   33.2360 N   0  0  0  0  0  0  0  0  0  0  0  0
   35.8000   19.2650   30.0970 H   0  0  0  0  0  0  0  0  0  0  0  0
   38.0120   20.3240   30.2520 H   0  0  0  0  0  0  0  0  0  0  0  0
   37.2130   21.8020   34.4910 N   0  0  0  0  0  0  0  0  0  0  0  0
   38.1730   22.7400   34.5330 C   0  0  0  0  0  3  0  0  0  0  0  0
   38.4470   23.3430   35.7600 C   0  0  0  0  0  0  0  0  0  0  0  0
   39.2290   24.0960   35.7560 H   0  0  0  0  0  0  0  0  0  0  0  0
   37.7500   22.9790   36.8730 C   0  0  0  0  0  0  0  0  0  0  0  0
   37.9840   23.5100   37.9790 O   0  0  0  0  0  0  0  0  0  0  0  0
   36.7920   22.0270   36.7730 N   0  0  0  0  0  0  0  0  0  0  0  0
   36.5120   21.4280   35.5820 C   0  0  0  0  0  0  0  0  0  0  0  0
   35.6050   20.5610   35.6100 O   0  0  0  0  0  0  0  0  0  0  0  0
   36.2820   21.7800   37.6600 H   0  0  0  0  0  0  0  0  0  0  0  0
   34.0140   19.2640   31.9440 O   0  0  0  0  0  0  0  0  0  0  0  0
   33.5520   18.9220   32.7950 H   0  0  0  0  0  0  0  0  0  0  0  0
  1  6  1  0  0  0  0
  2  3  1  0  0  0  0
  2  1  2  0  0  0  0
  3  4  2  0  0  0  0
  4  5  1  0  0  0  0
  5  9  1  0  0  0  0
  6  5  2  0  0  0  0
  7  2  1  0  0  0  0
  8  3  1  0  0  0  0
  9 10  1  0  0  0  0
  9 16  1  0  0  0  0
 10 11  2  0  0  0  0
 11 13  1  0  0  0  0
 12 11  1  0  0  0  0
 13 14  2  0  0  0  0
 15 13  1  0  0  0  0
 15 18  1  0  0  0  0
 16 17  2  0  0  0  0
 16 15  1  0  0  0  0
 19  1  1  0  0  0  0
 19 20  1  0  0  0  0
M  END
>  <minimizedAffinity>
-4.81992912

$$$$

 OpenBabel03272506353D

 20 21  0  0  0  0  0  0  0  0999 V2000
   38.7490   22.8730   36.8820 C   0  0  0  0  0  0  0  0  0  0  0  0
   39.4220   23.9900   36.3870 C   0  0  0  0  0  0  0  0  0  0  0  0
   39.2810   24.3110   35.0250 C   0  0  0  0  0  0  0  0  0  0  0  0
   38.4910   23.5120   34.2550 N   0  0  0  0  0  0  0  0  0  0  0  0
   37.8490   22.4290   34.7670 C   0  0  0  0  0  0  0  0  0  0  0  0
   37.9850   22.1270   36.0600 N   0  0  0  0  0  0  0  0  0  0  0  0
   40.0620   24.6480   36.9920 H   0  0  0  0  0  0  0  0  0  0  0  0
   39.7810   25.1640   34.6060 H   0  0  0  0  0  0  0  0  0  0  0  0
   37.0230   21.5900   33.9660 N   0  0  0  0  0  0  0  0  0  0  0  0
   37.1320   21.5220   32.6300 C   0  0  0  0  0  3  0  0  0  0  0  0
   36.2710   20.6660   31.9440 C   0  0  0  0  0  0  0  0  0  0  0  0
   36.3870   20.6370   30.8650 H   0  0  0  0  0  0  0  0  0  0  0  0
   35.3520   19.9270   32.6280 C   0  0  0  0  0  0  0  0  0  0  0  0
   34.5730   19.1570   32.0280 O   0  0  0  0  0  0  0  0  0  0  0  0
   35.2860   20.0350   33.9750 N   0  0  0  0  0  0  0  0  0  0  0  0
   36.1200   20.8670   34.6600 C   0  0  0  0  0  0  0  0  0  0  0  0
   35.9680   20.8840   35.9070 O   0  0  0  0  0  0  0  0  0  0  0  0
   34.5600   19.4450   34.4580 H   0  0  0  0  0  0  0  0  0  0  0  0
   38.9760   22.6750   38.2280 O   0  0  0  0  0  0  0  0  0  0  0  0
   38.2260   22.1920   38.7370 H   0  0  0  0  0  0  0  0  0  0  0  0
  1 19  1  0  0  0  0
  2  1  1  0  0  0  0
  2  7  1  0  0  0  0
  3  2  2  0  0  0  0
  4  5  2  0  0  0  0
  4  3  1  0  0  0  0
  5  6  1  0  0  0  0
  6  1  2  0  0  0  0
  8  3  1  0  0  0  0
  9 16  1  0  0  0  0
  9  5  1  0  0  0  0
 10  9  1  0  0  0  0
 11 13  1  0  0  0  0
 11 10  2  0  0  0  0
 12 11  1  0  0  0  0
 13 15  1  0  0  0  0
 14 13  2  0  0  0  0
 15 18  1  0  0  0  0
 15 16  1  0  0  0  0
 16 17  2  0  0  0  0
 19 20  1  0  0  0  0
M  END
>  <minimizedAffinity>
-4.72320604

$$$$

 OpenBabel03272506353D

 20 21  0  0  0  0  0  0  0  0999 V2000
   39.3860   23.0300   37.2670 C   0  0  0  0  0  0  0  0  0  0  0  0
   40.1130   22.0890   36.5350 C   0  0  0  0  0  0  0  0  0  0  0  0
   40.1810   22.2320   35.1390 C   0  0  0  0  0  0  0  0  0  0  0  0
   39.5320   23.2840   34.5670 N   0  0  0  0  0  0  0  0  0  0  0  0
   38.8320   24.1830   35.3070 C   0  0  0  0  0  0  0  0  0  0  0  0
   38.7690   24.0460   36.6340 N   0  0  0  0  0  0  0  0  0  0  0  0
   40.6430   21.2340   36.9780 H   0  0  0  0  0  0  0  0  0  0  0  0
   40.7310   21.5290   34.5400 H   0  0  0  0  0  0  0  0  0  0  0  0
   38.1510   25.2850   34.7140 N   0  0  0  0  0  0  0  0  0  0  0  0
   37.7860   25.3060   33.4230 C   0  0  0  0  0  3  0  0  0  0  0  0
   37.1240   26.4380   32.9470 C   0  0  0  0  0  0  0  0  0  0  0  0
   36.8440   26.4200   31.8980 H   0  0  0  0  0  0  0  0  0  0  0  0
   36.8650   27.4820   33.7840 C   0  0  0  0  0  0  0  0  0  0  0  0
   36.2740   28.5020   33.3730 O   0  0  0  0  0  0  0  0  0  0  0  0
   37.2570   27.4070   35.0770 N   0  0  0  0  0  0  0  0  0  0  0  0
   37.9040   26.3090   35.5580 C   0  0  0  0  0  0  0  0  0  0  0  0
   38.2180   26.3510   36.7730 O   0  0  0  0  0  0  0  0  0  0  0  0
   37.0340   28.2390   35.6840 H   0  0  0  0  0  0  0  0  0  0  0  0
   39.4030   22.7700   38.6220 O   0  0  0  0  0  0  0  0  0  0  0  0
   39.2920   23.5900   39.2310 H   0  0  0  0  0  0  0  0  0  0  0  0
  1 19  1  0  0  0  0
  2  7  1  0  0  0  0
  2  1  2  0  0  0  0
  3  2  1  0  0  0  0
  4  3  2  0  0  0  0
  4  5  1  0  0  0  0
  5  6  2  0  0  0  0
  6  1  1  0  0  0  0
  8  3  1  0  0  0  0
  9  5  1  0  0  0  0
  9 16  1  0  0  0  0
 10  9  1  0  0  0  0
 11 10  2  0  0  0  0
 11 13  1  0  0  0  0
 12 11  1  0  0  0  0
 13 15  1  0  0  0  0
 14 13  2  0  0  0  0
 15 16  1  0  0  0  0
 15 18  1  0  0  0  0
 16 17  2  0  0  0  0
 19 20  1  0  0  0  0
M  END
>  <minimizedAffinity>
-4.71952105

$$$$

 OpenBabel03272506353D

 20 21  0  0  0  0  0  0  0  0999 V2000
   40.8100   22.5680   36.9840 C   0  0  0  0  0  0  0  0  0  0  0  0
   42.1500   22.5430   36.5950 C   0  0  0  0  0  0  0  0  0  0  0  0
   42.5790   23.4470   35.6080 C   0  0  0  0  0  0  0  0  0  0  0  0
   41.6630   24.3050   35.0790 N   0  0  0  0  0  0  0  0  0  0  0  0
   40.3640   24.3040   35.4780 C   0  0  0  0  0  0  0  0  0  0  0  0
   39.9590   23.4440   36.4160 N   0  0  0  0  0  0  0  0  0  0  0  0
   42.9040   21.8600   37.0100 H   0  0  0  0  0  0  0  0  0  0  0  0
   43.6030   23.4610   35.2820 H   0  0  0  0  0  0  0  0  0  0  0  0
   39.4010   25.1980   34.9290 N   0  0  0  0  0  0  0  0  0  0  0  0
   39.5570   25.7910   33.7350 C   0  0  0  0  0  3  0  0  0  0  0  0
   38.5520   26.6500   33.2930 C   0  0  0  0  0  0  0  0  0  0  0  0
   38.7110   27.1120   32.3240 H   0  0  0  0  0  0  0  0  0  0  0  0
   37.4490   26.8670   34.0650 C   0  0  0  0  0  0  0  0  0  0  0  0
   36.5400   27.6340   33.6830 O   0  0  0  0  0  0  0  0  0  0  0  0
   37.3440   26.2420   35.2600 N   0  0  0  0  0  0  0  0  0  0  0  0
   38.3180   25.4000   35.7070 C   0  0  0  0  0  0  0  0  0  0  0  0
   38.1110   24.8770   36.8290 O   0  0  0  0  0  0  0  0  0  0  0  0
   36.4740   26.4430   35.8190 H   0  0  0  0  0  0  0  0  0  0  0  0
   40.5270   21.6300   37.9560 O   0  0  0  0  0  0  0  0  0  0  0  0
   39.7440   21.8620   38.5800 H   0  0  0  0  0  0  0  0  0  0  0  0
  1 19  1  0  0  0  0
  2  1  1  0  0  0  0
  2  7  1  0  0  0  0
  3  2  2  0  0  0  0
  4  5  2  0  0  0  0
  4  3  1  0  0  0  0
  5  6  1  0  0  0  0
  6  1  2  0  0  0  0
  8  3  1  0  0  0  0
  9  5  1  0  0  0  0
  9 16  1  0  0  0  0
 10  9  1  0  0  0  0
 11 10  2  0  0  0  0
 11 13  1  0  0  0  0
 12 11  1  0  0  0  0
 13 15  1  0  0  0  0
 14 13  2  0  0  0  0
 15 16  1  0  0  0  0
 15 18  1  0  0  0  0
 16 17  2  0  0  0  0
 19 20  1  0  0  0  0
M  END
>  <minimizedAffinity>
-4.49454069

$$$$

 OpenBabel03272506353D

 20 21  0  0  0  0  0  0  0  0999 V2000
   36.2300   26.9360   31.6120 C   0  0  0  0  0  0  0  0  0  0  0  0
   35.8360   28.1930   32.0720 C   0  0  0  0  0  0  0  0  0  0  0  0
   36.1140   28.5370   33.4060 C   0  0  0  0  0  0  0  0  0  0  0  0
   36.7550   27.6240   34.1860 N   0  0  0  0  0  0  0  0  0  0  0  0
   37.1250   26.4060   33.7090 C   0  0  0  0  0  0  0  0  0  0  0  0
   36.8610   26.0820   32.4410 N   0  0  0  0  0  0  0  0  0  0  0  0
   35.3190   28.9440   31.4580 H   0  0  0  0  0  0  0  0  0  0  0  0
   35.8280   29.4960   33.7980 H   0  0  0  0  0  0  0  0  0  0  0  0
   37.7960   25.4470   34.5200 N   0  0  0  0  0  0  0  0  0  0  0  0
   37.7460   25.4650   35.8610 C   0  0  0  0  0  3  0  0  0  0  0  0
   38.4410   24.4770   36.5570 C   0  0  0  0  0  0  0  0  0  0  0  0
   38.3790   24.5210   37.6400 H   0  0  0  0  0  0  0  0  0  0  0  0
   39.1460   23.5270   35.8770 C   0  0  0  0  0  0  0  0  0  0  0  0
   39.7740   22.6360   36.4860 O   0  0  0  0  0  0  0  0  0  0  0  0
   39.1620   23.5570   34.5240 N   0  0  0  0  0  0  0  0  0  0  0  0
   38.4880   24.5160   33.8290 C   0  0  0  0  0  0  0  0  0  0  0  0
   38.5740   24.4440   32.5790 O   0  0  0  0  0  0  0  0  0  0  0  0
   39.7200   22.8040   34.0450 H   0  0  0  0  0  0  0  0  0  0  0  0
   35.8960   26.7310   30.2890 O   0  0  0  0  0  0  0  0  0  0  0  0
   36.4980   26.0750   29.7770 H   0  0  0  0  0  0  0  0  0  0  0  0
  1  2  2  0  0  0  0
  1  6  1  0  0  0  0
  2  3  1  0  0  0  0
  3  8  1  0  0  0  0
  3  4  2  0  0  0  0
  5  4  1  0  0  0  0
  5  9  1  0  0  0  0
  6  5  2  0  0  0  0
  7  2  1  0  0  0  0
  9 10  1  0  0  0  0
 10 11  2  0  0  0  0
 11 12  1  0  0  0  0
 13 14  2  0  0  0  0
 13 11  1  0  0  0  0
 15 13  1  0  0  0  0
 16  9  1  0  0  0  0
 16 15  1  0  0  0  0
 17 16  2  0  0  0  0
 18 15  1  0  0  0  0
 19  1  1  0  0  0  0
 20 19  1  0  0  0  0
M  END
>  <minimizedAffinity>
-4.3426733

$$$$

 OpenBabel03272506353D

 20 21  0  0  0  0  0  0  0  0999 V2000
   35.7080   21.7940   32.2680 C   0  0  0  0  0  0  0  0  0  0  0  0
   36.5530   21.3290   33.2780 C   0  0  0  0  0  0  0  0  0  0  0  0
   37.5670   22.1810   33.7500 C   0  0  0  0  0  0  0  0  0  0  0  0
   37.6740   23.4210   33.1970 N   0  0  0  0  0  0  0  0  0  0  0  0
   36.8360   23.8440   32.2140 C   0  0  0  0  0  0  0  0  0  0  0  0
   35.8740   23.0330   31.7670 N   0  0  0  0  0  0  0  0  0  0  0  0
   36.4820   20.3330   33.7370 H   0  0  0  0  0  0  0  0  0  0  0  0
   38.2370   21.8620   34.5260 H   0  0  0  0  0  0  0  0  0  0  0  0
   36.9440   25.1390   31.6320 N   0  0  0  0  0  0  0  0  0  0  0  0
   38.0730   25.8650   31.6740 C   0  0  0  0  0  3  0  0  0  0  0  0
   38.0670   27.1220   31.0710 C   0  0  0  0  0  0  0  0  0  0  0  0
   38.9970   27.6800   31.1240 H   0  0  0  0  0  0  0  0  0  0  0  0
   36.9390   27.5840   30.4610 C   0  0  0  0  0  0  0  0  0  0  0  0
   36.9180   28.7080   29.9170 O   0  0  0  0  0  0  0  0  0  0  0  0
   35.8290   26.8090   30.4490 N   0  0  0  0  0  0  0  0  0  0  0  0
   35.8180   25.5790   31.0330 C   0  0  0  0  0  0  0  0  0  0  0  0
   34.7330   24.9510   30.9590 O   0  0  0  0  0  0  0  0  0  0  0  0
   34.9830   27.2100   29.9660 H   0  0  0  0  0  0  0  0  0  0  0  0
   34.7630   20.8580   31.9010 O   0  0  0  0  0  0  0  0  0  0  0  0
   33.8860   21.2390   31.5250 H   0  0  0  0  0  0  0  0  0  0  0  0
  1  2  1  0  0  0  0
  2  7  1  0  0  0  0
  2  3  2  0  0  0  0
  3  8  1  0  0  0  0
  4  3  1  0  0  0  0
  5  4  2  0  0  0  0
  6  5  1  0  0  0  0
  6  1  2  0  0  0  0
  9 10  1  0  0  0  0
  9  5  1  0  0  0  0
 11 12  1  0  0  0  0
 11 10  2  0  0  0  0
 13 11  1  0  0  0  0
 14 13  2  0  0  0  0
 15 13  1  0  0  0  0
 15 16  1  0  0  0  0
 16  9  1  0  0  0  0
 17 16  2  0  0  0  0
 18 15  1  0  0  0  0
 19  1  1  0  0  0  0
 20 19  1  0  0  0  0
M  END
>  <minimizedAffinity>
-4.32767153

$$$$

 OpenBabel03272506353D

 20 21  0  0  0  0  0  0  0  0999 V2000
   36.1710   21.0610   35.7080 C   0  0  0  0  0  0  0  0  0  0  0  0
   35.5910   20.6050   34.5240 C   0  0  0  0  0  0  0  0  0  0  0  0
   36.1800   20.9750   33.3020 C   0  0  0  0  0  0  0  0  0  0  0  0
   37.2910   21.7620   33.3350 N   0  0  0  0  0  0  0  0  0  0  0  0
   37.8320   22.1920   34.5060 C   0  0  0  0  0  0  0  0  0  0  0  0
   37.2710   21.8380   35.6650 N   0  0  0  0  0  0  0  0  0  0  0  0
   34.6960   19.9690   34.4760 H   0  0  0  0  0  0  0  0  0  0  0  0
   35.7640   20.6430   32.3680 H   0  0  0  0  0  0  0  0  0  0  0  0
   38.9930   23.0150   34.5460 N   0  0  0  0  0  0  0  0  0  0  0  0
   39.3900   23.7650   33.5060 C   0  0  0  0  0  3  0  0  0  0  0  0
   40.5430   24.5340   33.6550 C   0  0  0  0  0  0  0  0  0  0  0  0
   40.8350   25.1280   32.7950 H   0  0  0  0  0  0  0  0  0  0  0  0
   41.2330   24.5130   34.8310 C   0  0  0  0  0  0  0  0  0  0  0  0
   42.2680   25.1970   34.9800 O   0  0  0  0  0  0  0  0  0  0  0  0
   40.7860   23.7390   35.8470 N   0  0  0  0  0  0  0  0  0  0  0  0
   39.6620   22.9810   35.7170 C   0  0  0  0  0  0  0  0  0  0  0  0
   39.3430   22.3030   36.7260 O   0  0  0  0  0  0  0  0  0  0  0  0
   41.3540   23.7560   36.7340 H   0  0  0  0  0  0  0  0  0  0  0  0
   35.4930   20.6250   36.8280 O   0  0  0  0  0  0  0  0  0  0  0  0
   36.0590   20.5360   37.6810 H   0  0  0  0  0  0  0  0  0  0  0  0
  1 19  1  0  0  0  0
  2  1  2  0  0  0  0
  3  4  2  0  0  0  0
  3  2  1  0  0  0  0
  4  5  1  0  0  0  0
  5  9  1  0  0  0  0
  5  6  2  0  0  0  0
  6  1  1  0  0  0  0
  7  2  1  0  0  0  0
  8  3  1  0  0  0  0
  9 16  1  0  0  0  0
 10 11  2  0  0  0  0
 10  9  1  0  0  0  0
 11 13  1  0  0  0  0
 12 11  1  0  0  0  0
 13 14  2  0  0  0  0
 13 15  1  0  0  0  0
 15 18  1  0  0  0  0
 16 15  1  0  0  0  0
 16 17  2  0  0  0  0
 19 20  1  0  0  0  0
M  END
>  <minimizedAffinity>
-4.30643129

$$$$

 OpenBabel03272506353D

 20 21  0  0  0  0  0  0  0  0999 V2000
   37.0380   22.7980   31.5160 C   0  0  0  0  0  0  0  0  0  0  0  0
   37.2130   23.9460   30.7410 C   0  0  0  0  0  0  0  0  0  0  0  0
   37.6490   25.1230   31.3740 C   0  0  0  0  0  0  0  0  0  0  0  0
   37.8790   25.0840   32.7160 N   0  0  0  0  0  0  0  0  0  0  0  0
   37.6970   23.9510   33.4430 C   0  0  0  0  0  0  0  0  0  0  0  0
   37.2830   22.8340   32.8400 N   0  0  0  0  0  0  0  0  0  0  0  0
   37.0340   23.9970   29.6580 H   0  0  0  0  0  0  0  0  0  0  0  0
   37.7980   26.0270   30.8130 H   0  0  0  0  0  0  0  0  0  0  0  0
   37.9350   23.9050   34.8470 N   0  0  0  0  0  0  0  0  0  0  0  0
   37.9380   25.0010   35.6210 C   0  0  0  0  0  3  0  0  0  0  0  0
   38.1830   24.8410   36.9840 C   0  0  0  0  0  0  0  0  0  0  0  0
   38.1780   25.7490   37.5800 H   0  0  0  0  0  0  0  0  0  0  0  0
   38.4110   23.5980   37.4970 C   0  0  0  0  0  0  0  0  0  0  0  0
   38.6320   23.4390   38.7160 O   0  0  0  0  0  0  0  0  0  0  0  0
   38.3960   22.5280   36.6700 N   0  0  0  0  0  0  0  0  0  0  0  0
   38.1590   22.6670   35.3360 C   0  0  0  0  0  0  0  0  0  0  0  0
   38.1690   21.6040   34.6670 O   0  0  0  0  0  0  0  0  0  0  0  0
   38.5780   21.5900   37.1140 H   0  0  0  0  0  0  0  0  0  0  0  0
   36.6080   21.7200   30.7690 O   0  0  0  0  0  0  0  0  0  0  0  0
   36.8690   20.7960   31.1350 H   0  0  0  0  0  0  0  0  0  0  0  0
  1  6  1  0  0  0  0
  2  3  1  0  0  0  0
  2  1  2  0  0  0  0
  3  4  2  0  0  0  0
  4  5  1  0  0  0  0
  5  9  1  0  0  0  0
  6  5  2  0  0  0  0
  7  2  1  0  0  0  0
  8  3  1  0  0  0  0
  9 16  1  0  0  0  0
  9 10  1  0  0  0  0
 10 11  2  0  0  0  0
 11 13  1  0  0  0  0
 11 12  1  0  0  0  0
 13 14  2  0  0  0  0
 15 18  1  0  0  0  0
 15 13  1  0  0  0  0
 16 15  1  0  0  0  0
 17 16  2  0  0  0  0
 19 20  1  0  0  0  0
 19  1  1  0  0  0  0
M  END
>  <minimizedAffinity>
-4.25667477

$$$$
