
 OpenBabel03272509433D

 39 41  0  0  1  0  0  0  0  0999 V2000
   37.0900   30.9400   49.0300 C   0  0  0  0  0  0  0  0  0  0  0  0
   36.8470   31.8630   50.0490 C   0  0  0  0  0  0  0  0  0  0  0  0
   37.4520   33.1070   50.0760 C   0  0  0  0  0  0  0  0  0  0  0  0
   38.3400   33.4570   49.0470 C   0  0  0  0  0  0  0  0  0  0  0  0
   38.5680   32.5430   48.0550 C   0  0  0  0  0  0  0  0  0  0  0  0
   37.9410   31.3050   48.0650 C   0  0  0  0  0  0  0  0  0  0  0  0
   36.1570   31.5780   50.8380 H   0  0  0  0  0  0  0  0  0  0  0  0
   37.2000   33.7390   50.9000 H   0  0  0  0  0  0  0  0  0  0  0  0
   38.7560   34.4320   49.1500 H   0  0  0  0  0  0  0  0  0  0  0  0
   39.2730   32.9570   47.3390 H   0  0  0  0  0  0  0  0  0  0  0  0
   36.4800   29.6280   49.0290 C   0  0  2  0  0  0  0  0  0  0  0  0
   36.9770   29.0640   48.1490 H   0  0  0  0  0  0  0  0  0  0  0  0
   33.6160   30.0240   46.8270 C   0  0  0  0  0  0  0  0  0  0  0  0
   32.8740   28.8780   47.0350 C   0  0  0  0  0  0  0  0  0  0  0  0
   33.3180   27.9740   47.9900 C   0  0  0  0  0  0  0  0  0  0  0  0
   34.4730   28.2490   48.6870 N   0  0  0  0  0  0  0  0  0  0  0  0
   35.1370   29.3600   48.4400 C   0  0  0  0  0  0  0  0  0  0  0  0
   34.7200   30.2480   47.5190 N   0  0  0  0  0  0  0  0  0  0  0  0
   33.2850   30.7330   46.0910 H   0  0  0  0  0  0  0  0  0  0  0  0
   31.9820   28.7470   46.4410 H   0  0  0  0  0  0  0  0  0  0  0  0
   32.7490   27.0850   48.1590 H   0  0  0  0  0  0  0  0  0  0  0  0
   36.9320   28.8720   49.9670 O   0  0  0  0  0  0  0  0  0  0  0  0
   36.5460   29.0940   50.8640 H   0  0  0  0  0  0  0  0  0  0  0  0
   38.2950   30.4290   46.9730 C   0  0  0  0  0  3  0  0  0  0  0  0
   38.8890   30.8450   45.8490 C   0  0  0  0  0  3  0  0  0  0  0  0
   39.3300   30.0350   44.6900 C   0  0  0  0  0  0  0  0  0  0  0  0
   38.5790   29.2090   44.5600 H   0  0  0  0  0  0  0  0  0  0  0  0
   40.2860   29.5450   44.8650 H   0  0  0  0  0  0  0  0  0  0  0  0
   39.2790   31.0350   43.1990 S   0  0  0  0  0  0  0  0  0  0  0  0
   34.5720   31.2960   43.8910 H   0  0  0  0  0  0  0  0  0  0  0  0
   35.4020   31.7450   43.4580 N   0  0  0  0  0  0  0  0  0  0  0  0
   36.6490   31.2140   43.5650 C   0  0  0  0  0  3  0  0  0  0  0  0
   37.7250   31.8520   42.9680 C   0  0  0  0  0  0  0  0  0  0  0  0
   37.4840   33.0210   42.2770 C   0  0  0  0  0  0  0  0  0  0  0  0
   38.5060   33.5380   41.7660 O   0  0  0  0  0  0  0  0  0  0  0  0
   36.2540   33.5530   42.1670 N   0  0  0  0  0  0  0  0  0  0  0  0
   35.2400   32.8910   42.7670 C   0  0  0  0  0  0  0  0  0  0  0  0
   34.0610   33.3680   42.6830 O   0  0  0  0  0  0  0  0  0  0  0  0
   36.1420   34.4360   41.6320 H   0  0  0  0  0  0  0  0  0  0  0  0
  1  2  1  0  0  0  0
  2  3  2  0  0  0  0
  2  7  1  0  0  0  0
  3  8  1  0  0  0  0
  4  9  1  0  0  0  0
  4  3  1  0  0  0  0
  5  6  1  0  0  0  0
  5  4  2  0  0  0  0
  6  1  2  0  0  0  0
 10  5  1  0  0  0  0
 11 12  1  6  0  0  0
 11  1  1  0  0  0  0
 11 22  1  0  0  0  0
 13 14  2  0  0  0  0
 13 18  1  0  0  0  0
 14 15  1  0  0  0  0
 15 21  1  0  0  0  0
 15 16  2  0  0  0  0
 17 16  1  0  0  0  0
 17 11  1  0  0  0  0
 18 17  2  0  0  0  0
 19 13  1  0  0  0  0
 20 14  1  0  0  0  0
 22 23  1  0  0  0  0
 24  6  1  0  0  0  0
 25 24  2  0  0  0  0
 26 28  1  0  0  0  0
 26 25  1  0  0  0  0
 27 26  1  0  0  0  0
 29 26  1  0  0  0  0
 31 32  1  0  0  0  0
 31 30  1  0  0  0  0
 33 29  1  0  0  0  0
 33 32  2  0  0  0  0
 34 33  1  0  0  0  0
 35 34  2  0  0  0  0
 36 34  1  0  0  0  0
 36 37  1  0  0  0  0
 37 31  1  0  0  0  0
 38 37  2  0  0  0  0
 39 36  1  0  0  0  0
M  END
>  <minimizedAffinity>
-6.17925692

>  <minimizedRMSD>
0.595773339

$$$$
