
 OpenBabel03272510043D

 38 40  0  0  0  0  0  0  0  0999 V2000
   34.7260   29.6960   44.7610 C   0  0  0  0  0  0  0  0  0  0  0  0
   34.8430   30.0410   46.0680 C   0  0  0  0  0  0  0  0  0  0  0  0
   33.7110   30.0870   46.8750 C   0  0  0  0  0  0  0  0  0  0  0  0
   32.4490   29.7930   46.3900 C   0  0  0  0  0  0  0  0  0  0  0  0
   32.2960   29.4480   45.0790 C   0  0  0  0  0  0  0  0  0  0  0  0
   33.4310   29.4110   44.3140 C   0  0  0  0  0  0  0  0  0  0  0  0
   33.8370   30.3670   47.9320 H   0  0  0  0  0  0  0  0  0  0  0  0
   31.6470   29.8590   47.1050 H   0  0  0  0  0  0  0  0  0  0  0  0
   31.3030   29.2360   44.7670 H   0  0  0  0  0  0  0  0  0  0  0  0
   33.1780   29.1250   43.2840 H   0  0  0  0  0  0  0  0  0  0  0  0
   38.2710   31.3380   46.3540 C   0  0  0  0  0  0  0  0  0  0  0  0
   37.0340   30.9810   45.8390 C   0  0  0  0  0  0  0  0  0  0  0  0
   36.0970   30.4030   46.6380 C   0  0  0  0  0  0  0  0  0  0  0  0
   36.4300   30.2040   47.9430 N   0  0  0  0  0  0  0  0  0  0  0  0
   37.6200   30.5500   48.4450 C   0  0  0  0  0  0  0  0  0  0  0  0
   38.5330   31.1130   47.6460 N   0  0  0  0  0  0  0  0  0  0  0  0
   39.1160   31.7950   45.8710 H   0  0  0  0  0  0  0  0  0  0  0  0
   37.0760   31.2980   44.8240 H   0  0  0  0  0  0  0  0  0  0  0  0
   37.8240   30.3390   49.9020 C   0  0  0  0  0  0  0  0  0  0  0  0
   38.8200   31.1490   50.4100 F   0  0  0  0  0  0  0  0  0  0  0  0
   36.6530   30.8140   50.6070 F   0  0  0  0  0  0  0  0  0  0  0  0
   37.9490   29.0980   50.3170 F   0  0  0  0  0  0  0  0  0  0  0  0
   36.0610   29.5600   43.6780 S   0  0  0  0  0  0  0  0  0  0  0  0
   36.2420   30.8120   42.9010 O   0  0  0  0  0  0  0  0  0  0  0  0
   35.3620   28.7800   42.5840 O   0  0  0  0  0  0  0  0  0  0  0  0
   37.2640   28.3810   43.6370 C   0  0  0  0  0  0  0  0  0  0  0  0
   37.5370   28.1950   44.7540 H   0  0  0  0  0  0  0  0  0  0  0  0
   36.8910   27.3730   43.3830 H   0  0  0  0  0  0  0  0  0  0  0  0
   38.5340   28.6820   43.0860 N   0  0  0  0  0  0  0  0  0  0  0  0
   38.9920   29.9100   42.7410 C   0  0  0  0  0  3  0  0  0  0  0  0
   40.2410   30.1520   42.2070 C   0  0  0  0  0  0  0  0  0  0  0  0
   40.5280   31.1840   41.9570 H   0  0  0  0  0  0  0  0  0  0  0  0
   41.0660   29.0560   42.0180 C   0  0  0  0  0  0  0  0  0  0  0  0
   42.1900   29.2870   41.5350 O   0  0  0  0  0  0  0  0  0  0  0  0
   40.6250   27.8160   42.3570 N   0  0  0  0  0  0  0  0  0  0  0  0
   39.4120   27.6640   42.8660 C   0  0  0  0  0  0  0  0  0  0  0  0
   39.0810   26.4660   43.1550 O   0  0  0  0  0  0  0  0  0  0  0  0
   41.2860   27.0260   42.1940 H   0  0  0  0  0  0  0  0  0  0  0  0
  1  2  1  0  0  0  0
  2 13  1  0  0  0  0
  2  3  2  0  0  0  0
  3  7  1  0  0  0  0
  4  3  1  0  0  0  0
  4  8  1  0  0  0  0
  5  4  2  0  0  0  0
  6  1  2  0  0  0  0
  6  5  1  0  0  0  0
  9  5  1  0  0  0  0
 10  6  1  0  0  0  0
 11 16  1  0  0  0  0
 12 11  2  0  0  0  0
 12 13  1  0  0  0  0
 13 14  2  0  0  0  0
 14 15  1  0  0  0  0
 15 19  1  0  0  0  0
 16 15  2  0  0  0  0
 17 11  1  0  0  0  0
 18 12  1  0  0  0  0
 19 22  1  0  0  0  0
 19 20  1  0  0  0  0
 19 21  1  0  0  0  0
 23  1  1  0  0  0  0
 24 23  2  0  0  0  0
 25 23  2  0  0  0  0
 26 23  1  0  0  0  0
 26 27  1  0  0  0  0
 28 26  1  0  0  0  0
 29 26  1  0  0  0  0
 30 29  1  0  0  0  0
 31 30  2  0  0  0  0
 32 31  1  0  0  0  0
 33 31  1  0  0  0  0
 33 35  1  0  0  0  0
 34 33  2  0  0  0  0
 35 36  1  0  0  0  0
 36 29  1  0  0  0  0
 36 37  2  0  0  0  0
 38 35  1  0  0  0  0
M  END
>  <minimizedAffinity>
-5.49598932

>  <minimizedRMSD>
4.46614885

$$$$
