
 OpenBabel03272509043D

 34 36  0  0  0  0  0  0  0  0999 V2000
   37.3690   29.8140   51.6080 C   0  0  0  0  0  0  0  0  0  0  0  0
   38.1300   30.5090   50.6330 C   0  0  0  0  0  0  0  0  0  0  0  0
   37.4810   30.8580   49.4080 C   0  0  0  0  0  0  0  0  0  0  0  0
   36.1780   30.4940   49.2720 N   0  0  0  0  0  0  0  0  0  0  0  0
   35.5080   29.8390   50.2210 C   0  0  0  0  0  0  0  0  0  0  0  0
   36.1050   29.5040   51.3790 N   0  0  0  0  0  0  0  0  0  0  0  0
   37.9400   29.6010   52.4800 H   0  0  0  0  0  0  0  0  0  0  0  0
   39.1660   30.8000   50.7400 H   0  0  0  0  0  0  0  0  0  0  0  0
   38.2060   31.5570   48.4020 N   0  0  0  0  0  0  0  0  0  0  0  0
   38.5640   30.7450   47.3810 C   0  0  0  0  0  3  0  0  0  0  0  0
   39.2840   31.2990   46.3190 C   0  0  0  0  0  0  0  0  0  0  0  0
   39.6170   30.7390   45.4570 H   0  0  0  0  0  0  0  0  0  0  0  0
   39.5960   32.6300   46.3520 C   0  0  0  0  0  0  0  0  0  0  0  0
   40.2320   33.2180   45.4580 O   0  0  0  0  0  0  0  0  0  0  0  0
   39.2190   33.4090   47.3920 N   0  0  0  0  0  0  0  0  0  0  0  0
   38.5250   32.8650   48.4110 C   0  0  0  0  0  0  0  0  0  0  0  0
   38.0920   33.4190   49.4530 O   0  0  0  0  0  0  0  0  0  0  0  0
   39.4120   34.4220   47.5000 H   0  0  0  0  0  0  0  0  0  0  0  0
   34.1310   29.5240   49.9230 C   0  0  0  0  0  3  0  0  0  0  0  0
   33.8670   28.4950   49.1910 C   0  0  0  0  0  3  0  0  0  0  0  0
   32.5520   27.9940   48.7670 C   0  0  0  0  0  0  0  0  0  0  0  0
   32.0890   28.7670   48.1020 H   0  0  0  0  0  0  0  0  0  0  0  0
   31.8300   27.8600   49.6040 H   0  0  0  0  0  0  0  0  0  0  0  0
   32.6530   26.7350   47.9640 C   0  0  0  0  0  0  0  0  0  0  0  0
   31.6730   25.7850   47.8200 C   0  0  0  0  0  0  0  0  0  0  0  0
   31.8810   24.6600   47.0510 C   0  0  0  0  0  0  0  0  0  0  0  0
   33.0970   24.4480   46.3900 C   0  0  0  0  0  0  0  0  0  0  0  0
   34.0840   25.3810   46.5190 C   0  0  0  0  0  0  0  0  0  0  0  0
   33.8590   26.5040   47.2960 C   0  0  0  0  0  0  0  0  0  0  0  0
   30.7380   25.9810   48.3480 H   0  0  0  0  0  0  0  0  0  0  0  0
   31.0580   23.9540   46.9850 H   0  0  0  0  0  0  0  0  0  0  0  0
   33.1940   23.5590   45.8100 H   0  0  0  0  0  0  0  0  0  0  0  0
   35.0400   25.2510   46.0230 H   0  0  0  0  0  0  0  0  0  0  0  0
   34.6560   27.2140   47.3740 H   0  0  0  0  0  0  0  0  0  0  0  0
  1  7  1  0  0  0  0
  2  8  1  0  0  0  0
  2  1  2  0  0  0  0
  3  2  1  0  0  0  0
  4  3  2  0  0  0  0
  4  5  1  0  0  0  0
  5  6  2  0  0  0  0
  6  1  1  0  0  0  0
  9 16  1  0  0  0  0
  9  3  1  0  0  0  0
 10  9  1  0  0  0  0
 11 13  1  0  0  0  0
 11 10  2  0  0  0  0
 12 11  1  0  0  0  0
 13 15  1  0  0  0  0
 14 13  2  0  0  0  0
 15 18  1  0  0  0  0
 15 16  1  0  0  0  0
 16 17  2  0  0  0  0
 19  5  1  0  0  0  0
 20 19  2  0  0  0  0
 21 20  1  0  0  0  0
 21 23  1  0  0  0  0
 22 21  1  0  0  0  0
 24 21  1  0  0  0  0
 25 24  1  0  0  0  0
 25 30  1  0  0  0  0
 26 25  2  0  0  0  0
 27 28  2  0  0  0  0
 27 26  1  0  0  0  0
 28 29  1  0  0  0  0
 29 34  1  0  0  0  0
 29 24  2  0  0  0  0
 31 26  1  0  0  0  0
 32 27  1  0  0  0  0
 33 28  1  0  0  0  0
M  END
>  <minimizedAffinity>
-7.15740776

>  <minimizedRMSD>
1.42558849

$$$$
