
 OpenBabel03272507193D

 31 33  0  0  1  0  0  0  0  0999 V2000
   37.4680   31.2360   49.4960 C   0  0  0  0  0  0  0  0  0  0  0  0
   38.2830   32.3470   49.6080 C   0  0  0  0  0  0  0  0  0  0  0  0
   38.7460   32.8520   48.3670 C   0  0  0  0  0  0  0  0  0  0  0  0
   38.3870   32.2540   47.1830 N   0  0  0  0  0  0  0  0  0  0  0  0
   37.5850   31.1680   47.1520 C   0  0  0  0  0  0  0  0  0  0  0  0
   37.1190   30.6520   48.3310 N   0  0  0  0  0  0  0  0  0  0  0  0
   38.5610   32.8110   50.5420 H   0  0  0  0  0  0  0  0  0  0  0  0
   39.3930   33.7250   48.3620 H   0  0  0  0  0  0  0  0  0  0  0  0
   37.2650   30.6120   45.8810 N   0  0  0  0  0  0  0  0  0  0  0  0
   38.2860   30.5220   44.9800 C   0  0  0  0  0  3  0  0  0  0  0  0
   38.0540   29.9940   43.7270 C   0  0  0  0  0  0  0  0  0  0  0  0
   38.8180   29.8980   42.9800 H   0  0  0  0  0  0  0  0  0  0  0  0
   36.7850   29.5480   43.3600 C   0  0  0  0  0  0  0  0  0  0  0  0
   36.5700   29.0660   42.2140 O   0  0  0  0  0  0  0  0  0  0  0  0
   35.8070   29.6610   44.2900 N   0  0  0  0  0  0  0  0  0  0  0  0
   36.0450   30.1740   45.5000 C   0  0  0  0  0  0  0  0  0  0  0  0
   35.1300   30.2790   46.3700 O   0  0  0  0  0  0  0  0  0  0  0  0
   34.8390   29.3280   44.0270 H   0  0  0  0  0  0  0  0  0  0  0  0
   36.9310   30.7010   50.7860 C   0  0  1  0  0  0  0  0  0  0  0  0
   36.1130   29.4910   50.8440 C   0  0  2  0  0  0  0  0  0  0  0  0
   37.5730   29.3490   51.1600 C   0  0  0  0  0  0  0  0  0  0  0  0
   36.9230   31.4460   51.6100 H   0  0  0  0  0  0  0  0  0  0  0  0
   35.3370   29.5360   51.6660 H   0  0  0  0  0  0  0  0  0  0  0  0
   38.2210   28.8490   50.4130 H   0  0  0  0  0  0  0  0  0  0  0  0
   37.7850   29.2290   52.2320 H   0  0  0  0  0  0  0  0  0  0  0  0
   35.6400   28.9930   49.6370 O   0  0  0  0  0  0  0  0  0  0  0  0
   34.4140   28.5210   49.3080 C   0  0  0  0  0  0  0  0  0  0  0  0
   34.2590   27.4980   48.6070 O   0  0  0  0  0  0  0  0  0  0  0  0
   33.4590   29.3620   49.8780 N   0  0  0  0  0  0  0  0  0  0  0  0
   32.6350   30.0090   49.8870 H   0  0  0  0  0  0  0  0  0  0  0  0
   33.3470   29.6100   50.9000 H   0  0  0  0  0  0  0  0  0  0  0  0
  1  2  1  0  0  0  0
  1 19  1  0  0  0  0
  2  7  1  0  0  0  0
  3  2  2  0  0  0  0
  4  3  1  0  0  0  0
  5  4  2  0  0  0  0
  5  6  1  0  0  0  0
  6  1  2  0  0  0  0
  8  3  1  0  0  0  0
  9  5  1  0  0  0  0
 10  9  1  0  0  0  0
 11 10  2  0  0  0  0
 12 11  1  0  0  0  0
 13 11  1  0  0  0  0
 13 15  1  0  0  0  0
 14 13  2  0  0  0  0
 15 16  1  0  0  0  0
 16  9  1  0  0  0  0
 16 17  2  0  0  0  0
 18 15  1  0  0  0  0
 19 20  1  0  0  0  0
 19 21  1  0  0  0  0
 19 22  1  1  0  0  0
 20 21  1  0  0  0  0
 20 23  1  1  0  0  0
 21 25  1  0  0  0  0
 24 21  1  0  0  0  0
 26 20  1  0  0  0  0
 27 26  1  0  0  0  0
 27 29  1  0  0  0  0
 28 27  2  0  0  0  0
 29 30  1  0  0  0  0
 29 31  1  0  0  0  0
M  END
>  <minimizedAffinity>
-5.84193993

>  <minimizedRMSD>
0.405909091

$$$$
