
 OpenBabel03262520123D

 43 45  0  0  0  0  0  0  0  0999 V2000
   35.3260   30.1450   49.2200 C   0  0  0  0  0  0  0  0  0  0  0  0
   35.2880   31.1550   49.7160 H   0  0  0  0  0  0  0  0  0  0  0  0
   36.1200   29.5870   49.7880 H   0  0  0  0  0  0  0  0  0  0  0  0
   38.2110   31.4050   48.9040 Br  0  0  0  0  0  0  0  0  0  0  0  0
   37.0280   30.8280   47.5020 C   0  0  0  0  0  0  0  0  0  0  0  0
   37.4050   30.9420   46.1890 C   0  0  0  0  0  0  0  0  0  0  0  0
   36.5200   30.5260   45.2300 C   0  0  0  0  0  0  0  0  0  0  0  0
   35.2740   30.0000   45.5420 C   0  0  0  0  0  0  0  0  0  0  0  0
   34.9280   29.9000   46.8960 C   0  0  0  0  0  0  0  0  0  0  0  0
   35.8100   30.3150   47.8550 C   0  0  0  0  0  0  0  0  0  0  0  0
   36.8710   30.6390   44.1910 H   0  0  0  0  0  0  0  0  0  0  0  0
   34.6970   29.7200   44.6760 H   0  0  0  0  0  0  0  0  0  0  0  0
   33.9480   29.4930   46.9230 H   0  0  0  0  0  0  0  0  0  0  0  0
   39.9160   33.3580   45.1070 C   0  0  0  0  0  0  0  0  0  0  0  0
   41.1260   32.6080   45.0960 C   0  0  0  0  0  0  0  0  0  0  0  0
   41.0420   31.2810   45.4640 C   0  0  0  0  0  0  0  0  0  0  0  0
   39.8280   30.7360   45.8210 N   0  0  0  0  0  0  0  0  0  0  0  0
   38.7120   31.4960   45.8130 C   0  0  0  0  0  0  0  0  0  0  0  0
   38.7710   32.7870   45.4590 N   0  0  0  0  0  0  0  0  0  0  0  0
   40.0090   34.3850   44.8160 H   0  0  0  0  0  0  0  0  0  0  0  0
   42.0710   33.0620   44.8090 H   0  0  0  0  0  0  0  0  0  0  0  0
   41.9390   30.6750   45.4680 H   0  0  0  0  0  0  0  0  0  0  0  0
   34.0460   29.4130   49.4020 C   0  0  0  0  0  0  0  0  0  0  0  0
   33.2050   29.8640   48.9120 H   0  0  0  0  0  0  0  0  0  0  0  0
   33.8120   29.5710   50.5130 H   0  0  0  0  0  0  0  0  0  0  0  0
   34.2870   28.0200   49.2980 N   0  0  0  0  0  0  0  0  0  0  0  0
   34.4500   27.5130   50.1850 H   0  0  0  0  0  0  0  0  0  0  0  0
   33.5140   27.2880   48.3670 C   0  0  0  0  0  0  0  0  0  0  0  0
   33.7940   27.5510   47.3240 H   0  0  0  0  0  0  0  0  0  0  0  0
   33.7540   26.2170   48.4800 H   0  0  0  0  0  0  0  0  0  0  0  0
   32.0680   27.5950   48.5990 C   0  0  0  0  0  0  0  0  0  0  0  0
   31.4960   26.7180   48.9750 H   0  0  0  0  0  0  0  0  0  0  0  0
   31.7850   28.5340   49.0340 H   0  0  0  0  0  0  0  0  0  0  0  0
   31.5260   27.7350   47.2070 N   0  0  0  0  0  0  0  0  0  0  0  0
   31.6660   28.9180   46.5390 C   0  0  0  0  0  3  0  0  0  0  0  0
   31.1730   29.0650   45.2600 C   0  0  0  0  0  0  0  0  0  0  0  0
   31.2810   29.9920   44.7290 H   0  0  0  0  0  0  0  0  0  0  0  0
   30.5320   28.0120   44.6430 C   0  0  0  0  0  0  0  0  0  0  0  0
   30.0570   28.0680   43.4820 O   0  0  0  0  0  0  0  0  0  0  0  0
   30.4180   26.8680   45.3400 N   0  0  0  0  0  0  0  0  0  0  0  0
   30.8900   26.6990   46.5880 C   0  0  0  0  0  0  0  0  0  0  0  0
   30.8070   25.6610   47.2700 O   0  0  0  0  0  0  0  0  0  0  0  0
   29.9500   25.9970   44.9780 H   0  0  0  0  0  0  0  0  0  0  0  0
  1 23  1  0  0  0  0
  1  2  1  0  0  0  0
  1  3  1  0  0  0  0
  5 10  1  0  0  0  0
  5  4  1  0  0  0  0
  6  5  2  0  0  0  0
  7  8  2  0  0  0  0
  7  6  1  0  0  0  0
  8  9  1  0  0  0  0
  9 13  1  0  0  0  0
  9 10  2  0  0  0  0
 10  1  1  0  0  0  0
 11  7  1  0  0  0  0
 12  8  1  0  0  0  0
 14 19  1  0  0  0  0
 15 14  2  0  0  0  0
 15 16  1  0  0  0  0
 16 22  1  0  0  0  0
 16 17  2  0  0  0  0
 18 17  1  0  0  0  0
 18  6  1  0  0  0  0
 19 18  2  0  0  0  0
 20 14  1  0  0  0  0
 21 15  1  0  0  0  0
 23 25  1  0  0  0  0
 24 23  1  0  0  0  0
 26 23  1  0  0  0  0
 26 27  1  0  0  0  0
 28 30  1  0  0  0  0
 28 31  1  0  0  0  0
 28 26  1  0  0  0  0
 29 28  1  0  0  0  0
 31 32  1  0  0  0  0
 31 33  1  0  0  0  0
 34 31  1  0  0  0  0
 35 34  1  0  0  0  0
 36 35  2  0  0  0  0
 37 36  1  0  0  0  0
 38 36  1  0  0  0  0
 38 40  1  0  0  0  0
 39 38  2  0  0  0  0
 40 41  1  0  0  0  0
 41 34  1  0  0  0  0
 41 42  2  0  0  0  0
 43 40  1  0  0  0  0
M  END
>  <minimizedAffinity>
-5.04025412

>  <minimizedRMSD>
1.692994

$$$$
