
 OpenBabel03262523493D

 22 23  0  0  0  0  0  0  0  0999 V2000
   35.6990   30.3060   47.2670 C   0  0  0  0  0  0  0  0  0  0  0  0
   36.4880   29.9800   46.5380 H   0  0  0  0  0  0  0  0  0  0  0  0
   35.5210   31.3710   47.0370 H   0  0  0  0  0  0  0  0  0  0  0  0
   36.1950   30.1440   48.6020 N   0  0  0  0  0  0  0  0  0  0  0  0
   35.3630   29.8880   49.6260 C   0  0  0  0  0  3  0  0  0  0  0  0
   35.8550   29.7360   50.8920 C   0  0  0  0  0  0  0  0  0  0  0  0
   35.2830   29.5280   51.7890 H   0  0  0  0  0  0  0  0  0  0  0  0
   37.2180   29.8560   51.0680 C   0  0  0  0  0  0  0  0  0  0  0  0
   37.7810   29.7340   52.2030 O   0  0  0  0  0  0  0  0  0  0  0  0
   38.0910   30.1170   50.0500 N   0  0  0  0  0  0  0  0  0  0  0  0
   37.5070   30.2510   48.8300 C   0  0  0  0  0  0  0  0  0  0  0  0
   38.2700   30.4910   47.8580 O   0  0  0  0  0  0  0  0  0  0  0  0
   39.1190   30.2040   50.2060 H   0  0  0  0  0  0  0  0  0  0  0  0
   34.4390   29.5620   47.0310 C   0  0  0  0  0  0  0  0  0  0  0  0
   33.3390   30.2720   46.5220 C   0  0  0  0  0  0  0  0  0  0  0  0
   32.1540   29.5590   46.3030 C   0  0  0  0  0  0  0  0  0  0  0  0
   32.1190   28.2230   46.5900 N   0  0  0  0  0  0  0  0  0  0  0  0
   33.2070   27.5900   47.0780 C   0  0  0  0  0  0  0  0  0  0  0  0
   34.3550   28.2410   47.2990 N   0  0  0  0  0  0  0  0  0  0  0  0
   33.3800   31.3280   46.3000 H   0  0  0  0  0  0  0  0  0  0  0  0
   31.3090   30.1010   45.9140 H   0  0  0  0  0  0  0  0  0  0  0  0
   33.1150   26.5320   47.2850 H   0  0  0  0  0  0  0  0  0  0  0  0
  1  4  1  0  0  0  0
  2  1  1  0  0  0  0
  3  1  1  0  0  0  0
  4 11  1  0  0  0  0
  4  5  1  0  0  0  0
  5  6  2  0  0  0  0
  6  8  1  0  0  0  0
  6  7  1  0  0  0  0
  8  9  2  0  0  0  0
 10 13  1  0  0  0  0
 10  8  1  0  0  0  0
 11 10  1  0  0  0  0
 12 11  2  0  0  0  0
 14  1  1  0  0  0  0
 14 19  1  0  0  0  0
 15 14  2  0  0  0  0
 16 15  1  0  0  0  0
 16 17  2  0  0  0  0
 17 18  1  0  0  0  0
 18 22  1  0  0  0  0
 18 19  2  0  0  0  0
 20 15  1  0  0  0  0
 21 16  1  0  0  0  0
M  END
>  <minimizedAffinity>
-4.34722137

>  <minimizedRMSD>
4.57798481

$$$$
