
 OpenBabel03272507333D

 37 40  0  0  1  0  0  0  0  0999 V2000
   33.0030   27.7450   48.3680 C   0  0  0  0  0  0  0  0  0  0  0  0
   31.7970   27.6870   48.7820 O   0  0  0  0  0  0  0  0  0  0  0  0
   35.9020   29.2190   49.8510 C   0  0  0  0  0  0  0  0  0  0  0  0
   34.9490   29.7020   50.7230 C   0  0  0  0  0  0  0  0  0  0  0  0
   33.7050   29.2210   50.2940 C   0  0  0  0  0  0  0  0  0  0  0  0
   33.9840   28.4670   49.1760 C   0  0  0  0  0  0  0  0  0  0  0  0
   35.2810   28.4930   48.9550 O   0  0  0  0  0  0  0  0  0  0  0  0
   35.0810   30.3450   51.6010 H   0  0  0  0  0  0  0  0  0  0  0  0
   32.7590   29.4300   50.7770 H   0  0  0  0  0  0  0  0  0  0  0  0
   37.3150   29.5240   49.9990 C   0  0  0  0  0  0  0  0  0  0  0  0
   37.9920   28.8780   50.8110 O   0  0  0  0  0  0  0  0  0  0  0  0
   37.8450   30.5790   49.1750 C   0  0  0  0  0  0  0  0  0  0  0  0
   38.1900   31.7650   49.8080 C   0  0  0  0  0  0  0  0  0  0  0  0
   38.7050   32.8070   49.0340 C   0  0  0  0  0  0  0  0  0  0  0  0
   38.8400   32.5960   47.6790 N   0  0  0  0  0  0  0  0  0  0  0  0
   38.4990   31.4430   47.1060 C   0  0  0  0  0  0  0  0  0  0  0  0
   38.0030   30.4330   47.8390 N   0  0  0  0  0  0  0  0  0  0  0  0
   38.0720   31.8970   50.8690 H   0  0  0  0  0  0  0  0  0  0  0  0
   38.9740   33.7290   49.5260 H   0  0  0  0  0  0  0  0  0  0  0  0
   38.6360   31.3600   46.0380 H   0  0  0  0  0  0  0  0  0  0  0  0
   33.4080   27.0820   47.0840 C   0  0  1  0  0  0  0  0  0  0  0  0
   33.7170   25.5540   47.3470 C   0  0  0  0  0  0  0  0  0  0  0  0
   32.5930   26.0170   46.5020 C   0  0  2  0  0  0  0  0  0  0  0  0
   34.2920   27.5380   46.5940 H   0  0  0  0  0  0  0  0  0  0  0  0
   33.5470   25.1770   48.3520 H   0  0  0  0  0  0  0  0  0  0  0  0
   34.5990   25.1470   46.8310 H   0  0  0  0  0  0  0  0  0  0  0  0
   31.5900   25.8830   47.0080 H   0  0  0  0  0  0  0  0  0  0  0  0
   32.5560   25.8970   45.0810 N   0  0  0  0  0  0  0  0  0  0  0  0
   33.1870   26.8050   44.2770 C   0  0  0  0  0  3  0  0  0  0  0  0
   33.1560   26.6990   42.9010 C   0  0  0  0  0  0  0  0  0  0  0  0
   33.6990   27.4860   42.3840 H   0  0  0  0  0  0  0  0  0  0  0  0
   32.4860   25.6700   42.2720 C   0  0  0  0  0  0  0  0  0  0  0  0
   32.5440   25.7030   41.0160 O   0  0  0  0  0  0  0  0  0  0  0  0
   31.8660   24.7810   43.0700 N   0  0  0  0  0  0  0  0  0  0  0  0
   31.9230   24.9230   44.4070 C   0  0  0  0  0  0  0  0  0  0  0  0
   31.3100   24.0350   45.0310 O   0  0  0  0  0  0  0  0  0  0  0  0
   31.3710   24.0190   42.5710 H   0  0  0  0  0  0  0  0  0  0  0  0
  1  2  2  0  0  0  0
  1  6  1  0  0  0  0
  3 10  1  0  0  0  0
  3  4  2  0  0  0  0
  4  8  1  0  0  0  0
  5  4  1  0  0  0  0
  5  9  1  0  0  0  0
  6  5  2  0  0  0  0
  7  6  1  0  0  0  0
  7  3  1  0  0  0  0
 10 11  2  0  0  0  0
 12 13  1  0  0  0  0
 12 10  1  0  0  0  0
 13 18  1  0  0  0  0
 14 19  1  0  0  0  0
 14 13  2  0  0  0  0
 15 14  1  0  0  0  0
 16 15  2  0  0  0  0
 16 17  1  0  0  0  0
 17 12  2  0  0  0  0
 20 16  1  0  0  0  0
 21 24  1  6  0  0  0
 21 22  1  0  0  0  0
 21  1  1  0  0  0  0
 22 25  1  0  0  0  0
 23 27  1  1  0  0  0
 23 21  1  0  0  0  0
 23 22  1  0  0  0  0
 26 22  1  0  0  0  0
 28 23  1  0  0  0  0
 29 28  1  0  0  0  0
 30 29  2  0  0  0  0
 31 30  1  0  0  0  0
 32 30  1  0  0  0  0
 32 34  1  0  0  0  0
 33 32  2  0  0  0  0
 34 35  1  0  0  0  0
 35 36  2  0  0  0  0
 35 28  1  0  0  0  0
 37 34  1  0  0  0  0
M  END
>  <minimizedAffinity>
-4.87260532

>  <minimizedRMSD>
0.706179738

$$$$
