
 OpenBabel03272507193D

 31 33  0  0  1  0  0  0  0  0999 V2000
   37.0950   31.1170   49.2650 C   0  0  0  0  0  0  0  0  0  0  0  0
   38.2630   31.8270   49.4670 C   0  0  0  0  0  0  0  0  0  0  0  0
   38.9280   32.2010   48.2720 C   0  0  0  0  0  0  0  0  0  0  0  0
   38.4130   31.8620   47.0430 N   0  0  0  0  0  0  0  0  0  0  0  0
   37.2650   31.1650   46.9230 C   0  0  0  0  0  0  0  0  0  0  0  0
   36.5940   30.7870   48.0550 N   0  0  0  0  0  0  0  0  0  0  0  0
   38.6600   32.0890   50.4360 H   0  0  0  0  0  0  0  0  0  0  0  0
   39.8560   32.7630   48.3390 H   0  0  0  0  0  0  0  0  0  0  0  0
   36.8060   30.8570   45.6120 N   0  0  0  0  0  0  0  0  0  0  0  0
   37.5470   31.3460   44.5750 C   0  0  0  0  0  3  0  0  0  0  0  0
   37.1660   31.0910   43.2740 C   0  0  0  0  0  0  0  0  0  0  0  0
   37.7100   31.4500   42.4230 H   0  0  0  0  0  0  0  0  0  0  0  0
   36.0290   30.3340   42.9950 C   0  0  0  0  0  0  0  0  0  0  0  0
   35.6790   30.0980   41.8070 O   0  0  0  0  0  0  0  0  0  0  0  0
   35.3300   29.8710   44.0590 N   0  0  0  0  0  0  0  0  0  0  0  0
   35.7090   30.1260   45.3130 C   0  0  0  0  0  0  0  0  0  0  0  0
   35.0550   29.6940   46.3080 O   0  0  0  0  0  0  0  0  0  0  0  0
   34.4640   29.2950   43.8630 H   0  0  0  0  0  0  0  0  0  0  0  0
   36.3480   30.7420   50.5060 C   0  0  1  0  0  0  0  0  0  0  0  0
   35.6170   29.4810   50.6200 C   0  0  2  0  0  0  0  0  0  0  0  0
   36.9920   29.5340   51.2210 C   0  0  0  0  0  0  0  0  0  0  0  0
   36.1270   31.6030   51.1720 H   0  0  0  0  0  0  0  0  0  0  0  0
   34.6920   29.5780   51.2640 H   0  0  0  0  0  0  0  0  0  0  0  0
   37.8070   28.9900   50.7050 H   0  0  0  0  0  0  0  0  0  0  0  0
   36.9940   29.6060   52.3170 H   0  0  0  0  0  0  0  0  0  0  0  0
   35.4280   28.7550   49.4520 O   0  0  0  0  0  0  0  0  0  0  0  0
   34.3250   28.1220   48.9860 C   0  0  0  0  0  0  0  0  0  0  0  0
   34.3930   27.0940   48.2790 O   0  0  0  0  0  0  0  0  0  0  0  0
   33.2030   28.8200   49.4350 N   0  0  0  0  0  0  0  0  0  0  0  0
   32.3040   29.3480   49.3430 H   0  0  0  0  0  0  0  0  0  0  0  0
   32.9410   29.0420   50.4350 H   0  0  0  0  0  0  0  0  0  0  0  0
  1  2  1  0  0  0  0
  1 19  1  0  0  0  0
  2  7  1  0  0  0  0
  3  8  1  0  0  0  0
  3  2  2  0  0  0  0
  4  3  1  0  0  0  0
  5  4  2  0  0  0  0
  5  6  1  0  0  0  0
  6  1  2  0  0  0  0
  9  5  1  0  0  0  0
 10  9  1  0  0  0  0
 11 10  2  0  0  0  0
 12 11  1  0  0  0  0
 13 11  1  0  0  0  0
 13 15  1  0  0  0  0
 14 13  2  0  0  0  0
 15 16  1  0  0  0  0
 16  9  1  0  0  0  0
 16 17  2  0  0  0  0
 18 15  1  0  0  0  0
 19 20  1  0  0  0  0
 19 22  1  1  0  0  0
 19 21  1  0  0  0  0
 20 21  1  0  0  0  0
 20 23  1  1  0  0  0
 21 25  1  0  0  0  0
 24 21  1  0  0  0  0
 26 20  1  0  0  0  0
 27 29  1  0  0  0  0
 27 26  1  0  0  0  0
 28 27  2  0  0  0  0
 29 31  1  0  0  0  0
 30 29  1  0  0  0  0
M  END
>  <minimizedAffinity>
-5.4505558

>  <minimizedRMSD>
0.482649773

$$$$
