
 OpenBabel03272507353D

 37 40  0  0  1  0  0  0  0  0999 V2000
   37.7120   26.1330   33.7990 C   0  0  0  0  0  0  0  0  0  0  0  0
   37.2870   27.3360   33.7710 O   0  0  0  0  0  0  0  0  0  0  0  0
   37.1330   23.4090   31.5570 C   0  0  0  0  0  0  0  0  0  0  0  0
   36.2230   24.3080   31.0390 C   0  0  0  0  0  0  0  0  0  0  0  0
   36.3000   25.4750   31.8100 C   0  0  0  0  0  0  0  0  0  0  0  0
   37.2640   25.2100   32.7570 C   0  0  0  0  0  0  0  0  0  0  0  0
   37.7230   23.9910   32.5720 O   0  0  0  0  0  0  0  0  0  0  0  0
   35.5420   24.1860   30.1890 H   0  0  0  0  0  0  0  0  0  0  0  0
   35.7060   26.3650   31.6490 H   0  0  0  0  0  0  0  0  0  0  0  0
   37.3190   22.0830   30.9950 C   0  0  0  0  0  0  0  0  0  0  0  0
   38.0460   21.9430   30.0020 O   0  0  0  0  0  0  0  0  0  0  0  0
   36.6310   20.9970   31.6430 C   0  0  0  0  0  0  0  0  0  0  0  0
   36.5100   19.8100   30.9340 C   0  0  0  0  0  0  0  0  0  0  0  0
   35.8460   18.7400   31.5360 C   0  0  0  0  0  0  0  0  0  0  0  0
   35.3460   18.9250   32.8070 N   0  0  0  0  0  0  0  0  0  0  0  0
   35.4820   20.0790   33.4580 C   0  0  0  0  0  0  0  0  0  0  0  0
   36.1190   21.1160   32.8900 N   0  0  0  0  0  0  0  0  0  0  0  0
   36.9120   19.6970   29.9420 H   0  0  0  0  0  0  0  0  0  0  0  0
   35.7510   17.8160   30.9850 H   0  0  0  0  0  0  0  0  0  0  0  0
   35.0620   20.1420   34.4510 H   0  0  0  0  0  0  0  0  0  0  0  0
   38.6560   25.6750   34.8730 C   0  0  1  0  0  0  0  0  0  0  0  0
   38.1770   26.2280   36.2740 C   0  0  0  0  0  0  0  0  0  0  0  0
   38.2010   24.7860   35.9400 C   0  0  2  0  0  0  0  0  0  0  0  0
   39.7090   25.9840   34.7160 H   0  0  0  0  0  0  0  0  0  0  0  0
   37.2440   26.7850   36.2980 H   0  0  0  0  0  0  0  0  0  0  0  0
   38.9700   26.6020   36.9380 H   0  0  0  0  0  0  0  0  0  0  0  0
   37.1640   24.3660   35.7710 H   0  0  0  0  0  0  0  0  0  0  0  0
   39.1330   23.8510   36.4820 N   0  0  0  0  0  0  0  0  0  0  0  0
   40.2620   23.4980   35.7950 C   0  0  0  0  0  3  0  0  0  0  0  0
   41.1690   22.5940   36.3110 C   0  0  0  0  0  0  0  0  0  0  0  0
   42.0200   22.4040   35.6620 H   0  0  0  0  0  0  0  0  0  0  0  0
   40.9790   22.0050   37.5440 C   0  0  0  0  0  0  0  0  0  0  0  0
   41.8880   21.2030   37.8820 O   0  0  0  0  0  0  0  0  0  0  0  0
   39.8660   22.3590   38.2120 N   0  0  0  0  0  0  0  0  0  0  0  0
   39.0090   23.2430   37.6730 C   0  0  0  0  0  0  0  0  0  0  0  0
   38.0190   23.4850   38.3910 O   0  0  0  0  0  0  0  0  0  0  0  0
   39.7480   21.9000   39.1360 H   0  0  0  0  0  0  0  0  0  0  0  0
  1 21  1  0  0  0  0
  2  1  2  0  0  0  0
  3  7  1  0  0  0  0
  4  3  2  0  0  0  0
  4  5  1  0  0  0  0
  5  6  2  0  0  0  0
  6  1  1  0  0  0  0
  7  6  1  0  0  0  0
  8  4  1  0  0  0  0
  9  5  1  0  0  0  0
 10  3  1  0  0  0  0
 10 12  1  0  0  0  0
 11 10  2  0  0  0  0
 12 17  1  0  0  0  0
 13 14  1  0  0  0  0
 13 12  2  0  0  0  0
 14 15  2  0  0  0  0
 15 16  1  0  0  0  0
 16 20  1  0  0  0  0
 17 16  2  0  0  0  0
 18 13  1  0  0  0  0
 19 14  1  0  0  0  0
 21 24  1  6  0  0  0
 21 23  1  0  0  0  0
 21 22  1  0  0  0  0
 22 25  1  0  0  0  0
 22 26  1  0  0  0  0
 23 27  1  6  0  0  0
 23 22  1  0  0  0  0
 23 28  1  0  0  0  0
 28 35  1  0  0  0  0
 29 30  2  0  0  0  0
 29 28  1  0  0  0  0
 30 32  1  0  0  0  0
 31 30  1  0  0  0  0
 32 33  2  0  0  0  0
 32 34  1  0  0  0  0
 34 37  1  0  0  0  0
 35 34  1  0  0  0  0
 35 36  2  0  0  0  0
M  END
>  <minimizedAffinity>
-6.22533035

$$$$

 OpenBabel03272507353D

 37 40  0  0  1  0  0  0  0  0999 V2000
   37.2960   25.6090   33.0740 C   0  0  0  0  0  0  0  0  0  0  0  0
   36.6430   24.6600   32.5260 O   0  0  0  0  0  0  0  0  0  0  0  0
   36.0950   28.9250   32.4850 C   0  0  0  0  0  0  0  0  0  0  0  0
   37.1460   28.9170   31.5910 C   0  0  0  0  0  0  0  0  0  0  0  0
   37.7630   27.6630   31.6790 C   0  0  0  0  0  0  0  0  0  0  0  0
   37.0400   26.9790   32.6300 C   0  0  0  0  0  0  0  0  0  0  0  0
   36.0750   27.7550   33.0740 O   0  0  0  0  0  0  0  0  0  0  0  0
   37.4820   29.7120   30.9150 H   0  0  0  0  0  0  0  0  0  0  0  0
   38.6220   27.3520   31.0980 H   0  0  0  0  0  0  0  0  0  0  0  0
   35.2310   30.0790   32.6560 C   0  0  0  0  0  0  0  0  0  0  0  0
   34.2050   30.1750   31.9670 O   0  0  0  0  0  0  0  0  0  0  0  0
   35.6320   31.0560   33.6340 C   0  0  0  0  0  0  0  0  0  0  0  0
   35.5690   30.6800   34.9690 C   0  0  0  0  0  0  0  0  0  0  0  0
   35.9510   31.6080   35.9400 C   0  0  0  0  0  0  0  0  0  0  0  0
   36.3690   32.8500   35.5150 N   0  0  0  0  0  0  0  0  0  0  0  0
   36.4170   33.1760   34.2240 C   0  0  0  0  0  0  0  0  0  0  0  0
   36.0530   32.2920   33.2800 N   0  0  0  0  0  0  0  0  0  0  0  0
   35.2380   29.7010   35.2680 H   0  0  0  0  0  0  0  0  0  0  0  0
   35.9020   31.3160   36.9780 H   0  0  0  0  0  0  0  0  0  0  0  0
   36.7560   34.1700   33.9760 H   0  0  0  0  0  0  0  0  0  0  0  0
   38.2990   25.3290   34.1550 C   0  0  1  0  0  0  0  0  0  0  0  0
   37.9410   26.1680   35.4450 C   0  0  0  0  0  0  0  0  0  0  0  0
   37.8950   24.6890   35.4040 C   0  0  2  0  0  0  0  0  0  0  0  0
   39.3480   25.5540   33.8720 H   0  0  0  0  0  0  0  0  0  0  0  0
   37.0290   26.7600   35.4180 H   0  0  0  0  0  0  0  0  0  0  0  0
   38.7900   26.6290   35.9700 H   0  0  0  0  0  0  0  0  0  0  0  0
   36.8360   24.2910   35.3900 H   0  0  0  0  0  0  0  0  0  0  0  0
   38.8340   23.8380   36.0610 N   0  0  0  0  0  0  0  0  0  0  0  0
   39.9860   23.4430   35.4390 C   0  0  0  0  0  3  0  0  0  0  0  0
   40.9000   22.6200   36.0650 C   0  0  0  0  0  0  0  0  0  0  0  0
   41.7710   22.3840   35.4580 H   0  0  0  0  0  0  0  0  0  0  0  0
   40.6940   22.1570   37.3480 C   0  0  0  0  0  0  0  0  0  0  0  0
   41.6110   21.4160   37.7870 O   0  0  0  0  0  0  0  0  0  0  0  0
   39.5580   22.5500   37.9520 N   0  0  0  0  0  0  0  0  0  0  0  0
   38.6950   23.3530   37.3050 C   0  0  0  0  0  0  0  0  0  0  0  0
   37.6830   23.6440   37.9730 O   0  0  0  0  0  0  0  0  0  0  0  0
   39.4280   22.1870   38.9150 H   0  0  0  0  0  0  0  0  0  0  0  0
  1 21  1  0  0  0  0
  2  1  2  0  0  0  0
  3 10  1  0  0  0  0
  3  7  1  0  0  0  0
  4  5  1  0  0  0  0
  4  3  2  0  0  0  0
  5  6  2  0  0  0  0
  6  7  1  0  0  0  0
  6  1  1  0  0  0  0
  8  4  1  0  0  0  0
  9  5  1  0  0  0  0
 10 12  1  0  0  0  0
 11 10  2  0  0  0  0
 12 13  1  0  0  0  0
 13 18  1  0  0  0  0
 13 14  2  0  0  0  0
 14 19  1  0  0  0  0
 15 14  1  0  0  0  0
 16 15  2  0  0  0  0
 17 12  2  0  0  0  0
 17 16  1  0  0  0  0
 20 16  1  0  0  0  0
 21 24  1  6  0  0  0
 21 23  1  0  0  0  0
 21 22  1  0  0  0  0
 22 26  1  0  0  0  0
 23 27  1  6  0  0  0
 23 22  1  0  0  0  0
 23 28  1  0  0  0  0
 25 22  1  0  0  0  0
 28 35  1  0  0  0  0
 29 28  1  0  0  0  0
 29 30  2  0  0  0  0
 30 32  1  0  0  0  0
 31 30  1  0  0  0  0
 32 33  2  0  0  0  0
 32 34  1  0  0  0  0
 34 37  1  0  0  0  0
 35 34  1  0  0  0  0
 35 36  2  0  0  0  0
M  END
>  <minimizedAffinity>
-6.03787565

$$$$

 OpenBabel03272507353D

 37 40  0  0  1  0  0  0  0  0999 V2000
   36.0950   28.3000   32.8340 C   0  0  0  0  0  0  0  0  0  0  0  0
   35.9870   27.9670   31.6080 O   0  0  0  0  0  0  0  0  0  0  0  0
   37.7580   25.6300   34.5330 C   0  0  0  0  0  0  0  0  0  0  0  0
   38.0860   26.6620   35.3880 C   0  0  0  0  0  0  0  0  0  0  0  0
   37.5090   27.8320   34.8750 C   0  0  0  0  0  0  0  0  0  0  0  0
   36.8600   27.4320   33.7280 C   0  0  0  0  0  0  0  0  0  0  0  0
   37.0320   26.1370   33.5680 O   0  0  0  0  0  0  0  0  0  0  0  0
   38.6810   26.6330   36.3080 H   0  0  0  0  0  0  0  0  0  0  0  0
   37.5890   28.8130   35.3260 H   0  0  0  0  0  0  0  0  0  0  0  0
   38.1950   24.2640   34.7630 C   0  0  0  0  0  0  0  0  0  0  0  0
   38.3310   23.5010   33.7960 O   0  0  0  0  0  0  0  0  0  0  0  0
   38.4460   23.8800   36.1270 C   0  0  0  0  0  0  0  0  0  0  0  0
   39.6800   23.3110   36.4090 C   0  0  0  0  0  0  0  0  0  0  0  0
   39.9510   22.9260   37.7240 C   0  0  0  0  0  0  0  0  0  0  0  0
   38.9700   23.1340   38.6700 N   0  0  0  0  0  0  0  0  0  0  0  0
   37.7970   23.6840   38.3630 C   0  0  0  0  0  0  0  0  0  0  0  0
   37.5250   24.0590   37.1020 N   0  0  0  0  0  0  0  0  0  0  0  0
   40.4250   23.1630   35.6470 H   0  0  0  0  0  0  0  0  0  0  0  0
   40.9100   22.4840   37.9440 H   0  0  0  0  0  0  0  0  0  0  0  0
   37.0840   23.8120   39.1630 H   0  0  0  0  0  0  0  0  0  0  0  0
   35.4590   29.5580   33.3500 C   0  0  1  0  0  0  0  0  0  0  0  0
   33.9170   29.5550   33.0050 C   0  0  0  0  0  0  0  0  0  0  0  0
   34.4340   29.5060   34.3910 C   0  0  2  0  0  0  0  0  0  0  0  0
   35.9050   30.4920   32.9510 H   0  0  0  0  0  0  0  0  0  0  0  0
   33.5160   28.6680   32.5220 H   0  0  0  0  0  0  0  0  0  0  0  0
   33.5010   30.5130   32.6580 H   0  0  0  0  0  0  0  0  0  0  0  0
   34.3130   28.4840   34.8600 H   0  0  0  0  0  0  0  0  0  0  0  0
   34.3570   30.5910   35.3150 N   0  0  0  0  0  0  0  0  0  0  0  0
   35.4190   31.4300   35.5120 C   0  0  0  0  0  3  0  0  0  0  0  0
   35.3530   32.4810   36.4050 C   0  0  0  0  0  0  0  0  0  0  0  0
   36.2670   33.0680   36.4640 H   0  0  0  0  0  0  0  0  0  0  0  0
   34.2140   32.7340   37.1400 C   0  0  0  0  0  0  0  0  0  0  0  0
   34.3030   33.7240   37.9120 O   0  0  0  0  0  0  0  0  0  0  0  0
   33.1750   31.9030   36.9400 N   0  0  0  0  0  0  0  0  0  0  0  0
   33.2810   30.8920   36.0610 C   0  0  0  0  0  0  0  0  0  0  0  0
   32.2500   30.1970   35.9680 O   0  0  0  0  0  0  0  0  0  0  0  0
   32.3320   32.1160   37.5060 H   0  0  0  0  0  0  0  0  0  0  0  0
  1 21  1  0  0  0  0
  1  6  1  0  0  0  0
  2  1  2  0  0  0  0
  3 10  1  0  0  0  0
  3  4  2  0  0  0  0
  4  8  1  0  0  0  0
  5  9  1  0  0  0  0
  5  4  1  0  0  0  0
  6  5  2  0  0  0  0
  7  6  1  0  0  0  0
  7  3  1  0  0  0  0
 10 12  1  0  0  0  0
 11 10  2  0  0  0  0
 12 13  2  0  0  0  0
 12 17  1  0  0  0  0
 13 14  1  0  0  0  0
 14 19  1  0  0  0  0
 14 15  2  0  0  0  0
 16 15  1  0  0  0  0
 16 20  1  0  0  0  0
 17 16  2  0  0  0  0
 18 13  1  0  0  0  0
 21 24  1  6  0  0  0
 21 23  1  0  0  0  0
 22 21  1  0  0  0  0
 22 23  1  0  0  0  0
 23 27  1  1  0  0  0
 23 28  1  0  0  0  0
 25 22  1  0  0  0  0
 26 22  1  0  0  0  0
 28 29  1  0  0  0  0
 28 35  1  0  0  0  0
 29 30  2  0  0  0  0
 30 31  1  0  0  0  0
 30 32  1  0  0  0  0
 32 33  2  0  0  0  0
 34 32  1  0  0  0  0
 34 37  1  0  0  0  0
 35 34  1  0  0  0  0
 36 35  2  0  0  0  0
M  END
>  <minimizedAffinity>
-6.02231979

$$$$

 OpenBabel03272507353D

 37 40  0  0  1  0  0  0  0  0999 V2000
   37.3360   25.4140   32.9660 C   0  0  0  0  0  0  0  0  0  0  0  0
   36.7240   24.4400   32.4140 O   0  0  0  0  0  0  0  0  0  0  0  0
   35.9540   28.6120   32.1650 C   0  0  0  0  0  0  0  0  0  0  0  0
   37.1930   28.7620   31.5750 C   0  0  0  0  0  0  0  0  0  0  0  0
   37.9070   27.5760   31.7900 C   0  0  0  0  0  0  0  0  0  0  0  0
   37.0470   26.7710   32.5050 C   0  0  0  0  0  0  0  0  0  0  0  0
   35.9180   27.4180   32.7000 O   0  0  0  0  0  0  0  0  0  0  0  0
   37.5970   29.6230   31.0290 H   0  0  0  0  0  0  0  0  0  0  0  0
   38.9160   27.3880   31.4460 H   0  0  0  0  0  0  0  0  0  0  0  0
   34.9480   29.6600   32.1330 C   0  0  0  0  0  0  0  0  0  0  0  0
   35.0710   30.5920   31.3260 O   0  0  0  0  0  0  0  0  0  0  0  0
   33.8540   29.5430   33.0610 C   0  0  0  0  0  0  0  0  0  0  0  0
   34.0920   29.9260   34.3730 C   0  0  0  0  0  0  0  0  0  0  0  0
   33.0500   29.8220   35.2970 C   0  0  0  0  0  0  0  0  0  0  0  0
   31.8390   29.3410   34.8480 N   0  0  0  0  0  0  0  0  0  0  0  0
   31.6470   28.9830   33.5800 C   0  0  0  0  0  0  0  0  0  0  0  0
   32.6410   29.0790   32.6820 N   0  0  0  0  0  0  0  0  0  0  0  0
   35.0500   30.2990   34.6920 H   0  0  0  0  0  0  0  0  0  0  0  0
   33.2340   30.1200   36.3180 H   0  0  0  0  0  0  0  0  0  0  0  0
   30.6680   28.6160   33.3110 H   0  0  0  0  0  0  0  0  0  0  0  0
   38.3260   25.1760   34.0690 C   0  0  1  0  0  0  0  0  0  0  0  0
   37.9240   26.0260   35.3400 C   0  0  0  0  0  0  0  0  0  0  0  0
   37.9130   24.5460   35.3220 C   0  0  2  0  0  0  0  0  0  0  0  0
   39.3740   25.4200   33.8020 H   0  0  0  0  0  0  0  0  0  0  0  0
   37.0000   26.5960   35.2860 H   0  0  0  0  0  0  0  0  0  0  0  0
   38.7530   26.5150   35.8710 H   0  0  0  0  0  0  0  0  0  0  0  0
   36.8640   24.1230   35.2950 H   0  0  0  0  0  0  0  0  0  0  0  0
   38.8590   23.7280   36.0090 N   0  0  0  0  0  0  0  0  0  0  0  0
   40.0170   23.3230   35.4030 C   0  0  0  0  0  3  0  0  0  0  0  0
   40.9380   22.5320   36.0600 C   0  0  0  0  0  0  0  0  0  0  0  0
   41.8130   22.2840   35.4620 H   0  0  0  0  0  0  0  0  0  0  0  0
   40.7340   22.1120   37.3580 C   0  0  0  0  0  0  0  0  0  0  0  0
   41.6580   21.3960   37.8240 O   0  0  0  0  0  0  0  0  0  0  0  0
   39.5930   22.5150   37.9450 N   0  0  0  0  0  0  0  0  0  0  0  0
   38.7230   23.2850   37.2690 C   0  0  0  0  0  0  0  0  0  0  0  0
   37.7070   23.5890   37.9250 O   0  0  0  0  0  0  0  0  0  0  0  0
   39.4650   22.1840   38.9210 H   0  0  0  0  0  0  0  0  0  0  0  0
  1 21  1  0  0  0  0
  2  1  2  0  0  0  0
  3  7  1  0  0  0  0
  4  5  1  0  0  0  0
  4  3  2  0  0  0  0
  5  6  2  0  0  0  0
  6  7  1  0  0  0  0
  6  1  1  0  0  0  0
  8  4  1  0  0  0  0
  9  5  1  0  0  0  0
 10  3  1  0  0  0  0
 10 12  1  0  0  0  0
 11 10  2  0  0  0  0
 12 13  1  0  0  0  0
 13 18  1  0  0  0  0
 13 14  2  0  0  0  0
 14 19  1  0  0  0  0
 15 14  1  0  0  0  0
 16 15  2  0  0  0  0
 17 12  2  0  0  0  0
 17 16  1  0  0  0  0
 20 16  1  0  0  0  0
 21 24  1  6  0  0  0
 21 23  1  0  0  0  0
 21 22  1  0  0  0  0
 22 26  1  0  0  0  0
 23 27  1  6  0  0  0
 23 22  1  0  0  0  0
 23 28  1  0  0  0  0
 25 22  1  0  0  0  0
 28 35  1  0  0  0  0
 29 28  1  0  0  0  0
 29 30  2  0  0  0  0
 30 32  1  0  0  0  0
 31 30  1  0  0  0  0
 32 33  2  0  0  0  0
 32 34  1  0  0  0  0
 34 37  1  0  0  0  0
 35 36  2  0  0  0  0
 35 34  1  0  0  0  0
M  END
>  <minimizedAffinity>
-5.85732174

$$$$

 OpenBabel03272507353D

 37 40  0  0  1  0  0  0  0  0999 V2000
   36.7100   27.7230   33.4140 C   0  0  0  0  0  0  0  0  0  0  0  0
   36.6940   27.1370   32.2820 O   0  0  0  0  0  0  0  0  0  0  0  0
   37.9340   25.4220   35.8610 C   0  0  0  0  0  0  0  0  0  0  0  0
   38.4240   26.5910   36.4060 C   0  0  0  0  0  0  0  0  0  0  0  0
   38.0390   27.6410   35.5610 C   0  0  0  0  0  0  0  0  0  0  0  0
   37.3300   27.0370   34.5470 C   0  0  0  0  0  0  0  0  0  0  0  0
   37.2940   25.7390   34.7630 O   0  0  0  0  0  0  0  0  0  0  0  0
   39.0110   26.7320   37.3210 H   0  0  0  0  0  0  0  0  0  0  0  0
   38.2760   28.6850   35.7220 H   0  0  0  0  0  0  0  0  0  0  0  0
   38.1480   24.1270   36.4830 C   0  0  0  0  0  0  0  0  0  0  0  0
   37.2230   23.5990   37.1170 O   0  0  0  0  0  0  0  0  0  0  0  0
   39.4490   23.5310   36.3200 C   0  0  0  0  0  0  0  0  0  0  0  0
   39.9140   22.7320   37.3540 C   0  0  0  0  0  0  0  0  0  0  0  0
   41.1740   22.1420   37.2230 C   0  0  0  0  0  0  0  0  0  0  0  0
   41.8850   22.3910   36.0690 N   0  0  0  0  0  0  0  0  0  0  0  0
   41.4050   23.1640   35.0970 C   0  0  0  0  0  0  0  0  0  0  0  0
   40.1950   23.7360   35.2100 N   0  0  0  0  0  0  0  0  0  0  0  0
   39.3340   22.5570   38.2420 H   0  0  0  0  0  0  0  0  0  0  0  0
   41.5370   21.5200   38.0280 H   0  0  0  0  0  0  0  0  0  0  0  0
   42.0260   23.3090   34.2250 H   0  0  0  0  0  0  0  0  0  0  0  0
   36.1130   29.0900   33.5820 C   0  0  1  0  0  0  0  0  0  0  0  0
   34.6740   29.1270   32.9290 C   0  0  0  0  0  0  0  0  0  0  0  0
   34.9050   29.2860   34.3820 C   0  0  2  0  0  0  0  0  0  0  0  0
   36.7170   29.9090   33.1430 H   0  0  0  0  0  0  0  0  0  0  0  0
   34.2890   28.1960   32.5190 H   0  0  0  0  0  0  0  0  0  0  0  0
   34.4300   30.0340   32.3570 H   0  0  0  0  0  0  0  0  0  0  0  0
   34.5960   28.3710   34.9700 H   0  0  0  0  0  0  0  0  0  0  0  0
   34.7570   30.5170   35.0880 N   0  0  0  0  0  0  0  0  0  0  0  0
   35.8450   31.2670   35.4390 C   0  0  0  0  0  3  0  0  0  0  0  0
   35.7110   32.4590   36.1230 C   0  0  0  0  0  0  0  0  0  0  0  0
   36.6570   32.9530   36.3390 H   0  0  0  0  0  0  0  0  0  0  0  0
   34.4740   32.9490   36.4850 C   0  0  0  0  0  0  0  0  0  0  0  0
   34.5090   34.0440   37.1040 O   0  0  0  0  0  0  0  0  0  0  0  0
   33.4090   32.2040   36.1350 N   0  0  0  0  0  0  0  0  0  0  0  0
   33.5850   31.0500   35.4700 C   0  0  0  0  0  0  0  0  0  0  0  0
   32.5200   30.4560   35.2060 O   0  0  0  0  0  0  0  0  0  0  0  0
   32.4910   32.5960   36.4200 H   0  0  0  0  0  0  0  0  0  0  0  0
  1 21  1  0  0  0  0
  1  6  1  0  0  0  0
  2  1  2  0  0  0  0
  3  4  2  0  0  0  0
  3 10  1  0  0  0  0
  4  8  1  0  0  0  0
  5  9  1  0  0  0  0
  5  4  1  0  0  0  0
  6  7  1  0  0  0  0
  6  5  2  0  0  0  0
  7  3  1  0  0  0  0
 10 11  2  0  0  0  0
 12 10  1  0  0  0  0
 12 13  1  0  0  0  0
 13 18  1  0  0  0  0
 14 13  2  0  0  0  0
 14 19  1  0  0  0  0
 15 14  1  0  0  0  0
 16 17  1  0  0  0  0
 16 15  2  0  0  0  0
 17 12  2  0  0  0  0
 20 16  1  0  0  0  0
 21 24  1  6  0  0  0
 21 23  1  0  0  0  0
 22 21  1  0  0  0  0
 22 23  1  0  0  0  0
 23 27  1  1  0  0  0
 23 28  1  0  0  0  0
 25 22  1  0  0  0  0
 26 22  1  0  0  0  0
 28 29  1  0  0  0  0
 28 35  1  0  0  0  0
 29 30  2  0  0  0  0
 30 31  1  0  0  0  0
 30 32  1  0  0  0  0
 32 33  2  0  0  0  0
 34 37  1  0  0  0  0
 34 32  1  0  0  0  0
 35 34  1  0  0  0  0
 36 35  2  0  0  0  0
M  END
>  <minimizedAffinity>
-5.82848501

$$$$

 OpenBabel03272507353D

 37 40  0  0  1  0  0  0  0  0999 V2000
   39.7520   26.7600   32.8570 C   0  0  0  0  0  0  0  0  0  0  0  0
   40.5200   27.4740   32.1300 O   0  0  0  0  0  0  0  0  0  0  0  0
   36.6010   25.5620   31.6660 C   0  0  0  0  0  0  0  0  0  0  0  0
   36.2490   26.8720   31.9170 C   0  0  0  0  0  0  0  0  0  0  0  0
   37.3860   27.5260   32.4090 C   0  0  0  0  0  0  0  0  0  0  0  0
   38.3690   26.5610   32.4250 C   0  0  0  0  0  0  0  0  0  0  0  0
   37.8650   25.4290   31.9820 O   0  0  0  0  0  0  0  0  0  0  0  0
   35.2790   27.3640   31.7790 H   0  0  0  0  0  0  0  0  0  0  0  0
   37.4260   28.5680   32.6990 H   0  0  0  0  0  0  0  0  0  0  0  0
   35.6550   24.5910   31.1430 C   0  0  0  0  0  0  0  0  0  0  0  0
   34.6650   24.9900   30.5140 O   0  0  0  0  0  0  0  0  0  0  0  0
   35.9370   23.2030   31.3970 C   0  0  0  0  0  0  0  0  0  0  0  0
   37.0790   22.6710   30.8150 C   0  0  0  0  0  0  0  0  0  0  0  0
   37.3770   21.3250   31.0420 C   0  0  0  0  0  0  0  0  0  0  0  0
   36.5130   20.6000   31.8350 N   0  0  0  0  0  0  0  0  0  0  0  0
   35.4260   21.1450   32.3780 C   0  0  0  0  0  0  0  0  0  0  0  0
   35.1290   22.4380   32.1670 N   0  0  0  0  0  0  0  0  0  0  0  0
   37.7330   23.2650   30.2010 H   0  0  0  0  0  0  0  0  0  0  0  0
   38.2650   20.9110   30.5900 H   0  0  0  0  0  0  0  0  0  0  0  0
   34.8020   20.5070   32.9860 H   0  0  0  0  0  0  0  0  0  0  0  0
   40.2560   26.1320   34.1230 C   0  0  1  0  0  0  0  0  0  0  0  0
   39.5800   26.8300   35.3700 C   0  0  0  0  0  0  0  0  0  0  0  0
   39.3490   25.4120   35.0140 C   0  0  2  0  0  0  0  0  0  0  0  0
   41.3570   26.1810   34.2500 H   0  0  0  0  0  0  0  0  0  0  0  0
   38.8290   27.5900   35.1690 H   0  0  0  0  0  0  0  0  0  0  0  0
   40.2420   27.0310   36.2250 H   0  0  0  0  0  0  0  0  0  0  0  0
   38.3210   25.2400   34.5750 H   0  0  0  0  0  0  0  0  0  0  0  0
   39.8660   24.3040   35.7510 N   0  0  0  0  0  0  0  0  0  0  0  0
   41.1620   23.8960   35.5980 C   0  0  0  0  0  3  0  0  0  0  0  0
   41.6710   22.8250   36.3070 C   0  0  0  0  0  0  0  0  0  0  0  0
   42.7150   22.6080   36.0890 H   0  0  0  0  0  0  0  0  0  0  0  0
   40.8960   22.1180   37.2020 C   0  0  0  0  0  0  0  0  0  0  0  0
   41.4950   21.1690   37.7710 O   0  0  0  0  0  0  0  0  0  0  0  0
   39.6220   22.5270   37.3460 N   0  0  0  0  0  0  0  0  0  0  0  0
   39.1680   23.5740   36.6360 C   0  0  0  0  0  0  0  0  0  0  0  0
   37.9730   23.8520   36.8610 O   0  0  0  0  0  0  0  0  0  0  0  0
   39.0620   21.9770   38.0240 H   0  0  0  0  0  0  0  0  0  0  0  0
  1 21  1  0  0  0  0
  2  1  2  0  0  0  0
  3  4  2  0  0  0  0
  3  7  1  0  0  0  0
  4  5  1  0  0  0  0
  5  6  2  0  0  0  0
  5  9  1  0  0  0  0
  6  1  1  0  0  0  0
  7  6  1  0  0  0  0
  8  4  1  0  0  0  0
 10 12  1  0  0  0  0
 10  3  1  0  0  0  0
 11 10  2  0  0  0  0
 12 17  1  0  0  0  0
 13 14  1  0  0  0  0
 13 12  2  0  0  0  0
 14 15  2  0  0  0  0
 15 16  1  0  0  0  0
 16 20  1  0  0  0  0
 17 16  2  0  0  0  0
 18 13  1  0  0  0  0
 19 14  1  0  0  0  0
 21 24  1  1  0  0  0
 21 23  1  0  0  0  0
 21 22  1  0  0  0  0
 22 26  1  0  0  0  0
 23 27  1  6  0  0  0
 23 22  1  0  0  0  0
 23 28  1  0  0  0  0
 25 22  1  0  0  0  0
 28 35  1  0  0  0  0
 29 28  1  0  0  0  0
 29 30  2  0  0  0  0
 30 32  1  0  0  0  0
 31 30  1  0  0  0  0
 32 34  1  0  0  0  0
 32 33  2  0  0  0  0
 34 37  1  0  0  0  0
 35 36  2  0  0  0  0
 35 34  1  0  0  0  0
M  END
>  <minimizedAffinity>
-5.72915173

$$$$

 OpenBabel03272507353D

 37 40  0  0  1  0  0  0  0  0999 V2000
   38.1870   26.5970   32.0920 C   0  0  0  0  0  0  0  0  0  0  0  0
   39.2470   26.3130   31.4410 O   0  0  0  0  0  0  0  0  0  0  0  0
   36.1340   29.5200   31.9410 C   0  0  0  0  0  0  0  0  0  0  0  0
   36.6470   29.5550   30.6610 C   0  0  0  0  0  0  0  0  0  0  0  0
   37.5050   28.4550   30.5220 C   0  0  0  0  0  0  0  0  0  0  0  0
   37.4580   27.8150   31.7400 C   0  0  0  0  0  0  0  0  0  0  0  0
   36.6440   28.4720   32.5390 O   0  0  0  0  0  0  0  0  0  0  0  0
   36.4560   30.2790   29.8610 H   0  0  0  0  0  0  0  0  0  0  0  0
   38.0600   28.2110   29.6260 H   0  0  0  0  0  0  0  0  0  0  0  0
   35.2010   30.5200   32.4300 C   0  0  0  0  0  0  0  0  0  0  0  0
   34.0840   30.6150   31.9010 O   0  0  0  0  0  0  0  0  0  0  0  0
   35.6440   31.3500   33.5190 C   0  0  0  0  0  0  0  0  0  0  0  0
   35.5230   30.8320   34.8010 C   0  0  0  0  0  0  0  0  0  0  0  0
   35.9440   31.6170   35.8770 C   0  0  0  0  0  0  0  0  0  0  0  0
   36.4560   32.8660   35.6020 N   0  0  0  0  0  0  0  0  0  0  0  0
   36.5570   33.3300   34.3580 C   0  0  0  0  0  0  0  0  0  0  0  0
   36.1570   32.5850   33.3140 N   0  0  0  0  0  0  0  0  0  0  0  0
   35.1190   29.8520   34.9820 H   0  0  0  0  0  0  0  0  0  0  0  0
   35.8500   31.2150   36.8750 H   0  0  0  0  0  0  0  0  0  0  0  0
   36.9700   34.3190   34.2290 H   0  0  0  0  0  0  0  0  0  0  0  0
   37.6940   25.7000   33.1890 C   0  0  1  0  0  0  0  0  0  0  0  0
   37.3320   24.2800   32.5950 C   0  0  0  0  0  0  0  0  0  0  0  0
   38.4340   24.4950   33.5600 C   0  0  2  0  0  0  0  0  0  0  0  0
   36.8090   26.0870   33.7320 H   0  0  0  0  0  0  0  0  0  0  0  0
   37.5330   24.1160   31.5400 H   0  0  0  0  0  0  0  0  0  0  0  0
   36.4110   23.8200   32.9810 H   0  0  0  0  0  0  0  0  0  0  0  0
   39.4530   24.4190   33.0750 H   0  0  0  0  0  0  0  0  0  0  0  0
   38.4000   24.0760   34.9240 N   0  0  0  0  0  0  0  0  0  0  0  0
   38.0350   24.9390   35.9210 C   0  0  0  0  0  3  0  0  0  0  0  0
   38.0000   24.5430   37.2430 C   0  0  0  0  0  0  0  0  0  0  0  0
   37.6930   25.3280   37.9310 H   0  0  0  0  0  0  0  0  0  0  0  0
   38.3300   23.2590   37.6210 C   0  0  0  0  0  0  0  0  0  0  0  0
   38.2530   23.0440   38.8580 O   0  0  0  0  0  0  0  0  0  0  0  0
   38.6880   22.4170   36.6340 N   0  0  0  0  0  0  0  0  0  0  0  0
   38.7090   22.8440   35.3600 C   0  0  0  0  0  0  0  0  0  0  0  0
   39.0570   21.9690   34.5420 O   0  0  0  0  0  0  0  0  0  0  0  0
   38.9320   21.4580   36.9460 H   0  0  0  0  0  0  0  0  0  0  0  0
  1 21  1  0  0  0  0
  2  1  2  0  0  0  0
  3 10  1  0  0  0  0
  3  7  1  0  0  0  0
  4  3  2  0  0  0  0
  5  4  1  0  0  0  0
  5  6  2  0  0  0  0
  6  1  1  0  0  0  0
  6  7  1  0  0  0  0
  8  4  1  0  0  0  0
  9  5  1  0  0  0  0
 10 12  1  0  0  0  0
 11 10  2  0  0  0  0
 12 13  1  0  0  0  0
 13 18  1  0  0  0  0
 13 14  2  0  0  0  0
 14 19  1  0  0  0  0
 15 14  1  0  0  0  0
 16 15  2  0  0  0  0
 17 12  2  0  0  0  0
 17 16  1  0  0  0  0
 20 16  1  0  0  0  0
 21 23  1  0  0  0  0
 21 24  1  1  0  0  0
 22 26  1  0  0  0  0
 22 21  1  0  0  0  0
 22 23  1  0  0  0  0
 23 27  1  6  0  0  0
 23 28  1  0  0  0  0
 25 22  1  0  0  0  0
 28 35  1  0  0  0  0
 28 29  1  0  0  0  0
 29 30  2  0  0  0  0
 30 32  1  0  0  0  0
 30 31  1  0  0  0  0
 32 33  2  0  0  0  0
 34 37  1  0  0  0  0
 34 32  1  0  0  0  0
 35 34  1  0  0  0  0
 36 35  2  0  0  0  0
M  END
>  <minimizedAffinity>
-5.59555531

$$$$

 OpenBabel03272507353D

 37 40  0  0  1  0  0  0  0  0999 V2000
   35.7970   25.9160   31.3790 C   0  0  0  0  0  0  0  0  0  0  0  0
   35.0370   25.3420   30.5300 O   0  0  0  0  0  0  0  0  0  0  0  0
   35.3550   29.4360   31.8230 C   0  0  0  0  0  0  0  0  0  0  0  0
   36.4560   29.4640   30.9920 C   0  0  0  0  0  0  0  0  0  0  0  0
   36.7940   28.1360   30.6990 C   0  0  0  0  0  0  0  0  0  0  0  0
   35.8660   27.3770   31.3770 C   0  0  0  0  0  0  0  0  0  0  0  0
   35.0440   28.1790   32.0200 O   0  0  0  0  0  0  0  0  0  0  0  0
   37.0050   30.3290   30.6040 H   0  0  0  0  0  0  0  0  0  0  0  0
   37.6190   27.8310   30.0680 H   0  0  0  0  0  0  0  0  0  0  0  0
   34.7330   30.6480   32.3270 C   0  0  0  0  0  0  0  0  0  0  0  0
   33.7200   31.0880   31.7640 O   0  0  0  0  0  0  0  0  0  0  0  0
   35.3470   31.2710   33.4700 C   0  0  0  0  0  0  0  0  0  0  0  0
   35.4080   30.5290   34.6400 C   0  0  0  0  0  0  0  0  0  0  0  0
   35.9970   31.1080   35.7660 C   0  0  0  0  0  0  0  0  0  0  0  0
   36.4850   32.3920   35.6480 N   0  0  0  0  0  0  0  0  0  0  0  0
   36.4100   33.0740   34.5070 C   0  0  0  0  0  0  0  0  0  0  0  0
   35.8460   32.5280   33.4170 N   0  0  0  0  0  0  0  0  0  0  0  0
   35.0180   29.5280   34.6990 H   0  0  0  0  0  0  0  0  0  0  0  0
   36.0450   30.5310   36.6770 H   0  0  0  0  0  0  0  0  0  0  0  0
   36.8160   34.0750   34.4990 H   0  0  0  0  0  0  0  0  0  0  0  0
   36.5990   25.1140   32.3610 C   0  0  1  0  0  0  0  0  0  0  0  0
   38.1120   25.0740   31.9090 C   0  0  0  0  0  0  0  0  0  0  0  0
   37.6580   25.7390   33.1510 C   0  0  2  0  0  0  0  0  0  0  0  0
   36.2460   24.0710   32.4940 H   0  0  0  0  0  0  0  0  0  0  0  0
   38.3850   25.6520   31.0290 H   0  0  0  0  0  0  0  0  0  0  0  0
   38.6200   24.1040   32.0150 H   0  0  0  0  0  0  0  0  0  0  0  0
   37.6810   26.8660   33.0690 H   0  0  0  0  0  0  0  0  0  0  0  0
   37.9040   25.2390   34.4650 N   0  0  0  0  0  0  0  0  0  0  0  0
   38.1910   23.9190   34.6780 C   0  0  0  0  0  3  0  0  0  0  0  0
   38.4300   23.4260   35.9450 C   0  0  0  0  0  0  0  0  0  0  0  0
   38.6460   22.3600   35.9710 H   0  0  0  0  0  0  0  0  0  0  0  0
   38.3900   24.2420   37.0560 C   0  0  0  0  0  0  0  0  0  0  0  0
   38.6260   23.6530   38.1430 O   0  0  0  0  0  0  0  0  0  0  0  0
   38.1060   25.5380   36.8370 N   0  0  0  0  0  0  0  0  0  0  0  0
   37.8800   25.9760   35.5870 C   0  0  0  0  0  0  0  0  0  0  0  0
   37.6290   27.1960   35.5190 O   0  0  0  0  0  0  0  0  0  0  0  0
   38.0810   26.1290   37.6900 H   0  0  0  0  0  0  0  0  0  0  0  0
  1 21  1  0  0  0  0
  2  1  2  0  0  0  0
  3  7  1  0  0  0  0
  3 10  1  0  0  0  0
  4  3  2  0  0  0  0
  5  4  1  0  0  0  0
  5  6  2  0  0  0  0
  6  1  1  0  0  0  0
  6  7  1  0  0  0  0
  8  4  1  0  0  0  0
  9  5  1  0  0  0  0
 10 12  1  0  0  0  0
 11 10  2  0  0  0  0
 12 13  1  0  0  0  0
 13 18  1  0  0  0  0
 13 14  2  0  0  0  0
 14 19  1  0  0  0  0
 15 14  1  0  0  0  0
 16 15  2  0  0  0  0
 17 12  2  0  0  0  0
 17 16  1  0  0  0  0
 20 16  1  0  0  0  0
 21 24  1  1  0  0  0
 21 23  1  0  0  0  0
 22 26  1  0  0  0  0
 22 21  1  0  0  0  0
 22 23  1  0  0  0  0
 23 27  1  6  0  0  0
 23 28  1  0  0  0  0
 25 22  1  0  0  0  0
 28 29  1  0  0  0  0
 28 35  1  0  0  0  0
 29 30  2  0  0  0  0
 30 31  1  0  0  0  0
 30 32  1  0  0  0  0
 32 33  2  0  0  0  0
 34 32  1  0  0  0  0
 34 37  1  0  0  0  0
 35 34  1  0  0  0  0
 36 35  2  0  0  0  0
M  END
>  <minimizedAffinity>
-5.56133842

$$$$

 OpenBabel03272507353D

 37 40  0  0  1  0  0  0  0  0999 V2000
   36.5160   28.0040   33.3970 C   0  0  0  0  0  0  0  0  0  0  0  0
   36.4670   27.5380   32.2100 O   0  0  0  0  0  0  0  0  0  0  0  0
   37.9410   25.4970   35.5090 C   0  0  0  0  0  0  0  0  0  0  0  0
   38.3390   26.6170   36.2110 C   0  0  0  0  0  0  0  0  0  0  0  0
   37.8630   27.7380   35.5170 C   0  0  0  0  0  0  0  0  0  0  0  0
   37.1980   27.2220   34.4270 C   0  0  0  0  0  0  0  0  0  0  0  0
   37.2690   25.9090   34.4630 O   0  0  0  0  0  0  0  0  0  0  0  0
   38.9190   26.6790   37.1390 H   0  0  0  0  0  0  0  0  0  0  0  0
   38.0150   28.7660   35.8210 H   0  0  0  0  0  0  0  0  0  0  0  0
   38.2660   24.1510   35.9490 C   0  0  0  0  0  0  0  0  0  0  0  0
   38.2550   23.8910   37.1600 O   0  0  0  0  0  0  0  0  0  0  0  0
   38.5860   23.1900   34.9260 C   0  0  0  0  0  0  0  0  0  0  0  0
   39.9200   23.0680   34.5660 C   0  0  0  0  0  0  0  0  0  0  0  0
   40.2600   22.1440   33.5750 C   0  0  0  0  0  0  0  0  0  0  0  0
   39.2440   21.4040   33.0090 N   0  0  0  0  0  0  0  0  0  0  0  0
   37.9740   21.5480   33.3810 C   0  0  0  0  0  0  0  0  0  0  0  0
   37.6340   22.4330   34.3330 N   0  0  0  0  0  0  0  0  0  0  0  0
   40.6900   23.6600   35.0280 H   0  0  0  0  0  0  0  0  0  0  0  0
   41.2980   22.0480   33.2940 H   0  0  0  0  0  0  0  0  0  0  0  0
   37.2390   20.9300   32.8870 H   0  0  0  0  0  0  0  0  0  0  0  0
   35.8930   29.3290   33.7290 C   0  0  1  0  0  0  0  0  0  0  0  0
   34.4920   29.4550   33.0080 C   0  0  0  0  0  0  0  0  0  0  0  0
   34.6410   29.4000   34.4800 C   0  0  2  0  0  0  0  0  0  0  0  0
   36.5110   30.2070   33.4500 H   0  0  0  0  0  0  0  0  0  0  0  0
   34.1420   28.5940   32.4450 H   0  0  0  0  0  0  0  0  0  0  0  0
   34.2690   30.4360   32.5630 H   0  0  0  0  0  0  0  0  0  0  0  0
   34.3110   28.4070   34.9090 H   0  0  0  0  0  0  0  0  0  0  0  0
   34.4380   30.5130   35.3490 N   0  0  0  0  0  0  0  0  0  0  0  0
   35.4690   31.3460   35.6840 C   0  0  0  0  0  3  0  0  0  0  0  0
   35.2830   32.4250   36.5260 C   0  0  0  0  0  0  0  0  0  0  0  0
   36.1860   33.0040   36.7080 H   0  0  0  0  0  0  0  0  0  0  0  0
   34.0480   32.7130   37.0680 C   0  0  0  0  0  0  0  0  0  0  0  0
   34.0320   33.7250   37.8160 O   0  0  0  0  0  0  0  0  0  0  0  0
   33.0400   31.8880   36.7330 N   0  0  0  0  0  0  0  0  0  0  0  0
   33.2650   30.8490   35.9100 C   0  0  0  0  0  0  0  0  0  0  0  0
   32.2500   30.1620   35.6790 O   0  0  0  0  0  0  0  0  0  0  0  0
   32.1220   32.1270   37.1550 H   0  0  0  0  0  0  0  0  0  0  0  0
  1 21  1  0  0  0  0
  1  6  1  0  0  0  0
  2  1  2  0  0  0  0
  3 10  1  0  0  0  0
  3  4  2  0  0  0  0
  4  8  1  0  0  0  0
  5  9  1  0  0  0  0
  5  4  1  0  0  0  0
  6  7  1  0  0  0  0
  6  5  2  0  0  0  0
  7  3  1  0  0  0  0
 10 11  2  0  0  0  0
 12 10  1  0  0  0  0
 13 12  1  0  0  0  0
 13 18  1  0  0  0  0
 14 13  2  0  0  0  0
 15 16  2  0  0  0  0
 15 14  1  0  0  0  0
 16 17  1  0  0  0  0
 17 12  2  0  0  0  0
 19 14  1  0  0  0  0
 20 16  1  0  0  0  0
 21 24  1  1  0  0  0
 21 23  1  0  0  0  0
 22 21  1  0  0  0  0
 22 23  1  0  0  0  0
 23 27  1  1  0  0  0
 23 28  1  0  0  0  0
 25 22  1  0  0  0  0
 26 22  1  0  0  0  0
 28 29  1  0  0  0  0
 28 35  1  0  0  0  0
 29 30  2  0  0  0  0
 30 31  1  0  0  0  0
 30 32  1  0  0  0  0
 32 33  2  0  0  0  0
 34 32  1  0  0  0  0
 34 37  1  0  0  0  0
 35 34  1  0  0  0  0
 36 35  2  0  0  0  0
M  END
>  <minimizedAffinity>
-5.55184793

$$$$
