
 OpenBabel03272508053D

 36 39  0  0  0  0  0  0  0  0999 V2000
   38.8360   30.9320   45.8100 C   0  0  0  0  0  0  0  0  0  0  0  0
   39.9910   31.6610   46.0600 C   0  0  0  0  0  0  0  0  0  0  0  0
   40.8380   31.6120   44.9660 C   0  0  0  0  0  0  0  0  0  0  0  0
   40.1530   30.8370   44.0760 N   0  0  0  0  0  0  0  0  0  0  0  0
   38.9990   30.4500   44.5730 N   0  0  0  0  0  0  0  0  0  0  0  0
   40.2130   32.1970   46.9690 H   0  0  0  0  0  0  0  0  0  0  0  0
   41.8040   32.0460   44.7910 H   0  0  0  0  0  0  0  0  0  0  0  0
   37.7190   30.7510   46.7100 C   0  0  0  0  0  0  0  0  0  0  0  0
   37.9240   30.9440   48.1040 C   0  0  0  0  0  0  0  0  0  0  0  0
   36.8330   30.7650   48.9450 C   0  0  0  0  0  0  0  0  0  0  0  0
   35.6430   30.4180   48.3980 N   0  0  0  0  0  0  0  0  0  0  0  0
   35.4680   30.2380   47.0640 C   0  0  0  0  0  0  0  0  0  0  0  0
   36.5150   30.4080   46.2330 N   0  0  0  0  0  0  0  0  0  0  0  0
   38.9100   31.2220   48.4680 H   0  0  0  0  0  0  0  0  0  0  0  0
   34.4780   29.9620   46.7260 H   0  0  0  0  0  0  0  0  0  0  0  0
   37.0340   30.9640   50.4130 C   0  0  0  0  0  0  0  0  0  0  0  0
   36.5490   32.2220   50.6850 F   0  0  0  0  0  0  0  0  0  0  0  0
   36.3270   30.0430   51.1700 F   0  0  0  0  0  0  0  0  0  0  0  0
   38.3790   30.9370   50.7630 F   0  0  0  0  0  0  0  0  0  0  0  0
   40.5630   30.4430   42.7330 C   0  0  0  0  0  0  0  0  0  0  0  0
   40.1670   31.1920   41.6090 C   0  0  0  0  0  0  0  0  0  0  0  0
   40.5990   30.7740   40.3810 C   0  0  0  0  0  0  0  0  0  0  0  0
   41.4250   29.6090   40.2750 C   0  0  0  0  0  0  0  0  0  0  0  0
   41.5810   29.0950   42.0440 S   0  0  0  0  0  0  0  0  0  0  0  0
   39.5440   32.0750   41.6590 H   0  0  0  0  0  0  0  0  0  0  0  0
   40.3990   31.2190   39.4190 H   0  0  0  0  0  0  0  0  0  0  0  0
   42.0000   28.9470   39.2750 N   0  0  0  0  0  0  0  0  0  0  0  0
   43.1210   29.4200   38.6940 C   0  0  0  0  0  3  0  0  0  0  0  0
   43.7210   28.7190   37.6430 C   0  0  0  0  0  0  0  0  0  0  0  0
   44.6140   29.0390   37.1360 H   0  0  0  0  0  0  0  0  0  0  0  0
   43.1120   27.5410   37.2470 C   0  0  0  0  0  0  0  0  0  0  0  0
   43.5530   26.8050   36.3040 O   0  0  0  0  0  0  0  0  0  0  0  0
   41.9880   27.0620   37.8260 N   0  0  0  0  0  0  0  0  0  0  0  0
   41.4510   27.7940   38.8470 C   0  0  0  0  0  0  0  0  0  0  0  0
   40.4090   27.3480   39.3830 O   0  0  0  0  0  0  0  0  0  0  0  0
   41.5220   26.1740   37.5350 H   0  0  0  0  0  0  0  0  0  0  0  0
  1  2  1  0  0  0  0
  1  8  1  0  0  0  0
  2  6  1  0  0  0  0
  3  2  2  0  0  0  0
  4  5  1  0  0  0  0
  4  3  1  0  0  0  0
  5  1  2  0  0  0  0
  7  3  1  0  0  0  0
  8  9  1  0  0  0  0
  9 14  1  0  0  0  0
  9 10  2  0  0  0  0
 10 16  1  0  0  0  0
 11 10  1  0  0  0  0
 12 11  2  0  0  0  0
 13  8  2  0  0  0  0
 13 12  1  0  0  0  0
 15 12  1  0  0  0  0
 16 17  1  0  0  0  0
 16 19  1  0  0  0  0
 16 18  1  0  0  0  0
 20  4  1  0  0  0  0
 21 25  1  0  0  0  0
 21 20  2  0  0  0  0
 22 21  1  0  0  0  0
 23 22  2  0  0  0  0
 23 24  1  0  0  0  0
 24 20  1  0  0  0  0
 26 22  1  0  0  0  0
 27 23  1  0  0  0  0
 28 27  1  0  0  0  0
 29 28  2  0  0  0  0
 30 29  1  0  0  0  0
 31 29  1  0  0  0  0
 31 33  1  0  0  0  0
 32 31  2  0  0  0  0
 33 34  1  0  0  0  0
 34 27  1  0  0  0  0
 34 35  2  0  0  0  0
 36 33  1  0  0  0  0
M  END
>  <minimizedAffinity>
-6.45984364

>  <minimizedRMSD>
0.40170145

$$$$
