
 OpenBabel03262521143D

 32 34  0  0  0  0  0  0  0  0999 V2000
   38.6670   26.2170   34.5380 C   0  0  0  0  0  0  0  0  0  0  0  0
   37.5830   25.9300   35.3280 C   0  0  0  0  0  0  0  0  0  0  0  0
   37.8530   24.8940   36.1050 N   0  0  0  0  0  0  0  0  0  0  0  0
   39.0990   24.4830   35.8480 C   0  0  0  0  0  0  0  0  0  0  0  0
   39.5960   25.2910   34.8920 N   0  0  0  0  0  0  0  0  0  0  0  0
   36.6600   26.4640   35.3180 H   0  0  0  0  0  0  0  0  0  0  0  0
   37.3070   24.3790   36.8280 H   0  0  0  0  0  0  0  0  0  0  0  0
   39.9780   23.4630   36.3100 N   0  0  0  0  0  0  0  0  0  0  0  0
   41.0610   23.1340   35.5660 C   0  0  0  0  0  3  0  0  0  0  0  0
   41.9110   22.1340   36.0320 C   0  0  0  0  0  0  0  0  0  0  0  0
   42.8000   21.8390   35.4590 H   0  0  0  0  0  0  0  0  0  0  0  0
   41.6050   21.5130   37.2460 C   0  0  0  0  0  0  0  0  0  0  0  0
   42.3340   20.6120   37.7060 O   0  0  0  0  0  0  0  0  0  0  0  0
   40.5260   21.8600   37.9590 N   0  0  0  0  0  0  0  0  0  0  0  0
   39.7040   22.8430   37.4880 C   0  0  0  0  0  0  0  0  0  0  0  0
   38.6660   23.2080   38.1270 O   0  0  0  0  0  0  0  0  0  0  0  0
   40.2840   21.3960   38.8830 H   0  0  0  0  0  0  0  0  0  0  0  0
   38.8500   27.2170   33.5700 O   0  0  0  0  0  0  0  0  0  0  0  0
   37.9980   25.6190   31.7380 O   0  0  0  0  0  0  0  0  0  0  0  0
   37.9240   27.0780   32.1530 P   0  0  2  0  0  0  0  0  0  0  0  0
   38.5470   28.0970   30.9300 O   0  0  0  0  0  0  0  0  0  0  0  0
   38.4260   29.0120   31.2500 H   0  0  0  0  0  0  0  0  0  0  0  0
   36.3240   27.5920   32.4550 O   0  0  0  0  0  0  0  0  0  0  0  0
   36.0510   28.8690   32.9500 C   0  0  0  0  0  0  0  0  0  0  0  0
   35.7140   29.1650   34.2890 C   0  0  0  0  0  0  0  0  0  0  0  0
   35.4740   30.4950   34.6050 C   0  0  0  0  0  0  0  0  0  0  0  0
   35.5670   31.4430   33.6450 N   0  0  0  0  0  0  0  0  0  0  0  0
   35.8960   31.1130   32.3620 C   0  0  0  0  0  0  0  0  0  0  0  0
   36.1390   29.8160   32.0130 N   0  0  0  0  0  0  0  0  0  0  0  0
   35.6730   28.3220   34.9560 H   0  0  0  0  0  0  0  0  0  0  0  0
   35.2180   30.7030   35.6340 H   0  0  0  0  0  0  0  0  0  0  0  0
   35.9560   31.9160   31.6350 H   0  0  0  0  0  0  0  0  0  0  0  0
  1  5  1  0  0  0  0
  1  2  2  0  0  0  0
  2  3  1  0  0  0  0
  3  7  1  0  0  0  0
  4  3  1  0  0  0  0
  4  8  1  0  0  0  0
  5  4  2  0  0  0  0
  6  2  1  0  0  0  0
  8 15  1  0  0  0  0
  9 10  2  0  0  0  0
  9  8  1  0  0  0  0
 10 12  1  0  0  0  0
 11 10  1  0  0  0  0
 12 13  2  0  0  0  0
 12 14  1  0  0  0  0
 14 17  1  0  0  0  0
 15 14  1  0  0  0  0
 15 16  2  0  0  0  0
 18  1  1  0  0  0  0
 20 19  2  6  0  0  0
 20 23  1  0  0  0  0
 20 18  1  0  0  0  0
 21 22  1  0  0  0  0
 21 20  1  0  0  0  0
 23 24  1  0  0  0  0
 24 25  1  0  0  0  0
 25 26  2  0  0  0  0
 25 30  1  0  0  0  0
 26 31  1  0  0  0  0
 27 26  1  0  0  0  0
 28 27  2  0  0  0  0
 29 28  1  0  0  0  0
 29 24  2  0  0  0  0
 32 28  1  0  0  0  0
M  END
>  <minimizedAffinity>
-5.7058897

$$$$

 OpenBabel03262521143D

 32 34  0  0  0  0  0  0  0  0999 V2000
   38.7780   26.1210   34.7250 C   0  0  0  0  0  0  0  0  0  0  0  0
   37.7510   25.8520   35.5950 C   0  0  0  0  0  0  0  0  0  0  0  0
   38.0540   24.8020   36.3390 N   0  0  0  0  0  0  0  0  0  0  0  0
   39.2650   24.3620   35.9820 C   0  0  0  0  0  0  0  0  0  0  0  0
   39.7070   25.1680   34.9970 N   0  0  0  0  0  0  0  0  0  0  0  0
   36.8440   26.4090   35.6610 H   0  0  0  0  0  0  0  0  0  0  0  0
   37.5520   24.2920   37.0980 H   0  0  0  0  0  0  0  0  0  0  0  0
   40.1500   23.3160   36.3650 N   0  0  0  0  0  0  0  0  0  0  0  0
   41.1640   22.9690   35.5360 C   0  0  0  0  0  3  0  0  0  0  0  0
   42.0210   21.9430   35.9250 C   0  0  0  0  0  0  0  0  0  0  0  0
   42.8550   21.6320   35.2820 H   0  0  0  0  0  0  0  0  0  0  0  0
   41.7940   21.3160   37.1540 C   0  0  0  0  0  0  0  0  0  0  0  0
   42.5340   20.3910   37.5480 O   0  0  0  0  0  0  0  0  0  0  0  0
   40.7830   21.6820   37.9520 N   0  0  0  0  0  0  0  0  0  0  0  0
   39.9530   22.6890   37.5550 C   0  0  0  0  0  0  0  0  0  0  0  0
   38.9780   23.0730   38.2760 O   0  0  0  0  0  0  0  0  0  0  0  0
   40.6020   21.2140   38.8870 H   0  0  0  0  0  0  0  0  0  0  0  0
   38.9100   27.1270   33.7550 O   0  0  0  0  0  0  0  0  0  0  0  0
   38.6850   27.9070   31.3100 O   0  0  0  0  0  0  0  0  0  0  0  0
   38.1710   26.8340   32.2550 P   0  0  2  0  0  0  0  0  0  0  0  0
   36.4700   26.9080   32.4020 O   0  0  0  0  0  0  0  0  0  0  0  0
   36.2140   26.1680   32.9850 H   0  0  0  0  0  0  0  0  0  0  0  0
   38.5500   25.2560   31.7220 O   0  0  0  0  0  0  0  0  0  0  0  0
   37.6450   24.2020   31.8650 C   0  0  0  0  0  0  0  0  0  0  0  0
   37.8130   23.1010   32.7340 C   0  0  0  0  0  0  0  0  0  0  0  0
   36.8090   22.1430   32.7460 C   0  0  0  0  0  0  0  0  0  0  0  0
   35.7290   22.2890   31.9460 N   0  0  0  0  0  0  0  0  0  0  0  0
   35.6070   23.3690   31.1200 C   0  0  0  0  0  0  0  0  0  0  0  0
   36.5730   24.3320   31.0810 N   0  0  0  0  0  0  0  0  0  0  0  0
   38.7160   23.1020   33.3170 H   0  0  0  0  0  0  0  0  0  0  0  0
   36.9540   21.3090   33.4170 H   0  0  0  0  0  0  0  0  0  0  0  0
   34.7170   23.4320   30.5020 H   0  0  0  0  0  0  0  0  0  0  0  0
  1  5  1  0  0  0  0
  1  2  2  0  0  0  0
  2  6  1  0  0  0  0
  2  3  1  0  0  0  0
  3  7  1  0  0  0  0
  4  3  1  0  0  0  0
  4  8  1  0  0  0  0
  5  4  2  0  0  0  0
  8 15  1  0  0  0  0
  9 10  2  0  0  0  0
  9  8  1  0  0  0  0
 10 12  1  0  0  0  0
 11 10  1  0  0  0  0
 12 13  2  0  0  0  0
 12 14  1  0  0  0  0
 14 17  1  0  0  0  0
 15 14  1  0  0  0  0
 15 16  2  0  0  0  0
 18  1  1  0  0  0  0
 20 19  2  6  0  0  0
 20 21  1  0  0  0  0
 20 18  1  0  0  0  0
 21 22  1  0  0  0  0
 23 24  1  0  0  0  0
 23 20  1  0  0  0  0
 24 25  1  0  0  0  0
 25 26  2  0  0  0  0
 25 30  1  0  0  0  0
 26 31  1  0  0  0  0
 27 26  1  0  0  0  0
 28 27  2  0  0  0  0
 29 28  1  0  0  0  0
 29 24  2  0  0  0  0
 32 28  1  0  0  0  0
M  END
>  <minimizedAffinity>
-5.59818602

$$$$

 OpenBabel03262521143D

 32 34  0  0  0  0  0  0  0  0999 V2000
   38.2210   25.1200   31.5460 C   0  0  0  0  0  0  0  0  0  0  0  0
   38.3050   23.7950   31.1980 C   0  0  0  0  0  0  0  0  0  0  0  0
   38.2750   23.0410   32.2840 N   0  0  0  0  0  0  0  0  0  0  0  0
   38.1730   23.8380   33.3530 C   0  0  0  0  0  0  0  0  0  0  0  0
   38.1400   25.1070   32.9020 N   0  0  0  0  0  0  0  0  0  0  0  0
   38.3830   23.4280   30.2000 H   0  0  0  0  0  0  0  0  0  0  0  0
   38.3140   22.0120   32.4430 H   0  0  0  0  0  0  0  0  0  0  0  0
   38.0940   23.6850   34.7660 N   0  0  0  0  0  0  0  0  0  0  0  0
   38.3450   24.7510   35.5630 C   0  0  0  0  0  3  0  0  0  0  0  0
   38.2640   24.5850   36.9430 C   0  0  0  0  0  0  0  0  0  0  0  0
   38.4590   25.4240   37.6240 H   0  0  0  0  0  0  0  0  0  0  0  0
   37.9280   23.3230   37.4420 C   0  0  0  0  0  0  0  0  0  0  0  0
   37.8430   23.1220   38.6710 O   0  0  0  0  0  0  0  0  0  0  0  0
   37.6850   22.2880   36.6280 N   0  0  0  0  0  0  0  0  0  0  0  0
   37.7690   22.4690   35.2790 C   0  0  0  0  0  0  0  0  0  0  0  0
   37.5500   21.5180   34.4630 O   0  0  0  0  0  0  0  0  0  0  0  0
   37.4300   21.3250   36.9960 H   0  0  0  0  0  0  0  0  0  0  0  0
   38.2150   26.2730   30.7450 O   0  0  0  0  0  0  0  0  0  0  0  0
   35.6580   26.3400   31.0460 O   0  0  0  0  0  0  0  0  0  0  0  0
   36.8450   27.2690   30.8620 P   0  0  2  0  0  0  0  0  0  0  0  0
   36.6720   28.2150   29.4480 O   0  0  0  0  0  0  0  0  0  0  0  0
   37.4450   28.8110   29.4230 H   0  0  0  0  0  0  0  0  0  0  0  0
   37.0320   28.3590   32.1640 O   0  0  0  0  0  0  0  0  0  0  0  0
   35.9350   29.0140   32.7270 C   0  0  0  0  0  0  0  0  0  0  0  0
   35.6060   29.0090   34.1010 C   0  0  0  0  0  0  0  0  0  0  0  0
   34.4750   29.7160   34.4850 C   0  0  0  0  0  0  0  0  0  0  0  0
   33.7420   30.3720   33.5580 N   0  0  0  0  0  0  0  0  0  0  0  0
   34.0970   30.3500   32.2390 C   0  0  0  0  0  0  0  0  0  0  0  0
   35.2010   29.6660   31.8230 N   0  0  0  0  0  0  0  0  0  0  0  0
   36.2690   28.4500   34.7370 H   0  0  0  0  0  0  0  0  0  0  0  0
   34.2390   29.7020   35.5400 H   0  0  0  0  0  0  0  0  0  0  0  0
   33.4700   30.8950   31.5410 H   0  0  0  0  0  0  0  0  0  0  0  0
  1  5  1  0  0  0  0
  2  1  2  0  0  0  0
  2  3  1  0  0  0  0
  3  7  1  0  0  0  0
  3  4  1  0  0  0  0
  4  8  1  0  0  0  0
  5  4  2  0  0  0  0
  6  2  1  0  0  0  0
  8 15  1  0  0  0  0
  8  9  1  0  0  0  0
  9 10  2  0  0  0  0
 10 12  1  0  0  0  0
 10 11  1  0  0  0  0
 12 13  2  0  0  0  0
 14 17  1  0  0  0  0
 14 12  1  0  0  0  0
 15 14  1  0  0  0  0
 16 15  2  0  0  0  0
 18 20  1  0  0  0  0
 18  1  1  0  0  0  0
 20 19  2  1  0  0  0
 20 23  1  0  0  0  0
 21 20  1  0  0  0  0
 22 21  1  0  0  0  0
 23 24  1  0  0  0  0
 24 25  1  0  0  0  0
 25 26  2  0  0  0  0
 25 30  1  0  0  0  0
 26 31  1  0  0  0  0
 27 26  1  0  0  0  0
 28 27  2  0  0  0  0
 29 28  1  0  0  0  0
 29 24  2  0  0  0  0
 32 28  1  0  0  0  0
M  END
>  <minimizedAffinity>
-5.51323318

$$$$

 OpenBabel03262521143D

 32 34  0  0  0  0  0  0  0  0999 V2000
   39.7140   23.2590   35.9880 C   0  0  0  0  0  0  0  0  0  0  0  0
   38.8500   23.2330   37.0530 C   0  0  0  0  0  0  0  0  0  0  0  0
   37.7390   22.5990   36.7170 N   0  0  0  0  0  0  0  0  0  0  0  0
   37.8440   22.2010   35.4450 C   0  0  0  0  0  0  0  0  0  0  0  0
   39.0500   22.6040   35.0000 N   0  0  0  0  0  0  0  0  0  0  0  0
   39.0460   23.6590   38.0100 H   0  0  0  0  0  0  0  0  0  0  0  0
   36.8610   22.3720   37.2300 H   0  0  0  0  0  0  0  0  0  0  0  0
   37.0440   21.4970   34.5020 N   0  0  0  0  0  0  0  0  0  0  0  0
   37.3470   21.5780   33.1840 C   0  0  0  0  0  3  0  0  0  0  0  0
   36.5540   20.8840   32.2740 C   0  0  0  0  0  0  0  0  0  0  0  0
   36.7660   20.9230   31.1970 H   0  0  0  0  0  0  0  0  0  0  0  0
   35.4790   20.1360   32.7630 C   0  0  0  0  0  0  0  0  0  0  0  0
   34.7380   19.4970   31.9880 O   0  0  0  0  0  0  0  0  0  0  0  0
   35.2040   20.0760   34.0720 N   0  0  0  0  0  0  0  0  0  0  0  0
   35.9920   20.7620   34.9500 C   0  0  0  0  0  0  0  0  0  0  0  0
   35.7730   20.7380   36.2030 O   0  0  0  0  0  0  0  0  0  0  0  0
   34.3910   19.5110   34.4550 H   0  0  0  0  0  0  0  0  0  0  0  0
   40.9990   23.8130   35.8700 O   0  0  0  0  0  0  0  0  0  0  0  0
   41.3500   24.4390   33.3960 O   0  0  0  0  0  0  0  0  0  0  0  0
   41.1770   25.0850   34.7600 P   0  0  2  0  0  0  0  0  0  0  0  0
   42.5330   26.0440   35.1630 O   0  0  0  0  0  0  0  0  0  0  0  0
   42.3300   26.4560   36.0240 H   0  0  0  0  0  0  0  0  0  0  0  0
   39.8110   26.1090   34.8300 O   0  0  0  0  0  0  0  0  0  0  0  0
   38.9740   26.2830   33.7260 C   0  0  0  0  0  0  0  0  0  0  0  0
   39.2270   27.1590   32.6470 C   0  0  0  0  0  0  0  0  0  0  0  0
   38.2820   27.2040   31.6320 C   0  0  0  0  0  0  0  0  0  0  0  0
   37.1770   26.4290   31.7040 N   0  0  0  0  0  0  0  0  0  0  0  0
   36.9720   25.5970   32.7660 C   0  0  0  0  0  0  0  0  0  0  0  0
   37.8780   25.5240   33.7840 N   0  0  0  0  0  0  0  0  0  0  0  0
   40.1420   27.7210   32.7080 H   0  0  0  0  0  0  0  0  0  0  0  0
   38.4920   27.8790   30.8140 H   0  0  0  0  0  0  0  0  0  0  0  0
   36.0660   24.9980   32.7690 H   0  0  0  0  0  0  0  0  0  0  0  0
  1  2  2  0  0  0  0
  2  6  1  0  0  0  0
  3  2  1  0  0  0  0
  3  7  1  0  0  0  0
  4  3  1  0  0  0  0
  5  4  2  0  0  0  0
  5  1  1  0  0  0  0
  8 15  1  0  0  0  0
  8  4  1  0  0  0  0
  9  8  1  0  0  0  0
 10 12  1  0  0  0  0
 10  9  2  0  0  0  0
 11 10  1  0  0  0  0
 12 14  1  0  0  0  0
 13 12  2  0  0  0  0
 14 17  1  0  0  0  0
 14 15  1  0  0  0  0
 15 16  2  0  0  0  0
 18  1  1  0  0  0  0
 20 19  2  6  0  0  0
 20 23  1  0  0  0  0
 20 21  1  0  0  0  0
 20 18  1  0  0  0  0
 21 22  1  0  0  0  0
 24 29  1  0  0  0  0
 24 23  1  0  0  0  0
 25 30  1  0  0  0  0
 25 24  2  0  0  0  0
 26 27  2  0  0  0  0
 26 25  1  0  0  0  0
 27 28  1  0  0  0  0
 28 32  1  0  0  0  0
 28 29  2  0  0  0  0
 31 26  1  0  0  0  0
M  END
>  <minimizedAffinity>
-5.42252016

$$$$

 OpenBabel03262521143D

 32 34  0  0  0  0  0  0  0  0999 V2000
   37.7190   25.2960   32.5510 C   0  0  0  0  0  0  0  0  0  0  0  0
   38.0330   25.2250   31.2170 C   0  0  0  0  0  0  0  0  0  0  0  0
   37.5560   26.2850   30.5860 N   0  0  0  0  0  0  0  0  0  0  0  0
   36.9280   27.0630   31.4730 C   0  0  0  0  0  0  0  0  0  0  0  0
   37.0270   26.4590   32.6730 N   0  0  0  0  0  0  0  0  0  0  0  0
   38.5810   24.4340   30.7590 H   0  0  0  0  0  0  0  0  0  0  0  0
   37.5820   26.5980   29.5920 H   0  0  0  0  0  0  0  0  0  0  0  0
   36.2230   28.2990   31.4630 N   0  0  0  0  0  0  0  0  0  0  0  0
   35.4200   28.6130   32.5080 C   0  0  0  0  0  3  0  0  0  0  0  0
   34.7370   29.8260   32.4830 C   0  0  0  0  0  0  0  0  0  0  0  0
   34.0770   30.1180   33.3110 H   0  0  0  0  0  0  0  0  0  0  0  0
   34.9100   30.6640   31.3780 C   0  0  0  0  0  0  0  0  0  0  0  0
   34.3200   31.7620   31.3080 O   0  0  0  0  0  0  0  0  0  0  0  0
   35.7110   30.3260   30.3600 N   0  0  0  0  0  0  0  0  0  0  0  0
   36.3730   29.1340   30.4010 C   0  0  0  0  0  0  0  0  0  0  0  0
   37.1440   28.7660   29.4590 O   0  0  0  0  0  0  0  0  0  0  0  0
   35.8510   30.9550   29.5160 H   0  0  0  0  0  0  0  0  0  0  0  0
   38.0090   24.4120   33.6030 O   0  0  0  0  0  0  0  0  0  0  0  0
   39.1130   22.3610   32.5040 O   0  0  0  0  0  0  0  0  0  0  0  0
   37.8590   22.7550   33.2640 P   0  0  2  0  0  0  0  0  0  0  0  0
   36.4560   22.4610   32.3320 O   0  0  0  0  0  0  0  0  0  0  0  0
   35.6970   22.6970   32.8990 H   0  0  0  0  0  0  0  0  0  0  0  0
   37.6730   21.8820   34.7210 O   0  0  0  0  0  0  0  0  0  0  0  0
   38.2530   22.3230   35.9120 C   0  0  0  0  0  0  0  0  0  0  0  0
   39.6160   22.1800   36.2520 C   0  0  0  0  0  0  0  0  0  0  0  0
   40.0200   22.6780   37.4830 C   0  0  0  0  0  0  0  0  0  0  0  0
   39.1190   23.2710   38.2990 N   0  0  0  0  0  0  0  0  0  0  0  0
   37.8100   23.3880   37.9300 C   0  0  0  0  0  0  0  0  0  0  0  0
   37.3750   22.9100   36.7280 N   0  0  0  0  0  0  0  0  0  0  0  0
   40.2300   21.6900   35.5180 H   0  0  0  0  0  0  0  0  0  0  0  0
   41.0660   22.5600   37.7260 H   0  0  0  0  0  0  0  0  0  0  0  0
   37.1330   23.8740   38.6260 H   0  0  0  0  0  0  0  0  0  0  0  0
  1  5  1  0  0  0  0
  1 18  1  0  0  0  0
  2  1  2  0  0  0  0
  3  2  1  0  0  0  0
  3  4  1  0  0  0  0
  4  5  2  0  0  0  0
  6  2  1  0  0  0  0
  7  3  1  0  0  0  0
  8  4  1  0  0  0  0
  8  9  1  0  0  0  0
 10  9  2  0  0  0  0
 10 11  1  0  0  0  0
 12 10  1  0  0  0  0
 13 12  2  0  0  0  0
 14 15  1  0  0  0  0
 14 12  1  0  0  0  0
 15  8  1  0  0  0  0
 16 15  2  0  0  0  0
 17 14  1  0  0  0  0
 20 19  2  6  0  0  0
 20 18  1  0  0  0  0
 20 23  1  0  0  0  0
 21 22  1  0  0  0  0
 21 20  1  0  0  0  0
 23 24  1  0  0  0  0
 24 25  2  0  0  0  0
 24 29  1  0  0  0  0
 25 26  1  0  0  0  0
 26 31  1  0  0  0  0
 26 27  2  0  0  0  0
 28 27  1  0  0  0  0
 28 32  1  0  0  0  0
 29 28  2  0  0  0  0
 30 25  1  0  0  0  0
M  END
>  <minimizedAffinity>
-5.3953433

$$$$

 OpenBabel03262521143D

 32 34  0  0  0  0  0  0  0  0999 V2000
   38.5400   26.1750   34.6920 C   0  0  0  0  0  0  0  0  0  0  0  0
   37.5230   25.8880   35.5670 C   0  0  0  0  0  0  0  0  0  0  0  0
   37.8510   24.8460   36.3140 N   0  0  0  0  0  0  0  0  0  0  0  0
   39.0700   24.4310   35.9530 C   0  0  0  0  0  0  0  0  0  0  0  0
   39.4900   25.2420   34.9630 N   0  0  0  0  0  0  0  0  0  0  0  0
   36.6050   26.4260   35.6360 H   0  0  0  0  0  0  0  0  0  0  0  0
   37.3640   24.3300   37.0770 H   0  0  0  0  0  0  0  0  0  0  0  0
   39.9780   23.4040   36.3350 N   0  0  0  0  0  0  0  0  0  0  0  0
   40.9950   23.0750   35.5020 C   0  0  0  0  0  3  0  0  0  0  0  0
   41.8750   22.0690   35.8900 C   0  0  0  0  0  0  0  0  0  0  0  0
   42.7120   21.7730   35.2450 H   0  0  0  0  0  0  0  0  0  0  0  0
   41.6670   21.4420   37.1230 C   0  0  0  0  0  0  0  0  0  0  0  0
   42.4280   20.5350   37.5160 O   0  0  0  0  0  0  0  0  0  0  0  0
   40.6530   21.7900   37.9240 N   0  0  0  0  0  0  0  0  0  0  0  0
   39.8000   22.7790   37.5280 C   0  0  0  0  0  0  0  0  0  0  0  0
   38.8200   23.1450   38.2520 O   0  0  0  0  0  0  0  0  0  0  0  0
   40.4860   21.3220   38.8620 H   0  0  0  0  0  0  0  0  0  0  0  0
   38.6460   27.1790   33.7170 O   0  0  0  0  0  0  0  0  0  0  0  0
   36.3540   28.2970   33.3530 O   0  0  0  0  0  0  0  0  0  0  0  0
   37.3270   27.3560   32.6640 P   0  0  2  0  0  0  0  0  0  0  0  0
   36.6000   25.8390   32.3570 O   0  0  0  0  0  0  0  0  0  0  0  0
   37.2670   25.3090   31.8780 H   0  0  0  0  0  0  0  0  0  0  0  0
   37.8650   27.9570   31.1580 O   0  0  0  0  0  0  0  0  0  0  0  0
   38.9110   27.3460   30.4630 C   0  0  0  0  0  0  0  0  0  0  0  0
   40.0630   28.0090   29.9850 C   0  0  0  0  0  0  0  0  0  0  0  0
   41.0030   27.2420   29.3120 C   0  0  0  0  0  0  0  0  0  0  0  0
   40.7930   25.9180   29.1370 N   0  0  0  0  0  0  0  0  0  0  0  0
   39.6640   25.3180   29.6150 C   0  0  0  0  0  0  0  0  0  0  0  0
   38.7170   26.0380   30.2820 N   0  0  0  0  0  0  0  0  0  0  0  0
   40.1110   29.0640   30.1880 H   0  0  0  0  0  0  0  0  0  0  0  0
   41.8790   27.7660   28.9540 H   0  0  0  0  0  0  0  0  0  0  0  0
   39.5510   24.2520   29.4450 H   0  0  0  0  0  0  0  0  0  0  0  0
  1  5  1  0  0  0  0
  1  2  2  0  0  0  0
  2  6  1  0  0  0  0
  2  3  1  0  0  0  0
  3  7  1  0  0  0  0
  4  3  1  0  0  0  0
  4  8  1  0  0  0  0
  5  4  2  0  0  0  0
  8 15  1  0  0  0  0
  9 10  2  0  0  0  0
  9  8  1  0  0  0  0
 10 12  1  0  0  0  0
 11 10  1  0  0  0  0
 12 13  2  0  0  0  0
 12 14  1  0  0  0  0
 14 17  1  0  0  0  0
 15 14  1  0  0  0  0
 15 16  2  0  0  0  0
 18  1  1  0  0  0  0
 20 19  2  1  0  0  0
 20 18  1  0  0  0  0
 21 20  1  0  0  0  0
 22 21  1  0  0  0  0
 23 20  1  0  0  0  0
 24 23  1  0  0  0  0
 25 30  1  0  0  0  0
 25 24  2  0  0  0  0
 26 25  1  0  0  0  0
 27 26  2  0  0  0  0
 27 28  1  0  0  0  0
 28 29  2  0  0  0  0
 29 24  1  0  0  0  0
 31 26  1  0  0  0  0
 32 28  1  0  0  0  0
M  END
>  <minimizedAffinity>
-5.32764578

$$$$

 OpenBabel03262521143D

 32 34  0  0  0  0  0  0  0  0999 V2000
   37.8890   25.0910   32.7050 C   0  0  0  0  0  0  0  0  0  0  0  0
   38.8720   24.7230   31.8210 C   0  0  0  0  0  0  0  0  0  0  0  0
   38.7590   23.4370   31.5310 N   0  0  0  0  0  0  0  0  0  0  0  0
   37.7170   22.9380   32.2050 C   0  0  0  0  0  0  0  0  0  0  0  0
   37.1870   23.9490   32.9220 N   0  0  0  0  0  0  0  0  0  0  0  0
   39.6170   25.3760   31.4270 H   0  0  0  0  0  0  0  0  0  0  0  0
   39.2980   22.7910   30.9160 H   0  0  0  0  0  0  0  0  0  0  0  0
   37.0690   21.6790   32.3430 N   0  0  0  0  0  0  0  0  0  0  0  0
   36.2380   21.4730   33.3930 C   0  0  0  0  0  3  0  0  0  0  0  0
   35.6120   20.2350   33.5130 C   0  0  0  0  0  0  0  0  0  0  0  0
   34.9300   20.0280   34.3490 H   0  0  0  0  0  0  0  0  0  0  0  0
   35.8710   19.2610   32.5450 C   0  0  0  0  0  0  0  0  0  0  0  0
   35.3350   18.1360   32.6080 O   0  0  0  0  0  0  0  0  0  0  0  0
   36.6990   19.4950   31.5180 N   0  0  0  0  0  0  0  0  0  0  0  0
   37.3030   20.7140   31.4160 C   0  0  0  0  0  0  0  0  0  0  0  0
   38.0980   20.9850   30.4600 O   0  0  0  0  0  0  0  0  0  0  0  0
   36.9030   18.7630   30.7770 H   0  0  0  0  0  0  0  0  0  0  0  0
   37.6110   26.3360   33.2910 O   0  0  0  0  0  0  0  0  0  0  0  0
   37.6050   27.9140   35.3260 O   0  0  0  0  0  0  0  0  0  0  0  0
   38.0710   26.5280   34.9140 P   0  0  2  0  0  0  0  0  0  0  0  0
   39.7660   26.3750   35.0770 O   0  0  0  0  0  0  0  0  0  0  0  0
   39.9810   25.4540   34.8370 H   0  0  0  0  0  0  0  0  0  0  0  0
   37.3710   25.2930   35.8640 O   0  0  0  0  0  0  0  0  0  0  0  0
   38.1560   24.4470   36.6500 C   0  0  0  0  0  0  0  0  0  0  0  0
   38.0350   24.2970   38.0490 C   0  0  0  0  0  0  0  0  0  0  0  0
   38.9020   23.4090   38.6700 C   0  0  0  0  0  0  0  0  0  0  0  0
   39.8140   22.7320   37.9360 N   0  0  0  0  0  0  0  0  0  0  0  0
   39.8970   22.9090   36.5850 C   0  0  0  0  0  0  0  0  0  0  0  0
   39.0620   23.7720   35.9390 N   0  0  0  0  0  0  0  0  0  0  0  0
   37.2700   24.8910   38.5170 H   0  0  0  0  0  0  0  0  0  0  0  0
   38.7940   23.3060   39.7410 H   0  0  0  0  0  0  0  0  0  0  0  0
   40.6490   22.3380   36.0490 H   0  0  0  0  0  0  0  0  0  0  0  0
  1  5  1  0  0  0  0
  1 18  1  0  0  0  0
  2  1  2  0  0  0  0
  3  2  1  0  0  0  0
  3  4  1  0  0  0  0
  4  8  1  0  0  0  0
  4  5  2  0  0  0  0
  6  2  1  0  0  0  0
  7  3  1  0  0  0  0
  8  9  1  0  0  0  0
  9 10  2  0  0  0  0
 10 11  1  0  0  0  0
 12 13  2  0  0  0  0
 12 10  1  0  0  0  0
 14 12  1  0  0  0  0
 15 14  1  0  0  0  0
 15  8  1  0  0  0  0
 16 15  2  0  0  0  0
 17 14  1  0  0  0  0
 18 20  1  0  0  0  0
 20 21  1  0  0  0  0
 20 19  2  1  0  0  0
 20 23  1  0  0  0  0
 22 21  1  0  0  0  0
 23 24  1  0  0  0  0
 24 25  1  0  0  0  0
 25 30  1  0  0  0  0
 25 26  2  0  0  0  0
 26 31  1  0  0  0  0
 27 26  1  0  0  0  0
 28 27  2  0  0  0  0
 29 28  1  0  0  0  0
 29 24  2  0  0  0  0
 32 28  1  0  0  0  0
M  END
>  <minimizedAffinity>
-5.24560881

$$$$

 OpenBabel03262521143D

 32 34  0  0  0  0  0  0  0  0999 V2000
   38.7750   26.0270   34.5330 C   0  0  0  0  0  0  0  0  0  0  0  0
   37.7420   25.7940   35.4050 C   0  0  0  0  0  0  0  0  0  0  0  0
   38.0380   24.7720   36.1920 N   0  0  0  0  0  0  0  0  0  0  0  0
   39.2510   24.3170   35.8610 C   0  0  0  0  0  0  0  0  0  0  0  0
   39.7010   25.0830   34.8480 N   0  0  0  0  0  0  0  0  0  0  0  0
   36.8360   26.3540   35.4440 H   0  0  0  0  0  0  0  0  0  0  0  0
   37.5300   24.2940   36.9670 H   0  0  0  0  0  0  0  0  0  0  0  0
   40.1310   23.2850   36.2910 N   0  0  0  0  0  0  0  0  0  0  0  0
   41.1500   22.9040   35.4830 C   0  0  0  0  0  3  0  0  0  0  0  0
   42.0020   21.8930   35.9170 C   0  0  0  0  0  0  0  0  0  0  0  0
   42.8400   21.5560   35.2930 H   0  0  0  0  0  0  0  0  0  0  0  0
   41.7660   21.3150   37.1690 C   0  0  0  0  0  0  0  0  0  0  0  0
   42.5020   20.4060   37.6030 O   0  0  0  0  0  0  0  0  0  0  0  0
   40.7500   21.7140   37.9450 N   0  0  0  0  0  0  0  0  0  0  0  0
   39.9250   22.7060   37.5030 C   0  0  0  0  0  0  0  0  0  0  0  0
   38.9460   23.1200   38.2020 O   0  0  0  0  0  0  0  0  0  0  0  0
   40.5620   21.2830   38.8960 H   0  0  0  0  0  0  0  0  0  0  0  0
   38.9160   26.9930   33.5250 O   0  0  0  0  0  0  0  0  0  0  0  0
   37.8520   25.9790   31.4100 O   0  0  0  0  0  0  0  0  0  0  0  0
   39.2010   26.4140   31.9550 P   0  0  2  0  0  0  0  0  0  0  0  0
   40.3010   25.1060   31.9910 O   0  0  0  0  0  0  0  0  0  0  0  0
   41.1490   25.4710   32.3090 H   0  0  0  0  0  0  0  0  0  0  0  0
   39.9250   27.6390   31.0100 O   0  0  0  0  0  0  0  0  0  0  0  0
   39.2090   28.3120   30.0180 C   0  0  0  0  0  0  0  0  0  0  0  0
   38.0310   29.0610   30.2350 C   0  0  0  0  0  0  0  0  0  0  0  0
   37.4490   29.6640   29.1290 C   0  0  0  0  0  0  0  0  0  0  0  0
   38.0120   29.5210   27.9080 N   0  0  0  0  0  0  0  0  0  0  0  0
   39.1520   28.7870   27.7430 C   0  0  0  0  0  0  0  0  0  0  0  0
   39.7530   28.1790   28.8070 N   0  0  0  0  0  0  0  0  0  0  0  0
   37.6840   29.0980   31.2520 H   0  0  0  0  0  0  0  0  0  0  0  0
   36.5490   30.2340   29.3140 H   0  0  0  0  0  0  0  0  0  0  0  0
   39.5580   28.7080   26.7400 H   0  0  0  0  0  0  0  0  0  0  0  0
  1  5  1  0  0  0  0
  1  2  2  0  0  0  0
  2  6  1  0  0  0  0
  2  3  1  0  0  0  0
  3  7  1  0  0  0  0
  4  3  1  0  0  0  0
  4  8  1  0  0  0  0
  5  4  2  0  0  0  0
  8 15  1  0  0  0  0
  9 10  2  0  0  0  0
  9  8  1  0  0  0  0
 10 12  1  0  0  0  0
 11 10  1  0  0  0  0
 12 13  2  0  0  0  0
 12 14  1  0  0  0  0
 14 17  1  0  0  0  0
 15 14  1  0  0  0  0
 15 16  2  0  0  0  0
 18  1  1  0  0  0  0
 20 19  2  6  0  0  0
 20 21  1  0  0  0  0
 20 18  1  0  0  0  0
 21 22  1  0  0  0  0
 23 20  1  0  0  0  0
 24 25  1  0  0  0  0
 24 23  1  0  0  0  0
 25 30  1  0  0  0  0
 26 31  1  0  0  0  0
 26 25  2  0  0  0  0
 27 26  1  0  0  0  0
 28 27  2  0  0  0  0
 28 29  1  0  0  0  0
 29 24  2  0  0  0  0
 32 28  1  0  0  0  0
M  END
>  <minimizedAffinity>
-5.15883875

$$$$

 OpenBabel03262521143D

 32 34  0  0  0  0  0  0  0  0999 V2000
   38.1540   25.7290   33.9810 C   0  0  0  0  0  0  0  0  0  0  0  0
   37.6180   26.1550   35.1690 C   0  0  0  0  0  0  0  0  0  0  0  0
   36.9020   27.2500   34.9730 N   0  0  0  0  0  0  0  0  0  0  0  0
   36.9510   27.5650   33.6750 C   0  0  0  0  0  0  0  0  0  0  0  0
   37.7160   26.6360   33.0690 N   0  0  0  0  0  0  0  0  0  0  0  0
   37.7560   25.6740   36.1110 H   0  0  0  0  0  0  0  0  0  0  0  0
   36.3480   27.8670   35.6050 H   0  0  0  0  0  0  0  0  0  0  0  0
   36.4250   28.5780   32.8260 N   0  0  0  0  0  0  0  0  0  0  0  0
   36.9740   28.7680   31.6010 C   0  0  0  0  0  3  0  0  0  0  0  0
   36.4480   29.7640   30.7830 C   0  0  0  0  0  0  0  0  0  0  0  0
   36.8640   29.9490   29.7830 H   0  0  0  0  0  0  0  0  0  0  0  0
   35.3780   30.5240   31.2630 C   0  0  0  0  0  0  0  0  0  0  0  0
   34.8710   31.4280   30.5680 O   0  0  0  0  0  0  0  0  0  0  0  0
   34.8570   30.3120   32.4780 N   0  0  0  0  0  0  0  0  0  0  0  0
   35.3840   29.3320   33.2670 C   0  0  0  0  0  0  0  0  0  0  0  0
   34.9260   29.0920   34.4290 O   0  0  0  0  0  0  0  0  0  0  0  0
   34.0440   30.8830   32.8530 H   0  0  0  0  0  0  0  0  0  0  0  0
   38.9730   24.6250   33.6950 O   0  0  0  0  0  0  0  0  0  0  0  0
   39.1340   22.4880   32.2660 O   0  0  0  0  0  0  0  0  0  0  0  0
   38.1850   23.2010   33.2140 P   0  0  2  0  0  0  0  0  0  0  0  0
   36.7050   23.5690   32.4390 O   0  0  0  0  0  0  0  0  0  0  0  0
   36.1380   23.9830   33.1180 H   0  0  0  0  0  0  0  0  0  0  0  0
   37.8010   22.2600   34.5870 O   0  0  0  0  0  0  0  0  0  0  0  0
   38.3660   22.5300   35.8350 C   0  0  0  0  0  0  0  0  0  0  0  0
   39.7130   22.2880   36.1840 C   0  0  0  0  0  0  0  0  0  0  0  0
   40.1030   22.6180   37.4750 C   0  0  0  0  0  0  0  0  0  0  0  0
   39.2050   23.1470   38.3360 N   0  0  0  0  0  0  0  0  0  0  0  0
   37.9120   23.3640   37.9560 C   0  0  0  0  0  0  0  0  0  0  0  0
   37.4910   23.0530   36.6960 N   0  0  0  0  0  0  0  0  0  0  0  0
   40.3260   21.8630   35.4090 H   0  0  0  0  0  0  0  0  0  0  0  0
   41.1370   22.4270   37.7240 H   0  0  0  0  0  0  0  0  0  0  0  0
   37.2370   23.7920   38.6910 H   0  0  0  0  0  0  0  0  0  0  0  0
  1  2  2  0  0  0  0
  2  6  1  0  0  0  0
  3  2  1  0  0  0  0
  3  7  1  0  0  0  0
  4  3  1  0  0  0  0
  5  4  2  0  0  0  0
  5  1  1  0  0  0  0
  8 15  1  0  0  0  0
  8  4  1  0  0  0  0
  9  8  1  0  0  0  0
 10 12  1  0  0  0  0
 10  9  2  0  0  0  0
 11 10  1  0  0  0  0
 12 14  1  0  0  0  0
 13 12  2  0  0  0  0
 14 17  1  0  0  0  0
 14 15  1  0  0  0  0
 15 16  2  0  0  0  0
 18  1  1  0  0  0  0
 20 19  2  6  0  0  0
 20 18  1  0  0  0  0
 20 23  1  0  0  0  0
 21 22  1  0  0  0  0
 21 20  1  0  0  0  0
 23 24  1  0  0  0  0
 24 25  2  0  0  0  0
 24 29  1  0  0  0  0
 25 26  1  0  0  0  0
 26 31  1  0  0  0  0
 26 27  2  0  0  0  0
 28 27  1  0  0  0  0
 28 32  1  0  0  0  0
 29 28  2  0  0  0  0
 30 25  1  0  0  0  0
M  END
>  <minimizedAffinity>
-5.13676405

$$$$
