
 OpenBabel03272510163D

 29 31  0  0  0  0  0  0  0  0999 V2000
   37.1820   29.3650   51.0420 Br  0  0  0  0  0  0  0  0  0  0  0  0
   35.9080   29.3350   49.6240 C   0  0  0  0  0  0  0  0  0  0  0  0
   35.9860   30.2330   48.5810 C   0  0  0  0  0  0  0  0  0  0  0  0
   35.0200   30.1440   47.5910 C   0  0  0  0  0  0  0  0  0  0  0  0
   33.9980   29.2020   47.6120 C   0  0  0  0  0  0  0  0  0  0  0  0
   33.9620   28.3330   48.6700 C   0  0  0  0  0  0  0  0  0  0  0  0
   34.9120   28.4030   49.6640 C   0  0  0  0  0  0  0  0  0  0  0  0
   35.1300   30.8810   46.7860 H   0  0  0  0  0  0  0  0  0  0  0  0
   33.1500   27.6230   48.6410 H   0  0  0  0  0  0  0  0  0  0  0  0
   34.8090   27.6750   50.4660 H   0  0  0  0  0  0  0  0  0  0  0  0
   33.1120   29.2820   46.5010 N   0  0  0  0  0  0  0  0  0  0  0  0
   32.2430   30.2560   46.1880 C   0  0  0  0  0  3  0  0  0  0  0  0
   31.4810   30.1130   45.0490 C   0  0  0  0  0  0  0  0  0  0  0  0
   30.7870   30.9220   44.8250 H   0  0  0  0  0  0  0  0  0  0  0  0
   31.6010   28.9900   44.2350 C   0  0  0  0  0  0  0  0  0  0  0  0
   30.8830   28.8900   43.1920 O   0  0  0  0  0  0  0  0  0  0  0  0
   32.4890   28.0370   44.5920 N   0  0  0  0  0  0  0  0  0  0  0  0
   33.2350   28.1780   45.7090 C   0  0  0  0  0  0  0  0  0  0  0  0
   34.0100   27.2080   45.9000 O   0  0  0  0  0  0  0  0  0  0  0  0
   32.5410   27.2130   43.9480 H   0  0  0  0  0  0  0  0  0  0  0  0
   38.0000   33.1490   49.4190 C   0  0  0  0  0  0  0  0  0  0  0  0
   39.0320   33.1330   48.4610 C   0  0  0  0  0  0  0  0  0  0  0  0
   39.0230   32.1090   47.5270 C   0  0  0  0  0  0  0  0  0  0  0  0
   38.0240   31.1750   47.5820 N   0  0  0  0  0  0  0  0  0  0  0  0
   37.0440   31.2290   48.5290 C   0  0  0  0  0  0  0  0  0  0  0  0
   37.0430   32.2160   49.4370 N   0  0  0  0  0  0  0  0  0  0  0  0
   38.0630   33.9720   50.1180 H   0  0  0  0  0  0  0  0  0  0  0  0
   39.8360   33.8160   48.3510 H   0  0  0  0  0  0  0  0  0  0  0  0
   39.7140   31.9190   46.7180 H   0  0  0  0  0  0  0  0  0  0  0  0
  2  7  1  0  0  0  0
  2  1  1  0  0  0  0
  3  2  2  0  0  0  0
  4  5  2  0  0  0  0
  4  3  1  0  0  0  0
  5  6  1  0  0  0  0
  6  7  2  0  0  0  0
  7 10  1  0  0  0  0
  8  4  1  0  0  0  0
  9  6  1  0  0  0  0
 11  5  1  0  0  0  0
 12 11  1  0  0  0  0
 13 12  2  0  0  0  0
 14 13  1  0  0  0  0
 15 17  1  0  0  0  0
 15 13  1  0  0  0  0
 16 15  2  0  0  0  0
 17 18  1  0  0  0  0
 18 19  2  0  0  0  0
 18 11  1  0  0  0  0
 20 17  1  0  0  0  0
 21 26  1  0  0  0  0
 21 27  1  0  0  0  0
 22 21  2  0  0  0  0
 23 24  2  0  0  0  0
 23 22  1  0  0  0  0
 24 25  1  0  0  0  0
 25  3  1  0  0  0  0
 25 26  2  0  0  0  0
 28 22  1  0  0  0  0
 29 23  1  0  0  0  0
M  END
>  <minimizedAffinity>
-5.84297848

>  <minimizedRMSD>
0.266910583

$$$$
