
 OpenBabel03272509433D

 39 41  0  0  1  0  0  0  0  0999 V2000
   37.0730   30.9400   49.0300 C   0  0  0  0  0  0  0  0  0  0  0  0
   36.8020   31.8670   50.0390 C   0  0  0  0  0  0  0  0  0  0  0  0
   37.4010   33.1130   50.0750 C   0  0  0  0  0  0  0  0  0  0  0  0
   38.3130   33.4620   49.0670 C   0  0  0  0  0  0  0  0  0  0  0  0
   38.5690   32.5440   48.0850 C   0  0  0  0  0  0  0  0  0  0  0  0
   37.9460   31.3040   48.0850 C   0  0  0  0  0  0  0  0  0  0  0  0
   36.0930   31.5840   50.8120 H   0  0  0  0  0  0  0  0  0  0  0  0
   37.1270   33.7490   50.8890 H   0  0  0  0  0  0  0  0  0  0  0  0
   38.7240   34.4390   49.1750 H   0  0  0  0  0  0  0  0  0  0  0  0
   39.2900   32.9570   47.3840 H   0  0  0  0  0  0  0  0  0  0  0  0
   36.4670   29.6260   49.0200 C   0  0  2  0  0  0  0  0  0  0  0  0
   36.9700   29.0680   48.1400 H   0  0  0  0  0  0  0  0  0  0  0  0
   33.6160   30.0180   46.8010 C   0  0  0  0  0  0  0  0  0  0  0  0
   32.8740   28.8710   47.0040 C   0  0  0  0  0  0  0  0  0  0  0  0
   33.3130   27.9680   47.9620 C   0  0  0  0  0  0  0  0  0  0  0  0
   34.4640   28.2450   48.6660 N   0  0  0  0  0  0  0  0  0  0  0  0
   35.1280   29.3560   48.4230 C   0  0  0  0  0  0  0  0  0  0  0  0
   34.7150   30.2440   47.4990 N   0  0  0  0  0  0  0  0  0  0  0  0
   33.2880   30.7260   46.0630 H   0  0  0  0  0  0  0  0  0  0  0  0
   31.9860   28.7390   46.4040 H   0  0  0  0  0  0  0  0  0  0  0  0
   32.7450   27.0780   48.1270 H   0  0  0  0  0  0  0  0  0  0  0  0
   36.9160   28.8680   49.9580 O   0  0  0  0  0  0  0  0  0  0  0  0
   36.5250   29.0850   50.8530 H   0  0  0  0  0  0  0  0  0  0  0  0
   38.3290   30.4240   47.0060 C   0  0  0  0  0  3  0  0  0  0  0  0
   38.9210   30.8410   45.8810 C   0  0  0  0  0  3  0  0  0  0  0  0
   39.3900   30.0290   44.7350 C   0  0  0  0  0  0  0  0  0  0  0  0
   38.8330   29.0540   44.7710 H   0  0  0  0  0  0  0  0  0  0  0  0
   40.4460   29.7730   44.8110 H   0  0  0  0  0  0  0  0  0  0  0  0
   38.9410   30.8390   43.1960 S   0  0  0  0  0  0  0  0  0  0  0  0
   35.4760   34.1110   43.1870 H   0  0  0  0  0  0  0  0  0  0  0  0
   35.7010   33.0980   43.1400 N   0  0  0  0  0  0  0  0  0  0  0  0
   36.9800   32.6380   43.1880 C   0  0  0  0  0  3  0  0  0  0  0  0
   37.2260   31.2760   43.1210 C   0  0  0  0  0  0  0  0  0  0  0  0
   36.1460   30.4250   43.0070 C   0  0  0  0  0  0  0  0  0  0  0  0
   36.4500   29.2090   42.9530 O   0  0  0  0  0  0  0  0  0  0  0  0
   34.8790   30.8730   42.9580 N   0  0  0  0  0  0  0  0  0  0  0  0
   34.6930   32.2090   43.0270 C   0  0  0  0  0  0  0  0  0  0  0  0
   33.5040   32.6680   42.9840 O   0  0  0  0  0  0  0  0  0  0  0  0
   34.1110   30.1780   42.8720 H   0  0  0  0  0  0  0  0  0  0  0  0
  1  2  1  0  0  0  0
  2  3  2  0  0  0  0
  2  7  1  0  0  0  0
  3  8  1  0  0  0  0
  4  9  1  0  0  0  0
  4  3  1  0  0  0  0
  5  6  1  0  0  0  0
  5  4  2  0  0  0  0
  6  1  2  0  0  0  0
 10  5  1  0  0  0  0
 11 12  1  6  0  0  0
 11  1  1  0  0  0  0
 11 22  1  0  0  0  0
 13 14  2  0  0  0  0
 13 18  1  0  0  0  0
 14 15  1  0  0  0  0
 15 21  1  0  0  0  0
 15 16  2  0  0  0  0
 17 16  1  0  0  0  0
 17 11  1  0  0  0  0
 18 17  2  0  0  0  0
 19 13  1  0  0  0  0
 20 14  1  0  0  0  0
 22 23  1  0  0  0  0
 24  6  1  0  0  0  0
 25 24  2  0  0  0  0
 26 27  1  0  0  0  0
 26 28  1  0  0  0  0
 26 25  1  0  0  0  0
 29 26  1  0  0  0  0
 31 30  1  0  0  0  0
 31 32  1  0  0  0  0
 33 32  2  0  0  0  0
 33 29  1  0  0  0  0
 34 33  1  0  0  0  0
 35 34  2  0  0  0  0
 36 34  1  0  0  0  0
 36 37  1  0  0  0  0
 37 31  1  0  0  0  0
 38 37  2  0  0  0  0
 39 36  1  0  0  0  0
M  END
>  <minimizedAffinity>
-6.03709745

>  <minimizedRMSD>
0.704602003

$$$$
