
 OpenBabel03272509433D

 39 41  0  0  1  0  0  0  0  0999 V2000
   37.0680   30.9390   49.0290 C   0  0  0  0  0  0  0  0  0  0  0  0
   36.7980   31.8640   50.0390 C   0  0  0  0  0  0  0  0  0  0  0  0
   37.3980   33.1100   50.0760 C   0  0  0  0  0  0  0  0  0  0  0  0
   38.3090   33.4600   49.0680 C   0  0  0  0  0  0  0  0  0  0  0  0
   38.5650   32.5430   48.0850 C   0  0  0  0  0  0  0  0  0  0  0  0
   37.9410   31.3040   48.0830 C   0  0  0  0  0  0  0  0  0  0  0  0
   36.0890   31.5800   50.8110 H   0  0  0  0  0  0  0  0  0  0  0  0
   37.1240   33.7450   50.8910 H   0  0  0  0  0  0  0  0  0  0  0  0
   38.7210   34.4360   49.1770 H   0  0  0  0  0  0  0  0  0  0  0  0
   39.2860   32.9570   47.3840 H   0  0  0  0  0  0  0  0  0  0  0  0
   36.4620   29.6250   49.0170 C   0  0  2  0  0  0  0  0  0  0  0  0
   36.9650   29.0670   48.1370 H   0  0  0  0  0  0  0  0  0  0  0  0
   33.6130   30.0200   46.7970 C   0  0  0  0  0  0  0  0  0  0  0  0
   32.8700   28.8730   46.9990 C   0  0  0  0  0  0  0  0  0  0  0  0
   33.3080   27.9690   47.9560 C   0  0  0  0  0  0  0  0  0  0  0  0
   34.4590   28.2450   48.6610 N   0  0  0  0  0  0  0  0  0  0  0  0
   35.1230   29.3560   48.4190 C   0  0  0  0  0  0  0  0  0  0  0  0
   34.7110   30.2450   47.4960 N   0  0  0  0  0  0  0  0  0  0  0  0
   33.2850   30.7290   46.0590 H   0  0  0  0  0  0  0  0  0  0  0  0
   31.9820   28.7410   46.3980 H   0  0  0  0  0  0  0  0  0  0  0  0
   32.7390   27.0790   48.1200 H   0  0  0  0  0  0  0  0  0  0  0  0
   36.9100   28.8660   49.9540 O   0  0  0  0  0  0  0  0  0  0  0  0
   36.5190   29.0820   50.8500 H   0  0  0  0  0  0  0  0  0  0  0  0
   38.3240   30.4240   47.0030 C   0  0  0  0  0  3  0  0  0  0  0  0
   38.9270   30.8410   45.8840 C   0  0  0  0  0  3  0  0  0  0  0  0
   39.3970   30.0300   44.7380 C   0  0  0  0  0  0  0  0  0  0  0  0
   38.8390   29.0550   44.7730 H   0  0  0  0  0  0  0  0  0  0  0  0
   40.4520   29.7740   44.8140 H   0  0  0  0  0  0  0  0  0  0  0  0
   38.9480   30.8410   43.1990 S   0  0  0  0  0  0  0  0  0  0  0  0
   35.4800   34.1090   43.1930 H   0  0  0  0  0  0  0  0  0  0  0  0
   35.7060   33.0970   43.1430 N   0  0  0  0  0  0  0  0  0  0  0  0
   36.9840   32.6380   43.1930 C   0  0  0  0  0  3  0  0  0  0  0  0
   37.2320   31.2760   43.1230 C   0  0  0  0  0  0  0  0  0  0  0  0
   36.1540   30.4250   43.0050 C   0  0  0  0  0  0  0  0  0  0  0  0
   36.4590   29.2090   42.9480 O   0  0  0  0  0  0  0  0  0  0  0  0
   34.8870   30.8710   42.9560 N   0  0  0  0  0  0  0  0  0  0  0  0
   34.6990   32.2070   43.0270 C   0  0  0  0  0  0  0  0  0  0  0  0
   33.5090   32.6640   42.9840 O   0  0  0  0  0  0  0  0  0  0  0  0
   34.1200   30.1760   42.8660 H   0  0  0  0  0  0  0  0  0  0  0  0
  1  2  1  0  0  0  0
  2  3  2  0  0  0  0
  2  7  1  0  0  0  0
  3  8  1  0  0  0  0
  4  9  1  0  0  0  0
  4  3  1  0  0  0  0
  5  4  2  0  0  0  0
  6  5  1  0  0  0  0
  6  1  2  0  0  0  0
 10  5  1  0  0  0  0
 11 12  1  6  0  0  0
 11  1  1  0  0  0  0
 11 22  1  0  0  0  0
 13 14  2  0  0  0  0
 13 18  1  0  0  0  0
 14 15  1  0  0  0  0
 15 21  1  0  0  0  0
 15 16  2  0  0  0  0
 17 16  1  0  0  0  0
 17 11  1  0  0  0  0
 18 17  2  0  0  0  0
 19 13  1  0  0  0  0
 20 14  1  0  0  0  0
 22 23  1  0  0  0  0
 24  6  1  0  0  0  0
 25 24  2  0  0  0  0
 26 27  1  0  0  0  0
 26 28  1  0  0  0  0
 26 25  1  0  0  0  0
 29 26  1  0  0  0  0
 31 32  1  0  0  0  0
 31 30  1  0  0  0  0
 33 32  2  0  0  0  0
 33 29  1  0  0  0  0
 34 33  1  0  0  0  0
 35 34  2  0  0  0  0
 36 34  1  0  0  0  0
 36 37  1  0  0  0  0
 37 31  1  0  0  0  0
 38 37  2  0  0  0  0
 39 36  1  0  0  0  0
M  END
>  <minimizedAffinity>
-6.03595734

>  <minimizedRMSD>
0.597189128

$$$$
