
 OpenBabel03272503323D

 42 45  0  0  1  0  0  0  0  0999 V2000
   35.8420   29.8840   47.5490 C   0  0  0  0  0  0  0  0  0  0  0  0
   36.0260   30.4750   46.2960 C   0  0  0  0  0  0  0  0  0  0  0  0
   35.2220   30.0170   45.2500 C   0  0  0  0  0  0  0  0  0  0  0  0
   34.3160   29.0230   45.5370 N   0  0  0  0  0  0  0  0  0  0  0  0
   34.1760   28.4910   46.7370 C   0  0  0  0  0  0  0  0  0  0  0  0
   34.9420   28.9160   47.7650 N   0  0  0  0  0  0  0  0  0  0  0  0
   36.7290   31.2440   46.0860 H   0  0  0  0  0  0  0  0  0  0  0  0
   35.2880   30.4110   44.2530 H   0  0  0  0  0  0  0  0  0  0  0  0
   36.6720   30.3560   48.6270 N   0  0  0  0  0  0  0  0  0  0  0  0
   38.0350   30.7910   48.5340 C   0  0  0  0  0  0  0  0  0  0  0  0
   38.1350   31.7820   49.6920 C   0  0  2  0  0  0  0  0  0  0  0  0
   36.7270   31.9140   50.2630 C   0  0  0  0  0  0  0  0  0  0  0  0
   36.2720   30.4790   50.0240 C   0  0  0  0  0  0  0  0  0  0  0  0
   38.7690   29.9750   48.6400 H   0  0  0  0  0  0  0  0  0  0  0  0
   38.1480   31.3900   47.6070 H   0  0  0  0  0  0  0  0  0  0  0  0
   38.7310   31.3000   50.4990 H   0  0  0  0  0  0  0  0  0  0  0  0
   36.1030   32.6250   49.6880 H   0  0  0  0  0  0  0  0  0  0  0  0
   36.7360   32.0860   51.3400 H   0  0  0  0  0  0  0  0  0  0  0  0
   35.1750   30.3590   50.0840 H   0  0  0  0  0  0  0  0  0  0  0  0
   36.8420   29.8190   50.6910 H   0  0  0  0  0  0  0  0  0  0  0  0
   38.6900   33.1120   49.2480 C   0  0  0  0  0  0  0  0  0  0  0  0
   37.6090   33.9470   49.0450 F   0  0  0  0  0  0  0  0  0  0  0  0
   39.2720   32.9170   48.0110 F   0  0  0  0  0  0  0  0  0  0  0  0
   39.5880   33.6450   50.1320 F   0  0  0  0  0  0  0  0  0  0  0  0
   32.9820   27.2060   47.0310 S   0  0  0  0  0  0  0  0  0  0  0  0
   31.6320   27.5640   47.9600 C   0  0  0  0  0  0  0  0  0  0  0  0
   31.1800   27.5470   49.2480 C   0  0  0  0  0  0  0  0  0  0  0  0
   29.9480   27.9300   49.6620 C   0  0  0  0  0  0  0  0  0  0  0  0
   29.0880   28.3950   48.5410 C   0  0  0  0  0  0  0  0  0  0  0  0
   30.1310   28.2290   47.0530 S   0  0  0  0  0  0  0  0  0  0  0  0
   31.9480   27.1800   49.9120 H   0  0  0  0  0  0  0  0  0  0  0  0
   29.5980   27.9180   50.6550 H   0  0  0  0  0  0  0  0  0  0  0  0
   27.7730   28.8380   48.7410 N   0  0  0  0  0  0  0  0  0  0  0  0
   27.3840   30.1080   48.9620 C   0  0  0  0  0  0  0  0  0  0  0  0
   26.0410   30.3700   49.1400 C   0  0  0  0  0  0  0  0  0  0  0  0
   25.7240   31.3920   49.3190 H   0  0  0  0  0  0  0  0  0  0  0  0
   25.0850   29.3550   49.0970 C   0  0  0  0  0  0  0  0  0  0  0  0
   23.8610   29.5790   49.2570 O   0  0  0  0  0  0  0  0  0  0  0  0
   25.5440   28.0910   48.8690 N   0  0  0  0  0  0  0  0  0  0  0  0
   26.8600   27.8330   48.6940 C   0  0  0  0  0  0  0  0  0  0  0  0
   27.1460   26.6150   48.4910 O   0  0  0  0  0  0  0  0  0  0  0  0
   24.8290   27.3210   48.8340 H   0  0  0  0  0  0  0  0  0  0  0  0
  1  6  1  0  0  0  0
  1  9  1  0  0  0  0
  2  1  2  0  0  0  0
  3  4  2  0  0  0  0
  3  2  1  0  0  0  0
  4  5  1  0  0  0  0
  5 25  1  0  0  0  0
  5  6  2  0  0  0  0
  7  2  1  0  0  0  0
  8  3  1  0  0  0  0
  9 13  1  0  0  0  0
 10  9  1  0  0  0  0
 10 14  1  0  0  0  0
 10 11  1  0  0  0  0
 11 12  1  0  0  0  0
 11 16  1  1  0  0  0
 12 18  1  0  0  0  0
 13 19  1  0  0  0  0
 13 12  1  0  0  0  0
 13 20  1  0  0  0  0
 15 10  1  0  0  0  0
 17 12  1  0  0  0  0
 21 11  1  0  0  0  0
 21 24  1  0  0  0  0
 22 21  1  0  0  0  0
 23 21  1  0  0  0  0
 25 26  1  0  0  0  0
 26 27  2  0  0  0  0
 27 28  1  0  0  0  0
 27 31  1  0  0  0  0
 28 32  1  0  0  0  0
 29 33  1  0  0  0  0
 29 28  2  0  0  0  0
 30 26  1  0  0  0  0
 30 29  1  0  0  0  0
 33 34  1  0  0  0  0
 34 35  2  0  0  0  0
 35 36  1  0  0  0  0
 37 35  1  0  0  0  0
 37 38  2  0  0  0  0
 39 37  1  0  0  0  0
 40 33  1  0  0  0  0
 40 39  1  0  0  0  0
 41 40  2  0  0  0  0
 42 39  1  0  0  0  0
M  END
>  <minimizedAffinity>
-7.64798641

>  <minimizedRMSD>
1.57592356

$$$$
