
 OpenBabel03272506443D

 33 35  0  0  1  0  0  0  0  0999 V2000
   32.1250   27.6390   47.8110 C   0  0  2  0  0  0  0  0  0  0  0  0
   33.5390   27.6130   48.3690 C   0  0  1  0  0  0  0  0  0  0  0  0
   34.1440   26.4720   47.9320 O   0  0  0  0  0  0  0  0  0  0  0  0
   33.3440   25.8670   46.9900 C   0  0  0  0  0  0  0  0  0  0  0  0
   32.3800   26.9510   46.4760 C   0  0  1  0  0  0  0  0  0  0  0  0
   31.4670   27.0250   48.4430 H   0  0  0  0  0  0  0  0  0  0  0  0
   33.5110   27.7440   49.4600 H   0  0  0  0  0  0  0  0  0  0  0  0
   33.9210   25.4020   46.1800 H   0  0  0  0  0  0  0  0  0  0  0  0
   32.7000   25.1350   47.5340 H   0  0  0  0  0  0  0  0  0  0  0  0
   32.9770   27.6040   45.8440 H   0  0  0  0  0  0  0  0  0  0  0  0
   31.6720   28.9450   47.6510 O   0  0  0  0  0  0  0  0  0  0  0  0
   32.1540   29.3360   46.8790 H   0  0  0  0  0  0  0  0  0  0  0  0
   34.4130   29.0430   47.6250 S   0  0  0  0  0  0  0  0  0  0  0  0
   37.0390   29.2420   50.5890 C   0  0  0  0  0  0  0  0  0  0  0  0
   37.4040   30.5890   50.6550 C   0  0  0  0  0  0  0  0  0  0  0  0
   36.8070   31.4780   49.7340 C   0  0  0  0  0  0  0  0  0  0  0  0
   35.9200   30.9760   48.8470 N   0  0  0  0  0  0  0  0  0  0  0  0
   35.5880   29.6690   48.8110 C   0  0  0  0  0  0  0  0  0  0  0  0
   36.1400   28.8030   49.6730 N   0  0  0  0  0  0  0  0  0  0  0  0
   37.4660   28.5210   51.2720 H   0  0  0  0  0  0  0  0  0  0  0  0
   38.1090   30.9330   51.3740 H   0  0  0  0  0  0  0  0  0  0  0  0
   37.0610   32.5320   49.7470 H   0  0  0  0  0  0  0  0  0  0  0  0
   31.2580   26.3640   45.9490 O   0  0  0  0  0  0  0  0  0  0  0  0
   29.2340   29.2100   43.0820 H   0  0  0  0  0  0  0  0  0  0  0  0
   29.1430   28.5660   43.8850 N   0  0  0  0  0  0  0  0  0  0  0  0
   30.2830   27.9770   44.2760 C   0  0  0  0  0  3  0  0  0  0  0  0
   30.2550   27.1020   45.3400 C   0  0  0  0  0  0  0  0  0  0  0  0
   29.0400   26.8510   45.9800 C   0  0  0  0  0  0  0  0  0  0  0  0
   28.8240   26.0860   46.9620 O   0  0  0  0  0  0  0  0  0  0  0  0
   27.8900   27.4580   45.5680 N   0  0  0  0  0  0  0  0  0  0  0  0
   27.9610   28.3180   44.5120 C   0  0  0  0  0  0  0  0  0  0  0  0
   26.9470   28.9140   44.0740 O   0  0  0  0  0  0  0  0  0  0  0  0
   26.9610   27.3280   45.9830 H   0  0  0  0  0  0  0  0  0  0  0  0
  1  2  1  0  0  0  0
  1  6  1  1  0  0  0
  2  7  1  1  0  0  0
  3  2  1  0  0  0  0
  4  9  1  0  0  0  0
  4  3  1  0  0  0  0
  5 10  1  6  0  0  0
  5  4  1  0  0  0  0
  5  1  1  0  0  0  0
  8  4  1  0  0  0  0
 11  1  1  0  0  0  0
 12 11  1  0  0  0  0
 13  2  1  0  0  0  0
 13 18  1  0  0  0  0
 14 15  1  0  0  0  0
 14 20  1  0  0  0  0
 15 21  1  0  0  0  0
 16 22  1  0  0  0  0
 16 15  2  0  0  0  0
 17 16  1  0  0  0  0
 18 17  2  0  0  0  0
 18 19  1  0  0  0  0
 19 14  2  0  0  0  0
 23  5  1  0  0  0  0
 24 25  1  0  0  0  0
 25 26  1  0  0  0  0
 25 31  1  0  0  0  0
 26 27  2  0  0  0  0
 27 23  1  0  0  0  0
 27 28  1  0  0  0  0
 28 29  2  0  0  0  0
 30 28  1  0  0  0  0
 30 33  1  0  0  0  0
 31 30  1  0  0  0  0
 32 31  2  0  0  0  0
M  END
>  <minimizedAffinity>
-4.16497326

>  <minimizedRMSD>
2.34800529

$$$$
