
 OpenBabel03272504423D

 46 48  0  0  0  0  0  0  0  0999 V2000
   34.5780   29.1180   48.7950 C   0  0  0  0  0  0  0  0  0  0  0  0
   35.4890   28.9250   49.4110 H   0  0  0  0  0  0  0  0  0  0  0  0
   34.0960   29.9880   49.3310 H   0  0  0  0  0  0  0  0  0  0  0  0
   37.3370   30.2170   48.6500 Cl  0  0  0  0  0  0  0  0  0  0  0  0
   36.2360   30.1320   47.2690 C   0  0  0  0  0  0  0  0  0  0  0  0
   36.6420   30.5870   46.0650 C   0  0  0  0  0  0  0  0  0  0  0  0
   35.7900   30.5240   44.9850 C   0  0  0  0  0  0  0  0  0  0  0  0
   34.5220   29.9880   45.1640 C   0  0  0  0  0  0  0  0  0  0  0  0
   34.1670   29.5330   46.4470 C   0  0  0  0  0  0  0  0  0  0  0  0
   34.9890   29.5900   47.5070 C   0  0  0  0  0  0  0  0  0  0  0  0
   36.1410   30.9000   44.0150 H   0  0  0  0  0  0  0  0  0  0  0  0
   33.9350   29.9850   44.2580 H   0  0  0  0  0  0  0  0  0  0  0  0
   33.2000   29.1820   46.3680 H   0  0  0  0  0  0  0  0  0  0  0  0
   39.6070   32.7650   46.3620 C   0  0  0  0  0  0  0  0  0  0  0  0
   40.5080   32.1060   45.4600 C   0  0  0  0  0  0  0  0  0  0  0  0
   40.0580   30.9460   44.7940 C   0  0  0  0  0  0  0  0  0  0  0  0
   38.7960   30.5050   45.0320 N   0  0  0  0  0  0  0  0  0  0  0  0
   37.9710   31.1500   45.8880 C   0  0  0  0  0  0  0  0  0  0  0  0
   38.3810   32.2560   46.5330 N   0  0  0  0  0  0  0  0  0  0  0  0
   39.9920   33.6430   46.8470 H   0  0  0  0  0  0  0  0  0  0  0  0
   41.5010   32.4990   45.3080 H   0  0  0  0  0  0  0  0  0  0  0  0
   40.9670   30.3320   43.9230 N   0  0  0  0  0  0  0  0  0  0  0  0
   41.9200   30.0020   44.1620 H   0  0  0  0  0  0  0  0  0  0  0  0
   40.4870   30.2780   42.9950 H   0  0  0  0  0  0  0  0  0  0  0  0
   33.7050   27.9530   48.9130 C   0  0  0  0  0  0  0  0  0  0  0  0
   34.0600   27.1850   49.6580 H   0  0  0  0  0  0  0  0  0  0  0  0
   33.6870   27.4000   47.9360 H   0  0  0  0  0  0  0  0  0  0  0  0
   32.4320   28.3030   49.2720 O   0  0  0  0  0  0  0  0  0  0  0  0
   31.9740   26.7620   47.1950 O   0  0  0  0  0  0  0  0  0  0  0  0
   31.3130   27.5230   48.3160 P   0  0  2  0  0  0  0  0  0  0  0  0
   30.3020   28.7660   47.6550 O   0  0  0  0  0  0  0  0  0  0  0  0
   30.9850   30.8040   43.8040 H   0  0  0  0  0  0  0  0  0  0  0  0
   30.4630   30.0590   44.3320 N   0  0  0  0  0  0  0  0  0  0  0  0
   30.6830   29.8510   45.6600 C   0  0  0  0  0  3  0  0  0  0  0  0
   29.9690   28.8500   46.3280 C   0  0  0  0  0  0  0  0  0  0  0  0
   29.0730   28.1230   45.5980 C   0  0  0  0  0  0  0  0  0  0  0  0
   28.4670   27.2420   46.2580 O   0  0  0  0  0  0  0  0  0  0  0  0
   28.8600   28.3310   44.2930 N   0  0  0  0  0  0  0  0  0  0  0  0
   29.5600   29.3050   43.6560 C   0  0  0  0  0  0  0  0  0  0  0  0
   29.3330   29.4700   42.4310 O   0  0  0  0  0  0  0  0  0  0  0  0
   28.1630   27.7450   43.7800 H   0  0  0  0  0  0  0  0  0  0  0  0
   30.3070   26.5180   49.1590 O   0  0  0  0  0  0  0  0  0  0  0  0
   29.4790   27.2360   49.9940 C   0  0  0  0  0  0  0  0  0  0  0  0
   29.1870   26.5500   51.1710 F   0  0  0  0  0  0  0  0  0  0  0  0
   30.0590   28.4210   50.3940 F   0  0  0  0  0  0  0  0  0  0  0  0
   28.2790   27.5040   49.3410 F   0  0  0  0  0  0  0  0  0  0  0  0
  1 25  1  0  0  0  0
  1  3  1  0  0  0  0
  1  2  1  0  0  0  0
  5 10  1  0  0  0  0
  5  4  1  0  0  0  0
  6  5  2  0  0  0  0
  7  8  2  0  0  0  0
  7  6  1  0  0  0  0
  8  9  1  0  0  0  0
  9 10  2  0  0  0  0
 10  1  1  0  0  0  0
 11  7  1  0  0  0  0
 12  8  1  0  0  0  0
 13  9  1  0  0  0  0
 14 19  1  0  0  0  0
 14 20  1  0  0  0  0
 15 14  2  0  0  0  0
 16 17  2  0  0  0  0
 16 15  1  0  0  0  0
 17 18  1  0  0  0  0
 18  6  1  0  0  0  0
 18 19  2  0  0  0  0
 21 15  1  0  0  0  0
 22 23  1  0  0  0  0
 22 16  1  0  0  0  0
 24 22  1  0  0  0  0
 25 28  1  0  0  0  0
 25 26  1  0  0  0  0
 27 25  1  0  0  0  0
 30 29  2  6  0  0  0
 30 42  1  0  0  0  0
 30 28  1  0  0  0  0
 31 30  1  0  0  0  0
 32 33  1  0  0  0  0
 33 34  1  0  0  0  0
 34 35  2  0  0  0  0
 35 31  1  0  0  0  0
 36 37  2  0  0  0  0
 36 35  1  0  0  0  0
 38 36  1  0  0  0  0
 39 38  1  0  0  0  0
 39 33  1  0  0  0  0
 40 39  2  0  0  0  0
 41 38  1  0  0  0  0
 42 43  1  0  0  0  0
 43 45  1  0  0  0  0
 43 44  1  0  0  0  0
 46 43  1  0  0  0  0
M  END
>  <minimizedAffinity>
-5.71291447

>  <minimizedRMSD>
0.754606903

$$$$
