
 OpenBabel03272508293D

 39 42  0  0  1  0  0  0  0  0999 V2000
   37.1330   26.1560   34.4550 C   0  0  2  0  0  0  0  0  0  0  0  0
   37.4110   27.6540   34.4410 C   0  0  2  0  0  0  0  0  0  0  0  0
   37.8750   27.9510   35.6950 O   0  0  0  0  0  0  0  0  0  0  0  0
   38.4090   26.8440   36.2910 C   0  0  0  0  0  0  0  0  0  0  0  0
   38.3240   25.6930   35.3050 C   0  0  1  0  0  0  0  0  0  0  0  0
   36.2340   25.8830   35.0190 H   0  0  0  0  0  0  0  0  0  0  0  0
   38.1750   27.8010   33.6550 H   0  0  0  0  0  0  0  0  0  0  0  0
   37.8210   26.6390   37.2150 H   0  0  0  0  0  0  0  0  0  0  0  0
   39.4710   27.0810   36.5350 H   0  0  0  0  0  0  0  0  0  0  0  0
   39.2140   25.7430   34.6670 H   0  0  0  0  0  0  0  0  0  0  0  0
   35.8710   29.7350   34.4390 C   0  0  1  0  0  0  0  0  0  0  0  0
   36.1150   28.3400   34.1560 C   0  0  1  0  0  0  0  0  0  0  0  0
   35.9490   29.2480   32.9810 C   0  0  0  0  0  0  0  0  0  0  0  0
   36.6080   30.5330   34.6320 H   0  0  0  0  0  0  0  0  0  0  0  0
   35.2300   27.6580   34.3230 H   0  0  0  0  0  0  0  0  0  0  0  0
   35.0260   29.2210   32.3800 H   0  0  0  0  0  0  0  0  0  0  0  0
   36.8770   29.4820   32.4270 H   0  0  0  0  0  0  0  0  0  0  0  0
   34.4730   30.2240   34.7940 C   0  0  0  0  0  0  0  0  0  0  0  0
   34.3320   31.5840   35.0810 C   0  0  0  0  0  0  0  0  0  0  0  0
   33.0440   31.9740   35.4210 C   0  0  0  0  0  0  0  0  0  0  0  0
   32.0160   31.0720   35.4640 N   0  0  0  0  0  0  0  0  0  0  0  0
   32.2070   29.7590   35.1760 C   0  0  0  0  0  0  0  0  0  0  0  0
   33.4500   29.3300   34.8370 N   0  0  0  0  0  0  0  0  0  0  0  0
   35.1720   32.2380   35.0300 H   0  0  0  0  0  0  0  0  0  0  0  0
   32.8770   33.0180   35.6530 H   0  0  0  0  0  0  0  0  0  0  0  0
   31.3650   29.0970   35.2260 H   0  0  0  0  0  0  0  0  0  0  0  0
   37.1470   25.5710   33.2110 O   0  0  0  0  0  0  0  0  0  0  0  0
   37.5740   26.1050   32.4960 H   0  0  0  0  0  0  0  0  0  0  0  0
   38.1070   24.4820   35.8830 O   0  0  0  0  0  0  0  0  0  0  0  0
   41.7910   21.9230   35.3730 H   0  0  0  0  0  0  0  0  0  0  0  0
   41.0490   22.2440   36.0610 N   0  0  0  0  0  0  0  0  0  0  0  0
   40.1860   23.0810   35.4620 C   0  0  0  0  0  3  0  0  0  0  0  0
   39.1410   23.6150   36.1850 C   0  0  0  0  0  0  0  0  0  0  0  0
   39.0310   23.2470   37.5330 C   0  0  0  0  0  0  0  0  0  0  0  0
   38.1660   23.6080   38.3740 O   0  0  0  0  0  0  0  0  0  0  0  0
   39.9330   22.3930   38.0950 N   0  0  0  0  0  0  0  0  0  0  0  0
   40.9390   21.8940   37.3540 C   0  0  0  0  0  0  0  0  0  0  0  0
   41.8300   21.1010   37.7560 O   0  0  0  0  0  0  0  0  0  0  0  0
   39.9230   22.0710   39.0840 H   0  0  0  0  0  0  0  0  0  0  0  0
  1  6  1  1  0  0  0
  1  5  1  0  0  0  0
  2  7  1  6  0  0  0
  2  1  1  0  0  0  0
  2  3  1  0  0  0  0
  3  4  1  0  0  0  0
  4  9  1  0  0  0  0
  4  8  1  0  0  0  0
  5 10  1  6  0  0  0
  5 29  1  0  0  0  0
  5  4  1  0  0  0  0
 11 14  1  1  0  0  0
 11 18  1  0  0  0  0
 12 15  1  1  0  0  0
 12 11  1  0  0  0  0
 12  2  1  0  0  0  0
 13 12  1  0  0  0  0
 13 11  1  0  0  0  0
 16 13  1  0  0  0  0
 17 13  1  0  0  0  0
 18 23  2  0  0  0  0
 18 19  1  0  0  0  0
 19 20  2  0  0  0  0
 20 21  1  0  0  0  0
 20 25  1  0  0  0  0
 22 26  1  0  0  0  0
 22 21  2  0  0  0  0
 23 22  1  0  0  0  0
 24 19  1  0  0  0  0
 27  1  1  0  0  0  0
 28 27  1  0  0  0  0
 29 33  1  0  0  0  0
 30 31  1  0  0  0  0
 31 37  1  0  0  0  0
 32 31  1  0  0  0  0
 32 33  2  0  0  0  0
 33 34  1  0  0  0  0
 34 36  1  0  0  0  0
 34 35  2  0  0  0  0
 36 39  1  0  0  0  0
 37 38  2  0  0  0  0
 37 36  1  0  0  0  0
M  END
>  <minimizedAffinity>
-6.00193644

$$$$

 OpenBabel03272508293D

 39 42  0  0  1  0  0  0  0  0999 V2000
   37.5760   25.8670   33.9860 C   0  0  2  0  0  0  0  0  0  0  0  0
   37.6620   27.3660   33.7300 C   0  0  2  0  0  0  0  0  0  0  0  0
   37.6850   27.9470   34.9700 O   0  0  0  0  0  0  0  0  0  0  0  0
   38.1420   27.0690   35.9100 C   0  0  0  0  0  0  0  0  0  0  0  0
   38.4990   25.7730   35.2070 C   0  0  1  0  0  0  0  0  0  0  0  0
   36.5880   25.5370   34.3260 H   0  0  0  0  0  0  0  0  0  0  0  0
   38.6060   27.5120   33.1710 H   0  0  0  0  0  0  0  0  0  0  0  0
   37.3300   26.9210   36.6590 H   0  0  0  0  0  0  0  0  0  0  0  0
   39.0440   27.5280   36.3800 H   0  0  0  0  0  0  0  0  0  0  0  0
   39.5280   25.8720   34.8420 H   0  0  0  0  0  0  0  0  0  0  0  0
   36.2480   29.0590   32.3740 C   0  0  1  0  0  0  0  0  0  0  0  0
   36.4420   27.7540   32.9610 C   0  0  1  0  0  0  0  0  0  0  0  0
   36.4440   27.8300   31.4690 C   0  0  0  0  0  0  0  0  0  0  0  0
   37.0050   29.8340   32.1630 H   0  0  0  0  0  0  0  0  0  0  0  0
   35.5080   27.2780   33.3840 H   0  0  0  0  0  0  0  0  0  0  0  0
   35.5860   27.4560   30.8880 H   0  0  0  0  0  0  0  0  0  0  0  0
   37.4340   27.7170   30.9890 H   0  0  0  0  0  0  0  0  0  0  0  0
   34.8510   29.6480   32.2290 C   0  0  0  0  0  0  0  0  0  0  0  0
   34.7090   30.7360   31.3640 C   0  0  0  0  0  0  0  0  0  0  0  0
   33.4220   31.2500   31.2850 C   0  0  0  0  0  0  0  0  0  0  0  0
   32.3950   30.7090   32.0110 N   0  0  0  0  0  0  0  0  0  0  0  0
   32.5870   29.6510   32.8380 C   0  0  0  0  0  0  0  0  0  0  0  0
   33.8290   29.1130   32.9490 N   0  0  0  0  0  0  0  0  0  0  0  0
   35.5490   31.1120   30.8260 H   0  0  0  0  0  0  0  0  0  0  0  0
   33.2550   32.0940   30.6290 H   0  0  0  0  0  0  0  0  0  0  0  0
   31.7460   29.2690   33.3830 H   0  0  0  0  0  0  0  0  0  0  0  0
   38.0370   25.0930   32.9470 O   0  0  0  0  0  0  0  0  0  0  0  0
   38.5940   25.5660   32.2800 H   0  0  0  0  0  0  0  0  0  0  0  0
   38.2650   24.6560   35.9470 O   0  0  0  0  0  0  0  0  0  0  0  0
   41.9330   22.0700   35.4650 H   0  0  0  0  0  0  0  0  0  0  0  0
   41.1530   22.3490   36.1270 N   0  0  0  0  0  0  0  0  0  0  0  0
   40.3450   23.2510   35.5460 C   0  0  0  0  0  3  0  0  0  0  0  0
   39.2630   23.7460   36.2420 C   0  0  0  0  0  0  0  0  0  0  0  0
   39.0590   23.2720   37.5450 C   0  0  0  0  0  0  0  0  0  0  0  0
   38.1470   23.5810   38.3560 O   0  0  0  0  0  0  0  0  0  0  0  0
   39.9090   22.3550   38.0910 N   0  0  0  0  0  0  0  0  0  0  0  0
   40.9530   21.8970   37.3780 C   0  0  0  0  0  0  0  0  0  0  0  0
   41.8030   21.0560   37.7690 O   0  0  0  0  0  0  0  0  0  0  0  0
   39.8280   21.9540   39.0480 H   0  0  0  0  0  0  0  0  0  0  0  0
  1  6  1  1  0  0  0
  1  5  1  0  0  0  0
  2  7  1  6  0  0  0
  2  1  1  0  0  0  0
  2  3  1  0  0  0  0
  3  4  1  0  0  0  0
  4  9  1  0  0  0  0
  4  8  1  0  0  0  0
  5 10  1  6  0  0  0
  5  4  1  0  0  0  0
  5 29  1  0  0  0  0
 11 14  1  1  0  0  0
 11 12  1  0  0  0  0
 12 15  1  1  0  0  0
 12  2  1  0  0  0  0
 13 11  1  0  0  0  0
 13 12  1  0  0  0  0
 16 13  1  0  0  0  0
 17 13  1  0  0  0  0
 18 11  1  0  0  0  0
 18 23  1  0  0  0  0
 19 18  2  0  0  0  0
 20 19  1  0  0  0  0
 20 21  2  0  0  0  0
 21 22  1  0  0  0  0
 22 23  2  0  0  0  0
 22 26  1  0  0  0  0
 24 19  1  0  0  0  0
 25 20  1  0  0  0  0
 27  1  1  0  0  0  0
 28 27  1  0  0  0  0
 29 33  1  0  0  0  0
 30 31  1  0  0  0  0
 31 37  1  0  0  0  0
 32 31  1  0  0  0  0
 32 33  2  0  0  0  0
 33 34  1  0  0  0  0
 34 36  1  0  0  0  0
 34 35  2  0  0  0  0
 36 39  1  0  0  0  0
 37 38  2  0  0  0  0
 37 36  1  0  0  0  0
M  END
>  <minimizedAffinity>
-5.9193635

$$$$

 OpenBabel03272508293D

 39 42  0  0  1  0  0  0  0  0999 V2000
   39.0130   23.9000   35.1150 C   0  0  2  0  0  0  0  0  0  0  0  0
   38.7830   25.0690   36.0650 C   0  0  2  0  0  0  0  0  0  0  0  0
   37.6260   24.7730   36.7350 O   0  0  0  0  0  0  0  0  0  0  0  0
   37.3970   23.4270   36.7380 C   0  0  0  0  0  0  0  0  0  0  0  0
   38.5530   22.7520   36.0230 C   0  0  1  0  0  0  0  0  0  0  0  0
   38.3350   23.8970   34.2540 H   0  0  0  0  0  0  0  0  0  0  0  0
   39.6690   25.0860   36.7270 H   0  0  0  0  0  0  0  0  0  0  0  0
   36.4290   23.2460   36.2170 H   0  0  0  0  0  0  0  0  0  0  0  0
   37.3460   23.1030   37.8040 H   0  0  0  0  0  0  0  0  0  0  0  0
   39.3450   22.5900   36.7630 H   0  0  0  0  0  0  0  0  0  0  0  0
   37.3630   26.8040   34.7690 C   0  0  1  0  0  0  0  0  0  0  0  0
   38.6350   26.2970   35.2260 C   0  0  1  0  0  0  0  0  0  0  0  0
   38.1770   27.5950   35.8070 C   0  0  0  0  0  0  0  0  0  0  0  0
   36.3550   26.5670   35.1500 H   0  0  0  0  0  0  0  0  0  0  0  0
   39.4860   26.4100   34.4920 H   0  0  0  0  0  0  0  0  0  0  0  0
   38.6510   28.5420   35.5020 H   0  0  0  0  0  0  0  0  0  0  0  0
   37.8270   27.5480   36.8560 H   0  0  0  0  0  0  0  0  0  0  0  0
   37.2530   27.5560   33.4490 C   0  0  0  0  0  0  0  0  0  0  0  0
   36.2010   28.4660   33.3240 C   0  0  0  0  0  0  0  0  0  0  0  0
   36.1320   29.1070   32.0950 C   0  0  0  0  0  0  0  0  0  0  0  0
   37.0390   28.8440   31.1040 N   0  0  0  0  0  0  0  0  0  0  0  0
   38.0440   27.9480   31.2770 C   0  0  0  0  0  0  0  0  0  0  0  0
   38.1520   27.2960   32.4630 N   0  0  0  0  0  0  0  0  0  0  0  0
   35.5270   28.6280   34.1340 H   0  0  0  0  0  0  0  0  0  0  0  0
   35.3360   29.8240   31.9440 H   0  0  0  0  0  0  0  0  0  0  0  0
   38.7250   27.7820   30.4650 H   0  0  0  0  0  0  0  0  0  0  0  0
   40.3230   23.7410   34.7280 O   0  0  0  0  0  0  0  0  0  0  0  0
   40.9900   24.2150   35.2850 H   0  0  0  0  0  0  0  0  0  0  0  0
   38.2000   21.6450   35.3170 O   0  0  0  0  0  0  0  0  0  0  0  0
   37.6000   22.5240   30.9300 H   0  0  0  0  0  0  0  0  0  0  0  0
   37.1450   22.1280   31.8020 N   0  0  0  0  0  0  0  0  0  0  0  0
   37.9920   22.1910   32.8430 C   0  0  0  0  0  3  0  0  0  0  0  0
   37.5940   21.7250   34.0770 C   0  0  0  0  0  0  0  0  0  0  0  0
   36.2990   21.1980   34.1830 C   0  0  0  0  0  0  0  0  0  0  0  0
   35.7290   20.7210   35.2000 O   0  0  0  0  0  0  0  0  0  0  0  0
   35.4760   21.1560   33.0960 N   0  0  0  0  0  0  0  0  0  0  0  0
   35.9040   21.6220   31.9090 C   0  0  0  0  0  0  0  0  0  0  0  0
   35.2420   21.6370   30.8390 O   0  0  0  0  0  0  0  0  0  0  0  0
   34.5050   20.7830   33.0900 H   0  0  0  0  0  0  0  0  0  0  0  0
  1  6  1  6  0  0  0
  1  5  1  0  0  0  0
  1  2  1  0  0  0  0
  2  7  1  1  0  0  0
  2  3  1  0  0  0  0
  3  4  1  0  0  0  0
  4  9  1  0  0  0  0
  5  4  1  0  0  0  0
  5 10  1  1  0  0  0
  8  4  1  0  0  0  0
 11 14  1  1  0  0  0
 11 12  1  0  0  0  0
 11 13  1  0  0  0  0
 12 15  1  6  0  0  0
 12 13  1  0  0  0  0
 12  2  1  0  0  0  0
 13 17  1  0  0  0  0
 16 13  1  0  0  0  0
 18 11  1  0  0  0  0
 19 18  1  0  0  0  0
 19 24  1  0  0  0  0
 20 19  2  0  0  0  0
 21 22  2  0  0  0  0
 21 20  1  0  0  0  0
 22 23  1  0  0  0  0
 23 18  2  0  0  0  0
 25 20  1  0  0  0  0
 26 22  1  0  0  0  0
 27  1  1  0  0  0  0
 27 28  1  0  0  0  0
 29  5  1  0  0  0  0
 30 31  1  0  0  0  0
 31 37  1  0  0  0  0
 31 32  1  0  0  0  0
 32 33  2  0  0  0  0
 33 34  1  0  0  0  0
 33 29  1  0  0  0  0
 34 35  2  0  0  0  0
 36 34  1  0  0  0  0
 37 36  1  0  0  0  0
 38 37  2  0  0  0  0
 39 36  1  0  0  0  0
M  END
>  <minimizedAffinity>
-5.42691374

$$$$

 OpenBabel03272508293D

 39 42  0  0  1  0  0  0  0  0999 V2000
   37.8410   26.4700   32.8150 C   0  0  2  0  0  0  0  0  0  0  0  0
   39.0830   27.1650   33.3600 C   0  0  2  0  0  0  0  0  0  0  0  0
   40.0370   27.0240   32.3880 O   0  0  0  0  0  0  0  0  0  0  0  0
   39.4600   26.8280   31.1660 C   0  0  0  0  0  0  0  0  0  0  0  0
   37.9540   26.8850   31.3420 C   0  0  1  0  0  0  0  0  0  0  0  0
   37.9110   25.3760   32.8280 H   0  0  0  0  0  0  0  0  0  0  0  0
   38.7820   28.2180   33.5160 H   0  0  0  0  0  0  0  0  0  0  0  0
   39.7930   25.8340   30.7890 H   0  0  0  0  0  0  0  0  0  0  0  0
   39.8140   27.6490   30.4990 H   0  0  0  0  0  0  0  0  0  0  0  0
   37.6580   27.9390   31.2810 H   0  0  0  0  0  0  0  0  0  0  0  0
   39.5190   25.0190   34.7420 C   0  0  1  0  0  0  0  0  0  0  0  0
   39.4680   26.4570   34.6180 C   0  0  1  0  0  0  0  0  0  0  0  0
   40.8190   25.8420   34.7910 C   0  0  0  0  0  0  0  0  0  0  0  0
   39.5560   24.2640   33.9390 H   0  0  0  0  0  0  0  0  0  0  0  0
   39.1040   27.0030   35.5370 H   0  0  0  0  0  0  0  0  0  0  0  0
   41.3550   25.9320   35.7490 H   0  0  0  0  0  0  0  0  0  0  0  0
   41.4530   25.8260   33.8850 H   0  0  0  0  0  0  0  0  0  0  0  0
   39.2320   24.3430   36.0760 C   0  0  0  0  0  0  0  0  0  0  0  0
   38.1670   24.8480   36.8260 C   0  0  0  0  0  0  0  0  0  0  0  0
   37.9610   24.2120   38.0420 C   0  0  0  0  0  0  0  0  0  0  0  0
   38.7580   23.1750   38.4460 N   0  0  0  0  0  0  0  0  0  0  0  0
   39.7810   22.7220   37.6790 C   0  0  0  0  0  0  0  0  0  0  0  0
   40.0210   23.3120   36.4790 N   0  0  0  0  0  0  0  0  0  0  0  0
   37.5820   25.6590   36.4570 H   0  0  0  0  0  0  0  0  0  0  0  0
   37.1480   24.5640   38.6640 H   0  0  0  0  0  0  0  0  0  0  0  0
   40.3730   21.9060   38.0450 H   0  0  0  0  0  0  0  0  0  0  0  0
   36.6630   26.9090   33.3710 O   0  0  0  0  0  0  0  0  0  0  0  0
   36.7170   27.7710   33.8530 H   0  0  0  0  0  0  0  0  0  0  0  0
   37.2650   26.0530   30.5160 O   0  0  0  0  0  0  0  0  0  0  0  0
   38.5870   21.7440   30.7660 H   0  0  0  0  0  0  0  0  0  0  0  0
   37.7690   22.4060   30.8960 N   0  0  0  0  0  0  0  0  0  0  0  0
   38.1370   23.6670   30.6160 C   0  0  0  0  0  3  0  0  0  0  0  0
   37.2160   24.6870   30.7230 C   0  0  0  0  0  0  0  0  0  0  0  0
   35.9170   24.3470   31.1250 C   0  0  0  0  0  0  0  0  0  0  0  0
   34.9250   25.1050   31.2880 O   0  0  0  0  0  0  0  0  0  0  0  0
   35.5920   23.0500   31.3970 N   0  0  0  0  0  0  0  0  0  0  0  0
   36.5210   22.0850   31.2810 C   0  0  0  0  0  0  0  0  0  0  0  0
   36.3440   20.8590   31.5030 O   0  0  0  0  0  0  0  0  0  0  0  0
   34.6550   22.7150   31.7000 H   0  0  0  0  0  0  0  0  0  0  0  0
  1  6  1  1  0  0  0
  1  2  1  0  0  0  0
  1 27  1  0  0  0  0
  2  7  1  1  0  0  0
  2 12  1  0  0  0  0
  3  2  1  0  0  0  0
  4  5  1  0  0  0  0
  4  3  1  0  0  0  0
  5 10  1  6  0  0  0
  5  1  1  0  0  0  0
  8  4  1  0  0  0  0
  9  4  1  0  0  0  0
 11 14  1  6  0  0  0
 11 13  1  0  0  0  0
 11 18  1  0  0  0  0
 12 11  1  0  0  0  0
 12 13  1  0  0  0  0
 12 15  1  1  0  0  0
 13 16  1  0  0  0  0
 17 13  1  0  0  0  0
 18 23  2  0  0  0  0
 18 19  1  0  0  0  0
 19 20  2  0  0  0  0
 20 21  1  0  0  0  0
 20 25  1  0  0  0  0
 22 26  1  0  0  0  0
 22 21  2  0  0  0  0
 23 22  1  0  0  0  0
 24 19  1  0  0  0  0
 27 28  1  0  0  0  0
 29 33  1  0  0  0  0
 29  5  1  0  0  0  0
 30 31  1  0  0  0  0
 31 37  1  0  0  0  0
 32 33  2  0  0  0  0
 32 31  1  0  0  0  0
 33 34  1  0  0  0  0
 34 35  2  0  0  0  0
 34 36  1  0  0  0  0
 36 39  1  0  0  0  0
 37 36  1  0  0  0  0
 37 38  2  0  0  0  0
M  END
>  <minimizedAffinity>
-5.33537245

$$$$

 OpenBabel03272508293D

 39 42  0  0  1  0  0  0  0  0999 V2000
   38.4720   25.6090   32.1330 C   0  0  2  0  0  0  0  0  0  0  0  0
   37.3540   25.9380   31.1510 C   0  0  2  0  0  0  0  0  0  0  0  0
   36.5630   26.8530   31.7930 O   0  0  0  0  0  0  0  0  0  0  0  0
   37.2670   27.5130   32.7590 C   0  0  0  0  0  0  0  0  0  0  0  0
   38.6970   27.0050   32.7270 C   0  0  1  0  0  0  0  0  0  0  0  0
   38.1490   24.9730   32.9650 H   0  0  0  0  0  0  0  0  0  0  0  0
   37.8610   26.3590   30.2630 H   0  0  0  0  0  0  0  0  0  0  0  0
   36.7780   27.3040   33.7380 H   0  0  0  0  0  0  0  0  0  0  0  0
   37.2260   28.6000   32.5130 H   0  0  0  0  0  0  0  0  0  0  0  0
   39.2350   27.5930   31.9740 H   0  0  0  0  0  0  0  0  0  0  0  0
   36.1820   23.7580   31.9110 C   0  0  1  0  0  0  0  0  0  0  0  0
   36.6180   24.6670   30.8780 C   0  0  1  0  0  0  0  0  0  0  0  0
   35.1450   24.5510   31.0970 C   0  0  0  0  0  0  0  0  0  0  0  0
   36.0730   23.9520   32.9920 H   0  0  0  0  0  0  0  0  0  0  0  0
   36.9690   24.1730   29.9250 H   0  0  0  0  0  0  0  0  0  0  0  0
   34.5120   24.0110   30.3740 H   0  0  0  0  0  0  0  0  0  0  0  0
   34.6690   25.4130   31.6010 H   0  0  0  0  0  0  0  0  0  0  0  0
   36.0860   22.2620   31.6420 C   0  0  0  0  0  0  0  0  0  0  0  0
   35.0510   21.5700   32.2770 C   0  0  0  0  0  0  0  0  0  0  0  0
   35.0210   20.2070   32.0170 C   0  0  0  0  0  0  0  0  0  0  0  0
   35.9470   19.6180   31.1990 N   0  0  0  0  0  0  0  0  0  0  0  0
   36.9340   20.3370   30.6060 C   0  0  0  0  0  0  0  0  0  0  0  0
   37.0040   21.6750   30.8300 N   0  0  0  0  0  0  0  0  0  0  0  0
   34.3600   22.0860   32.9030 H   0  0  0  0  0  0  0  0  0  0  0  0
   34.2390   19.6220   32.4840 H   0  0  0  0  0  0  0  0  0  0  0  0
   37.6320   19.8240   29.9750 H   0  0  0  0  0  0  0  0  0  0  0  0
   39.6140   25.1250   31.5400 O   0  0  0  0  0  0  0  0  0  0  0  0
   39.6850   25.2810   30.5660 H   0  0  0  0  0  0  0  0  0  0  0  0
   39.2970   26.9580   33.9460 O   0  0  0  0  0  0  0  0  0  0  0  0
   36.9360   24.7520   37.0980 H   0  0  0  0  0  0  0  0  0  0  0  0
   37.8420   24.7640   36.5470 N   0  0  0  0  0  0  0  0  0  0  0  0
   37.8670   25.8110   35.7070 C   0  0  0  0  0  3  0  0  0  0  0  0
   38.9630   26.0100   34.8940 C   0  0  0  0  0  0  0  0  0  0  0  0
   40.0150   25.0890   34.9910 C   0  0  0  0  0  0  0  0  0  0  0  0
   41.1010   25.0730   34.3540 O   0  0  0  0  0  0  0  0  0  0  0  0
   39.9430   24.0410   35.8610 N   0  0  0  0  0  0  0  0  0  0  0  0
   38.8550   23.8840   36.6360 C   0  0  0  0  0  0  0  0  0  0  0  0
   38.6710   22.9620   37.4730 O   0  0  0  0  0  0  0  0  0  0  0  0
   40.6770   23.3160   35.9930 H   0  0  0  0  0  0  0  0  0  0  0  0
  1  5  1  0  0  0  0
  1  6  1  1  0  0  0
  2  7  1  6  0  0  0
  2  3  1  0  0  0  0
  2  1  1  0  0  0  0
  3  4  1  0  0  0  0
  4  8  1  0  0  0  0
  5 10  1  6  0  0  0
  5  4  1  0  0  0  0
  5 29  1  0  0  0  0
  9  4  1  0  0  0  0
 11 14  1  1  0  0  0
 12 15  1  6  0  0  0
 12 13  1  0  0  0  0
 12  2  1  0  0  0  0
 12 11  1  0  0  0  0
 13 17  1  0  0  0  0
 13 11  1  0  0  0  0
 16 13  1  0  0  0  0
 18 11  1  0  0  0  0
 18 19  1  0  0  0  0
 19 24  1  0  0  0  0
 20 19  2  0  0  0  0
 20 25  1  0  0  0  0
 21 20  1  0  0  0  0
 22 23  1  0  0  0  0
 22 21  2  0  0  0  0
 23 18  2  0  0  0  0
 26 22  1  0  0  0  0
 27  1  1  0  0  0  0
 28 27  1  0  0  0  0
 29 33  1  0  0  0  0
 31 37  1  0  0  0  0
 31 30  1  0  0  0  0
 32 31  1  0  0  0  0
 33 34  1  0  0  0  0
 33 32  2  0  0  0  0
 34 36  1  0  0  0  0
 35 34  2  0  0  0  0
 36 39  1  0  0  0  0
 36 37  1  0  0  0  0
 37 38  2  0  0  0  0
M  END
>  <minimizedAffinity>
-5.32217216

$$$$

 OpenBabel03272508293D

 39 42  0  0  1  0  0  0  0  0999 V2000
   38.1060   25.3700   34.6970 C   0  0  2  0  0  0  0  0  0  0  0  0
   37.5060   25.2080   33.3050 C   0  0  2  0  0  0  0  0  0  0  0  0
   38.5480   24.8280   32.5010 O   0  0  0  0  0  0  0  0  0  0  0  0
   39.5390   24.2410   33.2340 C   0  0  0  0  0  0  0  0  0  0  0  0
   39.0860   24.1900   34.6810 C   0  0  1  0  0  0  0  0  0  0  0  0
   38.7190   26.2720   34.8060 H   0  0  0  0  0  0  0  0  0  0  0  0
   36.7370   24.4200   33.4100 H   0  0  0  0  0  0  0  0  0  0  0  0
   40.4600   24.8550   33.1130 H   0  0  0  0  0  0  0  0  0  0  0  0
   39.6850   23.2120   32.8270 H   0  0  0  0  0  0  0  0  0  0  0  0
   38.4920   23.2770   34.8060 H   0  0  0  0  0  0  0  0  0  0  0  0
   36.9870   27.7040   33.7530 C   0  0  1  0  0  0  0  0  0  0  0  0
   36.9560   26.5370   32.9040 C   0  0  1  0  0  0  0  0  0  0  0  0
   37.8450   27.6590   32.4770 C   0  0  0  0  0  0  0  0  0  0  0  0
   37.6100   27.8850   34.6460 H   0  0  0  0  0  0  0  0  0  0  0  0
   36.0270   26.4350   32.2680 H   0  0  0  0  0  0  0  0  0  0  0  0
   37.5650   28.3010   31.6260 H   0  0  0  0  0  0  0  0  0  0  0  0
   38.9290   27.4840   32.6100 H   0  0  0  0  0  0  0  0  0  0  0  0
   35.8970   28.7640   33.6610 C   0  0  0  0  0  0  0  0  0  0  0  0
   35.8720   29.7370   34.6640 C   0  0  0  0  0  0  0  0  0  0  0  0
   34.8460   30.6640   34.5470 C   0  0  0  0  0  0  0  0  0  0  0  0
   33.9450   30.6020   33.5180 N   0  0  0  0  0  0  0  0  0  0  0  0
   34.0130   29.6350   32.5690 C   0  0  0  0  0  0  0  0  0  0  0  0
   35.0000   28.7040   32.6410 N   0  0  0  0  0  0  0  0  0  0  0  0
   36.6030   29.7320   35.4400 H   0  0  0  0  0  0  0  0  0  0  0  0
   34.7810   31.4410   35.2970 H   0  0  0  0  0  0  0  0  0  0  0  0
   33.2800   29.6340   31.7860 H   0  0  0  0  0  0  0  0  0  0  0  0
   37.1930   25.2520   35.7180 O   0  0  0  0  0  0  0  0  0  0  0  0
   36.3310   24.8330   35.4710 H   0  0  0  0  0  0  0  0  0  0  0  0
   40.0910   24.3410   35.5840 O   0  0  0  0  0  0  0  0  0  0  0  0
   43.4640   21.3420   35.6890 H   0  0  0  0  0  0  0  0  0  0  0  0
   42.5720   21.6580   36.1690 N   0  0  0  0  0  0  0  0  0  0  0  0
   42.0430   22.7130   35.5290 C   0  0  0  0  0  3  0  0  0  0  0  0
   40.8760   23.2800   35.9950 C   0  0  0  0  0  0  0  0  0  0  0  0
   40.2920   22.7120   37.1360 C   0  0  0  0  0  0  0  0  0  0  0  0
   39.2380   23.0600   37.7300 O   0  0  0  0  0  0  0  0  0  0  0  0
   40.8680   21.6390   37.7510 N   0  0  0  0  0  0  0  0  0  0  0  0
   42.0080   21.1170   37.2630 C   0  0  0  0  0  0  0  0  0  0  0  0
   42.6320   20.1340   37.7390 O   0  0  0  0  0  0  0  0  0  0  0  0
   40.5000   21.1610   38.5980 H   0  0  0  0  0  0  0  0  0  0  0  0
  1  6  1  1  0  0  0
  1 27  1  0  0  0  0
  2  7  1  1  0  0  0
  2  1  1  0  0  0  0
  3  4  1  0  0  0  0
  3  2  1  0  0  0  0
  4  5  1  0  0  0  0
  5  1  1  0  0  0  0
  5 10  1  1  0  0  0
  5 29  1  0  0  0  0
  8  4  1  0  0  0  0
  9  4  1  0  0  0  0
 11 14  1  1  0  0  0
 12 15  1  6  0  0  0
 12  2  1  0  0  0  0
 12 11  1  0  0  0  0
 13 17  1  0  0  0  0
 13 12  1  0  0  0  0
 13 11  1  0  0  0  0
 16 13  1  0  0  0  0
 18 11  1  0  0  0  0
 18 19  1  0  0  0  0
 19 24  1  0  0  0  0
 20 19  2  0  0  0  0
 20 25  1  0  0  0  0
 21 20  1  0  0  0  0
 22 23  1  0  0  0  0
 22 21  2  0  0  0  0
 23 18  2  0  0  0  0
 26 22  1  0  0  0  0
 28 27  1  0  0  0  0
 29 33  1  0  0  0  0
 30 31  1  0  0  0  0
 31 37  1  0  0  0  0
 32 33  2  0  0  0  0
 32 31  1  0  0  0  0
 33 34  1  0  0  0  0
 34 35  2  0  0  0  0
 34 36  1  0  0  0  0
 36 39  1  0  0  0  0
 37 38  2  0  0  0  0
 37 36  1  0  0  0  0
M  END
>  <minimizedAffinity>
-5.27055788

$$$$

 OpenBabel03272508293D

 39 42  0  0  1  0  0  0  0  0999 V2000
   39.5590   25.0250   33.1990 C   0  0  2  0  0  0  0  0  0  0  0  0
   39.6180   26.4960   32.8090 C   0  0  2  0  0  0  0  0  0  0  0  0
   40.0540   27.1530   33.9290 O   0  0  0  0  0  0  0  0  0  0  0  0
   40.7490   26.3110   34.7480 C   0  0  0  0  0  0  0  0  0  0  0  0
   40.8160   24.9520   34.0760 C   0  0  1  0  0  0  0  0  0  0  0  0
   38.7170   24.7800   33.8560 H   0  0  0  0  0  0  0  0  0  0  0  0
   40.3430   26.5480   31.9740 H   0  0  0  0  0  0  0  0  0  0  0  0
   40.2100   26.2620   35.7220 H   0  0  0  0  0  0  0  0  0  0  0  0
   41.7700   26.7420   34.8750 H   0  0  0  0  0  0  0  0  0  0  0  0
   41.6810   24.9640   33.4020 H   0  0  0  0  0  0  0  0  0  0  0  0
   37.9360   28.0890   31.6530 C   0  0  1  0  0  0  0  0  0  0  0  0
   38.2330   26.9090   32.4310 C   0  0  1  0  0  0  0  0  0  0  0  0
   37.6980   26.6920   31.0530 C   0  0  0  0  0  0  0  0  0  0  0  0
   38.6180   28.6820   31.0220 H   0  0  0  0  0  0  0  0  0  0  0  0
   37.4860   26.6730   33.2440 H   0  0  0  0  0  0  0  0  0  0  0  0
   36.6620   26.3470   30.9040 H   0  0  0  0  0  0  0  0  0  0  0  0
   38.4350   26.3380   30.3080 H   0  0  0  0  0  0  0  0  0  0  0  0
   36.6290   28.8440   31.8550 C   0  0  0  0  0  0  0  0  0  0  0  0
   36.3060   29.8160   30.9040 C   0  0  0  0  0  0  0  0  0  0  0  0
   35.1180   30.4910   31.1460 C   0  0  0  0  0  0  0  0  0  0  0  0
   34.3460   30.2040   32.2390 N   0  0  0  0  0  0  0  0  0  0  0  0
   34.7060   29.2490   33.1340 C   0  0  0  0  0  0  0  0  0  0  0  0
   35.8610   28.5610   32.9400 N   0  0  0  0  0  0  0  0  0  0  0  0
   36.9490   29.9930   30.0730 H   0  0  0  0  0  0  0  0  0  0  0  0
   34.8190   31.2550   30.4390 H   0  0  0  0  0  0  0  0  0  0  0  0
   34.0630   29.0670   33.9730 H   0  0  0  0  0  0  0  0  0  0  0  0
   39.6390   24.1590   32.1340 O   0  0  0  0  0  0  0  0  0  0  0  0
   39.9750   24.5530   31.2910 H   0  0  0  0  0  0  0  0  0  0  0  0
   40.7840   23.9020   34.9390 O   0  0  0  0  0  0  0  0  0  0  0  0
   36.7810   24.2860   36.9910 H   0  0  0  0  0  0  0  0  0  0  0  0
   37.7600   23.8840   37.0720 N   0  0  0  0  0  0  0  0  0  0  0  0
   38.4850   24.1930   35.9850 C   0  0  0  0  0  3  0  0  0  0  0  0
   39.7920   23.7640   35.8920 C   0  0  0  0  0  0  0  0  0  0  0  0
   40.3040   23.0120   36.9590 C   0  0  0  0  0  0  0  0  0  0  0  0
   41.4570   22.5220   37.0870 O   0  0  0  0  0  0  0  0  0  0  0  0
   39.5260   22.7250   38.0420 N   0  0  0  0  0  0  0  0  0  0  0  0
   38.2560   23.1630   38.0930 C   0  0  0  0  0  0  0  0  0  0  0  0
   37.4430   22.9650   39.0330 O   0  0  0  0  0  0  0  0  0  0  0  0
   39.8290   22.1760   38.8720 H   0  0  0  0  0  0  0  0  0  0  0  0
  1  6  1  1  0  0  0
  1  5  1  0  0  0  0
  2  7  1  6  0  0  0
  2  1  1  0  0  0  0
  2  3  1  0  0  0  0
  3  4  1  0  0  0  0
  4  9  1  0  0  0  0
  4  8  1  0  0  0  0
  5 10  1  6  0  0  0
  5  4  1  0  0  0  0
  5 29  1  0  0  0  0
 11 14  1  6  0  0  0
 11 18  1  0  0  0  0
 11 12  1  0  0  0  0
 12  2  1  0  0  0  0
 12 15  1  1  0  0  0
 13 11  1  0  0  0  0
 13 12  1  0  0  0  0
 16 13  1  0  0  0  0
 17 13  1  0  0  0  0
 18 23  1  0  0  0  0
 19 20  1  0  0  0  0
 19 18  2  0  0  0  0
 20 21  2  0  0  0  0
 21 22  1  0  0  0  0
 22 26  1  0  0  0  0
 23 22  2  0  0  0  0
 24 19  1  0  0  0  0
 25 20  1  0  0  0  0
 27  1  1  0  0  0  0
 28 27  1  0  0  0  0
 29 33  1  0  0  0  0
 30 31  1  0  0  0  0
 31 37  1  0  0  0  0
 32 31  1  0  0  0  0
 33 32  2  0  0  0  0
 33 34  1  0  0  0  0
 34 35  2  0  0  0  0
 34 36  1  0  0  0  0
 36 37  1  0  0  0  0
 36 39  1  0  0  0  0
 37 38  2  0  0  0  0
M  END
>  <minimizedAffinity>
-5.21522427

$$$$

 OpenBabel03272508293D

 39 42  0  0  1  0  0  0  0  0999 V2000
   36.7300   27.5790   33.5440 C   0  0  2  0  0  0  0  0  0  0  0  0
   37.5220   27.3470   32.2630 C   0  0  2  0  0  0  0  0  0  0  0  0
   36.7460   27.8580   31.2570 O   0  0  0  0  0  0  0  0  0  0  0  0
   35.8830   28.8000   31.7380 C   0  0  0  0  0  0  0  0  0  0  0  0
   36.1440   28.9610   33.2240 C   0  0  1  0  0  0  0  0  0  0  0  0
   35.8730   26.9050   33.6570 H   0  0  0  0  0  0  0  0  0  0  0  0
   38.4670   27.9060   32.4000 H   0  0  0  0  0  0  0  0  0  0  0  0
   34.8460   28.4440   31.5380 H   0  0  0  0  0  0  0  0  0  0  0  0
   36.0940   29.7500   31.1920 H   0  0  0  0  0  0  0  0  0  0  0  0
   36.9560   29.6890   33.3360 H   0  0  0  0  0  0  0  0  0  0  0  0
   36.6920   24.9830   31.6140 C   0  0  1  0  0  0  0  0  0  0  0  0
   37.7100   25.8720   32.1210 C   0  0  1  0  0  0  0  0  0  0  0  0
   37.9690   25.2380   30.7940 C   0  0  0  0  0  0  0  0  0  0  0  0
   35.7890   25.2360   31.0330 H   0  0  0  0  0  0  0  0  0  0  0  0
   38.3450   25.4460   32.9530 H   0  0  0  0  0  0  0  0  0  0  0  0
   38.7090   24.4270   30.6960 H   0  0  0  0  0  0  0  0  0  0  0  0
   37.8740   25.9090   29.9200 H   0  0  0  0  0  0  0  0  0  0  0  0
   36.6110   23.5390   32.0930 C   0  0  0  0  0  0  0  0  0  0  0  0
   35.6320   22.7320   31.5090 C   0  0  0  0  0  0  0  0  0  0  0  0
   35.5840   21.4330   31.9970 C   0  0  0  0  0  0  0  0  0  0  0  0
   36.4430   21.0090   32.9750 N   0  0  0  0  0  0  0  0  0  0  0  0
   37.3770   21.8350   33.5100 C   0  0  0  0  0  0  0  0  0  0  0  0
   37.4620   23.1150   33.0650 N   0  0  0  0  0  0  0  0  0  0  0  0
   34.9920   23.1210   30.7500 H   0  0  0  0  0  0  0  0  0  0  0  0
   34.8440   20.7640   31.5780 H   0  0  0  0  0  0  0  0  0  0  0  0
   38.0230   21.4490   34.2740 H   0  0  0  0  0  0  0  0  0  0  0  0
   37.5010   27.6120   34.6820 O   0  0  0  0  0  0  0  0  0  0  0  0
   38.4710   27.7390   34.5340 H   0  0  0  0  0  0  0  0  0  0  0  0
   35.0320   29.2330   33.9580 O   0  0  0  0  0  0  0  0  0  0  0  0
   36.4880   32.3360   36.8960 H   0  0  0  0  0  0  0  0  0  0  0  0
   35.6270   31.8770   36.4780 N   0  0  0  0  0  0  0  0  0  0  0  0
   35.9830   30.9470   35.5770 C   0  0  0  0  0  3  0  0  0  0  0  0
   35.0090   30.2300   34.9150 C   0  0  0  0  0  0  0  0  0  0  0  0
   33.6720   30.5180   35.2230 C   0  0  0  0  0  0  0  0  0  0  0  0
   32.6300   29.9940   34.7470 O   0  0  0  0  0  0  0  0  0  0  0  0
   33.3620   31.4720   36.1460 N   0  0  0  0  0  0  0  0  0  0  0  0
   34.3430   32.1480   36.7700 C   0  0  0  0  0  0  0  0  0  0  0  0
   34.1850   33.0480   37.6360 O   0  0  0  0  0  0  0  0  0  0  0  0
   32.3990   31.7450   36.4310 H   0  0  0  0  0  0  0  0  0  0  0  0
  1  6  1  1  0  0  0
  1 27  1  0  0  0  0
  2  7  1  1  0  0  0
  2  1  1  0  0  0  0
  3  4  1  0  0  0  0
  3  2  1  0  0  0  0
  4  5  1  0  0  0  0
  5 10  1  1  0  0  0
  5  1  1  0  0  0  0
  5 29  1  0  0  0  0
  8  4  1  0  0  0  0
  9  4  1  0  0  0  0
 11 14  1  6  0  0  0
 11 18  1  0  0  0  0
 11 12  1  0  0  0  0
 12  2  1  0  0  0  0
 12 15  1  1  0  0  0
 13 11  1  0  0  0  0
 13 12  1  0  0  0  0
 16 13  1  0  0  0  0
 17 13  1  0  0  0  0
 18 23  1  0  0  0  0
 19 20  1  0  0  0  0
 19 18  2  0  0  0  0
 20 21  2  0  0  0  0
 21 22  1  0  0  0  0
 22 26  1  0  0  0  0
 23 22  2  0  0  0  0
 24 19  1  0  0  0  0
 25 20  1  0  0  0  0
 28 27  1  0  0  0  0
 29 33  1  0  0  0  0
 31 37  1  0  0  0  0
 31 30  1  0  0  0  0
 32 31  1  0  0  0  0
 33 34  1  0  0  0  0
 33 32  2  0  0  0  0
 34 36  1  0  0  0  0
 35 34  2  0  0  0  0
 36 39  1  0  0  0  0
 36 37  1  0  0  0  0
 37 38  2  0  0  0  0
M  END
>  <minimizedAffinity>
-5.14066839

$$$$

 OpenBabel03272508293D

 39 42  0  0  1  0  0  0  0  0999 V2000
   37.4370   25.4100   32.9300 C   0  0  2  0  0  0  0  0  0  0  0  0
   38.2380   26.5960   32.4060 C   0  0  2  0  0  0  0  0  0  0  0  0
   39.3950   26.6080   33.1390 O   0  0  0  0  0  0  0  0  0  0  0  0
   39.6650   25.3680   33.6420 C   0  0  0  0  0  0  0  0  0  0  0  0
   38.5860   24.4180   33.1540 C   0  0  1  0  0  0  0  0  0  0  0  0
   36.9910   25.5850   33.9160 H   0  0  0  0  0  0  0  0  0  0  0  0
   38.4120   26.3800   31.3350 H   0  0  0  0  0  0  0  0  0  0  0  0
   39.6720   25.4460   34.7530 H   0  0  0  0  0  0  0  0  0  0  0  0
   40.6660   25.0650   33.2540 H   0  0  0  0  0  0  0  0  0  0  0  0
   38.8940   24.0540   32.1680 H   0  0  0  0  0  0  0  0  0  0  0  0
   35.9800   27.8540   32.5460 C   0  0  1  0  0  0  0  0  0  0  0  0
   37.4190   27.8230   32.6470 C   0  0  1  0  0  0  0  0  0  0  0  0
   36.6580   28.0220   33.9170 C   0  0  0  0  0  0  0  0  0  0  0  0
   35.2740   27.0060   32.5530 H   0  0  0  0  0  0  0  0  0  0  0  0
   37.9440   28.7560   32.2880 H   0  0  0  0  0  0  0  0  0  0  0  0
   36.6340   29.0100   34.4050 H   0  0  0  0  0  0  0  0  0  0  0  0
   36.6310   27.1490   34.5970 H   0  0  0  0  0  0  0  0  0  0  0  0
   35.2570   29.1250   32.1170 C   0  0  0  0  0  0  0  0  0  0  0  0
   35.9450   29.9840   31.2570 C   0  0  0  0  0  0  0  0  0  0  0  0
   35.2520   31.1380   30.9150 C   0  0  0  0  0  0  0  0  0  0  0  0
   33.9970   31.3840   31.4010 N   0  0  0  0  0  0  0  0  0  0  0  0
   33.3720   30.5150   32.2360 C   0  0  0  0  0  0  0  0  0  0  0  0
   34.0100   29.3720   32.5990 N   0  0  0  0  0  0  0  0  0  0  0  0
   36.9220   29.7360   30.9120 H   0  0  0  0  0  0  0  0  0  0  0  0
   35.7380   31.8390   30.2490 H   0  0  0  0  0  0  0  0  0  0  0  0
   32.3890   30.7590   32.5860 H   0  0  0  0  0  0  0  0  0  0  0  0
   36.5150   24.9180   32.0380 O   0  0  0  0  0  0  0  0  0  0  0  0
   36.6420   25.2000   31.0980 H   0  0  0  0  0  0  0  0  0  0  0  0
   38.2600   23.4430   34.0440 O   0  0  0  0  0  0  0  0  0  0  0  0
   37.4250   25.2510   38.0950 H   0  0  0  0  0  0  0  0  0  0  0  0
   37.9560   24.4910   37.5800 N   0  0  0  0  0  0  0  0  0  0  0  0
   37.7060   24.5540   36.2620 C   0  0  0  0  0  3  0  0  0  0  0  0
   38.3030   23.6490   35.4100 C   0  0  0  0  0  0  0  0  0  0  0  0
   39.1560   22.6920   35.9770 C   0  0  0  0  0  0  0  0  0  0  0  0
   39.8000   21.7780   35.3970 O   0  0  0  0  0  0  0  0  0  0  0  0
   39.3770   22.6690   37.3220 N   0  0  0  0  0  0  0  0  0  0  0  0
   38.7760   23.5710   38.1190 C   0  0  0  0  0  0  0  0  0  0  0  0
   38.8990   23.6520   39.3680 O   0  0  0  0  0  0  0  0  0  0  0  0
   39.9930   21.9950   37.8200 H   0  0  0  0  0  0  0  0  0  0  0  0
  1  5  1  0  0  0  0
  1  6  1  1  0  0  0
  2  7  1  6  0  0  0
  2 12  1  0  0  0  0
  2  1  1  0  0  0  0
  2  3  1  0  0  0  0
  3  4  1  0  0  0  0
  4  8  1  0  0  0  0
  5 10  1  6  0  0  0
  5  4  1  0  0  0  0
  5 29  1  0  0  0  0
  9  4  1  0  0  0  0
 11 14  1  6  0  0  0
 11 12  1  0  0  0  0
 11 13  1  0  0  0  0
 12 15  1  6  0  0  0
 12 13  1  0  0  0  0
 13 16  1  0  0  0  0
 13 17  1  0  0  0  0
 18 11  1  0  0  0  0
 18 23  1  0  0  0  0
 19 18  2  0  0  0  0
 20 19  1  0  0  0  0
 20 21  2  0  0  0  0
 21 22  1  0  0  0  0
 22 26  1  0  0  0  0
 22 23  2  0  0  0  0
 24 19  1  0  0  0  0
 25 20  1  0  0  0  0
 27  1  1  0  0  0  0
 28 27  1  0  0  0  0
 29 33  1  0  0  0  0
 31 30  1  0  0  0  0
 31 37  1  0  0  0  0
 32 31  1  0  0  0  0
 33 34  1  0  0  0  0
 33 32  2  0  0  0  0
 34 36  1  0  0  0  0
 35 34  2  0  0  0  0
 36 39  1  0  0  0  0
 36 37  1  0  0  0  0
 37 38  2  0  0  0  0
M  END
>  <minimizedAffinity>
-5.13020945

$$$$
