
 OpenBabel03272509193D

 34 36  0  0  0  0  0  0  0  0999 V2000
   37.9610   31.2510   47.8370 C   0  0  0  0  0  0  0  0  0  0  0  0
   36.9760   31.2410   48.8120 C   0  0  0  0  0  0  0  0  0  0  0  0
   37.0200   32.3260   49.6890 C   0  0  0  0  0  0  0  0  0  0  0  0
   37.9950   33.3290   49.5660 C   0  0  0  0  0  0  0  0  0  0  0  0
   38.9440   33.2410   48.5440 C   0  0  0  0  0  0  0  0  0  0  0  0
   38.9240   32.1820   47.6640 C   0  0  0  0  0  0  0  0  0  0  0  0
   36.2810   32.3730   50.4660 H   0  0  0  0  0  0  0  0  0  0  0  0
   38.0140   34.1610   50.2540 H   0  0  0  0  0  0  0  0  0  0  0  0
   39.6870   34.0160   48.4590 H   0  0  0  0  0  0  0  0  0  0  0  0
   34.8510   30.2340   48.1120 C   0  0  0  0  0  0  0  0  0  0  0  0
   35.9840   30.2150   48.9320 C   0  0  0  0  0  0  0  0  0  0  0  0
   36.1070   29.1760   49.8560 C   0  0  0  0  0  0  0  0  0  0  0  0
   35.1100   28.2430   49.8990 N   0  0  0  0  0  0  0  0  0  0  0  0
   34.0310   28.2990   49.0860 C   0  0  0  0  0  0  0  0  0  0  0  0
   33.8980   29.2940   48.1910 N   0  0  0  0  0  0  0  0  0  0  0  0
   34.7660   31.0460   47.3970 H   0  0  0  0  0  0  0  0  0  0  0  0
   33.2900   27.5200   49.1870 H   0  0  0  0  0  0  0  0  0  0  0  0
   37.2720   29.0990   50.7470 C   0  0  0  0  0  0  0  0  0  0  0  0
   37.1210   29.6310   51.7160 H   0  0  0  0  0  0  0  0  0  0  0  0
   37.6250   28.0720   50.9580 H   0  0  0  0  0  0  0  0  0  0  0  0
   38.1230   29.6330   50.2540 H   0  0  0  0  0  0  0  0  0  0  0  0
   37.9930   30.1820   46.9020 O   0  0  0  0  0  0  0  0  0  0  0  0
   37.1500   29.8900   46.4200 H   0  0  0  0  0  0  0  0  0  0  0  0
   39.8800   32.1460   46.6790 O   0  0  0  0  0  0  0  0  0  0  0  0
   37.5390   33.2260   42.9640 H   0  0  0  0  0  0  0  0  0  0  0  0
   38.3810   32.7290   43.3560 N   0  0  0  0  0  0  0  0  0  0  0  0
   38.4700   32.8270   44.6890 C   0  0  0  0  0  3  0  0  0  0  0  0
   39.5120   32.2310   45.3550 C   0  0  0  0  0  0  0  0  0  0  0  0
   40.4450   31.5390   44.5840 C   0  0  0  0  0  0  0  0  0  0  0  0
   41.4730   30.9200   44.9650 O   0  0  0  0  0  0  0  0  0  0  0  0
   40.3320   31.4530   43.2260 N   0  0  0  0  0  0  0  0  0  0  0  0
   39.2760   32.0640   42.6140 C   0  0  0  0  0  0  0  0  0  0  0  0
   39.0260   32.0820   41.3900 O   0  0  0  0  0  0  0  0  0  0  0  0
   40.9600   30.9730   42.5800 H   0  0  0  0  0  0  0  0  0  0  0  0
  1  2  1  0  0  0  0
  2 11  1  0  0  0  0
  2  3  2  0  0  0  0
  3  7  1  0  0  0  0
  4  3  1  0  0  0  0
  4  8  1  0  0  0  0
  5  4  2  0  0  0  0
  6  1  2  0  0  0  0
  6  5  1  0  0  0  0
  9  5  1  0  0  0  0
 10 15  2  0  0  0  0
 10 11  1  0  0  0  0
 11 12  2  0  0  0  0
 12 13  1  0  0  0  0
 12 18  1  0  0  0  0
 14 17  1  0  0  0  0
 14 13  2  0  0  0  0
 15 14  1  0  0  0  0
 16 10  1  0  0  0  0
 18 20  1  0  0  0  0
 18 19  1  0  0  0  0
 21 18  1  0  0  0  0
 22  1  1  0  0  0  0
 23 22  1  0  0  0  0
 24  6  1  0  0  0  0
 25 26  1  0  0  0  0
 26 27  1  0  0  0  0
 27 28  2  0  0  0  0
 28 24  1  0  0  0  0
 29 30  2  0  0  0  0
 29 28  1  0  0  0  0
 31 29  1  0  0  0  0
 32 31  1  0  0  0  0
 32 26  1  0  0  0  0
 33 32  2  0  0  0  0
 34 31  1  0  0  0  0
M  END
>  <minimizedAffinity>
-6.65916109

>  <minimizedRMSD>
0.814766347

$$$$
