
 OpenBabel03272505093D

 30 32  0  0  0  0  0  0  0  0999 V2000
   36.3510   30.9510   45.2500 Cl  0  0  0  0  0  0  0  0  0  0  0  0
   36.5460   30.5610   46.9410 C   0  0  0  0  0  0  0  0  0  0  0  0
   37.7790   30.7830   47.4880 C   0  0  0  0  0  0  0  0  0  0  0  0
   37.9600   30.4780   48.8400 C   0  0  0  0  0  0  0  0  0  0  0  0
   36.9100   29.9730   49.5670 C   0  0  0  0  0  0  0  0  0  0  0  0
   35.6900   29.7770   48.9420 C   0  0  0  0  0  0  0  0  0  0  0  0
   35.4490   30.0560   47.6170 C   0  0  0  0  0  0  0  0  0  0  0  0
   38.9260   30.6440   49.2970 H   0  0  0  0  0  0  0  0  0  0  0  0
   37.0420   29.7350   50.6140 H   0  0  0  0  0  0  0  0  0  0  0  0
   34.8670   29.3750   49.5350 H   0  0  0  0  0  0  0  0  0  0  0  0
   40.1070   33.2050   46.0420 C   0  0  0  0  0  0  0  0  0  0  0  0
   40.9150   32.4380   45.1880 C   0  0  0  0  0  0  0  0  0  0  0  0
   40.6350   31.0780   45.1270 C   0  0  0  0  0  0  0  0  0  0  0  0
   39.6170   30.5600   45.8790 N   0  0  0  0  0  0  0  0  0  0  0  0
   38.8770   31.3240   46.6750 C   0  0  0  0  0  0  0  0  0  0  0  0
   39.1290   32.6450   46.7500 N   0  0  0  0  0  0  0  0  0  0  0  0
   40.2460   34.2680   46.1570 H   0  0  0  0  0  0  0  0  0  0  0  0
   41.6990   32.9310   44.6290 H   0  0  0  0  0  0  0  0  0  0  0  0
   41.2310   30.4670   44.4870 H   0  0  0  0  0  0  0  0  0  0  0  0
   33.8940   29.8160   46.8060 S   0  0  0  0  0  0  0  0  0  0  0  0
   31.4860   26.2080   49.0280 H   0  0  0  0  0  0  0  0  0  0  0  0
   32.0670   26.4730   48.2030 N   0  0  0  0  0  0  0  0  0  0  0  0
   32.4540   27.7610   48.1830 C   0  0  0  0  0  3  0  0  0  0  0  0
   33.2360   28.1690   47.0980 C   0  0  0  0  0  0  0  0  0  0  0  0
   33.5730   27.2450   46.1070 C   0  0  0  0  0  0  0  0  0  0  0  0
   34.2700   27.5260   45.1010 O   0  0  0  0  0  0  0  0  0  0  0  0
   33.1560   25.9650   46.1810 N   0  0  0  0  0  0  0  0  0  0  0  0
   32.4060   25.6080   47.2370 C   0  0  0  0  0  0  0  0  0  0  0  0
   31.9790   24.4490   47.3830 O   0  0  0  0  0  0  0  0  0  0  0  0
   33.3930   25.2470   45.4500 H   0  0  0  0  0  0  0  0  0  0  0  0
  1  2  1  0  0  0  0
  2  3  2  0  0  0  0
  2  7  1  0  0  0  0
  3  4  1  0  0  0  0
  4  8  1  0  0  0  0
  4  5  2  0  0  0  0
  5  9  1  0  0  0  0
  6 10  1  0  0  0  0
  6  5  1  0  0  0  0
  7  6  2  0  0  0  0
 11 17  1  0  0  0  0
 11 16  1  0  0  0  0
 12 11  2  0  0  0  0
 13 12  1  0  0  0  0
 13 14  2  0  0  0  0
 14 15  1  0  0  0  0
 15 16  2  0  0  0  0
 15  3  1  0  0  0  0
 18 12  1  0  0  0  0
 19 13  1  0  0  0  0
 20 24  1  0  0  0  0
 20  7  1  0  0  0  0
 22 21  1  0  0  0  0
 23 22  1  0  0  0  0
 24 23  2  0  0  0  0
 25 27  1  0  0  0  0
 25 24  1  0  0  0  0
 26 25  2  0  0  0  0
 27 28  1  0  0  0  0
 28 29  2  0  0  0  0
 28 22  1  0  0  0  0
 30 27  1  0  0  0  0
M  END
>  <minimizedAffinity>
-5.43902826

>  <minimizedRMSD>
1.80344939

$$$$
