
 OpenBabel03272506413D

 20 21  0  0  0  0  0  0  0  0999 V2000
   32.3980   27.3970   48.0720 S   0  0  0  0  0  0  0  0  0  0  0  0
   35.1050   29.9920   51.0330 H   0  0  0  0  0  0  0  0  0  0  0  0
   34.8590   29.7620   50.0450 N   0  0  0  0  0  0  0  0  0  0  0  0
   33.9170   28.8540   49.6690 C   0  0  0  0  0  3  0  0  0  0  0  0
   33.6730   28.6240   48.3210 C   0  0  0  0  0  0  0  0  0  0  0  0
   34.3850   29.3150   47.3580 C   0  0  0  0  0  0  0  0  0  0  0  0
   34.0650   29.0100   46.1740 O   0  0  0  0  0  0  0  0  0  0  0  0
   35.3110   30.2060   47.7590 N   0  0  0  0  0  0  0  0  0  0  0  0
   35.5320   30.4130   49.0560 C   0  0  0  0  0  0  0  0  0  0  0  0
   36.4110   31.2610   49.3980 O   0  0  0  0  0  0  0  0  0  0  0  0
   35.8150   30.6950   46.9890 H   0  0  0  0  0  0  0  0  0  0  0  0
   29.8430   27.4480   45.0330 C   0  0  0  0  0  0  0  0  0  0  0  0
   29.2680   28.7160   45.0760 C   0  0  0  0  0  0  0  0  0  0  0  0
   29.6780   29.6010   46.0800 C   0  0  0  0  0  0  0  0  0  0  0  0
   30.6300   29.1770   46.9760 N   0  0  0  0  0  0  0  0  0  0  0  0
   31.1640   27.9340   46.8990 C   0  0  0  0  0  0  0  0  0  0  0  0
   30.7740   27.0760   45.9350 N   0  0  0  0  0  0  0  0  0  0  0  0
   29.5060   26.7840   44.2470 H   0  0  0  0  0  0  0  0  0  0  0  0
   28.5240   29.0660   44.3850 H   0  0  0  0  0  0  0  0  0  0  0  0
   29.2920   30.6230   46.2060 H   0  0  0  0  0  0  0  0  0  0  0  0
  1  5  1  0  0  0  0
  3  2  1  0  0  0  0
  4  3  1  0  0  0  0
  5  4  2  0  0  0  0
  6  8  1  0  0  0  0
  6  5  1  0  0  0  0
  7  6  2  0  0  0  0
  8  9  1  0  0  0  0
  9 10  2  0  0  0  0
  9  3  1  0  0  0  0
 11  8  1  0  0  0  0
 12 13  2  0  0  0  0
 12 17  1  0  0  0  0
 13 14  1  0  0  0  0
 14 20  1  0  0  0  0
 14 15  2  0  0  0  0
 16 15  1  0  0  0  0
 16  1  1  0  0  0  0
 17 16  2  0  0  0  0
 18 12  1  0  0  0  0
 19 13  1  0  0  0  0
M  END
>  <minimizedAffinity>
-2.98817825

>  <minimizedRMSD>
6.59977007

$$$$
