
 OpenBabel03272504423D

 46 48  0  0  0  0  0  0  0  0999 V2000
   34.7280   29.3590   48.7580 C   0  0  0  0  0  0  0  0  0  0  0  0
   35.6350   29.3460   49.4090 H   0  0  0  0  0  0  0  0  0  0  0  0
   34.1220   30.2070   49.1950 H   0  0  0  0  0  0  0  0  0  0  0  0
   37.4930   30.4240   48.5020 Cl  0  0  0  0  0  0  0  0  0  0  0  0
   36.3650   30.2710   47.1480 C   0  0  0  0  0  0  0  0  0  0  0  0
   36.7520   30.6540   45.9130 C   0  0  0  0  0  0  0  0  0  0  0  0
   35.8800   30.5380   44.8540 C   0  0  0  0  0  0  0  0  0  0  0  0
   34.6110   30.0240   45.0850 C   0  0  0  0  0  0  0  0  0  0  0  0
   34.2770   29.6450   46.3990 C   0  0  0  0  0  0  0  0  0  0  0  0
   35.1190   29.7540   47.4390 C   0  0  0  0  0  0  0  0  0  0  0  0
   36.2160   30.8560   43.8580 H   0  0  0  0  0  0  0  0  0  0  0  0
   34.0080   29.9750   44.1920 H   0  0  0  0  0  0  0  0  0  0  0  0
   33.3060   29.2990   46.3570 H   0  0  0  0  0  0  0  0  0  0  0  0
   39.7380   32.8200   46.0320 C   0  0  0  0  0  0  0  0  0  0  0  0
   40.6180   32.1030   45.1540 C   0  0  0  0  0  0  0  0  0  0  0  0
   40.1480   30.9110   44.5650 C   0  0  0  0  0  0  0  0  0  0  0  0
   38.8870   30.4940   44.8490 N   0  0  0  0  0  0  0  0  0  0  0  0
   38.0820   31.1950   45.6810 C   0  0  0  0  0  0  0  0  0  0  0  0
   38.5120   32.3330   46.2540 N   0  0  0  0  0  0  0  0  0  0  0  0
   40.1380   33.7220   46.4580 H   0  0  0  0  0  0  0  0  0  0  0  0
   41.6110   32.4780   44.9620 H   0  0  0  0  0  0  0  0  0  0  0  0
   41.0360   30.2390   43.7150 N   0  0  0  0  0  0  0  0  0  0  0  0
   41.9910   29.9150   43.9560 H   0  0  0  0  0  0  0  0  0  0  0  0
   40.5400   30.1370   42.8000 H   0  0  0  0  0  0  0  0  0  0  0  0
   34.0070   28.1080   48.9740 C   0  0  0  0  0  0  0  0  0  0  0  0
   34.4500   27.4530   49.7760 H   0  0  0  0  0  0  0  0  0  0  0  0
   34.0640   27.4800   48.0440 H   0  0  0  0  0  0  0  0  0  0  0  0
   32.6970   28.3230   49.3080 O   0  0  0  0  0  0  0  0  0  0  0  0
   32.4520   26.6890   47.2670 O   0  0  0  0  0  0  0  0  0  0  0  0
   31.6810   27.4870   48.2880 P   0  0  2  0  0  0  0  0  0  0  0  0
   30.7210   28.6850   47.4840 O   0  0  0  0  0  0  0  0  0  0  0  0
   28.6260   26.2390   44.4710 H   0  0  0  0  0  0  0  0  0  0  0  0
   29.1440   27.1270   44.6860 N   0  0  0  0  0  0  0  0  0  0  0  0
   29.6210   27.3820   45.9360 C   0  0  0  0  0  3  0  0  0  0  0  0
   30.3060   28.5780   46.1820 C   0  0  0  0  0  0  0  0  0  0  0  0
   30.4610   29.4400   45.1360 C   0  0  0  0  0  0  0  0  0  0  0  0
   31.0840   30.4930   45.4230 O   0  0  0  0  0  0  0  0  0  0  0  0
   29.9890   29.1860   43.9070 N   0  0  0  0  0  0  0  0  0  0  0  0
   29.3280   28.0220   43.6820 C   0  0  0  0  0  0  0  0  0  0  0  0
   28.9000   27.8180   42.5180 O   0  0  0  0  0  0  0  0  0  0  0  0
   30.1360   29.8800   43.1400 H   0  0  0  0  0  0  0  0  0  0  0  0
   30.6130   26.5030   49.0780 O   0  0  0  0  0  0  0  0  0  0  0  0
   29.7240   27.2410   49.8290 C   0  0  0  0  0  0  0  0  0  0  0  0
   29.3060   26.5650   50.9730 F   0  0  0  0  0  0  0  0  0  0  0  0
   30.2900   28.4140   50.2810 F   0  0  0  0  0  0  0  0  0  0  0  0
   28.5990   27.5330   49.0640 F   0  0  0  0  0  0  0  0  0  0  0  0
  1 25  1  0  0  0  0
  1  3  1  0  0  0  0
  1  2  1  0  0  0  0
  5 10  1  0  0  0  0
  5  4  1  0  0  0  0
  6  5  2  0  0  0  0
  7  8  2  0  0  0  0
  7  6  1  0  0  0  0
  8  9  1  0  0  0  0
  9 10  2  0  0  0  0
 10  1  1  0  0  0  0
 11  7  1  0  0  0  0
 12  8  1  0  0  0  0
 13  9  1  0  0  0  0
 14 19  1  0  0  0  0
 14 20  1  0  0  0  0
 15 14  2  0  0  0  0
 16 17  2  0  0  0  0
 16 15  1  0  0  0  0
 17 18  1  0  0  0  0
 18  6  1  0  0  0  0
 18 19  2  0  0  0  0
 21 15  1  0  0  0  0
 22 23  1  0  0  0  0
 22 16  1  0  0  0  0
 24 22  1  0  0  0  0
 25 28  1  0  0  0  0
 25 26  1  0  0  0  0
 27 25  1  0  0  0  0
 30 29  2  6  0  0  0
 30 42  1  0  0  0  0
 30 28  1  0  0  0  0
 31 30  1  0  0  0  0
 32 33  1  0  0  0  0
 33 34  1  0  0  0  0
 34 35  2  0  0  0  0
 35 31  1  0  0  0  0
 36 37  2  0  0  0  0
 36 35  1  0  0  0  0
 38 36  1  0  0  0  0
 39 38  1  0  0  0  0
 39 33  1  0  0  0  0
 40 39  2  0  0  0  0
 41 38  1  0  0  0  0
 42 43  1  0  0  0  0
 43 45  1  0  0  0  0
 43 44  1  0  0  0  0
 46 43  1  0  0  0  0
M  END
>  <minimizedAffinity>
-5.76162863

>  <minimizedRMSD>
0.588733971

$$$$
