
 OpenBabel03272508283D

 39 42  0  0  1  0  0  0  0  0999 V2000
   33.9780   29.0070   47.3380 C   0  0  2  0  0  0  0  0  0  0  0  0
   34.7400   28.2390   48.4100 C   0  0  2  0  0  0  0  0  0  0  0  0
   33.8450   28.0520   49.4300 O   0  0  0  0  0  0  0  0  0  0  0  0
   32.5620   28.1090   48.9680 C   0  0  0  0  0  0  0  0  0  0  0  0
   32.6120   28.3190   47.4660 C   0  0  1  0  0  0  0  0  0  0  0  0
   33.8110   30.0610   47.5890 H   0  0  0  0  0  0  0  0  0  0  0  0
   35.0440   27.2910   47.9290 H   0  0  0  0  0  0  0  0  0  0  0  0
   32.0520   28.9550   49.4850 H   0  0  0  0  0  0  0  0  0  0  0  0
   32.0770   27.1360   49.2180 H   0  0  0  0  0  0  0  0  0  0  0  0
   32.7050   27.3300   47.0020 H   0  0  0  0  0  0  0  0  0  0  0  0
   35.7870   30.5190   49.0480 C   0  0  1  0  0  0  0  0  0  0  0  0
   35.8890   29.0950   48.8340 C   0  0  1  0  0  0  0  0  0  0  0  0
   36.0310   29.5780   50.2400 C   0  0  0  0  0  0  0  0  0  0  0  0
   34.8780   31.1260   49.1990 H   0  0  0  0  0  0  0  0  0  0  0  0
   36.8630   28.7490   48.3780 H   0  0  0  0  0  0  0  0  0  0  0  0
   37.0170   29.5870   50.7310 H   0  0  0  0  0  0  0  0  0  0  0  0
   35.1670   29.3770   50.9020 H   0  0  0  0  0  0  0  0  0  0  0  0
   36.9810   31.4310   48.7970 C   0  0  0  0  0  0  0  0  0  0  0  0
   37.1720   32.4860   49.6940 C   0  0  0  0  0  0  0  0  0  0  0  0
   38.2590   33.2990   49.4080 C   0  0  0  0  0  0  0  0  0  0  0  0
   39.0610   33.0610   48.3250 N   0  0  0  0  0  0  0  0  0  0  0  0
   38.8310   32.0220   47.4830 C   0  0  0  0  0  0  0  0  0  0  0  0
   37.7790   31.1970   47.7220 N   0  0  0  0  0  0  0  0  0  0  0  0
   36.5120   32.6180   50.5200 H   0  0  0  0  0  0  0  0  0  0  0  0
   38.4540   34.1320   50.0720 H   0  0  0  0  0  0  0  0  0  0  0  0
   39.4910   31.8830   46.6490 H   0  0  0  0  0  0  0  0  0  0  0  0
   34.4950   28.8650   46.0720 O   0  0  0  0  0  0  0  0  0  0  0  0
   35.1180   28.1060   45.9510 H   0  0  0  0  0  0  0  0  0  0  0  0
   31.6000   29.0840   46.9770 O   0  0  0  0  0  0  0  0  0  0  0  0
   28.1400   26.8540   45.1260 H   0  0  0  0  0  0  0  0  0  0  0  0
   28.9520   27.5060   44.9280 N   0  0  0  0  0  0  0  0  0  0  0  0
   29.6210   27.7780   46.0610 C   0  0  0  0  0  3  0  0  0  0  0  0
   30.7170   28.6130   46.0240 C   0  0  0  0  0  0  0  0  0  0  0  0
   31.0840   29.1430   44.7790 C   0  0  0  0  0  0  0  0  0  0  0  0
   32.0380   29.9180   44.5100 O   0  0  0  0  0  0  0  0  0  0  0  0
   30.3720   28.8360   43.6560 N   0  0  0  0  0  0  0  0  0  0  0  0
   29.3080   28.0190   43.7370 C   0  0  0  0  0  0  0  0  0  0  0  0
   28.5740   27.6620   42.7780 O   0  0  0  0  0  0  0  0  0  0  0  0
   30.5770   29.1870   42.6990 H   0  0  0  0  0  0  0  0  0  0  0  0
  1  5  1  0  0  0  0
  1  6  1  1  0  0  0
  1  2  1  0  0  0  0
  2  7  1  6  0  0  0
  2 12  1  0  0  0  0
  2  3  1  0  0  0  0
  4  9  1  0  0  0  0
  4  3  1  0  0  0  0
  4  8  1  0  0  0  0
  5 10  1  6  0  0  0
  5  4  1  0  0  0  0
 11 14  1  6  0  0  0
 11 13  1  0  0  0  0
 12 15  1  6  0  0  0
 12 11  1  0  0  0  0
 12 13  1  0  0  0  0
 13 16  1  0  0  0  0
 13 17  1  0  0  0  0
 18 11  1  0  0  0  0
 18 19  1  0  0  0  0
 19 24  1  0  0  0  0
 20 19  2  0  0  0  0
 20 25  1  0  0  0  0
 21 20  1  0  0  0  0
 22 23  1  0  0  0  0
 22 21  2  0  0  0  0
 23 18  2  0  0  0  0
 26 22  1  0  0  0  0
 27  1  1  0  0  0  0
 28 27  1  0  0  0  0
 29  5  1  0  0  0  0
 31 30  1  0  0  0  0
 31 32  1  0  0  0  0
 33 32  2  0  0  0  0
 33 29  1  0  0  0  0
 34 33  1  0  0  0  0
 35 34  2  0  0  0  0
 36 37  1  0  0  0  0
 36 34  1  0  0  0  0
 37 31  1  0  0  0  0
 38 37  2  0  0  0  0
 39 36  1  0  0  0  0
M  END
>  <minimizedAffinity>
-4.89375877

>  <minimizedRMSD>
0.175781801

$$$$
