
 OpenBabel03272506413D

 20 21  0  0  0  0  0  0  0  0999 V2000
   32.9410   28.4880   47.5230 S   0  0  0  0  0  0  0  0  0  0  0  0
   34.9000   24.4450   45.8950 H   0  0  0  0  0  0  0  0  0  0  0  0
   34.1220   24.8880   46.4330 N   0  0  0  0  0  0  0  0  0  0  0  0
   33.9860   26.2250   46.6440 C   0  0  0  0  0  3  0  0  0  0  0  0
   32.9100   26.7070   47.3780 C   0  0  0  0  0  0  0  0  0  0  0  0
   31.9740   25.8320   47.8950 C   0  0  0  0  0  0  0  0  0  0  0  0
   31.0480   26.4000   48.5410 O   0  0  0  0  0  0  0  0  0  0  0  0
   32.1340   24.5130   47.6700 N   0  0  0  0  0  0  0  0  0  0  0  0
   33.1720   24.0700   46.9650 C   0  0  0  0  0  0  0  0  0  0  0  0
   33.2910   22.8210   46.7710 O   0  0  0  0  0  0  0  0  0  0  0  0
   31.3980   23.9030   48.0850 H   0  0  0  0  0  0  0  0  0  0  0  0
   36.1660   28.9500   49.7920 C   0  0  0  0  0  0  0  0  0  0  0  0
   36.8850   29.9750   49.1810 C   0  0  0  0  0  0  0  0  0  0  0  0
   36.3620   30.5570   48.0200 C   0  0  0  0  0  0  0  0  0  0  0  0
   35.1630   30.0880   47.5380 N   0  0  0  0  0  0  0  0  0  0  0  0
   34.4960   29.0870   48.1630 C   0  0  0  0  0  0  0  0  0  0  0  0
   34.9930   28.5230   49.2810 N   0  0  0  0  0  0  0  0  0  0  0  0
   36.5950   28.5180   50.6880 H   0  0  0  0  0  0  0  0  0  0  0  0
   37.8210   30.3550   49.5430 H   0  0  0  0  0  0  0  0  0  0  0  0
   36.8430   31.3700   47.4580 H   0  0  0  0  0  0  0  0  0  0  0  0
  1 16  1  0  0  0  0
  2  3  1  0  0  0  0
  3  4  1  0  0  0  0
  3  9  1  0  0  0  0
  4  5  2  0  0  0  0
  5  1  1  0  0  0  0
  5  6  1  0  0  0  0
  6  7  2  0  0  0  0
  8  6  1  0  0  0  0
  8 11  1  0  0  0  0
  9  8  1  0  0  0  0
 10  9  2  0  0  0  0
 12 18  1  0  0  0  0
 13 19  1  0  0  0  0
 13 12  2  0  0  0  0
 14 13  1  0  0  0  0
 15 14  2  0  0  0  0
 15 16  1  0  0  0  0
 16 17  2  0  0  0  0
 17 12  1  0  0  0  0
 20 14  1  0  0  0  0
M  END
>  <minimizedAffinity>
-3.27504778

>  <minimizedRMSD>
3.00490499

$$$$
