
 OpenBabel03272506443D

 33 35  0  0  1  0  0  0  0  0999 V2000
   32.6030   28.6560   47.4630 C   0  0  2  0  0  0  0  0  0  0  0  0
   33.8650   28.7250   48.3070 C   0  0  1  0  0  0  0  0  0  0  0  0
   34.4110   27.4770   48.3540 O   0  0  0  0  0  0  0  0  0  0  0  0
   33.7500   26.6610   47.4650 C   0  0  0  0  0  0  0  0  0  0  0  0
   33.0380   27.5900   46.4660 C   0  0  1  0  0  0  0  0  0  0  0  0
   31.7670   28.2930   48.0770 H   0  0  0  0  0  0  0  0  0  0  0  0
   33.6360   29.1770   49.2830 H   0  0  0  0  0  0  0  0  0  0  0  0
   34.4200   25.9460   46.9680 H   0  0  0  0  0  0  0  0  0  0  0  0
   32.9310   26.1570   48.0330 H   0  0  0  0  0  0  0  0  0  0  0  0
   33.8190   27.9930   45.8270 H   0  0  0  0  0  0  0  0  0  0  0  0
   32.3430   29.8760   46.8460 O   0  0  0  0  0  0  0  0  0  0  0  0
   33.0110   29.9950   46.1240 H   0  0  0  0  0  0  0  0  0  0  0  0
   35.0270   29.8220   47.4080 S   0  0  0  0  0  0  0  0  0  0  0  0
   37.4870   29.9430   50.5160 C   0  0  0  0  0  0  0  0  0  0  0  0
   38.2940   31.0620   50.2910 C   0  0  0  0  0  0  0  0  0  0  0  0
   38.0640   31.8140   49.1180 C   0  0  0  0  0  0  0  0  0  0  0  0
   37.0800   31.4100   48.2850 N   0  0  0  0  0  0  0  0  0  0  0  0
   36.3170   30.3240   48.5320 C   0  0  0  0  0  0  0  0  0  0  0  0
   36.5150   29.5930   49.6380 N   0  0  0  0  0  0  0  0  0  0  0  0
   37.6220   29.3340   51.3990 H   0  0  0  0  0  0  0  0  0  0  0  0
   39.0570   31.3360   50.9800 H   0  0  0  0  0  0  0  0  0  0  0  0
   38.6660   32.6890   48.9020 H   0  0  0  0  0  0  0  0  0  0  0  0
   31.9840   26.9310   45.8870 O   0  0  0  0  0  0  0  0  0  0  0  0
   32.2800   26.1830   41.4420 H   0  0  0  0  0  0  0  0  0  0  0  0
   31.8090   26.6820   42.2150 N   0  0  0  0  0  0  0  0  0  0  0  0
   32.2780   26.4050   43.4400 C   0  0  0  0  0  3  0  0  0  0  0  0
   31.7090   27.0230   44.5310 C   0  0  0  0  0  0  0  0  0  0  0  0
   30.6590   27.9220   44.3310 C   0  0  0  0  0  0  0  0  0  0  0  0
   30.0220   28.5770   45.2020 O   0  0  0  0  0  0  0  0  0  0  0  0
   30.1950   28.1920   43.0770 N   0  0  0  0  0  0  0  0  0  0  0  0
   30.7870   27.5570   42.0230 C   0  0  0  0  0  0  0  0  0  0  0  0
   30.4150   27.7530   40.8410 O   0  0  0  0  0  0  0  0  0  0  0  0
   29.4310   28.8370   42.8450 H   0  0  0  0  0  0  0  0  0  0  0  0
  1  6  1  1  0  0  0
  1  2  1  0  0  0  0
  2  3  1  0  0  0  0
  2  7  1  1  0  0  0
  4  9  1  0  0  0  0
  4  3  1  0  0  0  0
  5 10  1  6  0  0  0
  5  1  1  0  0  0  0
  5  4  1  0  0  0  0
  8  4  1  0  0  0  0
 11  1  1  0  0  0  0
 12 11  1  0  0  0  0
 13  2  1  0  0  0  0
 13 18  1  0  0  0  0
 14 20  1  0  0  0  0
 15 14  1  0  0  0  0
 15 21  1  0  0  0  0
 16 15  2  0  0  0  0
 17 18  2  0  0  0  0
 17 16  1  0  0  0  0
 18 19  1  0  0  0  0
 19 14  2  0  0  0  0
 22 16  1  0  0  0  0
 23  5  1  0  0  0  0
 24 25  1  0  0  0  0
 25 26  1  0  0  0  0
 26 27  2  0  0  0  0
 27 23  1  0  0  0  0
 28 27  1  0  0  0  0
 28 29  2  0  0  0  0
 30 28  1  0  0  0  0
 31 25  1  0  0  0  0
 31 30  1  0  0  0  0
 32 31  2  0  0  0  0
 33 30  1  0  0  0  0
M  END
>  <minimizedAffinity>
-3.79094005

>  <minimizedRMSD>
0.987135351

$$$$
