
 OpenBabel03262521483D

 31 32  0  0  0  0  0  0  0  0999 V2000
   39.2840   26.6400   34.1920 O   0  0  0  0  0  0  0  0  0  0  0  0
   38.7900   27.0500   32.9500 C   0  0  0  0  0  0  0  0  0  0  0  0
   37.7420   27.4160   33.0160 H   0  0  0  0  0  0  0  0  0  0  0  0
   39.4010   27.8920   32.5350 H   0  0  0  0  0  0  0  0  0  0  0  0
   38.9030   25.9010   32.0010 C   0  0  0  0  0  0  0  0  0  0  0  0
   39.6310   25.1510   32.4310 H   0  0  0  0  0  0  0  0  0  0  0  0
   39.3530   26.1740   31.0210 H   0  0  0  0  0  0  0  0  0  0  0  0
   37.6490   25.1950   31.7590 C   0  0  0  0  0  0  0  0  0  0  0  0
   36.4860   25.8570   31.3600 C   0  0  0  0  0  0  0  0  0  0  0  0
   35.3330   25.0860   31.1540 C   0  0  0  0  0  0  0  0  0  0  0  0
   35.4130   23.7180   31.3550 N   0  0  0  0  0  0  0  0  0  0  0  0
   36.5680   23.1230   31.7430 C   0  0  0  0  0  0  0  0  0  0  0  0
   37.6870   23.8790   31.9420 N   0  0  0  0  0  0  0  0  0  0  0  0
   36.4800   26.9270   31.2180 H   0  0  0  0  0  0  0  0  0  0  0  0
   34.4110   25.5370   30.8470 H   0  0  0  0  0  0  0  0  0  0  0  0
   36.5820   22.0490   31.8880 H   0  0  0  0  0  0  0  0  0  0  0  0
   36.8320   27.2860   34.7800 O   0  0  0  0  0  0  0  0  0  0  0  0
   38.0840   26.6140   35.3710 P   0  0  2  0  0  0  0  0  0  0  0  0
   38.4980   27.5140   36.7160 O   0  0  0  0  0  0  0  0  0  0  0  0
   39.4700   27.4020   36.8800 H   0  0  0  0  0  0  0  0  0  0  0  0
   37.7340   25.0450   35.8460 O   0  0  0  0  0  0  0  0  0  0  0  0
   41.1370   22.3140   35.3290 H   0  0  0  0  0  0  0  0  0  0  0  0
   40.4260   22.7120   35.9900 N   0  0  0  0  0  0  0  0  0  0  0  0
   39.5010   23.6270   35.5750 C   0  0  0  0  0  3  0  0  0  0  0  0
   38.5570   24.1530   36.4670 C   0  0  0  0  0  0  0  0  0  0  0  0
   38.6040   23.7040   37.7770 C   0  0  0  0  0  0  0  0  0  0  0  0
   37.7140   24.2390   38.4910 O   0  0  0  0  0  0  0  0  0  0  0  0
   39.5330   22.8010   38.1420 N   0  0  0  0  0  0  0  0  0  0  0  0
   40.4180   22.3210   37.2680 C   0  0  0  0  0  0  0  0  0  0  0  0
   41.2410   21.4770   37.7320 O   0  0  0  0  0  0  0  0  0  0  0  0
   39.4910   22.5190   39.1620 H   0  0  0  0  0  0  0  0  0  0  0  0
  1 18  1  0  0  0  0
  2  3  1  0  0  0  0
  2  1  1  0  0  0  0
  4  2  1  0  0  0  0
  5  6  1  0  0  0  0
  5  2  1  0  0  0  0
  7  5  1  0  0  0  0
  8 13  1  0  0  0  0
  8  5  1  0  0  0  0
  9  8  2  0  0  0  0
 10 11  2  0  0  0  0
 10  9  1  0  0  0  0
 11 12  1  0  0  0  0
 12 16  1  0  0  0  0
 12 13  2  0  0  0  0
 14  9  1  0  0  0  0
 15 10  1  0  0  0  0
 18 17  2  6  0  0  0
 18 21  1  0  0  0  0
 18 19  1  0  0  0  0
 19 20  1  0  0  0  0
 21 25  1  0  0  0  0
 22 23  1  0  0  0  0
 23 29  1  0  0  0  0
 24 23  1  0  0  0  0
 24 25  2  0  0  0  0
 25 26  1  0  0  0  0
 26 28  1  0  0  0  0
 26 27  2  0  0  0  0
 28 31  1  0  0  0  0
 29 30  2  0  0  0  0
 29 28  1  0  0  0  0
M  END
>  <minimizedAffinity>
-5.25641298

$$$$

 OpenBabel03262521483D

 31 32  0  0  0  0  0  0  0  0999 V2000
   38.9200   26.3360   33.8990 O   0  0  0  0  0  0  0  0  0  0  0  0
   38.1370   26.2700   32.7410 C   0  0  0  0  0  0  0  0  0  0  0  0
   37.8200   25.2290   32.5090 H   0  0  0  0  0  0  0  0  0  0  0  0
   37.2020   26.8750   32.8560 H   0  0  0  0  0  0  0  0  0  0  0  0
   38.9220   26.8610   31.6150 C   0  0  0  0  0  0  0  0  0  0  0  0
   39.1910   26.0330   30.8940 H   0  0  0  0  0  0  0  0  0  0  0  0
   39.9070   27.2720   31.9260 H   0  0  0  0  0  0  0  0  0  0  0  0
   38.2080   27.8810   30.8530 C   0  0  0  0  0  0  0  0  0  0  0  0
   37.1850   28.6490   31.4130 C   0  0  0  0  0  0  0  0  0  0  0  0
   36.5630   29.6040   30.5970 C   0  0  0  0  0  0  0  0  0  0  0  0
   36.9960   29.7310   29.2870 N   0  0  0  0  0  0  0  0  0  0  0  0
   37.9950   28.9590   28.7910 C   0  0  0  0  0  0  0  0  0  0  0  0
   38.5970   28.0310   29.5920 N   0  0  0  0  0  0  0  0  0  0  0  0
   36.8880   28.5080   32.4420 H   0  0  0  0  0  0  0  0  0  0  0  0
   35.7730   30.2230   30.9700 H   0  0  0  0  0  0  0  0  0  0  0  0
   38.2990   29.0940   27.7600 H   0  0  0  0  0  0  0  0  0  0  0  0
   36.6940   27.2700   34.8740 O   0  0  0  0  0  0  0  0  0  0  0  0
   37.9850   26.5370   35.2830 P   0  0  2  0  0  0  0  0  0  0  0  0
   38.7300   27.5160   36.4130 O   0  0  0  0  0  0  0  0  0  0  0  0
   39.7040   27.3260   36.3970 H   0  0  0  0  0  0  0  0  0  0  0  0
   37.6190   25.0620   35.9880 O   0  0  0  0  0  0  0  0  0  0  0  0
   41.0110   22.3420   35.3580 H   0  0  0  0  0  0  0  0  0  0  0  0
   40.3280   22.7450   36.0450 N   0  0  0  0  0  0  0  0  0  0  0  0
   39.3810   23.6500   35.6580 C   0  0  0  0  0  3  0  0  0  0  0  0
   38.4730   24.1830   36.5840 C   0  0  0  0  0  0  0  0  0  0  0  0
   38.5790   23.7510   37.8970 C   0  0  0  0  0  0  0  0  0  0  0  0
   37.7190   24.2900   38.6420 O   0  0  0  0  0  0  0  0  0  0  0  0
   39.5290   22.8570   38.2320 N   0  0  0  0  0  0  0  0  0  0  0  0
   40.3770   22.3700   37.3270 C   0  0  0  0  0  0  0  0  0  0  0  0
   41.2250   21.5360   37.7650 O   0  0  0  0  0  0  0  0  0  0  0  0
   39.5330   22.5880   39.2570 H   0  0  0  0  0  0  0  0  0  0  0  0
  1 18  1  0  0  0  0
  2  4  1  0  0  0  0
  2  1  1  0  0  0  0
  3  2  1  0  0  0  0
  5  7  1  0  0  0  0
  5  2  1  0  0  0  0
  6  5  1  0  0  0  0
  8  9  1  0  0  0  0
  8  5  1  0  0  0  0
  9 14  1  0  0  0  0
 10 15  1  0  0  0  0
 10  9  2  0  0  0  0
 11 10  1  0  0  0  0
 12 11  2  0  0  0  0
 12 13  1  0  0  0  0
 13  8  2  0  0  0  0
 16 12  1  0  0  0  0
 18 17  2  6  0  0  0
 18 21  1  0  0  0  0
 18 19  1  0  0  0  0
 20 19  1  0  0  0  0
 21 25  1  0  0  0  0
 22 23  1  0  0  0  0
 23 29  1  0  0  0  0
 24 23  1  0  0  0  0
 24 25  2  0  0  0  0
 25 26  1  0  0  0  0
 26 28  1  0  0  0  0
 26 27  2  0  0  0  0
 28 31  1  0  0  0  0
 29 30  2  0  0  0  0
 29 28  1  0  0  0  0
M  END
>  <minimizedAffinity>
-5.25536823

$$$$

 OpenBabel03262521483D

 31 32  0  0  0  0  0  0  0  0999 V2000
   37.8500   27.4850   33.8310 O   0  0  0  0  0  0  0  0  0  0  0  0
   36.6130   27.7810   34.4140 C   0  0  0  0  0  0  0  0  0  0  0  0
   35.8950   26.9360   34.3240 H   0  0  0  0  0  0  0  0  0  0  0  0
   36.7270   27.9930   35.5070 H   0  0  0  0  0  0  0  0  0  0  0  0
   36.0770   29.0170   33.7670 C   0  0  0  0  0  0  0  0  0  0  0  0
   35.3470   28.7110   32.9600 H   0  0  0  0  0  0  0  0  0  0  0  0
   36.8480   29.6020   33.2170 H   0  0  0  0  0  0  0  0  0  0  0  0
   35.3680   29.9130   34.6740 C   0  0  0  0  0  0  0  0  0  0  0  0
   36.0290   30.8860   35.4280 C   0  0  0  0  0  0  0  0  0  0  0  0
   35.2550   31.6970   36.2700 C   0  0  0  0  0  0  0  0  0  0  0  0
   33.8860   31.4890   36.3070 N   0  0  0  0  0  0  0  0  0  0  0  0
   33.2930   30.5290   35.5540 C   0  0  0  0  0  0  0  0  0  0  0  0
   34.0520   29.7430   34.7360 N   0  0  0  0  0  0  0  0  0  0  0  0
   37.1000   31.0040   35.3600 H   0  0  0  0  0  0  0  0  0  0  0  0
   35.7050   32.4600   36.8720 H   0  0  0  0  0  0  0  0  0  0  0  0
   32.2180   30.4040   35.6160 H   0  0  0  0  0  0  0  0  0  0  0  0
   38.6170   27.2910   36.3110 O   0  0  0  0  0  0  0  0  0  0  0  0
   38.8880   26.7160   34.9100 P   0  0  2  0  0  0  0  0  0  0  0  0
   40.4940   27.0400   34.5820 O   0  0  0  0  0  0  0  0  0  0  0  0
   40.6100   27.0800   33.5980 H   0  0  0  0  0  0  0  0  0  0  0  0
   38.6490   25.0580   34.9030 O   0  0  0  0  0  0  0  0  0  0  0  0
   42.1420   22.5100   35.6810 H   0  0  0  0  0  0  0  0  0  0  0  0
   41.1890   22.8090   36.0000 N   0  0  0  0  0  0  0  0  0  0  0  0
   40.4640   23.7350   35.3050 C   0  0  0  0  0  3  0  0  0  0  0  0
   39.1920   24.1290   35.7400 C   0  0  0  0  0  0  0  0  0  0  0  0
   38.7060   23.5380   36.8960 C   0  0  0  0  0  0  0  0  0  0  0  0
   37.5580   23.9620   37.1960 O   0  0  0  0  0  0  0  0  0  0  0  0
   39.4550   22.6300   37.5480 N   0  0  0  0  0  0  0  0  0  0  0  0
   40.6630   22.2770   37.1080 C   0  0  0  0  0  0  0  0  0  0  0  0
   41.2690   21.4130   37.8080 O   0  0  0  0  0  0  0  0  0  0  0  0
   39.0010   22.2340   38.4200 H   0  0  0  0  0  0  0  0  0  0  0  0
  1  2  1  0  0  0  0
  1 18  1  0  0  0  0
  2  4  1  0  0  0  0
  3  2  1  0  0  0  0
  5  2  1  0  0  0  0
  5  8  1  0  0  0  0
  6  5  1  0  0  0  0
  7  5  1  0  0  0  0
  8 13  2  0  0  0  0
  8  9  1  0  0  0  0
  9 10  2  0  0  0  0
 10 11  1  0  0  0  0
 10 15  1  0  0  0  0
 12 16  1  0  0  0  0
 12 11  2  0  0  0  0
 13 12  1  0  0  0  0
 14  9  1  0  0  0  0
 18 17  2  1  0  0  0
 19 18  1  0  0  0  0
 20 19  1  0  0  0  0
 21 18  1  0  0  0  0
 21 25  1  0  0  0  0
 22 23  1  0  0  0  0
 23 29  1  0  0  0  0
 24 25  2  0  0  0  0
 24 23  1  0  0  0  0
 25 26  1  0  0  0  0
 26 27  2  0  0  0  0
 26 28  1  0  0  0  0
 28 31  1  0  0  0  0
 29 28  1  0  0  0  0
 29 30  2  0  0  0  0
M  END
>  <minimizedAffinity>
-4.91215038

$$$$

 OpenBabel03262521483D

 31 32  0  0  0  0  0  0  0  0999 V2000
   36.5930   26.9970   34.9980 O   0  0  0  0  0  0  0  0  0  0  0  0
   36.8180   28.2930   34.5220 C   0  0  0  0  0  0  0  0  0  0  0  0
   36.6660   29.0610   35.3120 H   0  0  0  0  0  0  0  0  0  0  0  0
   37.8710   28.4080   34.1580 H   0  0  0  0  0  0  0  0  0  0  0  0
   35.9100   28.5260   33.3580 C   0  0  0  0  0  0  0  0  0  0  0  0
   35.2680   29.4300   33.5810 H   0  0  0  0  0  0  0  0  0  0  0  0
   35.1710   27.7100   33.2000 H   0  0  0  0  0  0  0  0  0  0  0  0
   36.5980   28.7860   32.0980 C   0  0  0  0  0  0  0  0  0  0  0  0
   36.2730   29.8700   31.2810 C   0  0  0  0  0  0  0  0  0  0  0  0
   36.9950   30.0300   30.0900 C   0  0  0  0  0  0  0  0  0  0  0  0
   37.9860   29.1080   29.7930 N   0  0  0  0  0  0  0  0  0  0  0  0
   38.2620   28.0710   30.6210 C   0  0  0  0  0  0  0  0  0  0  0  0
   37.5560   27.9210   31.7800 N   0  0  0  0  0  0  0  0  0  0  0  0
   35.4910   30.5590   31.5620 H   0  0  0  0  0  0  0  0  0  0  0  0
   36.7920   30.8430   29.4220 H   0  0  0  0  0  0  0  0  0  0  0  0
   39.0460   27.3750   30.3460 H   0  0  0  0  0  0  0  0  0  0  0  0
   38.9420   26.9810   36.1190 O   0  0  0  0  0  0  0  0  0  0  0  0
   38.0280   26.1430   35.2080 P   0  0  2  0  0  0  0  0  0  0  0  0
   38.8620   25.9460   33.7740 O   0  0  0  0  0  0  0  0  0  0  0  0
   38.2040   25.7970   33.0470 H   0  0  0  0  0  0  0  0  0  0  0  0
   37.7440   24.6390   35.8900 O   0  0  0  0  0  0  0  0  0  0  0  0
   41.1940   21.9740   35.3520 H   0  0  0  0  0  0  0  0  0  0  0  0
   40.5150   22.4010   36.0280 N   0  0  0  0  0  0  0  0  0  0  0  0
   39.5350   23.2560   35.6080 C   0  0  0  0  0  3  0  0  0  0  0  0
   38.6340   23.8220   36.5200 C   0  0  0  0  0  0  0  0  0  0  0  0
   38.7810   23.4770   37.8540 C   0  0  0  0  0  0  0  0  0  0  0  0
   37.9230   24.0400   38.5850 O   0  0  0  0  0  0  0  0  0  0  0  0
   39.7610   22.6320   38.2230 N   0  0  0  0  0  0  0  0  0  0  0  0
   40.6030   22.1100   37.3290 C   0  0  0  0  0  0  0  0  0  0  0  0
   41.4820   21.3280   37.7990 O   0  0  0  0  0  0  0  0  0  0  0  0
   39.7960   22.4280   39.2620 H   0  0  0  0  0  0  0  0  0  0  0  0
  1 18  1  0  0  0  0
  2  1  1  0  0  0  0
  2  3  1  0  0  0  0
  4  2  1  0  0  0  0
  5  6  1  0  0  0  0
  5  2  1  0  0  0  0
  7  5  1  0  0  0  0
  8  5  1  0  0  0  0
  9 14  1  0  0  0  0
  9  8  2  0  0  0  0
 10  9  1  0  0  0  0
 11 10  2  0  0  0  0
 11 12  1  0  0  0  0
 12 13  2  0  0  0  0
 13  8  1  0  0  0  0
 15 10  1  0  0  0  0
 16 12  1  0  0  0  0
 18 21  1  0  0  0  0
 18 17  2  1  0  0  0
 19 18  1  0  0  0  0
 20 19  1  0  0  0  0
 21 25  1  0  0  0  0
 22 23  1  0  0  0  0
 23 29  1  0  0  0  0
 24 23  1  0  0  0  0
 24 25  2  0  0  0  0
 25 26  1  0  0  0  0
 26 28  1  0  0  0  0
 26 27  2  0  0  0  0
 28 31  1  0  0  0  0
 29 30  2  0  0  0  0
 29 28  1  0  0  0  0
M  END
>  <minimizedAffinity>
-4.89466572

$$$$

 OpenBabel03262521483D

 31 32  0  0  0  0  0  0  0  0999 V2000
   38.1480   25.2270   36.9730 O   0  0  0  0  0  0  0  0  0  0  0  0
   38.2220   23.8960   36.5500 C   0  0  0  0  0  0  0  0  0  0  0  0
   37.2190   23.4180   36.4990 H   0  0  0  0  0  0  0  0  0  0  0  0
   38.6670   23.8260   35.5250 H   0  0  0  0  0  0  0  0  0  0  0  0
   39.1250   23.1590   37.4860 C   0  0  0  0  0  0  0  0  0  0  0  0
   38.5140   22.3830   38.0360 H   0  0  0  0  0  0  0  0  0  0  0  0
   39.5380   23.7960   38.3000 H   0  0  0  0  0  0  0  0  0  0  0  0
   40.2270   22.4590   36.8340 C   0  0  0  0  0  0  0  0  0  0  0  0
   40.4170   22.4930   35.4510 C   0  0  0  0  0  0  0  0  0  0  0  0
   41.5070   21.7860   34.9240 C   0  0  0  0  0  0  0  0  0  0  0  0
   42.3300   21.0980   35.8010 N   0  0  0  0  0  0  0  0  0  0  0  0
   42.1010   21.0960   37.1370 C   0  0  0  0  0  0  0  0  0  0  0  0
   41.0380   21.7870   37.6440 N   0  0  0  0  0  0  0  0  0  0  0  0
   39.7440   23.0480   34.8140 H   0  0  0  0  0  0  0  0  0  0  0  0
   41.7050   21.7760   33.8710 H   0  0  0  0  0  0  0  0  0  0  0  0
   42.7720   20.5420   37.7840 H   0  0  0  0  0  0  0  0  0  0  0  0
   39.7320   25.9560   35.0390 O   0  0  0  0  0  0  0  0  0  0  0  0
   38.3890   26.3070   35.7050 P   0  0  2  0  0  0  0  0  0  0  0  0
   38.5370   27.8840   36.2360 O   0  0  0  0  0  0  0  0  0  0  0  0
   37.9150   28.0170   36.9960 H   0  0  0  0  0  0  0  0  0  0  0  0
   37.1430   26.2170   34.5880 O   0  0  0  0  0  0  0  0  0  0  0  0
   37.5870   26.2620   30.2170 H   0  0  0  0  0  0  0  0  0  0  0  0
   37.2930   26.7940   31.0730 N   0  0  0  0  0  0  0  0  0  0  0  0
   37.3750   26.2380   32.3180 C   0  0  0  0  0  3  0  0  0  0  0  0
   36.9780   26.9560   33.4540 C   0  0  0  0  0  0  0  0  0  0  0  0
   36.5050   28.2440   33.2580 C   0  0  0  0  0  0  0  0  0  0  0  0
   36.1780   28.7970   34.3410 O   0  0  0  0  0  0  0  0  0  0  0  0
   36.4420   28.7500   32.0120 N   0  0  0  0  0  0  0  0  0  0  0  0
   36.8280   28.0400   30.9510 C   0  0  0  0  0  0  0  0  0  0  0  0
   36.7200   28.6260   29.8340 O   0  0  0  0  0  0  0  0  0  0  0  0
   36.0670   29.7400   31.9610 H   0  0  0  0  0  0  0  0  0  0  0  0
  2  1  1  0  0  0  0
  2  5  1  0  0  0  0
  3  2  1  0  0  0  0
  4  2  1  0  0  0  0
  5  6  1  0  0  0  0
  5  7  1  0  0  0  0
  8  5  1  0  0  0  0
  8 13  1  0  0  0  0
  9  8  2  0  0  0  0
 10  9  1  0  0  0  0
 10 11  2  0  0  0  0
 11 12  1  0  0  0  0
 12 13  2  0  0  0  0
 12 16  1  0  0  0  0
 14  9  1  0  0  0  0
 15 10  1  0  0  0  0
 18 17  2  6  0  0  0
 18 19  1  0  0  0  0
 18  1  1  0  0  0  0
 19 20  1  0  0  0  0
 21 18  1  0  0  0  0
 22 23  1  0  0  0  0
 23 24  1  0  0  0  0
 24 25  2  0  0  0  0
 25 21  1  0  0  0  0
 26 25  1  0  0  0  0
 26 27  2  0  0  0  0
 28 26  1  0  0  0  0
 29 23  1  0  0  0  0
 29 28  1  0  0  0  0
 30 29  2  0  0  0  0
 31 28  1  0  0  0  0
M  END
>  <minimizedAffinity>
-4.78499699

$$$$

 OpenBabel03262521483D

 31 32  0  0  0  0  0  0  0  0999 V2000
   38.4240   25.1020   36.4700 O   0  0  0  0  0  0  0  0  0  0  0  0
   39.1700   23.9900   36.0660 C   0  0  0  0  0  0  0  0  0  0  0  0
   39.2970   23.9490   34.9620 H   0  0  0  0  0  0  0  0  0  0  0  0
   40.1980   24.0160   36.5100 H   0  0  0  0  0  0  0  0  0  0  0  0
   38.4890   22.7620   36.5780 C   0  0  0  0  0  0  0  0  0  0  0  0
   37.8460   23.0510   37.4610 H   0  0  0  0  0  0  0  0  0  0  0  0
   39.1890   22.0050   36.9960 H   0  0  0  0  0  0  0  0  0  0  0  0
   37.6180   22.1070   35.6070 C   0  0  0  0  0  0  0  0  0  0  0  0
   37.8670   22.1520   34.2330 C   0  0  0  0  0  0  0  0  0  0  0  0
   36.9690   21.4900   33.3840 C   0  0  0  0  0  0  0  0  0  0  0  0
   35.8910   20.8320   33.9530 N   0  0  0  0  0  0  0  0  0  0  0  0
   35.6930   20.8190   35.2940 C   0  0  0  0  0  0  0  0  0  0  0  0
   36.5720   21.4650   36.1150 N   0  0  0  0  0  0  0  0  0  0  0  0
   38.7250   22.6800   33.8440 H   0  0  0  0  0  0  0  0  0  0  0  0
   37.1080   21.4880   32.3220 H   0  0  0  0  0  0  0  0  0  0  0  0
   34.8350   20.2910   35.6930 H   0  0  0  0  0  0  0  0  0  0  0  0
   39.8720   26.2810   34.6560 O   0  0  0  0  0  0  0  0  0  0  0  0
   38.4980   26.3530   35.3470 P   0  0  2  0  0  0  0  0  0  0  0  0
   38.4250   27.8580   36.0700 O   0  0  0  0  0  0  0  0  0  0  0  0
   37.7970   27.8060   36.8350 H   0  0  0  0  0  0  0  0  0  0  0  0
   37.2690   26.2270   34.2150 O   0  0  0  0  0  0  0  0  0  0  0  0
   37.7810   26.1900   29.8520 H   0  0  0  0  0  0  0  0  0  0  0  0
   37.4660   26.7340   30.6920 N   0  0  0  0  0  0  0  0  0  0  0  0
   37.5360   26.2050   31.9500 C   0  0  0  0  0  3  0  0  0  0  0  0
   37.1110   26.9400   33.0650 C   0  0  0  0  0  0  0  0  0  0  0  0
   36.6220   28.2160   32.8350 C   0  0  0  0  0  0  0  0  0  0  0  0
   36.2700   28.7860   33.9010 O   0  0  0  0  0  0  0  0  0  0  0  0
   36.5720   28.6970   31.5780 N   0  0  0  0  0  0  0  0  0  0  0  0
   36.9840   27.9710   30.5380 C   0  0  0  0  0  0  0  0  0  0  0  0
   36.8860   28.5330   29.4070 O   0  0  0  0  0  0  0  0  0  0  0  0
   36.1840   29.6790   31.5010 H   0  0  0  0  0  0  0  0  0  0  0  0
  2  1  1  0  0  0  0
  2  4  1  0  0  0  0
  2  5  1  0  0  0  0
  3  2  1  0  0  0  0
  5  7  1  0  0  0  0
  5  6  1  0  0  0  0
  8 13  1  0  0  0  0
  8  5  1  0  0  0  0
  9  8  2  0  0  0  0
 10 11  2  0  0  0  0
 10  9  1  0  0  0  0
 11 12  1  0  0  0  0
 12 16  1  0  0  0  0
 12 13  2  0  0  0  0
 14  9  1  0  0  0  0
 15 10  1  0  0  0  0
 18 17  2  6  0  0  0
 18 19  1  0  0  0  0
 18  1  1  0  0  0  0
 19 20  1  0  0  0  0
 21 18  1  0  0  0  0
 22 23  1  0  0  0  0
 23 24  1  0  0  0  0
 24 25  2  0  0  0  0
 25 21  1  0  0  0  0
 26 25  1  0  0  0  0
 26 27  2  0  0  0  0
 28 26  1  0  0  0  0
 29 23  1  0  0  0  0
 29 28  1  0  0  0  0
 30 29  2  0  0  0  0
 31 28  1  0  0  0  0
M  END
>  <minimizedAffinity>
-4.65212154

$$$$

 OpenBabel03262521483D

 31 32  0  0  0  0  0  0  0  0999 V2000
   37.0610   26.0520   33.7470 O   0  0  0  0  0  0  0  0  0  0  0  0
   38.2940   25.8210   34.3650 C   0  0  0  0  0  0  0  0  0  0  0  0
   39.1420   26.2310   33.7730 H   0  0  0  0  0  0  0  0  0  0  0  0
   38.3360   26.3110   35.3710 H   0  0  0  0  0  0  0  0  0  0  0  0
   38.4420   24.3490   34.5740 C   0  0  0  0  0  0  0  0  0  0  0  0
   39.3360   23.9910   33.9810 H   0  0  0  0  0  0  0  0  0  0  0  0
   37.5970   23.7530   34.1630 H   0  0  0  0  0  0  0  0  0  0  0  0
   38.6600   23.9550   35.9620 C   0  0  0  0  0  0  0  0  0  0  0  0
   39.7110   23.1190   36.3430 C   0  0  0  0  0  0  0  0  0  0  0  0
   39.8330   22.8000   37.7030 C   0  0  0  0  0  0  0  0  0  0  0  0
   38.9080   23.3320   38.5880 N   0  0  0  0  0  0  0  0  0  0  0  0
   37.9050   24.1400   38.1660 C   0  0  0  0  0  0  0  0  0  0  0  0
   37.7920   24.4460   36.8400 N   0  0  0  0  0  0  0  0  0  0  0  0
   40.4050   22.7330   35.6110 H   0  0  0  0  0  0  0  0  0  0  0  0
   40.6190   22.1640   38.0560 H   0  0  0  0  0  0  0  0  0  0  0  0
   37.2050   24.5310   38.8950 H   0  0  0  0  0  0  0  0  0  0  0  0
   38.4260   27.6630   32.2250 O   0  0  0  0  0  0  0  0  0  0  0  0
   37.2390   26.6830   32.1980 P   0  0  2  0  0  0  0  0  0  0  0  0
   35.9130   27.5810   31.7240 O   0  0  0  0  0  0  0  0  0  0  0  0
   35.0960   27.1430   32.0780 H   0  0  0  0  0  0  0  0  0  0  0  0
   37.5110   25.4690   31.0760 O   0  0  0  0  0  0  0  0  0  0  0  0
   38.5870   21.2140   30.8890 H   0  0  0  0  0  0  0  0  0  0  0  0
   37.8140   21.9180   30.9710 N   0  0  0  0  0  0  0  0  0  0  0  0
   38.0720   23.2600   30.9790 C   0  0  0  0  0  3  0  0  0  0  0  0
   37.0330   24.1930   31.0890 C   0  0  0  0  0  0  0  0  0  0  0  0
   35.7420   23.6960   31.1870 C   0  0  0  0  0  0  0  0  0  0  0  0
   34.8880   24.6160   31.2800 O   0  0  0  0  0  0  0  0  0  0  0  0
   35.5350   22.3660   31.1750 N   0  0  0  0  0  0  0  0  0  0  0  0
   36.5480   21.5040   31.0690 C   0  0  0  0  0  0  0  0  0  0  0  0
   36.2250   20.2790   31.0690 O   0  0  0  0  0  0  0  0  0  0  0  0
   34.5180   22.0810   31.2550 H   0  0  0  0  0  0  0  0  0  0  0  0
  1  2  1  0  0  0  0
  2  5  1  0  0  0  0
  2  4  1  0  0  0  0
  3  2  1  0  0  0  0
  5  8  1  0  0  0  0
  6  5  1  0  0  0  0
  7  5  1  0  0  0  0
  8  9  2  0  0  0  0
  8 13  1  0  0  0  0
  9 10  1  0  0  0  0
 10 15  1  0  0  0  0
 10 11  2  0  0  0  0
 12 11  1  0  0  0  0
 12 16  1  0  0  0  0
 13 12  2  0  0  0  0
 14  9  1  0  0  0  0
 18 17  2  1  0  0  0
 18  1  1  0  0  0  0
 19 20  1  0  0  0  0
 19 18  1  0  0  0  0
 21 25  1  0  0  0  0
 21 18  1  0  0  0  0
 22 23  1  0  0  0  0
 23 24  1  0  0  0  0
 23 29  1  0  0  0  0
 24 25  2  0  0  0  0
 25 26  1  0  0  0  0
 26 27  2  0  0  0  0
 28 26  1  0  0  0  0
 28 31  1  0  0  0  0
 29 28  1  0  0  0  0
 30 29  2  0  0  0  0
M  END
>  <minimizedAffinity>
-4.58680439

$$$$

 OpenBabel03262521483D

 31 32  0  0  0  0  0  0  0  0999 V2000
   39.0710   23.8450   32.3850 O   0  0  0  0  0  0  0  0  0  0  0  0
   38.6690   23.4610   33.6680 C   0  0  0  0  0  0  0  0  0  0  0  0
   37.5650   23.3400   33.7420 H   0  0  0  0  0  0  0  0  0  0  0  0
   39.1220   22.4780   33.9530 H   0  0  0  0  0  0  0  0  0  0  0  0
   39.1650   24.4860   34.6370 C   0  0  0  0  0  0  0  0  0  0  0  0
   38.5800   25.4390   34.4820 H   0  0  0  0  0  0  0  0  0  0  0  0
   40.2200   24.7910   34.4600 H   0  0  0  0  0  0  0  0  0  0  0  0
   39.0160   24.1110   36.0400 C   0  0  0  0  0  0  0  0  0  0  0  0
   38.0020   24.6320   36.8460 C   0  0  0  0  0  0  0  0  0  0  0  0
   37.9450   24.2080   38.1810 C   0  0  0  0  0  0  0  0  0  0  0  0
   38.8940   23.3000   38.6230 N   0  0  0  0  0  0  0  0  0  0  0  0
   39.8600   22.8250   37.7980 C   0  0  0  0  0  0  0  0  0  0  0  0
   39.9090   23.2420   36.4990 N   0  0  0  0  0  0  0  0  0  0  0  0
   37.2870   25.3370   36.4490 H   0  0  0  0  0  0  0  0  0  0  0  0
   37.1890   24.5710   38.8480 H   0  0  0  0  0  0  0  0  0  0  0  0
   40.5810   22.1160   38.1890 H   0  0  0  0  0  0  0  0  0  0  0  0
   36.5460   24.4640   32.2410 O   0  0  0  0  0  0  0  0  0  0  0  0
   37.9140   24.7960   31.6180 P   0  0  2  0  0  0  0  0  0  0  0  0
   37.7770   24.4390   29.9920 O   0  0  0  0  0  0  0  0  0  0  0  0
   38.6820   24.2350   29.6400 H   0  0  0  0  0  0  0  0  0  0  0  0
   38.2550   26.4270   31.7960 O   0  0  0  0  0  0  0  0  0  0  0  0
   36.2070   29.3290   29.2120 H   0  0  0  0  0  0  0  0  0  0  0  0
   36.3560   28.9810   30.1900 N   0  0  0  0  0  0  0  0  0  0  0  0
   37.1930   27.9330   30.4520 C   0  0  0  0  0  3  0  0  0  0  0  0
   37.3850   27.4750   31.7620 C   0  0  0  0  0  0  0  0  0  0  0  0
   36.6940   28.1290   32.7710 C   0  0  0  0  0  0  0  0  0  0  0  0
   36.9390   27.6400   33.9050 O   0  0  0  0  0  0  0  0  0  0  0  0
   35.8810   29.1570   32.4660 N   0  0  0  0  0  0  0  0  0  0  0  0
   35.7200   29.5680   31.2070 C   0  0  0  0  0  0  0  0  0  0  0  0
   34.9280   30.5440   31.0490 O   0  0  0  0  0  0  0  0  0  0  0  0
   35.3960   29.5940   33.3000 H   0  0  0  0  0  0  0  0  0  0  0  0
  1  2  1  0  0  0  0
  2  3  1  0  0  0  0
  2  4  1  0  0  0  0
  2  5  1  0  0  0  0
  5  8  1  0  0  0  0
  6  5  1  0  0  0  0
  7  5  1  0  0  0  0
  8 13  2  0  0  0  0
  8  9  1  0  0  0  0
  9 10  2  0  0  0  0
 10 11  1  0  0  0  0
 10 15  1  0  0  0  0
 12 16  1  0  0  0  0
 12 11  2  0  0  0  0
 13 12  1  0  0  0  0
 14  9  1  0  0  0  0
 18 21  1  0  0  0  0
 18 17  2  1  0  0  0
 18  1  1  0  0  0  0
 19 18  1  0  0  0  0
 20 19  1  0  0  0  0
 22 23  1  0  0  0  0
 23 24  1  0  0  0  0
 23 29  1  0  0  0  0
 24 25  2  0  0  0  0
 25 21  1  0  0  0  0
 25 26  1  0  0  0  0
 26 27  2  0  0  0  0
 28 26  1  0  0  0  0
 28 31  1  0  0  0  0
 29 28  1  0  0  0  0
 30 29  2  0  0  0  0
M  END
>  <minimizedAffinity>
-4.52819586

$$$$

 OpenBabel03262521483D

 31 32  0  0  0  0  0  0  0  0999 V2000
   36.1890   23.7750   32.2350 O   0  0  0  0  0  0  0  0  0  0  0  0
   37.2550   24.5760   31.8130 C   0  0  0  0  0  0  0  0  0  0  0  0
   38.2340   24.2010   32.1870 H   0  0  0  0  0  0  0  0  0  0  0  0
   37.3220   24.5970   30.6960 H   0  0  0  0  0  0  0  0  0  0  0  0
   36.9990   25.9740   32.2760 C   0  0  0  0  0  0  0  0  0  0  0  0
   35.9080   26.0640   32.5570 H   0  0  0  0  0  0  0  0  0  0  0  0
   37.1310   26.7380   31.4790 H   0  0  0  0  0  0  0  0  0  0  0  0
   37.7790   26.3750   33.4420 C   0  0  0  0  0  0  0  0  0  0  0  0
   37.1820   26.7160   34.6570 C   0  0  0  0  0  0  0  0  0  0  0  0
   38.0210   27.0880   35.7170 C   0  0  0  0  0  0  0  0  0  0  0  0
   39.3890   27.0970   35.4990 N   0  0  0  0  0  0  0  0  0  0  0  0
   39.9200   26.7580   34.2990 C   0  0  0  0  0  0  0  0  0  0  0  0
   39.0970   26.3960   33.2710 N   0  0  0  0  0  0  0  0  0  0  0  0
   36.1080   26.6910   34.7720 H   0  0  0  0  0  0  0  0  0  0  0  0
   37.6210   27.3590   36.6730 H   0  0  0  0  0  0  0  0  0  0  0  0
   40.9960   26.7800   34.1760 H   0  0  0  0  0  0  0  0  0  0  0  0
   37.0930   21.7550   30.8650 O   0  0  0  0  0  0  0  0  0  0  0  0
   36.6000   22.1440   32.2700 P   0  0  2  0  0  0  0  0  0  0  0  0
   35.2820   21.1660   32.5820 O   0  0  0  0  0  0  0  0  0  0  0  0
   34.6980   21.6280   33.2380 H   0  0  0  0  0  0  0  0  0  0  0  0
   37.7900   21.8430   33.4100 O   0  0  0  0  0  0  0  0  0  0  0  0
   39.8010   24.4520   36.3170 H   0  0  0  0  0  0  0  0  0  0  0  0
   39.0480   23.7400   36.1540 N   0  0  0  0  0  0  0  0  0  0  0  0
   38.8360   23.1990   34.9180 C   0  0  0  0  0  3  0  0  0  0  0  0
   37.8280   22.2480   34.7110 C   0  0  0  0  0  0  0  0  0  0  0  0
   37.0640   21.8840   35.8090 C   0  0  0  0  0  0  0  0  0  0  0  0
   36.1900   21.0260   35.5130 O   0  0  0  0  0  0  0  0  0  0  0  0
   37.3090   22.4430   37.0090 N   0  0  0  0  0  0  0  0  0  0  0  0
   38.2770   23.3460   37.1720 C   0  0  0  0  0  0  0  0  0  0  0  0
   38.4090   23.7990   38.3480 O   0  0  0  0  0  0  0  0  0  0  0  0
   36.6750   22.1040   37.7870 H   0  0  0  0  0  0  0  0  0  0  0  0
  1 18  1  0  0  0  0
  2  3  1  0  0  0  0
  2  1  1  0  0  0  0
  2  5  1  0  0  0  0
  4  2  1  0  0  0  0
  5  6  1  0  0  0  0
  5  8  1  0  0  0  0
  7  5  1  0  0  0  0
  8  9  1  0  0  0  0
  9 14  1  0  0  0  0
  9 10  2  0  0  0  0
 10 15  1  0  0  0  0
 11 10  1  0  0  0  0
 12 11  2  0  0  0  0
 13  8  2  0  0  0  0
 13 12  1  0  0  0  0
 16 12  1  0  0  0  0
 18 17  2  6  0  0  0
 18 19  1  0  0  0  0
 18 21  1  0  0  0  0
 19 20  1  0  0  0  0
 21 25  1  0  0  0  0
 23 22  1  0  0  0  0
 23 29  1  0  0  0  0
 24 23  1  0  0  0  0
 25 24  2  0  0  0  0
 25 26  1  0  0  0  0
 26 28  1  0  0  0  0
 27 26  2  0  0  0  0
 28 29  1  0  0  0  0
 28 31  1  0  0  0  0
 29 30  2  0  0  0  0
M  END
>  <minimizedAffinity>
-4.46473217

$$$$
