
 OpenBabel03272508093D

 25 26  0  0  0  0  0  0  0  0999 V2000
   37.0520   27.4170   35.1720 O   0  0  0  0  0  0  0  0  0  0  0  0
   38.0800   26.3420   34.9810 P   0  0  2  0  0  0  0  0  0  0  0  0
   39.5960   26.8930   35.5230 O   0  0  0  0  0  0  0  0  0  0  0  0
   40.3230   26.4300   35.0280 H   0  0  0  0  0  0  0  0  0  0  0  0
   38.2030   25.7930   33.3950 O   0  0  0  0  0  0  0  0  0  0  0  0
   35.4290   25.0140   31.0660 C   0  0  0  0  0  0  0  0  0  0  0  0
   36.3030   25.8300   31.8070 C   0  0  0  0  0  0  0  0  0  0  0  0
   37.2750   25.2170   32.6120 C   0  0  0  0  0  0  0  0  0  0  0  0
   37.3120   23.8540   32.6230 N   0  0  0  0  0  0  0  0  0  0  0  0
   36.4590   23.1140   31.8990 C   0  0  0  0  0  0  0  0  0  0  0  0
   35.5210   23.6830   31.1240 N   0  0  0  0  0  0  0  0  0  0  0  0
   34.7490   25.6600   30.5060 H   0  0  0  0  0  0  0  0  0  0  0  0
   36.3460   26.8910   31.8570 H   0  0  0  0  0  0  0  0  0  0  0  0
   36.4640   22.0270   31.8890 H   0  0  0  0  0  0  0  0  0  0  0  0
   37.6310   25.0610   35.9930 O   0  0  0  0  0  0  0  0  0  0  0  0
   40.9550   22.2540   35.3280 H   0  0  0  0  0  0  0  0  0  0  0  0
   40.2920   22.6880   36.0030 N   0  0  0  0  0  0  0  0  0  0  0  0
   39.3580   23.6080   35.6220 C   0  0  0  0  0  3  0  0  0  0  0  0
   38.4990   24.1510   36.5850 C   0  0  0  0  0  0  0  0  0  0  0  0
   38.6000   23.7550   37.9030 C   0  0  0  0  0  0  0  0  0  0  0  0
   37.7800   24.3140   38.6470 O   0  0  0  0  0  0  0  0  0  0  0  0
   39.5260   22.8490   38.2510 N   0  0  0  0  0  0  0  0  0  0  0  0
   40.3470   22.3380   37.2980 C   0  0  0  0  0  0  0  0  0  0  0  0
   41.1800   21.4940   37.7410 O   0  0  0  0  0  0  0  0  0  0  0  0
   39.5660   22.5800   39.2560 H   0  0  0  0  0  0  0  0  0  0  0  0
  2  1  2  1  0  0  0
  2  3  1  0  0  0  0
  2 15  1  0  0  0  0
  4  3  1  0  0  0  0
  5  2  1  0  0  0  0
  6 11  2  0  0  0  0
  6  7  1  0  0  0  0
  7 13  1  0  0  0  0
  7  8  2  0  0  0  0
  8  9  1  0  0  0  0
  8  5  1  0  0  0  0
 10  9  2  0  0  0  0
 11 10  1  0  0  0  0
 12  6  1  0  0  0  0
 14 10  1  0  0  0  0
 15 19  1  0  0  0  0
 16 17  1  0  0  0  0
 17 23  1  0  0  0  0
 18 17  1  0  0  0  0
 18 19  2  0  0  0  0
 19 20  1  0  0  0  0
 20 22  1  0  0  0  0
 20 21  2  0  0  0  0
 22 25  1  0  0  0  0
 23 24  2  0  0  0  0
 23 22  1  0  0  0  0
M  END
>  <minimizedAffinity>
-5.22032404

$$$$

 OpenBabel03272508093D

 25 26  0  0  0  0  0  0  0  0999 V2000
   38.4200   27.0230   36.6670 O   0  0  0  0  0  0  0  0  0  0  0  0
   38.1380   26.4150   35.3250 P   0  0  2  0  0  0  0  0  0  0  0  0
   39.5190   26.5350   34.3380 O   0  0  0  0  0  0  0  0  0  0  0  0
   39.2500   26.5670   33.3800 H   0  0  0  0  0  0  0  0  0  0  0  0
   36.8110   27.0890   34.5400 O   0  0  0  0  0  0  0  0  0  0  0  0
   36.1160   28.8720   31.3670 C   0  0  0  0  0  0  0  0  0  0  0  0
   36.1590   28.6830   32.7610 C   0  0  0  0  0  0  0  0  0  0  0  0
   36.6770   27.4790   33.2610 C   0  0  0  0  0  0  0  0  0  0  0  0
   37.1110   26.5580   32.3530 N   0  0  0  0  0  0  0  0  0  0  0  0
   37.0530   26.7800   31.0320 C   0  0  0  0  0  0  0  0  0  0  0  0
   36.5600   27.9270   30.5350 N   0  0  0  0  0  0  0  0  0  0  0  0
   35.6880   29.8560   31.1680 H   0  0  0  0  0  0  0  0  0  0  0  0
   35.8450   29.3420   33.5350 H   0  0  0  0  0  0  0  0  0  0  0  0
   37.3910   26.0650   30.2860 H   0  0  0  0  0  0  0  0  0  0  0  0
   37.8640   24.7650   35.5910 O   0  0  0  0  0  0  0  0  0  0  0  0
   41.3740   22.1190   35.3710 H   0  0  0  0  0  0  0  0  0  0  0  0
   40.6160   22.5280   35.9550 N   0  0  0  0  0  0  0  0  0  0  0  0
   39.6900   23.3960   35.4500 C   0  0  0  0  0  3  0  0  0  0  0  0
   38.6990   23.9070   36.2970 C   0  0  0  0  0  0  0  0  0  0  0  0
   38.6620   23.5330   37.6250 C   0  0  0  0  0  0  0  0  0  0  0  0
   37.7350   24.0600   38.2570 O   0  0  0  0  0  0  0  0  0  0  0  0
   39.5830   22.6790   38.0950 N   0  0  0  0  0  0  0  0  0  0  0  0
   40.5350   22.1970   37.2540 C   0  0  0  0  0  0  0  0  0  0  0  0
   41.3490   21.4010   37.8070 O   0  0  0  0  0  0  0  0  0  0  0  0
   39.5170   22.4240   39.1020 H   0  0  0  0  0  0  0  0  0  0  0  0
  2 15  1  0  0  0  0
  2  1  2  1  0  0  0
  3  2  1  0  0  0  0
  4  3  1  0  0  0  0
  5  2  1  0  0  0  0
  6  7  1  0  0  0  0
  7  8  2  0  0  0  0
  7 13  1  0  0  0  0
  8  5  1  0  0  0  0
  9  8  1  0  0  0  0
 10  9  2  0  0  0  0
 11 10  1  0  0  0  0
 11  6  2  0  0  0  0
 12  6  1  0  0  0  0
 14 10  1  0  0  0  0
 15 19  1  0  0  0  0
 16 17  1  0  0  0  0
 17 23  1  0  0  0  0
 18 17  1  0  0  0  0
 18 19  2  0  0  0  0
 19 20  1  0  0  0  0
 20 22  1  0  0  0  0
 20 21  2  0  0  0  0
 22 25  1  0  0  0  0
 23 24  2  0  0  0  0
 23 22  1  0  0  0  0
M  END
>  <minimizedAffinity>
-5.00122643

$$$$

 OpenBabel03272508093D

 25 26  0  0  0  0  0  0  0  0999 V2000
   41.1240   26.9160   34.6620 O   0  0  0  0  0  0  0  0  0  0  0  0
   39.6400   26.7000   34.6230 P   0  0  2  0  0  0  0  0  0  0  0  0
   38.8810   27.7160   35.7580 O   0  0  0  0  0  0  0  0  0  0  0  0
   38.0290   27.3040   36.0660 H   0  0  0  0  0  0  0  0  0  0  0  0
   39.1790   25.1030   34.8840 O   0  0  0  0  0  0  0  0  0  0  0  0
   39.7060   22.7340   37.6840 C   0  0  0  0  0  0  0  0  0  0  0  0
   39.9430   23.3250   36.4290 C   0  0  0  0  0  0  0  0  0  0  0  0
   39.1320   24.3970   36.0270 C   0  0  0  0  0  0  0  0  0  0  0  0
   38.1580   24.8050   36.8890 N   0  0  0  0  0  0  0  0  0  0  0  0
   37.9670   24.2140   38.0770 C   0  0  0  0  0  0  0  0  0  0  0  0
   38.7320   23.1850   38.4780 N   0  0  0  0  0  0  0  0  0  0  0  0
   40.4260   21.9250   37.8230 H   0  0  0  0  0  0  0  0  0  0  0  0
   40.6740   23.0740   35.6990 H   0  0  0  0  0  0  0  0  0  0  0  0
   37.1980   24.5160   38.7840 H   0  0  0  0  0  0  0  0  0  0  0  0
   39.1210   27.1990   33.0910 O   0  0  0  0  0  0  0  0  0  0  0  0
   37.1780   24.5820   30.1330 H   0  0  0  0  0  0  0  0  0  0  0  0
   37.0750   25.3380   30.8410 N   0  0  0  0  0  0  0  0  0  0  0  0
   38.1350   25.8290   31.5480 C   0  0  0  0  0  3  0  0  0  0  0  0
   37.9200   26.8460   32.4850 C   0  0  0  0  0  0  0  0  0  0  0  0
   36.6490   27.3450   32.6860 C   0  0  0  0  0  0  0  0  0  0  0  0
   36.6040   28.2400   33.5430 O   0  0  0  0  0  0  0  0  0  0  0  0
   35.6250   26.8470   31.9780 N   0  0  0  0  0  0  0  0  0  0  0  0
   35.8590   25.8600   31.0750 C   0  0  0  0  0  0  0  0  0  0  0  0
   34.8210   25.4670   30.4670 O   0  0  0  0  0  0  0  0  0  0  0  0
   34.6840   27.2530   32.1620 H   0  0  0  0  0  0  0  0  0  0  0  0
  2  1  2  1  0  0  0
  2  5  1  0  0  0  0
  2  3  1  0  0  0  0
  3  4  1  0  0  0  0
  5  8  1  0  0  0  0
  6 12  1  0  0  0  0
  6 11  1  0  0  0  0
  7  6  2  0  0  0  0
  8  7  1  0  0  0  0
  8  9  2  0  0  0  0
  9 10  1  0  0  0  0
 10 11  2  0  0  0  0
 10 14  1  0  0  0  0
 13  7  1  0  0  0  0
 15  2  1  0  0  0  0
 16 17  1  0  0  0  0
 17 23  1  0  0  0  0
 17 18  1  0  0  0  0
 18 19  2  0  0  0  0
 19 20  1  0  0  0  0
 19 15  1  0  0  0  0
 20 21  2  0  0  0  0
 22 25  1  0  0  0  0
 22 20  1  0  0  0  0
 23 22  1  0  0  0  0
 24 23  2  0  0  0  0
M  END
>  <minimizedAffinity>
-4.95865011

$$$$

 OpenBabel03272508093D

 25 26  0  0  0  0  0  0  0  0999 V2000
   39.4690   27.1850   35.2040 O   0  0  0  0  0  0  0  0  0  0  0  0
   38.1100   26.6940   34.8000 P   0  0  2  0  0  0  0  0  0  0  0  0
   37.0090   27.9920   34.7920 O   0  0  0  0  0  0  0  0  0  0  0  0
   36.0890   27.6570   34.9710 H   0  0  0  0  0  0  0  0  0  0  0  0
   37.5220   25.4480   35.7660 O   0  0  0  0  0  0  0  0  0  0  0  0
   38.7630   23.4160   38.6050 C   0  0  0  0  0  0  0  0  0  0  0  0
   37.9290   24.3340   37.9390 C   0  0  0  0  0  0  0  0  0  0  0  0
   38.1820   24.6150   36.5880 C   0  0  0  0  0  0  0  0  0  0  0  0
   39.2310   23.9720   35.9990 N   0  0  0  0  0  0  0  0  0  0  0  0
   40.0000   23.1040   36.6710 C   0  0  0  0  0  0  0  0  0  0  0  0
   39.7740   22.8230   37.9650 N   0  0  0  0  0  0  0  0  0  0  0  0
   38.4180   23.3260   39.6360 H   0  0  0  0  0  0  0  0  0  0  0  0
   37.0970   24.8760   38.3170 H   0  0  0  0  0  0  0  0  0  0  0  0
   40.8420   22.5770   36.2290 H   0  0  0  0  0  0  0  0  0  0  0  0
   38.2490   26.1560   33.2000 O   0  0  0  0  0  0  0  0  0  0  0  0
   37.6220   21.8920   32.3090 H   0  0  0  0  0  0  0  0  0  0  0  0
   37.2800   22.8700   32.2140 N   0  0  0  0  0  0  0  0  0  0  0  0
   37.9460   23.9350   32.7500 C   0  0  0  0  0  3  0  0  0  0  0  0
   37.4240   25.2230   32.5820 C   0  0  0  0  0  0  0  0  0  0  0  0
   36.2500   25.4090   31.8820 C   0  0  0  0  0  0  0  0  0  0  0  0
   35.9040   26.5970   31.8110 O   0  0  0  0  0  0  0  0  0  0  0  0
   35.6160   24.3460   31.3650 N   0  0  0  0  0  0  0  0  0  0  0  0
   36.1410   23.1070   31.5410 C   0  0  0  0  0  0  0  0  0  0  0  0
   35.4580   22.1820   31.0120 O   0  0  0  0  0  0  0  0  0  0  0  0
   34.7340   24.5330   30.8440 H   0  0  0  0  0  0  0  0  0  0  0  0
  2  1  2  1  0  0  0
  2  5  1  0  0  0  0
  3  2  1  0  0  0  0
  3  4  1  0  0  0  0
  5  8  1  0  0  0  0
  6 12  1  0  0  0  0
  7 13  1  0  0  0  0
  7  6  2  0  0  0  0
  8  7  1  0  0  0  0
  9  8  2  0  0  0  0
  9 10  1  0  0  0  0
 10 11  2  0  0  0  0
 11  6  1  0  0  0  0
 14 10  1  0  0  0  0
 15  2  1  0  0  0  0
 17 16  1  0  0  0  0
 17 18  1  0  0  0  0
 19 18  2  0  0  0  0
 19 15  1  0  0  0  0
 20 19  1  0  0  0  0
 21 20  2  0  0  0  0
 22 23  1  0  0  0  0
 22 20  1  0  0  0  0
 23 17  1  0  0  0  0
 24 23  2  0  0  0  0
 25 22  1  0  0  0  0
M  END
>  <minimizedAffinity>
-4.82774067

$$$$

 OpenBabel03272508093D

 25 26  0  0  0  0  0  0  0  0999 V2000
   39.0230   27.3610   35.1070 O   0  0  0  0  0  0  0  0  0  0  0  0
   37.7570   26.6820   34.6720 P   0  0  2  0  0  0  0  0  0  0  0  0
   36.4980   27.8230   34.5750 O   0  0  0  0  0  0  0  0  0  0  0  0
   35.6230   27.3770   34.7330 H   0  0  0  0  0  0  0  0  0  0  0  0
   37.2970   25.4020   35.6630 O   0  0  0  0  0  0  0  0  0  0  0  0
   38.8120   23.3760   38.3690 C   0  0  0  0  0  0  0  0  0  0  0  0
   37.8870   24.2540   37.7760 C   0  0  0  0  0  0  0  0  0  0  0  0
   38.0520   24.5910   36.4240 C   0  0  0  0  0  0  0  0  0  0  0  0
   39.1090   24.0390   35.7640 N   0  0  0  0  0  0  0  0  0  0  0  0
   39.9670   23.2050   36.3680 C   0  0  0  0  0  0  0  0  0  0  0  0
   39.8260   22.8720   37.6620 N   0  0  0  0  0  0  0  0  0  0  0  0
   38.5260   23.2310   39.4130 H   0  0  0  0  0  0  0  0  0  0  0  0
   37.0400   24.7270   38.2110 H   0  0  0  0  0  0  0  0  0  0  0  0
   40.8190   22.7510   35.8690 H   0  0  0  0  0  0  0  0  0  0  0  0
   38.0310   26.1150   33.1000 O   0  0  0  0  0  0  0  0  0  0  0  0
   39.6510   28.6990   29.9260 H   0  0  0  0  0  0  0  0  0  0  0  0
   38.8280   28.1950   30.3160 N   0  0  0  0  0  0  0  0  0  0  0  0
   38.8970   27.4570   31.4630 C   0  0  0  0  0  3  0  0  0  0  0  0
   37.7480   26.8050   31.9270 C   0  0  0  0  0  0  0  0  0  0  0  0
   36.5620   26.9120   31.2290 C   0  0  0  0  0  0  0  0  0  0  0  0
   35.6280   26.2850   31.7510 O   0  0  0  0  0  0  0  0  0  0  0  0
   36.5220   27.6430   30.1050 N   0  0  0  0  0  0  0  0  0  0  0  0
   37.6490   28.2650   29.6760 C   0  0  0  0  0  0  0  0  0  0  0  0
   37.4930   28.9250   28.6070 O   0  0  0  0  0  0  0  0  0  0  0  0
   35.6070   27.6950   29.6110 H   0  0  0  0  0  0  0  0  0  0  0  0
  2  1  2  1  0  0  0
  2  5  1  0  0  0  0
  3  2  1  0  0  0  0
  3  4  1  0  0  0  0
  5  8  1  0  0  0  0
  6 12  1  0  0  0  0
  7 13  1  0  0  0  0
  7  6  1  0  0  0  0
  8  7  2  0  0  0  0
  9 10  2  0  0  0  0
  9  8  1  0  0  0  0
 10 11  1  0  0  0  0
 11  6  2  0  0  0  0
 14 10  1  0  0  0  0
 15  2  1  0  0  0  0
 16 17  1  0  0  0  0
 17 18  1  0  0  0  0
 18 19  2  0  0  0  0
 19 15  1  0  0  0  0
 20 21  2  0  0  0  0
 20 19  1  0  0  0  0
 22 20  1  0  0  0  0
 23 22  1  0  0  0  0
 23 17  1  0  0  0  0
 24 23  2  0  0  0  0
 25 22  1  0  0  0  0
M  END
>  <minimizedAffinity>
-4.7659483

$$$$

 OpenBabel03272508093D

 25 26  0  0  0  0  0  0  0  0999 V2000
   36.6200   25.3580   32.4380 O   0  0  0  0  0  0  0  0  0  0  0  0
   36.9350   24.0110   31.8580 P   0  0  2  0  0  0  0  0  0  0  0  0
   37.4560   24.1860   30.2480 O   0  0  0  0  0  0  0  0  0  0  0  0
   37.2430   23.3630   29.7310 H   0  0  0  0  0  0  0  0  0  0  0  0
   35.6540   22.9220   31.9320 O   0  0  0  0  0  0  0  0  0  0  0  0
   35.0490   19.2700   32.0790 C   0  0  0  0  0  0  0  0  0  0  0  0
   34.8830   20.6230   32.4290 C   0  0  0  0  0  0  0  0  0  0  0  0
   35.6490   21.5890   31.7610 C   0  0  0  0  0  0  0  0  0  0  0  0
   36.5140   21.1510   30.8020 N   0  0  0  0  0  0  0  0  0  0  0  0
   36.6400   19.8520   30.4990 C   0  0  0  0  0  0  0  0  0  0  0  0
   35.9160   18.9110   31.1290 N   0  0  0  0  0  0  0  0  0  0  0  0
   34.3780   18.6710   32.6970 H   0  0  0  0  0  0  0  0  0  0  0  0
   34.2370   21.0500   33.1580 H   0  0  0  0  0  0  0  0  0  0  0  0
   37.3210   19.4730   29.7410 H   0  0  0  0  0  0  0  0  0  0  0  0
   38.2490   23.4030   32.7370 O   0  0  0  0  0  0  0  0  0  0  0  0
   37.5150   21.3430   36.5570 H   0  0  0  0  0  0  0  0  0  0  0  0
   37.9030   22.1750   36.0660 N   0  0  0  0  0  0  0  0  0  0  0  0
   37.8560   22.3130   34.7090 C   0  0  0  0  0  3  0  0  0  0  0  0
   38.3980   23.4610   34.1180 C   0  0  0  0  0  0  0  0  0  0  0  0
   38.9710   24.4390   34.9050 C   0  0  0  0  0  0  0  0  0  0  0  0
   39.4110   25.3970   34.2530 O   0  0  0  0  0  0  0  0  0  0  0  0
   39.0030   24.2800   36.2360 N   0  0  0  0  0  0  0  0  0  0  0  0
   38.4710   23.1580   36.7850 C   0  0  0  0  0  0  0  0  0  0  0  0
   38.5580   23.1160   38.0470 O   0  0  0  0  0  0  0  0  0  0  0  0
   39.4450   25.0430   36.7900 H   0  0  0  0  0  0  0  0  0  0  0  0
  2  5  1  0  0  0  0
  2  1  2  1  0  0  0
  2 15  1  0  0  0  0
  3  2  1  0  0  0  0
  4  3  1  0  0  0  0
  6  7  1  0  0  0  0
  6 12  1  0  0  0  0
  7 13  1  0  0  0  0
  8  5  1  0  0  0  0
  8  7  2  0  0  0  0
  9  8  1  0  0  0  0
 10  9  2  0  0  0  0
 10 11  1  0  0  0  0
 11  6  2  0  0  0  0
 14 10  1  0  0  0  0
 15 19  1  0  0  0  0
 17 16  1  0  0  0  0
 17 23  1  0  0  0  0
 18 17  1  0  0  0  0
 19 18  2  0  0  0  0
 19 20  1  0  0  0  0
 20 22  1  0  0  0  0
 21 20  2  0  0  0  0
 22 23  1  0  0  0  0
 22 25  1  0  0  0  0
 23 24  2  0  0  0  0
M  END
>  <minimizedAffinity>
-4.64119673

$$$$

 OpenBabel03272508093D

 25 26  0  0  0  0  0  0  0  0999 V2000
   38.5520   27.1590   36.1590 O   0  0  0  0  0  0  0  0  0  0  0  0
   39.1950   26.3570   35.0660 P   0  0  2  0  0  0  0  0  0  0  0  0
   40.8880   26.4790   35.1850 O   0  0  0  0  0  0  0  0  0  0  0  0
   41.3010   26.3600   34.2870 H   0  0  0  0  0  0  0  0  0  0  0  0
   38.6950   26.7920   33.5200 O   0  0  0  0  0  0  0  0  0  0  0  0
   35.5940   28.8030   33.2650 C   0  0  0  0  0  0  0  0  0  0  0  0
   36.5570   27.9860   33.8850 C   0  0  0  0  0  0  0  0  0  0  0  0
   37.6660   27.5670   33.1360 C   0  0  0  0  0  0  0  0  0  0  0  0
   37.7420   27.9850   31.8400 N   0  0  0  0  0  0  0  0  0  0  0  0
   36.8020   28.7650   31.2890 C   0  0  0  0  0  0  0  0  0  0  0  0
   35.7320   29.1750   31.9910 N   0  0  0  0  0  0  0  0  0  0  0  0
   34.8120   29.0260   33.9950 H   0  0  0  0  0  0  0  0  0  0  0  0
   36.5770   27.6150   34.8820 H   0  0  0  0  0  0  0  0  0  0  0  0
   36.8350   29.1130   30.2590 H   0  0  0  0  0  0  0  0  0  0  0  0
   38.7960   24.7380   35.3590 O   0  0  0  0  0  0  0  0  0  0  0  0
   39.6320   22.1850   38.8460 H   0  0  0  0  0  0  0  0  0  0  0  0
   39.9100   22.4870   37.8890 N   0  0  0  0  0  0  0  0  0  0  0  0
   39.2090   23.4220   37.1830 C   0  0  0  0  0  3  0  0  0  0  0  0
   39.6440   23.7780   35.9010 C   0  0  0  0  0  0  0  0  0  0  0  0
   40.7690   23.1880   35.3620 C   0  0  0  0  0  0  0  0  0  0  0  0
   41.0380   23.5950   34.2230 O   0  0  0  0  0  0  0  0  0  0  0  0
   41.4400   22.2730   36.0770 N   0  0  0  0  0  0  0  0  0  0  0  0
   40.9990   21.9440   37.3190 C   0  0  0  0  0  0  0  0  0  0  0  0
   41.7090   21.0710   37.8980 O   0  0  0  0  0  0  0  0  0  0  0  0
   42.2830   21.8540   35.6320 H   0  0  0  0  0  0  0  0  0  0  0  0
  2  3  1  0  0  0  0
  2 15  1  0  0  0  0
  2  1  2  1  0  0  0
  4  3  1  0  0  0  0
  5  2  1  0  0  0  0
  6  7  1  0  0  0  0
  6 12  1  0  0  0  0
  7 13  1  0  0  0  0
  8  5  1  0  0  0  0
  8  7  2  0  0  0  0
  9  8  1  0  0  0  0
 10  9  2  0  0  0  0
 10 11  1  0  0  0  0
 11  6  2  0  0  0  0
 14 10  1  0  0  0  0
 15 19  1  0  0  0  0
 17 16  1  0  0  0  0
 18 17  1  0  0  0  0
 19 18  2  0  0  0  0
 20 19  1  0  0  0  0
 20 22  1  0  0  0  0
 21 20  2  0  0  0  0
 22 23  1  0  0  0  0
 23 17  1  0  0  0  0
 23 24  2  0  0  0  0
 25 22  1  0  0  0  0
M  END
>  <minimizedAffinity>
-4.61708403

$$$$

 OpenBabel03272508093D

 25 26  0  0  0  0  0  0  0  0999 V2000
   37.5950   23.0530   31.9530 O   0  0  0  0  0  0  0  0  0  0  0  0
   38.0260   23.7670   33.1990 P   0  0  2  0  0  0  0  0  0  0  0  0
   39.6810   24.1510   33.0980 O   0  0  0  0  0  0  0  0  0  0  0  0
   40.0750   24.1990   34.0100 H   0  0  0  0  0  0  0  0  0  0  0  0
   37.7220   22.9090   34.6140 O   0  0  0  0  0  0  0  0  0  0  0  0
   38.9020   23.2820   38.1060 C   0  0  0  0  0  0  0  0  0  0  0  0
   38.0160   23.4120   37.0210 C   0  0  0  0  0  0  0  0  0  0  0  0
   38.4010   22.8960   35.7740 C   0  0  0  0  0  0  0  0  0  0  0  0
   39.6210   22.2940   35.6930 N   0  0  0  0  0  0  0  0  0  0  0  0
   40.4350   22.1910   36.7540 C   0  0  0  0  0  0  0  0  0  0  0  0
   40.0840   22.6800   37.9560 N   0  0  0  0  0  0  0  0  0  0  0  0
   38.4380   23.7370   38.9830 H   0  0  0  0  0  0  0  0  0  0  0  0
   37.0540   23.8630   36.9940 H   0  0  0  0  0  0  0  0  0  0  0  0
   41.4130   21.7170   36.7200 H   0  0  0  0  0  0  0  0  0  0  0  0
   37.1810   25.2340   33.2310 O   0  0  0  0  0  0  0  0  0  0  0  0
   38.8640   28.7280   31.1480 H   0  0  0  0  0  0  0  0  0  0  0  0
   38.1150   28.0060   31.1920 N   0  0  0  0  0  0  0  0  0  0  0  0
   38.0750   27.0500   32.1670 C   0  0  0  0  0  3  0  0  0  0  0  0
   37.0360   26.1110   32.1620 C   0  0  0  0  0  0  0  0  0  0  0  0
   36.0660   26.1570   31.1810 C   0  0  0  0  0  0  0  0  0  0  0  0
   35.2100   25.2680   31.2980 O   0  0  0  0  0  0  0  0  0  0  0  0
   36.1290   27.1060   30.2360 N   0  0  0  0  0  0  0  0  0  0  0  0
   37.1460   28.0050   30.2620 C   0  0  0  0  0  0  0  0  0  0  0  0
   37.1020   28.8520   29.3220 O   0  0  0  0  0  0  0  0  0  0  0  0
   35.3760   27.1030   29.5160 H   0  0  0  0  0  0  0  0  0  0  0  0
  2  1  2  6  0  0  0
  2 15  1  0  0  0  0
  2  5  1  0  0  0  0
  3  2  1  0  0  0  0
  3  4  1  0  0  0  0
  5  8  1  0  0  0  0
  6 12  1  0  0  0  0
  7  6  2  0  0  0  0
  8  7  1  0  0  0  0
  9  8  2  0  0  0  0
  9 10  1  0  0  0  0
 10 11  2  0  0  0  0
 11  6  1  0  0  0  0
 13  7  1  0  0  0  0
 14 10  1  0  0  0  0
 16 17  1  0  0  0  0
 17 18  1  0  0  0  0
 19 18  2  0  0  0  0
 19 15  1  0  0  0  0
 20 21  2  0  0  0  0
 20 19  1  0  0  0  0
 22 23  1  0  0  0  0
 22 20  1  0  0  0  0
 23 17  1  0  0  0  0
 24 23  2  0  0  0  0
 25 22  1  0  0  0  0
M  END
>  <minimizedAffinity>
-4.61003256

$$$$

 OpenBabel03272508093D

 25 26  0  0  0  0  0  0  0  0999 V2000
   39.5480   26.6960   34.7680 O   0  0  0  0  0  0  0  0  0  0  0  0
   38.0850   26.7940   35.0850 P   0  0  2  0  0  0  0  0  0  0  0  0
   37.7680   28.2600   35.8890 O   0  0  0  0  0  0  0  0  0  0  0  0
   36.9720   28.1590   36.4760 H   0  0  0  0  0  0  0  0  0  0  0  0
   37.4970   25.5040   35.9900 O   0  0  0  0  0  0  0  0  0  0  0  0
   38.9000   23.3840   38.6860 C   0  0  0  0  0  0  0  0  0  0  0  0
   38.1040   24.3970   38.1210 C   0  0  0  0  0  0  0  0  0  0  0  0
   38.1620   24.6030   36.7340 C   0  0  0  0  0  0  0  0  0  0  0  0
   38.9950   23.7980   36.0150 N   0  0  0  0  0  0  0  0  0  0  0  0
   39.7360   22.8430   36.5940 C   0  0  0  0  0  0  0  0  0  0  0  0
   39.6950   22.6320   37.9210 N   0  0  0  0  0  0  0  0  0  0  0  0
   38.7250   23.3720   39.7640 H   0  0  0  0  0  0  0  0  0  0  0  0
   37.4320   25.0660   38.6020 H   0  0  0  0  0  0  0  0  0  0  0  0
   40.4090   22.1870   36.0470 H   0  0  0  0  0  0  0  0  0  0  0  0
   37.2740   26.8620   33.5990 O   0  0  0  0  0  0  0  0  0  0  0  0
   37.6530   22.9160   31.6860 H   0  0  0  0  0  0  0  0  0  0  0  0
   37.7640   23.9480   31.6040 N   0  0  0  0  0  0  0  0  0  0  0  0
   37.4620   24.8000   32.6280 C   0  0  0  0  0  3  0  0  0  0  0  0
   37.6360   26.1780   32.4450 C   0  0  0  0  0  0  0  0  0  0  0  0
   38.1070   26.6620   31.2420 C   0  0  0  0  0  0  0  0  0  0  0  0
   38.2120   27.8970   31.2180 O   0  0  0  0  0  0  0  0  0  0  0  0
   38.3970   25.8030   30.2530 N   0  0  0  0  0  0  0  0  0  0  0  0
   38.2200   24.4720   30.4540 C   0  0  0  0  0  0  0  0  0  0  0  0
   38.5240   23.7590   29.4540 O   0  0  0  0  0  0  0  0  0  0  0  0
   38.7490   26.2130   29.3630 H   0  0  0  0  0  0  0  0  0  0  0  0
  2  1  2  6  0  0  0
  2  3  1  0  0  0  0
  2  5  1  0  0  0  0
  3  4  1  0  0  0  0
  5  8  1  0  0  0  0
  6 12  1  0  0  0  0
  7 13  1  0  0  0  0
  7  6  1  0  0  0  0
  8  7  2  0  0  0  0
  9 10  2  0  0  0  0
  9  8  1  0  0  0  0
 10 11  1  0  0  0  0
 11  6  2  0  0  0  0
 14 10  1  0  0  0  0
 15  2  1  0  0  0  0
 17 16  1  0  0  0  0
 17 18  1  0  0  0  0
 19 18  2  0  0  0  0
 19 15  1  0  0  0  0
 20 19  1  0  0  0  0
 21 20  2  0  0  0  0
 22 23  1  0  0  0  0
 22 20  1  0  0  0  0
 23 17  1  0  0  0  0
 24 23  2  0  0  0  0
 25 22  1  0  0  0  0
M  END
>  <minimizedAffinity>
-4.58713913

$$$$
