
 OpenBabel03272506453D

 33 35  0  0  1  0  0  0  0  0999 V2000
   37.5130   25.1490   33.5830 C   0  0  2  0  0  0  0  0  0  0  0  0
   37.3300   26.5450   33.0070 C   0  0  1  0  0  0  0  0  0  0  0  0
   37.1530   27.4100   34.0450 O   0  0  0  0  0  0  0  0  0  0  0  0
   37.4070   26.7550   35.2290 C   0  0  0  0  0  0  0  0  0  0  0  0
   38.2420   25.5140   34.8700 C   0  0  1  0  0  0  0  0  0  0  0  0
   36.5310   24.7100   33.8070 H   0  0  0  0  0  0  0  0  0  0  0  0
   36.5250   26.5350   32.2580 H   0  0  0  0  0  0  0  0  0  0  0  0
   37.9050   27.3960   35.9690 H   0  0  0  0  0  0  0  0  0  0  0  0
   36.4300   26.3560   35.5950 H   0  0  0  0  0  0  0  0  0  0  0  0
   39.2350   25.8840   34.6270 H   0  0  0  0  0  0  0  0  0  0  0  0
   38.2920   24.3580   32.7440 O   0  0  0  0  0  0  0  0  0  0  0  0
   39.2270   24.6800   32.8100 H   0  0  0  0  0  0  0  0  0  0  0  0
   38.9070   26.9690   32.1730 S   0  0  0  0  0  0  0  0  0  0  0  0
   37.2120   29.4090   29.5470 C   0  0  0  0  0  0  0  0  0  0  0  0
   37.9230   29.2080   28.3600 C   0  0  0  0  0  0  0  0  0  0  0  0
   38.9780   28.2710   28.3760 C   0  0  0  0  0  0  0  0  0  0  0  0
   39.2390   27.6250   29.5340 N   0  0  0  0  0  0  0  0  0  0  0  0
   38.5330   27.8420   30.6640 C   0  0  0  0  0  0  0  0  0  0  0  0
   37.5250   28.7260   30.6760 N   0  0  0  0  0  0  0  0  0  0  0  0
   36.3940   30.1150   29.5870 H   0  0  0  0  0  0  0  0  0  0  0  0
   37.6760   29.7440   27.4750 H   0  0  0  0  0  0  0  0  0  0  0  0
   39.5580   28.0830   27.4800 H   0  0  0  0  0  0  0  0  0  0  0  0
   38.1120   24.5650   35.8510 O   0  0  0  0  0  0  0  0  0  0  0  0
   41.9090   22.1450   35.4800 H   0  0  0  0  0  0  0  0  0  0  0  0
   41.1060   22.4280   36.0660 N   0  0  0  0  0  0  0  0  0  0  0  0
   40.2460   23.2760   35.4840 C   0  0  0  0  0  3  0  0  0  0  0  0
   39.1460   23.7070   36.1920 C   0  0  0  0  0  0  0  0  0  0  0  0
   38.9570   23.2480   37.4970 C   0  0  0  0  0  0  0  0  0  0  0  0
   38.0160   23.5320   38.2900 O   0  0  0  0  0  0  0  0  0  0  0  0
   39.8420   22.3860   38.0740 N   0  0  0  0  0  0  0  0  0  0  0  0
   40.9190   21.9840   37.3380 C   0  0  0  0  0  0  0  0  0  0  0  0
   41.7770   21.1930   37.7980 O   0  0  0  0  0  0  0  0  0  0  0  0
   39.7770   22.0030   39.0240 H   0  0  0  0  0  0  0  0  0  0  0  0
  1  6  1  1  0  0  0
  1  5  1  0  0  0  0
  2  7  1  6  0  0  0
  2  1  1  0  0  0  0
  2  3  1  0  0  0  0
  3  4  1  0  0  0  0
  4  9  1  0  0  0  0
  4  8  1  0  0  0  0
  5 10  1  6  0  0  0
  5  4  1  0  0  0  0
  5 23  1  0  0  0  0
 11 12  1  0  0  0  0
 11  1  1  0  0  0  0
 13  2  1  0  0  0  0
 14 20  1  0  0  0  0
 14 19  1  0  0  0  0
 15 16  1  0  0  0  0
 15 14  2  0  0  0  0
 16 17  2  0  0  0  0
 17 18  1  0  0  0  0
 18 19  2  0  0  0  0
 18 13  1  0  0  0  0
 21 15  1  0  0  0  0
 22 16  1  0  0  0  0
 23 27  1  0  0  0  0
 24 25  1  0  0  0  0
 25 31  1  0  0  0  0
 26 25  1  0  0  0  0
 26 27  2  0  0  0  0
 27 28  1  0  0  0  0
 28 30  1  0  0  0  0
 28 29  2  0  0  0  0
 30 33  1  0  0  0  0
 31 32  2  0  0  0  0
 31 30  1  0  0  0  0
M  END
>  <minimizedAffinity>
-5.16160154

$$$$

 OpenBabel03272506453D

 33 35  0  0  1  0  0  0  0  0999 V2000
   37.7500   24.7700   32.0530 C   0  0  2  0  0  0  0  0  0  0  0  0
   37.3170   23.9160   30.8700 C   0  0  1  0  0  0  0  0  0  0  0  0
   38.1340   22.8250   30.8170 O   0  0  0  0  0  0  0  0  0  0  0  0
   38.9070   22.7830   31.9540 C   0  0  0  0  0  0  0  0  0  0  0  0
   38.1980   23.6630   32.9980 C   0  0  1  0  0  0  0  0  0  0  0  0
   38.6030   25.3980   31.7620 H   0  0  0  0  0  0  0  0  0  0  0  0
   37.2900   24.5300   29.9590 H   0  0  0  0  0  0  0  0  0  0  0  0
   39.0750   21.7590   32.3140 H   0  0  0  0  0  0  0  0  0  0  0  0
   39.8600   23.3160   31.7190 H   0  0  0  0  0  0  0  0  0  0  0  0
   37.3290   23.0950   33.3230 H   0  0  0  0  0  0  0  0  0  0  0  0
   36.6790   25.4960   32.5650 O   0  0  0  0  0  0  0  0  0  0  0  0
   36.0840   24.8610   33.0380 H   0  0  0  0  0  0  0  0  0  0  0  0
   35.6180   23.3390   31.2450 S   0  0  0  0  0  0  0  0  0  0  0  0
   35.5380   19.9570   33.3140 C   0  0  0  0  0  0  0  0  0  0  0  0
   35.7880   18.9550   32.3730 C   0  0  0  0  0  0  0  0  0  0  0  0
   35.9910   19.3470   31.0320 C   0  0  0  0  0  0  0  0  0  0  0  0
   35.9320   20.6650   30.7380 N   0  0  0  0  0  0  0  0  0  0  0  0
   35.6890   21.6080   31.6720 C   0  0  0  0  0  0  0  0  0  0  0  0
   35.4920   21.2630   32.9520 N   0  0  0  0  0  0  0  0  0  0  0  0
   35.3770   19.7090   34.3540 H   0  0  0  0  0  0  0  0  0  0  0  0
   35.8240   17.9300   32.6580 H   0  0  0  0  0  0  0  0  0  0  0  0
   36.1870   18.6050   30.2670 H   0  0  0  0  0  0  0  0  0  0  0  0
   39.1000   24.0890   33.9380 O   0  0  0  0  0  0  0  0  0  0  0  0
   39.7110   21.6870   37.7150 H   0  0  0  0  0  0  0  0  0  0  0  0
   39.2900   22.5160   37.2650 N   0  0  0  0  0  0  0  0  0  0  0  0
   39.5350   22.6380   35.9520 C   0  0  0  0  0  3  0  0  0  0  0  0
   39.0120   23.7150   35.2700 C   0  0  0  0  0  0  0  0  0  0  0  0
   38.2410   24.6490   35.9650 C   0  0  0  0  0  0  0  0  0  0  0  0
   37.6860   25.6880   35.5100 O   0  0  0  0  0  0  0  0  0  0  0  0
   38.0030   24.5090   37.3000 N   0  0  0  0  0  0  0  0  0  0  0  0
   38.5390   23.4280   37.9390 C   0  0  0  0  0  0  0  0  0  0  0  0
   38.3650   23.2310   39.1650 O   0  0  0  0  0  0  0  0  0  0  0  0
   37.4490   25.1480   37.8820 H   0  0  0  0  0  0  0  0  0  0  0  0
  1  6  1  6  0  0  0
  1 11  1  0  0  0  0
  1  5  1  0  0  0  0
  2  7  1  6  0  0  0
  2 13  1  0  0  0  0
  2  1  1  0  0  0  0
  3  2  1  0  0  0  0
  3  4  1  0  0  0  0
  4  8  1  0  0  0  0
  4  5  1  0  0  0  0
  5 10  1  1  0  0  0
  5 23  1  0  0  0  0
  9  4  1  0  0  0  0
 11 12  1  0  0  0  0
 13 18  1  0  0  0  0
 14 20  1  0  0  0  0
 15 21  1  0  0  0  0
 15 14  2  0  0  0  0
 16 15  1  0  0  0  0
 17 16  2  0  0  0  0
 17 18  1  0  0  0  0
 18 19  2  0  0  0  0
 19 14  1  0  0  0  0
 22 16  1  0  0  0  0
 23 27  1  0  0  0  0
 25 24  1  0  0  0  0
 25 31  1  0  0  0  0
 26 25  1  0  0  0  0
 27 26  2  0  0  0  0
 27 28  1  0  0  0  0
 28 30  1  0  0  0  0
 29 28  2  0  0  0  0
 30 33  1  0  0  0  0
 30 31  1  0  0  0  0
 31 32  2  0  0  0  0
M  END
>  <minimizedAffinity>
-5.106215

$$$$

 OpenBabel03272506453D

 33 35  0  0  1  0  0  0  0  0999 V2000
   39.1570   23.4630   31.5000 C   0  0  2  0  0  0  0  0  0  0  0  0
   38.6670   24.7470   30.8480 C   0  0  1  0  0  0  0  0  0  0  0  0
   37.3140   24.8090   31.0030 O   0  0  0  0  0  0  0  0  0  0  0  0
   36.9100   23.8100   31.8590 C   0  0  0  0  0  0  0  0  0  0  0  0
   38.1590   23.3800   32.6480 C   0  0  1  0  0  0  0  0  0  0  0  0
   39.0190   22.6220   30.8060 H   0  0  0  0  0  0  0  0  0  0  0  0
   39.0260   24.7980   29.8110 H   0  0  0  0  0  0  0  0  0  0  0  0
   36.0870   24.1230   32.5160 H   0  0  0  0  0  0  0  0  0  0  0  0
   36.6430   22.9300   31.2270 H   0  0  0  0  0  0  0  0  0  0  0  0
   38.3560   24.1830   33.3530 H   0  0  0  0  0  0  0  0  0  0  0  0
   40.4660   23.5970   31.9510 O   0  0  0  0  0  0  0  0  0  0  0  0
   40.4500   24.1840   32.7490 H   0  0  0  0  0  0  0  0  0  0  0  0
   39.4130   26.1250   31.7990 S   0  0  0  0  0  0  0  0  0  0  0  0
   36.6070   28.9250   31.9130 C   0  0  0  0  0  0  0  0  0  0  0  0
   36.0880   28.8600   33.2100 C   0  0  0  0  0  0  0  0  0  0  0  0
   36.6360   27.9020   34.0900 C   0  0  0  0  0  0  0  0  0  0  0  0
   37.6260   27.1050   33.6300 N   0  0  0  0  0  0  0  0  0  0  0  0
   38.1050   27.1940   32.3710 C   0  0  0  0  0  0  0  0  0  0  0  0
   37.6030   28.0950   31.5150 N   0  0  0  0  0  0  0  0  0  0  0  0
   36.2230   29.6410   31.2010 H   0  0  0  0  0  0  0  0  0  0  0  0
   35.3070   29.5110   33.5210 H   0  0  0  0  0  0  0  0  0  0  0  0
   36.2640   27.8150   35.1050 H   0  0  0  0  0  0  0  0  0  0  0  0
   37.9920   22.1060   33.1250 O   0  0  0  0  0  0  0  0  0  0  0  0
   37.1030   22.1890   37.5540 H   0  0  0  0  0  0  0  0  0  0  0  0
   36.8400   21.8450   36.6150 N   0  0  0  0  0  0  0  0  0  0  0  0
   37.6340   22.2550   35.6150 C   0  0  0  0  0  3  0  0  0  0  0  0
   37.3570   21.8440   34.3300 C   0  0  0  0  0  0  0  0  0  0  0  0
   36.2580   21.0130   34.1040 C   0  0  0  0  0  0  0  0  0  0  0  0
   35.8550   20.5420   33.0040 O   0  0  0  0  0  0  0  0  0  0  0  0
   35.4620   20.6070   35.1330 N   0  0  0  0  0  0  0  0  0  0  0  0
   35.7700   21.0360   36.3920 C   0  0  0  0  0  0  0  0  0  0  0  0
   35.0860   20.7060   37.3900 O   0  0  0  0  0  0  0  0  0  0  0  0
   34.6380   19.9990   35.0530 H   0  0  0  0  0  0  0  0  0  0  0  0
  1  6  1  6  0  0  0
  1 11  1  0  0  0  0
  1  5  1  0  0  0  0
  2  7  1  6  0  0  0
  2  3  1  0  0  0  0
  2  1  1  0  0  0  0
  2 13  1  0  0  0  0
  3  4  1  0  0  0  0
  4  8  1  0  0  0  0
  4  5  1  0  0  0  0
  5 23  1  0  0  0  0
  5 10  1  1  0  0  0
  9  4  1  0  0  0  0
 11 12  1  0  0  0  0
 13 18  1  0  0  0  0
 14 15  1  0  0  0  0
 15 21  1  0  0  0  0
 15 16  2  0  0  0  0
 16 22  1  0  0  0  0
 17 16  1  0  0  0  0
 18 17  2  0  0  0  0
 19 14  2  0  0  0  0
 19 18  1  0  0  0  0
 20 14  1  0  0  0  0
 23 27  1  0  0  0  0
 25 24  1  0  0  0  0
 26 25  1  0  0  0  0
 27 26  2  0  0  0  0
 28 27  1  0  0  0  0
 28 30  1  0  0  0  0
 29 28  2  0  0  0  0
 30 31  1  0  0  0  0
 31 25  1  0  0  0  0
 31 32  2  0  0  0  0
 33 30  1  0  0  0  0
M  END
>  <minimizedAffinity>
-4.90685844

$$$$

 OpenBabel03272506453D

 33 35  0  0  1  0  0  0  0  0999 V2000
   38.5420   24.2380   32.3440 C   0  0  2  0  0  0  0  0  0  0  0  0
   38.1660   24.8850   31.0200 C   0  0  1  0  0  0  0  0  0  0  0  0
   37.7010   23.9100   30.1900 O   0  0  0  0  0  0  0  0  0  0  0  0
   37.5450   22.7440   30.9050 C   0  0  0  0  0  0  0  0  0  0  0  0
   37.4810   23.1460   32.3880 C   0  0  1  0  0  0  0  0  0  0  0  0
   39.5460   23.7970   32.2670 H   0  0  0  0  0  0  0  0  0  0  0  0
   39.0160   25.4660   30.6360 H   0  0  0  0  0  0  0  0  0  0  0  0
   36.6650   22.1670   30.5880 H   0  0  0  0  0  0  0  0  0  0  0  0
   38.4960   22.1680   30.7970 H   0  0  0  0  0  0  0  0  0  0  0  0
   36.5040   23.6020   32.5300 H   0  0  0  0  0  0  0  0  0  0  0  0
   38.4150   25.1370   33.3970 O   0  0  0  0  0  0  0  0  0  0  0  0
   37.4470   25.2760   33.5580 H   0  0  0  0  0  0  0  0  0  0  0  0
   36.7830   26.0330   31.3830 S   0  0  0  0  0  0  0  0  0  0  0  0
   36.5250   29.8320   30.2770 C   0  0  0  0  0  0  0  0  0  0  0  0
   37.7550   30.1150   29.6760 C   0  0  0  0  0  0  0  0  0  0  0  0
   38.7100   29.0770   29.6120 C   0  0  0  0  0  0  0  0  0  0  0  0
   38.3800   27.8750   30.1330 N   0  0  0  0  0  0  0  0  0  0  0  0
   37.1820   27.6340   30.7060 C   0  0  0  0  0  0  0  0  0  0  0  0
   36.2580   28.6010   30.7810 N   0  0  0  0  0  0  0  0  0  0  0  0
   35.7600   30.5920   30.3510 H   0  0  0  0  0  0  0  0  0  0  0  0
   37.9640   31.0800   29.2810 H   0  0  0  0  0  0  0  0  0  0  0  0
   39.6770   29.2510   29.1550 H   0  0  0  0  0  0  0  0  0  0  0  0
   37.8350   22.0820   33.1760 O   0  0  0  0  0  0  0  0  0  0  0  0
   34.5060   19.9110   35.3240 H   0  0  0  0  0  0  0  0  0  0  0  0
   35.3310   20.5300   35.3890 N   0  0  0  0  0  0  0  0  0  0  0  0
   35.9260   20.8110   34.2210 C   0  0  0  0  0  3  0  0  0  0  0  0
   37.0340   21.6300   34.2130 C   0  0  0  0  0  0  0  0  0  0  0  0
   37.5060   22.1440   35.4220 C   0  0  0  0  0  0  0  0  0  0  0  0
   38.4990   22.9030   35.6070 O   0  0  0  0  0  0  0  0  0  0  0  0
   36.8890   21.8470   36.6010 N   0  0  0  0  0  0  0  0  0  0  0  0
   35.7940   21.0320   36.5650 C   0  0  0  0  0  0  0  0  0  0  0  0
   35.1730   20.7140   37.6070 O   0  0  0  0  0  0  0  0  0  0  0  0
   37.1720   22.1830   37.5290 H   0  0  0  0  0  0  0  0  0  0  0  0
  1  6  1  6  0  0  0
  1  5  1  0  0  0  0
  1 11  1  0  0  0  0
  2  7  1  6  0  0  0
  2 13  1  0  0  0  0
  2  1  1  0  0  0  0
  3  4  1  0  0  0  0
  3  2  1  0  0  0  0
  4  5  1  0  0  0  0
  5 10  1  1  0  0  0
  5 23  1  0  0  0  0
  8  4  1  0  0  0  0
  9  4  1  0  0  0  0
 11 12  1  0  0  0  0
 14 20  1  0  0  0  0
 14 19  1  0  0  0  0
 15 14  2  0  0  0  0
 16 15  1  0  0  0  0
 16 17  2  0  0  0  0
 17 18  1  0  0  0  0
 18 19  2  0  0  0  0
 18 13  1  0  0  0  0
 21 15  1  0  0  0  0
 22 16  1  0  0  0  0
 23 27  1  0  0  0  0
 24 25  1  0  0  0  0
 25 31  1  0  0  0  0
 26 25  1  0  0  0  0
 27 26  2  0  0  0  0
 27 28  1  0  0  0  0
 28 29  2  0  0  0  0
 28 30  1  0  0  0  0
 30 33  1  0  0  0  0
 31 30  1  0  0  0  0
 31 32  2  0  0  0  0
M  END
>  <minimizedAffinity>
-4.88151264

$$$$

 OpenBabel03272506453D

 33 35  0  0  1  0  0  0  0  0999 V2000
   37.9530   25.2420   31.4430 C   0  0  2  0  0  0  0  0  0  0  0  0
   37.6980   23.8990   32.1110 C   0  0  1  0  0  0  0  0  0  0  0  0
   37.5800   24.1110   33.4520 O   0  0  0  0  0  0  0  0  0  0  0  0
   37.5270   25.4650   33.6940 C   0  0  0  0  0  0  0  0  0  0  0  0
   37.1280   26.1300   32.3650 C   0  0  1  0  0  0  0  0  0  0  0  0
   39.0200   25.4940   31.5170 H   0  0  0  0  0  0  0  0  0  0  0  0
   38.4750   23.1820   31.8120 H   0  0  0  0  0  0  0  0  0  0  0  0
   36.8430   25.7220   34.5140 H   0  0  0  0  0  0  0  0  0  0  0  0
   38.5740   25.8010   33.8880 H   0  0  0  0  0  0  0  0  0  0  0  0
   36.0730   25.9080   32.2280 H   0  0  0  0  0  0  0  0  0  0  0  0
   37.4730   25.2530   30.1370 O   0  0  0  0  0  0  0  0  0  0  0  0
   36.4840   25.2830   30.1810 H   0  0  0  0  0  0  0  0  0  0  0  0
   36.0790   23.3110   31.4820 S   0  0  0  0  0  0  0  0  0  0  0  0
   35.5160   19.9900   33.5760 C   0  0  0  0  0  0  0  0  0  0  0  0
   35.5980   18.9570   32.6380 C   0  0  0  0  0  0  0  0  0  0  0  0
   35.8390   19.3080   31.2920 C   0  0  0  0  0  0  0  0  0  0  0  0
   35.9770   20.6180   30.9890 N   0  0  0  0  0  0  0  0  0  0  0  0
   35.8920   21.5920   31.9200 C   0  0  0  0  0  0  0  0  0  0  0  0
   35.6640   21.2870   33.2040 N   0  0  0  0  0  0  0  0  0  0  0  0
   35.3340   19.7750   34.6190 H   0  0  0  0  0  0  0  0  0  0  0  0
   35.4820   17.9410   32.9300 H   0  0  0  0  0  0  0  0  0  0  0  0
   35.9100   18.5400   30.5300 H   0  0  0  0  0  0  0  0  0  0  0  0
   37.5360   27.4390   32.3590 O   0  0  0  0  0  0  0  0  0  0  0  0
   34.5330   30.6610   33.3670 H   0  0  0  0  0  0  0  0  0  0  0  0
   35.0870   30.1780   32.6400 N   0  0  0  0  0  0  0  0  0  0  0  0
   35.8730   29.1880   33.0870 C   0  0  0  0  0  3  0  0  0  0  0  0
   36.6470   28.4890   32.1860 C   0  0  0  0  0  0  0  0  0  0  0  0
   36.5900   28.8310   30.8340 C   0  0  0  0  0  0  0  0  0  0  0  0
   37.2220   28.3070   29.8740 O   0  0  0  0  0  0  0  0  0  0  0  0
   35.7850   29.8410   30.3980 N   0  0  0  0  0  0  0  0  0  0  0  0
   35.0340   30.5090   31.3220 C   0  0  0  0  0  0  0  0  0  0  0  0
   34.2700   31.4490   30.9990 O   0  0  0  0  0  0  0  0  0  0  0  0
   35.6860   30.1540   29.4250 H   0  0  0  0  0  0  0  0  0  0  0  0
  1  6  1  1  0  0  0
  1  2  1  0  0  0  0
  1  5  1  0  0  0  0
  2  7  1  6  0  0  0
  2  3  1  0  0  0  0
  3  4  1  0  0  0  0
  4  9  1  0  0  0  0
  4  8  1  0  0  0  0
  5 10  1  6  0  0  0
  5  4  1  0  0  0  0
 11 12  1  0  0  0  0
 11  1  1  0  0  0  0
 13 18  1  0  0  0  0
 13  2  1  0  0  0  0
 14 20  1  0  0  0  0
 15 21  1  0  0  0  0
 15 14  2  0  0  0  0
 16 15  1  0  0  0  0
 17 16  2  0  0  0  0
 17 18  1  0  0  0  0
 18 19  2  0  0  0  0
 19 14  1  0  0  0  0
 22 16  1  0  0  0  0
 23  5  1  0  0  0  0
 25 26  1  0  0  0  0
 25 24  1  0  0  0  0
 27 23  1  0  0  0  0
 27 26  2  0  0  0  0
 28 27  1  0  0  0  0
 29 28  2  0  0  0  0
 30 28  1  0  0  0  0
 30 31  1  0  0  0  0
 31 25  1  0  0  0  0
 32 31  2  0  0  0  0
 33 30  1  0  0  0  0
M  END
>  <minimizedAffinity>
-4.85189676

$$$$

 OpenBabel03272506453D

 33 35  0  0  1  0  0  0  0  0999 V2000
   38.1920   25.3270   31.7600 C   0  0  2  0  0  0  0  0  0  0  0  0
   37.0500   25.4780   30.7680 C   0  0  1  0  0  0  0  0  0  0  0  0
   36.3550   24.3060   30.7420 O   0  0  0  0  0  0  0  0  0  0  0  0
   36.8030   23.4920   31.7580 C   0  0  0  0  0  0  0  0  0  0  0  0
   37.5150   24.4080   32.7680 C   0  0  1  0  0  0  0  0  0  0  0  0
   39.0360   24.8160   31.2760 H   0  0  0  0  0  0  0  0  0  0  0  0
   37.4420   25.8160   29.7980 H   0  0  0  0  0  0  0  0  0  0  0  0
   35.9950   22.9070   32.2190 H   0  0  0  0  0  0  0  0  0  0  0  0
   37.6060   22.8480   31.3270 H   0  0  0  0  0  0  0  0  0  0  0  0
   36.7270   24.9550   33.2800 H   0  0  0  0  0  0  0  0  0  0  0  0
   38.5380   26.5540   32.3180 O   0  0  0  0  0  0  0  0  0  0  0  0
   37.8170   26.8120   32.9450 H   0  0  0  0  0  0  0  0  0  0  0  0
   35.9490   26.7790   31.4440 S   0  0  0  0  0  0  0  0  0  0  0  0
   37.6530   29.4990   29.1150 C   0  0  0  0  0  0  0  0  0  0  0  0
   37.0760   30.7120   29.5010 C   0  0  0  0  0  0  0  0  0  0  0  0
   36.1130   30.6850   30.5320 C   0  0  0  0  0  0  0  0  0  0  0  0
   35.8050   29.4910   31.0850 N   0  0  0  0  0  0  0  0  0  0  0  0
   36.3810   28.3360   30.6900 C   0  0  0  0  0  0  0  0  0  0  0  0
   37.2980   28.3340   29.7130 N   0  0  0  0  0  0  0  0  0  0  0  0
   38.3960   29.4650   28.3310 H   0  0  0  0  0  0  0  0  0  0  0  0
   37.3540   31.6260   29.0320 H   0  0  0  0  0  0  0  0  0  0  0  0
   35.6380   31.6020   30.8630 H   0  0  0  0  0  0  0  0  0  0  0  0
   38.4040   23.6770   33.5130 O   0  0  0  0  0  0  0  0  0  0  0  0
   37.2280   21.3350   37.1930 H   0  0  0  0  0  0  0  0  0  0  0  0
   37.5880   22.2200   36.7970 N   0  0  0  0  0  0  0  0  0  0  0  0
   37.7080   22.2390   35.4620 C   0  0  0  0  0  3  0  0  0  0  0  0
   38.1810   23.3780   34.8480 C   0  0  0  0  0  0  0  0  0  0  0  0
   38.5210   24.4810   35.6340 C   0  0  0  0  0  0  0  0  0  0  0  0
   38.9670   25.5980   35.2500 O   0  0  0  0  0  0  0  0  0  0  0  0
   38.3930   24.4430   36.9910 N   0  0  0  0  0  0  0  0  0  0  0  0
   37.9210   23.2950   37.5590 C   0  0  0  0  0  0  0  0  0  0  0  0
   37.7750   23.1840   38.8000 O   0  0  0  0  0  0  0  0  0  0  0  0
   38.6200   25.2070   37.6380 H   0  0  0  0  0  0  0  0  0  0  0  0
  1  6  1  6  0  0  0
  1 11  1  0  0  0  0
  1  5  1  0  0  0  0
  2  7  1  6  0  0  0
  2 13  1  0  0  0  0
  2  1  1  0  0  0  0
  3  2  1  0  0  0  0
  3  4  1  0  0  0  0
  4  8  1  0  0  0  0
  4  5  1  0  0  0  0
  5 10  1  1  0  0  0
  5 23  1  0  0  0  0
  9  4  1  0  0  0  0
 11 12  1  0  0  0  0
 14 15  2  0  0  0  0
 14 19  1  0  0  0  0
 15 16  1  0  0  0  0
 16 22  1  0  0  0  0
 16 17  2  0  0  0  0
 18 17  1  0  0  0  0
 18 13  1  0  0  0  0
 19 18  2  0  0  0  0
 20 14  1  0  0  0  0
 21 15  1  0  0  0  0
 23 27  1  0  0  0  0
 25 24  1  0  0  0  0
 25 31  1  0  0  0  0
 26 25  1  0  0  0  0
 27 26  2  0  0  0  0
 27 28  1  0  0  0  0
 28 30  1  0  0  0  0
 29 28  2  0  0  0  0
 30 31  1  0  0  0  0
 30 33  1  0  0  0  0
 31 32  2  0  0  0  0
M  END
>  <minimizedAffinity>
-4.84498215

$$$$

 OpenBabel03272506453D

 33 35  0  0  1  0  0  0  0  0999 V2000
   36.7930   28.7050   31.9660 C   0  0  2  0  0  0  0  0  0  0  0  0
   37.1870   27.2370   32.0440 C   0  0  1  0  0  0  0  0  0  0  0  0
   37.2110   26.8770   33.3590 O   0  0  0  0  0  0  0  0  0  0  0  0
   36.6780   27.8940   34.1170 C   0  0  0  0  0  0  0  0  0  0  0  0
   35.8470   28.7640   33.1580 C   0  0  1  0  0  0  0  0  0  0  0  0
   37.6770   29.3330   32.1420 H   0  0  0  0  0  0  0  0  0  0  0  0
   38.1230   27.0740   31.4920 H   0  0  0  0  0  0  0  0  0  0  0  0
   36.0870   27.5240   34.9660 H   0  0  0  0  0  0  0  0  0  0  0  0
   37.5300   28.5400   34.4370 H   0  0  0  0  0  0  0  0  0  0  0  0
   34.9530   28.1890   32.9350 H   0  0  0  0  0  0  0  0  0  0  0  0
   36.1460   28.9880   30.7670 O   0  0  0  0  0  0  0  0  0  0  0  0
   35.2430   28.5840   30.8120 H   0  0  0  0  0  0  0  0  0  0  0  0
   35.8440   26.3000   31.2200 S   0  0  0  0  0  0  0  0  0  0  0  0
   35.7280   22.3480   31.5260 C   0  0  0  0  0  0  0  0  0  0  0  0
   36.9820   21.9170   31.0840 C   0  0  0  0  0  0  0  0  0  0  0  0
   37.9080   22.9000   30.6710 C   0  0  0  0  0  0  0  0  0  0  0  0
   37.5280   24.1960   30.7270 N   0  0  0  0  0  0  0  0  0  0  0  0
   36.3090   24.5790   31.1600 C   0  0  0  0  0  0  0  0  0  0  0  0
   35.4110   23.6660   31.5580 N   0  0  0  0  0  0  0  0  0  0  0  0
   34.9840   21.6350   31.8540 H   0  0  0  0  0  0  0  0  0  0  0  0
   37.2300   20.8830   31.0600 H   0  0  0  0  0  0  0  0  0  0  0  0
   38.8920   22.6130   30.3200 H   0  0  0  0  0  0  0  0  0  0  0  0
   35.7110   30.0270   33.6750 O   0  0  0  0  0  0  0  0  0  0  0  0
   31.5040   30.3480   35.2900 H   0  0  0  0  0  0  0  0  0  0  0  0
   32.5050   30.5770   35.4060 N   0  0  0  0  0  0  0  0  0  0  0  0
   33.3110   30.1140   34.4400 C   0  0  0  0  0  3  0  0  0  0  0  0
   34.6620   30.3730   34.5130 C   0  0  0  0  0  0  0  0  0  0  0  0
   35.1540   31.1110   35.5920 C   0  0  0  0  0  0  0  0  0  0  0  0
   36.3500   31.4420   35.8230 O   0  0  0  0  0  0  0  0  0  0  0  0
   34.3190   31.5730   36.5660 N   0  0  0  0  0  0  0  0  0  0  0  0
   32.9870   31.2950   36.4550 C   0  0  0  0  0  0  0  0  0  0  0  0
   32.1570   31.6860   37.3100 O   0  0  0  0  0  0  0  0  0  0  0  0
   34.5990   32.1210   37.3880 H   0  0  0  0  0  0  0  0  0  0  0  0
  1  2  1  0  0  0  0
  1  6  1  1  0  0  0
  1  5  1  0  0  0  0
  2  7  1  6  0  0  0
  2  3  1  0  0  0  0
  3  4  1  0  0  0  0
  4  9  1  0  0  0  0
  4  8  1  0  0  0  0
  5 10  1  6  0  0  0
  5 23  1  0  0  0  0
  5  4  1  0  0  0  0
 11 12  1  0  0  0  0
 11  1  1  0  0  0  0
 13  2  1  0  0  0  0
 14 19  1  0  0  0  0
 14 20  1  0  0  0  0
 15 14  2  0  0  0  0
 16 17  2  0  0  0  0
 16 15  1  0  0  0  0
 17 18  1  0  0  0  0
 18 13  1  0  0  0  0
 18 19  2  0  0  0  0
 21 15  1  0  0  0  0
 22 16  1  0  0  0  0
 23 27  1  0  0  0  0
 24 25  1  0  0  0  0
 25 31  1  0  0  0  0
 26 27  2  0  0  0  0
 26 25  1  0  0  0  0
 27 28  1  0  0  0  0
 28 29  2  0  0  0  0
 28 30  1  0  0  0  0
 30 33  1  0  0  0  0
 31 30  1  0  0  0  0
 31 32  2  0  0  0  0
M  END
>  <minimizedAffinity>
-4.80535269

$$$$

 OpenBabel03272506453D

 33 35  0  0  1  0  0  0  0  0999 V2000
   36.6170   25.0040   31.8420 C   0  0  2  0  0  0  0  0  0  0  0  0
   36.4160   26.5100   31.9050 C   0  0  1  0  0  0  0  0  0  0  0  0
   36.7120   26.9230   33.1700 O   0  0  0  0  0  0  0  0  0  0  0  0
   37.2770   25.8790   33.8660 C   0  0  0  0  0  0  0  0  0  0  0  0
   37.7820   24.8760   32.8150 C   0  0  1  0  0  0  0  0  0  0  0  0
   35.7260   24.4950   32.2370 H   0  0  0  0  0  0  0  0  0  0  0  0
   35.4080   26.7650   31.5490 H   0  0  0  0  0  0  0  0  0  0  0  0
   38.0720   26.2070   34.5490 H   0  0  0  0  0  0  0  0  0  0  0  0
   36.4460   25.3550   34.3960 H   0  0  0  0  0  0  0  0  0  0  0  0
   38.6680   25.3280   32.3750 H   0  0  0  0  0  0  0  0  0  0  0  0
   36.9590   24.5960   30.5570 O   0  0  0  0  0  0  0  0  0  0  0  0
   37.8900   24.8870   30.3870 H   0  0  0  0  0  0  0  0  0  0  0  0
   37.6480   27.2420   30.7620 S   0  0  0  0  0  0  0  0  0  0  0  0
   37.7480   31.0010   29.5020 C   0  0  0  0  0  0  0  0  0  0  0  0
   36.5890   31.5840   30.0220 C   0  0  0  0  0  0  0  0  0  0  0  0
   35.7370   30.7720   30.8010 C   0  0  0  0  0  0  0  0  0  0  0  0
   36.0890   29.4820   30.9980 N   0  0  0  0  0  0  0  0  0  0  0  0
   37.2160   28.9490   30.4810 C   0  0  0  0  0  0  0  0  0  0  0  0
   38.0430   29.6980   29.7380 N   0  0  0  0  0  0  0  0  0  0  0  0
   38.4340   31.5790   28.8990 H   0  0  0  0  0  0  0  0  0  0  0  0
   36.3580   32.6060   29.8360 H   0  0  0  0  0  0  0  0  0  0  0  0
   34.8260   31.1810   31.2240 H   0  0  0  0  0  0  0  0  0  0  0  0
   37.8840   23.6280   33.3730 O   0  0  0  0  0  0  0  0  0  0  0  0
   41.4740   23.8940   36.1030 H   0  0  0  0  0  0  0  0  0  0  0  0
   40.5650   23.4470   35.8940 N   0  0  0  0  0  0  0  0  0  0  0  0
   39.9490   23.9000   34.7930 C   0  0  0  0  0  3  0  0  0  0  0  0
   38.7320   23.3600   34.4370 C   0  0  0  0  0  0  0  0  0  0  0  0
   38.1750   22.3580   35.2330 C   0  0  0  0  0  0  0  0  0  0  0  0
   37.0790   21.7530   35.0650 O   0  0  0  0  0  0  0  0  0  0  0  0
   38.8160   21.9110   36.3500 N   0  0  0  0  0  0  0  0  0  0  0  0
   40.0200   22.4710   36.6680 C   0  0  0  0  0  0  0  0  0  0  0  0
   40.6700   22.1130   37.6790 O   0  0  0  0  0  0  0  0  0  0  0  0
   38.4760   21.1810   36.9870 H   0  0  0  0  0  0  0  0  0  0  0  0
  1  2  1  0  0  0  0
  1  6  1  1  0  0  0
  1  5  1  0  0  0  0
  2  7  1  6  0  0  0
  2  3  1  0  0  0  0
  3  4  1  0  0  0  0
  4  9  1  0  0  0  0
  4  8  1  0  0  0  0
  5 10  1  6  0  0  0
  5 23  1  0  0  0  0
  5  4  1  0  0  0  0
 11  1  1  0  0  0  0
 12 11  1  0  0  0  0
 13  2  1  0  0  0  0
 14 19  2  0  0  0  0
 14 15  1  0  0  0  0
 15 16  2  0  0  0  0
 16 17  1  0  0  0  0
 16 22  1  0  0  0  0
 18 13  1  0  0  0  0
 18 17  2  0  0  0  0
 19 18  1  0  0  0  0
 20 14  1  0  0  0  0
 21 15  1  0  0  0  0
 23 27  1  0  0  0  0
 25 24  1  0  0  0  0
 25 31  1  0  0  0  0
 26 25  1  0  0  0  0
 27 26  2  0  0  0  0
 27 28  1  0  0  0  0
 28 30  1  0  0  0  0
 29 28  2  0  0  0  0
 30 31  1  0  0  0  0
 30 33  1  0  0  0  0
 31 32  2  0  0  0  0
M  END
>  <minimizedAffinity>
-4.79396963

$$$$

 OpenBabel03272506453D

 33 35  0  0  1  0  0  0  0  0999 V2000
   36.9200   27.1640   31.1210 C   0  0  2  0  0  0  0  0  0  0  0  0
   37.3240   25.7650   31.5590 C   0  0  1  0  0  0  0  0  0  0  0  0
   37.5150   25.7830   32.9080 O   0  0  0  0  0  0  0  0  0  0  0  0
   37.0780   26.9880   33.4110 C   0  0  0  0  0  0  0  0  0  0  0  0
   36.1310   27.5840   32.3540 C   0  0  1  0  0  0  0  0  0  0  0  0
   37.8170   27.7880   31.0050 H   0  0  0  0  0  0  0  0  0  0  0  0
   38.1840   25.4240   30.9650 H   0  0  0  0  0  0  0  0  0  0  0  0
   36.6000   26.8880   34.3940 H   0  0  0  0  0  0  0  0  0  0  0  0
   37.9620   27.6700   33.4310 H   0  0  0  0  0  0  0  0  0  0  0  0
   35.2170   26.9980   32.4120 H   0  0  0  0  0  0  0  0  0  0  0  0
   36.1270   27.1230   29.9790 O   0  0  0  0  0  0  0  0  0  0  0  0
   35.2370   26.7770   30.2440 H   0  0  0  0  0  0  0  0  0  0  0  0
   35.8910   24.6790   31.2000 S   0  0  0  0  0  0  0  0  0  0  0  0
   35.9590   20.7180   31.0290 C   0  0  0  0  0  0  0  0  0  0  0  0
   37.3130   20.3860   30.9380 C   0  0  0  0  0  0  0  0  0  0  0  0
   38.2500   21.4420   30.9280 C   0  0  0  0  0  0  0  0  0  0  0  0
   37.7840   22.7080   31.0080 N   0  0  0  0  0  0  0  0  0  0  0  0
   36.4690   22.9940   31.0960 C   0  0  0  0  0  0  0  0  0  0  0  0
   35.5580   22.0110   31.1070 N   0  0  0  0  0  0  0  0  0  0  0  0
   35.2010   19.9460   31.0410 H   0  0  0  0  0  0  0  0  0  0  0  0
   37.6270   19.3710   30.8770 H   0  0  0  0  0  0  0  0  0  0  0  0
   39.3110   21.2320   30.8580 H   0  0  0  0  0  0  0  0  0  0  0  0
   36.0570   28.9440   32.5100 O   0  0  0  0  0  0  0  0  0  0  0  0
   31.7920   30.4150   32.7500 H   0  0  0  0  0  0  0  0  0  0  0  0
   32.7100   30.4670   32.2780 N   0  0  0  0  0  0  0  0  0  0  0  0
   33.6550   29.6570   32.7770 C   0  0  0  0  0  3  0  0  0  0  0  0
   34.9090   29.6610   32.2080 C   0  0  0  0  0  0  0  0  0  0  0  0
   35.1620   30.5080   31.1280 C   0  0  0  0  0  0  0  0  0  0  0  0
   36.2410   30.6460   30.4860 O   0  0  0  0  0  0  0  0  0  0  0  0
   34.1890   31.3260   30.6340 N   0  0  0  0  0  0  0  0  0  0  0  0
   32.9590   31.2920   31.2260 C   0  0  0  0  0  0  0  0  0  0  0  0
   32.0140   32.0140   30.8290 O   0  0  0  0  0  0  0  0  0  0  0  0
   34.2930   31.9760   29.8460 H   0  0  0  0  0  0  0  0  0  0  0  0
  1  6  1  6  0  0  0
  1  2  1  0  0  0  0
  1  5  1  0  0  0  0
  2  7  1  6  0  0  0
  2  3  1  0  0  0  0
  3  4  1  0  0  0  0
  4  9  1  0  0  0  0
  4  8  1  0  0  0  0
  5 10  1  1  0  0  0
  5 23  1  0  0  0  0
  5  4  1  0  0  0  0
 11 12  1  0  0  0  0
 11  1  1  0  0  0  0
 13  2  1  0  0  0  0
 14 20  1  0  0  0  0
 14 19  1  0  0  0  0
 15 14  2  0  0  0  0
 16 15  1  0  0  0  0
 16 17  2  0  0  0  0
 17 18  1  0  0  0  0
 18 19  2  0  0  0  0
 18 13  1  0  0  0  0
 21 15  1  0  0  0  0
 22 16  1  0  0  0  0
 25 24  1  0  0  0  0
 25 26  1  0  0  0  0
 27 23  1  0  0  0  0
 27 26  2  0  0  0  0
 28 27  1  0  0  0  0
 29 28  2  0  0  0  0
 30 28  1  0  0  0  0
 30 31  1  0  0  0  0
 31 25  1  0  0  0  0
 32 31  2  0  0  0  0
 33 30  1  0  0  0  0
M  END
>  <minimizedAffinity>
-4.7596693

$$$$
