
 OpenBabel03272508283D

 39 42  0  0  1  0  0  0  0  0999 V2000
   33.8930   28.9060   47.2720 C   0  0  2  0  0  0  0  0  0  0  0  0
   34.5860   28.1660   48.4090 C   0  0  2  0  0  0  0  0  0  0  0  0
   33.6600   28.0940   49.4150 O   0  0  0  0  0  0  0  0  0  0  0  0
   32.3930   28.1950   48.9180 C   0  0  0  0  0  0  0  0  0  0  0  0
   32.4880   28.3060   47.4080 C   0  0  1  0  0  0  0  0  0  0  0  0
   33.7830   29.9820   47.4530 H   0  0  0  0  0  0  0  0  0  0  0  0
   34.8450   27.1730   47.9940 H   0  0  0  0  0  0  0  0  0  0  0  0
   31.9220   29.0990   49.3680 H   0  0  0  0  0  0  0  0  0  0  0  0
   31.8470   27.2680   49.2150 H   0  0  0  0  0  0  0  0  0  0  0  0
   32.5330   27.2870   47.0080 H   0  0  0  0  0  0  0  0  0  0  0  0
   35.7060   30.3880   49.1230 C   0  0  1  0  0  0  0  0  0  0  0  0
   35.7730   28.9800   48.8080 C   0  0  1  0  0  0  0  0  0  0  0  0
   36.0190   29.3650   50.2300 C   0  0  0  0  0  0  0  0  0  0  0  0
   34.8180   30.9910   49.3780 H   0  0  0  0  0  0  0  0  0  0  0  0
   36.7090   28.6570   48.2630 H   0  0  0  0  0  0  0  0  0  0  0  0
   37.0370   29.3320   50.6500 H   0  0  0  0  0  0  0  0  0  0  0  0
   35.2000   29.1280   50.9350 H   0  0  0  0  0  0  0  0  0  0  0  0
   36.8930   31.3030   48.8520 C   0  0  0  0  0  0  0  0  0  0  0  0
   37.0760   32.3790   49.7250 C   0  0  0  0  0  0  0  0  0  0  0  0
   38.1570   33.1950   49.4210 C   0  0  0  0  0  0  0  0  0  0  0  0
   38.9590   32.9390   48.3420 N   0  0  0  0  0  0  0  0  0  0  0  0
   38.7370   31.8790   47.5240 C   0  0  0  0  0  0  0  0  0  0  0  0
   37.6920   31.0510   47.7810 N   0  0  0  0  0  0  0  0  0  0  0  0
   36.4160   32.5240   50.5490 H   0  0  0  0  0  0  0  0  0  0  0  0
   38.3450   34.0430   50.0660 H   0  0  0  0  0  0  0  0  0  0  0  0
   39.3990   31.7280   46.6930 H   0  0  0  0  0  0  0  0  0  0  0  0
   34.4290   28.6550   46.0300 O   0  0  0  0  0  0  0  0  0  0  0  0
   35.0100   27.8570   45.9730 H   0  0  0  0  0  0  0  0  0  0  0  0
   31.5330   29.0950   46.8470 O   0  0  0  0  0  0  0  0  0  0  0  0
   27.7590   26.7110   47.5190 H   0  0  0  0  0  0  0  0  0  0  0  0
   28.1730   27.5530   47.0240 N   0  0  0  0  0  0  0  0  0  0  0  0
   29.4810   27.6670   47.3080 C   0  0  0  0  0  3  0  0  0  0  0  0
   30.2110   28.7010   46.7610 C   0  0  0  0  0  0  0  0  0  0  0  0
   29.5340   29.5950   45.9210 C   0  0  0  0  0  0  0  0  0  0  0  0
   29.9950   30.6010   45.3180 O   0  0  0  0  0  0  0  0  0  0  0  0
   28.2050   29.4360   45.6610 N   0  0  0  0  0  0  0  0  0  0  0  0
   27.5300   28.4140   46.2160 C   0  0  0  0  0  0  0  0  0  0  0  0
   26.3070   28.1620   46.0550 O   0  0  0  0  0  0  0  0  0  0  0  0
   27.6320   30.0530   45.0520 H   0  0  0  0  0  0  0  0  0  0  0  0
  1  5  1  0  0  0  0
  1  6  1  1  0  0  0
  1  2  1  0  0  0  0
  2  7  1  6  0  0  0
  2 12  1  0  0  0  0
  2  3  1  0  0  0  0
  4  9  1  0  0  0  0
  4  8  1  0  0  0  0
  4  3  1  0  0  0  0
  5 10  1  6  0  0  0
  5  4  1  0  0  0  0
 11 14  1  1  0  0  0
 11 13  1  0  0  0  0
 12 15  1  6  0  0  0
 12 11  1  0  0  0  0
 12 13  1  0  0  0  0
 13 16  1  0  0  0  0
 13 17  1  0  0  0  0
 18 11  1  0  0  0  0
 18 19  1  0  0  0  0
 19 24  1  0  0  0  0
 20 19  2  0  0  0  0
 20 25  1  0  0  0  0
 21 20  1  0  0  0  0
 22 23  1  0  0  0  0
 22 21  2  0  0  0  0
 23 18  2  0  0  0  0
 26 22  1  0  0  0  0
 27  1  1  0  0  0  0
 28 27  1  0  0  0  0
 29  5  1  0  0  0  0
 31 32  1  0  0  0  0
 31 30  1  0  0  0  0
 33 29  1  0  0  0  0
 33 32  2  0  0  0  0
 34 33  1  0  0  0  0
 35 34  2  0  0  0  0
 36 34  1  0  0  0  0
 36 37  1  0  0  0  0
 37 31  1  0  0  0  0
 38 37  2  0  0  0  0
 39 36  1  0  0  0  0
M  END
>  <minimizedAffinity>
-5.5671382

>  <minimizedRMSD>
1.24572992

$$$$
