
 OpenBabel03272506443D

 33 35  0  0  1  0  0  0  0  0999 V2000
   32.3810   28.3390   47.5570 C   0  0  2  0  0  0  0  0  0  0  0  0
   33.6440   28.3820   48.4030 C   0  0  1  0  0  0  0  0  0  0  0  0
   34.1890   27.1330   48.4120 O   0  0  0  0  0  0  0  0  0  0  0  0
   33.5270   26.3440   47.4980 C   0  0  0  0  0  0  0  0  0  0  0  0
   32.8160   27.3030   46.5280 C   0  0  1  0  0  0  0  0  0  0  0  0
   31.5450   27.9580   48.1600 H   0  0  0  0  0  0  0  0  0  0  0  0
   33.4140   28.8040   49.3920 H   0  0  0  0  0  0  0  0  0  0  0  0
   34.1970   25.6440   46.9800 H   0  0  0  0  0  0  0  0  0  0  0  0
   32.7080   25.8240   48.0510 H   0  0  0  0  0  0  0  0  0  0  0  0
   33.5980   27.7260   45.9020 H   0  0  0  0  0  0  0  0  0  0  0  0
   32.1220   29.5780   46.9780 O   0  0  0  0  0  0  0  0  0  0  0  0
   32.7900   29.7180   46.2590 H   0  0  0  0  0  0  0  0  0  0  0  0
   34.8060   29.5050   47.5380 S   0  0  0  0  0  0  0  0  0  0  0  0
   37.4170   29.4900   50.5230 C   0  0  0  0  0  0  0  0  0  0  0  0
   38.0070   30.7570   50.4890 C   0  0  0  0  0  0  0  0  0  0  0  0
   37.5740   31.6580   49.4930 C   0  0  0  0  0  0  0  0  0  0  0  0
   36.6180   31.2450   48.6320 N   0  0  0  0  0  0  0  0  0  0  0  0
   36.0670   30.0140   48.6920 C   0  0  0  0  0  0  0  0  0  0  0  0
   36.4600   29.1390   49.6280 N   0  0  0  0  0  0  0  0  0  0  0  0
   37.7120   28.7630   51.2670 H   0  0  0  0  0  0  0  0  0  0  0  0
   38.7580   31.0320   51.1920 H   0  0  0  0  0  0  0  0  0  0  0  0
   38.0040   32.6510   49.4280 H   0  0  0  0  0  0  0  0  0  0  0  0
   31.7620   26.6630   45.9300 O   0  0  0  0  0  0  0  0  0  0  0  0
   32.2770   25.2220   41.6790 H   0  0  0  0  0  0  0  0  0  0  0  0
   31.8460   25.9030   42.3250 N   0  0  0  0  0  0  0  0  0  0  0  0
   32.1530   25.7350   43.6190 C   0  0  0  0  0  3  0  0  0  0  0  0
   31.6220   26.5990   44.5520 C   0  0  0  0  0  0  0  0  0  0  0  0
   30.7800   27.6270   44.1230 C   0  0  0  0  0  0  0  0  0  0  0  0
   30.2070   28.5050   44.8260 O   0  0  0  0  0  0  0  0  0  0  0  0
   30.4790   27.7840   42.8010 N   0  0  0  0  0  0  0  0  0  0  0  0
   31.0260   26.9050   41.9100 C   0  0  0  0  0  0  0  0  0  0  0  0
   30.7960   26.9840   40.6790 O   0  0  0  0  0  0  0  0  0  0  0  0
   29.8720   28.5100   42.4050 H   0  0  0  0  0  0  0  0  0  0  0  0
  1  6  1  1  0  0  0
  1  2  1  0  0  0  0
  2  3  1  0  0  0  0
  2  7  1  1  0  0  0
  4  9  1  0  0  0  0
  4  3  1  0  0  0  0
  5 10  1  6  0  0  0
  5  4  1  0  0  0  0
  5  1  1  0  0  0  0
  8  4  1  0  0  0  0
 11  1  1  0  0  0  0
 12 11  1  0  0  0  0
 13  2  1  0  0  0  0
 13 18  1  0  0  0  0
 14 20  1  0  0  0  0
 15 14  1  0  0  0  0
 15 21  1  0  0  0  0
 16 15  2  0  0  0  0
 17 18  2  0  0  0  0
 17 16  1  0  0  0  0
 18 19  1  0  0  0  0
 19 14  2  0  0  0  0
 22 16  1  0  0  0  0
 23  5  1  0  0  0  0
 24 25  1  0  0  0  0
 25 26  1  0  0  0  0
 26 27  2  0  0  0  0
 27 23  1  0  0  0  0
 28 27  1  0  0  0  0
 28 29  2  0  0  0  0
 30 28  1  0  0  0  0
 31 25  1  0  0  0  0
 31 30  1  0  0  0  0
 32 31  2  0  0  0  0
 33 30  1  0  0  0  0
M  END
>  <minimizedAffinity>
-3.76667666

>  <minimizedRMSD>
0.204008311

$$$$
