
 OpenBabel03272509193D

 34 36  0  0  0  0  0  0  0  0999 V2000
   37.9460   31.2350   47.8470 C   0  0  0  0  0  0  0  0  0  0  0  0
   36.9730   31.2310   48.8340 C   0  0  0  0  0  0  0  0  0  0  0  0
   37.0270   32.3220   49.7040 C   0  0  0  0  0  0  0  0  0  0  0  0
   38.0000   33.3250   49.5620 C   0  0  0  0  0  0  0  0  0  0  0  0
   38.9360   33.2310   48.5290 C   0  0  0  0  0  0  0  0  0  0  0  0
   38.9060   32.1660   47.6560 C   0  0  0  0  0  0  0  0  0  0  0  0
   36.2970   32.3730   50.4900 H   0  0  0  0  0  0  0  0  0  0  0  0
   38.0260   34.1610   50.2440 H   0  0  0  0  0  0  0  0  0  0  0  0
   39.6770   34.0060   48.4300 H   0  0  0  0  0  0  0  0  0  0  0  0
   34.8380   30.2210   48.1710 C   0  0  0  0  0  0  0  0  0  0  0  0
   35.9830   30.2050   48.9730 C   0  0  0  0  0  0  0  0  0  0  0  0
   36.1220   29.1690   49.8980 C   0  0  0  0  0  0  0  0  0  0  0  0
   35.1270   28.2360   49.9590 N   0  0  0  0  0  0  0  0  0  0  0  0
   34.0340   28.2880   49.1630 C   0  0  0  0  0  0  0  0  0  0  0  0
   33.8870   29.2810   48.2680 N   0  0  0  0  0  0  0  0  0  0  0  0
   34.7410   31.0310   47.4560 H   0  0  0  0  0  0  0  0  0  0  0  0
   33.2960   27.5090   49.2780 H   0  0  0  0  0  0  0  0  0  0  0  0
   37.3010   29.0950   50.7700 C   0  0  0  0  0  0  0  0  0  0  0  0
   37.1650   29.6300   51.7400 H   0  0  0  0  0  0  0  0  0  0  0  0
   37.6580   28.0690   50.9780 H   0  0  0  0  0  0  0  0  0  0  0  0
   38.1440   29.6280   50.2620 H   0  0  0  0  0  0  0  0  0  0  0  0
   37.9670   30.1600   46.9190 O   0  0  0  0  0  0  0  0  0  0  0  0
   37.1190   29.8650   46.4490 H   0  0  0  0  0  0  0  0  0  0  0  0
   39.8510   32.1240   46.6600 O   0  0  0  0  0  0  0  0  0  0  0  0
   37.4440   33.2070   42.9880 H   0  0  0  0  0  0  0  0  0  0  0  0
   38.3050   32.7280   43.3620 N   0  0  0  0  0  0  0  0  0  0  0  0
   38.4010   32.8010   44.6960 C   0  0  0  0  0  3  0  0  0  0  0  0
   39.4680   32.2260   45.3410 C   0  0  0  0  0  0  0  0  0  0  0  0
   40.4150   31.5800   44.5480 C   0  0  0  0  0  0  0  0  0  0  0  0
   41.4660   30.9850   44.9080 O   0  0  0  0  0  0  0  0  0  0  0  0
   40.2930   31.5190   43.1900 N   0  0  0  0  0  0  0  0  0  0  0  0
   39.2140   32.1080   42.5990 C   0  0  0  0  0  0  0  0  0  0  0  0
   38.9530   32.1440   41.3780 O   0  0  0  0  0  0  0  0  0  0  0  0
   40.9310   31.0720   42.5280 H   0  0  0  0  0  0  0  0  0  0  0  0
  1  2  1  0  0  0  0
  2 11  1  0  0  0  0
  2  3  2  0  0  0  0
  3  7  1  0  0  0  0
  4  3  1  0  0  0  0
  4  8  1  0  0  0  0
  5  4  2  0  0  0  0
  6  1  2  0  0  0  0
  6  5  1  0  0  0  0
  9  5  1  0  0  0  0
 10 15  2  0  0  0  0
 10 11  1  0  0  0  0
 11 12  2  0  0  0  0
 12 13  1  0  0  0  0
 12 18  1  0  0  0  0
 14 17  1  0  0  0  0
 14 13  2  0  0  0  0
 15 14  1  0  0  0  0
 16 10  1  0  0  0  0
 18 20  1  0  0  0  0
 18 19  1  0  0  0  0
 21 18  1  0  0  0  0
 22  1  1  0  0  0  0
 23 22  1  0  0  0  0
 24  6  1  0  0  0  0
 25 26  1  0  0  0  0
 26 27  1  0  0  0  0
 27 28  2  0  0  0  0
 28 24  1  0  0  0  0
 29 30  2  0  0  0  0
 29 28  1  0  0  0  0
 31 29  1  0  0  0  0
 32 31  1  0  0  0  0
 32 26  1  0  0  0  0
 33 32  2  0  0  0  0
 34 31  1  0  0  0  0
M  END
>  <minimizedAffinity>
-6.64802837

>  <minimizedRMSD>
0.517800868

$$$$
