
 OpenBabel03272503063D

 33 35  0  0  0  0  0  0  0  0999 V2000
   38.3210   30.3530   47.3920 F   0  0  0  0  0  0  0  0  0  0  0  0
   38.6160   31.5760   47.8670 C   0  0  0  0  0  0  0  0  0  0  0  0
   38.0830   31.9850   49.0570 C   0  0  0  0  0  0  0  0  0  0  0  0
   38.4220   33.2470   49.4930 C   0  0  0  0  0  0  0  0  0  0  0  0
   39.2610   34.0830   48.7840 C   0  0  0  0  0  0  0  0  0  0  0  0
   39.7930   33.6540   47.5840 C   0  0  0  0  0  0  0  0  0  0  0  0
   39.4590   32.3950   47.1380 C   0  0  0  0  0  0  0  0  0  0  0  0
   38.0000   33.5780   50.4400 H   0  0  0  0  0  0  0  0  0  0  0  0
   39.5220   35.0740   49.1370 H   0  0  0  0  0  0  0  0  0  0  0  0
   40.4490   34.2530   46.9860 H   0  0  0  0  0  0  0  0  0  0  0  0
   36.7220   29.5220   51.5780 C   0  0  0  0  0  0  0  0  0  0  0  0
   37.6020   30.3960   50.9170 C   0  0  0  0  0  0  0  0  0  0  0  0
   37.2040   31.0730   49.7720 C   0  0  0  0  0  0  0  0  0  0  0  0
   35.9230   30.8510   49.3220 N   0  0  0  0  0  0  0  0  0  0  0  0
   35.0950   30.0110   49.9690 C   0  0  0  0  0  0  0  0  0  0  0  0
   35.4800   29.3610   51.0700 N   0  0  0  0  0  0  0  0  0  0  0  0
   37.0510   29.0030   52.4700 H   0  0  0  0  0  0  0  0  0  0  0  0
   38.5840   30.5340   51.3040 H   0  0  0  0  0  0  0  0  0  0  0  0
   34.1200   29.9340   49.5050 H   0  0  0  0  0  0  0  0  0  0  0  0
   39.0980   31.9870   44.7770 C   0  0  0  0  0  0  0  0  0  0  0  0
   37.9620   32.5080   45.0840 O   0  0  0  0  0  0  0  0  0  0  0  0
   39.9800   31.9010   45.8870 N   0  0  0  0  0  0  0  0  0  0  0  0
   40.9140   31.5040   45.7530 H   0  0  0  0  0  0  0  0  0  0  0  0
   39.9160   28.6470   41.9090 H   0  0  0  0  0  0  0  0  0  0  0  0
   39.7950   29.6760   42.0070 N   0  0  0  0  0  0  0  0  0  0  0  0
   39.5400   30.1870   43.2230 C   0  0  0  0  0  3  0  0  0  0  0  0
   39.3660   31.5620   43.4230 C   0  0  0  0  0  0  0  0  0  0  0  0
   39.4820   32.3000   42.2660 C   0  0  0  0  0  0  0  0  0  0  0  0
   39.3370   33.5190   42.3900 O   0  0  0  0  0  0  0  0  0  0  0  0
   39.7370   31.7770   41.0560 N   0  0  0  0  0  0  0  0  0  0  0  0
   39.8960   30.4500   40.9120 C   0  0  0  0  0  0  0  0  0  0  0  0
   40.1330   29.9110   39.8160 O   0  0  0  0  0  0  0  0  0  0  0  0
   39.8060   32.4170   40.2420 H   0  0  0  0  0  0  0  0  0  0  0  0
  1  2  1  0  0  0  0
  2  3  1  0  0  0  0
  3  4  2  0  0  0  0
  3 13  1  0  0  0  0
  4  8  1  0  0  0  0
  5  9  1  0  0  0  0
  5  4  1  0  0  0  0
  6  5  2  0  0  0  0
  7  6  1  0  0  0  0
  7  2  2  0  0  0  0
 10  6  1  0  0  0  0
 11 17  1  0  0  0  0
 12 18  1  0  0  0  0
 12 11  2  0  0  0  0
 13 12  1  0  0  0  0
 14 13  2  0  0  0  0
 14 15  1  0  0  0  0
 15 16  2  0  0  0  0
 16 11  1  0  0  0  0
 19 15  1  0  0  0  0
 20 21  2  0  0  0  0
 20 22  1  0  0  0  0
 22  7  1  0  0  0  0
 23 22  1  0  0  0  0
 24 25  1  0  0  0  0
 25 26  1  0  0  0  0
 26 27  2  0  0  0  0
 27 20  1  0  0  0  0
 28 29  2  0  0  0  0
 28 27  1  0  0  0  0
 30 28  1  0  0  0  0
 31 30  1  0  0  0  0
 31 25  1  0  0  0  0
 32 31  2  0  0  0  0
 33 30  1  0  0  0  0
M  END
>  <minimizedAffinity>
-6.73679256

>  <minimizedRMSD>
0.518272519

$$$$
