
 OpenBabel03272506443D

 33 35  0  0  1  0  0  0  0  0999 V2000
   32.4230   28.3440   47.6000 C   0  0  2  0  0  0  0  0  0  0  0  0
   33.7030   28.3880   48.4200 C   0  0  1  0  0  0  0  0  0  0  0  0
   34.2700   27.1490   48.3840 O   0  0  0  0  0  0  0  0  0  0  0  0
   33.6030   26.3730   47.4640 C   0  0  0  0  0  0  0  0  0  0  0  0
   32.8530   27.3440   46.5350 C   0  0  1  0  0  0  0  0  0  0  0  0
   31.6070   27.9320   48.2100 H   0  0  0  0  0  0  0  0  0  0  0  0
   33.4870   28.7800   49.4240 H   0  0  0  0  0  0  0  0  0  0  0  0
   34.2730   25.6990   46.9130 H   0  0  0  0  0  0  0  0  0  0  0  0
   32.8050   25.8240   48.0200 H   0  0  0  0  0  0  0  0  0  0  0  0
   33.6130   27.7970   45.9040 H   0  0  0  0  0  0  0  0  0  0  0  0
   32.1290   29.5930   47.0600 O   0  0  0  0  0  0  0  0  0  0  0  0
   32.7780   29.7640   46.3310 H   0  0  0  0  0  0  0  0  0  0  0  0
   34.8260   29.5550   47.5600 S   0  0  0  0  0  0  0  0  0  0  0  0
   37.4900   29.5140   50.4970 C   0  0  0  0  0  0  0  0  0  0  0  0
   38.0680   30.7870   50.4750 C   0  0  0  0  0  0  0  0  0  0  0  0
   37.6080   31.7000   49.5020 C   0  0  0  0  0  0  0  0  0  0  0  0
   36.6400   31.2930   48.6510 N   0  0  0  0  0  0  0  0  0  0  0  0
   36.1030   30.0560   48.7000 C   0  0  0  0  0  0  0  0  0  0  0  0
   36.5200   29.1690   49.6140 N   0  0  0  0  0  0  0  0  0  0  0  0
   37.8060   28.7770   51.2230 H   0  0  0  0  0  0  0  0  0  0  0  0
   38.8280   31.0560   51.1680 H   0  0  0  0  0  0  0  0  0  0  0  0
   38.0280   32.6980   49.4460 H   0  0  0  0  0  0  0  0  0  0  0  0
   31.7980   26.7000   45.9430 O   0  0  0  0  0  0  0  0  0  0  0  0
   31.0680   28.9290   42.0800 H   0  0  0  0  0  0  0  0  0  0  0  0
   31.0310   28.0320   42.5930 N   0  0  0  0  0  0  0  0  0  0  0  0
   31.4470   28.0860   43.8660 C   0  0  0  0  0  3  0  0  0  0  0  0
   31.4320   26.9370   44.6260 C   0  0  0  0  0  0  0  0  0  0  0  0
   30.9850   25.7480   44.0490 C   0  0  0  0  0  0  0  0  0  0  0  0
   30.9010   24.6080   44.5850 O   0  0  0  0  0  0  0  0  0  0  0  0
   30.5640   25.7120   42.7510 N   0  0  0  0  0  0  0  0  0  0  0  0
   30.5950   26.8720   42.0340 C   0  0  0  0  0  0  0  0  0  0  0  0
   30.2250   26.9180   40.8360 O   0  0  0  0  0  0  0  0  0  0  0  0
   30.2210   24.8810   42.2540 H   0  0  0  0  0  0  0  0  0  0  0  0
  1  6  1  1  0  0  0
  1  2  1  0  0  0  0
  2  7  1  1  0  0  0
  3  2  1  0  0  0  0
  4  9  1  0  0  0  0
  4  3  1  0  0  0  0
  5 10  1  6  0  0  0
  5  4  1  0  0  0  0
  5  1  1  0  0  0  0
  8  4  1  0  0  0  0
 11  1  1  0  0  0  0
 12 11  1  0  0  0  0
 13  2  1  0  0  0  0
 13 18  1  0  0  0  0
 14 20  1  0  0  0  0
 15 14  1  0  0  0  0
 15 21  1  0  0  0  0
 16 15  2  0  0  0  0
 17 18  2  0  0  0  0
 17 16  1  0  0  0  0
 18 19  1  0  0  0  0
 19 14  2  0  0  0  0
 22 16  1  0  0  0  0
 23  5  1  0  0  0  0
 24 25  1  0  0  0  0
 25 26  1  0  0  0  0
 26 27  2  0  0  0  0
 27 23  1  0  0  0  0
 28 29  2  0  0  0  0
 28 27  1  0  0  0  0
 30 28  1  0  0  0  0
 31 25  1  0  0  0  0
 31 30  1  0  0  0  0
 32 31  2  0  0  0  0
 33 30  1  0  0  0  0
M  END
>  <minimizedAffinity>
-3.74321198

>  <minimizedRMSD>
0.626471102

$$$$
