
 OpenBabel03272508283D

 39 42  0  0  1  0  0  0  0  0999 V2000
   33.7700   28.9060   47.2490 C   0  0  2  0  0  0  0  0  0  0  0  0
   34.5240   28.1140   48.3110 C   0  0  2  0  0  0  0  0  0  0  0  0
   33.6300   27.9310   49.3320 O   0  0  0  0  0  0  0  0  0  0  0  0
   32.3460   28.0140   48.8750 C   0  0  0  0  0  0  0  0  0  0  0  0
   32.3950   28.2380   47.3750 C   0  0  1  0  0  0  0  0  0  0  0  0
   33.6220   29.9590   47.5120 H   0  0  0  0  0  0  0  0  0  0  0  0
   34.8110   27.1660   47.8180 H   0  0  0  0  0  0  0  0  0  0  0  0
   31.8520   28.8620   49.4020 H   0  0  0  0  0  0  0  0  0  0  0  0
   31.8470   27.0450   49.1160 H   0  0  0  0  0  0  0  0  0  0  0  0
   32.4690   27.2530   46.9000 H   0  0  0  0  0  0  0  0  0  0  0  0
   35.5990   30.3610   49.0160 C   0  0  1  0  0  0  0  0  0  0  0  0
   35.6880   28.9470   48.7390 C   0  0  1  0  0  0  0  0  0  0  0  0
   35.8700   29.3690   50.1600 C   0  0  0  0  0  0  0  0  0  0  0  0
   34.6970   30.9640   49.2170 H   0  0  0  0  0  0  0  0  0  0  0  0
   36.6470   28.6170   48.2430 H   0  0  0  0  0  0  0  0  0  0  0  0
   36.8690   29.3530   50.6250 H   0  0  0  0  0  0  0  0  0  0  0  0
   35.0230   29.1430   50.8360 H   0  0  0  0  0  0  0  0  0  0  0  0
   36.7900   31.2790   48.7720 C   0  0  0  0  0  0  0  0  0  0  0  0
   37.0320   32.2700   49.7270 C   0  0  0  0  0  0  0  0  0  0  0  0
   38.1140   33.0920   49.4470 C   0  0  0  0  0  0  0  0  0  0  0  0
   38.8640   32.9200   48.3150 N   0  0  0  0  0  0  0  0  0  0  0  0
   38.5860   31.9410   47.4180 C   0  0  0  0  0  0  0  0  0  0  0  0
   37.5360   31.1100   47.6490 N   0  0  0  0  0  0  0  0  0  0  0  0
   36.4120   32.3520   50.5900 H   0  0  0  0  0  0  0  0  0  0  0  0
   38.3470   33.8770   50.1550 H   0  0  0  0  0  0  0  0  0  0  0  0
   39.2070   31.8530   46.5480 H   0  0  0  0  0  0  0  0  0  0  0  0
   34.2810   28.7680   45.9800 O   0  0  0  0  0  0  0  0  0  0  0  0
   34.8920   28.0010   45.8480 H   0  0  0  0  0  0  0  0  0  0  0  0
   31.3930   29.0240   46.8980 O   0  0  0  0  0  0  0  0  0  0  0  0
   29.1230   27.1740   43.4640 H   0  0  0  0  0  0  0  0  0  0  0  0
   29.0380   27.5540   44.4500 N   0  0  0  0  0  0  0  0  0  0  0  0
   30.2350   27.9770   44.8930 C   0  0  0  0  0  3  0  0  0  0  0  0
   30.3440   28.5110   46.1580 C   0  0  0  0  0  0  0  0  0  0  0  0
   29.1780   28.5860   46.9330 C   0  0  0  0  0  0  0  0  0  0  0  0
   29.0430   29.0310   48.1030 O   0  0  0  0  0  0  0  0  0  0  0  0
   27.9860   28.1430   46.4380 N   0  0  0  0  0  0  0  0  0  0  0  0
   27.9220   27.6280   45.1960 C   0  0  0  0  0  0  0  0  0  0  0  0
   26.8880   27.1890   44.6310 O   0  0  0  0  0  0  0  0  0  0  0  0
   27.0800   28.1620   46.9450 H   0  0  0  0  0  0  0  0  0  0  0  0
  1  5  1  0  0  0  0
  1  6  1  1  0  0  0
  1  2  1  0  0  0  0
  2  7  1  6  0  0  0
  2 12  1  0  0  0  0
  2  3  1  0  0  0  0
  4  9  1  0  0  0  0
  4  3  1  0  0  0  0
  4  8  1  0  0  0  0
  5 10  1  6  0  0  0
  5  4  1  0  0  0  0
 11 14  1  6  0  0  0
 11 13  1  0  0  0  0
 12 15  1  6  0  0  0
 12 11  1  0  0  0  0
 12 13  1  0  0  0  0
 13 16  1  0  0  0  0
 13 17  1  0  0  0  0
 18 11  1  0  0  0  0
 18 19  1  0  0  0  0
 19 24  1  0  0  0  0
 20 19  2  0  0  0  0
 20 25  1  0  0  0  0
 21 20  1  0  0  0  0
 22 23  1  0  0  0  0
 22 21  2  0  0  0  0
 23 18  2  0  0  0  0
 26 22  1  0  0  0  0
 27  1  1  0  0  0  0
 28 27  1  0  0  0  0
 29  5  1  0  0  0  0
 30 31  1  0  0  0  0
 31 32  1  0  0  0  0
 31 37  1  0  0  0  0
 32 33  2  0  0  0  0
 33 29  1  0  0  0  0
 33 34  1  0  0  0  0
 34 35  2  0  0  0  0
 36 34  1  0  0  0  0
 36 39  1  0  0  0  0
 37 36  1  0  0  0  0
 38 37  2  0  0  0  0
M  END
>  <minimizedAffinity>
-5.35913038

>  <minimizedRMSD>
0.911084652

$$$$
