
 OpenBabel03272508283D

 39 42  0  0  1  0  0  0  0  0999 V2000
   33.6740   28.9690   47.2230 C   0  0  2  0  0  0  0  0  0  0  0  0
   34.4470   28.1220   48.2270 C   0  0  2  0  0  0  0  0  0  0  0  0
   33.5740   27.8900   49.2570 O   0  0  0  0  0  0  0  0  0  0  0  0
   32.2810   28.0000   48.8320 C   0  0  0  0  0  0  0  0  0  0  0  0
   32.2980   28.3000   47.3450 C   0  0  1  0  0  0  0  0  0  0  0  0
   33.5360   30.0080   47.5420 H   0  0  0  0  0  0  0  0  0  0  0  0
   34.7190   27.1990   47.6810 H   0  0  0  0  0  0  0  0  0  0  0  0
   31.8020   28.8220   49.4130 H   0  0  0  0  0  0  0  0  0  0  0  0
   31.7820   27.0220   49.0350 H   0  0  0  0  0  0  0  0  0  0  0  0
   32.3580   27.3410   46.8190 H   0  0  0  0  0  0  0  0  0  0  0  0
   35.5570   30.3380   48.9720 C   0  0  1  0  0  0  0  0  0  0  0  0
   35.6230   28.9280   48.6720 C   0  0  1  0  0  0  0  0  0  0  0  0
   35.8090   29.3230   50.1000 C   0  0  0  0  0  0  0  0  0  0  0  0
   34.6650   30.9530   49.1810 H   0  0  0  0  0  0  0  0  0  0  0  0
   36.5780   28.5900   48.1730 H   0  0  0  0  0  0  0  0  0  0  0  0
   36.8070   29.2830   50.5660 H   0  0  0  0  0  0  0  0  0  0  0  0
   34.9570   29.1000   50.7700 H   0  0  0  0  0  0  0  0  0  0  0  0
   36.7640   31.2390   48.7460 C   0  0  0  0  0  0  0  0  0  0  0  0
   37.0140   32.2180   49.7120 C   0  0  0  0  0  0  0  0  0  0  0  0
   38.1110   33.0260   49.4480 C   0  0  0  0  0  0  0  0  0  0  0  0
   38.8670   32.8530   48.3200 N   0  0  0  0  0  0  0  0  0  0  0  0
   38.5800   31.8870   47.4120 C   0  0  0  0  0  0  0  0  0  0  0  0
   37.5170   31.0700   47.6270 N   0  0  0  0  0  0  0  0  0  0  0  0
   36.3880   32.3020   50.5710 H   0  0  0  0  0  0  0  0  0  0  0  0
   38.3500   33.8010   50.1650 H   0  0  0  0  0  0  0  0  0  0  0  0
   39.2070   31.7970   46.5460 H   0  0  0  0  0  0  0  0  0  0  0  0
   34.1560   28.8940   45.9380 O   0  0  0  0  0  0  0  0  0  0  0  0
   34.7610   28.1330   45.7550 H   0  0  0  0  0  0  0  0  0  0  0  0
   31.2900   29.1130   46.9300 O   0  0  0  0  0  0  0  0  0  0  0  0
   28.9150   27.3980   43.4970 H   0  0  0  0  0  0  0  0  0  0  0  0
   28.8580   27.7530   44.4950 N   0  0  0  0  0  0  0  0  0  0  0  0
   30.0700   28.1420   44.9220 C   0  0  0  0  0  3  0  0  0  0  0  0
   30.2170   28.6390   46.2000 C   0  0  0  0  0  0  0  0  0  0  0  0
   29.0690   28.7130   47.0000 C   0  0  0  0  0  0  0  0  0  0  0  0
   28.9660   29.1280   48.1850 O   0  0  0  0  0  0  0  0  0  0  0  0
   27.8590   28.3040   46.5200 N   0  0  0  0  0  0  0  0  0  0  0  0
   27.7600   27.8260   45.2670 C   0  0  0  0  0  0  0  0  0  0  0  0
   26.7060   27.4210   44.7120 O   0  0  0  0  0  0  0  0  0  0  0  0
   26.9630   28.3270   47.0460 H   0  0  0  0  0  0  0  0  0  0  0  0
  1  5  1  0  0  0  0
  1  6  1  1  0  0  0
  1  2  1  0  0  0  0
  2  7  1  6  0  0  0
  2 12  1  0  0  0  0
  2  3  1  0  0  0  0
  4  9  1  0  0  0  0
  4  3  1  0  0  0  0
  4  8  1  0  0  0  0
  5 10  1  6  0  0  0
  5  4  1  0  0  0  0
 11 14  1  6  0  0  0
 11 13  1  0  0  0  0
 12 15  1  6  0  0  0
 12 11  1  0  0  0  0
 12 13  1  0  0  0  0
 13 16  1  0  0  0  0
 13 17  1  0  0  0  0
 18 11  1  0  0  0  0
 18 19  1  0  0  0  0
 19 24  1  0  0  0  0
 20 19  2  0  0  0  0
 20 25  1  0  0  0  0
 21 20  1  0  0  0  0
 22 23  1  0  0  0  0
 22 21  2  0  0  0  0
 23 18  2  0  0  0  0
 26 22  1  0  0  0  0
 27  1  1  0  0  0  0
 28 27  1  0  0  0  0
 29  5  1  0  0  0  0
 30 31  1  0  0  0  0
 31 32  1  0  0  0  0
 31 37  1  0  0  0  0
 32 33  2  0  0  0  0
 33 29  1  0  0  0  0
 33 34  1  0  0  0  0
 34 35  2  0  0  0  0
 36 34  1  0  0  0  0
 36 39  1  0  0  0  0
 37 36  1  0  0  0  0
 38 37  2  0  0  0  0
M  END
>  <minimizedAffinity>
-5.34555864

>  <minimizedRMSD>
1.13847876

$$$$
