
 OpenBabel03272506413D

 20 21  0  0  0  0  0  0  0  0999 V2000
   38.7100   24.6680   33.3320 S   0  0  0  0  0  0  0  0  0  0  0  0
   37.9280   25.3450   37.9990 H   0  0  0  0  0  0  0  0  0  0  0  0
   38.0040   24.6620   37.2110 N   0  0  0  0  0  0  0  0  0  0  0  0
   38.2710   24.9920   35.9180 C   0  0  0  0  0  3  0  0  0  0  0  0
   38.3490   23.9990   34.9500 C   0  0  0  0  0  0  0  0  0  0  0  0
   38.1550   22.6750   35.2950 C   0  0  0  0  0  0  0  0  0  0  0  0
   38.2530   21.8750   34.3220 O   0  0  0  0  0  0  0  0  0  0  0  0
   37.8920   22.3780   36.5820 N   0  0  0  0  0  0  0  0  0  0  0  0
   37.8220   23.3430   37.4970 C   0  0  0  0  0  0  0  0  0  0  0  0
   37.5730   23.0280   38.7010 O   0  0  0  0  0  0  0  0  0  0  0  0
   37.7550   21.3650   36.7820 H   0  0  0  0  0  0  0  0  0  0  0  0
   35.4160   23.9950   31.2200 C   0  0  0  0  0  0  0  0  0  0  0  0
   34.9570   25.2620   30.8680 C   0  0  0  0  0  0  0  0  0  0  0  0
   35.6860   26.3790   31.2940 C   0  0  0  0  0  0  0  0  0  0  0  0
   36.8220   26.1710   32.0390 N   0  0  0  0  0  0  0  0  0  0  0  0
   37.2340   24.9210   32.3610 C   0  0  0  0  0  0  0  0  0  0  0  0
   36.5370   23.8420   31.9540 N   0  0  0  0  0  0  0  0  0  0  0  0
   34.8320   23.1500   30.8780 H   0  0  0  0  0  0  0  0  0  0  0  0
   34.0730   25.4440   30.2850 H   0  0  0  0  0  0  0  0  0  0  0  0
   35.4160   27.4220   31.0730 H   0  0  0  0  0  0  0  0  0  0  0  0
  1  5  1  0  0  0  0
  3  9  1  0  0  0  0
  3  2  1  0  0  0  0
  4  3  1  0  0  0  0
  5  6  1  0  0  0  0
  5  4  2  0  0  0  0
  6  8  1  0  0  0  0
  7  6  2  0  0  0  0
  8 11  1  0  0  0  0
  8  9  1  0  0  0  0
  9 10  2  0  0  0  0
 12 17  1  0  0  0  0
 13 12  2  0  0  0  0
 13 14  1  0  0  0  0
 14 15  2  0  0  0  0
 15 16  1  0  0  0  0
 16  1  1  0  0  0  0
 17 16  2  0  0  0  0
 18 12  1  0  0  0  0
 19 13  1  0  0  0  0
 20 14  1  0  0  0  0
M  END
>  <minimizedAffinity>
-4.47749186

$$$$

 OpenBabel03272506413D

 20 21  0  0  0  0  0  0  0  0999 V2000
   38.3860   23.2160   33.2830 S   0  0  0  0  0  0  0  0  0  0  0  0
   39.5580   21.5930   37.6230 H   0  0  0  0  0  0  0  0  0  0  0  0
   39.1510   22.3720   37.0570 N   0  0  0  0  0  0  0  0  0  0  0  0
   39.0160   22.3620   35.7020 C   0  0  0  0  0  3  0  0  0  0  0  0
   38.4620   23.4560   35.0520 C   0  0  0  0  0  0  0  0  0  0  0  0
   38.0450   24.5580   35.7760 C   0  0  0  0  0  0  0  0  0  0  0  0
   37.5600   25.4820   35.0630 O   0  0  0  0  0  0  0  0  0  0  0  0
   38.1910   24.5400   37.1150 N   0  0  0  0  0  0  0  0  0  0  0  0
   38.7250   23.4810   37.7210 C   0  0  0  0  0  0  0  0  0  0  0  0
   38.8470   23.4980   38.9840 O   0  0  0  0  0  0  0  0  0  0  0  0
   37.8600   25.3970   37.6050 H   0  0  0  0  0  0  0  0  0  0  0  0
   35.4990   21.5170   31.1520 C   0  0  0  0  0  0  0  0  0  0  0  0
   34.9200   20.5900   32.0160 C   0  0  0  0  0  0  0  0  0  0  0  0
   35.4340   20.4750   33.3130 C   0  0  0  0  0  0  0  0  0  0  0  0
   36.4850   21.2840   33.6730 N   0  0  0  0  0  0  0  0  0  0  0  0
   37.0190   22.1730   32.8010 C   0  0  0  0  0  0  0  0  0  0  0  0
   36.5300   22.2890   31.5500 N   0  0  0  0  0  0  0  0  0  0  0  0
   35.0810   21.5830   30.1550 H   0  0  0  0  0  0  0  0  0  0  0  0
   34.0980   19.9500   31.7540 H   0  0  0  0  0  0  0  0  0  0  0  0
   35.0550   19.7790   34.0750 H   0  0  0  0  0  0  0  0  0  0  0  0
  1  5  1  0  0  0  0
  3  2  1  0  0  0  0
  3  9  1  0  0  0  0
  4  3  1  0  0  0  0
  5  4  2  0  0  0  0
  5  6  1  0  0  0  0
  6  8  1  0  0  0  0
  7  6  2  0  0  0  0
  8 11  1  0  0  0  0
  8  9  1  0  0  0  0
  9 10  2  0  0  0  0
 12 17  2  0  0  0  0
 12 13  1  0  0  0  0
 13 14  2  0  0  0  0
 14 15  1  0  0  0  0
 14 20  1  0  0  0  0
 16  1  1  0  0  0  0
 16 15  2  0  0  0  0
 17 16  1  0  0  0  0
 18 12  1  0  0  0  0
 19 13  1  0  0  0  0
M  END
>  <minimizedAffinity>
-4.42692661

$$$$

 OpenBabel03272506413D

 20 21  0  0  0  0  0  0  0  0999 V2000
   38.6940   24.4110   33.2590 S   0  0  0  0  0  0  0  0  0  0  0  0
   38.0110   21.3790   36.8910 H   0  0  0  0  0  0  0  0  0  0  0  0
   38.0520   22.3740   36.5740 N   0  0  0  0  0  0  0  0  0  0  0  0
   38.3090   22.7750   35.2980 C   0  0  0  0  0  3  0  0  0  0  0  0
   38.3410   24.1280   34.9880 C   0  0  0  0  0  0  0  0  0  0  0  0
   38.1140   25.0720   35.9720 C   0  0  0  0  0  0  0  0  0  0  0  0
   38.1710   26.2640   35.5570 O   0  0  0  0  0  0  0  0  0  0  0  0
   37.8620   24.6470   37.2250 N   0  0  0  0  0  0  0  0  0  0  0  0
   37.8360   23.3450   37.5030 C   0  0  0  0  0  0  0  0  0  0  0  0
   37.5950   22.9790   38.6950 O   0  0  0  0  0  0  0  0  0  0  0  0
   37.6990   25.4030   37.9230 H   0  0  0  0  0  0  0  0  0  0  0  0
   35.3340   24.0240   31.1800 C   0  0  0  0  0  0  0  0  0  0  0  0
   34.9500   25.3300   30.8820 C   0  0  0  0  0  0  0  0  0  0  0  0
   35.7540   26.3820   31.3360 C   0  0  0  0  0  0  0  0  0  0  0  0
   36.8850   26.0760   32.0540 N   0  0  0  0  0  0  0  0  0  0  0  0
   37.2220   24.7910   32.3230 C   0  0  0  0  0  0  0  0  0  0  0  0
   36.4530   23.7730   31.8890 N   0  0  0  0  0  0  0  0  0  0  0  0
   34.6920   23.2310   30.8170 H   0  0  0  0  0  0  0  0  0  0  0  0
   34.0710   25.5880   30.3210 H   0  0  0  0  0  0  0  0  0  0  0  0
   35.5480   27.4470   31.1580 H   0  0  0  0  0  0  0  0  0  0  0  0
  1  5  1  0  0  0  0
  3  2  1  0  0  0  0
  3  9  1  0  0  0  0
  4  3  1  0  0  0  0
  5  4  2  0  0  0  0
  5  6  1  0  0  0  0
  6  8  1  0  0  0  0
  7  6  2  0  0  0  0
  8  9  1  0  0  0  0
  8 11  1  0  0  0  0
  9 10  2  0  0  0  0
 12 17  1  0  0  0  0
 13 12  2  0  0  0  0
 13 14  1  0  0  0  0
 14 15  2  0  0  0  0
 15 16  1  0  0  0  0
 16  1  1  0  0  0  0
 17 16  2  0  0  0  0
 18 12  1  0  0  0  0
 19 13  1  0  0  0  0
 20 14  1  0  0  0  0
M  END
>  <minimizedAffinity>
-4.40562296

$$$$

 OpenBabel03272506413D

 20 21  0  0  0  0  0  0  0  0999 V2000
   37.8060   25.3300   35.9360 S   0  0  0  0  0  0  0  0  0  0  0  0
   41.6290   22.4910   35.5280 H   0  0  0  0  0  0  0  0  0  0  0  0
   40.8190   22.7940   36.1150 N   0  0  0  0  0  0  0  0  0  0  0  0
   39.9090   23.7410   35.7570 C   0  0  0  0  0  3  0  0  0  0  0  0
   38.8710   24.0680   36.6180 C   0  0  0  0  0  0  0  0  0  0  0  0
   38.7570   23.4340   37.8420 C   0  0  0  0  0  0  0  0  0  0  0  0
   37.7700   23.8230   38.5270 O   0  0  0  0  0  0  0  0  0  0  0  0
   39.6710   22.5010   38.1700 N   0  0  0  0  0  0  0  0  0  0  0  0
   40.6610   22.2010   37.3300 C   0  0  0  0  0  0  0  0  0  0  0  0
   41.5050   21.3170   37.6710 O   0  0  0  0  0  0  0  0  0  0  0  0
   39.5340   22.0580   39.1030 H   0  0  0  0  0  0  0  0  0  0  0  0
   39.4850   27.1160   32.8120 C   0  0  0  0  0  0  0  0  0  0  0  0
   38.9690   26.4490   31.7040 C   0  0  0  0  0  0  0  0  0  0  0  0
   38.0640   25.4020   31.9170 C   0  0  0  0  0  0  0  0  0  0  0  0
   37.7270   25.0830   33.2100 N   0  0  0  0  0  0  0  0  0  0  0  0
   38.2530   25.7580   34.2620 C   0  0  0  0  0  0  0  0  0  0  0  0
   39.1250   26.7670   34.0640 N   0  0  0  0  0  0  0  0  0  0  0  0
   40.1830   27.9210   32.6180 H   0  0  0  0  0  0  0  0  0  0  0  0
   39.2200   26.6840   30.6860 H   0  0  0  0  0  0  0  0  0  0  0  0
   37.5970   24.8090   31.1170 H   0  0  0  0  0  0  0  0  0  0  0  0
  1  5  1  0  0  0  0
  2  3  1  0  0  0  0
  3  9  1  0  0  0  0
  4  3  1  0  0  0  0
  4  5  2  0  0  0  0
  5  6  1  0  0  0  0
  6  8  1  0  0  0  0
  6  7  2  0  0  0  0
  8 11  1  0  0  0  0
  9 10  2  0  0  0  0
  9  8  1  0  0  0  0
 12 17  1  0  0  0  0
 13 14  1  0  0  0  0
 13 12  2  0  0  0  0
 14 15  2  0  0  0  0
 15 16  1  0  0  0  0
 16  1  1  0  0  0  0
 17 16  2  0  0  0  0
 18 12  1  0  0  0  0
 19 13  1  0  0  0  0
 20 14  1  0  0  0  0
M  END
>  <minimizedAffinity>
-4.32184935

$$$$

 OpenBabel03272506413D

 20 21  0  0  0  0  0  0  0  0999 V2000
   39.2680   22.0920   34.0090 S   0  0  0  0  0  0  0  0  0  0  0  0
   37.1890   24.4700   37.5960 H   0  0  0  0  0  0  0  0  0  0  0  0
   37.9650   23.8370   37.2950 N   0  0  0  0  0  0  0  0  0  0  0  0
   38.1540   23.3880   36.0240 C   0  0  0  0  0  3  0  0  0  0  0  0
   39.2210   22.5470   35.7360 C   0  0  0  0  0  0  0  0  0  0  0  0
   40.0930   22.1620   36.7380 C   0  0  0  0  0  0  0  0  0  0  0  0
   41.0170   21.3970   36.3420 O   0  0  0  0  0  0  0  0  0  0  0  0
   39.8800   22.6210   37.9860 N   0  0  0  0  0  0  0  0  0  0  0  0
   38.8520   23.4270   38.2430 C   0  0  0  0  0  0  0  0  0  0  0  0
   38.6810   23.8420   39.4300 O   0  0  0  0  0  0  0  0  0  0  0  0
   40.5680   22.2970   38.6980 H   0  0  0  0  0  0  0  0  0  0  0  0
   36.0450   22.6360   31.7560 C   0  0  0  0  0  0  0  0  0  0  0  0
   35.1320   21.6850   32.2080 C   0  0  0  0  0  0  0  0  0  0  0  0
   35.5170   20.8350   33.2510 C   0  0  0  0  0  0  0  0  0  0  0  0
   36.7760   20.9800   33.7810 N   0  0  0  0  0  0  0  0  0  0  0  0
   37.6340   21.9180   33.3110 C   0  0  0  0  0  0  0  0  0  0  0  0
   37.2710   22.7400   32.3070 N   0  0  0  0  0  0  0  0  0  0  0  0
   35.7210   23.2790   30.9470 H   0  0  0  0  0  0  0  0  0  0  0  0
   34.1440   21.5580   31.8070 H   0  0  0  0  0  0  0  0  0  0  0  0
   34.8790   20.0520   33.6850 H   0  0  0  0  0  0  0  0  0  0  0  0
  1  5  1  0  0  0  0
  3  2  1  0  0  0  0
  3  9  1  0  0  0  0
  4  3  1  0  0  0  0
  5  4  2  0  0  0  0
  5  6  1  0  0  0  0
  6  8  1  0  0  0  0
  7  6  2  0  0  0  0
  8  9  1  0  0  0  0
  8 11  1  0  0  0  0
  9 10  2  0  0  0  0
 12 13  2  0  0  0  0
 12 17  1  0  0  0  0
 13 14  1  0  0  0  0
 14 20  1  0  0  0  0
 14 15  2  0  0  0  0
 16 15  1  0  0  0  0
 16  1  1  0  0  0  0
 17 16  2  0  0  0  0
 18 12  1  0  0  0  0
 19 13  1  0  0  0  0
M  END
>  <minimizedAffinity>
-4.31285191

$$$$

 OpenBabel03272506413D

 20 21  0  0  0  0  0  0  0  0999 V2000
   38.8200   22.2260   33.9010 S   0  0  0  0  0  0  0  0  0  0  0  0
   34.9070   22.5440   31.1750 H   0  0  0  0  0  0  0  0  0  0  0  0
   35.6890   23.0480   31.6510 N   0  0  0  0  0  0  0  0  0  0  0  0
   36.6630   22.4530   32.3920 C   0  0  0  0  0  3  0  0  0  0  0  0
   37.6550   23.2230   32.9830 C   0  0  0  0  0  0  0  0  0  0  0  0
   37.6580   24.5960   32.8220 C   0  0  0  0  0  0  0  0  0  0  0  0
   38.6140   25.1760   33.4100 O   0  0  0  0  0  0  0  0  0  0  0  0
   36.6820   25.1590   32.0830 N   0  0  0  0  0  0  0  0  0  0  0  0
   35.7380   24.4030   31.5240 C   0  0  0  0  0  0  0  0  0  0  0  0
   34.8330   24.9660   30.8350 O   0  0  0  0  0  0  0  0  0  0  0  0
   36.7360   26.1950   31.9980 H   0  0  0  0  0  0  0  0  0  0  0  0
   40.0160   22.6950   37.6580 C   0  0  0  0  0  0  0  0  0  0  0  0
   38.9240   23.2640   38.3080 C   0  0  0  0  0  0  0  0  0  0  0  0
   37.7640   23.5190   37.5670 C   0  0  0  0  0  0  0  0  0  0  0  0
   37.7580   23.1940   36.2320 N   0  0  0  0  0  0  0  0  0  0  0  0
   38.8430   22.6410   35.6370 C   0  0  0  0  0  0  0  0  0  0  0  0
   39.9630   22.3930   36.3450 N   0  0  0  0  0  0  0  0  0  0  0  0
   40.9000   22.5100   38.2550 H   0  0  0  0  0  0  0  0  0  0  0  0
   38.9090   23.5250   39.3500 H   0  0  0  0  0  0  0  0  0  0  0  0
   36.8460   23.9640   37.9770 H   0  0  0  0  0  0  0  0  0  0  0  0
  1 16  1  0  0  0  0
  2  3  1  0  0  0  0
  3  4  1  0  0  0  0
  4  5  2  0  0  0  0
  5  1  1  0  0  0  0
  6  5  1  0  0  0  0
  6  7  2  0  0  0  0
  8  6  1  0  0  0  0
  9  3  1  0  0  0  0
  9  8  1  0  0  0  0
 10  9  2  0  0  0  0
 11  8  1  0  0  0  0
 12 18  1  0  0  0  0
 12 13  1  0  0  0  0
 13 19  1  0  0  0  0
 14 20  1  0  0  0  0
 14 13  2  0  0  0  0
 15 14  1  0  0  0  0
 16 15  2  0  0  0  0
 16 17  1  0  0  0  0
 17 12  2  0  0  0  0
M  END
>  <minimizedAffinity>
-4.25900078

$$$$

 OpenBabel03272506413D

 20 21  0  0  0  0  0  0  0  0999 V2000
   38.7250   23.5430   34.3690 S   0  0  0  0  0  0  0  0  0  0  0  0
   42.6550   21.0780   35.5200 H   0  0  0  0  0  0  0  0  0  0  0  0
   41.7620   21.5120   35.8490 N   0  0  0  0  0  0  0  0  0  0  0  0
   40.8820   22.1780   35.0540 C   0  0  0  0  0  3  0  0  0  0  0  0
   39.7240   22.7180   35.5990 C   0  0  0  0  0  0  0  0  0  0  0  0
   39.4630   22.5810   36.9500 C   0  0  0  0  0  0  0  0  0  0  0  0
   38.3790   23.1170   37.3160 O   0  0  0  0  0  0  0  0  0  0  0  0
   40.3520   21.9160   37.7130 N   0  0  0  0  0  0  0  0  0  0  0  0
   41.4570   21.4060   37.1710 C   0  0  0  0  0  0  0  0  0  0  0  0
   42.2730   20.7850   37.9190 O   0  0  0  0  0  0  0  0  0  0  0  0
   40.1020   21.8450   38.7210 H   0  0  0  0  0  0  0  0  0  0  0  0
   35.9150   20.7470   34.1490 C   0  0  0  0  0  0  0  0  0  0  0  0
   35.3790   20.8840   32.8700 C   0  0  0  0  0  0  0  0  0  0  0  0
   35.8990   21.8770   32.0320 C   0  0  0  0  0  0  0  0  0  0  0  0
   36.9140   22.6690   32.5100 N   0  0  0  0  0  0  0  0  0  0  0  0
   37.4070   22.5030   33.7620 C   0  0  0  0  0  0  0  0  0  0  0  0
   36.9110   21.5490   34.5740 N   0  0  0  0  0  0  0  0  0  0  0  0
   35.4930   19.9720   34.7760 H   0  0  0  0  0  0  0  0  0  0  0  0
   34.5860   20.2740   32.4790 H   0  0  0  0  0  0  0  0  0  0  0  0
   35.5520   22.0720   31.0070 H   0  0  0  0  0  0  0  0  0  0  0  0
  1  5  1  0  0  0  0
  2  3  1  0  0  0  0
  3  9  1  0  0  0  0
  4  5  2  0  0  0  0
  4  3  1  0  0  0  0
  5  6  1  0  0  0  0
  6  7  2  0  0  0  0
  6  8  1  0  0  0  0
  8 11  1  0  0  0  0
  9  8  1  0  0  0  0
  9 10  2  0  0  0  0
 12 17  1  0  0  0  0
 12 18  1  0  0  0  0
 13 12  2  0  0  0  0
 14 15  2  0  0  0  0
 14 13  1  0  0  0  0
 15 16  1  0  0  0  0
 16  1  1  0  0  0  0
 16 17  2  0  0  0  0
 19 13  1  0  0  0  0
 20 14  1  0  0  0  0
M  END
>  <minimizedAffinity>
-4.0962615

$$$$

 OpenBabel03272506413D

 20 21  0  0  0  0  0  0  0  0999 V2000
   39.0270   24.1260   34.0730 S   0  0  0  0  0  0  0  0  0  0  0  0
   36.4280   20.1830   33.3450 H   0  0  0  0  0  0  0  0  0  0  0  0
   36.6120   21.1750   33.0740 N   0  0  0  0  0  0  0  0  0  0  0  0
   37.5640   21.9710   33.6340 C   0  0  0  0  0  3  0  0  0  0  0  0
   37.7210   23.2790   33.1960 C   0  0  0  0  0  0  0  0  0  0  0  0
   36.9130   23.7770   32.1910 C   0  0  0  0  0  0  0  0  0  0  0  0
   37.1610   24.9780   31.8870 O   0  0  0  0  0  0  0  0  0  0  0  0
   35.9800   22.9670   31.6550 N   0  0  0  0  0  0  0  0  0  0  0  0
   35.8440   21.7150   32.0890 C   0  0  0  0  0  0  0  0  0  0  0  0
   34.9550   20.9790   31.5610 O   0  0  0  0  0  0  0  0  0  0  0  0
   35.4020   23.3980   30.9030 H   0  0  0  0  0  0  0  0  0  0  0  0
   37.8880   24.1600   37.8760 C   0  0  0  0  0  0  0  0  0  0  0  0
   38.8360   23.3820   38.5360 C   0  0  0  0  0  0  0  0  0  0  0  0
   39.8750   22.8180   37.7870 C   0  0  0  0  0  0  0  0  0  0  0  0
   39.9110   23.0600   36.4350 N   0  0  0  0  0  0  0  0  0  0  0  0
   38.9680   23.8230   35.8310 C   0  0  0  0  0  0  0  0  0  0  0  0
   37.9640   24.3690   36.5460 N   0  0  0  0  0  0  0  0  0  0  0  0
   37.0950   24.5830   38.4800 H   0  0  0  0  0  0  0  0  0  0  0  0
   38.8250   23.1830   39.5910 H   0  0  0  0  0  0  0  0  0  0  0  0
   40.6750   22.1900   38.2040 H   0  0  0  0  0  0  0  0  0  0  0  0
  1 16  1  0  0  0  0
  3  2  1  0  0  0  0
  3  4  1  0  0  0  0
  5  4  2  0  0  0  0
  5  1  1  0  0  0  0
  6  5  1  0  0  0  0
  7  6  2  0  0  0  0
  8  9  1  0  0  0  0
  8  6  1  0  0  0  0
  9  3  1  0  0  0  0
 10  9  2  0  0  0  0
 11  8  1  0  0  0  0
 12 18  1  0  0  0  0
 12 13  1  0  0  0  0
 13 19  1  0  0  0  0
 14 20  1  0  0  0  0
 14 13  2  0  0  0  0
 15 14  1  0  0  0  0
 16 15  2  0  0  0  0
 16 17  1  0  0  0  0
 17 12  2  0  0  0  0
M  END
>  <minimizedAffinity>
-4.06798029

$$$$

 OpenBabel03272506413D

 20 21  0  0  0  0  0  0  0  0999 V2000
   39.4260   24.1670   34.1150 S   0  0  0  0  0  0  0  0  0  0  0  0
   35.6210   25.4000   31.4990 H   0  0  0  0  0  0  0  0  0  0  0  0
   36.4050   25.7180   32.1130 N   0  0  0  0  0  0  0  0  0  0  0  0
   37.3300   24.8980   32.6810 C   0  0  0  0  0  3  0  0  0  0  0  0
   38.3310   25.4300   33.4830 C   0  0  0  0  0  0  0  0  0  0  0  0
   38.3910   26.7930   33.7080 C   0  0  0  0  0  0  0  0  0  0  0  0
   39.3480   27.1450   34.4540 O   0  0  0  0  0  0  0  0  0  0  0  0
   37.4620   27.5810   33.1320 N   0  0  0  0  0  0  0  0  0  0  0  0
   36.5090   27.0520   32.3660 C   0  0  0  0  0  0  0  0  0  0  0  0
   35.6500   27.8230   31.8390 O   0  0  0  0  0  0  0  0  0  0  0  0
   37.5570   28.5970   33.3380 H   0  0  0  0  0  0  0  0  0  0  0  0
   37.8430   24.1620   37.7560 C   0  0  0  0  0  0  0  0  0  0  0  0
   38.7140   23.3890   38.5200 C   0  0  0  0  0  0  0  0  0  0  0  0
   39.8420   22.8410   37.8960 C   0  0  0  0  0  0  0  0  0  0  0  0
   40.0350   23.0930   36.5590 N   0  0  0  0  0  0  0  0  0  0  0  0
   39.1610   23.8510   35.8520 C   0  0  0  0  0  0  0  0  0  0  0  0
   38.0740   24.3810   36.4460 N   0  0  0  0  0  0  0  0  0  0  0  0
   36.9790   24.5720   38.2640 H   0  0  0  0  0  0  0  0  0  0  0  0
   38.5810   23.1820   39.5650 H   0  0  0  0  0  0  0  0  0  0  0  0
   40.5940   22.2180   38.4010 H   0  0  0  0  0  0  0  0  0  0  0  0
  1 16  1  0  0  0  0
  2  3  1  0  0  0  0
  3  9  1  0  0  0  0
  3  4  1  0  0  0  0
  4  5  2  0  0  0  0
  5  6  1  0  0  0  0
  5  1  1  0  0  0  0
  6  7  2  0  0  0  0
  8 11  1  0  0  0  0
  8  6  1  0  0  0  0
  9  8  1  0  0  0  0
 10  9  2  0  0  0  0
 12 18  1  0  0  0  0
 12 13  1  0  0  0  0
 13 19  1  0  0  0  0
 14 20  1  0  0  0  0
 14 13  2  0  0  0  0
 15 14  1  0  0  0  0
 16 17  1  0  0  0  0
 16 15  2  0  0  0  0
 17 12  2  0  0  0  0
M  END
>  <minimizedAffinity>
-4.00841188

$$$$
