
 OpenBabel03262521573D

 40 42  0  0  1  0  0  0  0  0999 V2000
   37.0230   26.6640   34.7680 C   0  0  1  0  0  0  0  0  0  0  0  0
   37.5300   26.0900   33.4660 C   0  0  2  0  0  0  0  0  0  0  0  0
   38.9480   26.5570   33.3010 C   0  0  0  0  0  0  0  0  0  0  0  0
   39.3950   27.3500   34.3310 O   0  0  0  0  0  0  0  0  0  0  0  0
   39.3230   26.7090   35.5660 C   0  0  0  0  0  0  0  0  0  0  0  0
   37.9530   26.1670   35.8640 C   0  0  2  0  0  0  0  0  0  0  0  0
   35.9770   26.3930   34.9490 H   0  0  0  0  0  0  0  0  0  0  0  0
   37.4620   24.9860   33.5540 H   0  0  0  0  0  0  0  0  0  0  0  0
   39.0590   27.1530   32.3660 H   0  0  0  0  0  0  0  0  0  0  0  0
   39.5990   25.6580   33.2420 H   0  0  0  0  0  0  0  0  0  0  0  0
   39.5700   27.4440   36.3580 H   0  0  0  0  0  0  0  0  0  0  0  0
   40.0900   25.9070   35.6330 H   0  0  0  0  0  0  0  0  0  0  0  0
   37.6010   26.4580   36.8660 H   0  0  0  0  0  0  0  0  0  0  0  0
   37.0940   28.0570   34.7750 O   0  0  0  0  0  0  0  0  0  0  0  0
   37.1780   28.3670   33.8220 H   0  0  0  0  0  0  0  0  0  0  0  0
   36.5000   26.5840   32.0670 S   0  0  0  0  0  0  0  0  0  0  0  0
   35.8110   25.1250   31.2580 C   0  0  0  0  0  0  0  0  0  0  0  0
   34.8860   24.7520   31.7740 H   0  0  0  0  0  0  0  0  0  0  0  0
   35.4670   25.4500   30.2350 H   0  0  0  0  0  0  0  0  0  0  0  0
   36.9490   23.7750   31.0610 S   0  0  0  0  0  0  0  0  0  0  0  0
   36.4800   22.4460   32.1620 C   0  0  0  0  0  0  0  0  0  0  0  0
   35.4120   21.6780   31.7360 C   0  0  0  0  0  0  0  0  0  0  0  0
   34.9790   20.6170   32.5370 C   0  0  0  0  0  0  0  0  0  0  0  0
   35.6530   20.4010   33.7130 N   0  0  0  0  0  0  0  0  0  0  0  0
   36.6880   21.1860   34.0730 C   0  0  0  0  0  0  0  0  0  0  0  0
   37.1000   22.1850   33.3270 N   0  0  0  0  0  0  0  0  0  0  0  0
   34.8840   21.8540   30.8050 H   0  0  0  0  0  0  0  0  0  0  0  0
   34.1550   20.0170   32.2180 H   0  0  0  0  0  0  0  0  0  0  0  0
   37.1130   20.8920   35.0210 H   0  0  0  0  0  0  0  0  0  0  0  0
   37.9450   24.7830   35.7510 O   0  0  0  0  0  0  0  0  0  0  0  0
   41.5690   22.0670   35.3490 H   0  0  0  0  0  0  0  0  0  0  0  0
   40.7900   22.4610   35.9470 N   0  0  0  0  0  0  0  0  0  0  0  0
   39.9090   23.3420   35.4520 C   0  0  0  0  0  3  0  0  0  0  0  0
   38.8780   23.8850   36.1770 C   0  0  0  0  0  0  0  0  0  0  0  0
   38.7400   23.4960   37.5150 C   0  0  0  0  0  0  0  0  0  0  0  0
   37.8450   23.8990   38.3310 O   0  0  0  0  0  0  0  0  0  0  0  0
   39.6390   22.5980   38.0160 N   0  0  0  0  0  0  0  0  0  0  0  0
   40.6240   22.1100   37.2370 C   0  0  0  0  0  0  0  0  0  0  0  0
   41.4690   21.2730   37.6870 O   0  0  0  0  0  0  0  0  0  0  0  0
   39.5990   22.2570   39.0120 H   0  0  0  0  0  0  0  0  0  0  0  0
  1 14  1  0  0  0  0
  1  7  1  1  0  0  0
  1  6  1  0  0  0  0
  2  8  1  1  0  0  0
  2  1  1  0  0  0  0
  3  2  1  0  0  0  0
  3  4  1  0  0  0  0
  4  5  1  0  0  0  0
  5 12  1  0  0  0  0
  5  6  1  0  0  0  0
  5 11  1  0  0  0  0
  6 13  1  1  0  0  0
  9  3  1  0  0  0  0
 10  3  1  0  0  0  0
 15 14  1  0  0  0  0
 16  2  1  0  0  0  0
 17 18  1  0  0  0  0
 17 16  1  0  0  0  0
 19 17  1  0  0  0  0
 20 17  1  0  0  0  0
 20 21  1  0  0  0  0
 21 26  1  0  0  0  0
 22 21  2  0  0  0  0
 22 23  1  0  0  0  0
 23 24  2  0  0  0  0
 24 25  1  0  0  0  0
 25 29  1  0  0  0  0
 26 25  2  0  0  0  0
 27 22  1  0  0  0  0
 28 23  1  0  0  0  0
 30  6  1  0  0  0  0
 30 34  1  0  0  0  0
 31 32  1  0  0  0  0
 32 38  1  0  0  0  0
 33 32  1  0  0  0  0
 33 34  2  0  0  0  0
 34 35  1  0  0  0  0
 35 37  1  0  0  0  0
 35 36  2  0  0  0  0
 37 40  1  0  0  0  0
 38 39  2  0  0  0  0
 38 37  1  0  0  0  0
M  END
>  <minimizedAffinity>
-5.84363651

$$$$

 OpenBabel03262521573D

 40 42  0  0  1  0  0  0  0  0999 V2000
   37.7430   24.3570   31.3420 C   0  0  1  0  0  0  0  0  0  0  0  0
   36.3110   24.2450   31.8100 C   0  0  2  0  0  0  0  0  0  0  0  0
   35.8560   22.8450   31.5100 C   0  0  0  0  0  0  0  0  0  0  0  0
   36.8180   22.0650   30.9130 O   0  0  0  0  0  0  0  0  0  0  0  0
   37.9720   21.9570   31.6890 C   0  0  0  0  0  0  0  0  0  0  0  0
   38.5370   23.2930   32.0850 C   0  0  2  0  0  0  0  0  0  0  0  0
   38.1410   25.3650   31.4990 H   0  0  0  0  0  0  0  0  0  0  0  0
   36.3110   24.4590   32.8990 H   0  0  0  0  0  0  0  0  0  0  0  0
   34.9800   22.8550   30.8210 H   0  0  0  0  0  0  0  0  0  0  0  0
   35.5630   22.3670   32.4700 H   0  0  0  0  0  0  0  0  0  0  0  0
   38.7460   21.4320   31.0940 H   0  0  0  0  0  0  0  0  0  0  0  0
   37.7810   21.3260   32.5830 H   0  0  0  0  0  0  0  0  0  0  0  0
   39.6150   23.3650   31.8780 H   0  0  0  0  0  0  0  0  0  0  0  0
   37.8590   24.0750   29.9820 O   0  0  0  0  0  0  0  0  0  0  0  0
   36.9460   24.1590   29.5680 H   0  0  0  0  0  0  0  0  0  0  0  0
   35.2480   25.4740   31.0210 S   0  0  0  0  0  0  0  0  0  0  0  0
   36.0900   27.0670   30.9460 C   0  0  0  0  0  0  0  0  0  0  0  0
   37.1590   26.9660   30.6200 H   0  0  0  0  0  0  0  0  0  0  0  0
   35.5900   27.6630   30.1300 H   0  0  0  0  0  0  0  0  0  0  0  0
   36.0280   28.0150   32.4470 S   0  0  0  0  0  0  0  0  0  0  0  0
   37.4390   27.5960   33.4640 C   0  0  0  0  0  0  0  0  0  0  0  0
   37.2120   27.6260   34.8270 C   0  0  0  0  0  0  0  0  0  0  0  0
   38.2610   27.3120   35.6960 C   0  0  0  0  0  0  0  0  0  0  0  0
   39.4690   26.9880   35.1310 N   0  0  0  0  0  0  0  0  0  0  0  0
   39.6270   26.9760   33.7930 C   0  0  0  0  0  0  0  0  0  0  0  0
   38.6480   27.2700   32.9700 N   0  0  0  0  0  0  0  0  0  0  0  0
   36.2530   27.8830   35.2670 H   0  0  0  0  0  0  0  0  0  0  0  0
   38.0960   27.3320   36.7510 H   0  0  0  0  0  0  0  0  0  0  0  0
   40.6310   26.7030   33.5030 H   0  0  0  0  0  0  0  0  0  0  0  0
   38.3030   23.5350   33.4320 O   0  0  0  0  0  0  0  0  0  0  0  0
   41.9800   23.3570   36.1000 H   0  0  0  0  0  0  0  0  0  0  0  0
   40.9840   23.0600   35.9040 N   0  0  0  0  0  0  0  0  0  0  0  0
   40.3280   23.4920   34.8180 C   0  0  0  0  0  3  0  0  0  0  0  0
   39.0370   23.1420   34.5110 C   0  0  0  0  0  0  0  0  0  0  0  0
   38.3650   22.2820   35.3870 C   0  0  0  0  0  0  0  0  0  0  0  0
   37.1680   21.8570   35.2590 O   0  0  0  0  0  0  0  0  0  0  0  0
   39.0340   21.8440   36.4940 N   0  0  0  0  0  0  0  0  0  0  0  0
   40.3040   22.2340   36.7240 C   0  0  0  0  0  0  0  0  0  0  0  0
   40.9420   21.8360   37.7490 O   0  0  0  0  0  0  0  0  0  0  0  0
   38.5960   21.1950   37.1990 H   0  0  0  0  0  0  0  0  0  0  0  0
  1  7  1  1  0  0  0
  1  2  1  0  0  0  0
  1  6  1  0  0  0  0
  2  8  1  1  0  0  0
  3  2  1  0  0  0  0
  3 10  1  0  0  0  0
  4  3  1  0  0  0  0
  4  5  1  0  0  0  0
  5  6  1  0  0  0  0
  5 12  1  0  0  0  0
  6 13  1  6  0  0  0
  6 30  1  0  0  0  0
  9  3  1  0  0  0  0
 11  5  1  0  0  0  0
 14  1  1  0  0  0  0
 15 14  1  0  0  0  0
 16  2  1  0  0  0  0
 17 16  1  0  0  0  0
 17 20  1  0  0  0  0
 18 17  1  0  0  0  0
 19 17  1  0  0  0  0
 20 21  1  0  0  0  0
 21 22  1  0  0  0  0
 22 27  1  0  0  0  0
 22 23  2  0  0  0  0
 23 28  1  0  0  0  0
 24 23  1  0  0  0  0
 25 24  2  0  0  0  0
 26 21  2  0  0  0  0
 26 25  1  0  0  0  0
 29 25  1  0  0  0  0
 30 34  1  0  0  0  0
 32 31  1  0  0  0  0
 32 38  1  0  0  0  0
 33 32  1  0  0  0  0
 34 33  2  0  0  0  0
 34 35  1  0  0  0  0
 35 37  1  0  0  0  0
 36 35  2  0  0  0  0
 37 38  1  0  0  0  0
 37 40  1  0  0  0  0
 38 39  2  0  0  0  0
M  END
>  <minimizedAffinity>
-5.4805069

$$$$

 OpenBabel03262521573D

 40 42  0  0  1  0  0  0  0  0999 V2000
   37.7690   24.8650   31.3830 C   0  0  1  0  0  0  0  0  0  0  0  0
   36.5040   25.5910   31.7750 C   0  0  2  0  0  0  0  0  0  0  0  0
   35.3530   24.6880   31.4360 C   0  0  0  0  0  0  0  0  0  0  0  0
   35.7330   23.4880   30.8820 O   0  0  0  0  0  0  0  0  0  0  0  0
   36.5840   22.7630   31.7150 C   0  0  0  0  0  0  0  0  0  0  0  0
   37.7840   23.5540   32.1550 C   0  0  2  0  0  0  0  0  0  0  0  0
   38.6600   25.4750   31.5710 H   0  0  0  0  0  0  0  0  0  0  0  0
   36.5710   25.7900   32.8650 H   0  0  0  0  0  0  0  0  0  0  0  0
   34.6710   25.1770   30.7030 H   0  0  0  0  0  0  0  0  0  0  0  0
   34.7940   24.4790   32.3740 H   0  0  0  0  0  0  0  0  0  0  0  0
   36.9530   21.8810   31.1560 H   0  0  0  0  0  0  0  0  0  0  0  0
   36.0260   22.3680   32.5920 H   0  0  0  0  0  0  0  0  0  0  0  0
   38.7240   22.9990   32.0050 H   0  0  0  0  0  0  0  0  0  0  0  0
   37.7720   24.5390   30.0280 O   0  0  0  0  0  0  0  0  0  0  0  0
   37.0880   25.1150   29.5680 H   0  0  0  0  0  0  0  0  0  0  0  0
   36.3610   27.1890   30.9440 S   0  0  0  0  0  0  0  0  0  0  0  0
   35.5010   28.3660   32.0070 C   0  0  0  0  0  0  0  0  0  0  0  0
   35.4230   29.3830   31.5370 H   0  0  0  0  0  0  0  0  0  0  0  0
   34.4380   28.0050   32.1020 H   0  0  0  0  0  0  0  0  0  0  0  0
   36.1810   28.5330   33.6390 S   0  0  0  0  0  0  0  0  0  0  0  0
   35.1790   29.6780   34.5790 C   0  0  0  0  0  0  0  0  0  0  0  0
   35.8810   30.6590   35.2530 C   0  0  0  0  0  0  0  0  0  0  0  0
   35.1750   31.5980   36.0130 C   0  0  0  0  0  0  0  0  0  0  0  0
   33.8080   31.4820   36.0410 N   0  0  0  0  0  0  0  0  0  0  0  0
   33.1810   30.5000   35.3620 C   0  0  0  0  0  0  0  0  0  0  0  0
   33.8360   29.6160   34.6470 N   0  0  0  0  0  0  0  0  0  0  0  0
   36.9630   30.7450   35.2250 H   0  0  0  0  0  0  0  0  0  0  0  0
   35.7080   32.3600   36.5370 H   0  0  0  0  0  0  0  0  0  0  0  0
   32.1090   30.5410   35.4830 H   0  0  0  0  0  0  0  0  0  0  0  0
   37.6630   23.9140   33.4910 O   0  0  0  0  0  0  0  0  0  0  0  0
   38.4130   21.0320   36.9260 H   0  0  0  0  0  0  0  0  0  0  0  0
   38.7050   21.8880   36.3770 N   0  0  0  0  0  0  0  0  0  0  0  0
   37.9980   22.3140   35.3220 C   0  0  0  0  0  3  0  0  0  0  0  0
   38.3260   23.4160   34.5730 C   0  0  0  0  0  0  0  0  0  0  0  0
   39.4690   24.1390   34.9340 C   0  0  0  0  0  0  0  0  0  0  0  0
   39.9200   25.1820   34.3530 O   0  0  0  0  0  0  0  0  0  0  0  0
   40.1880   23.7020   36.0100 N   0  0  0  0  0  0  0  0  0  0  0  0
   39.7980   22.6090   36.6950 C   0  0  0  0  0  0  0  0  0  0  0  0
   40.4560   22.1880   37.6990 O   0  0  0  0  0  0  0  0  0  0  0  0
   41.0590   24.1930   36.3430 H   0  0  0  0  0  0  0  0  0  0  0  0
  1  7  1  1  0  0  0
  1  2  1  0  0  0  0
  1  6  1  0  0  0  0
  2  8  1  1  0  0  0
  3  2  1  0  0  0  0
  3 10  1  0  0  0  0
  4  3  1  0  0  0  0
  4  5  1  0  0  0  0
  5  6  1  0  0  0  0
  5 12  1  0  0  0  0
  6 13  1  6  0  0  0
  6 30  1  0  0  0  0
  9  3  1  0  0  0  0
 11  5  1  0  0  0  0
 14  1  1  0  0  0  0
 15 14  1  0  0  0  0
 16  2  1  0  0  0  0
 16 17  1  0  0  0  0
 17 19  1  0  0  0  0
 17 20  1  0  0  0  0
 18 17  1  0  0  0  0
 20 21  1  0  0  0  0
 21 26  2  0  0  0  0
 21 22  1  0  0  0  0
 22 23  2  0  0  0  0
 23 24  1  0  0  0  0
 23 28  1  0  0  0  0
 25 29  1  0  0  0  0
 25 24  2  0  0  0  0
 26 25  1  0  0  0  0
 27 22  1  0  0  0  0
 30 34  1  0  0  0  0
 32 38  1  0  0  0  0
 32 31  1  0  0  0  0
 33 32  1  0  0  0  0
 34 35  1  0  0  0  0
 34 33  2  0  0  0  0
 35 37  1  0  0  0  0
 36 35  2  0  0  0  0
 37 40  1  0  0  0  0
 37 38  1  0  0  0  0
 38 39  2  0  0  0  0
M  END
>  <minimizedAffinity>
-5.43097925

$$$$

 OpenBabel03262521573D

 40 42  0  0  1  0  0  0  0  0999 V2000
   37.1150   26.5630   34.8470 C   0  0  1  0  0  0  0  0  0  0  0  0
   37.6460   26.1220   33.5040 C   0  0  2  0  0  0  0  0  0  0  0  0
   39.0260   26.6990   33.3630 C   0  0  0  0  0  0  0  0  0  0  0  0
   39.4270   27.4460   34.4450 O   0  0  0  0  0  0  0  0  0  0  0  0
   39.4160   26.7150   35.6320 C   0  0  0  0  0  0  0  0  0  0  0  0
   38.0900   26.0570   35.8990 C   0  0  2  0  0  0  0  0  0  0  0  0
   36.0920   26.2070   35.0140 H   0  0  0  0  0  0  0  0  0  0  0  0
   37.6570   25.0120   33.5120 H   0  0  0  0  0  0  0  0  0  0  0  0
   39.0840   27.3670   32.4730 H   0  0  0  0  0  0  0  0  0  0  0  0
   39.7380   25.8550   33.2360 H   0  0  0  0  0  0  0  0  0  0  0  0
   39.6180   27.4070   36.4720 H   0  0  0  0  0  0  0  0  0  0  0  0
   40.2370   25.9670   35.6350 H   0  0  0  0  0  0  0  0  0  0  0  0
   37.7300   26.2500   36.9210 H   0  0  0  0  0  0  0  0  0  0  0  0
   37.0880   27.9540   34.9540 O   0  0  0  0  0  0  0  0  0  0  0  0
   37.1390   28.3370   34.0250 H   0  0  0  0  0  0  0  0  0  0  0  0
   36.5670   26.6400   32.1510 S   0  0  0  0  0  0  0  0  0  0  0  0
   37.1660   28.1840   31.4360 C   0  0  0  0  0  0  0  0  0  0  0  0
   37.9970   28.6360   32.0400 H   0  0  0  0  0  0  0  0  0  0  0  0
   37.6330   27.9250   30.4430 H   0  0  0  0  0  0  0  0  0  0  0  0
   35.9140   29.4130   31.1600 S   0  0  0  0  0  0  0  0  0  0  0  0
   35.0840   29.7630   32.7050 C   0  0  0  0  0  0  0  0  0  0  0  0
   33.7880   29.2910   32.7970 C   0  0  0  0  0  0  0  0  0  0  0  0
   33.0650   29.5200   33.9720 C   0  0  0  0  0  0  0  0  0  0  0  0
   33.6980   30.2100   34.9750 N   0  0  0  0  0  0  0  0  0  0  0  0
   34.9650   30.6450   34.8240 C   0  0  0  0  0  0  0  0  0  0  0  0
   35.6500   30.4340   33.7250 N   0  0  0  0  0  0  0  0  0  0  0  0
   33.2930   28.7450   31.9990 H   0  0  0  0  0  0  0  0  0  0  0  0
   32.0620   29.1600   34.0530 H   0  0  0  0  0  0  0  0  0  0  0  0
   35.3230   31.1690   35.6970 H   0  0  0  0  0  0  0  0  0  0  0  0
   38.1790   24.6870   35.6860 O   0  0  0  0  0  0  0  0  0  0  0  0
   39.8450   22.2020   39.1090 H   0  0  0  0  0  0  0  0  0  0  0  0
   39.8770   22.4820   38.0890 N   0  0  0  0  0  0  0  0  0  0  0  0
   39.0200   23.3810   37.5860 C   0  0  0  0  0  3  0  0  0  0  0  0
   39.0130   23.7840   36.2740 C   0  0  0  0  0  0  0  0  0  0  0  0
   39.9590   23.2200   35.4100 C   0  0  0  0  0  0  0  0  0  0  0  0
   40.0950   23.4770   34.1670 O   0  0  0  0  0  0  0  0  0  0  0  0
   40.8310   22.3040   35.9250 N   0  0  0  0  0  0  0  0  0  0  0  0
   40.7730   21.9620   37.2270 C   0  0  0  0  0  0  0  0  0  0  0  0
   41.5760   21.1110   37.7240 O   0  0  0  0  0  0  0  0  0  0  0  0
   41.5710   21.8380   35.3380 H   0  0  0  0  0  0  0  0  0  0  0  0
  1 14  1  0  0  0  0
  1  7  1  1  0  0  0
  1  6  1  0  0  0  0
  2  8  1  6  0  0  0
  2  1  1  0  0  0  0
  3  2  1  0  0  0  0
  3  4  1  0  0  0  0
  4  5  1  0  0  0  0
  5 12  1  0  0  0  0
  5  6  1  0  0  0  0
  5 11  1  0  0  0  0
  6 13  1  1  0  0  0
  9  3  1  0  0  0  0
 10  3  1  0  0  0  0
 15 14  1  0  0  0  0
 16  2  1  0  0  0  0
 17 18  1  0  0  0  0
 17 16  1  0  0  0  0
 19 17  1  0  0  0  0
 20 17  1  0  0  0  0
 20 21  1  0  0  0  0
 21 22  2  0  0  0  0
 21 26  1  0  0  0  0
 22 23  1  0  0  0  0
 23 28  1  0  0  0  0
 23 24  2  0  0  0  0
 25 24  1  0  0  0  0
 25 29  1  0  0  0  0
 26 25  2  0  0  0  0
 27 22  1  0  0  0  0
 30  6  1  0  0  0  0
 30 34  1  0  0  0  0
 32 31  1  0  0  0  0
 33 32  1  0  0  0  0
 34 33  2  0  0  0  0
 35 37  1  0  0  0  0
 35 34  1  0  0  0  0
 36 35  2  0  0  0  0
 37 38  1  0  0  0  0
 38 39  2  0  0  0  0
 38 32  1  0  0  0  0
 40 37  1  0  0  0  0
M  END
>  <minimizedAffinity>
-5.18046618

$$$$

 OpenBabel03262521573D

 40 42  0  0  1  0  0  0  0  0999 V2000
   37.8770   25.3270   31.0220 C   0  0  1  0  0  0  0  0  0  0  0  0
   37.8360   26.0350   32.3550 C   0  0  2  0  0  0  0  0  0  0  0  0
   36.5560   26.8220   32.3980 C   0  0  0  0  0  0  0  0  0  0  0  0
   35.7910   26.6980   31.2620 O   0  0  0  0  0  0  0  0  0  0  0  0
   35.4420   25.3750   30.9970 C   0  0  0  0  0  0  0  0  0  0  0  0
   36.6310   24.4570   30.9420 C   0  0  2  0  0  0  0  0  0  0  0  0
   38.8010   24.7510   30.8980 H   0  0  0  0  0  0  0  0  0  0  0  0
   37.8680   25.2490   33.1380 H   0  0  0  0  0  0  0  0  0  0  0  0
   36.7670   27.9090   32.5260 H   0  0  0  0  0  0  0  0  0  0  0  0
   35.9600   26.4590   33.2630 H   0  0  0  0  0  0  0  0  0  0  0  0
   34.9450   25.3350   30.0070 H   0  0  0  0  0  0  0  0  0  0  0  0
   34.6960   25.0140   31.7370 H   0  0  0  0  0  0  0  0  0  0  0  0
   36.6270   23.8260   30.0400 H   0  0  0  0  0  0  0  0  0  0  0  0
   37.8100   26.2300   29.9610 O   0  0  0  0  0  0  0  0  0  0  0  0
   38.0520   27.1400   30.3140 H   0  0  0  0  0  0  0  0  0  0  0  0
   39.2770   27.0960   32.5980 S   0  0  0  0  0  0  0  0  0  0  0  0
   39.9550   26.8530   34.2520 C   0  0  0  0  0  0  0  0  0  0  0  0
   40.5710   25.9180   34.3230 H   0  0  0  0  0  0  0  0  0  0  0  0
   40.6790   27.6970   34.4370 H   0  0  0  0  0  0  0  0  0  0  0  0
   38.7510   26.8550   35.5590 S   0  0  0  0  0  0  0  0  0  0  0  0
   38.3640   25.1660   36.0030 C   0  0  0  0  0  0  0  0  0  0  0  0
   38.0430   24.9650   37.3320 C   0  0  0  0  0  0  0  0  0  0  0  0
   37.7260   23.6740   37.7650 C   0  0  0  0  0  0  0  0  0  0  0  0
   37.7540   22.6720   36.8280 N   0  0  0  0  0  0  0  0  0  0  0  0
   38.0760   22.9320   35.5450 C   0  0  0  0  0  0  0  0  0  0  0  0
   38.3740   24.1410   35.1300 N   0  0  0  0  0  0  0  0  0  0  0  0
   38.0220   25.7630   38.0680 H   0  0  0  0  0  0  0  0  0  0  0  0
   37.4770   23.5080   38.7910 H   0  0  0  0  0  0  0  0  0  0  0  0
   38.0540   22.0440   34.9310 H   0  0  0  0  0  0  0  0  0  0  0  0
   36.6740   23.6530   32.0740 O   0  0  0  0  0  0  0  0  0  0  0  0
   33.9920   20.0030   32.4720 H   0  0  0  0  0  0  0  0  0  0  0  0
   34.9640   20.4130   32.3980 N   0  0  0  0  0  0  0  0  0  0  0  0
   35.1580   21.7350   32.2880 C   0  0  0  0  0  3  0  0  0  0  0  0
   36.3930   22.3240   32.1890 C   0  0  0  0  0  0  0  0  0  0  0  0
   37.5190   21.4930   32.2050 C   0  0  0  0  0  0  0  0  0  0  0  0
   38.7370   21.8680   32.1230 O   0  0  0  0  0  0  0  0  0  0  0  0
   37.3200   20.1470   32.3170 N   0  0  0  0  0  0  0  0  0  0  0  0
   36.0720   19.6460   32.4100 C   0  0  0  0  0  0  0  0  0  0  0  0
   35.8680   18.3960   32.5150 O   0  0  0  0  0  0  0  0  0  0  0  0
   38.1170   19.4580   32.3370 H   0  0  0  0  0  0  0  0  0  0  0  0
  1  7  1  6  0  0  0
  1  2  1  0  0  0  0
  2  3  1  0  0  0  0
  2 16  1  0  0  0  0
  2  8  1  1  0  0  0
  3  9  1  0  0  0  0
  3 10  1  0  0  0  0
  4  3  1  0  0  0  0
  5  4  1  0  0  0  0
  5 12  1  0  0  0  0
  6 13  1  6  0  0  0
  6  5  1  0  0  0  0
  6  1  1  0  0  0  0
  6 30  1  0  0  0  0
 11  5  1  0  0  0  0
 14 15  1  0  0  0  0
 14  1  1  0  0  0  0
 16 17  1  0  0  0  0
 17 18  1  0  0  0  0
 17 19  1  0  0  0  0
 17 20  1  0  0  0  0
 20 21  1  0  0  0  0
 21 22  1  0  0  0  0
 22 23  2  0  0  0  0
 22 27  1  0  0  0  0
 23 28  1  0  0  0  0
 24 23  1  0  0  0  0
 25 24  2  0  0  0  0
 26 25  1  0  0  0  0
 26 21  2  0  0  0  0
 29 25  1  0  0  0  0
 30 34  1  0  0  0  0
 32 38  1  0  0  0  0
 32 31  1  0  0  0  0
 33 32  1  0  0  0  0
 34 35  1  0  0  0  0
 34 33  2  0  0  0  0
 35 37  1  0  0  0  0
 36 35  2  0  0  0  0
 37 40  1  0  0  0  0
 37 38  1  0  0  0  0
 38 39  2  0  0  0  0
M  END
>  <minimizedAffinity>
-5.1434269

$$$$

 OpenBabel03262521573D

 40 42  0  0  1  0  0  0  0  0999 V2000
   37.7260   24.7190   31.4810 C   0  0  1  0  0  0  0  0  0  0  0  0
   36.3800   25.2670   31.8890 C   0  0  2  0  0  0  0  0  0  0  0  0
   35.3500   24.2470   31.4950 C   0  0  0  0  0  0  0  0  0  0  0  0
   35.8770   23.1300   30.8910 O   0  0  0  0  0  0  0  0  0  0  0  0
   36.8040   22.4750   31.7010 C   0  0  0  0  0  0  0  0  0  0  0  0
   37.8970   23.3850   32.1910 C   0  0  2  0  0  0  0  0  0  0  0  0
   38.5350   25.4230   31.7070 H   0  0  0  0  0  0  0  0  0  0  0  0
   36.4150   25.4210   32.9880 H   0  0  0  0  0  0  0  0  0  0  0  0
   34.6180   24.6840   30.7770 H   0  0  0  0  0  0  0  0  0  0  0  0
   34.8140   23.9280   32.4160 H   0  0  0  0  0  0  0  0  0  0  0  0
   37.2820   21.6720   31.1070 H   0  0  0  0  0  0  0  0  0  0  0  0
   36.2930   21.9750   32.5520 H   0  0  0  0  0  0  0  0  0  0  0  0
   38.8970   22.9560   32.0280 H   0  0  0  0  0  0  0  0  0  0  0  0
   37.7780   24.4590   30.1110 O   0  0  0  0  0  0  0  0  0  0  0  0
   37.0320   24.9690   29.6710 H   0  0  0  0  0  0  0  0  0  0  0  0
   36.0490   26.8730   31.1310 S   0  0  0  0  0  0  0  0  0  0  0  0
   37.5230   27.9110   31.2080 C   0  0  0  0  0  0  0  0  0  0  0  0
   37.3300   28.8820   31.7360 H   0  0  0  0  0  0  0  0  0  0  0  0
   38.2710   27.3690   31.8540 H   0  0  0  0  0  0  0  0  0  0  0  0
   38.2820   28.2460   29.6370 S   0  0  0  0  0  0  0  0  0  0  0  0
   37.7140   29.8320   29.0370 C   0  0  0  0  0  0  0  0  0  0  0  0
   37.0350   30.6030   29.9620 C   0  0  0  0  0  0  0  0  0  0  0  0
   36.5560   31.8590   29.5770 C   0  0  0  0  0  0  0  0  0  0  0  0
   36.7930   32.2530   28.2840 N   0  0  0  0  0  0  0  0  0  0  0  0
   37.4620   31.4540   27.4280 C   0  0  0  0  0  0  0  0  0  0  0  0
   37.9150   30.2740   27.7820 N   0  0  0  0  0  0  0  0  0  0  0  0
   36.8510   30.2860   30.9840 H   0  0  0  0  0  0  0  0  0  0  0  0
   36.0300   32.4630   30.2840 H   0  0  0  0  0  0  0  0  0  0  0  0
   37.5690   31.9020   26.4510 H   0  0  0  0  0  0  0  0  0  0  0  0
   37.7240   23.6640   33.5410 O   0  0  0  0  0  0  0  0  0  0  0  0
   41.3780   24.0390   36.2190 H   0  0  0  0  0  0  0  0  0  0  0  0
   40.4640   23.5580   35.9900 N   0  0  0  0  0  0  0  0  0  0  0  0
   39.7240   23.9310   34.9370 C   0  0  0  0  0  3  0  0  0  0  0  0
   38.5330   23.3450   34.5900 C   0  0  0  0  0  0  0  0  0  0  0  0
   38.0630   22.2940   35.3860 C   0  0  0  0  0  0  0  0  0  0  0  0
   36.9810   21.6390   35.2110 O   0  0  0  0  0  0  0  0  0  0  0  0
   38.8180   21.9150   36.4580 N   0  0  0  0  0  0  0  0  0  0  0  0
   39.9790   22.5420   36.7310 C   0  0  0  0  0  0  0  0  0  0  0  0
   40.6960   22.2030   37.7260 O   0  0  0  0  0  0  0  0  0  0  0  0
   38.5310   21.1320   37.1020 H   0  0  0  0  0  0  0  0  0  0  0  0
  1  7  1  1  0  0  0
  1  2  1  0  0  0  0
  1  6  1  0  0  0  0
  2  8  1  1  0  0  0
  3  2  1  0  0  0  0
  3 10  1  0  0  0  0
  4  3  1  0  0  0  0
  4  5  1  0  0  0  0
  5  6  1  0  0  0  0
  5 12  1  0  0  0  0
  6 13  1  6  0  0  0
  6 30  1  0  0  0  0
  9  3  1  0  0  0  0
 11  5  1  0  0  0  0
 14  1  1  0  0  0  0
 15 14  1  0  0  0  0
 16 17  1  0  0  0  0
 16  2  1  0  0  0  0
 17 18  1  0  0  0  0
 17 19  1  0  0  0  0
 20 17  1  0  0  0  0
 21 20  1  0  0  0  0
 21 22  1  0  0  0  0
 22 27  1  0  0  0  0
 23 22  2  0  0  0  0
 23 28  1  0  0  0  0
 24 23  1  0  0  0  0
 25 26  1  0  0  0  0
 25 24  2  0  0  0  0
 26 21  2  0  0  0  0
 29 25  1  0  0  0  0
 30 34  1  0  0  0  0
 32 31  1  0  0  0  0
 32 38  1  0  0  0  0
 33 32  1  0  0  0  0
 34 33  2  0  0  0  0
 34 35  1  0  0  0  0
 35 37  1  0  0  0  0
 36 35  2  0  0  0  0
 37 38  1  0  0  0  0
 37 40  1  0  0  0  0
 38 39  2  0  0  0  0
M  END
>  <minimizedAffinity>
-5.02427244

$$$$

 OpenBabel03262521573D

 40 42  0  0  1  0  0  0  0  0999 V2000
   38.7340   22.9940   31.2880 C   0  0  1  0  0  0  0  0  0  0  0  0
   38.3160   24.3420   31.8270 C   0  0  2  0  0  0  0  0  0  0  0  0
   36.8570   24.5100   31.5120 C   0  0  0  0  0  0  0  0  0  0  0  0
   36.3060   23.4410   30.8440 O   0  0  0  0  0  0  0  0  0  0  0  0
   36.4310   22.2480   31.5550 C   0  0  0  0  0  0  0  0  0  0  0  0
   37.8490   21.9540   31.9580 C   0  0  2  0  0  0  0  0  0  0  0  0
   39.8010   22.8070   31.4510 H   0  0  0  0  0  0  0  0  0  0  0  0
   38.5070   24.3240   32.9200 H   0  0  0  0  0  0  0  0  0  0  0  0
   36.6930   25.4070   30.8710 H   0  0  0  0  0  0  0  0  0  0  0  0
   36.3120   24.6410   32.4720 H   0  0  0  0  0  0  0  0  0  0  0  0
   36.0910   21.4170   30.9060 H   0  0  0  0  0  0  0  0  0  0  0  0
   35.7590   22.2510   32.4400 H   0  0  0  0  0  0  0  0  0  0  0  0
   38.1500   20.9280   31.6970 H   0  0  0  0  0  0  0  0  0  0  0  0
   38.5050   22.8990   29.9160 O   0  0  0  0  0  0  0  0  0  0  0  0
   38.4010   23.8320   29.5530 H   0  0  0  0  0  0  0  0  0  0  0  0
   39.3050   25.6820   31.1280 S   0  0  0  0  0  0  0  0  0  0  0  0
   39.7100   26.8860   32.4090 C   0  0  0  0  0  0  0  0  0  0  0  0
   40.7610   26.7660   32.7860 H   0  0  0  0  0  0  0  0  0  0  0  0
   39.6870   27.9030   31.9230 H   0  0  0  0  0  0  0  0  0  0  0  0
   38.5980   26.9050   33.7940 S   0  0  0  0  0  0  0  0  0  0  0  0
   37.1370   27.8430   33.3600 C   0  0  0  0  0  0  0  0  0  0  0  0
   36.4150   28.3360   34.4300 C   0  0  0  0  0  0  0  0  0  0  0  0
   35.2580   29.0810   34.1810 C   0  0  0  0  0  0  0  0  0  0  0  0
   34.9080   29.2790   32.8690 N   0  0  0  0  0  0  0  0  0  0  0  0
   35.6550   28.7710   31.8690 C   0  0  0  0  0  0  0  0  0  0  0  0
   36.7420   28.0700   32.0940 N   0  0  0  0  0  0  0  0  0  0  0  0
   36.6980   28.1760   35.4660 H   0  0  0  0  0  0  0  0  0  0  0  0
   34.6920   29.4670   35.0010 H   0  0  0  0  0  0  0  0  0  0  0  0
   35.2510   29.0100   30.8960 H   0  0  0  0  0  0  0  0  0  0  0  0
   38.0160   22.1560   33.3220 O   0  0  0  0  0  0  0  0  0  0  0  0
   34.5890   19.8790   35.2570 H   0  0  0  0  0  0  0  0  0  0  0  0
   35.4090   20.5400   35.3510 N   0  0  0  0  0  0  0  0  0  0  0  0
   36.1460   20.8950   34.2890 C   0  0  0  0  0  3  0  0  0  0  0  0
   37.2190   21.7480   34.3500 C   0  0  0  0  0  0  0  0  0  0  0  0
   37.5640   22.2810   35.5970 C   0  0  0  0  0  0  0  0  0  0  0  0
   38.5260   23.0850   35.8360 O   0  0  0  0  0  0  0  0  0  0  0  0
   36.8120   21.9180   36.6780 N   0  0  0  0  0  0  0  0  0  0  0  0
   35.7710   21.0740   36.5340 C   0  0  0  0  0  0  0  0  0  0  0  0
   35.0600   20.7250   37.5300 O   0  0  0  0  0  0  0  0  0  0  0  0
   37.0090   22.2780   37.6490 H   0  0  0  0  0  0  0  0  0  0  0  0
  1  7  1  1  0  0  0
  1  2  1  0  0  0  0
  1  6  1  0  0  0  0
  2  8  1  1  0  0  0
  3  2  1  0  0  0  0
  3 10  1  0  0  0  0
  4  3  1  0  0  0  0
  4  5  1  0  0  0  0
  5  6  1  0  0  0  0
  5 12  1  0  0  0  0
  6 13  1  6  0  0  0
  6 30  1  0  0  0  0
  9  3  1  0  0  0  0
 11  5  1  0  0  0  0
 14  1  1  0  0  0  0
 15 14  1  0  0  0  0
 16  2  1  0  0  0  0
 16 17  1  0  0  0  0
 17 18  1  0  0  0  0
 17 20  1  0  0  0  0
 19 17  1  0  0  0  0
 21 20  1  0  0  0  0
 21 22  1  0  0  0  0
 22 27  1  0  0  0  0
 23 22  2  0  0  0  0
 23 28  1  0  0  0  0
 24 23  1  0  0  0  0
 25 26  1  0  0  0  0
 25 24  2  0  0  0  0
 26 21  2  0  0  0  0
 29 25  1  0  0  0  0
 30 34  1  0  0  0  0
 31 32  1  0  0  0  0
 32 38  1  0  0  0  0
 33 34  2  0  0  0  0
 33 32  1  0  0  0  0
 34 35  1  0  0  0  0
 35 36  2  0  0  0  0
 35 37  1  0  0  0  0
 37 40  1  0  0  0  0
 38 37  1  0  0  0  0
 38 39  2  0  0  0  0
M  END
>  <minimizedAffinity>
-5.01344633

$$$$

 OpenBabel03262521573D

 40 42  0  0  1  0  0  0  0  0999 V2000
   38.6230   24.8550   31.0920 C   0  0  1  0  0  0  0  0  0  0  0  0
   37.9630   26.1260   31.5720 C   0  0  2  0  0  0  0  0  0  0  0  0
   36.5000   25.8280   31.7390 C   0  0  0  0  0  0  0  0  0  0  0  0
   36.1580   24.5340   31.4240 O   0  0  0  0  0  0  0  0  0  0  0  0
   36.8500   23.5980   32.1910 C   0  0  0  0  0  0  0  0  0  0  0  0
   38.3410   23.7860   32.1360 C   0  0  2  0  0  0  0  0  0  0  0  0
   39.6950   24.9980   30.9150 H   0  0  0  0  0  0  0  0  0  0  0  0
   38.4460   26.3950   32.5350 H   0  0  0  0  0  0  0  0  0  0  0  0
   35.8870   26.4890   31.0850 H   0  0  0  0  0  0  0  0  0  0  0  0
   36.2320   26.0120   32.8020 H   0  0  0  0  0  0  0  0  0  0  0  0
   36.6270   22.5870   31.7970 H   0  0  0  0  0  0  0  0  0  0  0  0
   36.4870   23.6120   33.2420 H   0  0  0  0  0  0  0  0  0  0  0  0
   38.8690   22.8450   31.9160 H   0  0  0  0  0  0  0  0  0  0  0  0
   38.0640   24.4100   29.8940 O   0  0  0  0  0  0  0  0  0  0  0  0
   37.5710   25.1810   29.4770 H   0  0  0  0  0  0  0  0  0  0  0  0
   38.2360   27.4990   30.4310 S   0  0  0  0  0  0  0  0  0  0  0  0
   36.6700   28.3100   30.0500 C   0  0  0  0  0  0  0  0  0  0  0  0
   36.3990   28.2180   28.9640 H   0  0  0  0  0  0  0  0  0  0  0  0
   35.8660   27.7440   30.6010 H   0  0  0  0  0  0  0  0  0  0  0  0
   36.5790   30.0180   30.5280 S   0  0  0  0  0  0  0  0  0  0  0  0
   36.0940   30.1210   32.2470 C   0  0  0  0  0  0  0  0  0  0  0  0
   35.7960   31.3930   32.6990 C   0  0  0  0  0  0  0  0  0  0  0  0
   35.4070   31.5650   34.0310 C   0  0  0  0  0  0  0  0  0  0  0  0
   35.3450   30.4410   34.8170 N   0  0  0  0  0  0  0  0  0  0  0  0
   35.6490   29.2270   34.3170 C   0  0  0  0  0  0  0  0  0  0  0  0
   36.0150   29.0580   33.0680 N   0  0  0  0  0  0  0  0  0  0  0  0
   35.8470   32.2770   32.0710 H   0  0  0  0  0  0  0  0  0  0  0  0
   35.1750   32.5430   34.3910 H   0  0  0  0  0  0  0  0  0  0  0  0
   35.5530   28.4460   35.0560 H   0  0  0  0  0  0  0  0  0  0  0  0
   38.8060   24.3120   33.3340 O   0  0  0  0  0  0  0  0  0  0  0  0
   38.5460   21.3830   36.8010 H   0  0  0  0  0  0  0  0  0  0  0  0
   38.3960   22.3590   36.4230 N   0  0  0  0  0  0  0  0  0  0  0  0
   38.6980   22.6700   35.1540 C   0  0  0  0  0  3  0  0  0  0  0  0
   38.5250   23.9170   34.6080 C   0  0  0  0  0  0  0  0  0  0  0  0
   38.0030   24.9250   35.4260 C   0  0  0  0  0  0  0  0  0  0  0  0
   37.7780   26.1350   35.0850 O   0  0  0  0  0  0  0  0  0  0  0  0
   37.6960   24.6060   36.7180 N   0  0  0  0  0  0  0  0  0  0  0  0
   37.8950   23.3550   37.1790 C   0  0  0  0  0  0  0  0  0  0  0  0
   37.6160   23.0410   38.3790 O   0  0  0  0  0  0  0  0  0  0  0  0
   37.2980   25.3100   37.3940 H   0  0  0  0  0  0  0  0  0  0  0  0
  1  7  1  6  0  0  0
  1  2  1  0  0  0  0
  1  6  1  0  0  0  0
  2  3  1  0  0  0  0
  2  8  1  1  0  0  0
  3 10  1  0  0  0  0
  4  3  1  0  0  0  0
  4  5  1  0  0  0  0
  5 12  1  0  0  0  0
  6 13  1  6  0  0  0
  6  5  1  0  0  0  0
  6 30  1  0  0  0  0
  9  3  1  0  0  0  0
 11  5  1  0  0  0  0
 14  1  1  0  0  0  0
 15 14  1  0  0  0  0
 16  2  1  0  0  0  0
 17 16  1  0  0  0  0
 17 20  1  0  0  0  0
 17 19  1  0  0  0  0
 18 17  1  0  0  0  0
 20 21  1  0  0  0  0
 21 22  2  0  0  0  0
 21 26  1  0  0  0  0
 22 23  1  0  0  0  0
 23 28  1  0  0  0  0
 23 24  2  0  0  0  0
 25 24  1  0  0  0  0
 25 29  1  0  0  0  0
 26 25  2  0  0  0  0
 27 22  1  0  0  0  0
 30 34  1  0  0  0  0
 32 31  1  0  0  0  0
 32 38  1  0  0  0  0
 33 32  1  0  0  0  0
 34 33  2  0  0  0  0
 34 35  1  0  0  0  0
 35 37  1  0  0  0  0
 36 35  2  0  0  0  0
 37 38  1  0  0  0  0
 37 40  1  0  0  0  0
 38 39  2  0  0  0  0
M  END
>  <minimizedAffinity>
-4.97742987

$$$$

 OpenBabel03262521573D

 40 42  0  0  1  0  0  0  0  0999 V2000
   37.7930   24.6670   31.4140 C   0  0  1  0  0  0  0  0  0  0  0  0
   36.3510   24.7760   31.8490 C   0  0  2  0  0  0  0  0  0  0  0  0
   35.6840   23.4770   31.4960 C   0  0  0  0  0  0  0  0  0  0  0  0
   36.5220   22.5690   30.8940 O   0  0  0  0  0  0  0  0  0  0  0  0
   37.6240   22.2530   31.6890 C   0  0  0  0  0  0  0  0  0  0  0  0
   38.3860   23.4690   32.1380 C   0  0  2  0  0  0  0  0  0  0  0  0
   38.3450   25.5930   31.6100 H   0  0  0  0  0  0  0  0  0  0  0  0
   36.3580   24.9560   32.9440 H   0  0  0  0  0  0  0  0  0  0  0  0
   34.8380   23.6480   30.7910 H   0  0  0  0  0  0  0  0  0  0  0  0
   35.2940   23.0260   32.4340 H   0  0  0  0  0  0  0  0  0  0  0  0
   38.3170   21.6270   31.0940 H   0  0  0  0  0  0  0  0  0  0  0  0
   37.3110   21.6370   32.5590 H   0  0  0  0  0  0  0  0  0  0  0  0
   39.4670   23.3710   31.9550 H   0  0  0  0  0  0  0  0  0  0  0  0
   37.8960   24.4090   30.0480 O   0  0  0  0  0  0  0  0  0  0  0  0
   37.0190   24.6510   29.6190 H   0  0  0  0  0  0  0  0  0  0  0  0
   35.5190   26.1820   31.0780 S   0  0  0  0  0  0  0  0  0  0  0  0
   35.9410   27.7050   31.9460 C   0  0  0  0  0  0  0  0  0  0  0  0
   35.1770   27.9760   32.7230 H   0  0  0  0  0  0  0  0  0  0  0  0
   36.8870   27.5010   32.5250 H   0  0  0  0  0  0  0  0  0  0  0  0
   36.2220   29.1100   30.8960 S   0  0  0  0  0  0  0  0  0  0  0  0
   36.1650   30.6010   31.8820 C   0  0  0  0  0  0  0  0  0  0  0  0
   36.7340   31.7170   31.2950 C   0  0  0  0  0  0  0  0  0  0  0  0
   36.7330   32.9260   31.9980 C   0  0  0  0  0  0  0  0  0  0  0  0
   36.1580   32.9290   33.2440 N   0  0  0  0  0  0  0  0  0  0  0  0
   35.6190   31.8070   33.7610 C   0  0  0  0  0  0  0  0  0  0  0  0
   35.6170   30.6680   33.1090 N   0  0  0  0  0  0  0  0  0  0  0  0
   37.1870   31.7070   30.3090 H   0  0  0  0  0  0  0  0  0  0  0  0
   37.1700   33.7940   31.5540 H   0  0  0  0  0  0  0  0  0  0  0  0
   35.2080   31.9680   34.7460 H   0  0  0  0  0  0  0  0  0  0  0  0
   38.1610   23.7080   33.4880 O   0  0  0  0  0  0  0  0  0  0  0  0
   41.7690   23.7400   36.2540 H   0  0  0  0  0  0  0  0  0  0  0  0
   40.8170   23.3520   36.0060 N   0  0  0  0  0  0  0  0  0  0  0  0
   40.1440   23.7860   34.9310 C   0  0  0  0  0  3  0  0  0  0  0  0
   38.9080   23.3210   34.5600 C   0  0  0  0  0  0  0  0  0  0  0  0
   38.3130   22.3340   35.3540 C   0  0  0  0  0  0  0  0  0  0  0  0
   37.1740   21.7910   35.1590 O   0  0  0  0  0  0  0  0  0  0  0  0
   38.9990   21.8930   36.4490 N   0  0  0  0  0  0  0  0  0  0  0  0
   40.2120   22.4010   36.7450 C   0  0  0  0  0  0  0  0  0  0  0  0
   40.8660   22.0030   37.7610 O   0  0  0  0  0  0  0  0  0  0  0  0
   38.6180   21.1520   37.0940 H   0  0  0  0  0  0  0  0  0  0  0  0
  1  7  1  1  0  0  0
  1  2  1  0  0  0  0
  1  6  1  0  0  0  0
  2  8  1  1  0  0  0
  3  2  1  0  0  0  0
  3 10  1  0  0  0  0
  4  3  1  0  0  0  0
  4  5  1  0  0  0  0
  5  6  1  0  0  0  0
  5 12  1  0  0  0  0
  6 13  1  6  0  0  0
  6 30  1  0  0  0  0
  9  3  1  0  0  0  0
 11  5  1  0  0  0  0
 14  1  1  0  0  0  0
 15 14  1  0  0  0  0
 16  2  1  0  0  0  0
 16 17  1  0  0  0  0
 17 19  1  0  0  0  0
 17 18  1  0  0  0  0
 20 21  1  0  0  0  0
 20 17  1  0  0  0  0
 21 26  1  0  0  0  0
 22 21  2  0  0  0  0
 22 23  1  0  0  0  0
 23 24  2  0  0  0  0
 24 25  1  0  0  0  0
 25 29  1  0  0  0  0
 26 25  2  0  0  0  0
 27 22  1  0  0  0  0
 28 23  1  0  0  0  0
 30 34  1  0  0  0  0
 32 31  1  0  0  0  0
 32 38  1  0  0  0  0
 33 32  1  0  0  0  0
 34 33  2  0  0  0  0
 34 35  1  0  0  0  0
 35 37  1  0  0  0  0
 36 35  2  0  0  0  0
 37 38  1  0  0  0  0
 37 40  1  0  0  0  0
 38 39  2  0  0  0  0
M  END
>  <minimizedAffinity>
-4.96374464

$$$$
