
 OpenBabel03272506443D

 33 35  0  0  1  0  0  0  0  0999 V2000
   32.3870   28.3330   47.5320 C   0  0  2  0  0  0  0  0  0  0  0  0
   33.6380   28.3950   48.3940 C   0  0  1  0  0  0  0  0  0  0  0  0
   34.1950   27.1510   48.4200 O   0  0  0  0  0  0  0  0  0  0  0  0
   33.5530   26.3490   47.5040 C   0  0  0  0  0  0  0  0  0  0  0  0
   32.8450   27.2940   46.5170 C   0  0  1  0  0  0  0  0  0  0  0  0
   31.5470   27.9490   48.1260 H   0  0  0  0  0  0  0  0  0  0  0  0
   33.3920   28.8220   49.3760 H   0  0  0  0  0  0  0  0  0  0  0  0
   34.2360   25.6510   47.0000 H   0  0  0  0  0  0  0  0  0  0  0  0
   32.7320   25.8250   48.0500 H   0  0  0  0  0  0  0  0  0  0  0  0
   33.6310   27.7180   45.8980 H   0  0  0  0  0  0  0  0  0  0  0  0
   32.1250   29.5650   46.9390 O   0  0  0  0  0  0  0  0  0  0  0  0
   32.8000   29.7060   46.2280 H   0  0  0  0  0  0  0  0  0  0  0  0
   34.8010   29.5220   47.5350 S   0  0  0  0  0  0  0  0  0  0  0  0
   37.4070   29.4890   50.5240 C   0  0  0  0  0  0  0  0  0  0  0  0
   38.0060   30.7520   50.4920 C   0  0  0  0  0  0  0  0  0  0  0  0
   37.5810   31.6560   49.4950 C   0  0  0  0  0  0  0  0  0  0  0  0
   36.6230   31.2500   48.6320 N   0  0  0  0  0  0  0  0  0  0  0  0
   36.0640   30.0230   48.6910 C   0  0  0  0  0  0  0  0  0  0  0  0
   36.4490   29.1450   49.6280 N   0  0  0  0  0  0  0  0  0  0  0  0
   37.6960   28.7600   51.2680 H   0  0  0  0  0  0  0  0  0  0  0  0
   38.7570   31.0210   51.1950 H   0  0  0  0  0  0  0  0  0  0  0  0
   38.0170   32.6460   49.4310 H   0  0  0  0  0  0  0  0  0  0  0  0
   31.8050   26.6380   45.9100 O   0  0  0  0  0  0  0  0  0  0  0  0
   32.3670   25.3680   41.6110 H   0  0  0  0  0  0  0  0  0  0  0  0
   31.8990   26.0000   42.2820 N   0  0  0  0  0  0  0  0  0  0  0  0
   32.2300   25.8120   43.5670 C   0  0  0  0  0  3  0  0  0  0  0  0
   31.6540   26.6080   44.5320 C   0  0  0  0  0  0  0  0  0  0  0  0
   30.7410   27.5910   44.1440 C   0  0  0  0  0  0  0  0  0  0  0  0
   30.1200   28.4060   44.8800 O   0  0  0  0  0  0  0  0  0  0  0  0
   30.4160   27.7680   42.8310 N   0  0  0  0  0  0  0  0  0  0  0  0
   31.0090   26.9570   41.9070 C   0  0  0  0  0  0  0  0  0  0  0  0
   30.7610   27.0590   40.6810 O   0  0  0  0  0  0  0  0  0  0  0  0
   29.7570   28.4650   42.4650 H   0  0  0  0  0  0  0  0  0  0  0  0
  1  6  1  1  0  0  0
  1  2  1  0  0  0  0
  2  3  1  0  0  0  0
  2  7  1  1  0  0  0
  4  9  1  0  0  0  0
  4  3  1  0  0  0  0
  5 10  1  6  0  0  0
  5  4  1  0  0  0  0
  5  1  1  0  0  0  0
  8  4  1  0  0  0  0
 11  1  1  0  0  0  0
 12 11  1  0  0  0  0
 13  2  1  0  0  0  0
 13 18  1  0  0  0  0
 14 20  1  0  0  0  0
 15 14  1  0  0  0  0
 15 21  1  0  0  0  0
 16 15  2  0  0  0  0
 17 18  2  0  0  0  0
 17 16  1  0  0  0  0
 18 19  1  0  0  0  0
 19 14  2  0  0  0  0
 22 16  1  0  0  0  0
 23  5  1  0  0  0  0
 24 25  1  0  0  0  0
 25 26  1  0  0  0  0
 26 27  2  0  0  0  0
 27 23  1  0  0  0  0
 28 27  1  0  0  0  0
 28 29  2  0  0  0  0
 30 28  1  0  0  0  0
 31 25  1  0  0  0  0
 31 30  1  0  0  0  0
 32 31  2  0  0  0  0
 33 30  1  0  0  0  0
M  END
>  <minimizedAffinity>
-3.77015162

>  <minimizedRMSD>
0.178060949

$$$$
