
 OpenBabel03262521363D

 38 41  0  0  1  0  0  0  0  0999 V2000
   38.3710   25.8600   34.8180 C   0  0  1  0  0  0  0  0  0  0  0  0
   38.2830   25.8590   33.3460 C   0  0  2  0  0  0  0  0  0  0  0  0
   37.8300   27.2900   33.0110 C   0  0  0  0  0  0  0  0  0  0  0  0
   36.9080   27.5140   33.9910 O   0  0  0  0  0  0  0  0  0  0  0  0
   37.3110   26.9310   35.1600 C   0  0  0  0  0  0  0  0  0  0  0  0
   39.3510   26.2130   35.1250 H   0  0  0  0  0  0  0  0  0  0  0  0
   39.3110   25.8010   32.9100 H   0  0  0  0  0  0  0  0  0  0  0  0
   38.6850   27.9780   32.9870 H   0  0  0  0  0  0  0  0  0  0  0  0
   37.3120   27.2010   32.0450 H   0  0  0  0  0  0  0  0  0  0  0  0
   37.8030   27.6800   35.7980 H   0  0  0  0  0  0  0  0  0  0  0  0
   36.4840   26.4660   35.7370 H   0  0  0  0  0  0  0  0  0  0  0  0
   37.8910   23.5040   32.3110 C   0  0  1  0  0  0  0  0  0  0  0  0
   37.7450   24.5040   31.2860 C   0  0  0  0  0  0  0  0  0  0  0  0
   37.3340   24.8680   32.7260 C   0  0  2  0  0  0  0  0  0  0  0  0
   38.9200   23.2760   32.7080 H   0  0  0  0  0  0  0  0  0  0  0  0
   36.8800   24.3720   30.5770 H   0  0  0  0  0  0  0  0  0  0  0  0
   38.5740   25.0260   30.8110 H   0  0  0  0  0  0  0  0  0  0  0  0
   36.2790   24.9620   32.9740 H   0  0  0  0  0  0  0  0  0  0  0  0
   35.1370   21.0440   31.7110 C   0  0  0  0  0  0  0  0  0  0  0  0
   36.0360   22.0740   31.4970 C   0  0  0  0  0  0  0  0  0  0  0  0
   36.9200   22.4120   32.5040 C   0  0  0  0  0  0  0  0  0  0  0  0
   36.8530   21.6980   33.6810 N   0  0  0  0  0  0  0  0  0  0  0  0
   35.9660   20.6940   33.8780 C   0  0  0  0  0  0  0  0  0  0  0  0
   35.0900   20.3560   32.8780 N   0  0  0  0  0  0  0  0  0  0  0  0
   34.4630   20.8130   30.8900 H   0  0  0  0  0  0  0  0  0  0  0  0
   36.1230   22.6680   30.6290 H   0  0  0  0  0  0  0  0  0  0  0  0
   35.9560   20.1670   34.8230 H   0  0  0  0  0  0  0  0  0  0  0  0
   38.0190   24.6810   35.4390 O   0  0  0  0  0  0  0  0  0  0  0  0
   41.6780   22.0800   35.5160 H   0  0  0  0  0  0  0  0  0  0  0  0
   40.8620   22.4510   36.0260 N   0  0  0  0  0  0  0  0  0  0  0  0
   39.9660   23.2870   35.5000 C   0  0  0  0  0  3  0  0  0  0  0  0
   38.8370   23.8320   36.1270 C   0  0  0  0  0  0  0  0  0  0  0  0
   38.7660   23.3710   37.4180 C   0  0  0  0  0  0  0  0  0  0  0  0
   37.8530   23.7120   38.1760 O   0  0  0  0  0  0  0  0  0  0  0  0
   39.6460   22.5310   37.9790 N   0  0  0  0  0  0  0  0  0  0  0  0
   40.6980   22.0620   37.3000 C   0  0  0  0  0  0  0  0  0  0  0  0
   41.5200   21.2780   37.8230 O   0  0  0  0  0  0  0  0  0  0  0  0
   39.5650   22.1980   38.9640 H   0  0  0  0  0  0  0  0  0  0  0  0
  1  6  1  1  0  0  0
  1  5  1  0  0  0  0
  1 28  1  0  0  0  0
  2  7  1  6  0  0  0
  2  1  1  0  0  0  0
  3  2  1  0  0  0  0
  3  4  1  0  0  0  0
  4  5  1  0  0  0  0
  5 11  1  0  0  0  0
  5 10  1  0  0  0  0
  8  3  1  0  0  0  0
  9  3  1  0  0  0  0
 12 21  1  0  0  0  0
 12 15  1  1  0  0  0
 12 14  1  0  0  0  0
 13 12  1  0  0  0  0
 13 14  1  0  0  0  0
 14 18  1  1  0  0  0
 14  2  1  0  0  0  0
 16 13  1  0  0  0  0
 17 13  1  0  0  0  0
 19 24  1  0  0  0  0
 20 19  2  0  0  0  0
 20 21  1  0  0  0  0
 21 22  2  0  0  0  0
 22 23  1  0  0  0  0
 23 27  1  0  0  0  0
 24 23  2  0  0  0  0
 25 19  1  0  0  0  0
 26 20  1  0  0  0  0
 28 32  1  0  0  0  0
 29 30  1  0  0  0  0
 30 36  1  0  0  0  0
 31 30  1  0  0  0  0
 31 32  2  0  0  0  0
 32 33  1  0  0  0  0
 33 35  1  0  0  0  0
 33 34  2  0  0  0  0
 35 38  1  0  0  0  0
 36 37  2  0  0  0  0
 36 35  1  0  0  0  0
M  END
>  <minimizedAffinity>
-5.62878656

$$$$

 OpenBabel03262521363D

 38 41  0  0  1  0  0  0  0  0999 V2000
   37.5530   25.1830   32.1130 C   0  0  1  0  0  0  0  0  0  0  0  0
   37.5630   26.2370   33.1450 C   0  0  2  0  0  0  0  0  0  0  0  0
   38.1240   27.4620   32.4020 C   0  0  0  0  0  0  0  0  0  0  0  0
   39.1120   26.8910   31.6560 O   0  0  0  0  0  0  0  0  0  0  0  0
   38.7210   25.6560   31.2200 C   0  0  0  0  0  0  0  0  0  0  0  0
   36.6260   25.2310   31.5500 H   0  0  0  0  0  0  0  0  0  0  0  0
   36.5130   26.5350   33.3840 H   0  0  0  0  0  0  0  0  0  0  0  0
   37.3330   27.9780   31.8420 H   0  0  0  0  0  0  0  0  0  0  0  0
   38.5790   28.0810   33.1880 H   0  0  0  0  0  0  0  0  0  0  0  0
   38.3320   25.7310   30.1930 H   0  0  0  0  0  0  0  0  0  0  0  0
   39.5330   24.8980   31.2340 H   0  0  0  0  0  0  0  0  0  0  0  0
   37.6550   25.5180   35.6430 C   0  0  1  0  0  0  0  0  0  0  0  0
   38.0020   26.9100   35.5370 C   0  0  0  0  0  0  0  0  0  0  0  0
   38.3860   25.9690   34.3770 C   0  0  2  0  0  0  0  0  0  0  0  0
   36.5830   25.2080   35.4820 H   0  0  0  0  0  0  0  0  0  0  0  0
   38.8750   27.2580   36.1580 H   0  0  0  0  0  0  0  0  0  0  0  0
   37.2870   27.7130   35.3690 H   0  0  0  0  0  0  0  0  0  0  0  0
   39.4280   25.6940   34.2330 H   0  0  0  0  0  0  0  0  0  0  0  0
   38.8200   23.3350   38.4490 C   0  0  0  0  0  0  0  0  0  0  0  0
   38.0590   24.2380   37.7290 C   0  0  0  0  0  0  0  0  0  0  0  0
   38.4410   24.5570   36.4400 C   0  0  0  0  0  0  0  0  0  0  0  0
   39.5740   23.9530   35.9390 N   0  0  0  0  0  0  0  0  0  0  0  0
   40.3110   23.0720   36.6560 C   0  0  0  0  0  0  0  0  0  0  0  0
   39.9310   22.7530   37.9360 N   0  0  0  0  0  0  0  0  0  0  0  0
   38.4800   23.1130   39.4580 H   0  0  0  0  0  0  0  0  0  0  0  0
   37.1960   24.7470   38.0620 H   0  0  0  0  0  0  0  0  0  0  0  0
   41.1920   22.6270   36.2150 H   0  0  0  0  0  0  0  0  0  0  0  0
   37.8300   23.9080   32.5590 O   0  0  0  0  0  0  0  0  0  0  0  0
   34.7870   21.4870   30.3160 H   0  0  0  0  0  0  0  0  0  0  0  0
   35.3600   21.5940   31.1670 N   0  0  0  0  0  0  0  0  0  0  0  0
   36.2050   22.6040   31.3790 C   0  0  0  0  0  3  0  0  0  0  0  0
   37.0130   22.8160   32.5040 C   0  0  0  0  0  0  0  0  0  0  0  0
   36.8140   21.8010   33.4070 C   0  0  0  0  0  0  0  0  0  0  0  0
   37.4180   21.7670   34.4830 O   0  0  0  0  0  0  0  0  0  0  0  0
   35.9740   20.7730   33.2280 N   0  0  0  0  0  0  0  0  0  0  0  0
   35.2400   20.6540   32.1170 C   0  0  0  0  0  0  0  0  0  0  0  0
   34.4560   19.6940   31.9480 O   0  0  0  0  0  0  0  0  0  0  0  0
   35.8440   20.0160   33.9340 H   0  0  0  0  0  0  0  0  0  0  0  0
  1  6  1  6  0  0  0
  1 28  1  0  0  0  0
  1  2  1  0  0  0  0
  2  7  1  1  0  0  0
  2 14  1  0  0  0  0
  3  2  1  0  0  0  0
  3  9  1  0  0  0  0
  4  3  1  0  0  0  0
  5 11  1  0  0  0  0
  5  4  1  0  0  0  0
  5  1  1  0  0  0  0
  8  3  1  0  0  0  0
 10  5  1  0  0  0  0
 12 15  1  6  0  0  0
 12 21  1  0  0  0  0
 13 12  1  0  0  0  0
 13 16  1  0  0  0  0
 14 18  1  6  0  0  0
 14 13  1  0  0  0  0
 14 12  1  0  0  0  0
 17 13  1  0  0  0  0
 19 25  1  0  0  0  0
 20 26  1  0  0  0  0
 20 19  2  0  0  0  0
 21 20  1  0  0  0  0
 22 21  2  0  0  0  0
 22 23  1  0  0  0  0
 23 24  2  0  0  0  0
 24 19  1  0  0  0  0
 27 23  1  0  0  0  0
 29 30  1  0  0  0  0
 30 31  1  0  0  0  0
 30 36  1  0  0  0  0
 31 32  2  0  0  0  0
 32 28  1  0  0  0  0
 32 33  1  0  0  0  0
 33 34  2  0  0  0  0
 35 33  1  0  0  0  0
 35 38  1  0  0  0  0
 36 35  1  0  0  0  0
 37 36  2  0  0  0  0
M  END
>  <minimizedAffinity>
-5.55761862

$$$$

 OpenBabel03262521363D

 38 41  0  0  1  0  0  0  0  0999 V2000
   38.4410   23.2880   34.9810 C   0  0  1  0  0  0  0  0  0  0  0  0
   38.6790   24.4610   35.8440 C   0  0  2  0  0  0  0  0  0  0  0  0
   38.4370   23.9180   37.2630 C   0  0  0  0  0  0  0  0  0  0  0  0
   37.3450   23.1260   37.0630 O   0  0  0  0  0  0  0  0  0  0  0  0
   37.4290   22.5060   35.8470 C   0  0  0  0  0  0  0  0  0  0  0  0
   39.3570   22.7120   34.8870 H   0  0  0  0  0  0  0  0  0  0  0  0
   39.7690   24.7100   35.8420 H   0  0  0  0  0  0  0  0  0  0  0  0
   39.3330   23.4160   37.6500 H   0  0  0  0  0  0  0  0  0  0  0  0
   38.1390   24.7980   37.8510 H   0  0  0  0  0  0  0  0  0  0  0  0
   37.8320   21.4890   35.9760 H   0  0  0  0  0  0  0  0  0  0  0  0
   36.4580   22.4340   35.3130 H   0  0  0  0  0  0  0  0  0  0  0  0
   38.3060   26.7270   34.6230 C   0  0  1  0  0  0  0  0  0  0  0  0
   38.5070   26.9720   36.0270 C   0  0  0  0  0  0  0  0  0  0  0  0
   37.8070   25.6640   35.6050 C   0  0  2  0  0  0  0  0  0  0  0  0
   39.1840   26.4100   33.9930 H   0  0  0  0  0  0  0  0  0  0  0  0
   37.8240   27.7280   36.5070 H   0  0  0  0  0  0  0  0  0  0  0  0
   39.4720   26.9320   36.5280 H   0  0  0  0  0  0  0  0  0  0  0  0
   36.7390   25.5500   35.7740 H   0  0  0  0  0  0  0  0  0  0  0  0
   35.4480   28.9370   33.6500 C   0  0  0  0  0  0  0  0  0  0  0  0
   36.4690   28.3790   34.3980 C   0  0  0  0  0  0  0  0  0  0  0  0
   37.2110   27.3480   33.8540 C   0  0  0  0  0  0  0  0  0  0  0  0
   36.8850   26.9260   32.5830 N   0  0  0  0  0  0  0  0  0  0  0  0
   35.8820   27.4800   31.8630 C   0  0  0  0  0  0  0  0  0  0  0  0
   35.1460   28.5050   32.4010 N   0  0  0  0  0  0  0  0  0  0  0  0
   34.8930   29.7460   34.1180 H   0  0  0  0  0  0  0  0  0  0  0  0
   36.7530   28.6430   35.3800 H   0  0  0  0  0  0  0  0  0  0  0  0
   35.6680   27.1090   30.8690 H   0  0  0  0  0  0  0  0  0  0  0  0
   37.8610   23.5540   33.7600 O   0  0  0  0  0  0  0  0  0  0  0  0
   38.2520   19.5180   31.8330 H   0  0  0  0  0  0  0  0  0  0  0  0
   37.7470   20.4150   31.8800 N   0  0  0  0  0  0  0  0  0  0  0  0
   38.0540   21.4060   32.7180 C   0  0  0  0  0  3  0  0  0  0  0  0
   37.4160   22.6480   32.8400 C   0  0  0  0  0  0  0  0  0  0  0  0
   36.3820   22.7200   31.9390 C   0  0  0  0  0  0  0  0  0  0  0  0
   35.6690   23.7230   31.8560 O   0  0  0  0  0  0  0  0  0  0  0  0
   36.0460   21.7470   31.0830 N   0  0  0  0  0  0  0  0  0  0  0  0
   36.7150   20.5900   31.0390 C   0  0  0  0  0  0  0  0  0  0  0  0
   36.4020   19.6800   30.2400 O   0  0  0  0  0  0  0  0  0  0  0  0
   35.2540   21.8320   30.4090 H   0  0  0  0  0  0  0  0  0  0  0  0
  1  6  1  6  0  0  0
  1  2  1  0  0  0  0
  1  5  1  0  0  0  0
  2  7  1  6  0  0  0
  2  3  1  0  0  0  0
  3  8  1  0  0  0  0
  3  9  1  0  0  0  0
  4  3  1  0  0  0  0
  5 10  1  0  0  0  0
  5  4  1  0  0  0  0
 11  5  1  0  0  0  0
 12 15  1  6  0  0  0
 12 14  1  0  0  0  0
 12 13  1  0  0  0  0
 13 16  1  0  0  0  0
 13 17  1  0  0  0  0
 14 18  1  1  0  0  0
 14  2  1  0  0  0  0
 14 13  1  0  0  0  0
 19 25  1  0  0  0  0
 19 20  1  0  0  0  0
 20 26  1  0  0  0  0
 21 20  2  0  0  0  0
 21 12  1  0  0  0  0
 22 21  1  0  0  0  0
 23 24  1  0  0  0  0
 23 22  2  0  0  0  0
 24 19  2  0  0  0  0
 27 23  1  0  0  0  0
 28  1  1  0  0  0  0
 29 30  1  0  0  0  0
 30 31  1  0  0  0  0
 31 32  2  0  0  0  0
 32 28  1  0  0  0  0
 33 32  1  0  0  0  0
 34 33  2  0  0  0  0
 35 33  1  0  0  0  0
 36 35  1  0  0  0  0
 36 30  1  0  0  0  0
 37 36  2  0  0  0  0
 38 35  1  0  0  0  0
M  END
>  <minimizedAffinity>
-5.47134209

$$$$

 OpenBabel03262521363D

 38 41  0  0  1  0  0  0  0  0999 V2000
   37.8910   25.7610   32.2520 C   0  0  1  0  0  0  0  0  0  0  0  0
   38.5020   26.8020   33.1000 C   0  0  2  0  0  0  0  0  0  0  0  0
   39.6630   27.3300   32.2410 C   0  0  0  0  0  0  0  0  0  0  0  0
   40.1480   26.1730   31.7070 O   0  0  0  0  0  0  0  0  0  0  0  0
   39.1200   25.3150   31.4300 C   0  0  0  0  0  0  0  0  0  0  0  0
   37.1590   26.2130   31.5890 H   0  0  0  0  0  0  0  0  0  0  0  0
   37.8110   27.6770   33.1730 H   0  0  0  0  0  0  0  0  0  0  0  0
   39.3110   28.0820   31.5230 H   0  0  0  0  0  0  0  0  0  0  0  0
   40.3910   27.7230   32.9660 H   0  0  0  0  0  0  0  0  0  0  0  0
   38.8450   25.3960   30.3670 H   0  0  0  0  0  0  0  0  0  0  0  0
   39.3520   24.2510   31.6530 H   0  0  0  0  0  0  0  0  0  0  0  0
   38.0030   25.9950   35.5230 C   0  0  1  0  0  0  0  0  0  0  0  0
   38.5780   27.3130   35.5700 C   0  0  0  0  0  0  0  0  0  0  0  0
   39.0230   26.3610   34.4420 C   0  0  2  0  0  0  0  0  0  0  0  0
   36.9460   25.8730   35.1500 H   0  0  0  0  0  0  0  0  0  0  0  0
   39.3600   27.4900   36.3610 H   0  0  0  0  0  0  0  0  0  0  0  0
   38.0430   28.2290   35.3260 H   0  0  0  0  0  0  0  0  0  0  0  0
   40.0170   25.9220   34.4740 H   0  0  0  0  0  0  0  0  0  0  0  0
   39.8000   22.9560   36.7610 C   0  0  0  0  0  0  0  0  0  0  0  0
   39.3920   23.9800   35.9240 C   0  0  0  0  0  0  0  0  0  0  0  0
   38.4620   24.8920   36.3870 C   0  0  0  0  0  0  0  0  0  0  0  0
   37.9850   24.7260   37.6690 N   0  0  0  0  0  0  0  0  0  0  0  0
   38.3920   23.7180   38.4760 C   0  0  0  0  0  0  0  0  0  0  0  0
   39.3170   22.8140   38.0190 N   0  0  0  0  0  0  0  0  0  0  0  0
   40.5340   22.2650   36.3540 H   0  0  0  0  0  0  0  0  0  0  0  0
   39.7040   24.1490   34.9300 H   0  0  0  0  0  0  0  0  0  0  0  0
   37.9850   23.6330   39.4750 H   0  0  0  0  0  0  0  0  0  0  0  0
   37.3890   24.6650   32.9200 O   0  0  0  0  0  0  0  0  0  0  0  0
   37.6640   20.1940   32.6170 H   0  0  0  0  0  0  0  0  0  0  0  0
   37.1980   21.0610   32.3110 N   0  0  0  0  0  0  0  0  0  0  0  0
   37.5210   22.2800   32.7430 C   0  0  0  0  0  3  0  0  0  0  0  0
   36.9350   23.4990   32.3750 C   0  0  0  0  0  0  0  0  0  0  0  0
   35.9350   23.2670   31.4630 C   0  0  0  0  0  0  0  0  0  0  0  0
   35.2690   24.1900   30.9870 O   0  0  0  0  0  0  0  0  0  0  0  0
   35.5840   22.0580   31.0060 N   0  0  0  0  0  0  0  0  0  0  0  0
   36.2020   20.9460   31.4170 C   0  0  0  0  0  0  0  0  0  0  0  0
   35.8750   19.8170   30.9910 O   0  0  0  0  0  0  0  0  0  0  0  0
   34.8180   21.9140   30.3120 H   0  0  0  0  0  0  0  0  0  0  0  0
  1  6  1  6  0  0  0
  1 28  1  0  0  0  0
  1  2  1  0  0  0  0
  2  7  1  1  0  0  0
  2 14  1  0  0  0  0
  3  9  1  0  0  0  0
  3  2  1  0  0  0  0
  4  3  1  0  0  0  0
  5 11  1  0  0  0  0
  5  4  1  0  0  0  0
  5  1  1  0  0  0  0
  8  3  1  0  0  0  0
 10  5  1  0  0  0  0
 12 15  1  6  0  0  0
 12 13  1  0  0  0  0
 12 21  1  0  0  0  0
 13 16  1  0  0  0  0
 14 18  1  1  0  0  0
 14 12  1  0  0  0  0
 14 13  1  0  0  0  0
 17 13  1  0  0  0  0
 19 24  1  0  0  0  0
 20 21  1  0  0  0  0
 20 19  2  0  0  0  0
 21 22  2  0  0  0  0
 22 23  1  0  0  0  0
 23 27  1  0  0  0  0
 24 23  2  0  0  0  0
 25 19  1  0  0  0  0
 26 20  1  0  0  0  0
 30 29  1  0  0  0  0
 30 31  1  0  0  0  0
 32 31  2  0  0  0  0
 32 28  1  0  0  0  0
 33 32  1  0  0  0  0
 34 33  2  0  0  0  0
 35 36  1  0  0  0  0
 35 33  1  0  0  0  0
 36 30  1  0  0  0  0
 37 36  2  0  0  0  0
 38 35  1  0  0  0  0
M  END
>  <minimizedAffinity>
-5.40954208

$$$$

 OpenBabel03262521363D

 38 41  0  0  1  0  0  0  0  0999 V2000
   36.8320   21.5320   33.0540 C   0  0  1  0  0  0  0  0  0  0  0  0
   35.8700   22.1220   32.1040 C   0  0  2  0  0  0  0  0  0  0  0  0
   35.5300   20.9530   31.1640 C   0  0  0  0  0  0  0  0  0  0  0  0
   36.7550   20.3790   30.9980 O   0  0  0  0  0  0  0  0  0  0  0  0
   37.4660   20.4380   32.1650 C   0  0  0  0  0  0  0  0  0  0  0  0
   36.2970   21.0630   33.8740 H   0  0  0  0  0  0  0  0  0  0  0  0
   34.9050   22.3240   32.6300 H   0  0  0  0  0  0  0  0  0  0  0  0
   34.7520   20.3120   31.5980 H   0  0  0  0  0  0  0  0  0  0  0  0
   35.2270   21.4320   30.2220 H   0  0  0  0  0  0  0  0  0  0  0  0
   37.3700   19.4850   32.7070 H   0  0  0  0  0  0  0  0  0  0  0  0
   38.5460   20.6540   32.0210 H   0  0  0  0  0  0  0  0  0  0  0  0
   36.2940   24.6840   31.9480 C   0  0  1  0  0  0  0  0  0  0  0  0
   35.2250   24.3240   31.0550 C   0  0  0  0  0  0  0  0  0  0  0  0
   36.3510   23.2990   31.2990 C   0  0  2  0  0  0  0  0  0  0  0  0
   36.1040   24.6750   33.0590 H   0  0  0  0  0  0  0  0  0  0  0  0
   35.2440   24.7980   30.0340 H   0  0  0  0  0  0  0  0  0  0  0  0
   34.2080   24.0970   31.3700 H   0  0  0  0  0  0  0  0  0  0  0  0
   37.0770   23.1050   30.5130 H   0  0  0  0  0  0  0  0  0  0  0  0
   39.5100   25.8680   30.4470 C   0  0  0  0  0  0  0  0  0  0  0  0
   38.4710   25.0300   30.8110 C   0  0  0  0  0  0  0  0  0  0  0  0
   37.4180   25.5480   31.5410 C   0  0  0  0  0  0  0  0  0  0  0  0
   37.4640   26.8850   31.8720 N   0  0  0  0  0  0  0  0  0  0  0  0
   38.4890   27.6930   31.5110 C   0  0  0  0  0  0  0  0  0  0  0  0
   39.5330   27.1800   30.7840 N   0  0  0  0  0  0  0  0  0  0  0  0
   40.3140   25.4170   29.8720 H   0  0  0  0  0  0  0  0  0  0  0  0
   38.3870   23.9980   30.6060 H   0  0  0  0  0  0  0  0  0  0  0  0
   38.4750   28.7360   31.7990 H   0  0  0  0  0  0  0  0  0  0  0  0
   37.8320   22.3730   33.4920 O   0  0  0  0  0  0  0  0  0  0  0  0
   37.1600   22.0020   37.9160 H   0  0  0  0  0  0  0  0  0  0  0  0
   37.5540   22.5520   37.1370 N   0  0  0  0  0  0  0  0  0  0  0  0
   37.4820   22.1950   35.8550 C   0  0  0  0  0  3  0  0  0  0  0  0
   37.9910   22.8870   34.7470 C   0  0  0  0  0  0  0  0  0  0  0  0
   38.6030   24.0400   35.1710 C   0  0  0  0  0  0  0  0  0  0  0  0
   39.1300   24.8220   34.3750 O   0  0  0  0  0  0  0  0  0  0  0  0
   38.6930   24.4320   36.4500 N   0  0  0  0  0  0  0  0  0  0  0  0
   38.1750   23.7020   37.4440 C   0  0  0  0  0  0  0  0  0  0  0  0
   38.2590   24.0670   38.6370 O   0  0  0  0  0  0  0  0  0  0  0  0
   39.1640   25.3150   36.7410 H   0  0  0  0  0  0  0  0  0  0  0  0
  1 28  1  0  0  0  0
  1  6  1  1  0  0  0
  2  7  1  1  0  0  0
  2  1  1  0  0  0  0
  3  8  1  0  0  0  0
  3  2  1  0  0  0  0
  4  3  1  0  0  0  0
  4  5  1  0  0  0  0
  5 10  1  0  0  0  0
  5  1  1  0  0  0  0
  9  3  1  0  0  0  0
 11  5  1  0  0  0  0
 12 15  1  1  0  0  0
 13 14  1  0  0  0  0
 13 17  1  0  0  0  0
 13 12  1  0  0  0  0
 14 18  1  6  0  0  0
 14 12  1  0  0  0  0
 14  2  1  0  0  0  0
 16 13  1  0  0  0  0
 19 24  2  0  0  0  0
 19 20  1  0  0  0  0
 20 21  2  0  0  0  0
 21 22  1  0  0  0  0
 21 12  1  0  0  0  0
 23 27  1  0  0  0  0
 23 22  2  0  0  0  0
 24 23  1  0  0  0  0
 25 19  1  0  0  0  0
 26 20  1  0  0  0  0
 28 32  1  0  0  0  0
 30 36  1  0  0  0  0
 30 29  1  0  0  0  0
 31 30  1  0  0  0  0
 32 33  1  0  0  0  0
 32 31  2  0  0  0  0
 33 35  1  0  0  0  0
 34 33  2  0  0  0  0
 35 38  1  0  0  0  0
 35 36  1  0  0  0  0
 36 37  2  0  0  0  0
M  END
>  <minimizedAffinity>
-5.24353456

$$$$

 OpenBabel03262521363D

 38 41  0  0  1  0  0  0  0  0999 V2000
   38.5180   23.5160   34.5710 C   0  0  1  0  0  0  0  0  0  0  0  0
   38.7750   24.6730   35.4490 C   0  0  2  0  0  0  0  0  0  0  0  0
   38.7310   24.0670   36.8630 C   0  0  0  0  0  0  0  0  0  0  0  0
   37.6770   23.2090   36.7520 O   0  0  0  0  0  0  0  0  0  0  0  0
   37.6630   22.6370   35.5100 C   0  0  0  0  0  0  0  0  0  0  0  0
   39.4530   23.0070   34.3520 H   0  0  0  0  0  0  0  0  0  0  0  0
   39.8390   24.9970   35.3370 H   0  0  0  0  0  0  0  0  0  0  0  0
   39.6950   23.6150   37.1280 H   0  0  0  0  0  0  0  0  0  0  0  0
   38.4450   24.9040   37.5160 H   0  0  0  0  0  0  0  0  0  0  0  0
   38.1430   21.6470   35.5520 H   0  0  0  0  0  0  0  0  0  0  0  0
   36.6450   22.5160   35.0840 H   0  0  0  0  0  0  0  0  0  0  0  0
   38.1980   27.0230   34.4960 C   0  0  1  0  0  0  0  0  0  0  0  0
   38.4080   27.1250   35.9170 C   0  0  0  0  0  0  0  0  0  0  0  0
   37.8060   25.8200   35.3570 C   0  0  2  0  0  0  0  0  0  0  0  0
   39.0850   26.8510   33.8240 H   0  0  0  0  0  0  0  0  0  0  0  0
   37.6770   27.7650   36.4870 H   0  0  0  0  0  0  0  0  0  0  0  0
   39.3840   27.1080   36.3980 H   0  0  0  0  0  0  0  0  0  0  0  0
   36.7530   25.6020   35.5250 H   0  0  0  0  0  0  0  0  0  0  0  0
   35.1940   29.1390   33.7890 C   0  0  0  0  0  0  0  0  0  0  0  0
   36.2730   28.5870   34.4560 C   0  0  0  0  0  0  0  0  0  0  0  0
   37.0410   27.6340   33.8150 C   0  0  0  0  0  0  0  0  0  0  0  0
   36.6830   27.2800   32.5320 N   0  0  0  0  0  0  0  0  0  0  0  0
   35.6230   27.8270   31.8910 C   0  0  0  0  0  0  0  0  0  0  0  0
   34.8610   28.7750   32.5260 N   0  0  0  0  0  0  0  0  0  0  0  0
   34.6200   29.8850   34.3320 H   0  0  0  0  0  0  0  0  0  0  0  0
   36.5850   28.8010   35.4420 H   0  0  0  0  0  0  0  0  0  0  0  0
   35.3860   27.5120   30.8830 H   0  0  0  0  0  0  0  0  0  0  0  0
   37.7870   23.7810   33.4330 O   0  0  0  0  0  0  0  0  0  0  0  0
   41.2970   24.4840   30.7230 H   0  0  0  0  0  0  0  0  0  0  0  0
   40.2740   24.3900   30.8180 N   0  0  0  0  0  0  0  0  0  0  0  0
   39.6460   24.1600   31.9710 C   0  0  0  0  0  3  0  0  0  0  0  0
   38.2670   24.0200   32.1770 C   0  0  0  0  0  0  0  0  0  0  0  0
   37.6100   24.1590   30.9790 C   0  0  0  0  0  0  0  0  0  0  0  0
   36.3810   24.0750   30.9040 O   0  0  0  0  0  0  0  0  0  0  0  0
   38.2080   24.3910   29.8030 N   0  0  0  0  0  0  0  0  0  0  0  0
   39.5360   24.5100   29.7030 C   0  0  0  0  0  0  0  0  0  0  0  0
   40.0940   24.7270   28.6050 O   0  0  0  0  0  0  0  0  0  0  0  0
   37.6810   24.4920   28.9090 H   0  0  0  0  0  0  0  0  0  0  0  0
  1  6  1  6  0  0  0
  1  2  1  0  0  0  0
  1  5  1  0  0  0  0
  2  7  1  6  0  0  0
  2  3  1  0  0  0  0
  3  8  1  0  0  0  0
  3  9  1  0  0  0  0
  4  3  1  0  0  0  0
  5 10  1  0  0  0  0
  5  4  1  0  0  0  0
 11  5  1  0  0  0  0
 12 15  1  6  0  0  0
 12 14  1  0  0  0  0
 12 13  1  0  0  0  0
 13 17  1  0  0  0  0
 13 16  1  0  0  0  0
 14  2  1  0  0  0  0
 14 18  1  1  0  0  0
 14 13  1  0  0  0  0
 19 25  1  0  0  0  0
 19 20  1  0  0  0  0
 20 26  1  0  0  0  0
 21 20  2  0  0  0  0
 21 12  1  0  0  0  0
 22 21  1  0  0  0  0
 23 24  1  0  0  0  0
 23 22  2  0  0  0  0
 24 19  2  0  0  0  0
 27 23  1  0  0  0  0
 28  1  1  0  0  0  0
 29 30  1  0  0  0  0
 30 31  1  0  0  0  0
 31 32  2  0  0  0  0
 32 28  1  0  0  0  0
 33 32  1  0  0  0  0
 34 33  2  0  0  0  0
 35 33  1  0  0  0  0
 36 35  1  0  0  0  0
 36 30  1  0  0  0  0
 37 36  2  0  0  0  0
 38 35  1  0  0  0  0
M  END
>  <minimizedAffinity>
-5.04636621

$$$$

 OpenBabel03262521363D

 38 41  0  0  1  0  0  0  0  0999 V2000
   37.2410   27.5300   31.5320 C   0  0  1  0  0  0  0  0  0  0  0  0
   36.4630   28.5600   30.8170 C   0  0  2  0  0  0  0  0  0  0  0  0
   37.1960   28.6930   29.4710 C   0  0  0  0  0  0  0  0  0  0  0  0
   38.4990   28.6320   29.8700 O   0  0  0  0  0  0  0  0  0  0  0  0
   38.6350   27.7460   30.9020 C   0  0  0  0  0  0  0  0  0  0  0  0
   36.8730   26.5430   31.2660 H   0  0  0  0  0  0  0  0  0  0  0  0
   35.4660   28.1430   30.5320 H   0  0  0  0  0  0  0  0  0  0  0  0
   36.8700   27.9170   28.7670 H   0  0  0  0  0  0  0  0  0  0  0  0
   36.9720   29.7150   29.1320 H   0  0  0  0  0  0  0  0  0  0  0  0
   38.9680   26.7710   30.5140 H   0  0  0  0  0  0  0  0  0  0  0  0
   39.3510   28.0760   31.6840 H   0  0  0  0  0  0  0  0  0  0  0  0
   35.2250   30.1350   32.4770 C   0  0  1  0  0  0  0  0  0  0  0  0
   35.0340   30.6150   31.1330 C   0  0  0  0  0  0  0  0  0  0  0  0
   36.3610   29.9090   31.4770 C   0  0  2  0  0  0  0  0  0  0  0  0
   34.6920   29.1970   32.8020 H   0  0  0  0  0  0  0  0  0  0  0  0
   35.1280   31.7270   30.9810 H   0  0  0  0  0  0  0  0  0  0  0  0
   34.3550   30.1690   30.4100 H   0  0  0  0  0  0  0  0  0  0  0  0
   37.2730   30.4960   31.5600 H   0  0  0  0  0  0  0  0  0  0  0  0
   35.9580   31.4110   35.9160 C   0  0  0  0  0  0  0  0  0  0  0  0
   35.5850   30.5570   34.8940 C   0  0  0  0  0  0  0  0  0  0  0  0
   35.6170   31.0170   33.5910 C   0  0  0  0  0  0  0  0  0  0  0  0
   36.0210   32.3180   33.3820 N   0  0  0  0  0  0  0  0  0  0  0  0
   36.3810   33.1440   34.3920 C   0  0  0  0  0  0  0  0  0  0  0  0
   36.3520   32.6870   35.6850 N   0  0  0  0  0  0  0  0  0  0  0  0
   35.9190   31.0040   36.9230 H   0  0  0  0  0  0  0  0  0  0  0  0
   35.2500   29.5600   34.9910 H   0  0  0  0  0  0  0  0  0  0  0  0
   36.6890   34.1580   34.1710 H   0  0  0  0  0  0  0  0  0  0  0  0
   37.3450   27.7010   32.8960 O   0  0  0  0  0  0  0  0  0  0  0  0
   37.9900   23.3740   33.9050 H   0  0  0  0  0  0  0  0  0  0  0  0
   37.9550   24.3500   34.2360 N   0  0  0  0  0  0  0  0  0  0  0  0
   37.6910   25.3980   33.4550 C   0  0  0  0  0  3  0  0  0  0  0  0
   37.6270   26.7460   33.8310 C   0  0  0  0  0  0  0  0  0  0  0  0
   37.8830   26.8580   35.1750 C   0  0  0  0  0  0  0  0  0  0  0  0
   37.8830   27.9530   35.7430 O   0  0  0  0  0  0  0  0  0  0  0  0
   38.1510   25.8280   35.9890 N   0  0  0  0  0  0  0  0  0  0  0  0
   38.1910   24.5700   35.5390 C   0  0  0  0  0  0  0  0  0  0  0  0
   38.4420   23.6090   36.2980 O   0  0  0  0  0  0  0  0  0  0  0  0
   38.3420   25.9450   37.0080 H   0  0  0  0  0  0  0  0  0  0  0  0
  1  6  1  6  0  0  0
  1 28  1  0  0  0  0
  2  7  1  6  0  0  0
  2 14  1  0  0  0  0
  2  1  1  0  0  0  0
  3  4  1  0  0  0  0
  3  2  1  0  0  0  0
  4  5  1  0  0  0  0
  5  1  1  0  0  0  0
  5 11  1  0  0  0  0
  8  3  1  0  0  0  0
  9  3  1  0  0  0  0
 10  5  1  0  0  0  0
 12 15  1  1  0  0  0
 12 21  1  0  0  0  0
 13 14  1  0  0  0  0
 13 12  1  0  0  0  0
 14 18  1  1  0  0  0
 14 12  1  0  0  0  0
 16 13  1  0  0  0  0
 17 13  1  0  0  0  0
 19 25  1  0  0  0  0
 20 26  1  0  0  0  0
 20 19  2  0  0  0  0
 21 20  1  0  0  0  0
 22 21  2  0  0  0  0
 22 23  1  0  0  0  0
 23 24  2  0  0  0  0
 24 19  1  0  0  0  0
 27 23  1  0  0  0  0
 28 32  1  0  0  0  0
 29 30  1  0  0  0  0
 30 36  1  0  0  0  0
 31 32  2  0  0  0  0
 31 30  1  0  0  0  0
 32 33  1  0  0  0  0
 33 34  2  0  0  0  0
 33 35  1  0  0  0  0
 35 38  1  0  0  0  0
 36 35  1  0  0  0  0
 36 37  2  0  0  0  0
M  END
>  <minimizedAffinity>
-5.00931454

$$$$

 OpenBabel03262521363D

 38 41  0  0  1  0  0  0  0  0999 V2000
   36.7420   22.4770   31.2090 C   0  0  1  0  0  0  0  0  0  0  0  0
   37.8120   21.6250   31.7600 C   0  0  2  0  0  0  0  0  0  0  0  0
   37.3260   20.1970   31.4560 C   0  0  0  0  0  0  0  0  0  0  0  0
   35.9960   20.3030   31.7350 O   0  0  0  0  0  0  0  0  0  0  0  0
   35.5300   21.5300   31.3510 C   0  0  0  0  0  0  0  0  0  0  0  0
   36.9300   22.6660   30.1560 H   0  0  0  0  0  0  0  0  0  0  0  0
   38.7310   21.7270   31.1310 H   0  0  0  0  0  0  0  0  0  0  0  0
   37.5820   19.9040   30.4300 H   0  0  0  0  0  0  0  0  0  0  0  0
   37.8050   19.5710   32.2230 H   0  0  0  0  0  0  0  0  0  0  0  0
   35.0610   21.4540   30.3580 H   0  0  0  0  0  0  0  0  0  0  0  0
   34.7930   21.9700   32.0560 H   0  0  0  0  0  0  0  0  0  0  0  0
   38.9930   22.9190   33.6830 C   0  0  1  0  0  0  0  0  0  0  0  0
   39.6010   21.6220   33.5390 C   0  0  0  0  0  0  0  0  0  0  0  0
   38.0970   21.7630   33.2310 C   0  0  2  0  0  0  0  0  0  0  0  0
   39.1830   23.7020   32.8950 H   0  0  0  0  0  0  0  0  0  0  0  0
   39.8280   21.0670   34.4920 H   0  0  0  0  0  0  0  0  0  0  0  0
   40.2940   21.3510   32.7450 H   0  0  0  0  0  0  0  0  0  0  0  0
   37.3680   21.3480   33.9230 H   0  0  0  0  0  0  0  0  0  0  0  0
   38.1870   25.3220   36.4360 C   0  0  0  0  0  0  0  0  0  0  0  0
   38.5680   24.8370   35.1970 C   0  0  0  0  0  0  0  0  0  0  0  0
   38.5900   23.4710   34.9900 C   0  0  0  0  0  0  0  0  0  0  0  0
   38.2300   22.6580   36.0430 N   0  0  0  0  0  0  0  0  0  0  0  0
   37.8620   23.1460   37.2510 C   0  0  0  0  0  0  0  0  0  0  0  0
   37.8370   24.5020   37.4560 N   0  0  0  0  0  0  0  0  0  0  0  0
   38.1830   26.4020   36.5510 H   0  0  0  0  0  0  0  0  0  0  0  0
   38.8720   25.4050   34.3610 H   0  0  0  0  0  0  0  0  0  0  0  0
   37.5890   22.4620   38.0440 H   0  0  0  0  0  0  0  0  0  0  0  0
   36.4790   23.6340   31.9110 O   0  0  0  0  0  0  0  0  0  0  0  0
   38.8830   27.3820   31.3390 H   0  0  0  0  0  0  0  0  0  0  0  0
   37.9850   26.8940   31.2050 N   0  0  0  0  0  0  0  0  0  0  0  0
   37.7440   25.6430   31.5980 C   0  0  0  0  0  3  0  0  0  0  0  0
   36.5540   24.9170   31.4510 C   0  0  0  0  0  0  0  0  0  0  0  0
   35.6180   25.6980   30.8200 C   0  0  0  0  0  0  0  0  0  0  0  0
   34.4840   25.2770   30.5770 O   0  0  0  0  0  0  0  0  0  0  0  0
   35.8240   26.9580   30.4120 N   0  0  0  0  0  0  0  0  0  0  0  0
   36.9980   27.5710   30.5960 C   0  0  0  0  0  0  0  0  0  0  0  0
   37.1910   28.7460   30.2160 O   0  0  0  0  0  0  0  0  0  0  0  0
   35.0920   27.5270   29.9350 H   0  0  0  0  0  0  0  0  0  0  0  0
  1  6  1  6  0  0  0
  1  5  1  0  0  0  0
  1  2  1  0  0  0  0
  1 28  1  0  0  0  0
  2  7  1  6  0  0  0
  2 14  1  0  0  0  0
  3  4  1  0  0  0  0
  3  2  1  0  0  0  0
  3  9  1  0  0  0  0
  5  4  1  0  0  0  0
  5 11  1  0  0  0  0
  8  3  1  0  0  0  0
 10  5  1  0  0  0  0
 12 15  1  6  0  0  0
 12 21  1  0  0  0  0
 13 12  1  0  0  0  0
 13 16  1  0  0  0  0
 14 13  1  0  0  0  0
 14 12  1  0  0  0  0
 14 18  1  1  0  0  0
 17 13  1  0  0  0  0
 19 25  1  0  0  0  0
 19 24  1  0  0  0  0
 20 19  2  0  0  0  0
 21 20  1  0  0  0  0
 21 22  2  0  0  0  0
 22 23  1  0  0  0  0
 23 24  2  0  0  0  0
 23 27  1  0  0  0  0
 26 20  1  0  0  0  0
 30 29  1  0  0  0  0
 30 31  1  0  0  0  0
 32 31  2  0  0  0  0
 32 28  1  0  0  0  0
 33 32  1  0  0  0  0
 34 33  2  0  0  0  0
 35 36  1  0  0  0  0
 35 33  1  0  0  0  0
 36 30  1  0  0  0  0
 37 36  2  0  0  0  0
 38 35  1  0  0  0  0
M  END
>  <minimizedAffinity>
-4.97532463

$$$$

 OpenBabel03262521363D

 38 41  0  0  1  0  0  0  0  0999 V2000
   37.8940   25.6230   34.1620 C   0  0  1  0  0  0  0  0  0  0  0  0
   39.1930   26.3140   34.0520 C   0  0  2  0  0  0  0  0  0  0  0  0
   39.2970   27.0980   35.3710 C   0  0  0  0  0  0  0  0  0  0  0  0
   38.0190   27.5520   35.5130 O   0  0  0  0  0  0  0  0  0  0  0  0
   37.1320   26.6080   35.0760 C   0  0  0  0  0  0  0  0  0  0  0  0
   38.0260   24.6780   34.6810 H   0  0  0  0  0  0  0  0  0  0  0  0
   40.0200   25.5670   34.1250 H   0  0  0  0  0  0  0  0  0  0  0  0
   39.6740   26.4580   36.1800 H   0  0  0  0  0  0  0  0  0  0  0  0
   39.9560   27.9470   35.1400 H   0  0  0  0  0  0  0  0  0  0  0  0
   36.7550   26.0280   35.9330 H   0  0  0  0  0  0  0  0  0  0  0  0
   36.2630   27.0300   34.5280 H   0  0  0  0  0  0  0  0  0  0  0  0
   39.6730   26.6500   31.5170 C   0  0  1  0  0  0  0  0  0  0  0  0
   40.7760   27.1670   32.2820 C   0  0  0  0  0  0  0  0  0  0  0  0
   39.3610   27.2540   32.8880 C   0  0  2  0  0  0  0  0  0  0  0  0
   39.5290   25.5340   31.4510 H   0  0  0  0  0  0  0  0  0  0  0  0
   41.1980   28.1570   31.9470 H   0  0  0  0  0  0  0  0  0  0  0  0
   41.5350   26.5530   32.7630 H   0  0  0  0  0  0  0  0  0  0  0  0
   38.8630   28.2190   32.9470 H   0  0  0  0  0  0  0  0  0  0  0  0
   37.2890   28.7520   29.5440 C   0  0  0  0  0  0  0  0  0  0  0  0
   37.8490   28.0600   30.6030 C   0  0  0  0  0  0  0  0  0  0  0  0
   39.0470   27.3980   30.4110 C   0  0  0  0  0  0  0  0  0  0  0  0
   39.6210   27.4630   29.1600 N   0  0  0  0  0  0  0  0  0  0  0  0
   39.0610   28.1420   28.1310 C   0  0  0  0  0  0  0  0  0  0  0  0
   37.8730   28.8010   28.3220 N   0  0  0  0  0  0  0  0  0  0  0  0
   36.3480   29.2590   29.7420 H   0  0  0  0  0  0  0  0  0  0  0  0
   37.4500   27.9580   31.5750 H   0  0  0  0  0  0  0  0  0  0  0  0
   39.5540   28.1590   27.1690 H   0  0  0  0  0  0  0  0  0  0  0  0
   37.1900   25.4820   32.9860 O   0  0  0  0  0  0  0  0  0  0  0  0
   38.0720   21.1620   32.1430 H   0  0  0  0  0  0  0  0  0  0  0  0
   37.4510   21.9700   31.9890 N   0  0  0  0  0  0  0  0  0  0  0  0
   37.6440   23.1770   32.5220 C   0  0  0  0  0  3  0  0  0  0  0  0
   36.8480   24.3180   32.3600 C   0  0  0  0  0  0  0  0  0  0  0  0
   35.7880   24.0220   31.5390 C   0  0  0  0  0  0  0  0  0  0  0  0
   34.9420   24.8710   31.2460 O   0  0  0  0  0  0  0  0  0  0  0  0
   35.5620   22.8230   30.9860 N   0  0  0  0  0  0  0  0  0  0  0  0
   36.3810   21.7880   31.1990 C   0  0  0  0  0  0  0  0  0  0  0  0
   36.1720   20.6680   30.6830 O   0  0  0  0  0  0  0  0  0  0  0  0
   34.7470   22.6280   30.3650 H   0  0  0  0  0  0  0  0  0  0  0  0
  1  6  1  1  0  0  0
  1  5  1  0  0  0  0
  2  7  1  6  0  0  0
  2  1  1  0  0  0  0
  2  3  1  0  0  0  0
  3  4  1  0  0  0  0
  3  8  1  0  0  0  0
  5  4  1  0  0  0  0
  5 10  1  0  0  0  0
  9  3  1  0  0  0  0
 11  5  1  0  0  0  0
 12 15  1  6  0  0  0
 12 13  1  0  0  0  0
 12 14  1  0  0  0  0
 13 17  1  0  0  0  0
 13 14  1  0  0  0  0
 14 18  1  1  0  0  0
 14  2  1  0  0  0  0
 16 13  1  0  0  0  0
 19 25  1  0  0  0  0
 19 20  1  0  0  0  0
 20 26  1  0  0  0  0
 21 20  2  0  0  0  0
 21 12  1  0  0  0  0
 22 21  1  0  0  0  0
 23 24  1  0  0  0  0
 23 22  2  0  0  0  0
 24 19  2  0  0  0  0
 27 23  1  0  0  0  0
 28  1  1  0  0  0  0
 30 29  1  0  0  0  0
 30 31  1  0  0  0  0
 32 31  2  0  0  0  0
 32 28  1  0  0  0  0
 33 32  1  0  0  0  0
 34 33  2  0  0  0  0
 35 36  1  0  0  0  0
 35 33  1  0  0  0  0
 36 30  1  0  0  0  0
 37 36  2  0  0  0  0
 38 35  1  0  0  0  0
M  END
>  <minimizedAffinity>
-4.94801855

$$$$
