
 OpenBabel03272505093D

 30 32  0  0  0  0  0  0  0  0999 V2000
   35.7410   30.5400   46.1330 Cl  0  0  0  0  0  0  0  0  0  0  0  0
   36.0940   30.0490   47.7720 C   0  0  0  0  0  0  0  0  0  0  0  0
   37.3420   30.3410   48.2480 C   0  0  0  0  0  0  0  0  0  0  0  0
   37.6490   29.9570   49.5570 C   0  0  0  0  0  0  0  0  0  0  0  0
   36.7020   29.3100   50.3140 C   0  0  0  0  0  0  0  0  0  0  0  0
   35.4590   29.0510   49.7600 C   0  0  0  0  0  0  0  0  0  0  0  0
   35.0970   29.4010   48.4810 C   0  0  0  0  0  0  0  0  0  0  0  0
   38.6280   30.1760   49.9580 H   0  0  0  0  0  0  0  0  0  0  0  0
   36.9320   29.0110   51.3270 H   0  0  0  0  0  0  0  0  0  0  0  0
   34.7190   28.5360   50.3750 H   0  0  0  0  0  0  0  0  0  0  0  0
   39.4990   33.0080   46.9790 C   0  0  0  0  0  0  0  0  0  0  0  0
   40.1590   32.4250   45.8870 C   0  0  0  0  0  0  0  0  0  0  0  0
   39.8410   31.1010   45.6050 C   0  0  0  0  0  0  0  0  0  0  0  0
   38.9280   30.4430   46.3810 N   0  0  0  0  0  0  0  0  0  0  0  0
   38.3260   31.0340   47.4070 C   0  0  0  0  0  0  0  0  0  0  0  0
   38.6170   32.3160   47.6990 N   0  0  0  0  0  0  0  0  0  0  0  0
   39.6780   34.0290   47.2760 H   0  0  0  0  0  0  0  0  0  0  0  0
   40.8690   33.0210   45.3270 H   0  0  0  0  0  0  0  0  0  0  0  0
   40.3260   30.6290   44.7800 H   0  0  0  0  0  0  0  0  0  0  0  0
   33.5120   29.0820   47.7610 S   0  0  0  0  0  0  0  0  0  0  0  0
   34.2280   24.4260   46.5110 H   0  0  0  0  0  0  0  0  0  0  0  0
   33.5840   25.1000   46.9770 N   0  0  0  0  0  0  0  0  0  0  0  0
   34.0190   26.3750   46.9850 C   0  0  0  0  0  3  0  0  0  0  0  0
   33.1940   27.3200   47.5990 C   0  0  0  0  0  0  0  0  0  0  0  0
   31.9830   26.9150   48.1660 C   0  0  0  0  0  0  0  0  0  0  0  0
   31.1840   27.6960   48.7350 O   0  0  0  0  0  0  0  0  0  0  0  0
   31.6000   25.6220   48.1270 N   0  0  0  0  0  0  0  0  0  0  0  0
   32.4180   24.7400   47.5280 C   0  0  0  0  0  0  0  0  0  0  0  0
   32.1410   23.5290   47.4490 O   0  0  0  0  0  0  0  0  0  0  0  0
   30.6930   25.2860   48.5440 H   0  0  0  0  0  0  0  0  0  0  0  0
  1  2  1  0  0  0  0
  2  3  2  0  0  0  0
  2  7  1  0  0  0  0
  3  4  1  0  0  0  0
  4  8  1  0  0  0  0
  4  5  2  0  0  0  0
  5  9  1  0  0  0  0
  6  5  1  0  0  0  0
  6 10  1  0  0  0  0
  7  6  2  0  0  0  0
 11 17  1  0  0  0  0
 11 16  1  0  0  0  0
 12 11  2  0  0  0  0
 13 12  1  0  0  0  0
 13 14  2  0  0  0  0
 14 15  1  0  0  0  0
 15 16  2  0  0  0  0
 15  3  1  0  0  0  0
 18 12  1  0  0  0  0
 19 13  1  0  0  0  0
 20  7  1  0  0  0  0
 21 22  1  0  0  0  0
 22 23  1  0  0  0  0
 22 28  1  0  0  0  0
 23 24  2  0  0  0  0
 24 20  1  0  0  0  0
 24 25  1  0  0  0  0
 25 26  2  0  0  0  0
 27 25  1  0  0  0  0
 27 30  1  0  0  0  0
 28 27  1  0  0  0  0
 29 28  2  0  0  0  0
M  END
>  <minimizedAffinity>
-5.49295378

>  <minimizedRMSD>
1.33479905

$$$$
