
 OpenBabel03272503513D

 38 40  0  0  1  0  0  0  0  0999 V2000
   37.8460   26.9270   35.6170 C   0  0  1  0  0  0  0  0  0  0  0  0
   36.9860   27.1670   34.3570 C   0  0  2  0  0  0  0  0  0  0  0  0
   37.8980   27.2230   33.3510 O   0  0  0  0  0  0  0  0  0  0  0  0
   38.7210   26.1300   33.5830 C   0  0  0  0  0  0  0  0  0  0  0  0
   38.8740   25.9600   35.0820 C   0  0  2  0  0  0  0  0  0  0  0  0
   37.2360   26.4400   36.4090 H   0  0  0  0  0  0  0  0  0  0  0  0
   36.2850   26.2850   34.3130 H   0  0  0  0  0  0  0  0  0  0  0  0
   39.7240   26.3660   33.1560 H   0  0  0  0  0  0  0  0  0  0  0  0
   38.3010   25.2200   33.1090 H   0  0  0  0  0  0  0  0  0  0  0  0
   39.8900   26.2780   35.4050 H   0  0  0  0  0  0  0  0  0  0  0  0
   38.3550   28.1180   36.0900 O   0  0  0  0  0  0  0  0  0  0  0  0
   39.2170   28.3540   35.6760 H   0  0  0  0  0  0  0  0  0  0  0  0
   36.3020   28.3240   34.6260 O   0  0  0  0  0  0  0  0  0  0  0  0
   36.2460   30.1250   32.6940 O   0  0  0  0  0  0  0  0  0  0  0  0
   35.4740   28.9550   33.3050 P   0  0  1  0  0  0  0  0  0  0  0  0
   35.3840   27.8010   32.0680 O   0  0  0  0  0  0  0  0  0  0  0  0
   35.0140   26.9370   32.4050 H   0  0  0  0  0  0  0  0  0  0  0  0
   33.9150   29.3840   33.8460 O   0  0  0  0  0  0  0  0  0  0  0  0
   33.7170   30.1160   35.0070 C   0  0  0  0  0  0  0  0  0  0  0  0
   34.5710   31.1420   35.4690 C   0  0  0  0  0  0  0  0  0  0  0  0
   34.2310   31.7820   36.6570 C   0  0  0  0  0  0  0  0  0  0  0  0
   33.1040   31.3930   37.3110 N   0  0  0  0  0  0  0  0  0  0  0  0
   32.3000   30.4070   36.8500 C   0  0  0  0  0  0  0  0  0  0  0  0
   32.6120   29.7620   35.6850 N   0  0  0  0  0  0  0  0  0  0  0  0
   35.4370   31.3570   34.8570 H   0  0  0  0  0  0  0  0  0  0  0  0
   34.8900   32.5660   37.0030 H   0  0  0  0  0  0  0  0  0  0  0  0
   31.4180   30.1460   37.4200 H   0  0  0  0  0  0  0  0  0  0  0  0
   38.5700   24.6790   35.4490 O   0  0  0  0  0  0  0  0  0  0  0  0
   42.0800   22.0480   35.6430 H   0  0  0  0  0  0  0  0  0  0  0  0
   41.2230   22.4110   36.1030 N   0  0  0  0  0  0  0  0  0  0  0  0
   40.3850   23.3270   35.5330 C   0  0  0  0  0  3  0  0  0  0  0  0
   39.2400   23.7830   36.2010 C   0  0  0  0  0  0  0  0  0  0  0  0
   39.0340   23.2510   37.4330 C   0  0  0  0  0  0  0  0  0  0  0  0
   38.0240   23.6500   38.0290 O   0  0  0  0  0  0  0  0  0  0  0  0
   39.8770   22.3500   37.9690 N   0  0  0  0  0  0  0  0  0  0  0  0
   40.9630   21.9200   37.3350 C   0  0  0  0  0  0  0  0  0  0  0  0
   41.7310   21.0770   37.8620 O   0  0  0  0  0  0  0  0  0  0  0  0
   39.6800   21.9670   38.9220 H   0  0  0  0  0  0  0  0  0  0  0  0
  1 11  1  0  0  0  0
  1  6  1  1  0  0  0
  2  7  1  6  0  0  0
  2 13  1  0  0  0  0
  2  1  1  0  0  0  0
  3  4  1  0  0  0  0
  3  2  1  0  0  0  0
  4  5  1  0  0  0  0
  5 10  1  1  0  0  0
  5 28  1  0  0  0  0
  5  1  1  0  0  0  0
  8  4  1  0  0  0  0
  9  4  1  0  0  0  0
 12 11  1  0  0  0  0
 15 14  2  6  0  0  0
 15 18  1  0  0  0  0
 15 13  1  0  0  0  0
 16 17  1  0  0  0  0
 16 15  1  0  0  0  0
 18 19  1  0  0  0  0
 19 20  2  0  0  0  0
 19 24  1  0  0  0  0
 20 21  1  0  0  0  0
 21 26  1  0  0  0  0
 21 22  2  0  0  0  0
 23 22  1  0  0  0  0
 23 27  1  0  0  0  0
 24 23  2  0  0  0  0
 25 20  1  0  0  0  0
 28 32  1  0  0  0  0
 29 30  1  0  0  0  0
 30 36  1  0  0  0  0
 31 30  1  0  0  0  0
 31 32  2  0  0  0  0
 32 33  1  0  0  0  0
 33 35  1  0  0  0  0
 33 34  2  0  0  0  0
 35 38  1  0  0  0  0
 36 37  2  0  0  0  0
 36 35  1  0  0  0  0
M  END
>  <minimizedAffinity>
-6.05942869

$$$$

 OpenBabel03272503513D

 38 40  0  0  1  0  0  0  0  0999 V2000
   37.9530   26.5960   35.3550 C   0  0  1  0  0  0  0  0  0  0  0  0
   37.8230   26.7580   33.8240 C   0  0  2  0  0  0  0  0  0  0  0  0
   39.0990   26.9890   33.4160 O   0  0  0  0  0  0  0  0  0  0  0  0
   39.8420   26.0190   34.0750 C   0  0  0  0  0  0  0  0  0  0  0  0
   39.2400   25.8130   35.4510 C   0  0  2  0  0  0  0  0  0  0  0  0
   37.1060   25.9930   35.7480 H   0  0  0  0  0  0  0  0  0  0  0  0
   37.3790   25.7860   33.4670 H   0  0  0  0  0  0  0  0  0  0  0  0
   40.8760   26.4160   34.2050 H   0  0  0  0  0  0  0  0  0  0  0  0
   39.8580   25.0770   33.4890 H   0  0  0  0  0  0  0  0  0  0  0  0
   39.8930   26.2630   36.2300 H   0  0  0  0  0  0  0  0  0  0  0  0
   37.9730   27.8280   35.9720 O   0  0  0  0  0  0  0  0  0  0  0  0
   38.8800   28.2050   36.0420 H   0  0  0  0  0  0  0  0  0  0  0  0
   36.9360   27.7910   33.6650 O   0  0  0  0  0  0  0  0  0  0  0  0
   36.0940   29.6350   31.9710 O   0  0  0  0  0  0  0  0  0  0  0  0
   36.6580   28.2170   32.0610 P   0  0  1  0  0  0  0  0  0  0  0  0
   38.1230   28.2780   31.2130 O   0  0  0  0  0  0  0  0  0  0  0  0
   38.6420   27.4330   31.3250 H   0  0  0  0  0  0  0  0  0  0  0  0
   35.6240   27.0350   31.3980 O   0  0  0  0  0  0  0  0  0  0  0  0
   36.0350   25.7240   31.2100 C   0  0  0  0  0  0  0  0  0  0  0  0
   35.2130   24.5880   31.3830 C   0  0  0  0  0  0  0  0  0  0  0  0
   35.7790   23.3380   31.1530 C   0  0  0  0  0  0  0  0  0  0  0  0
   37.0840   23.2680   30.7760 N   0  0  0  0  0  0  0  0  0  0  0  0
   37.8530   24.3700   30.6160 C   0  0  0  0  0  0  0  0  0  0  0  0
   37.3210   25.6110   30.8360 N   0  0  0  0  0  0  0  0  0  0  0  0
   34.1920   24.7770   31.6860 H   0  0  0  0  0  0  0  0  0  0  0  0
   35.1420   22.4740   31.2890 H   0  0  0  0  0  0  0  0  0  0  0  0
   38.8840   24.2440   30.3150 H   0  0  0  0  0  0  0  0  0  0  0  0
   38.9840   24.4870   35.6640 O   0  0  0  0  0  0  0  0  0  0  0  0
   42.4850   21.8400   35.5570 H   0  0  0  0  0  0  0  0  0  0  0  0
   41.6460   22.1730   36.0700 N   0  0  0  0  0  0  0  0  0  0  0  0
   40.7940   23.1280   35.5930 C   0  0  0  0  0  3  0  0  0  0  0  0
   39.6750   23.5400   36.3300 C   0  0  0  0  0  0  0  0  0  0  0  0
   39.5090   22.9270   37.5300 C   0  0  0  0  0  0  0  0  0  0  0  0
   38.5220   23.2860   38.1870 O   0  0  0  0  0  0  0  0  0  0  0  0
   40.3660   21.9890   37.9740 N   0  0  0  0  0  0  0  0  0  0  0  0
   41.4270   21.6000   37.2750 C   0  0  0  0  0  0  0  0  0  0  0  0
   42.2090   20.7210   37.7160 O   0  0  0  0  0  0  0  0  0  0  0  0
   40.2000   21.5420   38.9050 H   0  0  0  0  0  0  0  0  0  0  0  0
  1  5  1  0  0  0  0
  1  6  1  1  0  0  0
  1 11  1  0  0  0  0
  2  7  1  6  0  0  0
  2  1  1  0  0  0  0
  3  2  1  0  0  0  0
  3  4  1  0  0  0  0
  4  8  1  0  0  0  0
  4  5  1  0  0  0  0
  5 28  1  0  0  0  0
  5 10  1  1  0  0  0
  9  4  1  0  0  0  0
 11 12  1  0  0  0  0
 13  2  1  0  0  0  0
 15 14  2  6  0  0  0
 15 13  1  0  0  0  0
 16 17  1  0  0  0  0
 16 15  1  0  0  0  0
 18 15  1  0  0  0  0
 19 20  1  0  0  0  0
 19 18  1  0  0  0  0
 20 25  1  0  0  0  0
 21 26  1  0  0  0  0
 21 20  2  0  0  0  0
 22 21  1  0  0  0  0
 23 22  2  0  0  0  0
 23 24  1  0  0  0  0
 24 19  2  0  0  0  0
 27 23  1  0  0  0  0
 28 32  1  0  0  0  0
 29 30  1  0  0  0  0
 30 36  1  0  0  0  0
 31 30  1  0  0  0  0
 31 32  2  0  0  0  0
 32 33  1  0  0  0  0
 33 35  1  0  0  0  0
 33 34  2  0  0  0  0
 35 38  1  0  0  0  0
 36 37  2  0  0  0  0
 36 35  1  0  0  0  0
M  END
>  <minimizedAffinity>
-5.93541479

$$$$

 OpenBabel03272503513D

 38 40  0  0  1  0  0  0  0  0999 V2000
   38.3550   26.1190   31.6920 C   0  0  1  0  0  0  0  0  0  0  0  0
   37.4550   26.4020   32.9150 C   0  0  2  0  0  0  0  0  0  0  0  0
   36.2810   26.8060   32.3640 O   0  0  0  0  0  0  0  0  0  0  0  0
   36.0370   25.8700   31.3700 C   0  0  0  0  0  0  0  0  0  0  0  0
   37.3640   25.4770   30.7510 C   0  0  2  0  0  0  0  0  0  0  0  0
   39.1530   25.3950   31.9640 H   0  0  0  0  0  0  0  0  0  0  0  0
   37.4060   25.4220   33.4710 H   0  0  0  0  0  0  0  0  0  0  0  0
   35.4210   26.3650   30.5820 H   0  0  0  0  0  0  0  0  0  0  0  0
   35.5030   24.9910   31.7860 H   0  0  0  0  0  0  0  0  0  0  0  0
   37.4670   25.9250   29.7390 H   0  0  0  0  0  0  0  0  0  0  0  0
   38.9250   27.2860   31.2310 O   0  0  0  0  0  0  0  0  0  0  0  0
   38.3590   27.7530   30.5740 H   0  0  0  0  0  0  0  0  0  0  0  0
   38.1450   27.3410   33.6370 O   0  0  0  0  0  0  0  0  0  0  0  0
   40.4510   26.7600   34.7880 O   0  0  0  0  0  0  0  0  0  0  0  0
   38.9350   26.7250   34.9880 P   0  0  1  0  0  0  0  0  0  0  0  0
   38.6520   27.7170   36.3320 O   0  0  0  0  0  0  0  0  0  0  0  0
   37.6750   27.8720   36.4680 H   0  0  0  0  0  0  0  0  0  0  0  0
   38.3260   25.1550   35.2560 O   0  0  0  0  0  0  0  0  0  0  0  0
   38.6610   24.4220   36.3840 C   0  0  0  0  0  0  0  0  0  0  0  0
   39.6540   23.4180   36.4290 C   0  0  0  0  0  0  0  0  0  0  0  0
   39.8690   22.7730   37.6430 C   0  0  0  0  0  0  0  0  0  0  0  0
   39.1210   23.1360   38.7190 N   0  0  0  0  0  0  0  0  0  0  0  0
   38.1750   24.1010   38.6540 C   0  0  0  0  0  0  0  0  0  0  0  0
   37.9430   24.7500   37.4730 N   0  0  0  0  0  0  0  0  0  0  0  0
   40.1790   23.2220   35.5040 H   0  0  0  0  0  0  0  0  0  0  0  0
   40.6310   22.0060   37.6670 H   0  0  0  0  0  0  0  0  0  0  0  0
   37.6150   24.3400   39.5480 H   0  0  0  0  0  0  0  0  0  0  0  0
   37.5070   24.1170   30.7540 O   0  0  0  0  0  0  0  0  0  0  0  0
   34.3340   21.3890   32.0830 H   0  0  0  0  0  0  0  0  0  0  0  0
   35.2920   21.7640   32.2240 N   0  0  0  0  0  0  0  0  0  0  0  0
   35.8600   22.7160   31.4270 C   0  0  0  0  0  3  0  0  0  0  0  0
   37.1590   23.1850   31.6650 C   0  0  0  0  0  0  0  0  0  0  0  0
   37.7940   22.6310   32.7280 C   0  0  0  0  0  0  0  0  0  0  0  0
   38.9430   23.0400   32.9450 O   0  0  0  0  0  0  0  0  0  0  0  0
   37.2090   21.6930   33.4960 N   0  0  0  0  0  0  0  0  0  0  0  0
   35.9770   21.2490   33.2700 C   0  0  0  0  0  0  0  0  0  0  0  0
   35.4570   20.3720   34.0050 O   0  0  0  0  0  0  0  0  0  0  0  0
   37.7340   21.2920   34.3070 H   0  0  0  0  0  0  0  0  0  0  0  0
  1  6  1  1  0  0  0
  1  2  1  0  0  0  0
  2  7  1  1  0  0  0
  2 13  1  0  0  0  0
  3  2  1  0  0  0  0
  4  9  1  0  0  0  0
  4  3  1  0  0  0  0
  5 10  1  6  0  0  0
  5 28  1  0  0  0  0
  5  4  1  0  0  0  0
  5  1  1  0  0  0  0
  8  4  1  0  0  0  0
 11  1  1  0  0  0  0
 12 11  1  0  0  0  0
 13 15  1  0  0  0  0
 15 14  2  6  0  0  0
 15 18  1  0  0  0  0
 15 16  1  0  0  0  0
 16 17  1  0  0  0  0
 18 19  1  0  0  0  0
 19 20  2  0  0  0  0
 19 24  1  0  0  0  0
 20 21  1  0  0  0  0
 21 26  1  0  0  0  0
 21 22  2  0  0  0  0
 23 22  1  0  0  0  0
 23 27  1  0  0  0  0
 24 23  2  0  0  0  0
 25 20  1  0  0  0  0
 28 32  1  0  0  0  0
 29 30  1  0  0  0  0
 30 36  1  0  0  0  0
 31 32  2  0  0  0  0
 31 30  1  0  0  0  0
 32 33  1  0  0  0  0
 33 34  2  0  0  0  0
 33 35  1  0  0  0  0
 35 38  1  0  0  0  0
 36 35  1  0  0  0  0
 36 37  2  0  0  0  0
M  END
>  <minimizedAffinity>
-5.75170135

$$$$

 OpenBabel03272503513D

 38 40  0  0  1  0  0  0  0  0999 V2000
   37.0790   26.7800   34.5140 C   0  0  1  0  0  0  0  0  0  0  0  0
   38.1780   26.8630   33.4320 C   0  0  2  0  0  0  0  0  0  0  0  0
   39.2360   27.4070   34.0890 O   0  0  0  0  0  0  0  0  0  0  0  0
   39.3060   26.6820   35.2700 C   0  0  0  0  0  0  0  0  0  0  0  0
   37.8930   26.3620   35.7150 C   0  0  2  0  0  0  0  0  0  0  0  0
   36.3450   25.9870   34.2530 H   0  0  0  0  0  0  0  0  0  0  0  0
   38.3290   25.7990   33.0900 H   0  0  0  0  0  0  0  0  0  0  0  0
   39.7730   27.3380   36.0430 H   0  0  0  0  0  0  0  0  0  0  0  0
   39.9080   25.7620   35.1260 H   0  0  0  0  0  0  0  0  0  0  0  0
   37.6120   26.9860   36.5920 H   0  0  0  0  0  0  0  0  0  0  0  0
   36.4320   27.9900   34.6410 O   0  0  0  0  0  0  0  0  0  0  0  0
   36.8720   28.5910   35.2840 H   0  0  0  0  0  0  0  0  0  0  0  0
   37.6210   27.6240   32.4380 O   0  0  0  0  0  0  0  0  0  0  0  0
   36.4940   25.5540   31.2440 O   0  0  0  0  0  0  0  0  0  0  0  0
   37.3590   26.7920   31.0000 P   0  0  1  0  0  0  0  0  0  0  0  0
   36.4570   27.7460   29.9300 O   0  0  0  0  0  0  0  0  0  0  0  0
   36.8730   28.6460   29.8090 H   0  0  0  0  0  0  0  0  0  0  0  0
   38.8890   26.4270   30.3430 O   0  0  0  0  0  0  0  0  0  0  0  0
   39.8640   27.3980   30.1730 C   0  0  0  0  0  0  0  0  0  0  0  0
   41.1350   27.3810   30.7890 C   0  0  0  0  0  0  0  0  0  0  0  0
   42.0030   28.4340   30.5140 C   0  0  0  0  0  0  0  0  0  0  0  0
   41.5890   29.4210   29.6740 N   0  0  0  0  0  0  0  0  0  0  0  0
   40.3660   29.4180   29.0950 C   0  0  0  0  0  0  0  0  0  0  0  0
   39.4950   28.3940   29.3490 N   0  0  0  0  0  0  0  0  0  0  0  0
   41.3430   26.5400   31.4360 H   0  0  0  0  0  0  0  0  0  0  0  0
   42.9730   28.4120   30.9890 H   0  0  0  0  0  0  0  0  0  0  0  0
   40.1000   30.2340   28.4380 H   0  0  0  0  0  0  0  0  0  0  0  0
   37.7590   25.0210   35.9470 O   0  0  0  0  0  0  0  0  0  0  0  0
   41.0830   22.1960   35.4430 H   0  0  0  0  0  0  0  0  0  0  0  0
   40.3920   22.6430   36.0770 N   0  0  0  0  0  0  0  0  0  0  0  0
   39.4740   23.5680   35.6700 C   0  0  0  0  0  3  0  0  0  0  0  0
   38.5650   24.1380   36.5720 C   0  0  0  0  0  0  0  0  0  0  0  0
   38.6660   23.7050   37.8540 C   0  0  0  0  0  0  0  0  0  0  0  0
   37.8660   24.2050   38.6560 O   0  0  0  0  0  0  0  0  0  0  0  0
   39.5820   22.7920   38.2260 N   0  0  0  0  0  0  0  0  0  0  0  0
   40.4440   22.2530   37.3710 C   0  0  0  0  0  0  0  0  0  0  0  0
   41.2880   21.4020   37.7480 O   0  0  0  0  0  0  0  0  0  0  0  0
   39.6250   22.4870   39.2250 H   0  0  0  0  0  0  0  0  0  0  0  0
  1  6  1  6  0  0  0
  1 11  1  0  0  0  0
  1  5  1  0  0  0  0
  2  7  1  6  0  0  0
  2  3  1  0  0  0  0
  2  1  1  0  0  0  0
  3  4  1  0  0  0  0
  4  5  1  0  0  0  0
  4  8  1  0  0  0  0
  5 28  1  0  0  0  0
  5 10  1  1  0  0  0
  9  4  1  0  0  0  0
 11 12  1  0  0  0  0
 13  2  1  0  0  0  0
 15 14  2  1  0  0  0
 15 13  1  0  0  0  0
 16 15  1  0  0  0  0
 17 16  1  0  0  0  0
 18 15  1  0  0  0  0
 19 18  1  0  0  0  0
 19 20  1  0  0  0  0
 20 25  1  0  0  0  0
 21 20  2  0  0  0  0
 21 26  1  0  0  0  0
 22 21  1  0  0  0  0
 23 24  1  0  0  0  0
 23 22  2  0  0  0  0
 24 19  2  0  0  0  0
 27 23  1  0  0  0  0
 28 32  1  0  0  0  0
 29 30  1  0  0  0  0
 30 36  1  0  0  0  0
 31 30  1  0  0  0  0
 31 32  2  0  0  0  0
 32 33  1  0  0  0  0
 33 35  1  0  0  0  0
 33 34  2  0  0  0  0
 35 38  1  0  0  0  0
 36 37  2  0  0  0  0
 36 35  1  0  0  0  0
M  END
>  <minimizedAffinity>
-5.64252901

$$$$

 OpenBabel03272503513D

 38 40  0  0  1  0  0  0  0  0999 V2000
   37.5860   26.1760   34.2410 C   0  0  1  0  0  0  0  0  0  0  0  0
   39.0470   26.6650   34.1280 C   0  0  2  0  0  0  0  0  0  0  0  0
   39.2500   27.3420   35.2890 O   0  0  0  0  0  0  0  0  0  0  0  0
   38.7450   26.4940   36.2640 C   0  0  0  0  0  0  0  0  0  0  0  0
   37.5250   25.7940   35.7000 C   0  0  2  0  0  0  0  0  0  0  0  0
   37.4330   25.2800   33.6010 H   0  0  0  0  0  0  0  0  0  0  0  0
   39.6590   25.7250   34.0140 H   0  0  0  0  0  0  0  0  0  0  0  0
   38.4170   27.1250   37.1240 H   0  0  0  0  0  0  0  0  0  0  0  0
   39.5200   25.7700   36.5880 H   0  0  0  0  0  0  0  0  0  0  0  0
   36.5980   26.2050   36.1550 H   0  0  0  0  0  0  0  0  0  0  0  0
   36.7120   27.1720   33.8620 O   0  0  0  0  0  0  0  0  0  0  0  0
   36.4610   27.7620   34.6090 H   0  0  0  0  0  0  0  0  0  0  0  0
   39.0700   27.4090   32.9760 O   0  0  0  0  0  0  0  0  0  0  0  0
   41.0390   27.5430   31.2200 O   0  0  0  0  0  0  0  0  0  0  0  0
   39.8770   26.6710   31.6980 P   0  0  1  0  0  0  0  0  0  0  0  0
   40.6010   25.2310   32.2200 O   0  0  0  0  0  0  0  0  0  0  0  0
   39.9400   24.6400   32.6790 H   0  0  0  0  0  0  0  0  0  0  0  0
   38.7210   26.3620   30.4840 O   0  0  0  0  0  0  0  0  0  0  0  0
   37.5930   25.5920   30.7240 C   0  0  0  0  0  0  0  0  0  0  0  0
   37.5890   24.1860   30.8580 C   0  0  0  0  0  0  0  0  0  0  0  0
   36.3690   23.5610   31.0990 C   0  0  0  0  0  0  0  0  0  0  0  0
   35.2490   24.3260   31.1930 N   0  0  0  0  0  0  0  0  0  0  0  0
   35.2750   25.6730   31.0610 C   0  0  0  0  0  0  0  0  0  0  0  0
   36.4610   26.3120   30.8240 N   0  0  0  0  0  0  0  0  0  0  0  0
   38.5470   23.6930   30.7620 H   0  0  0  0  0  0  0  0  0  0  0  0
   36.3760   22.4850   31.2000 H   0  0  0  0  0  0  0  0  0  0  0  0
   34.3470   26.2220   31.1470 H   0  0  0  0  0  0  0  0  0  0  0  0
   37.6420   24.4400   35.8500 O   0  0  0  0  0  0  0  0  0  0  0  0
   41.2280   21.9540   35.3600 H   0  0  0  0  0  0  0  0  0  0  0  0
   40.5190   22.3650   35.9980 N   0  0  0  0  0  0  0  0  0  0  0  0
   39.4900   23.1610   35.5800 C   0  0  0  0  0  3  0  0  0  0  0  0
   38.5620   23.6880   36.4880 C   0  0  0  0  0  0  0  0  0  0  0  0
   38.7600   23.3510   37.7870 C   0  0  0  0  0  0  0  0  0  0  0  0
   37.9430   23.8140   38.5950 O   0  0  0  0  0  0  0  0  0  0  0  0
   39.7830   22.5650   38.1700 N   0  0  0  0  0  0  0  0  0  0  0  0
   40.6640   22.0660   37.3090 C   0  0  0  0  0  0  0  0  0  0  0  0
   41.6080   21.3330   37.6960 O   0  0  0  0  0  0  0  0  0  0  0  0
   39.8990   22.3300   39.1820 H   0  0  0  0  0  0  0  0  0  0  0  0
  1  6  1  6  0  0  0
  1  5  1  0  0  0  0
  2  7  1  6  0  0  0
  2  1  1  0  0  0  0
  2  3  1  0  0  0  0
  3  4  1  0  0  0  0
  4  9  1  0  0  0  0
  4  8  1  0  0  0  0
  5 28  1  0  0  0  0
  5 10  1  1  0  0  0
  5  4  1  0  0  0  0
 11  1  1  0  0  0  0
 11 12  1  0  0  0  0
 13  2  1  0  0  0  0
 15 14  2  6  0  0  0
 15 16  1  0  0  0  0
 15 13  1  0  0  0  0
 16 17  1  0  0  0  0
 18 19  1  0  0  0  0
 18 15  1  0  0  0  0
 19 24  2  0  0  0  0
 19 20  1  0  0  0  0
 20 21  2  0  0  0  0
 21 22  1  0  0  0  0
 21 26  1  0  0  0  0
 23 27  1  0  0  0  0
 23 22  2  0  0  0  0
 24 23  1  0  0  0  0
 25 20  1  0  0  0  0
 28 32  1  0  0  0  0
 29 30  1  0  0  0  0
 30 36  1  0  0  0  0
 31 30  1  0  0  0  0
 31 32  2  0  0  0  0
 32 33  1  0  0  0  0
 33 35  1  0  0  0  0
 33 34  2  0  0  0  0
 35 38  1  0  0  0  0
 36 37  2  0  0  0  0
 36 35  1  0  0  0  0
M  END
>  <minimizedAffinity>
-5.5363493

$$$$

 OpenBabel03272503513D

 38 40  0  0  1  0  0  0  0  0999 V2000
   37.8810   26.5010   34.8150 C   0  0  1  0  0  0  0  0  0  0  0  0
   38.0750   26.5820   33.2850 C   0  0  2  0  0  0  0  0  0  0  0  0
   39.2480   27.2560   33.1460 O   0  0  0  0  0  0  0  0  0  0  0  0
   40.1010   26.6340   34.0450 C   0  0  0  0  0  0  0  0  0  0  0  0
   39.2970   26.2420   35.2700 C   0  0  2  0  0  0  0  0  0  0  0  0
   37.2310   25.6370   35.0720 H   0  0  0  0  0  0  0  0  0  0  0  0
   38.1000   25.5100   32.9390 H   0  0  0  0  0  0  0  0  0  0  0  0
   40.8670   27.3820   34.3580 H   0  0  0  0  0  0  0  0  0  0  0  0
   40.5870   25.7540   33.5760 H   0  0  0  0  0  0  0  0  0  0  0  0
   39.5430   26.9100   36.1240 H   0  0  0  0  0  0  0  0  0  0  0  0
   37.3180   27.6640   35.2950 O   0  0  0  0  0  0  0  0  0  0  0  0
   37.9910   28.3470   35.5230 H   0  0  0  0  0  0  0  0  0  0  0  0
   36.9490   27.2180   32.8320 O   0  0  0  0  0  0  0  0  0  0  0  0
   36.2440   28.5360   30.6530 O   0  0  0  0  0  0  0  0  0  0  0  0
   36.7710   27.1920   31.1590 P   0  0  1  0  0  0  0  0  0  0  0  0
   38.2830   27.0120   30.4160 O   0  0  0  0  0  0  0  0  0  0  0  0
   38.7750   26.2260   30.7840 H   0  0  0  0  0  0  0  0  0  0  0  0
   35.7500   25.8800   30.7810 O   0  0  0  0  0  0  0  0  0  0  0  0
   36.1300   24.5670   31.0110 C   0  0  0  0  0  0  0  0  0  0  0  0
   35.2940   23.5700   31.5620 C   0  0  0  0  0  0  0  0  0  0  0  0
   35.8280   22.2960   31.7290 C   0  0  0  0  0  0  0  0  0  0  0  0
   37.1170   22.0720   31.3570 N   0  0  0  0  0  0  0  0  0  0  0  0
   37.9000   23.0420   30.8310 C   0  0  0  0  0  0  0  0  0  0  0  0
   37.4000   24.3030   30.6560 N   0  0  0  0  0  0  0  0  0  0  0  0
   34.2880   23.8750   31.8170 H   0  0  0  0  0  0  0  0  0  0  0  0
   35.1810   21.5400   32.1520 H   0  0  0  0  0  0  0  0  0  0  0  0
   38.9170   22.7960   30.5560 H   0  0  0  0  0  0  0  0  0  0  0  0
   39.4790   24.9180   35.5540 O   0  0  0  0  0  0  0  0  0  0  0  0
   37.3980   21.4100   33.9300 H   0  0  0  0  0  0  0  0  0  0  0  0
   37.5640   22.0430   34.7360 N   0  0  0  0  0  0  0  0  0  0  0  0
   38.4140   23.1110   34.7010 C   0  0  0  0  0  3  0  0  0  0  0  0
   38.5990   23.9320   35.8220 C   0  0  0  0  0  0  0  0  0  0  0  0
   37.8790   23.5900   36.9200 C   0  0  0  0  0  0  0  0  0  0  0  0
   38.0380   24.3110   37.9150 O   0  0  0  0  0  0  0  0  0  0  0  0
   37.0490   22.5310   36.9250 N   0  0  0  0  0  0  0  0  0  0  0  0
   36.8750   21.7520   35.8630 C   0  0  0  0  0  0  0  0  0  0  0  0
   36.0920   20.7700   35.8980 O   0  0  0  0  0  0  0  0  0  0  0  0
   36.5140   22.3030   37.7950 H   0  0  0  0  0  0  0  0  0  0  0  0
  1  6  1  1  0  0  0
  1  5  1  0  0  0  0
  1 11  1  0  0  0  0
  2  7  1  6  0  0  0
  2  1  1  0  0  0  0
  3  2  1  0  0  0  0
  3  4  1  0  0  0  0
  4  8  1  0  0  0  0
  4  5  1  0  0  0  0
  5 28  1  0  0  0  0
  5 10  1  1  0  0  0
  9  4  1  0  0  0  0
 11 12  1  0  0  0  0
 13  2  1  0  0  0  0
 15 14  2  6  0  0  0
 15 13  1  0  0  0  0
 16 17  1  0  0  0  0
 16 15  1  0  0  0  0
 18 19  1  0  0  0  0
 18 15  1  0  0  0  0
 19 20  1  0  0  0  0
 20 21  2  0  0  0  0
 20 25  1  0  0  0  0
 21 26  1  0  0  0  0
 22 21  1  0  0  0  0
 23 22  2  0  0  0  0
 24 23  1  0  0  0  0
 24 19  2  0  0  0  0
 27 23  1  0  0  0  0
 28 32  1  0  0  0  0
 29 30  1  0  0  0  0
 30 36  1  0  0  0  0
 31 30  1  0  0  0  0
 31 32  2  0  0  0  0
 32 33  1  0  0  0  0
 33 35  1  0  0  0  0
 33 34  2  0  0  0  0
 35 38  1  0  0  0  0
 36 37  2  0  0  0  0
 36 35  1  0  0  0  0
M  END
>  <minimizedAffinity>
-5.32925844

$$$$

 OpenBabel03272503513D

 38 40  0  0  1  0  0  0  0  0999 V2000
   36.4840   28.4860   32.8040 C   0  0  1  0  0  0  0  0  0  0  0  0
   37.0320   27.0840   33.1500 C   0  0  2  0  0  0  0  0  0  0  0  0
   36.3320   26.2550   32.3320 O   0  0  0  0  0  0  0  0  0  0  0  0
   36.3980   26.8740   31.0920 C   0  0  0  0  0  0  0  0  0  0  0  0
   36.3370   28.3740   31.3060 C   0  0  2  0  0  0  0  0  0  0  0  0
   37.2350   29.2640   33.0600 H   0  0  0  0  0  0  0  0  0  0  0  0
   38.1370   27.1440   32.9340 H   0  0  0  0  0  0  0  0  0  0  0  0
   35.4930   26.5690   30.5140 H   0  0  0  0  0  0  0  0  0  0  0  0
   37.3210   26.5740   30.5560 H   0  0  0  0  0  0  0  0  0  0  0  0
   35.3450   28.7690   30.9970 H   0  0  0  0  0  0  0  0  0  0  0  0
   35.3120   28.7310   33.4880 O   0  0  0  0  0  0  0  0  0  0  0  0
   34.5150   28.4150   33.0030 H   0  0  0  0  0  0  0  0  0  0  0  0
   36.8010   26.9500   34.4950 O   0  0  0  0  0  0  0  0  0  0  0  0
   39.3470   26.2450   34.4550 O   0  0  0  0  0  0  0  0  0  0  0  0
   38.1520   26.4800   35.3800 P   0  0  1  0  0  0  0  0  0  0  0  0
   38.6400   27.7350   36.4090 O   0  0  0  0  0  0  0  0  0  0  0  0
   37.8800   28.0590   36.9690 H   0  0  0  0  0  0  0  0  0  0  0  0
   37.7110   25.0990   36.2770 O   0  0  0  0  0  0  0  0  0  0  0  0
   38.5730   24.0250   36.4400 C   0  0  0  0  0  0  0  0  0  0  0  0
   39.2070   23.6760   37.6530 C   0  0  0  0  0  0  0  0  0  0  0  0
   40.0450   22.5650   37.6500 C   0  0  0  0  0  0  0  0  0  0  0  0
   40.2140   21.8750   36.4900 N   0  0  0  0  0  0  0  0  0  0  0  0
   39.5970   22.2280   35.3390 C   0  0  0  0  0  0  0  0  0  0  0  0
   38.7680   23.3150   35.3150 N   0  0  0  0  0  0  0  0  0  0  0  0
   38.9900   24.3050   38.5060 H   0  0  0  0  0  0  0  0  0  0  0  0
   40.5250   22.3060   38.5830 H   0  0  0  0  0  0  0  0  0  0  0  0
   39.7760   21.6360   34.4510 H   0  0  0  0  0  0  0  0  0  0  0  0
   37.3810   28.9870   30.6710 O   0  0  0  0  0  0  0  0  0  0  0  0
   38.7140   29.4920   26.5180 H   0  0  0  0  0  0  0  0  0  0  0  0
   38.2320   29.8940   27.3460 N   0  0  0  0  0  0  0  0  0  0  0  0
   38.0750   29.2310   28.5300 C   0  0  0  0  0  3  0  0  0  0  0  0
   37.4150   29.8250   29.6150 C   0  0  0  0  0  0  0  0  0  0  0  0
   36.9570   31.0840   29.4000 C   0  0  0  0  0  0  0  0  0  0  0  0
   36.3720   31.6150   30.3550 O   0  0  0  0  0  0  0  0  0  0  0  0
   37.1260   31.7120   28.2230 N   0  0  0  0  0  0  0  0  0  0  0  0
   37.7510   31.1490   27.1940 C   0  0  0  0  0  0  0  0  0  0  0  0
   37.8940   31.7610   26.1060 O   0  0  0  0  0  0  0  0  0  0  0  0
   36.7560   32.6820   28.1010 H   0  0  0  0  0  0  0  0  0  0  0  0
  1  6  1  1  0  0  0
  1  2  1  0  0  0  0
  1 11  1  0  0  0  0
  2  7  1  6  0  0  0
  2 13  1  0  0  0  0
  3  2  1  0  0  0  0
  4  5  1  0  0  0  0
  4  3  1  0  0  0  0
  5 10  1  6  0  0  0
  5  1  1  0  0  0  0
  8  4  1  0  0  0  0
  9  4  1  0  0  0  0
 12 11  1  0  0  0  0
 13 15  1  0  0  0  0
 15 14  2  6  0  0  0
 15 18  1  0  0  0  0
 15 16  1  0  0  0  0
 16 17  1  0  0  0  0
 18 19  1  0  0  0  0
 19 20  1  0  0  0  0
 20 25  1  0  0  0  0
 21 20  2  0  0  0  0
 21 26  1  0  0  0  0
 22 21  1  0  0  0  0
 23 22  2  0  0  0  0
 24 23  1  0  0  0  0
 24 19  2  0  0  0  0
 27 23  1  0  0  0  0
 28  5  1  0  0  0  0
 29 30  1  0  0  0  0
 30 31  1  0  0  0  0
 31 32  2  0  0  0  0
 32 28  1  0  0  0  0
 33 32  1  0  0  0  0
 33 34  2  0  0  0  0
 35 33  1  0  0  0  0
 36 30  1  0  0  0  0
 36 35  1  0  0  0  0
 37 36  2  0  0  0  0
 38 35  1  0  0  0  0
M  END
>  <minimizedAffinity>
-5.31169462

$$$$

 OpenBabel03272503513D

 38 40  0  0  1  0  0  0  0  0999 V2000
   39.1750   26.6150   33.0790 C   0  0  1  0  0  0  0  0  0  0  0  0
   37.6960   26.9940   32.8490 C   0  0  2  0  0  0  0  0  0  0  0  0
   37.1630   25.8810   32.2800 O   0  0  0  0  0  0  0  0  0  0  0  0
   37.6270   24.8440   33.0770 C   0  0  0  0  0  0  0  0  0  0  0  0
   39.0370   25.1790   33.5210 C   0  0  2  0  0  0  0  0  0  0  0  0
   39.6040   27.2310   33.8990 H   0  0  0  0  0  0  0  0  0  0  0  0
   37.2970   27.2410   33.8750 H   0  0  0  0  0  0  0  0  0  0  0  0
   37.6710   23.9250   32.4450 H   0  0  0  0  0  0  0  0  0  0  0  0
   36.9510   24.6870   33.9430 H   0  0  0  0  0  0  0  0  0  0  0  0
   39.7740   24.5480   32.9780 H   0  0  0  0  0  0  0  0  0  0  0  0
   39.9080   26.8020   31.9260 O   0  0  0  0  0  0  0  0  0  0  0  0
   39.9050   26.0100   31.3410 H   0  0  0  0  0  0  0  0  0  0  0  0
   37.7490   28.1150   32.0610 O   0  0  0  0  0  0  0  0  0  0  0  0
   36.4610   29.7050   30.3890 O   0  0  0  0  0  0  0  0  0  0  0  0
   36.3590   28.3840   31.1540 P   0  0  1  0  0  0  0  0  0  0  0  0
   36.2080   27.1980   29.9530 O   0  0  0  0  0  0  0  0  0  0  0  0
   36.2690   26.2810   30.3420 H   0  0  0  0  0  0  0  0  0  0  0  0
   35.0370   28.3280   32.2290 O   0  0  0  0  0  0  0  0  0  0  0  0
   34.7390   29.3800   33.0810 C   0  0  0  0  0  0  0  0  0  0  0  0
   35.4890   29.7270   34.2270 C   0  0  0  0  0  0  0  0  0  0  0  0
   35.0560   30.8150   34.9790 C   0  0  0  0  0  0  0  0  0  0  0  0
   33.9430   31.4870   34.5790 N   0  0  0  0  0  0  0  0  0  0  0  0
   33.2400   31.1380   33.4780 C   0  0  0  0  0  0  0  0  0  0  0  0
   33.6440   30.0720   32.7210 N   0  0  0  0  0  0  0  0  0  0  0  0
   36.3540   29.1140   34.4380 H   0  0  0  0  0  0  0  0  0  0  0  0
   35.6360   31.0730   35.8540 H   0  0  0  0  0  0  0  0  0  0  0  0
   32.3630   31.7140   33.2160 H   0  0  0  0  0  0  0  0  0  0  0  0
   39.1440   25.0790   34.8800 O   0  0  0  0  0  0  0  0  0  0  0  0
   42.6400   22.7920   36.2290 H   0  0  0  0  0  0  0  0  0  0  0  0
   41.6140   22.9470   36.2780 N   0  0  0  0  0  0  0  0  0  0  0  0
   40.9570   23.9090   35.5650 C   0  0  0  0  0  3  0  0  0  0  0  0
   39.5690   24.0740   35.6710 C   0  0  0  0  0  0  0  0  0  0  0  0
   38.9430   23.2180   36.5190 C   0  0  0  0  0  0  0  0  0  0  0  0
   37.7160   23.3570   36.6170 O   0  0  0  0  0  0  0  0  0  0  0  0
   39.6180   22.2800   37.2080 N   0  0  0  0  0  0  0  0  0  0  0  0
   40.9330   22.1250   37.1080 C   0  0  0  0  0  0  0  0  0  0  0  0
   41.5360   21.2390   37.7650 O   0  0  0  0  0  0  0  0  0  0  0  0
   39.0950   21.6410   37.8510 H   0  0  0  0  0  0  0  0  0  0  0  0
  1  5  1  0  0  0  0
  1  6  1  1  0  0  0
  2  1  1  0  0  0  0
  2  7  1  1  0  0  0
  3  2  1  0  0  0  0
  3  4  1  0  0  0  0
  4  5  1  0  0  0  0
  4  9  1  0  0  0  0
  5 10  1  6  0  0  0
  5 28  1  0  0  0  0
  8  4  1  0  0  0  0
 11  1  1  0  0  0  0
 12 11  1  0  0  0  0
 13  2  1  0  0  0  0
 15 14  2  6  0  0  0
 15 13  1  0  0  0  0
 15 18  1  0  0  0  0
 16 17  1  0  0  0  0
 16 15  1  0  0  0  0
 18 19  1  0  0  0  0
 19 20  1  0  0  0  0
 20 25  1  0  0  0  0
 20 21  2  0  0  0  0
 21 26  1  0  0  0  0
 22 21  1  0  0  0  0
 23 22  2  0  0  0  0
 24 19  2  0  0  0  0
 24 23  1  0  0  0  0
 27 23  1  0  0  0  0
 28 32  1  0  0  0  0
 29 30  1  0  0  0  0
 30 36  1  0  0  0  0
 31 32  2  0  0  0  0
 31 30  1  0  0  0  0
 32 33  1  0  0  0  0
 33 34  2  0  0  0  0
 33 35  1  0  0  0  0
 35 38  1  0  0  0  0
 36 35  1  0  0  0  0
 36 37  2  0  0  0  0
M  END
>  <minimizedAffinity>
-5.31051159

$$$$

 OpenBabel03272503513D

 38 40  0  0  1  0  0  0  0  0999 V2000
   35.6470   26.7190   31.5600 C   0  0  1  0  0  0  0  0  0  0  0  0
   36.7460   26.2900   32.5560 C   0  0  2  0  0  0  0  0  0  0  0  0
   37.8570   26.9290   32.1030 O   0  0  0  0  0  0  0  0  0  0  0  0
   37.4260   28.2270   31.8710 C   0  0  0  0  0  0  0  0  0  0  0  0
   36.0050   28.1690   31.3450 C   0  0  2  0  0  0  0  0  0  0  0  0
   34.6460   26.6360   32.0370 H   0  0  0  0  0  0  0  0  0  0  0  0
   36.3760   26.6380   33.5630 H   0  0  0  0  0  0  0  0  0  0  0  0
   38.0740   28.6610   31.0730 H   0  0  0  0  0  0  0  0  0  0  0  0
   37.4950   28.8310   32.7990 H   0  0  0  0  0  0  0  0  0  0  0  0
   35.9860   28.4020   30.2580 H   0  0  0  0  0  0  0  0  0  0  0  0
   35.6870   25.9350   30.4270 O   0  0  0  0  0  0  0  0  0  0  0  0
   36.2990   26.2880   29.7410 H   0  0  0  0  0  0  0  0  0  0  0  0
   36.7580   24.9210   32.4830 O   0  0  0  0  0  0  0  0  0  0  0  0
   37.8310   22.6960   33.4200 O   0  0  0  0  0  0  0  0  0  0  0  0
   38.0560   24.2020   33.2750 P   0  0  1  0  0  0  0  0  0  0  0  0
   39.4600   24.3430   32.3380 O   0  0  0  0  0  0  0  0  0  0  0  0
   39.6220   25.2910   32.0700 H   0  0  0  0  0  0  0  0  0  0  0  0
   38.2420   25.0030   34.7690 O   0  0  0  0  0  0  0  0  0  0  0  0
   38.5780   24.3220   35.9280 C   0  0  0  0  0  0  0  0  0  0  0  0
   39.7590   23.5680   36.1080 C   0  0  0  0  0  0  0  0  0  0  0  0
   39.9490   22.9430   37.3370 C   0  0  0  0  0  0  0  0  0  0  0  0
   38.9980   23.0860   38.2980 N   0  0  0  0  0  0  0  0  0  0  0  0
   37.8730   23.8140   38.1050 C   0  0  0  0  0  0  0  0  0  0  0  0
   37.6620   24.4380   36.9060 N   0  0  0  0  0  0  0  0  0  0  0  0
   40.4370   23.5320   35.2660 H   0  0  0  0  0  0  0  0  0  0  0  0
   40.8560   22.3690   37.4640 H   0  0  0  0  0  0  0  0  0  0  0  0
   37.1560   23.8860   38.9120 H   0  0  0  0  0  0  0  0  0  0  0  0
   35.1920   28.9830   32.0830 O   0  0  0  0  0  0  0  0  0  0  0  0
   35.7050   30.3540   36.2230 H   0  0  0  0  0  0  0  0  0  0  0  0
   35.7040   30.5850   35.2100 N   0  0  0  0  0  0  0  0  0  0  0  0
   35.4530   29.6740   34.2240 C   0  0  0  0  0  3  0  0  0  0  0  0
   35.4650   30.0420   32.8710 C   0  0  0  0  0  0  0  0  0  0  0  0
   35.7390   31.3490   32.6250 C   0  0  0  0  0  0  0  0  0  0  0  0
   35.7510   31.6810   31.4320 O   0  0  0  0  0  0  0  0  0  0  0  0
   35.9830   32.2230   33.6180 N   0  0  0  0  0  0  0  0  0  0  0  0
   35.9720   31.8730   34.9000 C   0  0  0  0  0  0  0  0  0  0  0  0
   36.2030   32.7130   35.8050 O   0  0  0  0  0  0  0  0  0  0  0  0
   36.1900   33.2210   33.3830 H   0  0  0  0  0  0  0  0  0  0  0  0
  1  6  1  1  0  0  0
  1  2  1  0  0  0  0
  2  7  1  1  0  0  0
  3  2  1  0  0  0  0
  4  3  1  0  0  0  0
  4  9  1  0  0  0  0
  5 10  1  6  0  0  0
  5  1  1  0  0  0  0
  5  4  1  0  0  0  0
  5 28  1  0  0  0  0
  8  4  1  0  0  0  0
 11  1  1  0  0  0  0
 12 11  1  0  0  0  0
 13  2  1  0  0  0  0
 13 15  1  0  0  0  0
 15 14  2  1  0  0  0
 15 18  1  0  0  0  0
 16 15  1  0  0  0  0
 17 16  1  0  0  0  0
 18 19  1  0  0  0  0
 19 20  2  0  0  0  0
 19 24  1  0  0  0  0
 20 21  1  0  0  0  0
 21 26  1  0  0  0  0
 21 22  2  0  0  0  0
 23 22  1  0  0  0  0
 23 27  1  0  0  0  0
 24 23  2  0  0  0  0
 25 20  1  0  0  0  0
 28 32  1  0  0  0  0
 30 29  1  0  0  0  0
 31 30  1  0  0  0  0
 32 31  2  0  0  0  0
 33 32  1  0  0  0  0
 33 35  1  0  0  0  0
 34 33  2  0  0  0  0
 35 36  1  0  0  0  0
 36 30  1  0  0  0  0
 36 37  2  0  0  0  0
 38 35  1  0  0  0  0
M  END
>  <minimizedAffinity>
-5.18002605

$$$$
