
 OpenBabel03272506413D

 20 21  0  0  0  0  0  0  0  0999 V2000
   34.0150   28.5240   49.1870 S   0  0  0  0  0  0  0  0  0  0  0  0
   33.7730   24.6940   46.3390 H   0  0  0  0  0  0  0  0  0  0  0  0
   33.5900   25.7160   46.4530 N   0  0  0  0  0  0  0  0  0  0  0  0
   33.8600   26.4350   47.5750 C   0  0  0  0  0  3  0  0  0  0  0  0
   33.5730   27.7930   47.6170 C   0  0  0  0  0  0  0  0  0  0  0  0
   33.0110   28.4180   46.5200 C   0  0  0  0  0  0  0  0  0  0  0  0
   32.8010   29.6520   46.6900 O   0  0  0  0  0  0  0  0  0  0  0  0
   32.7530   27.6810   45.4220 N   0  0  0  0  0  0  0  0  0  0  0  0
   33.0360   26.3800   45.4010 C   0  0  0  0  0  0  0  0  0  0  0  0
   32.7810   25.7160   44.3500 O   0  0  0  0  0  0  0  0  0  0  0  0
   32.3300   28.2060   44.6280 H   0  0  0  0  0  0  0  0  0  0  0  0
   37.6950   29.7690   50.0040 C   0  0  0  0  0  0  0  0  0  0  0  0
   37.9710   30.7250   49.0290 C   0  0  0  0  0  0  0  0  0  0  0  0
   36.9870   31.0050   48.0740 C   0  0  0  0  0  0  0  0  0  0  0  0
   35.7950   30.3250   48.1450 N   0  0  0  0  0  0  0  0  0  0  0  0
   35.5680   29.4010   49.1100 C   0  0  0  0  0  0  0  0  0  0  0  0
   36.5110   29.1260   50.0330 N   0  0  0  0  0  0  0  0  0  0  0  0
   38.4750   29.5710   50.7300 H   0  0  0  0  0  0  0  0  0  0  0  0
   38.8950   31.2670   48.9590 H   0  0  0  0  0  0  0  0  0  0  0  0
   37.0960   31.7390   47.2630 H   0  0  0  0  0  0  0  0  0  0  0  0
  2  3  1  0  0  0  0
  3  4  1  0  0  0  0
  4  5  2  0  0  0  0
  5  1  1  0  0  0  0
  6  7  2  0  0  0  0
  6  5  1  0  0  0  0
  8  6  1  0  0  0  0
  9  8  1  0  0  0  0
  9  3  1  0  0  0  0
 10  9  2  0  0  0  0
 11  8  1  0  0  0  0
 12 17  1  0  0  0  0
 12 18  1  0  0  0  0
 13 12  2  0  0  0  0
 14 15  2  0  0  0  0
 14 13  1  0  0  0  0
 15 16  1  0  0  0  0
 16  1  1  0  0  0  0
 16 17  2  0  0  0  0
 19 13  1  0  0  0  0
 20 14  1  0  0  0  0
M  END
>  <minimizedAffinity>
-3.39620876

>  <minimizedRMSD>
3.36033034

$$$$
