
 OpenBabel03272508283D

 39 42  0  0  1  0  0  0  0  0999 V2000
   33.7710   28.9060   47.2490 C   0  0  2  0  0  0  0  0  0  0  0  0
   34.5240   28.1150   48.3110 C   0  0  2  0  0  0  0  0  0  0  0  0
   33.6300   27.9300   49.3310 O   0  0  0  0  0  0  0  0  0  0  0  0
   32.3460   28.0120   48.8740 C   0  0  0  0  0  0  0  0  0  0  0  0
   32.3950   28.2380   47.3750 C   0  0  1  0  0  0  0  0  0  0  0  0
   33.6220   29.9600   47.5130 H   0  0  0  0  0  0  0  0  0  0  0  0
   34.8130   27.1670   47.8170 H   0  0  0  0  0  0  0  0  0  0  0  0
   31.8520   28.8600   49.4020 H   0  0  0  0  0  0  0  0  0  0  0  0
   31.8480   27.0430   49.1150 H   0  0  0  0  0  0  0  0  0  0  0  0
   32.4710   27.2530   46.8990 H   0  0  0  0  0  0  0  0  0  0  0  0
   35.5980   30.3630   49.0150 C   0  0  1  0  0  0  0  0  0  0  0  0
   35.6880   28.9480   48.7400 C   0  0  1  0  0  0  0  0  0  0  0  0
   35.8680   29.3720   50.1610 C   0  0  0  0  0  0  0  0  0  0  0  0
   34.6960   30.9660   49.2130 H   0  0  0  0  0  0  0  0  0  0  0  0
   36.6480   28.6170   48.2460 H   0  0  0  0  0  0  0  0  0  0  0  0
   36.8660   29.3570   50.6270 H   0  0  0  0  0  0  0  0  0  0  0  0
   35.0200   29.1480   50.8350 H   0  0  0  0  0  0  0  0  0  0  0  0
   36.7910   31.2790   48.7710 C   0  0  0  0  0  0  0  0  0  0  0  0
   37.0340   32.2690   49.7270 C   0  0  0  0  0  0  0  0  0  0  0  0
   38.1160   33.0910   49.4470 C   0  0  0  0  0  0  0  0  0  0  0  0
   38.8660   32.9200   48.3150 N   0  0  0  0  0  0  0  0  0  0  0  0
   38.5860   31.9410   47.4170 C   0  0  0  0  0  0  0  0  0  0  0  0
   37.5370   31.1110   47.6480 N   0  0  0  0  0  0  0  0  0  0  0  0
   36.4130   32.3510   50.5900 H   0  0  0  0  0  0  0  0  0  0  0  0
   38.3500   33.8750   50.1560 H   0  0  0  0  0  0  0  0  0  0  0  0
   39.2070   31.8530   46.5470 H   0  0  0  0  0  0  0  0  0  0  0  0
   34.2810   28.7700   45.9800 O   0  0  0  0  0  0  0  0  0  0  0  0
   34.8930   28.0040   45.8490 H   0  0  0  0  0  0  0  0  0  0  0  0
   31.3930   29.0240   46.8980 O   0  0  0  0  0  0  0  0  0  0  0  0
   29.1240   27.1710   43.4640 H   0  0  0  0  0  0  0  0  0  0  0  0
   29.0390   27.5530   44.4500 N   0  0  0  0  0  0  0  0  0  0  0  0
   30.2340   27.9760   44.8930 C   0  0  0  0  0  3  0  0  0  0  0  0
   30.3450   28.5100   46.1580 C   0  0  0  0  0  0  0  0  0  0  0  0
   29.1780   28.5850   46.9320 C   0  0  0  0  0  0  0  0  0  0  0  0
   29.0430   29.0300   48.1020 O   0  0  0  0  0  0  0  0  0  0  0  0
   27.9860   28.1420   46.4380 N   0  0  0  0  0  0  0  0  0  0  0  0
   27.9230   27.6280   45.1970 C   0  0  0  0  0  0  0  0  0  0  0  0
   26.8880   27.1870   44.6310 O   0  0  0  0  0  0  0  0  0  0  0  0
   27.0790   28.1630   46.9450 H   0  0  0  0  0  0  0  0  0  0  0  0
  1  5  1  0  0  0  0
  1  6  1  1  0  0  0
  1  2  1  0  0  0  0
  2  7  1  6  0  0  0
  2 12  1  0  0  0  0
  2  3  1  0  0  0  0
  4  9  1  0  0  0  0
  4  3  1  0  0  0  0
  4  8  1  0  0  0  0
  5 10  1  6  0  0  0
  5  4  1  0  0  0  0
 11 14  1  6  0  0  0
 11 13  1  0  0  0  0
 12 15  1  6  0  0  0
 12 11  1  0  0  0  0
 12 13  1  0  0  0  0
 13 16  1  0  0  0  0
 13 17  1  0  0  0  0
 18 11  1  0  0  0  0
 18 19  1  0  0  0  0
 19 24  1  0  0  0  0
 20 19  2  0  0  0  0
 20 25  1  0  0  0  0
 21 20  1  0  0  0  0
 22 23  1  0  0  0  0
 22 21  2  0  0  0  0
 23 18  2  0  0  0  0
 26 22  1  0  0  0  0
 27  1  1  0  0  0  0
 28 27  1  0  0  0  0
 29  5  1  0  0  0  0
 30 31  1  0  0  0  0
 31 32  1  0  0  0  0
 31 37  1  0  0  0  0
 32 33  2  0  0  0  0
 33 29  1  0  0  0  0
 33 34  1  0  0  0  0
 34 35  2  0  0  0  0
 36 34  1  0  0  0  0
 36 39  1  0  0  0  0
 37 36  1  0  0  0  0
 38 37  2  0  0  0  0
M  END
>  <minimizedAffinity>
-5.35984707

>  <minimizedRMSD>
0.765966892

$$$$
