
 OpenBabel03272508283D

 39 42  0  0  1  0  0  0  0  0999 V2000
   33.8880   28.9010   47.2680 C   0  0  2  0  0  0  0  0  0  0  0  0
   34.5800   28.1600   48.4050 C   0  0  2  0  0  0  0  0  0  0  0  0
   33.6540   28.0910   49.4120 O   0  0  0  0  0  0  0  0  0  0  0  0
   32.3860   28.1940   48.9150 C   0  0  0  0  0  0  0  0  0  0  0  0
   32.4810   28.3040   47.4050 C   0  0  1  0  0  0  0  0  0  0  0  0
   33.7800   29.9770   47.4490 H   0  0  0  0  0  0  0  0  0  0  0  0
   34.8370   27.1660   47.9910 H   0  0  0  0  0  0  0  0  0  0  0  0
   31.9180   29.0990   49.3660 H   0  0  0  0  0  0  0  0  0  0  0  0
   31.8390   27.2680   49.2130 H   0  0  0  0  0  0  0  0  0  0  0  0
   32.5240   27.2840   47.0060 H   0  0  0  0  0  0  0  0  0  0  0  0
   35.7030   30.3780   49.1270 C   0  0  1  0  0  0  0  0  0  0  0  0
   35.7690   28.9720   48.8030 C   0  0  1  0  0  0  0  0  0  0  0  0
   36.0220   29.3490   50.2260 C   0  0  0  0  0  0  0  0  0  0  0  0
   34.8170   30.9790   49.3890 H   0  0  0  0  0  0  0  0  0  0  0  0
   36.7010   28.6520   48.2520 H   0  0  0  0  0  0  0  0  0  0  0  0
   37.0420   29.3130   50.6420 H   0  0  0  0  0  0  0  0  0  0  0  0
   35.2060   29.1070   50.9340 H   0  0  0  0  0  0  0  0  0  0  0  0
   36.8890   31.2950   48.8550 C   0  0  0  0  0  0  0  0  0  0  0  0
   37.0700   32.3710   49.7280 C   0  0  0  0  0  0  0  0  0  0  0  0
   38.1500   33.1880   49.4230 C   0  0  0  0  0  0  0  0  0  0  0  0
   38.9520   32.9340   48.3440 N   0  0  0  0  0  0  0  0  0  0  0  0
   38.7320   31.8740   47.5260 C   0  0  0  0  0  0  0  0  0  0  0  0
   37.6870   31.0440   47.7840 N   0  0  0  0  0  0  0  0  0  0  0  0
   36.4100   32.5150   50.5520 H   0  0  0  0  0  0  0  0  0  0  0  0
   38.3370   34.0370   50.0680 H   0  0  0  0  0  0  0  0  0  0  0  0
   39.3930   31.7230   46.6950 H   0  0  0  0  0  0  0  0  0  0  0  0
   34.4220   28.6480   46.0270 O   0  0  0  0  0  0  0  0  0  0  0  0
   35.0020   27.8480   45.9690 H   0  0  0  0  0  0  0  0  0  0  0  0
   31.5270   29.0940   46.8440 O   0  0  0  0  0  0  0  0  0  0  0  0
   27.7500   26.7170   47.5150 H   0  0  0  0  0  0  0  0  0  0  0  0
   28.1650   27.5570   47.0200 N   0  0  0  0  0  0  0  0  0  0  0  0
   29.4730   27.6700   47.3050 C   0  0  0  0  0  3  0  0  0  0  0  0
   30.2050   28.7020   46.7590 C   0  0  0  0  0  0  0  0  0  0  0  0
   29.5300   29.5990   45.9190 C   0  0  0  0  0  0  0  0  0  0  0  0
   29.9910   30.6040   45.3170 O   0  0  0  0  0  0  0  0  0  0  0  0
   28.2000   29.4430   45.6610 N   0  0  0  0  0  0  0  0  0  0  0  0
   27.5230   28.4200   46.2140 C   0  0  0  0  0  0  0  0  0  0  0  0
   26.3000   28.1710   46.0530 O   0  0  0  0  0  0  0  0  0  0  0  0
   27.6280   30.0610   45.0510 H   0  0  0  0  0  0  0  0  0  0  0  0
  1  5  1  0  0  0  0
  1  6  1  1  0  0  0
  1  2  1  0  0  0  0
  2  7  1  6  0  0  0
  2 12  1  0  0  0  0
  2  3  1  0  0  0  0
  4  9  1  0  0  0  0
  4  8  1  0  0  0  0
  4  3  1  0  0  0  0
  5 10  1  6  0  0  0
  5  4  1  0  0  0  0
 11 14  1  1  0  0  0
 11 13  1  0  0  0  0
 12 15  1  6  0  0  0
 12 11  1  0  0  0  0
 12 13  1  0  0  0  0
 13 16  1  0  0  0  0
 13 17  1  0  0  0  0
 18 11  1  0  0  0  0
 18 19  1  0  0  0  0
 19 24  1  0  0  0  0
 20 19  2  0  0  0  0
 20 25  1  0  0  0  0
 21 20  1  0  0  0  0
 22 23  1  0  0  0  0
 22 21  2  0  0  0  0
 23 18  2  0  0  0  0
 26 22  1  0  0  0  0
 27  1  1  0  0  0  0
 28 27  1  0  0  0  0
 29  5  1  0  0  0  0
 31 32  1  0  0  0  0
 31 30  1  0  0  0  0
 33 29  1  0  0  0  0
 33 32  2  0  0  0  0
 34 33  1  0  0  0  0
 35 34  2  0  0  0  0
 36 34  1  0  0  0  0
 36 37  1  0  0  0  0
 37 31  1  0  0  0  0
 38 37  2  0  0  0  0
 39 36  1  0  0  0  0
M  END
>  <minimizedAffinity>
-5.56834316

>  <minimizedRMSD>
1.19901073

$$$$
