
 OpenBabel03272504423D

 46 48  0  0  0  0  0  0  0  0999 V2000
   34.2920   29.3550   48.8800 C   0  0  0  0  0  0  0  0  0  0  0  0
   35.1340   29.4310   49.6110 H   0  0  0  0  0  0  0  0  0  0  0  0
   33.5990   30.1830   49.2130 H   0  0  0  0  0  0  0  0  0  0  0  0
   37.0560   30.4500   48.8020 Cl  0  0  0  0  0  0  0  0  0  0  0  0
   36.0400   30.2320   47.3710 C   0  0  0  0  0  0  0  0  0  0  0  0
   36.5190   30.5770   46.1570 C   0  0  0  0  0  0  0  0  0  0  0  0
   35.7340   30.4100   45.0380 C   0  0  0  0  0  0  0  0  0  0  0  0
   34.4580   29.8860   45.1880 C   0  0  0  0  0  0  0  0  0  0  0  0
   34.0250   29.5500   46.4840 C   0  0  0  0  0  0  0  0  0  0  0  0
   34.7810   29.7080   47.5820 C   0  0  0  0  0  0  0  0  0  0  0  0
   36.1440   30.6970   44.0600 H   0  0  0  0  0  0  0  0  0  0  0  0
   33.9270   29.7970   44.2520 H   0  0  0  0  0  0  0  0  0  0  0  0
   33.0650   29.1880   46.3790 H   0  0  0  0  0  0  0  0  0  0  0  0
   39.5110   32.7010   46.5550 C   0  0  0  0  0  0  0  0  0  0  0  0
   40.4090   32.0650   45.6350 C   0  0  0  0  0  0  0  0  0  0  0  0
   39.9490   30.9380   44.9220 C   0  0  0  0  0  0  0  0  0  0  0  0
   38.6790   30.5040   45.1350 N   0  0  0  0  0  0  0  0  0  0  0  0
   37.8570   31.1280   46.0100 C   0  0  0  0  0  0  0  0  0  0  0  0
   38.2770   32.2030   46.6990 N   0  0  0  0  0  0  0  0  0  0  0  0
   39.9040   33.5550   47.0750 H   0  0  0  0  0  0  0  0  0  0  0  0
   41.4080   32.4500   45.5030 H   0  0  0  0  0  0  0  0  0  0  0  0
   40.8550   30.3440   44.0340 N   0  0  0  0  0  0  0  0  0  0  0  0
   41.8020   29.9930   44.2660 H   0  0  0  0  0  0  0  0  0  0  0  0
   40.3810   30.3330   43.1010 H   0  0  0  0  0  0  0  0  0  0  0  0
   33.6280   28.0730   49.0980 C   0  0  0  0  0  0  0  0  0  0  0  0
   34.0550   27.4710   49.9500 H   0  0  0  0  0  0  0  0  0  0  0  0
   33.7760   27.4180   48.1980 H   0  0  0  0  0  0  0  0  0  0  0  0
   32.2900   28.2260   49.3440 O   0  0  0  0  0  0  0  0  0  0  0  0
   32.2370   26.3610   47.4960 O   0  0  0  0  0  0  0  0  0  0  0  0
   31.3850   27.3400   48.2640 P   0  0  2  0  0  0  0  0  0  0  0  0
   30.6910   28.4890   47.1680 O   0  0  0  0  0  0  0  0  0  0  0  0
   26.5010   29.8120   46.7830 H   0  0  0  0  0  0  0  0  0  0  0  0
   27.2540   29.1530   46.4640 N   0  0  0  0  0  0  0  0  0  0  0  0
   28.5100   29.2050   46.9910 C   0  0  0  0  0  3  0  0  0  0  0  0
   29.4860   28.3090   46.5400 C   0  0  0  0  0  0  0  0  0  0  0  0
   29.1200   27.4150   45.5760 C   0  0  0  0  0  0  0  0  0  0  0  0
   30.0420   26.6410   45.2160 O   0  0  0  0  0  0  0  0  0  0  0  0
   27.8850   27.3670   45.0590 N   0  0  0  0  0  0  0  0  0  0  0  0
   26.9480   28.2410   45.5070 C   0  0  0  0  0  0  0  0  0  0  0  0
   25.8010   28.1660   44.9980 O   0  0  0  0  0  0  0  0  0  0  0  0
   27.6570   26.6620   44.3220 H   0  0  0  0  0  0  0  0  0  0  0  0
   30.1110   26.5480   48.9600 O   0  0  0  0  0  0  0  0  0  0  0  0
   29.5470   27.3050   49.9620 C   0  0  0  0  0  0  0  0  0  0  0  0
   29.4300   26.6010   51.1590 F   0  0  0  0  0  0  0  0  0  0  0  0
   30.3150   28.4110   50.2600 F   0  0  0  0  0  0  0  0  0  0  0  0
   28.2740   27.7150   49.5760 F   0  0  0  0  0  0  0  0  0  0  0  0
  1 25  1  0  0  0  0
  1  3  1  0  0  0  0
  1  2  1  0  0  0  0
  5 10  1  0  0  0  0
  5  4  1  0  0  0  0
  6  5  2  0  0  0  0
  7  8  2  0  0  0  0
  7  6  1  0  0  0  0
  8  9  1  0  0  0  0
  9 10  2  0  0  0  0
 10  1  1  0  0  0  0
 11  7  1  0  0  0  0
 12  8  1  0  0  0  0
 13  9  1  0  0  0  0
 14 19  1  0  0  0  0
 14 20  1  0  0  0  0
 15 14  2  0  0  0  0
 16 17  2  0  0  0  0
 16 15  1  0  0  0  0
 17 18  1  0  0  0  0
 18  6  1  0  0  0  0
 18 19  2  0  0  0  0
 21 15  1  0  0  0  0
 22 23  1  0  0  0  0
 22 16  1  0  0  0  0
 24 22  1  0  0  0  0
 25 28  1  0  0  0  0
 25 26  1  0  0  0  0
 27 25  1  0  0  0  0
 30 29  2  6  0  0  0
 30 42  1  0  0  0  0
 30 28  1  0  0  0  0
 31 30  1  0  0  0  0
 33 32  1  0  0  0  0
 33 34  1  0  0  0  0
 35 34  2  0  0  0  0
 35 31  1  0  0  0  0
 36 35  1  0  0  0  0
 37 36  2  0  0  0  0
 38 39  1  0  0  0  0
 38 36  1  0  0  0  0
 39 33  1  0  0  0  0
 40 39  2  0  0  0  0
 41 38  1  0  0  0  0
 42 43  1  0  0  0  0
 43 45  1  0  0  0  0
 43 44  1  0  0  0  0
 46 43  1  0  0  0  0
M  END
>  <minimizedAffinity>
-6.12475634

>  <minimizedRMSD>
0.755182683

$$$$
