
 OpenBabel03262521353D

 38 41  0  0  1  0  0  0  0  0999 V2000
   38.3920   31.5410   45.3730 C   0  0  1  0  0  0  0  0  0  0  0  0
   38.8290   32.4720   46.4300 C   0  0  2  0  0  0  0  0  0  0  0  0
   40.2860   32.7880   46.0500 C   0  0  0  0  0  0  0  0  0  0  0  0
   40.7330   31.5610   45.6600 O   0  0  0  0  0  0  0  0  0  0  0  0
   39.7410   30.8850   45.0040 C   0  0  0  0  0  0  0  0  0  0  0  0
   38.0200   32.1020   44.5210 H   0  0  0  0  0  0  0  0  0  0  0  0
   38.3070   33.4520   46.3020 H   0  0  0  0  0  0  0  0  0  0  0  0
   40.3320   33.5810   45.2920 H   0  0  0  0  0  0  0  0  0  0  0  0
   40.7690   33.0610   47.0000 H   0  0  0  0  0  0  0  0  0  0  0  0
   39.8700   31.0000   43.9170 H   0  0  0  0  0  0  0  0  0  0  0  0
   39.7060   29.8000   45.2410 H   0  0  0  0  0  0  0  0  0  0  0  0
   37.6010   32.4150   48.7220 C   0  0  1  0  0  0  0  0  0  0  0  0
   38.8510   33.1130   48.8700 C   0  0  0  0  0  0  0  0  0  0  0  0
   38.7710   31.9640   47.8450 C   0  0  2  0  0  0  0  0  0  0  0  0
   36.7600   32.9140   48.1630 H   0  0  0  0  0  0  0  0  0  0  0  0
   39.4540   32.8720   49.7900 H   0  0  0  0  0  0  0  0  0  0  0  0
   39.0330   34.1310   48.5300 H   0  0  0  0  0  0  0  0  0  0  0  0
   39.2690   31.0210   48.0590 H   0  0  0  0  0  0  0  0  0  0  0  0
   35.5140   29.8270   50.4370 C   0  0  0  0  0  0  0  0  0  0  0  0
   35.8990   30.8070   49.5400 C   0  0  0  0  0  0  0  0  0  0  0  0
   37.1570   31.3670   49.6590 C   0  0  0  0  0  0  0  0  0  0  0  0
   37.9650   30.9130   50.6800 N   0  0  0  0  0  0  0  0  0  0  0  0
   37.5740   29.9550   51.5520 C   0  0  0  0  0  0  0  0  0  0  0  0
   36.3260   29.3970   51.4320 N   0  0  0  0  0  0  0  0  0  0  0  0
   34.5170   29.4150   50.3020 H   0  0  0  0  0  0  0  0  0  0  0  0
   35.3210   31.2090   48.7530 H   0  0  0  0  0  0  0  0  0  0  0  0
   38.2490   29.6360   52.3350 H   0  0  0  0  0  0  0  0  0  0  0  0
   37.5190   30.5520   45.7720 O   0  0  0  0  0  0  0  0  0  0  0  0
   33.2760   29.6080   46.8980 H   0  0  0  0  0  0  0  0  0  0  0  0
   33.9440   29.8650   46.1550 N   0  0  0  0  0  0  0  0  0  0  0  0
   35.2500   30.0500   46.3520 C   0  0  0  0  0  0  0  0  0  0  0  0
   36.2150   30.3980   45.3970 C   0  0  0  0  0  0  0  0  0  0  0  0
   35.6150   30.5290   44.1690 C   0  0  0  0  0  0  0  0  0  0  0  0
   36.2640   30.8320   43.1640 O   0  0  0  0  0  0  0  0  0  0  0  0
   34.3090   30.3510   43.9340 N   0  0  0  0  0  0  0  0  0  0  0  0
   33.4600   30.0190   44.9130 C   0  0  0  0  0  0  0  0  0  0  0  0
   32.2400   29.8520   44.6940 O   0  0  0  0  0  0  0  0  0  0  0  0
   33.8820   30.4580   42.9890 H   0  0  0  0  0  0  0  0  0  0  0  0
  1  6  1  6  0  0  0
  1 28  1  0  0  0  0
  1  2  1  0  0  0  0
  2  7  1  6  0  0  0
  2 14  1  0  0  0  0
  3  2  1  0  0  0  0
  3  9  1  0  0  0  0
  4  3  1  0  0  0  0
  5 11  1  0  0  0  0
  5  1  1  0  0  0  0
  5  4  1  0  0  0  0
  8  3  1  0  0  0  0
 10  5  1  0  0  0  0
 12 15  1  6  0  0  0
 12 13  1  0  0  0  0
 12 21  1  0  0  0  0
 13 16  1  0  0  0  0
 14 18  1  1  0  0  0
 14 12  1  0  0  0  0
 14 13  1  0  0  0  0
 17 13  1  0  0  0  0
 19 24  1  0  0  0  0
 20 21  1  0  0  0  0
 20 19  2  0  0  0  0
 21 22  2  0  0  0  0
 22 23  1  0  0  0  0
 23 27  1  0  0  0  0
 24 23  2  0  0  0  0
 25 19  1  0  0  0  0
 26 20  1  0  0  0  0
 30 31  1  0  0  0  0
 30 29  1  0  0  0  0
 32 28  1  0  0  0  0
 32 31  2  0  0  0  0
 33 32  1  0  0  0  0
 34 33  2  0  0  0  0
 35 33  1  0  0  0  0
 35 36  1  0  0  0  0
 36 30  1  0  0  0  0
 37 36  2  0  0  0  0
 38 35  1  0  0  0  0
M  END
>  <minimizedAffinity>
-5.67077017

>  <minimizedRMSD>
1.1277318

$$$$
