
 OpenBabel03272506443D

 33 35  0  0  1  0  0  0  0  0999 V2000
   32.2640   28.1960   47.5270 C   0  0  2  0  0  0  0  0  0  0  0  0
   33.5450   28.1230   48.3420 C   0  0  1  0  0  0  0  0  0  0  0  0
   34.0960   26.8910   48.1540 O   0  0  0  0  0  0  0  0  0  0  0  0
   33.4180   26.2410   47.1480 C   0  0  0  0  0  0  0  0  0  0  0  0
   32.6790   27.3270   46.3470 C   0  0  1  0  0  0  0  0  0  0  0  0
   31.4440   27.7230   48.0850 H   0  0  0  0  0  0  0  0  0  0  0  0
   33.3360   28.3920   49.3870 H   0  0  0  0  0  0  0  0  0  0  0  0
   34.0780   25.6310   46.5170 H   0  0  0  0  0  0  0  0  0  0  0  0
   32.6140   25.6380   47.6350 H   0  0  0  0  0  0  0  0  0  0  0  0
   33.4450   27.8440   45.7730 H   0  0  0  0  0  0  0  0  0  0  0  0
   31.9860   29.5050   47.1430 O   0  0  0  0  0  0  0  0  0  0  0  0
   32.6360   29.7550   46.4390 H   0  0  0  0  0  0  0  0  0  0  0  0
   34.6820   29.3720   47.6270 S   0  0  0  0  0  0  0  0  0  0  0  0
   37.2360   29.2500   50.6580 C   0  0  0  0  0  0  0  0  0  0  0  0
   37.6460   30.5740   50.8350 C   0  0  0  0  0  0  0  0  0  0  0  0
   37.1040   31.5520   49.9720 C   0  0  0  0  0  0  0  0  0  0  0  0
   36.2230   31.1510   49.0290 N   0  0  0  0  0  0  0  0  0  0  0  0
   35.8480   29.8630   48.8850 C   0  0  0  0  0  0  0  0  0  0  0  0
   36.3470   28.9150   49.6900 N   0  0  0  0  0  0  0  0  0  0  0  0
   37.6210   28.4640   51.2930 H   0  0  0  0  0  0  0  0  0  0  0  0
   38.3440   30.8360   51.5940 H   0  0  0  0  0  0  0  0  0  0  0  0
   37.3940   32.5910   50.0720 H   0  0  0  0  0  0  0  0  0  0  0  0
   31.6150   26.7740   45.6830 O   0  0  0  0  0  0  0  0  0  0  0  0
   31.5010   27.5030   41.2260 H   0  0  0  0  0  0  0  0  0  0  0  0
   31.0660   27.6630   42.1490 N   0  0  0  0  0  0  0  0  0  0  0  0
   31.6940   27.0860   43.1830 C   0  0  0  0  0  3  0  0  0  0  0  0
   31.1840   27.2460   44.4520 C   0  0  0  0  0  0  0  0  0  0  0  0
   30.0260   28.0080   44.6280 C   0  0  0  0  0  0  0  0  0  0  0  0
   29.4200   28.2620   45.7050 O   0  0  0  0  0  0  0  0  0  0  0  0
   29.4000   28.5880   43.5640 N   0  0  0  0  0  0  0  0  0  0  0  0
   29.9390   28.4040   42.3230 C   0  0  0  0  0  0  0  0  0  0  0  0
   29.4200   28.9060   41.2960 O   0  0  0  0  0  0  0  0  0  0  0  0
   28.5490   29.1600   43.6060 H   0  0  0  0  0  0  0  0  0  0  0  0
  1  6  1  1  0  0  0
  1  2  1  0  0  0  0
  2  7  1  1  0  0  0
  3  2  1  0  0  0  0
  4  9  1  0  0  0  0
  4  3  1  0  0  0  0
  5 10  1  6  0  0  0
  5  4  1  0  0  0  0
  5  1  1  0  0  0  0
  8  4  1  0  0  0  0
 11  1  1  0  0  0  0
 12 11  1  0  0  0  0
 13  2  1  0  0  0  0
 13 18  1  0  0  0  0
 14 15  1  0  0  0  0
 14 20  1  0  0  0  0
 15 21  1  0  0  0  0
 16 22  1  0  0  0  0
 16 15  2  0  0  0  0
 17 16  1  0  0  0  0
 18 17  2  0  0  0  0
 18 19  1  0  0  0  0
 19 14  2  0  0  0  0
 23  5  1  0  0  0  0
 24 25  1  0  0  0  0
 25 31  1  0  0  0  0
 25 26  1  0  0  0  0
 26 27  2  0  0  0  0
 27 28  1  0  0  0  0
 27 23  1  0  0  0  0
 28 29  2  0  0  0  0
 30 33  1  0  0  0  0
 30 28  1  0  0  0  0
 31 30  1  0  0  0  0
 32 31  2  0  0  0  0
M  END
>  <minimizedAffinity>
-3.85286927

>  <minimizedRMSD>
1.84344888

$$$$
