
 OpenBabel03272503473D

 25 26  0  0  0  0  0  0  0  0999 V2000
   35.3780   30.0600   46.3950 O   0  0  0  0  0  0  0  0  0  0  0  0
   34.1110   29.9740   47.2150 P   0  0  2  0  0  0  0  0  0  0  0  0
   33.0260   31.1100   46.5750 O   0  0  0  0  0  0  0  0  0  0  0  0
   33.2140   32.0150   46.9050 H   0  0  0  0  0  0  0  0  0  0  0  0
   34.3950   30.3590   48.8690 O   0  0  0  0  0  0  0  0  0  0  0  0
   35.6590   30.2920   49.4350 C   0  0  0  0  0  0  0  0  0  0  0  0
   36.2560   29.1600   50.0110 C   0  0  0  0  0  0  0  0  0  0  0  0
   37.5320   29.2600   50.5340 C   0  0  0  0  0  0  0  0  0  0  0  0
   38.1640   30.4770   50.4650 N   0  0  0  0  0  0  0  0  0  0  0  0
   37.5650   31.5520   49.9040 C   0  0  0  0  0  0  0  0  0  0  0  0
   36.3120   31.4690   49.3860 N   0  0  0  0  0  0  0  0  0  0  0  0
   35.6290   28.2650   49.9910 H   0  0  0  0  0  0  0  0  0  0  0  0
   37.9490   28.3760   50.9630 H   0  0  0  0  0  0  0  0  0  0  0  0
   38.1420   32.4750   49.8940 H   0  0  0  0  0  0  0  0  0  0  0  0
   33.4580   28.4140   47.2010 O   0  0  0  0  0  0  0  0  0  0  0  0
   30.4100   27.6050   50.4410 H   0  0  0  0  0  0  0  0  0  0  0  0
   30.5910   27.8010   49.4350 N   0  0  0  0  0  0  0  0  0  0  0  0
   31.8860   27.9550   49.1020 C   0  0  0  0  0  0  0  0  0  0  0  0
   32.2120   28.2180   47.7870 C   0  0  0  0  0  0  0  0  0  0  0  0
   31.1950   28.3160   46.8470 C   0  0  0  0  0  0  0  0  0  0  0  0
   31.3150   28.5510   45.6080 O   0  0  0  0  0  0  0  0  0  0  0  0
   29.8960   28.1610   47.1920 N   0  0  0  0  0  0  0  0  0  0  0  0
   29.6240   27.9020   48.5050 C   0  0  0  0  0  0  0  0  0  0  0  0
   28.4470   27.7380   48.9380 O   0  0  0  0  0  0  0  0  0  0  0  0
   29.0830   28.2210   46.5430 H   0  0  0  0  0  0  0  0  0  0  0  0
  2  1  2  6  0  0  0
  2  5  1  0  0  0  0
  3  4  1  0  0  0  0
  3  2  1  0  0  0  0
  5  6  1  0  0  0  0
  6  7  1  0  0  0  0
  7  8  2  0  0  0  0
  8 13  1  0  0  0  0
  9  8  1  0  0  0  0
 10  9  2  0  0  0  0
 11  6  2  0  0  0  0
 11 10  1  0  0  0  0
 12  7  1  0  0  0  0
 14 10  1  0  0  0  0
 15  2  1  0  0  0  0
 15 19  1  0  0  0  0
 17 16  1  0  0  0  0
 18 17  1  0  0  0  0
 19 18  2  0  0  0  0
 20 22  1  0  0  0  0
 20 19  1  0  0  0  0
 21 20  2  0  0  0  0
 22 23  1  0  0  0  0
 23 24  2  0  0  0  0
 23 17  1  0  0  0  0
 25 22  1  0  0  0  0
M  END
>  <minimizedAffinity>
-4.7316618

>  <minimizedRMSD>
2.96884513

$$$$
