
 OpenBabel03272508283D

 39 42  0  0  1  0  0  0  0  0999 V2000
   33.7700   28.9070   47.2490 C   0  0  2  0  0  0  0  0  0  0  0  0
   34.5240   28.1150   48.3100 C   0  0  2  0  0  0  0  0  0  0  0  0
   33.6300   27.9290   49.3310 O   0  0  0  0  0  0  0  0  0  0  0  0
   32.3460   28.0120   48.8730 C   0  0  0  0  0  0  0  0  0  0  0  0
   32.3950   28.2390   47.3740 C   0  0  1  0  0  0  0  0  0  0  0  0
   33.6210   29.9600   47.5130 H   0  0  0  0  0  0  0  0  0  0  0  0
   34.8130   27.1680   47.8160 H   0  0  0  0  0  0  0  0  0  0  0  0
   31.8510   28.8590   49.4020 H   0  0  0  0  0  0  0  0  0  0  0  0
   31.8480   27.0430   49.1130 H   0  0  0  0  0  0  0  0  0  0  0  0
   32.4710   27.2540   46.8970 H   0  0  0  0  0  0  0  0  0  0  0  0
   35.5980   30.3630   49.0130 C   0  0  1  0  0  0  0  0  0  0  0  0
   35.6870   28.9480   48.7400 C   0  0  1  0  0  0  0  0  0  0  0  0
   35.8660   29.3740   50.1610 C   0  0  0  0  0  0  0  0  0  0  0  0
   34.6960   30.9670   49.2100 H   0  0  0  0  0  0  0  0  0  0  0  0
   36.6480   28.6170   48.2470 H   0  0  0  0  0  0  0  0  0  0  0  0
   36.8630   29.3590   50.6280 H   0  0  0  0  0  0  0  0  0  0  0  0
   35.0170   29.1500   50.8340 H   0  0  0  0  0  0  0  0  0  0  0  0
   36.7910   31.2800   48.7710 C   0  0  0  0  0  0  0  0  0  0  0  0
   37.0340   32.2690   49.7270 C   0  0  0  0  0  0  0  0  0  0  0  0
   38.1170   33.0900   49.4480 C   0  0  0  0  0  0  0  0  0  0  0  0
   38.8660   32.9190   48.3150 N   0  0  0  0  0  0  0  0  0  0  0  0
   38.5870   31.9420   47.4170 C   0  0  0  0  0  0  0  0  0  0  0  0
   37.5360   31.1120   47.6470 N   0  0  0  0  0  0  0  0  0  0  0  0
   36.4140   32.3510   50.5900 H   0  0  0  0  0  0  0  0  0  0  0  0
   38.3510   33.8740   50.1570 H   0  0  0  0  0  0  0  0  0  0  0  0
   39.2070   31.8540   46.5470 H   0  0  0  0  0  0  0  0  0  0  0  0
   34.2810   28.7720   45.9800 O   0  0  0  0  0  0  0  0  0  0  0  0
   34.8930   28.0060   45.8480 H   0  0  0  0  0  0  0  0  0  0  0  0
   31.3930   29.0240   46.8970 O   0  0  0  0  0  0  0  0  0  0  0  0
   29.1220   27.1730   43.4640 H   0  0  0  0  0  0  0  0  0  0  0  0
   29.0380   27.5540   44.4490 N   0  0  0  0  0  0  0  0  0  0  0  0
   30.2340   27.9770   44.8920 C   0  0  0  0  0  3  0  0  0  0  0  0
   30.3440   28.5110   46.1580 C   0  0  0  0  0  0  0  0  0  0  0  0
   29.1780   28.5850   46.9330 C   0  0  0  0  0  0  0  0  0  0  0  0
   29.0420   29.0310   48.1030 O   0  0  0  0  0  0  0  0  0  0  0  0
   27.9860   28.1420   46.4380 N   0  0  0  0  0  0  0  0  0  0  0  0
   27.9230   27.6270   45.1970 C   0  0  0  0  0  0  0  0  0  0  0  0
   26.8880   27.1880   44.6310 O   0  0  0  0  0  0  0  0  0  0  0  0
   27.0790   28.1610   46.9460 H   0  0  0  0  0  0  0  0  0  0  0  0
  1  5  1  0  0  0  0
  1  6  1  1  0  0  0
  1  2  1  0  0  0  0
  2  7  1  6  0  0  0
  2 12  1  0  0  0  0
  2  3  1  0  0  0  0
  4  9  1  0  0  0  0
  4  3  1  0  0  0  0
  4  8  1  0  0  0  0
  5 10  1  6  0  0  0
  5  4  1  0  0  0  0
 11 14  1  6  0  0  0
 11 13  1  0  0  0  0
 12 15  1  6  0  0  0
 12 11  1  0  0  0  0
 12 13  1  0  0  0  0
 13 16  1  0  0  0  0
 13 17  1  0  0  0  0
 18 11  1  0  0  0  0
 18 19  1  0  0  0  0
 19 24  1  0  0  0  0
 20 19  2  0  0  0  0
 20 25  1  0  0  0  0
 21 20  1  0  0  0  0
 22 23  1  0  0  0  0
 22 21  2  0  0  0  0
 23 18  2  0  0  0  0
 26 22  1  0  0  0  0
 27  1  1  0  0  0  0
 28 27  1  0  0  0  0
 29  5  1  0  0  0  0
 30 31  1  0  0  0  0
 31 32  1  0  0  0  0
 31 37  1  0  0  0  0
 32 33  2  0  0  0  0
 33 29  1  0  0  0  0
 33 34  1  0  0  0  0
 34 35  2  0  0  0  0
 36 34  1  0  0  0  0
 36 39  1  0  0  0  0
 37 36  1  0  0  0  0
 38 37  2  0  0  0  0
M  END
>  <minimizedAffinity>
-5.36068964

>  <minimizedRMSD>
0.639210343

$$$$
