
 OpenBabel03272504423D

 46 48  0  0  0  0  0  0  0  0999 V2000
   34.4780   29.2670   48.8390 C   0  0  0  0  0  0  0  0  0  0  0  0
   35.3550   29.2640   49.5290 H   0  0  0  0  0  0  0  0  0  0  0  0
   33.8410   30.1040   49.2510 H   0  0  0  0  0  0  0  0  0  0  0  0
   37.2410   30.3550   48.7040 Cl  0  0  0  0  0  0  0  0  0  0  0  0
   36.1730   30.2010   47.3040 C   0  0  0  0  0  0  0  0  0  0  0  0
   36.6080   30.5940   46.0880 C   0  0  0  0  0  0  0  0  0  0  0  0
   35.7820   30.4780   44.9930 C   0  0  0  0  0  0  0  0  0  0  0  0
   34.5090   29.9530   45.1680 C   0  0  0  0  0  0  0  0  0  0  0  0
   34.1230   29.5630   46.4640 C   0  0  0  0  0  0  0  0  0  0  0  0
   34.9200   29.6720   47.5390 C   0  0  0  0  0  0  0  0  0  0  0  0
   36.1570   30.8040   44.0130 H   0  0  0  0  0  0  0  0  0  0  0  0
   33.9440   29.9040   44.2490 H   0  0  0  0  0  0  0  0  0  0  0  0
   33.1570   29.2100   46.3790 H   0  0  0  0  0  0  0  0  0  0  0  0
   39.5940   32.7410   46.4010 C   0  0  0  0  0  0  0  0  0  0  0  0
   40.4880   32.0830   45.4920 C   0  0  0  0  0  0  0  0  0  0  0  0
   40.0260   30.9350   44.8150 C   0  0  0  0  0  0  0  0  0  0  0  0
   38.7600   30.5020   45.0500 N   0  0  0  0  0  0  0  0  0  0  0  0
   37.9420   31.1470   45.9140 C   0  0  0  0  0  0  0  0  0  0  0  0
   38.3640   32.2420   46.5700 N   0  0  0  0  0  0  0  0  0  0  0  0
   39.9880   33.6110   46.8950 H   0  0  0  0  0  0  0  0  0  0  0  0
   41.4840   32.4680   45.3420 H   0  0  0  0  0  0  0  0  0  0  0  0
   40.9270   30.3210   43.9360 N   0  0  0  0  0  0  0  0  0  0  0  0
   41.8780   29.9790   44.1690 H   0  0  0  0  0  0  0  0  0  0  0  0
   40.4450   30.2820   43.0080 H   0  0  0  0  0  0  0  0  0  0  0  0
   33.7650   28.0050   49.0180 C   0  0  0  0  0  0  0  0  0  0  0  0
   34.1740   27.3580   49.8450 H   0  0  0  0  0  0  0  0  0  0  0  0
   33.8800   27.3770   48.0940 H   0  0  0  0  0  0  0  0  0  0  0  0
   32.4360   28.2010   49.2820 O   0  0  0  0  0  0  0  0  0  0  0  0
   32.3110   26.3650   47.4090 O   0  0  0  0  0  0  0  0  0  0  0  0
   31.4890   27.3280   48.2270 P   0  0  2  0  0  0  0  0  0  0  0  0
   30.7450   28.4910   47.1790 O   0  0  0  0  0  0  0  0  0  0  0  0
   28.9480   25.9430   44.0600 H   0  0  0  0  0  0  0  0  0  0  0  0
   28.8290   26.7530   44.7190 N   0  0  0  0  0  0  0  0  0  0  0  0
   29.8370   27.1410   45.5490 C   0  0  0  0  0  3  0  0  0  0  0  0
   29.6410   28.2260   46.4120 C   0  0  0  0  0  0  0  0  0  0  0  0
   28.4260   28.8470   46.3740 C   0  0  0  0  0  0  0  0  0  0  0  0
   28.3160   29.8110   47.1720 O   0  0  0  0  0  0  0  0  0  0  0  0
   27.4370   28.4620   45.5560 N   0  0  0  0  0  0  0  0  0  0  0  0
   27.6420   27.4090   44.7240 C   0  0  0  0  0  0  0  0  0  0  0  0
   26.6910   27.0770   43.9710 O   0  0  0  0  0  0  0  0  0  0  0  0
   26.5260   28.9730   45.5670 H   0  0  0  0  0  0  0  0  0  0  0  0
   30.2480   26.5210   48.9640 O   0  0  0  0  0  0  0  0  0  0  0  0
   29.6330   27.3150   49.9060 C   0  0  0  0  0  0  0  0  0  0  0  0
   29.3740   26.6300   51.0910 F   0  0  0  0  0  0  0  0  0  0  0  0
   30.4240   28.3850   50.2660 F   0  0  0  0  0  0  0  0  0  0  0  0
   28.4220   27.7820   49.4030 F   0  0  0  0  0  0  0  0  0  0  0  0
  1 25  1  0  0  0  0
  1  3  1  0  0  0  0
  1  2  1  0  0  0  0
  5 10  1  0  0  0  0
  5  4  1  0  0  0  0
  6  5  2  0  0  0  0
  7  8  2  0  0  0  0
  7  6  1  0  0  0  0
  8  9  1  0  0  0  0
  9 10  2  0  0  0  0
 10  1  1  0  0  0  0
 11  7  1  0  0  0  0
 12  8  1  0  0  0  0
 13  9  1  0  0  0  0
 14 19  1  0  0  0  0
 14 20  1  0  0  0  0
 15 14  2  0  0  0  0
 16 17  2  0  0  0  0
 16 15  1  0  0  0  0
 17 18  1  0  0  0  0
 18  6  1  0  0  0  0
 18 19  2  0  0  0  0
 21 15  1  0  0  0  0
 22 23  1  0  0  0  0
 22 16  1  0  0  0  0
 24 22  1  0  0  0  0
 25 28  1  0  0  0  0
 25 26  1  0  0  0  0
 27 25  1  0  0  0  0
 30 29  2  6  0  0  0
 30 42  1  0  0  0  0
 30 28  1  0  0  0  0
 31 30  1  0  0  0  0
 32 33  1  0  0  0  0
 33 39  1  0  0  0  0
 33 34  1  0  0  0  0
 34 35  2  0  0  0  0
 35 31  1  0  0  0  0
 36 35  1  0  0  0  0
 36 37  2  0  0  0  0
 38 41  1  0  0  0  0
 38 36  1  0  0  0  0
 39 38  1  0  0  0  0
 40 39  2  0  0  0  0
 42 43  1  0  0  0  0
 43 45  1  0  0  0  0
 43 44  1  0  0  0  0
 46 43  1  0  0  0  0
M  END
>  <minimizedAffinity>
-6.02859116

>  <minimizedRMSD>
0.548299432

$$$$
