
 OpenBabel03272504423D

 46 48  0  0  0  0  0  0  0  0999 V2000
   34.3430   29.2980   48.8510 C   0  0  0  0  0  0  0  0  0  0  0  0
   35.1960   29.3400   49.5700 H   0  0  0  0  0  0  0  0  0  0  0  0
   33.6710   30.1310   49.2150 H   0  0  0  0  0  0  0  0  0  0  0  0
   37.1050   30.3980   48.7680 Cl  0  0  0  0  0  0  0  0  0  0  0  0
   36.0770   30.2050   47.3420 C   0  0  0  0  0  0  0  0  0  0  0  0
   36.5440   30.5720   46.1300 C   0  0  0  0  0  0  0  0  0  0  0  0
   35.7500   30.4240   45.0160 C   0  0  0  0  0  0  0  0  0  0  0  0
   34.4750   29.8970   45.1670 C   0  0  0  0  0  0  0  0  0  0  0  0
   34.0540   29.5360   46.4610 C   0  0  0  0  0  0  0  0  0  0  0  0
   34.8200   29.6750   47.5550 C   0  0  0  0  0  0  0  0  0  0  0  0
   36.1500   30.7290   44.0400 H   0  0  0  0  0  0  0  0  0  0  0  0
   33.9360   29.8230   44.2350 H   0  0  0  0  0  0  0  0  0  0  0  0
   33.0930   29.1750   46.3580 H   0  0  0  0  0  0  0  0  0  0  0  0
   39.5290   32.7090   46.5200 C   0  0  0  0  0  0  0  0  0  0  0  0
   40.4290   32.0720   45.6020 C   0  0  0  0  0  0  0  0  0  0  0  0
   39.9730   30.9400   44.8950 C   0  0  0  0  0  0  0  0  0  0  0  0
   38.7050   30.5030   45.1090 N   0  0  0  0  0  0  0  0  0  0  0  0
   37.8800   31.1270   45.9810 C   0  0  0  0  0  0  0  0  0  0  0  0
   38.2970   32.2070   46.6660 N   0  0  0  0  0  0  0  0  0  0  0  0
   39.9180   33.5660   47.0370 H   0  0  0  0  0  0  0  0  0  0  0  0
   41.4270   32.4600   45.4700 H   0  0  0  0  0  0  0  0  0  0  0  0
   40.8810   30.3460   44.0100 N   0  0  0  0  0  0  0  0  0  0  0  0
   41.8300   29.9990   44.2430 H   0  0  0  0  0  0  0  0  0  0  0  0
   40.4070   30.3290   43.0770 H   0  0  0  0  0  0  0  0  0  0  0  0
   33.6570   28.0240   49.0460 C   0  0  0  0  0  0  0  0  0  0  0  0
   34.0680   27.4050   49.8930 H   0  0  0  0  0  0  0  0  0  0  0  0
   33.8040   27.3790   48.1380 H   0  0  0  0  0  0  0  0  0  0  0  0
   32.3200   28.1940   49.2830 O   0  0  0  0  0  0  0  0  0  0  0  0
   32.2480   26.1580   47.6260 O   0  0  0  0  0  0  0  0  0  0  0  0
   31.4140   27.2390   48.2640 P   0  0  2  0  0  0  0  0  0  0  0  0
   30.8020   28.2990   47.0360 O   0  0  0  0  0  0  0  0  0  0  0  0
   26.7270   29.9180   46.5630 H   0  0  0  0  0  0  0  0  0  0  0  0
   27.4170   29.1670   46.3090 N   0  0  0  0  0  0  0  0  0  0  0  0
   28.6840   29.1720   46.8100 C   0  0  0  0  0  3  0  0  0  0  0  0
   29.5720   28.1530   46.4490 C   0  0  0  0  0  0  0  0  0  0  0  0
   29.1130   27.1920   45.5960 C   0  0  0  0  0  0  0  0  0  0  0  0
   29.9590   26.3090   45.3120 O   0  0  0  0  0  0  0  0  0  0  0  0
   27.8660   27.1910   45.1050 N   0  0  0  0  0  0  0  0  0  0  0  0
   27.0140   28.1850   45.4640 C   0  0  0  0  0  0  0  0  0  0  0  0
   25.8540   28.1510   44.9830 O   0  0  0  0  0  0  0  0  0  0  0  0
   27.5650   26.4300   44.4540 H   0  0  0  0  0  0  0  0  0  0  0  0
   30.0870   26.5700   48.9890 O   0  0  0  0  0  0  0  0  0  0  0  0
   29.5950   27.3950   49.9760 C   0  0  0  0  0  0  0  0  0  0  0  0
   29.3710   26.7160   51.1720 F   0  0  0  0  0  0  0  0  0  0  0  0
   30.4830   28.4030   50.2880 F   0  0  0  0  0  0  0  0  0  0  0  0
   28.3890   27.9500   49.5610 F   0  0  0  0  0  0  0  0  0  0  0  0
  1 25  1  0  0  0  0
  1  3  1  0  0  0  0
  1  2  1  0  0  0  0
  5 10  1  0  0  0  0
  5  4  1  0  0  0  0
  6  5  2  0  0  0  0
  7  8  2  0  0  0  0
  7  6  1  0  0  0  0
  8  9  1  0  0  0  0
  9 10  2  0  0  0  0
 10  1  1  0  0  0  0
 11  7  1  0  0  0  0
 12  8  1  0  0  0  0
 13  9  1  0  0  0  0
 14 19  1  0  0  0  0
 14 20  1  0  0  0  0
 15 14  2  0  0  0  0
 16 17  2  0  0  0  0
 16 15  1  0  0  0  0
 17 18  1  0  0  0  0
 18  6  1  0  0  0  0
 18 19  2  0  0  0  0
 21 15  1  0  0  0  0
 22 23  1  0  0  0  0
 22 16  1  0  0  0  0
 24 22  1  0  0  0  0
 25 28  1  0  0  0  0
 25 26  1  0  0  0  0
 27 25  1  0  0  0  0
 30 29  2  6  0  0  0
 30 42  1  0  0  0  0
 30 28  1  0  0  0  0
 31 30  1  0  0  0  0
 33 32  1  0  0  0  0
 33 34  1  0  0  0  0
 35 34  2  0  0  0  0
 35 31  1  0  0  0  0
 36 35  1  0  0  0  0
 37 36  2  0  0  0  0
 38 39  1  0  0  0  0
 38 36  1  0  0  0  0
 39 33  1  0  0  0  0
 40 39  2  0  0  0  0
 41 38  1  0  0  0  0
 42 43  1  0  0  0  0
 43 45  1  0  0  0  0
 43 44  1  0  0  0  0
 46 43  1  0  0  0  0
M  END
>  <minimizedAffinity>
-6.1198802

>  <minimizedRMSD>
0.821077824

$$$$
