
 OpenBabel03272502313D

 28 29  0  0  1  0  0  0  0  0999 V2000
   38.1940   30.7450   48.8960 C   0  0  2  0  0  0  0  0  0  0  0  0
   39.2600   30.9370   49.1810 H   0  0  0  0  0  0  0  0  0  0  0  0
   37.4050   31.8810   49.3610 N   0  0  0  0  0  0  0  0  0  0  0  0
   36.1740   31.6700   49.8340 C   0  0  0  0  0  3  0  0  0  0  0  0
   35.5710   32.8270   50.3610 C   0  0  0  0  0  0  0  0  0  0  0  0
   34.5580   32.7440   50.7800 H   0  0  0  0  0  0  0  0  0  0  0  0
   36.2760   34.0470   50.3490 C   0  0  0  0  0  0  0  0  0  0  0  0
   35.7600   35.0750   50.8170 O   0  0  0  0  0  0  0  0  0  0  0  0
   37.5010   34.1160   49.8380 N   0  0  0  0  0  0  0  0  0  0  0  0
   38.0800   33.0280   49.3370 C   0  0  0  0  0  0  0  0  0  0  0  0
   39.2570   33.1590   48.8620 O   0  0  0  0  0  0  0  0  0  0  0  0
   38.0410   35.0340   49.8270 H   0  0  0  0  0  0  0  0  0  0  0  0
   36.8820   30.5720   46.8910 C   0  0  0  0  0  3  0  0  0  0  0  0
   38.0920   30.7100   47.3980 C   0  0  0  0  0  3  0  0  0  0  0  0
   37.4950   30.9310   43.2300 C   0  0  0  0  0  0  0  0  0  0  0  0
   37.6740   30.9140   44.6160 C   0  0  0  0  0  0  0  0  0  0  0  0
   36.6530   30.5480   45.4770 C   0  0  0  0  0  0  0  0  0  0  0  0
   35.4610   30.2020   44.9120 N   0  0  0  0  0  0  0  0  0  0  0  0
   35.2980   30.2210   43.5760 C   0  0  0  0  0  0  0  0  0  0  0  0
   36.3010   30.5830   42.7470 N   0  0  0  0  0  0  0  0  0  0  0  0
   38.3290   31.2340   42.5830 H   0  0  0  0  0  0  0  0  0  0  0  0
   38.6630   31.2090   44.9130 H   0  0  0  0  0  0  0  0  0  0  0  0
   34.3610   29.9450   43.1050 H   0  0  0  0  0  0  0  0  0  0  0  0
   37.5800   29.1580   49.5460 S   0  0  0  0  0  0  0  0  0  0  0  0
   37.4140   29.2280   51.3310 C   0  0  0  0  0  0  0  0  0  0  0  0
   38.0040   30.3310   51.9090 F   0  0  0  0  0  0  0  0  0  0  0  0
   36.0780   29.0860   51.7120 F   0  0  0  0  0  0  0  0  0  0  0  0
   38.0470   28.0570   51.8340 F   0  0  0  0  0  0  0  0  0  0  0  0
  1  2  1  1  0  0  0
  1  3  1  0  0  0  0
  1 24  1  0  0  0  0
  3  4  1  0  0  0  0
  4  5  2  0  0  0  0
  5  6  1  0  0  0  0
  7  5  1  0  0  0  0
  7  8  2  0  0  0  0
  9  7  1  0  0  0  0
 10  3  1  0  0  0  0
 10  9  1  0  0  0  0
 11 10  2  0  0  0  0
 12  9  1  0  0  0  0
 13 14  2  0  0  0  0
 14  1  1  0  0  0  0
 15 16  1  0  0  0  0
 16 22  1  0  0  0  0
 16 17  2  0  0  0  0
 17 13  1  0  0  0  0
 18 17  1  0  0  0  0
 19 18  2  0  0  0  0
 20 15  2  0  0  0  0
 20 19  1  0  0  0  0
 21 15  1  0  0  0  0
 23 19  1  0  0  0  0
 24 25  1  0  0  0  0
 25 27  1  0  0  0  0
 25 28  1  0  0  0  0
 25 26  1  0  0  0  0
M  END
>  <minimizedAffinity>
-0.406692594

>  <minimizedRMSD>
2.66782856

$$$$
