
 OpenBabel03272502313D

 28 30  0  0  1  0  0  0  0  0999 V2000
   38.2910   30.7020   48.9260 C   0  0  2  0  0  0  0  0  0  0  0  0
   39.3460   30.5820   49.2790 H   0  0  0  0  0  0  0  0  0  0  0  0
   37.8010   31.9780   49.4370 N   0  0  0  0  0  0  0  0  0  0  0  0
   38.5990   33.0470   49.3970 C   0  0  0  0  0  3  0  0  0  0  0  0
   37.9640   34.2360   49.8050 C   0  0  0  0  0  0  0  0  0  0  0  0
   38.5460   35.1690   49.7950 H   0  0  0  0  0  0  0  0  0  0  0  0
   36.6110   34.2030   50.1990 C   0  0  0  0  0  0  0  0  0  0  0  0
   36.0360   35.2440   50.5550 O   0  0  0  0  0  0  0  0  0  0  0  0
   35.9340   33.0600   50.1970 N   0  0  0  0  0  0  0  0  0  0  0  0
   36.5250   31.9310   49.8140 C   0  0  1  0  0  3  0  0  0  0  0  0
   35.8200   30.8680   49.8330 O   0  0  0  0  0  0  0  0  0  0  0  0
   34.9110   33.0270   50.4930 H   0  0  0  0  0  0  0  0  0  0  0  0
   37.1100   30.7770   46.8350 C   0  0  0  0  0  3  0  0  0  0  0  0
   38.2890   30.7890   47.4260 C   0  0  0  0  0  3  0  0  0  0  0  0
   37.4750   32.0770   43.3590 C   0  0  0  0  0  0  0  0  0  0  0  0
   37.5950   31.9200   44.7430 C   0  0  0  0  0  0  0  0  0  0  0  0
   36.9760   30.8770   45.4120 C   0  0  0  0  0  0  0  0  0  0  0  0
   36.2440   30.0060   44.6600 N   0  0  0  0  0  0  0  0  0  0  0  0
   36.1360   30.1650   43.3280 C   0  0  0  0  0  0  0  0  0  0  0  0
   36.7420   31.1890   42.6870 N   0  0  0  0  0  0  0  0  0  0  0  0
   37.9770   32.9220   42.8680 H   0  0  0  0  0  0  0  0  0  0  0  0
   38.2010   32.6790   45.1990 H   0  0  0  0  0  0  0  0  0  0  0  0
   35.5640   29.4830   42.7090 H   0  0  0  0  0  0  0  0  0  0  0  0
   37.2330   29.3020   49.4160 S   0  0  2  0  0  3  0  0  0  0  0  0
   37.3560   29.0060   51.1820 C   0  0  0  0  0  0  0  0  0  0  0  0
   37.9840   30.0150   51.8800 F   0  0  0  0  0  0  0  0  0  0  0  0
   36.1070   28.6920   51.7220 F   0  0  0  0  0  0  0  0  0  0  0  0
   38.1120   27.8100   51.3320 F   0  0  0  0  0  0  0  0  0  0  0  0
  1  2  1  1  0  0  0
  1 24  1  0  0  0  0
  1  3  1  0  0  0  0
  3 10  1  0  0  0  0
  4  3  1  0  0  0  0
  4  5  2  0  0  0  0
  5  7  1  0  0  0  0
  6  5  1  0  0  0  0
  7  8  2  0  0  0  0
  9  7  1  0  0  0  0
  9 12  1  0  0  0  0
 10 11  1  6  0  0  0
 10  9  1  0  0  0  0
 13 14  2  0  0  0  0
 14  1  1  0  0  0  0
 15 16  1  0  0  0  0
 16 22  1  0  0  0  0
 16 17  2  0  0  0  0
 17 13  1  0  0  0  0
 18 17  1  0  0  0  0
 19 18  2  0  0  0  0
 20 19  1  0  0  0  0
 20 15  2  0  0  0  0
 21 15  1  0  0  0  0
 23 19  1  0  0  0  0
 24 11  1  0  0  0  0
 24 25  1  1  0  0  0
 25 28  1  0  0  0  0
 25 27  1  0  0  0  0
 25 26  1  0  0  0  0
M  END
>  <minimizedAffinity>
-0.465275258

>  <minimizedRMSD>
2.42204165

$$$$
