
 OpenBabel03272502313D

 28 29  0  0  1  0  0  0  0  0999 V2000
   38.1100   30.4520   48.9090 C   0  0  2  0  0  0  0  0  0  0  0  0
   39.2280   30.4600   48.9620 H   0  0  0  0  0  0  0  0  0  0  0  0
   37.6360   31.7090   49.4780 N   0  0  0  0  0  0  0  0  0  0  0  0
   38.4950   32.7200   49.6340 C   0  0  0  0  0  3  0  0  0  0  0  0
   37.8850   33.9100   50.0750 C   0  0  0  0  0  0  0  0  0  0  0  0
   38.5170   34.7980   50.2230 H   0  0  0  0  0  0  0  0  0  0  0  0
   36.4940   33.9370   50.3030 C   0  0  0  0  0  0  0  0  0  0  0  0
   35.9420   34.9810   50.6860 O   0  0  0  0  0  0  0  0  0  0  0  0
   35.7560   32.8480   50.1120 N   0  0  0  0  0  0  0  0  0  0  0  0
   36.3230   31.7190   49.6960 C   0  0  0  0  0  0  0  0  0  0  0  0
   35.5590   30.7090   49.5310 O   0  0  0  0  0  0  0  0  0  0  0  0
   34.7040   32.8610   50.2810 H   0  0  0  0  0  0  0  0  0  0  0  0
   38.5950   30.8190   46.5840 C   0  0  0  0  0  3  0  0  0  0  0  0
   37.6940   30.4290   47.4650 C   0  0  0  0  0  3  0  0  0  0  0  0
   37.3390   31.9270   43.2520 C   0  0  0  0  0  0  0  0  0  0  0  0
   37.6470   31.8880   44.6150 C   0  0  0  0  0  0  0  0  0  0  0  0
   38.3270   30.8200   45.1770 C   0  0  0  0  0  0  0  0  0  0  0  0
   38.6860   29.8050   44.3400 N   0  0  0  0  0  0  0  0  0  0  0  0
   38.3850   29.8520   43.0290 C   0  0  0  0  0  0  0  0  0  0  0  0
   37.7190   30.8970   42.4930 N   0  0  0  0  0  0  0  0  0  0  0  0
   36.7930   32.7890   42.8480 H   0  0  0  0  0  0  0  0  0  0  0  0
   37.3030   32.7550   45.1460 H   0  0  0  0  0  0  0  0  0  0  0  0
   38.6650   29.0590   42.3440 H   0  0  0  0  0  0  0  0  0  0  0  0
   37.3880   28.9970   49.7330 S   0  0  0  0  0  0  0  0  0  0  0  0
   37.4300   29.1960   51.5160 C   0  0  0  0  0  0  0  0  0  0  0  0
   38.1170   30.3110   51.9430 F   0  0  0  0  0  0  0  0  0  0  0  0
   36.1410   29.1350   52.0530 F   0  0  0  0  0  0  0  0  0  0  0  0
   38.0770   28.0370   52.0290 F   0  0  0  0  0  0  0  0  0  0  0  0
  1  2  1  1  0  0  0
  1  3  1  0  0  0  0
  1 24  1  0  0  0  0
  3  4  1  0  0  0  0
  3 10  1  0  0  0  0
  4  5  2  0  0  0  0
  5  6  1  0  0  0  0
  5  7  1  0  0  0  0
  7  8  2  0  0  0  0
  9 12  1  0  0  0  0
  9  7  1  0  0  0  0
 10  9  1  0  0  0  0
 11 10  2  0  0  0  0
 13 14  2  0  0  0  0
 14  1  1  0  0  0  0
 15 16  1  0  0  0  0
 16 22  1  0  0  0  0
 16 17  2  0  0  0  0
 17 13  1  0  0  0  0
 18 17  1  0  0  0  0
 19 18  2  0  0  0  0
 20 19  1  0  0  0  0
 20 15  2  0  0  0  0
 21 15  1  0  0  0  0
 23 19  1  0  0  0  0
 24 25  1  0  0  0  0
 25 26  1  0  0  0  0
 25 28  1  0  0  0  0
 25 27  1  0  0  0  0
M  END
>  <minimizedAffinity>
-0.813312054

>  <minimizedRMSD>
2.43969703

$$$$
