
 OpenBabel03272502313D

 28 29  0  0  1  0  0  0  0  0999 V2000
   37.5230   30.3580   47.5900 C   0  0  2  0  0  0  0  0  0  0  0  0
   37.9140   29.4140   48.0490 H   0  0  0  0  0  0  0  0  0  0  0  0
   38.2200   31.4730   48.2220 N   0  0  0  0  0  0  0  0  0  0  0  0
   38.5730   32.5260   47.4810 C   0  0  0  0  0  3  0  0  0  0  0  0
   39.1240   33.5810   48.2340 C   0  0  0  0  0  0  0  0  0  0  0  0
   39.4370   34.4930   47.7050 H   0  0  0  0  0  0  0  0  0  0  0  0
   39.2490   33.4470   49.6310 C   0  0  0  0  0  0  0  0  0  0  0  0
   39.7280   34.3720   50.3090 O   0  0  0  0  0  0  0  0  0  0  0  0
   38.8600   32.3340   50.2430 N   0  0  0  0  0  0  0  0  0  0  0  0
   38.3400   31.3310   49.5400 C   0  0  0  0  0  0  0  0  0  0  0  0
   37.9840   30.2900   50.1860 O   0  0  0  0  0  0  0  0  0  0  0  0
   38.9510   32.2250   51.2990 H   0  0  0  0  0  0  0  0  0  0  0  0
   36.8840   30.4740   45.2770 C   0  0  0  0  0  3  0  0  0  0  0  0
   37.8830   30.3720   46.1320 C   0  0  0  0  0  3  0  0  0  0  0  0
   38.5360   31.1380   42.0000 C   0  0  0  0  0  0  0  0  0  0  0  0
   38.2850   31.0460   43.3720 C   0  0  0  0  0  0  0  0  0  0  0  0
   37.1000   30.5220   43.8620 C   0  0  0  0  0  0  0  0  0  0  0  0
   36.1860   30.0950   42.9440 N   0  0  0  0  0  0  0  0  0  0  0  0
   36.4370   30.1870   41.6250 C   0  0  0  0  0  0  0  0  0  0  0  0
   37.5950   30.7030   41.1600 N   0  0  0  0  0  0  0  0  0  0  0  0
   39.4850   31.5660   41.6540 H   0  0  0  0  0  0  0  0  0  0  0  0
   39.0940   31.4190   43.9710 H   0  0  0  0  0  0  0  0  0  0  0  0
   35.7270   29.8500   40.8780 H   0  0  0  0  0  0  0  0  0  0  0  0
   35.7120   30.4970   47.7310 S   0  0  0  0  0  0  0  0  0  0  0  0
   35.0330   29.0650   48.5720 C   0  0  0  0  0  0  0  0  0  0  0  0
   35.9550   28.3530   49.3070 F   0  0  0  0  0  0  0  0  0  0  0  0
   33.9160   29.4200   49.3330 F   0  0  0  0  0  0  0  0  0  0  0  0
   34.5090   28.2190   47.5550 F   0  0  0  0  0  0  0  0  0  0  0  0
  1 24  1  0  0  0  0
  1  2  1  1  0  0  0
  1  3  1  0  0  0  0
  3 10  1  0  0  0  0
  4  3  1  0  0  0  0
  4  5  2  0  0  0  0
  5  7  1  0  0  0  0
  6  5  1  0  0  0  0
  7  9  1  0  0  0  0
  7  8  2  0  0  0  0
  9 12  1  0  0  0  0
 10 11  2  0  0  0  0
 10  9  1  0  0  0  0
 13 14  2  0  0  0  0
 14  1  1  0  0  0  0
 15 16  1  0  0  0  0
 16 17  2  0  0  0  0
 16 22  1  0  0  0  0
 17 13  1  0  0  0  0
 18 17  1  0  0  0  0
 19 18  2  0  0  0  0
 20 19  1  0  0  0  0
 20 15  2  0  0  0  0
 21 15  1  0  0  0  0
 23 19  1  0  0  0  0
 24 25  1  0  0  0  0
 25 26  1  0  0  0  0
 25 27  1  0  0  0  0
 28 25  1  0  0  0  0
M  END
>  <minimizedAffinity>
-4.3352437

>  <minimizedRMSD>
3.89052653

$$$$
