
 OpenBabel03272502313D

 28 29  0  0  1  0  0  0  0  0999 V2000
   38.1950   30.7450   48.8970 C   0  0  2  0  0  0  0  0  0  0  0  0
   39.2600   30.9380   49.1810 H   0  0  0  0  0  0  0  0  0  0  0  0
   37.4060   31.8820   49.3610 N   0  0  0  0  0  0  0  0  0  0  0  0
   36.1750   31.6710   49.8350 C   0  0  0  0  0  3  0  0  0  0  0  0
   35.5720   32.8270   50.3620 C   0  0  0  0  0  0  0  0  0  0  0  0
   34.5580   32.7440   50.7810 H   0  0  0  0  0  0  0  0  0  0  0  0
   36.2760   34.0480   50.3500 C   0  0  0  0  0  0  0  0  0  0  0  0
   35.7610   35.0760   50.8170 O   0  0  0  0  0  0  0  0  0  0  0  0
   37.5020   34.1160   49.8390 N   0  0  0  0  0  0  0  0  0  0  0  0
   38.0800   33.0280   49.3370 C   0  0  0  0  0  0  0  0  0  0  0  0
   39.2570   33.1600   48.8630 O   0  0  0  0  0  0  0  0  0  0  0  0
   38.0420   35.0340   49.8260 H   0  0  0  0  0  0  0  0  0  0  0  0
   36.8830   30.5720   46.8910 C   0  0  0  0  0  3  0  0  0  0  0  0
   38.0930   30.7110   47.3980 C   0  0  0  0  0  3  0  0  0  0  0  0
   37.4950   30.9310   43.2300 C   0  0  0  0  0  0  0  0  0  0  0  0
   37.6750   30.9140   44.6170 C   0  0  0  0  0  0  0  0  0  0  0  0
   36.6530   30.5480   45.4770 C   0  0  0  0  0  0  0  0  0  0  0  0
   35.4610   30.2010   44.9130 N   0  0  0  0  0  0  0  0  0  0  0  0
   35.2990   30.2200   43.5770 C   0  0  0  0  0  0  0  0  0  0  0  0
   36.3010   30.5830   42.7470 N   0  0  0  0  0  0  0  0  0  0  0  0
   38.3290   31.2340   42.5830 H   0  0  0  0  0  0  0  0  0  0  0  0
   38.6630   31.2090   44.9140 H   0  0  0  0  0  0  0  0  0  0  0  0
   34.3620   29.9450   43.1050 H   0  0  0  0  0  0  0  0  0  0  0  0
   37.5810   29.1580   49.5460 S   0  0  0  0  0  0  0  0  0  0  0  0
   37.4150   29.2280   51.3320 C   0  0  0  0  0  0  0  0  0  0  0  0
   38.0040   30.3310   51.9100 F   0  0  0  0  0  0  0  0  0  0  0  0
   36.0780   29.0870   51.7120 F   0  0  0  0  0  0  0  0  0  0  0  0
   38.0470   28.0570   51.8340 F   0  0  0  0  0  0  0  0  0  0  0  0
  1  2  1  1  0  0  0
  1  3  1  0  0  0  0
  1 24  1  0  0  0  0
  3  4  1  0  0  0  0
  4  5  2  0  0  0  0
  5  6  1  0  0  0  0
  7  5  1  0  0  0  0
  7  8  2  0  0  0  0
  9  7  1  0  0  0  0
 10  3  1  0  0  0  0
 10  9  1  0  0  0  0
 11 10  2  0  0  0  0
 12  9  1  0  0  0  0
 13 14  2  0  0  0  0
 14  1  1  0  0  0  0
 15 16  1  0  0  0  0
 16 22  1  0  0  0  0
 16 17  2  0  0  0  0
 17 13  1  0  0  0  0
 18 17  1  0  0  0  0
 19 18  2  0  0  0  0
 20 15  2  0  0  0  0
 20 19  1  0  0  0  0
 21 15  1  0  0  0  0
 23 19  1  0  0  0  0
 24 25  1  0  0  0  0
 25 27  1  0  0  0  0
 25 28  1  0  0  0  0
 25 26  1  0  0  0  0
M  END
>  <minimizedAffinity>
-0.403616399

>  <minimizedRMSD>
2.70659876

$$$$
