
 OpenBabel03272506383D

 38 40  0  0  1  0  0  0  0  0999 V2000
   34.3710   28.8300   50.0600 O   0  0  0  0  0  0  0  0  0  0  0  0
   34.1770   29.0880   48.8590 C   0  0  0  0  0  0  0  0  0  0  0  0
   34.9420   30.1020   48.1690 C   0  0  2  0  0  0  0  0  0  0  0  0
   34.4790   29.8640   46.6930 C   0  0  0  0  0  0  0  0  0  0  0  0
   33.1050   29.2920   46.8630 C   0  0  0  0  0  0  0  0  0  0  0  0
   33.1970   28.4290   48.0270 N   0  0  0  0  0  0  0  0  0  0  0  0
   34.6750   31.1430   48.4210 H   0  0  0  0  0  0  0  0  0  0  0  0
   34.4470   30.8650   46.2230 H   0  0  0  0  0  0  0  0  0  0  0  0
   35.1750   29.1930   46.1740 H   0  0  0  0  0  0  0  0  0  0  0  0
   32.9130   28.6050   46.0050 H   0  0  0  0  0  0  0  0  0  0  0  0
   32.3060   30.0250   46.8980 H   0  0  0  0  0  0  0  0  0  0  0  0
   32.4700   27.2100   48.2570 C   0  0  0  0  0  0  0  0  0  0  0  0
   32.8600   26.3940   47.6300 H   0  0  0  0  0  0  0  0  0  0  0  0
   32.6710   26.8760   49.3150 H   0  0  0  0  0  0  0  0  0  0  0  0
   31.0580   27.3090   48.1300 N   0  0  0  0  0  0  0  0  0  0  0  0
   30.5600   26.8460   46.9520 C   0  0  0  0  0  3  0  0  0  0  0  0
   29.2030   26.8760   46.6770 C   0  0  0  0  0  0  0  0  0  0  0  0
   28.8250   26.5030   45.7310 H   0  0  0  0  0  0  0  0  0  0  0  0
   28.3070   27.3850   47.6110 C   0  0  0  0  0  0  0  0  0  0  0  0
   27.0800   27.4180   47.3760 O   0  0  0  0  0  0  0  0  0  0  0  0
   28.8500   27.8320   48.7670 N   0  0  0  0  0  0  0  0  0  0  0  0
   30.1720   27.7850   48.9910 C   0  0  0  0  0  0  0  0  0  0  0  0
   30.6320   28.2090   50.0760 O   0  0  0  0  0  0  0  0  0  0  0  0
   28.2100   28.2230   49.4950 H   0  0  0  0  0  0  0  0  0  0  0  0
   36.3490   29.8640   48.1610 O   0  0  0  0  0  0  0  0  0  0  0  0
   37.1890   30.9730   48.2600 C   0  0  0  0  0  0  0  0  0  0  0  0
   37.3270   31.5390   49.5140 C   0  0  0  0  0  0  0  0  0  0  0  0
   38.1550   32.6440   49.6440 C   0  0  0  0  0  0  0  0  0  0  0  0
   38.7940   33.1200   48.5390 N   0  0  0  0  0  0  0  0  0  0  0  0
   38.6490   32.5600   47.3300 C   0  0  0  0  0  0  0  0  0  0  0  0
   37.8570   31.5060   47.2130 N   0  0  0  0  0  0  0  0  0  0  0  0
   40.2000   32.1370   45.5880 C   0  0  0  0  0  0  0  0  0  0  0  0
   40.4190   30.9370   45.9360 O   0  0  0  0  0  0  0  0  0  0  0  0
   39.3300   33.0860   46.1970 N   0  0  0  0  0  0  0  0  0  0  0  0
   36.8360   31.1830   50.3970 H   0  0  0  0  0  0  0  0  0  0  0  0
   38.2850   33.1080   50.6070 H   0  0  0  0  0  0  0  0  0  0  0  0
   40.7800   32.4170   44.7080 H   0  0  0  0  0  0  0  0  0  0  0  0
   39.2050   34.0570   45.8500 H   0  0  0  0  0  0  0  0  0  0  0  0
  2  1  2  0  0  0  0
  3  7  1  1  0  0  0
  3  2  1  0  0  0  0
  4  5  1  0  0  0  0
  4  3  1  0  0  0  0
  5 11  1  0  0  0  0
  5  6  1  0  0  0  0
  6 12  1  0  0  0  0
  6  2  1  0  0  0  0
  8  4  1  0  0  0  0
  9  4  1  0  0  0  0
 10  5  1  0  0  0  0
 12 14  1  0  0  0  0
 13 12  1  0  0  0  0
 15 12  1  0  0  0  0
 15 22  1  0  0  0  0
 16 15  1  0  0  0  0
 17 16  2  0  0  0  0
 17 19  1  0  0  0  0
 18 17  1  0  0  0  0
 19 21  1  0  0  0  0
 20 19  2  0  0  0  0
 21 22  1  0  0  0  0
 21 24  1  0  0  0  0
 22 23  2  0  0  0  0
 25  3  1  0  0  0  0
 25 26  1  0  0  0  0
 26 27  1  0  0  0  0
 27 28  2  0  0  0  0
 27 35  1  0  0  0  0
 28 36  1  0  0  0  0
 29 28  1  0  0  0  0
 30 29  2  0  0  0  0
 31 30  1  0  0  0  0
 31 26  2  0  0  0  0
 32 33  2  0  0  0  0
 32 34  1  0  0  0  0
 34 30  1  0  0  0  0
 37 32  1  0  0  0  0
 38 34  1  0  0  0  0
M  END
>  <minimizedAffinity>
-6.24777412

>  <minimizedRMSD>
1.61852503

$$$$
