
 OpenBabel03272509353D

 48 52  0  0  1  0  0  0  0  0999 V2000
   37.5860   31.7540   41.4120 C   0  0  1  0  0  0  0  0  0  0  0  0
   37.9010   31.1030   42.7110 C   0  0  0  0  0  0  0  0  0  0  0  0
   37.3670   30.2050   41.7090 C   0  0  2  0  0  0  0  0  0  0  0  0
   38.2730   31.8690   40.5880 H   0  0  0  0  0  0  0  0  0  0  0  0
   38.9220   31.3420   42.9970 H   0  0  0  0  0  0  0  0  0  0  0  0
   37.1990   31.4300   43.5630 H   0  0  0  0  0  0  0  0  0  0  0  0
   36.3470   29.9620   41.4500 H   0  0  0  0  0  0  0  0  0  0  0  0
   38.4230   29.2710   41.1940 C   0  0  0  0  0  0  0  0  0  0  0  0
   39.3610   29.0040   42.2010 C   0  0  0  0  0  0  0  0  0  0  0  0
   40.3610   28.0910   41.9810 C   0  0  0  0  0  0  0  0  0  0  0  0
   40.4700   27.4070   40.7630 C   0  0  0  0  0  0  0  0  0  0  0  0
   39.5220   27.6970   39.7910 C   0  0  0  0  0  0  0  0  0  0  0  0
   39.5230   27.1060   38.5570 C   0  0  0  0  0  0  0  0  0  0  0  0
   38.5970   27.3880   37.5790 C   0  0  0  0  0  0  0  0  0  0  0  0
   37.6130   28.3150   37.8510 C   0  0  0  0  0  0  0  0  0  0  0  0
   37.6070   28.9140   39.0940 C   0  0  0  0  0  0  0  0  0  0  0  0
   38.5520   28.6040   40.0460 C   0  0  0  0  0  0  0  0  0  0  0  0
   39.5400   29.3290   43.2050 H   0  0  0  0  0  0  0  0  0  0  0  0
   41.1610   27.7620   42.6290 H   0  0  0  0  0  0  0  0  0  0  0  0
   41.1990   26.6690   40.4570 H   0  0  0  0  0  0  0  0  0  0  0  0
   40.2800   26.3750   38.3110 H   0  0  0  0  0  0  0  0  0  0  0  0
   38.6520   26.8850   36.6190 H   0  0  0  0  0  0  0  0  0  0  0  0
   36.8670   28.5760   37.1330 H   0  0  0  0  0  0  0  0  0  0  0  0
   36.8110   29.6530   39.2920 H   0  0  0  0  0  0  0  0  0  0  0  0
   34.5490   33.8040   42.2960 C   0  0  0  0  0  0  0  0  0  0  0  0
   35.7920   33.1190   42.4120 C   0  0  0  0  0  0  0  0  0  0  0  0
   36.2970   32.4850   41.3150 C   0  0  0  0  0  0  0  0  0  0  0  0
   35.5490   32.5630   40.1580 N   0  0  0  0  0  0  0  0  0  0  0  0
   34.3830   33.2090   40.0550 C   0  0  0  0  0  0  0  0  0  0  0  0
   33.8610   33.8390   41.1190 N   0  0  0  0  0  0  0  0  0  0  0  0
   34.1730   34.2960   43.1820 H   0  0  0  0  0  0  0  0  0  0  0  0
   36.2960   33.1220   43.3700 H   0  0  0  0  0  0  0  0  0  0  0  0
   33.6950   33.2160   38.7270 C   0  0  0  0  0  0  0  0  0  0  0  0
   33.5010   34.2380   38.3490 H   0  0  0  0  0  0  0  0  0  0  0  0
   34.3470   32.6160   38.0590 H   0  0  0  0  0  0  0  0  0  0  0  0
   32.3760   32.4440   38.8990 C   0  0  0  0  0  0  0  0  0  0  0  0
   32.0760   32.6260   39.9650 H   0  0  0  0  0  0  0  0  0  0  0  0
   31.6180   32.9630   38.2880 H   0  0  0  0  0  0  0  0  0  0  0  0
   32.5270   31.0440   38.6280 N   0  0  0  0  0  0  0  0  0  0  0  0
   33.5440   30.7000   37.7850 C   0  0  0  0  0  3  0  0  0  0  0  0
   33.7380   29.3470   37.4850 C   0  0  0  0  0  0  0  0  0  0  0  0
   34.5040   28.9880   36.8400 H   0  0  0  0  0  0  0  0  0  0  0  0
   32.8470   28.4920   38.1000 C   0  0  0  0  0  0  0  0  0  0  0  0
   33.0040   27.2500   37.8410 O   0  0  0  0  0  0  0  0  0  0  0  0
   31.8380   28.8050   38.9330 N   0  0  0  0  0  0  0  0  0  0  0  0
   31.7040   30.1300   39.1830 C   0  0  0  0  0  0  0  0  0  0  0  0
   30.7790   30.4900   39.9540 O   0  0  0  0  0  0  0  0  0  0  0  0
   31.2380   28.0490   39.3270 H   0  0  0  0  0  0  0  0  0  0  0  0
  1  4  1  6  0  0  0
  1  3  1  0  0  0  0
  1  2  1  0  0  0  0
  2  5  1  0  0  0  0
  2  6  1  0  0  0  0
  3  7  1  1  0  0  0
  3  2  1  0  0  0  0
  8  3  1  0  0  0  0
  8  9  1  0  0  0  0
  9 18  1  0  0  0  0
 10  9  2  0  0  0  0
 10 19  1  0  0  0  0
 11 10  1  0  0  0  0
 12 17  1  0  0  0  0
 12 11  2  0  0  0  0
 13 12  1  0  0  0  0
 14 15  1  0  0  0  0
 14 13  2  0  0  0  0
 15 16  2  0  0  0  0
 16 24  1  0  0  0  0
 16 17  1  0  0  0  0
 17  8  2  0  0  0  0
 20 11  1  0  0  0  0
 21 13  1  0  0  0  0
 22 14  1  0  0  0  0
 23 15  1  0  0  0  0
 25 26  1  0  0  0  0
 25 31  1  0  0  0  0
 26 32  1  0  0  0  0
 27  1  1  0  0  0  0
 27 26  2  0  0  0  0
 28 27  1  0  0  0  0
 29 28  2  0  0  0  0
 29 30  1  0  0  0  0
 30 25  2  0  0  0  0
 33 36  1  0  0  0  0
 33 29  1  0  0  0  0
 34 33  1  0  0  0  0
 35 33  1  0  0  0  0
 36 37  1  0  0  0  0
 38 36  1  0  0  0  0
 39 36  1  0  0  0  0
 39 46  1  0  0  0  0
 40 39  1  0  0  0  0
 41 40  2  0  0  0  0
 41 43  1  0  0  0  0
 42 41  1  0  0  0  0
 43 45  1  0  0  0  0
 44 43  2  0  0  0  0
 45 46  1  0  0  0  0
 45 48  1  0  0  0  0
 46 47  2  0  0  0  0
M  END
>  <minimizedAffinity>
-1.91579723

>  <minimizedRMSD>
11.3194284

$$$$
