
 OpenBabel03272506383D

 38 40  0  0  1  0  0  0  0  0999 V2000
   34.4250   28.9020   50.0320 O   0  0  0  0  0  0  0  0  0  0  0  0
   34.2250   29.1560   48.8320 C   0  0  0  0  0  0  0  0  0  0  0  0
   34.9960   30.1570   48.1310 C   0  0  2  0  0  0  0  0  0  0  0  0
   34.5190   29.9180   46.6590 C   0  0  0  0  0  0  0  0  0  0  0  0
   33.1390   29.3640   46.8430 C   0  0  0  0  0  0  0  0  0  0  0  0
   33.2300   28.5050   48.0110 N   0  0  0  0  0  0  0  0  0  0  0  0
   34.7450   31.2030   48.3800 H   0  0  0  0  0  0  0  0  0  0  0  0
   34.4960   30.9170   46.1840 H   0  0  0  0  0  0  0  0  0  0  0  0
   35.2030   29.2360   46.1390 H   0  0  0  0  0  0  0  0  0  0  0  0
   32.9320   28.6760   45.9900 H   0  0  0  0  0  0  0  0  0  0  0  0
   32.3500   30.1080   46.8810 H   0  0  0  0  0  0  0  0  0  0  0  0
   32.4890   27.2980   48.2530 C   0  0  0  0  0  0  0  0  0  0  0  0
   32.6980   26.5460   47.4770 H   0  0  0  0  0  0  0  0  0  0  0  0
   32.8730   26.8350   49.2060 H   0  0  0  0  0  0  0  0  0  0  0  0
   31.0880   27.4650   48.4250 N   0  0  0  0  0  0  0  0  0  0  0  0
   30.7150   27.8890   49.6620 C   0  0  0  0  0  3  0  0  0  0  0  0
   29.3840   28.0960   49.9860 C   0  0  0  0  0  0  0  0  0  0  0  0
   29.1050   28.4350   50.9770 H   0  0  0  0  0  0  0  0  0  0  0  0
   28.3870   27.8720   49.0410 C   0  0  0  0  0  0  0  0  0  0  0  0
   27.1830   28.0550   49.3200 O   0  0  0  0  0  0  0  0  0  0  0  0
   28.8090   27.4510   47.8260 N   0  0  0  0  0  0  0  0  0  0  0  0
   30.1100   27.2620   47.5560 C   0  0  0  0  0  0  0  0  0  0  0  0
   30.4550   26.8720   46.4180 O   0  0  0  0  0  0  0  0  0  0  0  0
   28.0900   27.2700   47.0880 H   0  0  0  0  0  0  0  0  0  0  0  0
   36.4010   29.9020   48.1120 O   0  0  0  0  0  0  0  0  0  0  0  0
   37.2550   30.9970   48.2350 C   0  0  0  0  0  0  0  0  0  0  0  0
   37.3980   31.5360   49.5010 C   0  0  0  0  0  0  0  0  0  0  0  0
   38.2410   32.6270   49.6540 C   0  0  0  0  0  0  0  0  0  0  0  0
   38.8880   33.1160   48.5610 N   0  0  0  0  0  0  0  0  0  0  0  0
   38.7380   32.5820   47.3400 C   0  0  0  0  0  0  0  0  0  0  0  0
   37.9320   31.5410   47.2010 N   0  0  0  0  0  0  0  0  0  0  0  0
   40.2880   32.1730   45.5940 C   0  0  0  0  0  0  0  0  0  0  0  0
   40.4900   30.9630   45.9180 O   0  0  0  0  0  0  0  0  0  0  0  0
   39.4290   33.1220   46.2190 N   0  0  0  0  0  0  0  0  0  0  0  0
   36.9000   31.1700   50.3750 H   0  0  0  0  0  0  0  0  0  0  0  0
   38.3740   33.0700   50.6270 H   0  0  0  0  0  0  0  0  0  0  0  0
   40.8740   32.4620   44.7210 H   0  0  0  0  0  0  0  0  0  0  0  0
   39.3190   34.1000   45.8910 H   0  0  0  0  0  0  0  0  0  0  0  0
  2  1  2  0  0  0  0
  3  7  1  1  0  0  0
  3  2  1  0  0  0  0
  4  5  1  0  0  0  0
  4  3  1  0  0  0  0
  5 11  1  0  0  0  0
  5  6  1  0  0  0  0
  6 12  1  0  0  0  0
  6  2  1  0  0  0  0
  8  4  1  0  0  0  0
  9  4  1  0  0  0  0
 10  5  1  0  0  0  0
 12 15  1  0  0  0  0
 12 14  1  0  0  0  0
 13 12  1  0  0  0  0
 15 16  1  0  0  0  0
 16 17  2  0  0  0  0
 17 18  1  0  0  0  0
 19 20  2  0  0  0  0
 19 17  1  0  0  0  0
 21 19  1  0  0  0  0
 22 21  1  0  0  0  0
 22 15  1  0  0  0  0
 23 22  2  0  0  0  0
 24 21  1  0  0  0  0
 25  3  1  0  0  0  0
 25 26  1  0  0  0  0
 26 27  1  0  0  0  0
 27 28  2  0  0  0  0
 27 35  1  0  0  0  0
 28 36  1  0  0  0  0
 29 28  1  0  0  0  0
 30 29  2  0  0  0  0
 31 30  1  0  0  0  0
 31 26  2  0  0  0  0
 32 33  2  0  0  0  0
 32 34  1  0  0  0  0
 34 30  1  0  0  0  0
 37 32  1  0  0  0  0
 38 34  1  0  0  0  0
M  END
>  <minimizedAffinity>
-6.39404392

>  <minimizedRMSD>
1.62586033

$$$$
