
 OpenBabel03272509353D

 48 52  0  0  1  0  0  0  0  0999 V2000
   35.7170   30.1290   42.7140 C   0  0  1  0  0  0  0  0  0  0  0  0
   35.8170   31.6130   42.7410 C   0  0  0  0  0  0  0  0  0  0  0  0
   37.0450   30.9260   43.0800 C   0  0  2  0  0  0  0  0  0  0  0  0
   35.8960   29.5070   41.8510 H   0  0  0  0  0  0  0  0  0  0  0  0
   35.4500   32.0170   41.8020 H   0  0  0  0  0  0  0  0  0  0  0  0
   35.2190   32.0910   43.6010 H   0  0  0  0  0  0  0  0  0  0  0  0
   37.4060   30.5480   44.0250 H   0  0  0  0  0  0  0  0  0  0  0  0
   38.0650   31.0620   41.9860 C   0  0  0  0  0  0  0  0  0  0  0  0
   37.7760   32.1820   41.1950 C   0  0  0  0  0  0  0  0  0  0  0  0
   38.6380   32.5550   40.1960 C   0  0  0  0  0  0  0  0  0  0  0  0
   39.8160   31.8410   39.9430 C   0  0  0  0  0  0  0  0  0  0  0  0
   40.0690   30.7380   40.7480 C   0  0  0  0  0  0  0  0  0  0  0  0
   41.1780   29.9510   40.5980 C   0  0  0  0  0  0  0  0  0  0  0  0
   41.4390   28.8500   41.3800 C   0  0  0  0  0  0  0  0  0  0  0  0
   40.5390   28.5160   42.3710 C   0  0  0  0  0  0  0  0  0  0  0  0
   39.4200   29.3070   42.5260 C   0  0  0  0  0  0  0  0  0  0  0  0
   39.1940   30.4010   41.7220 C   0  0  0  0  0  0  0  0  0  0  0  0
   37.0020   32.9200   41.1420 H   0  0  0  0  0  0  0  0  0  0  0  0
   38.5820   33.3770   39.4950 H   0  0  0  0  0  0  0  0  0  0  0  0
   40.5780   32.0210   39.1960 H   0  0  0  0  0  0  0  0  0  0  0  0
   41.9040   30.1830   39.8320 H   0  0  0  0  0  0  0  0  0  0  0  0
   42.3380   28.2640   41.2110 H   0  0  0  0  0  0  0  0  0  0  0  0
   40.6870   27.6730   43.0100 H   0  0  0  0  0  0  0  0  0  0  0  0
   38.7110   29.0240   43.3250 H   0  0  0  0  0  0  0  0  0  0  0  0
   33.9860   27.6250   44.9360 C   0  0  0  0  0  0  0  0  0  0  0  0
   34.5560   28.2330   43.7820 C   0  0  0  0  0  0  0  0  0  0  0  0
   35.1250   29.4670   43.9050 C   0  0  0  0  0  0  0  0  0  0  0  0
   35.1030   30.0350   45.1620 N   0  0  0  0  0  0  0  0  0  0  0  0
   34.5660   29.4580   46.2410 C   0  0  0  0  0  0  0  0  0  0  0  0
   33.9990   28.2460   46.1500 N   0  0  0  0  0  0  0  0  0  0  0  0
   33.5410   26.6470   44.8080 H   0  0  0  0  0  0  0  0  0  0  0  0
   34.5190   27.6970   42.8430 H   0  0  0  0  0  0  0  0  0  0  0  0
   34.6340   30.1940   47.5410 C   0  0  0  0  0  0  0  0  0  0  0  0
   33.9550   31.0680   47.5760 H   0  0  0  0  0  0  0  0  0  0  0  0
   34.4130   29.4340   48.3180 H   0  0  0  0  0  0  0  0  0  0  0  0
   36.0940   30.6380   47.7320 C   0  0  0  0  0  0  0  0  0  0  0  0
   36.6750   30.0400   46.9800 H   0  0  0  0  0  0  0  0  0  0  0  0
   36.1600   31.6840   47.3890 H   0  0  0  0  0  0  0  0  0  0  0  0
   36.5640   30.3990   49.0660 N   0  0  0  0  0  0  0  0  0  0  0  0
   35.7190   29.7090   49.8870 C   0  0  0  0  0  3  0  0  0  0  0  0
   36.1260   29.4490   51.2010 C   0  0  0  0  0  0  0  0  0  0  0  0
   35.5340   28.9190   51.9090 H   0  0  0  0  0  0  0  0  0  0  0  0
   37.3760   29.9360   51.5200 C   0  0  0  0  0  0  0  0  0  0  0  0
   37.7690   29.7090   52.7140 O   0  0  0  0  0  0  0  0  0  0  0  0
   38.2250   30.6180   50.7290 N   0  0  0  0  0  0  0  0  0  0  0  0
   37.7730   30.8370   49.4720 C   0  0  0  0  0  0  0  0  0  0  0  0
   38.5210   31.4690   48.6830 O   0  0  0  0  0  0  0  0  0  0  0  0
   39.1480   30.9270   51.1070 H   0  0  0  0  0  0  0  0  0  0  0  0
  1  4  1  6  0  0  0
  1  2  1  0  0  0  0
  1  3  1  0  0  0  0
  1 27  1  0  0  0  0
  2  3  1  0  0  0  0
  2  6  1  0  0  0  0
  3  7  1  1  0  0  0
  5  2  1  0  0  0  0
  8  3  1  0  0  0  0
  9  8  2  0  0  0  0
 10  9  1  0  0  0  0
 11 10  2  0  0  0  0
 11 12  1  0  0  0  0
 12 17  1  0  0  0  0
 13 12  2  0  0  0  0
 13 14  1  0  0  0  0
 14 15  2  0  0  0  0
 15 16  1  0  0  0  0
 15 23  1  0  0  0  0
 16 24  1  0  0  0  0
 17  8  1  0  0  0  0
 17 16  2  0  0  0  0
 18  9  1  0  0  0  0
 19 10  1  0  0  0  0
 20 11  1  0  0  0  0
 21 13  1  0  0  0  0
 22 14  1  0  0  0  0
 25 30  1  0  0  0  0
 26 27  1  0  0  0  0
 26 25  2  0  0  0  0
 27 28  2  0  0  0  0
 28 29  1  0  0  0  0
 29 33  1  0  0  0  0
 30 29  2  0  0  0  0
 31 25  1  0  0  0  0
 32 26  1  0  0  0  0
 33 34  1  0  0  0  0
 33 36  1  0  0  0  0
 33 35  1  0  0  0  0
 36 39  1  0  0  0  0
 37 36  1  0  0  0  0
 38 36  1  0  0  0  0
 39 46  1  0  0  0  0
 39 40  1  0  0  0  0
 40 41  2  0  0  0  0
 41 43  1  0  0  0  0
 41 42  1  0  0  0  0
 43 44  2  0  0  0  0
 45 48  1  0  0  0  0
 45 43  1  0  0  0  0
 46 45  1  0  0  0  0
 47 46  2  0  0  0  0
M  END
>  <minimizedAffinity>
-5.5489583

>  <minimizedRMSD>
4.2534318

$$$$
