
 OpenBabel03262522243D

 36 38  0  0  0  0  0  0  0  0999 V2000
   37.7720   30.7340   49.6120 C   0  0  0  0  0  0  0  0  0  0  0  0
   37.8170   31.2000   48.2960 C   0  0  0  0  0  0  0  0  0  0  0  0
   36.7370   30.9120   47.4620 C   0  0  0  0  0  0  0  0  0  0  0  0
   35.7190   30.1990   47.9940 N   0  0  0  0  0  0  0  0  0  0  0  0
   35.7140   29.7800   49.2340 C   0  0  0  0  0  0  0  0  0  0  0  0
   36.7480   30.0320   50.1020 N   0  0  0  0  0  0  0  0  0  0  0  0
   38.5520   30.8930   50.3600 H   0  0  0  0  0  0  0  0  0  0  0  0
   36.7830   31.2800   46.4420 H   0  0  0  0  0  0  0  0  0  0  0  0
   38.9270   31.9050   47.9390 O   0  0  0  0  0  0  0  0  0  0  0  0
   39.3670   31.8230   46.6160 C   0  0  0  0  0  0  0  0  0  0  0  0
   39.6510   30.6760   45.8850 C   0  0  0  0  0  0  0  0  0  0  0  0
   40.0690   30.8000   44.6030 C   0  0  0  0  0  0  0  0  0  0  0  0
   40.2020   32.0470   44.0680 C   0  0  0  0  0  0  0  0  0  0  0  0
   39.9170   33.1830   44.8030 C   0  0  0  0  0  0  0  0  0  0  0  0
   39.5060   33.0090   46.0670 N   0  0  0  0  0  0  0  0  0  0  0  0
   39.4960   29.7560   46.4520 H   0  0  0  0  0  0  0  0  0  0  0  0
   40.2760   29.8700   44.0790 H   0  0  0  0  0  0  0  0  0  0  0  0
   40.5370   32.1500   43.0430 H   0  0  0  0  0  0  0  0  0  0  0  0
   40.0780   34.5460   44.1720 C   0  0  0  0  0  0  0  0  0  0  0  0
   40.3350   35.2820   44.9520 H   0  0  0  0  0  0  0  0  0  0  0  0
   40.9570   34.4420   43.4830 H   0  0  0  0  0  0  0  0  0  0  0  0
   39.1900   34.8160   43.5810 H   0  0  0  0  0  0  0  0  0  0  0  0
   34.2040   28.8590   49.6090 S   0  0  0  0  0  0  0  0  0  0  0  0
   33.1010   29.1610   48.1860 C   0  0  0  0  0  0  0  0  0  0  0  0
   33.4890   29.9790   47.5510 H   0  0  0  0  0  0  0  0  0  0  0  0
   32.0720   29.3730   48.5600 H   0  0  0  0  0  0  0  0  0  0  0  0
   33.0420   27.9220   47.4350 N   0  0  0  0  0  0  0  0  0  0  0  0
   33.8880   27.5740   46.4290 C   0  0  0  0  0  3  0  0  0  0  0  0
   33.7220   26.3620   45.7950 C   0  0  0  0  0  0  0  0  0  0  0  0
   34.4150   26.0960   44.9820 H   0  0  0  0  0  0  0  0  0  0  0  0
   32.7340   25.4610   46.1210 C   0  0  0  0  0  0  0  0  0  0  0  0
   32.5710   24.3550   45.5530 O   0  0  0  0  0  0  0  0  0  0  0  0
   31.9100   25.8250   47.1170 N   0  0  0  0  0  0  0  0  0  0  0  0
   32.0700   27.0170   47.7430 C   0  0  0  0  0  0  0  0  0  0  0  0
   31.2680   27.3170   48.6780 O   0  0  0  0  0  0  0  0  0  0  0  0
   31.1120   25.2100   47.4530 H   0  0  0  0  0  0  0  0  0  0  0  0
  1  6  1  0  0  0  0
  1  7  1  0  0  0  0
  2  1  2  0  0  0  0
  3  4  2  0  0  0  0
  3  2  1  0  0  0  0
  4  5  1  0  0  0  0
  5 23  1  0  0  0  0
  5  6  2  0  0  0  0
  8  3  1  0  0  0  0
  9  2  1  0  0  0  0
 10  9  1  0  0  0  0
 11 16  1  0  0  0  0
 11 10  2  0  0  0  0
 12 11  1  0  0  0  0
 13 12  2  0  0  0  0
 13 14  1  0  0  0  0
 14 15  2  0  0  0  0
 15 10  1  0  0  0  0
 17 12  1  0  0  0  0
 18 13  1  0  0  0  0
 19 14  1  0  0  0  0
 19 20  1  0  0  0  0
 21 19  1  0  0  0  0
 22 19  1  0  0  0  0
 24 26  1  0  0  0  0
 24 23  1  0  0  0  0
 25 24  1  0  0  0  0
 27 34  1  0  0  0  0
 27 24  1  0  0  0  0
 28 27  1  0  0  0  0
 29 31  1  0  0  0  0
 29 28  2  0  0  0  0
 30 29  1  0  0  0  0
 31 33  1  0  0  0  0
 32 31  2  0  0  0  0
 33 36  1  0  0  0  0
 33 34  1  0  0  0  0
 34 35  2  0  0  0  0
M  END
>  <minimizedAffinity>
-4.41359854

>  <minimizedRMSD>
3.51068401

$$$$
