
 OpenBabel03272509353D

 48 52  0  0  1  0  0  0  0  0999 V2000
   37.0810   29.9190   43.1400 C   0  0  1  0  0  0  0  0  0  0  0  0
   38.2600   30.5300   43.8090 C   0  0  0  0  0  0  0  0  0  0  0  0
   38.3810   29.1070   43.5690 C   0  0  2  0  0  0  0  0  0  0  0  0
   36.9410   29.8370   42.0740 H   0  0  0  0  0  0  0  0  0  0  0  0
   38.5950   31.3900   43.2370 H   0  0  0  0  0  0  0  0  0  0  0  0
   38.0420   30.8720   44.8860 H   0  0  0  0  0  0  0  0  0  0  0  0
   38.0610   28.2610   44.1590 H   0  0  0  0  0  0  0  0  0  0  0  0
   39.3780   28.8200   42.4830 C   0  0  0  0  0  0  0  0  0  0  0  0
   40.4200   29.7560   42.5260 C   0  0  0  0  0  0  0  0  0  0  0  0
   41.4960   29.6220   41.6870 C   0  0  0  0  0  0  0  0  0  0  0  0
   41.5840   28.5610   40.7760 C   0  0  0  0  0  0  0  0  0  0  0  0
   40.5330   27.6540   40.7630 C   0  0  0  0  0  0  0  0  0  0  0  0
   40.4930   26.5800   39.9150 C   0  0  0  0  0  0  0  0  0  0  0  0
   39.4550   25.6770   39.8830 C   0  0  0  0  0  0  0  0  0  0  0  0
   38.3960   25.8580   40.7470 C   0  0  0  0  0  0  0  0  0  0  0  0
   38.4320   26.9380   41.6040 C   0  0  0  0  0  0  0  0  0  0  0  0
   39.4890   27.8200   41.6060 C   0  0  0  0  0  0  0  0  0  0  0  0
   40.6560   30.6330   43.0920 H   0  0  0  0  0  0  0  0  0  0  0  0
   42.3790   30.2360   41.5790 H   0  0  0  0  0  0  0  0  0  0  0  0
   42.3660   28.3350   40.0630 H   0  0  0  0  0  0  0  0  0  0  0  0
   41.3050   26.4080   39.2250 H   0  0  0  0  0  0  0  0  0  0  0  0
   39.4820   24.8450   39.1860 H   0  0  0  0  0  0  0  0  0  0  0  0
   37.5620   25.1900   40.7690 H   0  0  0  0  0  0  0  0  0  0  0  0
   37.5750   27.0660   42.2900 H   0  0  0  0  0  0  0  0  0  0  0  0
   33.7730   28.5490   44.3200 C   0  0  0  0  0  0  0  0  0  0  0  0
   34.8850   28.8490   43.4820 C   0  0  0  0  0  0  0  0  0  0  0  0
   35.9140   29.5830   43.9960 C   0  0  0  0  0  0  0  0  0  0  0  0
   35.7920   29.9830   45.3100 N   0  0  0  0  0  0  0  0  0  0  0  0
   34.7450   29.6980   46.0920 C   0  0  0  0  0  0  0  0  0  0  0  0
   33.7180   28.9790   45.6130 N   0  0  0  0  0  0  0  0  0  0  0  0
   32.9720   27.9660   43.8860 H   0  0  0  0  0  0  0  0  0  0  0  0
   34.8780   28.4830   42.4640 H   0  0  0  0  0  0  0  0  0  0  0  0
   34.7650   30.1900   47.5040 C   0  0  0  0  0  0  0  0  0  0  0  0
   34.0090   30.9750   47.6970 H   0  0  0  0  0  0  0  0  0  0  0  0
   34.6290   29.2840   48.1290 H   0  0  0  0  0  0  0  0  0  0  0  0
   36.1810   30.7280   47.7730 C   0  0  0  0  0  0  0  0  0  0  0  0
   36.8300   30.2150   47.0150 H   0  0  0  0  0  0  0  0  0  0  0  0
   36.1800   31.7930   47.4860 H   0  0  0  0  0  0  0  0  0  0  0  0
   36.6200   30.4530   49.1100 N   0  0  0  0  0  0  0  0  0  0  0  0
   35.7520   29.7540   49.8970 C   0  0  0  0  0  3  0  0  0  0  0  0
   36.1280   29.4580   51.2130 C   0  0  0  0  0  0  0  0  0  0  0  0
   35.5170   28.9200   51.8960 H   0  0  0  0  0  0  0  0  0  0  0  0
   37.3770   29.9250   51.5690 C   0  0  0  0  0  0  0  0  0  0  0  0
   37.7420   29.6680   52.7660 O   0  0  0  0  0  0  0  0  0  0  0  0
   38.2490   30.6160   50.8120 N   0  0  0  0  0  0  0  0  0  0  0  0
   37.8260   30.8700   49.5510 C   0  0  0  0  0  0  0  0  0  0  0  0
   38.5950   31.5110   48.7920 O   0  0  0  0  0  0  0  0  0  0  0  0
   39.1660   30.9070   51.2160 H   0  0  0  0  0  0  0  0  0  0  0  0
  1  4  1  6  0  0  0
  1  3  1  0  0  0  0
  1  2  1  0  0  0  0
  1 27  1  0  0  0  0
  2  6  1  0  0  0  0
  3  2  1  0  0  0  0
  3  7  1  1  0  0  0
  5  2  1  0  0  0  0
  8  9  1  0  0  0  0
  8  3  1  0  0  0  0
  9 18  1  0  0  0  0
 10  9  2  0  0  0  0
 11 10  1  0  0  0  0
 12 11  2  0  0  0  0
 12 17  1  0  0  0  0
 13 12  1  0  0  0  0
 14 13  2  0  0  0  0
 14 15  1  0  0  0  0
 15 23  1  0  0  0  0
 15 16  2  0  0  0  0
 16 17  1  0  0  0  0
 16 24  1  0  0  0  0
 17  8  2  0  0  0  0
 19 10  1  0  0  0  0
 20 11  1  0  0  0  0
 21 13  1  0  0  0  0
 22 14  1  0  0  0  0
 25 30  1  0  0  0  0
 26 27  1  0  0  0  0
 26 25  2  0  0  0  0
 27 28  2  0  0  0  0
 28 29  1  0  0  0  0
 29 33  1  0  0  0  0
 30 29  2  0  0  0  0
 31 25  1  0  0  0  0
 32 26  1  0  0  0  0
 33 34  1  0  0  0  0
 33 36  1  0  0  0  0
 33 35  1  0  0  0  0
 36 39  1  0  0  0  0
 37 36  1  0  0  0  0
 38 36  1  0  0  0  0
 39 46  1  0  0  0  0
 39 40  1  0  0  0  0
 40 41  2  0  0  0  0
 41 43  1  0  0  0  0
 41 42  1  0  0  0  0
 43 44  2  0  0  0  0
 45 48  1  0  0  0  0
 45 43  1  0  0  0  0
 46 45  1  0  0  0  0
 47 46  2  0  0  0  0
M  END
>  <minimizedAffinity>
-5.77816391

>  <minimizedRMSD>
4.42621183

$$$$
