
 OpenBabel03272509353D

 48 52  0  0  1  0  0  0  0  0999 V2000
   38.8730   30.9660   46.4200 C   0  0  1  0  0  0  0  0  0  0  0  0
   39.1390   32.0300   47.4250 C   0  0  0  0  0  0  0  0  0  0  0  0
   37.7530   31.6210   47.3420 C   0  0  2  0  0  0  0  0  0  0  0  0
   38.9180   29.9050   46.6070 H   0  0  0  0  0  0  0  0  0  0  0  0
   39.9470   31.7160   48.0790 H   0  0  0  0  0  0  0  0  0  0  0  0
   39.4270   33.0390   46.9510 H   0  0  0  0  0  0  0  0  0  0  0  0
   36.9540   31.9590   46.6980 H   0  0  0  0  0  0  0  0  0  0  0  0
   37.3420   30.8350   48.5530 C   0  0  0  0  0  0  0  0  0  0  0  0
   38.1980   31.1220   49.6250 C   0  0  0  0  0  0  0  0  0  0  0  0
   37.9450   30.5910   50.8640 C   0  0  0  0  0  0  0  0  0  0  0  0
   36.8390   29.7600   51.0910 C   0  0  0  0  0  0  0  0  0  0  0  0
   36.0150   29.5000   50.0050 C   0  0  0  0  0  0  0  0  0  0  0  0
   34.9100   28.6970   50.0910 C   0  0  0  0  0  0  0  0  0  0  0  0
   34.0870   28.4210   49.0230 C   0  0  0  0  0  0  0  0  0  0  0  0
   34.3870   28.9790   47.7980 C   0  0  0  0  0  0  0  0  0  0  0  0
   35.4990   29.7900   47.7070 C   0  0  0  0  0  0  0  0  0  0  0  0
   36.2980   30.0420   48.7990 C   0  0  0  0  0  0  0  0  0  0  0  0
   39.0790   31.7080   49.7840 H   0  0  0  0  0  0  0  0  0  0  0  0
   38.4850   30.6990   51.7950 H   0  0  0  0  0  0  0  0  0  0  0  0
   36.5230   29.2790   52.0070 H   0  0  0  0  0  0  0  0  0  0  0  0
   34.6460   28.2430   51.0350 H   0  0  0  0  0  0  0  0  0  0  0  0
   33.2240   27.7750   49.1560 H   0  0  0  0  0  0  0  0  0  0  0  0
   33.7860   28.8020   46.9330 H   0  0  0  0  0  0  0  0  0  0  0  0
   35.7220   30.2280   46.7170 H   0  0  0  0  0  0  0  0  0  0  0  0
   37.6070   32.6050   43.2700 C   0  0  0  0  0  0  0  0  0  0  0  0
   37.7210   32.2210   44.6370 C   0  0  0  0  0  0  0  0  0  0  0  0
   38.7390   31.3910   45.0020 C   0  0  0  0  0  0  0  0  0  0  0  0
   39.5950   30.9840   44.0000 N   0  0  0  0  0  0  0  0  0  0  0  0
   39.4830   31.3480   42.7180 C   0  0  0  0  0  0  0  0  0  0  0  0
   38.4900   32.1630   42.3300 N   0  0  0  0  0  0  0  0  0  0  0  0
   36.7900   33.2630   43.0090 H   0  0  0  0  0  0  0  0  0  0  0  0
   36.9930   32.6010   45.3420 H   0  0  0  0  0  0  0  0  0  0  0  0
   40.4990   30.8350   41.7480 C   0  0  0  0  0  0  0  0  0  0  0  0
   40.0670   30.5990   40.7570 H   0  0  0  0  0  0  0  0  0  0  0  0
   41.2860   31.6160   41.7110 H   0  0  0  0  0  0  0  0  0  0  0  0
   41.1260   29.5780   42.3770 C   0  0  0  0  0  0  0  0  0  0  0  0
   42.2270   29.6820   42.1840 H   0  0  0  0  0  0  0  0  0  0  0  0
   41.0090   29.6730   43.4700 H   0  0  0  0  0  0  0  0  0  0  0  0
   40.6050   28.3700   41.8070 N   0  0  0  0  0  0  0  0  0  0  0  0
   39.7030   27.6860   42.5680 C   0  0  0  0  0  3  0  0  0  0  0  0
   39.1610   26.4980   42.0620 C   0  0  0  0  0  0  0  0  0  0  0  0
   38.4530   25.9010   42.5850 H   0  0  0  0  0  0  0  0  0  0  0  0
   39.6210   26.1490   40.8090 C   0  0  0  0  0  0  0  0  0  0  0  0
   39.1410   25.0680   40.3260 O   0  0  0  0  0  0  0  0  0  0  0  0
   40.5100   26.8050   40.0410 N   0  0  0  0  0  0  0  0  0  0  0  0
   40.9950   27.9450   40.5880 C   0  0  0  0  0  0  0  0  0  0  0  0
   41.8300   28.6070   39.9190 O   0  0  0  0  0  0  0  0  0  0  0  0
   40.7670   26.4220   39.1060 H   0  0  0  0  0  0  0  0  0  0  0  0
  1  4  1  1  0  0  0
  1  3  1  0  0  0  0
  1  2  1  0  0  0  0
  2  5  1  0  0  0  0
  3  7  1  6  0  0  0
  3  2  1  0  0  0  0
  3  8  1  0  0  0  0
  6  2  1  0  0  0  0
  8 17  2  0  0  0  0
  8  9  1  0  0  0  0
  9 18  1  0  0  0  0
  9 10  2  0  0  0  0
 10 11  1  0  0  0  0
 10 19  1  0  0  0  0
 11 20  1  0  0  0  0
 12 13  1  0  0  0  0
 12 11  2  0  0  0  0
 13 21  1  0  0  0  0
 14 22  1  0  0  0  0
 14 13  2  0  0  0  0
 15 14  1  0  0  0  0
 16 15  2  0  0  0  0
 16 17  1  0  0  0  0
 17 12  1  0  0  0  0
 23 15  1  0  0  0  0
 24 16  1  0  0  0  0
 25 26  1  0  0  0  0
 26 27  2  0  0  0  0
 26 32  1  0  0  0  0
 27  1  1  0  0  0  0
 28 27  1  0  0  0  0
 29 28  2  0  0  0  0
 30 29  1  0  0  0  0
 30 25  2  0  0  0  0
 31 25  1  0  0  0  0
 33 36  1  0  0  0  0
 33 29  1  0  0  0  0
 34 33  1  0  0  0  0
 35 33  1  0  0  0  0
 36 38  1  0  0  0  0
 37 36  1  0  0  0  0
 39 36  1  0  0  0  0
 39 40  1  0  0  0  0
 41 40  2  0  0  0  0
 41 42  1  0  0  0  0
 43 41  1  0  0  0  0
 44 43  2  0  0  0  0
 45 46  1  0  0  0  0
 45 43  1  0  0  0  0
 46 39  1  0  0  0  0
 47 46  2  0  0  0  0
 48 45  1  0  0  0  0
M  END
>  <minimizedAffinity>
-7.79263353

>  <minimizedRMSD>
9.452878

$$$$
