
 OpenBabel03262522253D

 36 38  0  0  0  0  0  0  0  0999 V2000
   36.2990   27.7700   32.6530 C   0  0  0  0  0  0  0  0  0  0  0  0
   36.1750   28.5980   33.7720 C   0  0  0  0  0  0  0  0  0  0  0  0
   36.6960   28.1440   34.9840 C   0  0  0  0  0  0  0  0  0  0  0  0
   37.2880   26.9290   34.9850 N   0  0  0  0  0  0  0  0  0  0  0  0
   37.3850   26.1820   33.9150 C   0  0  0  0  0  0  0  0  0  0  0  0
   36.8920   26.5740   32.6950 N   0  0  0  0  0  0  0  0  0  0  0  0
   35.9340   28.0100   31.6530 H   0  0  0  0  0  0  0  0  0  0  0  0
   36.5940   28.7970   35.8450 H   0  0  0  0  0  0  0  0  0  0  0  0
   35.5480   29.7920   33.5770 O   0  0  0  0  0  0  0  0  0  0  0  0
   35.1540   30.5240   34.6990 C   0  0  0  0  0  0  0  0  0  0  0  0
   35.9120   31.4310   35.4300 C   0  0  0  0  0  0  0  0  0  0  0  0
   35.3500   32.0500   36.4960 C   0  0  0  0  0  0  0  0  0  0  0  0
   34.0590   31.7620   36.8220 C   0  0  0  0  0  0  0  0  0  0  0  0
   33.3120   30.8580   36.0890 C   0  0  0  0  0  0  0  0  0  0  0  0
   33.9110   30.2720   35.0430 N   0  0  0  0  0  0  0  0  0  0  0  0
   36.9270   31.5530   35.0440 H   0  0  0  0  0  0  0  0  0  0  0  0
   35.9890   32.7490   37.0300 H   0  0  0  0  0  0  0  0  0  0  0  0
   33.6060   32.2540   37.6740 H   0  0  0  0  0  0  0  0  0  0  0  0
   31.8830   30.5680   36.4850 C   0  0  0  0  0  0  0  0  0  0  0  0
   31.6260   29.5350   36.1970 H   0  0  0  0  0  0  0  0  0  0  0  0
   31.8760   30.6340   37.6050 H   0  0  0  0  0  0  0  0  0  0  0  0
   31.1980   31.3260   36.0770 H   0  0  0  0  0  0  0  0  0  0  0  0
   38.2310   24.6250   34.2750 S   0  0  0  0  0  0  0  0  0  0  0  0
   38.3780   24.5780   36.0940 C   0  0  0  0  0  0  0  0  0  0  0  0
   37.4210   24.2800   36.5620 H   0  0  0  0  0  0  0  0  0  0  0  0
   38.7310   25.5710   36.4570 H   0  0  0  0  0  0  0  0  0  0  0  0
   39.4140   23.6110   36.4030 N   0  0  0  0  0  0  0  0  0  0  0  0
   40.4460   23.2780   35.5820 C   0  0  0  0  0  3  0  0  0  0  0  0
   41.3650   22.3390   35.9980 C   0  0  0  0  0  0  0  0  0  0  0  0
   42.1940   22.0800   35.3220 H   0  0  0  0  0  0  0  0  0  0  0  0
   41.3040   21.7030   37.2180 C   0  0  0  0  0  0  0  0  0  0  0  0
   42.1330   20.8480   37.6100 O   0  0  0  0  0  0  0  0  0  0  0  0
   40.2770   22.0470   38.0120 N   0  0  0  0  0  0  0  0  0  0  0  0
   39.3710   22.9710   37.6060 C   0  0  0  0  0  0  0  0  0  0  0  0
   38.4190   23.2630   38.3890 O   0  0  0  0  0  0  0  0  0  0  0  0
   40.1310   21.6210   38.9750 H   0  0  0  0  0  0  0  0  0  0  0  0
  1  6  2  0  0  0  0
  1  2  1  0  0  0  0
  2  3  2  0  0  0  0
  3  4  1  0  0  0  0
  3  8  1  0  0  0  0
  5 23  1  0  0  0  0
  5  4  2  0  0  0  0
  6  5  1  0  0  0  0
  7  1  1  0  0  0  0
  9  2  1  0  0  0  0
  9 10  1  0  0  0  0
 10 15  2  0  0  0  0
 10 11  1  0  0  0  0
 11 12  2  0  0  0  0
 12 13  1  0  0  0  0
 12 17  1  0  0  0  0
 13 18  1  0  0  0  0
 14 19  1  0  0  0  0
 14 13  2  0  0  0  0
 15 14  1  0  0  0  0
 16 11  1  0  0  0  0
 19 21  1  0  0  0  0
 20 19  1  0  0  0  0
 22 19  1  0  0  0  0
 23 24  1  0  0  0  0
 24 27  1  0  0  0  0
 24 26  1  0  0  0  0
 24 25  1  0  0  0  0
 27 34  1  0  0  0  0
 28 29  2  0  0  0  0
 28 27  1  0  0  0  0
 29 31  1  0  0  0  0
 30 29  1  0  0  0  0
 31 32  2  0  0  0  0
 31 33  1  0  0  0  0
 33 36  1  0  0  0  0
 34 33  1  0  0  0  0
 34 35  2  0  0  0  0
M  END
>  <minimizedAffinity>
-6.1332674

$$$$

 OpenBabel03262522253D

 36 38  0  0  0  0  0  0  0  0999 V2000
   36.1240   28.5110   33.4180 C   0  0  0  0  0  0  0  0  0  0  0  0
   36.6240   28.0280   32.2060 C   0  0  0  0  0  0  0  0  0  0  0  0
   37.6820   27.1190   32.2490 C   0  0  0  0  0  0  0  0  0  0  0  0
   38.1470   26.7710   33.4700 N   0  0  0  0  0  0  0  0  0  0  0  0
   37.6510   27.2460   34.5840 C   0  0  0  0  0  0  0  0  0  0  0  0
   36.6110   28.1420   34.6050 N   0  0  0  0  0  0  0  0  0  0  0  0
   35.3020   29.2230   33.5170 H   0  0  0  0  0  0  0  0  0  0  0  0
   38.0600   26.7510   31.3010 H   0  0  0  0  0  0  0  0  0  0  0  0
   36.0250   28.4920   31.0740 O   0  0  0  0  0  0  0  0  0  0  0  0
   36.7930   29.2370   30.1760 C   0  0  0  0  0  0  0  0  0  0  0  0
   37.4050   28.7940   29.0100 C   0  0  0  0  0  0  0  0  0  0  0  0
   38.1130   29.6740   28.2630 C   0  0  0  0  0  0  0  0  0  0  0  0
   38.2060   30.9690   28.6790 C   0  0  0  0  0  0  0  0  0  0  0  0
   37.5940   31.4020   29.8400 C   0  0  0  0  0  0  0  0  0  0  0  0
   36.9040   30.4940   30.5460 N   0  0  0  0  0  0  0  0  0  0  0  0
   37.2380   27.7330   28.8130 H   0  0  0  0  0  0  0  0  0  0  0  0
   38.5700   29.2720   27.3620 H   0  0  0  0  0  0  0  0  0  0  0  0
   38.7730   31.6760   28.0840 H   0  0  0  0  0  0  0  0  0  0  0  0
   37.7230   32.8460   30.2650 C   0  0  0  0  0  0  0  0  0  0  0  0
   37.6720   32.9100   31.3650 H   0  0  0  0  0  0  0  0  0  0  0  0
   38.7530   33.1500   29.9420 H   0  0  0  0  0  0  0  0  0  0  0  0
   36.9850   33.4770   29.7480 H   0  0  0  0  0  0  0  0  0  0  0  0
   38.5090   26.5700   36.0250 S   0  0  0  0  0  0  0  0  0  0  0  0
   37.7440   24.9360   36.3060 C   0  0  0  0  0  0  0  0  0  0  0  0
   37.1700   24.6090   35.4190 H   0  0  0  0  0  0  0  0  0  0  0  0
   37.1090   24.9840   37.2220 H   0  0  0  0  0  0  0  0  0  0  0  0
   38.8270   24.0110   36.5770 N   0  0  0  0  0  0  0  0  0  0  0  0
   39.8710   23.7590   35.7430 C   0  0  0  0  0  3  0  0  0  0  0  0
   40.8360   22.8520   36.1220 C   0  0  0  0  0  0  0  0  0  0  0  0
   41.6740   22.6580   35.4350 H   0  0  0  0  0  0  0  0  0  0  0  0
   40.8110   22.1700   37.3180 C   0  0  0  0  0  0  0  0  0  0  0  0
   41.6830   21.3420   37.6770 O   0  0  0  0  0  0  0  0  0  0  0  0
   39.7720   22.4340   38.1260 N   0  0  0  0  0  0  0  0  0  0  0  0
   38.8210   23.3260   37.7560 C   0  0  0  0  0  0  0  0  0  0  0  0
   37.8580   23.5430   38.5520 O   0  0  0  0  0  0  0  0  0  0  0  0
   39.6510   21.9660   39.0730 H   0  0  0  0  0  0  0  0  0  0  0  0
  1  7  1  0  0  0  0
  1  6  1  0  0  0  0
  2  3  1  0  0  0  0
  2  1  2  0  0  0  0
  3  4  2  0  0  0  0
  4  5  1  0  0  0  0
  5  6  2  0  0  0  0
  5 23  1  0  0  0  0
  8  3  1  0  0  0  0
  9  2  1  0  0  0  0
 10 15  1  0  0  0  0
 10  9  1  0  0  0  0
 11 10  2  0  0  0  0
 12 13  2  0  0  0  0
 12 11  1  0  0  0  0
 13 14  1  0  0  0  0
 14 19  1  0  0  0  0
 14 15  2  0  0  0  0
 16 11  1  0  0  0  0
 17 12  1  0  0  0  0
 18 13  1  0  0  0  0
 19 20  1  0  0  0  0
 21 19  1  0  0  0  0
 22 19  1  0  0  0  0
 23 24  1  0  0  0  0
 24 27  1  0  0  0  0
 24 26  1  0  0  0  0
 25 24  1  0  0  0  0
 27 34  1  0  0  0  0
 28 29  2  0  0  0  0
 28 27  1  0  0  0  0
 29 31  1  0  0  0  0
 30 29  1  0  0  0  0
 31 32  2  0  0  0  0
 31 33  1  0  0  0  0
 33 36  1  0  0  0  0
 34 33  1  0  0  0  0
 34 35  2  0  0  0  0
M  END
>  <minimizedAffinity>
-5.74484253

$$$$

 OpenBabel03262522253D

 36 38  0  0  0  0  0  0  0  0999 V2000
   36.7840   28.1580   34.6770 C   0  0  0  0  0  0  0  0  0  0  0  0
   36.2890   28.3790   33.3900 C   0  0  0  0  0  0  0  0  0  0  0  0
   36.4310   27.3580   32.4490 C   0  0  0  0  0  0  0  0  0  0  0  0
   37.0410   26.2230   32.8570 N   0  0  0  0  0  0  0  0  0  0  0  0
   37.4910   26.0530   34.0750 C   0  0  0  0  0  0  0  0  0  0  0  0
   37.3800   27.0210   35.0430 N   0  0  0  0  0  0  0  0  0  0  0  0
   36.7340   28.8750   35.4990 H   0  0  0  0  0  0  0  0  0  0  0  0
   36.0420   27.5420   31.4530 H   0  0  0  0  0  0  0  0  0  0  0  0
   35.7030   29.5870   33.1630 O   0  0  0  0  0  0  0  0  0  0  0  0
   34.6660   29.9900   34.0080 C   0  0  0  0  0  0  0  0  0  0  0  0
   34.7090   30.9590   35.0030 C   0  0  0  0  0  0  0  0  0  0  0  0
   33.5900   31.2120   35.7230 C   0  0  0  0  0  0  0  0  0  0  0  0
   32.4560   30.5080   35.4520 C   0  0  0  0  0  0  0  0  0  0  0  0
   32.4220   29.5450   34.4590 C   0  0  0  0  0  0  0  0  0  0  0  0
   33.5540   29.3310   33.7740 N   0  0  0  0  0  0  0  0  0  0  0  0
   35.6880   31.4340   35.0990 H   0  0  0  0  0  0  0  0  0  0  0  0
   33.6820   31.9800   36.4880 H   0  0  0  0  0  0  0  0  0  0  0  0
   31.5590   30.7070   36.0260 H   0  0  0  0  0  0  0  0  0  0  0  0
   31.1430   28.7870   34.1910 C   0  0  0  0  0  0  0  0  0  0  0  0
   31.3870   27.7810   33.8120 H   0  0  0  0  0  0  0  0  0  0  0  0
   30.6580   28.6760   35.1970 H   0  0  0  0  0  0  0  0  0  0  0  0
   30.4740   29.3600   33.5330 H   0  0  0  0  0  0  0  0  0  0  0  0
   38.2470   24.4230   34.2740 S   0  0  0  0  0  0  0  0  0  0  0  0
   38.2490   24.1210   36.0750 C   0  0  0  0  0  0  0  0  0  0  0  0
   37.2970   23.6620   36.4000 H   0  0  0  0  0  0  0  0  0  0  0  0
   38.4570   25.0790   36.6050 H   0  0  0  0  0  0  0  0  0  0  0  0
   39.3590   23.2270   36.3450 N   0  0  0  0  0  0  0  0  0  0  0  0
   40.2550   22.7870   35.4210 C   0  0  0  0  0  3  0  0  0  0  0  0
   41.2650   21.9360   35.8120 C   0  0  0  0  0  0  0  0  0  0  0  0
   41.9830   21.5870   35.0520 H   0  0  0  0  0  0  0  0  0  0  0  0
   41.4310   21.4940   37.1060 C   0  0  0  0  0  0  0  0  0  0  0  0
   42.3470   20.7200   37.4760 O   0  0  0  0  0  0  0  0  0  0  0  0
   40.5350   21.9410   38.0010 N   0  0  0  0  0  0  0  0  0  0  0  0
   39.5400   22.7780   37.6200 C   0  0  0  0  0  0  0  0  0  0  0  0
   38.7180   23.1750   38.5000 O   0  0  0  0  0  0  0  0  0  0  0  0
   40.5660   21.6660   39.0270 H   0  0  0  0  0  0  0  0  0  0  0  0
  1  6  1  0  0  0  0
  1  7  1  0  0  0  0
  2  1  2  0  0  0  0
  3  4  2  0  0  0  0
  3  2  1  0  0  0  0
  4  5  1  0  0  0  0
  5 23  1  0  0  0  0
  5  6  2  0  0  0  0
  8  3  1  0  0  0  0
  9  2  1  0  0  0  0
  9 10  1  0  0  0  0
 10 11  1  0  0  0  0
 11 16  1  0  0  0  0
 11 12  2  0  0  0  0
 12 17  1  0  0  0  0
 13 12  1  0  0  0  0
 13 18  1  0  0  0  0
 14 13  2  0  0  0  0
 15 10  2  0  0  0  0
 15 14  1  0  0  0  0
 19 14  1  0  0  0  0
 19 21  1  0  0  0  0
 20 19  1  0  0  0  0
 22 19  1  0  0  0  0
 23 24  1  0  0  0  0
 24 27  1  0  0  0  0
 24 25  1  0  0  0  0
 24 26  1  0  0  0  0
 27 34  1  0  0  0  0
 28 29  2  0  0  0  0
 28 27  1  0  0  0  0
 29 31  1  0  0  0  0
 30 29  1  0  0  0  0
 31 32  2  0  0  0  0
 31 33  1  0  0  0  0
 33 36  1  0  0  0  0
 34 33  1  0  0  0  0
 34 35  2  0  0  0  0
M  END
>  <minimizedAffinity>
-5.62506771

$$$$

 OpenBabel03262522253D

 36 38  0  0  0  0  0  0  0  0999 V2000
   35.9440   28.2740   31.8270 C   0  0  0  0  0  0  0  0  0  0  0  0
   36.0660   28.9150   33.0630 C   0  0  0  0  0  0  0  0  0  0  0  0
   36.5600   28.1750   34.1380 C   0  0  0  0  0  0  0  0  0  0  0  0
   36.8870   26.8850   33.9020 N   0  0  0  0  0  0  0  0  0  0  0  0
   36.7580   26.3200   32.7280 C   0  0  0  0  0  0  0  0  0  0  0  0
   36.2780   26.9960   31.6330 N   0  0  0  0  0  0  0  0  0  0  0  0
   35.5720   28.7420   30.9130 H   0  0  0  0  0  0  0  0  0  0  0  0
   36.6510   28.6840   35.0920 H   0  0  0  0  0  0  0  0  0  0  0  0
   35.6880   30.2230   33.1090 O   0  0  0  0  0  0  0  0  0  0  0  0
   35.2650   30.7480   34.3320 C   0  0  0  0  0  0  0  0  0  0  0  0
   35.9960   31.5290   35.2190 C   0  0  0  0  0  0  0  0  0  0  0  0
   35.4070   31.9480   36.3650 C   0  0  0  0  0  0  0  0  0  0  0  0
   34.1170   31.5890   36.6150 C   0  0  0  0  0  0  0  0  0  0  0  0
   33.3970   30.8120   35.7270 C   0  0  0  0  0  0  0  0  0  0  0  0
   34.0220   30.4210   34.6060 N   0  0  0  0  0  0  0  0  0  0  0  0
   37.0140   31.7300   34.8780 H   0  0  0  0  0  0  0  0  0  0  0  0
   36.0260   32.5560   37.0210 H   0  0  0  0  0  0  0  0  0  0  0  0
   33.6430   31.9220   37.5310 H   0  0  0  0  0  0  0  0  0  0  0  0
   31.9680   30.4370   36.0420 C   0  0  0  0  0  0  0  0  0  0  0  0
   31.7340   29.4630   35.5790 H   0  0  0  0  0  0  0  0  0  0  0  0
   31.9430   30.3110   37.1570 H   0  0  0  0  0  0  0  0  0  0  0  0
   31.2760   31.2420   35.7580 H   0  0  0  0  0  0  0  0  0  0  0  0
   37.2850   24.5910   32.7700 S   0  0  0  0  0  0  0  0  0  0  0  0
   38.8510   24.5980   33.7090 C   0  0  0  0  0  0  0  0  0  0  0  0
   39.3240   25.5980   33.6830 H   0  0  0  0  0  0  0  0  0  0  0  0
   39.5220   23.8050   33.3050 H   0  0  0  0  0  0  0  0  0  0  0  0
   38.5200   24.2320   35.0730 N   0  0  0  0  0  0  0  0  0  0  0  0
   38.2460   25.1080   36.0770 C   0  0  0  0  0  3  0  0  0  0  0  0
   37.9460   24.6260   37.3320 C   0  0  0  0  0  0  0  0  0  0  0  0
   37.7280   25.3490   38.1340 H   0  0  0  0  0  0  0  0  0  0  0  0
   37.9040   23.2860   37.6420 C   0  0  0  0  0  0  0  0  0  0  0  0
   37.6310   22.8320   38.7800 O   0  0  0  0  0  0  0  0  0  0  0  0
   38.1770   22.4390   36.6370 N   0  0  0  0  0  0  0  0  0  0  0  0
   38.4730   22.9090   35.4000 C   0  0  0  0  0  0  0  0  0  0  0  0
   38.7240   22.0720   34.4820 O   0  0  0  0  0  0  0  0  0  0  0  0
   38.1730   21.3830   36.7610 H   0  0  0  0  0  0  0  0  0  0  0  0
  1  2  1  0  0  0  0
  2  9  1  0  0  0  0
  2  3  2  0  0  0  0
  3  8  1  0  0  0  0
  4  3  1  0  0  0  0
  5 23  1  0  0  0  0
  5  4  2  0  0  0  0
  6  1  2  0  0  0  0
  6  5  1  0  0  0  0
  7  1  1  0  0  0  0
  9 10  1  0  0  0  0
 10 15  2  0  0  0  0
 10 11  1  0  0  0  0
 11 12  2  0  0  0  0
 12 13  1  0  0  0  0
 12 17  1  0  0  0  0
 13 18  1  0  0  0  0
 14 19  1  0  0  0  0
 14 13  2  0  0  0  0
 15 14  1  0  0  0  0
 16 11  1  0  0  0  0
 19 21  1  0  0  0  0
 20 19  1  0  0  0  0
 22 19  1  0  0  0  0
 23 24  1  0  0  0  0
 24 27  1  0  0  0  0
 25 24  1  0  0  0  0
 26 24  1  0  0  0  0
 27 34  1  0  0  0  0
 27 28  1  0  0  0  0
 28 29  2  0  0  0  0
 29 31  1  0  0  0  0
 29 30  1  0  0  0  0
 31 32  2  0  0  0  0
 33 36  1  0  0  0  0
 33 31  1  0  0  0  0
 34 33  1  0  0  0  0
 35 34  2  0  0  0  0
M  END
>  <minimizedAffinity>
-5.51000023

$$$$

 OpenBabel03262522253D

 36 38  0  0  0  0  0  0  0  0999 V2000
   36.5320   27.4900   32.6850 C   0  0  0  0  0  0  0  0  0  0  0  0
   36.3950   28.3520   33.7760 C   0  0  0  0  0  0  0  0  0  0  0  0
   36.8510   27.9130   35.0200 C   0  0  0  0  0  0  0  0  0  0  0  0
   37.3960   26.6770   35.0760 N   0  0  0  0  0  0  0  0  0  0  0  0
   37.5060   25.8980   34.0300 C   0  0  0  0  0  0  0  0  0  0  0  0
   37.0760   26.2750   32.7810 N   0  0  0  0  0  0  0  0  0  0  0  0
   36.2150   27.7160   31.6650 H   0  0  0  0  0  0  0  0  0  0  0  0
   36.7400   28.5920   35.8580 H   0  0  0  0  0  0  0  0  0  0  0  0
   35.8220   29.5630   33.5260 O   0  0  0  0  0  0  0  0  0  0  0  0
   35.2770   30.2730   34.5980 C   0  0  0  0  0  0  0  0  0  0  0  0
   35.9210   31.1810   35.4300 C   0  0  0  0  0  0  0  0  0  0  0  0
   35.2180   31.7740   36.4240 C   0  0  0  0  0  0  0  0  0  0  0  0
   33.9010   31.4610   36.5810 C   0  0  0  0  0  0  0  0  0  0  0  0
   33.2680   30.5570   35.7490 C   0  0  0  0  0  0  0  0  0  0  0  0
   34.0050   29.9960   34.7790 N   0  0  0  0  0  0  0  0  0  0  0  0
   36.9740   31.3240   35.1770 H   0  0  0  0  0  0  0  0  0  0  0  0
   35.7730   32.4760   37.0430 H   0  0  0  0  0  0  0  0  0  0  0  0
   33.3360   31.9340   37.3750 H   0  0  0  0  0  0  0  0  0  0  0  0
   31.8060   30.2390   35.9570 C   0  0  0  0  0  0  0  0  0  0  0  0
   31.6060   29.2060   35.6260 H   0  0  0  0  0  0  0  0  0  0  0  0
   31.6570   30.2880   37.0680 H   0  0  0  0  0  0  0  0  0  0  0  0
   31.1650   30.9920   35.4760 H   0  0  0  0  0  0  0  0  0  0  0  0
   38.2780   24.3220   34.4630 S   0  0  0  0  0  0  0  0  0  0  0  0
   38.4890   23.4470   32.8750 C   0  0  0  0  0  0  0  0  0  0  0  0
   39.4380   22.8790   32.8590 H   0  0  0  0  0  0  0  0  0  0  0  0
   38.4270   24.1840   32.0420 H   0  0  0  0  0  0  0  0  0  0  0  0
   37.3600   22.5470   32.7420 N   0  0  0  0  0  0  0  0  0  0  0  0
   36.9880   21.6140   33.6600 C   0  0  0  0  0  3  0  0  0  0  0  0
   35.8910   20.8190   33.4090 C   0  0  0  0  0  0  0  0  0  0  0  0
   35.6030   20.0680   34.1620 H   0  0  0  0  0  0  0  0  0  0  0  0
   35.1300   20.9100   32.2650 C   0  0  0  0  0  0  0  0  0  0  0  0
   34.1290   20.1940   32.0240 O   0  0  0  0  0  0  0  0  0  0  0  0
   35.5160   21.8370   31.3730 N   0  0  0  0  0  0  0  0  0  0  0  0
   36.5940   22.6210   31.6170 C   0  0  0  0  0  0  0  0  0  0  0  0
   36.9200   23.4830   30.7460 O   0  0  0  0  0  0  0  0  0  0  0  0
   35.0030   21.9960   30.4560 H   0  0  0  0  0  0  0  0  0  0  0  0
  1  6  2  0  0  0  0
  1  2  1  0  0  0  0
  2  3  2  0  0  0  0
  3  4  1  0  0  0  0
  3  8  1  0  0  0  0
  5 23  1  0  0  0  0
  5  4  2  0  0  0  0
  6  5  1  0  0  0  0
  7  1  1  0  0  0  0
  9  2  1  0  0  0  0
  9 10  1  0  0  0  0
 10 15  2  0  0  0  0
 10 11  1  0  0  0  0
 11 12  2  0  0  0  0
 12 13  1  0  0  0  0
 12 17  1  0  0  0  0
 13 18  1  0  0  0  0
 14 19  1  0  0  0  0
 14 13  2  0  0  0  0
 15 14  1  0  0  0  0
 16 11  1  0  0  0  0
 19 21  1  0  0  0  0
 20 19  1  0  0  0  0
 22 19  1  0  0  0  0
 24 23  1  0  0  0  0
 25 24  1  0  0  0  0
 26 24  1  0  0  0  0
 27 24  1  0  0  0  0
 27 28  1  0  0  0  0
 29 28  2  0  0  0  0
 29 30  1  0  0  0  0
 31 29  1  0  0  0  0
 32 31  2  0  0  0  0
 33 34  1  0  0  0  0
 33 31  1  0  0  0  0
 34 27  1  0  0  0  0
 35 34  2  0  0  0  0
 36 33  1  0  0  0  0
M  END
>  <minimizedAffinity>
-5.38618994

$$$$

 OpenBabel03262522253D

 36 38  0  0  0  0  0  0  0  0999 V2000
   36.5800   28.6030   32.2230 C   0  0  0  0  0  0  0  0  0  0  0  0
   35.9900   28.9240   33.4470 C   0  0  0  0  0  0  0  0  0  0  0  0
   36.3910   28.2080   34.5760 C   0  0  0  0  0  0  0  0  0  0  0  0
   37.3290   27.2510   34.3980 N   0  0  0  0  0  0  0  0  0  0  0  0
   37.8590   26.9790   33.2330 C   0  0  0  0  0  0  0  0  0  0  0  0
   37.5050   27.6500   32.0880 N   0  0  0  0  0  0  0  0  0  0  0  0
   36.3530   29.0880   31.2710 H   0  0  0  0  0  0  0  0  0  0  0  0
   35.9250   28.4670   35.5210 H   0  0  0  0  0  0  0  0  0  0  0  0
   35.0620   29.9210   33.4320 O   0  0  0  0  0  0  0  0  0  0  0  0
   35.0140   30.7990   34.5170 C   0  0  0  0  0  0  0  0  0  0  0  0
   34.1140   30.7940   35.5750 C   0  0  0  0  0  0  0  0  0  0  0  0
   34.2300   31.7350   36.5420 C   0  0  0  0  0  0  0  0  0  0  0  0
   35.2250   32.6610   36.4470 C   0  0  0  0  0  0  0  0  0  0  0  0
   36.1170   32.6590   35.3910 C   0  0  0  0  0  0  0  0  0  0  0  0
   35.9620   31.7080   34.4590 N   0  0  0  0  0  0  0  0  0  0  0  0
   33.3760   29.9910   35.5080 H   0  0  0  0  0  0  0  0  0  0  0  0
   33.4980   31.6830   37.3450 H   0  0  0  0  0  0  0  0  0  0  0  0
   35.3200   33.4160   37.2190 H   0  0  0  0  0  0  0  0  0  0  0  0
   37.2070   33.7040   35.3250 C   0  0  0  0  0  0  0  0  0  0  0  0
   37.4560   33.9060   34.2700 H   0  0  0  0  0  0  0  0  0  0  0  0
   36.7440   34.6280   35.7610 H   0  0  0  0  0  0  0  0  0  0  0  0
   38.0720   33.4120   35.9380 H   0  0  0  0  0  0  0  0  0  0  0  0
   39.0750   25.6470   33.3590 S   0  0  0  0  0  0  0  0  0  0  0  0
   38.1620   24.2420   34.0850 C   0  0  0  0  0  0  0  0  0  0  0  0
   37.8470   23.5280   33.3020 H   0  0  0  0  0  0  0  0  0  0  0  0
   37.2970   24.6330   34.6700 H   0  0  0  0  0  0  0  0  0  0  0  0
   39.0640   23.6000   35.0220 N   0  0  0  0  0  0  0  0  0  0  0  0
   40.3550   23.9650   35.2440 C   0  0  0  0  0  3  0  0  0  0  0  0
   41.1060   23.2670   36.1640 C   0  0  0  0  0  0  0  0  0  0  0  0
   42.1500   23.5750   36.3330 H   0  0  0  0  0  0  0  0  0  0  0  0
   40.6230   22.2010   36.8890 C   0  0  0  0  0  0  0  0  0  0  0  0
   41.2940   21.5560   37.7310 O   0  0  0  0  0  0  0  0  0  0  0  0
   39.3460   21.8570   36.6530 N   0  0  0  0  0  0  0  0  0  0  0  0
   38.6040   22.5420   35.7490 C   0  0  0  0  0  0  0  0  0  0  0  0
   37.4040   22.1810   35.5590 O   0  0  0  0  0  0  0  0  0  0  0  0
   38.8690   21.0500   37.1550 H   0  0  0  0  0  0  0  0  0  0  0  0
  1  2  1  0  0  0  0
  2  3  2  0  0  0  0
  3  8  1  0  0  0  0
  4  3  1  0  0  0  0
  5 23  1  0  0  0  0
  5  4  2  0  0  0  0
  6  1  2  0  0  0  0
  6  5  1  0  0  0  0
  7  1  1  0  0  0  0
  9  2  1  0  0  0  0
  9 10  1  0  0  0  0
 10 11  1  0  0  0  0
 11 12  2  0  0  0  0
 12 17  1  0  0  0  0
 13 12  1  0  0  0  0
 13 18  1  0  0  0  0
 14 13  2  0  0  0  0
 15 10  2  0  0  0  0
 15 14  1  0  0  0  0
 16 11  1  0  0  0  0
 19 14  1  0  0  0  0
 19 21  1  0  0  0  0
 19 22  1  0  0  0  0
 20 19  1  0  0  0  0
 23 24  1  0  0  0  0
 24 26  1  0  0  0  0
 24 27  1  0  0  0  0
 25 24  1  0  0  0  0
 27 28  1  0  0  0  0
 27 34  1  0  0  0  0
 28 29  2  0  0  0  0
 29 30  1  0  0  0  0
 29 31  1  0  0  0  0
 31 32  2  0  0  0  0
 33 31  1  0  0  0  0
 33 36  1  0  0  0  0
 34 33  1  0  0  0  0
 35 34  2  0  0  0  0
M  END
>  <minimizedAffinity>
-5.36321545

$$$$

 OpenBabel03262522253D

 36 38  0  0  0  0  0  0  0  0999 V2000
   36.0170   24.6150   31.9010 C   0  0  0  0  0  0  0  0  0  0  0  0
   36.5310   23.3690   31.5350 C   0  0  0  0  0  0  0  0  0  0  0  0
   37.8680   23.0990   31.8300 C   0  0  0  0  0  0  0  0  0  0  0  0
   38.5700   24.0710   32.4540 N   0  0  0  0  0  0  0  0  0  0  0  0
   38.0520   25.2280   32.7810 C   0  0  0  0  0  0  0  0  0  0  0  0
   36.7430   25.5500   32.5170 N   0  0  0  0  0  0  0  0  0  0  0  0
   34.9900   24.9450   31.7260 H   0  0  0  0  0  0  0  0  0  0  0  0
   38.2550   22.1280   31.5410 H   0  0  0  0  0  0  0  0  0  0  0  0
   35.6700   22.5150   30.9140 O   0  0  0  0  0  0  0  0  0  0  0  0
   35.6450   21.1810   31.3280 C   0  0  0  0  0  0  0  0  0  0  0  0
   35.1070   20.6660   32.5010 C   0  0  0  0  0  0  0  0  0  0  0  0
   35.1790   19.3320   32.7270 C   0  0  0  0  0  0  0  0  0  0  0  0
   35.7790   18.5360   31.7980 C   0  0  0  0  0  0  0  0  0  0  0  0
   36.3120   19.0570   30.6330 C   0  0  0  0  0  0  0  0  0  0  0  0
   36.2160   20.3820   30.4540 N   0  0  0  0  0  0  0  0  0  0  0  0
   34.6630   21.4300   33.1420 H   0  0  0  0  0  0  0  0  0  0  0  0
   34.7420   18.9850   33.6600 H   0  0  0  0  0  0  0  0  0  0  0  0
   35.8390   17.4690   31.9760 H   0  0  0  0  0  0  0  0  0  0  0  0
   36.9680   18.1380   29.6300 C   0  0  0  0  0  0  0  0  0  0  0  0
   37.7550   18.6900   29.0890 H   0  0  0  0  0  0  0  0  0  0  0  0
   37.4590   17.3410   30.2480 H   0  0  0  0  0  0  0  0  0  0  0  0
   36.2200   17.6720   28.9720 H   0  0  0  0  0  0  0  0  0  0  0  0
   39.2700   26.2860   33.5970 S   0  0  0  0  0  0  0  0  0  0  0  0
   40.3310   25.1400   34.5430 C   0  0  0  0  0  0  0  0  0  0  0  0
   41.2250   25.6610   34.9350 H   0  0  0  0  0  0  0  0  0  0  0  0
   40.6000   24.2740   33.8960 H   0  0  0  0  0  0  0  0  0  0  0  0
   39.5240   24.6300   35.6350 N   0  0  0  0  0  0  0  0  0  0  0  0
   38.5710   25.3350   36.3020 C   0  0  0  0  0  3  0  0  0  0  0  0
   37.8750   24.7300   37.3250 C   0  0  0  0  0  0  0  0  0  0  0  0
   37.1060   25.3140   37.8560 H   0  0  0  0  0  0  0  0  0  0  0  0
   38.0850   23.4290   37.7240 C   0  0  0  0  0  0  0  0  0  0  0  0
   37.4590   22.8650   38.6530 O   0  0  0  0  0  0  0  0  0  0  0  0
   39.0310   22.7520   37.0520 N   0  0  0  0  0  0  0  0  0  0  0  0
   39.7180   23.3450   36.0450 C   0  0  0  0  0  0  0  0  0  0  0  0
   40.6010   22.6660   35.4390 O   0  0  0  0  0  0  0  0  0  0  0  0
   39.2780   21.7420   37.2740 H   0  0  0  0  0  0  0  0  0  0  0  0
  1  6  1  0  0  0  0
  2  3  1  0  0  0  0
  2  1  2  0  0  0  0
  3  4  2  0  0  0  0
  4  5  1  0  0  0  0
  5 23  1  0  0  0  0
  6  5  2  0  0  0  0
  7  1  1  0  0  0  0
  8  3  1  0  0  0  0
  9 10  1  0  0  0  0
  9  2  1  0  0  0  0
 10 11  1  0  0  0  0
 11 12  2  0  0  0  0
 11 16  1  0  0  0  0
 12 17  1  0  0  0  0
 13 18  1  0  0  0  0
 13 12  1  0  0  0  0
 14 13  2  0  0  0  0
 15 14  1  0  0  0  0
 15 10  2  0  0  0  0
 19 21  1  0  0  0  0
 19 14  1  0  0  0  0
 20 19  1  0  0  0  0
 22 19  1  0  0  0  0
 23 24  1  0  0  0  0
 24 25  1  0  0  0  0
 24 27  1  0  0  0  0
 26 24  1  0  0  0  0
 27 34  1  0  0  0  0
 27 28  1  0  0  0  0
 28 29  2  0  0  0  0
 29 31  1  0  0  0  0
 29 30  1  0  0  0  0
 31 32  2  0  0  0  0
 33 36  1  0  0  0  0
 33 31  1  0  0  0  0
 34 33  1  0  0  0  0
 35 34  2  0  0  0  0
M  END
>  <minimizedAffinity>
-5.2939868

$$$$

 OpenBabel03262522253D

 36 38  0  0  0  0  0  0  0  0999 V2000
   35.6590   26.4500   31.5070 C   0  0  0  0  0  0  0  0  0  0  0  0
   36.3190   27.6090   31.9220 C   0  0  0  0  0  0  0  0  0  0  0  0
   37.5640   27.4700   32.5350 C   0  0  0  0  0  0  0  0  0  0  0  0
   38.0430   26.2140   32.6830 N   0  0  0  0  0  0  0  0  0  0  0  0
   37.3930   25.1510   32.2810 C   0  0  0  0  0  0  0  0  0  0  0  0
   36.1650   25.2250   31.6700 N   0  0  0  0  0  0  0  0  0  0  0  0
   34.6830   26.4260   31.0170 H   0  0  0  0  0  0  0  0  0  0  0  0
   38.0670   28.3780   32.8520 H   0  0  0  0  0  0  0  0  0  0  0  0
   35.6810   28.7890   31.6860 O   0  0  0  0  0  0  0  0  0  0  0  0
   34.9010   29.3370   32.7070 C   0  0  0  0  0  0  0  0  0  0  0  0
   33.5200   29.2700   32.8510 C   0  0  0  0  0  0  0  0  0  0  0  0
   32.9410   29.8680   33.9190 C   0  0  0  0  0  0  0  0  0  0  0  0
   33.7280   30.5200   34.8200 C   0  0  0  0  0  0  0  0  0  0  0  0
   35.1010   30.5820   34.6690 C   0  0  0  0  0  0  0  0  0  0  0  0
   35.6290   29.9740   33.5970 N   0  0  0  0  0  0  0  0  0  0  0  0
   33.0310   28.7130   32.0490 H   0  0  0  0  0  0  0  0  0  0  0  0
   31.8580   29.7830   33.9800 H   0  0  0  0  0  0  0  0  0  0  0  0
   33.2680   31.0000   35.6740 H   0  0  0  0  0  0  0  0  0  0  0  0
   35.9370   31.3150   35.6920 C   0  0  0  0  0  0  0  0  0  0  0  0
   36.8390   31.7210   35.2030 H   0  0  0  0  0  0  0  0  0  0  0  0
   35.2980   32.1760   36.0220 H   0  0  0  0  0  0  0  0  0  0  0  0
   36.1520   30.6750   36.5590 H   0  0  0  0  0  0  0  0  0  0  0  0
   38.3210   23.6410   32.6360 S   0  0  0  0  0  0  0  0  0  0  0  0
   39.6780   24.1690   33.7380 C   0  0  0  0  0  0  0  0  0  0  0  0
   39.9270   25.2340   33.5770 H   0  0  0  0  0  0  0  0  0  0  0  0
   40.5570   23.5030   33.5780 H   0  0  0  0  0  0  0  0  0  0  0  0
   39.2160   23.9590   35.0970 N   0  0  0  0  0  0  0  0  0  0  0  0
   38.4500   24.8290   35.8090 C   0  0  0  0  0  3  0  0  0  0  0  0
   38.0800   24.5060   37.0960 C   0  0  0  0  0  0  0  0  0  0  0  0
   37.4610   25.2220   37.6600 H   0  0  0  0  0  0  0  0  0  0  0  0
   38.4420   23.3340   37.7210 C   0  0  0  0  0  0  0  0  0  0  0  0
   38.1110   23.0260   38.8920 O   0  0  0  0  0  0  0  0  0  0  0  0
   39.1970   22.4900   36.9990 N   0  0  0  0  0  0  0  0  0  0  0  0
   39.5630   22.8040   35.7330 C   0  0  0  0  0  0  0  0  0  0  0  0
   40.2760   21.9760   35.0900 O   0  0  0  0  0  0  0  0  0  0  0  0
   39.5340   21.5560   37.3800 H   0  0  0  0  0  0  0  0  0  0  0  0
  1  6  2  0  0  0  0
  1  2  1  0  0  0  0
  2  3  2  0  0  0  0
  3  4  1  0  0  0  0
  3  8  1  0  0  0  0
  5 23  1  0  0  0  0
  5  4  2  0  0  0  0
  6  5  1  0  0  0  0
  7  1  1  0  0  0  0
  9  2  1  0  0  0  0
  9 10  1  0  0  0  0
 10 11  2  0  0  0  0
 10 15  1  0  0  0  0
 11 12  1  0  0  0  0
 12 17  1  0  0  0  0
 12 13  2  0  0  0  0
 13 18  1  0  0  0  0
 14 13  1  0  0  0  0
 14 19  1  0  0  0  0
 15 14  2  0  0  0  0
 16 11  1  0  0  0  0
 19 21  1  0  0  0  0
 19 22  1  0  0  0  0
 20 19  1  0  0  0  0
 23 24  1  0  0  0  0
 24 27  1  0  0  0  0
 25 24  1  0  0  0  0
 26 24  1  0  0  0  0
 27 34  1  0  0  0  0
 27 28  1  0  0  0  0
 28 29  2  0  0  0  0
 29 30  1  0  0  0  0
 29 31  1  0  0  0  0
 31 32  2  0  0  0  0
 33 36  1  0  0  0  0
 33 31  1  0  0  0  0
 34 33  1  0  0  0  0
 35 34  2  0  0  0  0
M  END
>  <minimizedAffinity>
-5.28477955

$$$$

 OpenBabel03262522253D

 36 38  0  0  0  0  0  0  0  0999 V2000
   36.2740   26.6660   31.0340 C   0  0  0  0  0  0  0  0  0  0  0  0
   36.6560   27.3820   32.1710 C   0  0  0  0  0  0  0  0  0  0  0  0
   37.2650   26.6820   33.2130 C   0  0  0  0  0  0  0  0  0  0  0  0
   37.4410   25.3520   33.0430 N   0  0  0  0  0  0  0  0  0  0  0  0
   37.0690   24.7160   31.9610 C   0  0  0  0  0  0  0  0  0  0  0  0
   36.4650   25.3510   30.9030 N   0  0  0  0  0  0  0  0  0  0  0  0
   35.7900   27.0970   30.1550 H   0  0  0  0  0  0  0  0  0  0  0  0
   37.5580   27.2500   34.0900 H   0  0  0  0  0  0  0  0  0  0  0  0
   36.3980   28.7200   32.1610 O   0  0  0  0  0  0  0  0  0  0  0  0
   35.4890   29.2260   33.0920 C   0  0  0  0  0  0  0  0  0  0  0  0
   35.7680   29.9310   34.2570 C   0  0  0  0  0  0  0  0  0  0  0  0
   34.7420   30.3440   35.0370 C   0  0  0  0  0  0  0  0  0  0  0  0
   33.4650   30.0550   34.6590 C   0  0  0  0  0  0  0  0  0  0  0  0
   33.1950   29.3550   33.4980 C   0  0  0  0  0  0  0  0  0  0  0  0
   34.2440   28.9670   32.7580 N   0  0  0  0  0  0  0  0  0  0  0  0
   36.8370   30.0820   34.4220 H   0  0  0  0  0  0  0  0  0  0  0  0
   35.0190   30.8900   35.9360 H   0  0  0  0  0  0  0  0  0  0  0  0
   32.6410   30.3840   35.2810 H   0  0  0  0  0  0  0  0  0  0  0  0
   31.7650   29.0560   33.1140 C   0  0  0  0  0  0  0  0  0  0  0  0
   31.7290   28.1150   32.5390 H   0  0  0  0  0  0  0  0  0  0  0  0
   31.2340   28.8930   34.0900 H   0  0  0  0  0  0  0  0  0  0  0  0
   31.3080   29.9110   32.5970 H   0  0  0  0  0  0  0  0  0  0  0  0
   37.4550   22.9530   32.0710 S   0  0  0  0  0  0  0  0  0  0  0  0
   38.3660   22.7660   33.6420 C   0  0  0  0  0  0  0  0  0  0  0  0
   38.7140   23.7470   34.0170 H   0  0  0  0  0  0  0  0  0  0  0  0
   39.2080   22.0520   33.4920 H   0  0  0  0  0  0  0  0  0  0  0  0
   37.4470   22.1620   34.5870 N   0  0  0  0  0  0  0  0  0  0  0  0
   36.4660   21.2750   34.2690 C   0  0  0  0  0  3  0  0  0  0  0  0
   35.6580   20.7750   35.2670 C   0  0  0  0  0  0  0  0  0  0  0  0
   34.8670   20.0580   34.9930 H   0  0  0  0  0  0  0  0  0  0  0  0
   35.7830   21.1230   36.5930 C   0  0  0  0  0  0  0  0  0  0  0  0
   35.0550   20.6750   37.5120 O   0  0  0  0  0  0  0  0  0  0  0  0
   36.7570   21.9990   36.8840 N   0  0  0  0  0  0  0  0  0  0  0  0
   37.5540   22.4930   35.9050 C   0  0  0  0  0  0  0  0  0  0  0  0
   38.4610   23.3180   36.2270 O   0  0  0  0  0  0  0  0  0  0  0  0
   36.9450   22.3390   37.8740 H   0  0  0  0  0  0  0  0  0  0  0  0
  1  2  1  0  0  0  0
  2  3  2  0  0  0  0
  3  8  1  0  0  0  0
  4  3  1  0  0  0  0
  5 23  1  0  0  0  0
  5  4  2  0  0  0  0
  6  1  2  0  0  0  0
  6  5  1  0  0  0  0
  7  1  1  0  0  0  0
  9  2  1  0  0  0  0
  9 10  1  0  0  0  0
 10 11  1  0  0  0  0
 11 16  1  0  0  0  0
 11 12  2  0  0  0  0
 12 17  1  0  0  0  0
 13 12  1  0  0  0  0
 13 18  1  0  0  0  0
 14 13  2  0  0  0  0
 15 10  2  0  0  0  0
 15 14  1  0  0  0  0
 19 14  1  0  0  0  0
 19 21  1  0  0  0  0
 20 19  1  0  0  0  0
 22 19  1  0  0  0  0
 23 24  1  0  0  0  0
 24 25  1  0  0  0  0
 24 27  1  0  0  0  0
 26 24  1  0  0  0  0
 27 34  1  0  0  0  0
 28 27  1  0  0  0  0
 28 29  2  0  0  0  0
 29 31  1  0  0  0  0
 30 29  1  0  0  0  0
 31 33  1  0  0  0  0
 31 32  2  0  0  0  0
 33 36  1  0  0  0  0
 34 35  2  0  0  0  0
 34 33  1  0  0  0  0
M  END
>  <minimizedAffinity>
-5.27001953

$$$$
