
 OpenBabel03272503493D

 37 39  0  0  1  0  0  0  0  0999 V2000
   33.2020   27.3330   45.8520 C   0  0  1  0  0  0  0  0  0  0  0  0
   33.9260   27.4610   47.2090 C   0  0  2  0  0  0  0  0  0  0  0  0
   33.7600   26.2400   47.7790 O   0  0  0  0  0  0  0  0  0  0  0  0
   34.0740   25.3490   46.7640 C   0  0  0  0  0  0  0  0  0  0  0  0
   33.5990   25.9320   45.4460 C   0  0  2  0  0  0  0  0  0  0  0  0
   33.6280   28.0930   45.1500 H   0  0  0  0  0  0  0  0  0  0  0  0
   34.9610   27.7710   46.9610 H   0  0  0  0  0  0  0  0  0  0  0  0
   33.4850   24.4270   46.9510 H   0  0  0  0  0  0  0  0  0  0  0  0
   35.1330   25.0660   46.7360 H   0  0  0  0  0  0  0  0  0  0  0  0
   32.6470   25.4440   45.1190 H   0  0  0  0  0  0  0  0  0  0  0  0
   31.8470   27.5330   46.0060 O   0  0  0  0  0  0  0  0  0  0  0  0
   31.5300   28.1410   45.2950 H   0  0  0  0  0  0  0  0  0  0  0  0
   33.2980   28.5160   47.8320 O   0  0  0  0  0  0  0  0  0  0  0  0
   35.3440   29.8180   46.7830 O   0  0  0  0  0  0  0  0  0  0  0  0
   34.0810   29.9900   47.6230 P   0  0  1  0  0  0  0  0  0  0  0  0
   33.1050   31.0470   46.7300 O   0  0  0  0  0  0  0  0  0  0  0  0
   32.2890   31.1980   47.2920 H   0  0  0  0  0  0  0  0  0  0  0  0
   34.3800   30.6200   49.1790 O   0  0  0  0  0  0  0  0  0  0  0  0
   35.6210   30.4950   49.7910 C   0  0  0  0  0  0  0  0  0  0  0  0
   35.9720   29.4800   50.7090 C   0  0  0  0  0  0  0  0  0  0  0  0
   37.2550   29.4890   51.2380 C   0  0  0  0  0  0  0  0  0  0  0  0
   38.1140   30.4730   50.8510 N   0  0  0  0  0  0  0  0  0  0  0  0
   37.7480   31.4330   49.9690 C   0  0  0  0  0  0  0  0  0  0  0  0
   36.4950   31.4470   49.4340 N   0  0  0  0  0  0  0  0  0  0  0  0
   35.2040   28.7790   50.9200 H   0  0  0  0  0  0  0  0  0  0  0  0
   37.5090   28.7080   51.9370 H   0  0  0  0  0  0  0  0  0  0  0  0
   38.4770   32.1920   49.6980 H   0  0  0  0  0  0  0  0  0  0  0  0
   34.5980   25.9570   44.5370 O   0  0  0  0  0  0  0  0  0  0  0  0
   36.7600   27.4390   42.6520 Br  0  0  0  0  0  0  0  0  0  0  0  0
   35.6690   25.9510   42.2790 C   0  0  0  0  0  0  0  0  0  0  0  0
   34.8390   25.5410   43.2880 C   0  0  0  0  0  0  0  0  0  0  0  0
   34.0320   24.4310   42.9970 C   0  0  0  0  0  0  0  0  0  0  0  0
   33.3010   23.9380   43.6480 H   0  0  0  0  0  0  0  0  0  0  0  0
   34.0730   23.7860   41.7540 C   0  0  0  0  0  0  0  0  0  0  0  0
   33.4740   22.9310   41.4810 H   0  0  0  0  0  0  0  0  0  0  0  0
   34.9430   24.2720   40.7990 C   0  0  0  0  0  3  0  0  0  0  0  0
   35.7560   25.3600   41.0380 C   0  0  0  0  0  3  0  0  0  0  0  0
  1  6  1  6  0  0  0
  1 11  1  0  0  0  0
  1  2  1  0  0  0  0
  2  7  1  6  0  0  0
  2  3  1  0  0  0  0
  2 13  1  0  0  0  0
  4  8  1  0  0  0  0
  4  3  1  0  0  0  0
  5 10  1  6  0  0  0
  5  1  1  0  0  0  0
  5  4  1  0  0  0  0
  9  4  1  0  0  0  0
 12 11  1  0  0  0  0
 15 14  2  6  0  0  0
 15 13  1  0  0  0  0
 15 18  1  0  0  0  0
 16 17  1  0  0  0  0
 16 15  1  0  0  0  0
 18 19  1  0  0  0  0
 19 20  1  0  0  0  0
 20 25  1  0  0  0  0
 20 21  2  0  0  0  0
 21 26  1  0  0  0  0
 22 21  1  0  0  0  0
 23 22  2  0  0  0  0
 24 19  2  0  0  0  0
 24 23  1  0  0  0  0
 27 23  1  0  0  0  0
 28  5  1  0  0  0  0
 30 29  1  0  0  0  0
 30 31  1  0  0  0  0
 31 28  1  0  0  0  0
 32 31  2  0  0  0  0
 32 33  1  0  0  0  0
 34 32  1  0  0  0  0
 35 34  1  0  0  0  0
 36 37  1  0  0  0  0
 36 34  2  0  0  0  0
 37 30  2  0  0  0  0
M  END
>  <minimizedAffinity>
-4.05124044

>  <minimizedRMSD>
0.280485004

$$$$
