
 OpenBabel03272504013D

 31 33  0  0  0  0  0  0  0  0999 V2000
   37.9260   24.0840   32.4920 C   0  0  0  0  0  0  0  0  0  0  0  0
   38.8570   25.1090   32.5570 C   0  0  0  0  0  0  0  0  0  0  0  0
   39.2300   25.2610   33.8660 C   0  0  0  0  0  0  0  0  0  0  0  0
   38.5420   24.3550   34.5640 N   0  0  0  0  0  0  0  0  0  0  0  0
   37.7820   23.6700   33.7550 N   0  0  0  0  0  0  0  0  0  0  0  0
   39.2480   25.7080   31.7390 H   0  0  0  0  0  0  0  0  0  0  0  0
   39.9350   25.9720   34.2340 H   0  0  0  0  0  0  0  0  0  0  0  0
   40.7770   22.3820   35.0590 Br  0  0  0  0  0  0  0  0  0  0  0  0
   39.5710   23.1980   36.3130 C   0  0  0  0  0  0  0  0  0  0  0  0
   38.5690   24.1040   35.9640 C   0  0  0  0  0  0  0  0  0  0  0  0
   37.7700   24.6190   36.9600 C   0  0  0  0  0  0  0  0  0  0  0  0
   37.0270   25.3080   36.5950 H   0  0  0  0  0  0  0  0  0  0  0  0
   37.9740   24.2320   38.2680 C   0  0  0  0  0  0  0  0  0  0  0  0
   37.3190   24.6660   39.0140 H   0  0  0  0  0  0  0  0  0  0  0  0
   38.9620   23.3370   38.6260 C   0  0  0  0  0  3  0  0  0  0  0  0
   39.7630   22.8230   37.6190 C   0  0  0  0  0  3  0  0  0  0  0  0
   37.3210   23.6800   31.2070 C   0  0  0  0  0  0  0  0  0  0  0  0
   37.1610   24.5840   30.5450 H   0  0  0  0  0  0  0  0  0  0  0  0
   38.0910   23.1210   30.6670 H   0  0  0  0  0  0  0  0  0  0  0  0
   35.9870   23.0550   31.3630 C   0  0  0  0  0  0  0  0  0  0  0  0
   35.5730   23.4300   32.3500 H   0  0  0  0  0  0  0  0  0  0  0  0
   35.2270   23.4460   30.6250 H   0  0  0  0  0  0  0  0  0  0  0  0
   35.8910   21.6220   31.3900 C   0  0  0  0  0  0  0  0  0  0  0  0
   34.9360   20.9920   32.1360 C   0  0  0  0  0  0  0  0  0  0  0  0
   34.8520   19.5820   32.1650 C   0  0  0  0  0  0  0  0  0  0  0  0
   35.7940   18.9170   31.3930 N   0  0  0  0  0  0  0  0  0  0  0  0
   36.7200   19.5820   30.6710 C   0  0  0  0  0  0  0  0  0  0  0  0
   36.7650   20.9400   30.6730 N   0  0  0  0  0  0  0  0  0  0  0  0
   34.1600   21.3970   32.7630 H   0  0  0  0  0  0  0  0  0  0  0  0
   34.1530   18.9940   32.7050 H   0  0  0  0  0  0  0  0  0  0  0  0
   37.4140   18.9780   30.0990 H   0  0  0  0  0  0  0  0  0  0  0  0
  1  2  1  0  0  0  0
  1  5  2  0  0  0  0
  2  3  2  0  0  0  0
  3  7  1  0  0  0  0
  3  4  1  0  0  0  0
  4 10  1  0  0  0  0
  5  4  1  0  0  0  0
  6  2  1  0  0  0  0
  8  9  1  0  0  0  0
  9 16  1  0  0  0  0
 10  9  2  0  0  0  0
 10 11  1  0  0  0  0
 11 13  2  0  0  0  0
 12 11  1  0  0  0  0
 13 15  1  0  0  0  0
 13 14  1  0  0  0  0
 16 15  2  0  0  0  0
 17 20  1  0  0  0  0
 17  1  1  0  0  0  0
 18 17  1  0  0  0  0
 19 17  1  0  0  0  0
 20 23  1  0  0  0  0
 20 21  1  0  0  0  0
 22 20  1  0  0  0  0
 23 24  1  0  0  0  0
 24 25  2  0  0  0  0
 24 29  1  0  0  0  0
 25 30  1  0  0  0  0
 26 25  1  0  0  0  0
 27 28  1  0  0  0  0
 27 26  2  0  0  0  0
 28 23  2  0  0  0  0
 31 27  1  0  0  0  0
M  END
>  <minimizedAffinity>
-5.17994547

$$$$

 OpenBabel03272504013D

 31 33  0  0  0  0  0  0  0  0999 V2000
   36.4270   28.2580   33.2880 C   0  0  0  0  0  0  0  0  0  0  0  0
   36.1840   29.1980   32.2990 C   0  0  0  0  0  0  0  0  0  0  0  0
   35.6080   30.2930   32.8870 C   0  0  0  0  0  0  0  0  0  0  0  0
   35.5080   30.0150   34.1890 N   0  0  0  0  0  0  0  0  0  0  0  0
   35.9900   28.8240   34.4170 N   0  0  0  0  0  0  0  0  0  0  0  0
   36.3980   29.1200   31.2370 H   0  0  0  0  0  0  0  0  0  0  0  0
   35.3060   31.1830   32.3840 H   0  0  0  0  0  0  0  0  0  0  0  0
   32.5480   29.4290   34.3410 Br  0  0  0  0  0  0  0  0  0  0  0  0
   33.6070   30.6380   35.3950 C   0  0  0  0  0  0  0  0  0  0  0  0
   34.9790   30.8250   35.2320 C   0  0  0  0  0  0  0  0  0  0  0  0
   35.6240   31.7240   36.0530 C   0  0  0  0  0  0  0  0  0  0  0  0
   36.6800   31.8000   35.8530 H   0  0  0  0  0  0  0  0  0  0  0  0
   34.9050   32.4110   37.0090 C   0  0  0  0  0  0  0  0  0  0  0  0
   35.4590   33.1060   37.6300 H   0  0  0  0  0  0  0  0  0  0  0  0
   33.5470   32.2340   37.1800 C   0  0  0  0  0  3  0  0  0  0  0  0
   32.9060   31.3290   36.3500 C   0  0  0  0  0  3  0  0  0  0  0  0
   37.0410   26.9530   32.9680 C   0  0  0  0  0  0  0  0  0  0  0  0
   36.2950   26.1170   33.1260 H   0  0  0  0  0  0  0  0  0  0  0  0
   37.1890   26.9410   31.8840 H   0  0  0  0  0  0  0  0  0  0  0  0
   38.1980   26.6280   33.8330 C   0  0  0  0  0  0  0  0  0  0  0  0
   39.0790   26.4640   33.1370 H   0  0  0  0  0  0  0  0  0  0  0  0
   38.5470   27.5050   34.4530 H   0  0  0  0  0  0  0  0  0  0  0  0
   38.1240   25.4750   34.6880 C   0  0  0  0  0  0  0  0  0  0  0  0
   37.9960   25.6070   36.0420 C   0  0  0  0  0  0  0  0  0  0  0  0
   37.9330   24.4690   36.8770 C   0  0  0  0  0  0  0  0  0  0  0  0
   38.0070   23.2480   36.2220 N   0  0  0  0  0  0  0  0  0  0  0  0
   38.1330   23.1670   34.8810 C   0  0  0  0  0  0  0  0  0  0  0  0
   38.1910   24.2870   34.1150 N   0  0  0  0  0  0  0  0  0  0  0  0
   37.9260   26.4900   36.6530 H   0  0  0  0  0  0  0  0  0  0  0  0
   37.8330   24.4580   37.9340 H   0  0  0  0  0  0  0  0  0  0  0  0
   38.1840   22.1710   34.4590 H   0  0  0  0  0  0  0  0  0  0  0  0
  1  5  2  0  0  0  0
  2  3  2  0  0  0  0
  2  1  1  0  0  0  0
  3  4  1  0  0  0  0
  4  5  1  0  0  0  0
  4 10  1  0  0  0  0
  6  2  1  0  0  0  0
  7  3  1  0  0  0  0
  8  9  1  0  0  0  0
  9 16  1  0  0  0  0
 10  9  2  0  0  0  0
 10 11  1  0  0  0  0
 11 13  2  0  0  0  0
 12 11  1  0  0  0  0
 13 15  1  0  0  0  0
 13 14  1  0  0  0  0
 16 15  2  0  0  0  0
 17 18  1  0  0  0  0
 17  1  1  0  0  0  0
 17 20  1  0  0  0  0
 19 17  1  0  0  0  0
 20 22  1  0  0  0  0
 20 23  1  0  0  0  0
 21 20  1  0  0  0  0
 23 24  1  0  0  0  0
 24 29  1  0  0  0  0
 24 25  2  0  0  0  0
 25 30  1  0  0  0  0
 26 25  1  0  0  0  0
 27 26  2  0  0  0  0
 28 23  2  0  0  0  0
 28 27  1  0  0  0  0
 31 27  1  0  0  0  0
M  END
>  <minimizedAffinity>
-5.12901402

$$$$

 OpenBabel03272504013D

 31 33  0  0  0  0  0  0  0  0999 V2000
   37.5460   24.8680   33.1800 C   0  0  0  0  0  0  0  0  0  0  0  0
   36.7420   25.3870   32.1770 C   0  0  0  0  0  0  0  0  0  0  0  0
   36.1260   24.3410   31.5440 C   0  0  0  0  0  0  0  0  0  0  0  0
   36.5510   23.2290   32.1480 N   0  0  0  0  0  0  0  0  0  0  0  0
   37.3800   23.5440   33.1040 N   0  0  0  0  0  0  0  0  0  0  0  0
   36.5970   26.4300   31.9100 H   0  0  0  0  0  0  0  0  0  0  0  0
   35.4440   24.4210   30.7270 H   0  0  0  0  0  0  0  0  0  0  0  0
   38.6830   22.1490   30.2990 Br  0  0  0  0  0  0  0  0  0  0  0  0
   37.1290   21.2710   31.0110 C   0  0  0  0  0  0  0  0  0  0  0  0
   36.2070   21.8770   31.8650 C   0  0  0  0  0  0  0  0  0  0  0  0
   35.1320   21.1380   32.3060 C   0  0  0  0  0  0  0  0  0  0  0  0
   34.4770   21.6900   32.9600 H   0  0  0  0  0  0  0  0  0  0  0  0
   34.9920   19.8270   31.9000 C   0  0  0  0  0  0  0  0  0  0  0  0
   34.1300   19.2890   32.2750 H   0  0  0  0  0  0  0  0  0  0  0  0
   35.8980   19.2170   31.0560 C   0  0  0  0  0  3  0  0  0  0  0  0
   36.9760   19.9660   30.6150 C   0  0  0  0  0  3  0  0  0  0  0  0
   38.3550   25.7510   34.0450 C   0  0  0  0  0  0  0  0  0  0  0  0
   39.4430   25.4420   34.0170 H   0  0  0  0  0  0  0  0  0  0  0  0
   38.3710   26.7300   33.5560 H   0  0  0  0  0  0  0  0  0  0  0  0
   37.9570   25.6910   35.4700 C   0  0  0  0  0  0  0  0  0  0  0  0
   38.2250   26.6980   35.9180 H   0  0  0  0  0  0  0  0  0  0  0  0
   36.8370   25.6600   35.6150 H   0  0  0  0  0  0  0  0  0  0  0  0
   38.5460   24.6900   36.3150 C   0  0  0  0  0  0  0  0  0  0  0  0
   38.0210   24.4030   37.5430 C   0  0  0  0  0  0  0  0  0  0  0  0
   38.6100   23.4220   38.3720 C   0  0  0  0  0  0  0  0  0  0  0  0
   39.7310   22.7970   37.8450 N   0  0  0  0  0  0  0  0  0  0  0  0
   40.2140   23.1140   36.6250 C   0  0  0  0  0  0  0  0  0  0  0  0
   39.6160   24.0640   35.8610 N   0  0  0  0  0  0  0  0  0  0  0  0
   37.1640   24.8140   38.0490 H   0  0  0  0  0  0  0  0  0  0  0  0
   38.2860   23.1220   39.3370 H   0  0  0  0  0  0  0  0  0  0  0  0
   41.0940   22.5720   36.2970 H   0  0  0  0  0  0  0  0  0  0  0  0
  1 17  1  0  0  0  0
  2  1  1  0  0  0  0
  3  4  1  0  0  0  0
  3  2  2  0  0  0  0
  4  5  1  0  0  0  0
  5  1  2  0  0  0  0
  6  2  1  0  0  0  0
  7  3  1  0  0  0  0
  8  9  1  0  0  0  0
  9 10  1  0  0  0  0
 10  4  1  0  0  0  0
 10 11  2  0  0  0  0
 11 12  1  0  0  0  0
 13 14  1  0  0  0  0
 13 11  1  0  0  0  0
 15 13  2  0  0  0  0
 16  9  2  0  0  0  0
 16 15  1  0  0  0  0
 17 20  1  0  0  0  0
 18 17  1  0  0  0  0
 19 17  1  0  0  0  0
 20 22  1  0  0  0  0
 20 21  1  0  0  0  0
 20 23  1  0  0  0  0
 23 24  1  0  0  0  0
 24 29  1  0  0  0  0
 24 25  2  0  0  0  0
 25 30  1  0  0  0  0
 26 25  1  0  0  0  0
 27 26  2  0  0  0  0
 28 23  2  0  0  0  0
 28 27  1  0  0  0  0
 31 27  1  0  0  0  0
M  END
>  <minimizedAffinity>
-5.10504866

$$$$

 OpenBabel03272504013D

 31 33  0  0  0  0  0  0  0  0999 V2000
   36.3750   28.6560   32.6470 C   0  0  0  0  0  0  0  0  0  0  0  0
   36.1080   29.7470   31.8340 C   0  0  0  0  0  0  0  0  0  0  0  0
   35.5270   30.7180   32.6040 C   0  0  0  0  0  0  0  0  0  0  0  0
   35.4470   30.2240   33.8420 N   0  0  0  0  0  0  0  0  0  0  0  0
   35.9450   29.0190   33.8600 N   0  0  0  0  0  0  0  0  0  0  0  0
   36.3100   29.8520   30.7720 H   0  0  0  0  0  0  0  0  0  0  0  0
   35.2080   31.6770   32.2620 H   0  0  0  0  0  0  0  0  0  0  0  0
   32.5280   29.4580   34.0020 Br  0  0  0  0  0  0  0  0  0  0  0  0
   33.5680   30.5540   35.1900 C   0  0  0  0  0  0  0  0  0  0  0  0
   34.9210   30.8390   35.0120 C   0  0  0  0  0  0  0  0  0  0  0  0
   35.5530   31.6400   35.9370 C   0  0  0  0  0  0  0  0  0  0  0  0
   36.5950   31.8040   35.7160 H   0  0  0  0  0  0  0  0  0  0  0  0
   34.8420   32.1370   37.0100 C   0  0  0  0  0  0  0  0  0  0  0  0
   35.3850   32.7610   37.7090 H   0  0  0  0  0  0  0  0  0  0  0  0
   33.5030   31.8600   37.1970 C   0  0  0  0  0  3  0  0  0  0  0  0
   32.8730   31.0550   36.2620 C   0  0  0  0  0  3  0  0  0  0  0  0
   36.9990   27.4330   32.1050 C   0  0  0  0  0  0  0  0  0  0  0  0
   37.6600   27.6850   31.2220 H   0  0  0  0  0  0  0  0  0  0  0  0
   37.7210   27.0980   32.8570 H   0  0  0  0  0  0  0  0  0  0  0  0
   36.0120   26.4500   31.6030 C   0  0  0  0  0  0  0  0  0  0  0  0
   35.0310   26.6930   32.1170 H   0  0  0  0  0  0  0  0  0  0  0  0
   35.7520   26.6020   30.5140 H   0  0  0  0  0  0  0  0  0  0  0  0
   36.2560   25.0500   31.8140 C   0  0  0  0  0  0  0  0  0  0  0  0
   35.4890   24.0980   31.2030 C   0  0  0  0  0  0  0  0  0  0  0  0
   35.7300   22.7230   31.4210 C   0  0  0  0  0  0  0  0  0  0  0  0
   36.7790   22.4350   32.2820 N   0  0  0  0  0  0  0  0  0  0  0  0
   37.5100   23.4100   32.8630 C   0  0  0  0  0  0  0  0  0  0  0  0
   37.2440   24.7200   32.6260 N   0  0  0  0  0  0  0  0  0  0  0  0
   34.6620   24.2010   30.5210 H   0  0  0  0  0  0  0  0  0  0  0  0
   35.1990   21.9080   30.9990 H   0  0  0  0  0  0  0  0  0  0  0  0
   38.3100   23.0890   33.5210 H   0  0  0  0  0  0  0  0  0  0  0  0
  1  5  2  0  0  0  0
  2  3  2  0  0  0  0
  2  1  1  0  0  0  0
  3  4  1  0  0  0  0
  4  5  1  0  0  0  0
  4 10  1  0  0  0  0
  6  2  1  0  0  0  0
  7  3  1  0  0  0  0
  8  9  1  0  0  0  0
  9 16  1  0  0  0  0
 10  9  2  0  0  0  0
 10 11  1  0  0  0  0
 11 13  2  0  0  0  0
 12 11  1  0  0  0  0
 13 15  1  0  0  0  0
 13 14  1  0  0  0  0
 16 15  2  0  0  0  0
 17  1  1  0  0  0  0
 17 19  1  0  0  0  0
 18 17  1  0  0  0  0
 20 23  1  0  0  0  0
 20 17  1  0  0  0  0
 20 21  1  0  0  0  0
 22 20  1  0  0  0  0
 23 28  1  0  0  0  0
 24 25  1  0  0  0  0
 24 23  2  0  0  0  0
 25 26  2  0  0  0  0
 26 27  1  0  0  0  0
 27 31  1  0  0  0  0
 28 27  2  0  0  0  0
 29 24  1  0  0  0  0
 30 25  1  0  0  0  0
M  END
>  <minimizedAffinity>
-5.05147934

$$$$

 OpenBabel03272504013D

 31 33  0  0  0  0  0  0  0  0999 V2000
   38.5290   23.8770   33.1710 C   0  0  0  0  0  0  0  0  0  0  0  0
   39.5820   24.6290   32.6740 C   0  0  0  0  0  0  0  0  0  0  0  0
   39.1500   25.9190   32.5260 C   0  0  0  0  0  0  0  0  0  0  0  0
   37.8750   25.9390   32.9220 N   0  0  0  0  0  0  0  0  0  0  0  0
   37.5190   24.7430   33.2990 N   0  0  0  0  0  0  0  0  0  0  0  0
   40.5870   24.2920   32.4320 H   0  0  0  0  0  0  0  0  0  0  0  0
   39.7350   26.7350   32.1630 H   0  0  0  0  0  0  0  0  0  0  0  0
   38.1260   27.1770   35.6680 Br  0  0  0  0  0  0  0  0  0  0  0  0
   37.0050   27.6940   34.1950 C   0  0  0  0  0  0  0  0  0  0  0  0
   36.9750   27.0410   32.9630 C   0  0  0  0  0  0  0  0  0  0  0  0
   36.1250   27.5120   31.9870 C   0  0  0  0  0  0  0  0  0  0  0  0
   36.1730   26.9440   31.0730 H   0  0  0  0  0  0  0  0  0  0  0  0
   35.3300   28.6090   32.2460 C   0  0  0  0  0  0  0  0  0  0  0  0
   34.6790   28.9400   31.4450 H   0  0  0  0  0  0  0  0  0  0  0  0
   35.3510   29.2640   33.4610 C   0  0  0  0  0  3  0  0  0  0  0  0
   36.2070   28.7850   34.4380 C   0  0  0  0  0  3  0  0  0  0  0  0
   38.6780   22.4310   33.4340 C   0  0  0  0  0  0  0  0  0  0  0  0
   38.2590   21.8280   32.5730 H   0  0  0  0  0  0  0  0  0  0  0  0
   39.7500   22.2180   33.3770 H   0  0  0  0  0  0  0  0  0  0  0  0
   37.9420   21.9810   34.6370 C   0  0  0  0  0  0  0  0  0  0  0  0
   36.8780   22.3550   34.5190 H   0  0  0  0  0  0  0  0  0  0  0  0
   37.7960   20.8610   34.6730 H   0  0  0  0  0  0  0  0  0  0  0  0
   38.3940   22.4140   35.9310 C   0  0  0  0  0  0  0  0  0  0  0  0
   39.6930   22.2410   36.3200 C   0  0  0  0  0  0  0  0  0  0  0  0
   40.1280   22.6630   37.5970 C   0  0  0  0  0  0  0  0  0  0  0  0
   39.1530   23.2490   38.3910 N   0  0  0  0  0  0  0  0  0  0  0  0
   37.8820   23.3990   37.9630 C   0  0  0  0  0  0  0  0  0  0  0  0
   37.5060   22.9790   36.7280 N   0  0  0  0  0  0  0  0  0  0  0  0
   40.5270   21.8090   35.7950 H   0  0  0  0  0  0  0  0  0  0  0  0
   41.1070   22.5780   37.9970 H   0  0  0  0  0  0  0  0  0  0  0  0
   37.1910   23.8690   38.6530 H   0  0  0  0  0  0  0  0  0  0  0  0
  1  5  2  0  0  0  0
  1 17  1  0  0  0  0
  2  1  1  0  0  0  0
  3  2  2  0  0  0  0
  3  4  1  0  0  0  0
  4 10  1  0  0  0  0
  4  5  1  0  0  0  0
  6  2  1  0  0  0  0
  7  3  1  0  0  0  0
  9 16  1  0  0  0  0
  9  8  1  0  0  0  0
 10  9  2  0  0  0  0
 11 13  2  0  0  0  0
 11 10  1  0  0  0  0
 12 11  1  0  0  0  0
 13 15  1  0  0  0  0
 14 13  1  0  0  0  0
 15 16  2  0  0  0  0
 17 20  1  0  0  0  0
 18 17  1  0  0  0  0
 19 17  1  0  0  0  0
 20 22  1  0  0  0  0
 20 23  1  0  0  0  0
 21 20  1  0  0  0  0
 23 24  2  0  0  0  0
 23 28  1  0  0  0  0
 24 25  1  0  0  0  0
 25 30  1  0  0  0  0
 25 26  2  0  0  0  0
 27 26  1  0  0  0  0
 27 31  1  0  0  0  0
 28 27  2  0  0  0  0
 29 24  1  0  0  0  0
M  END
>  <minimizedAffinity>
-4.99355364

$$$$

 OpenBabel03272504013D

 31 33  0  0  0  0  0  0  0  0999 V2000
   35.4180   29.5800   31.7410 C   0  0  0  0  0  0  0  0  0  0  0  0
   36.2120   29.5790   30.6060 C   0  0  0  0  0  0  0  0  0  0  0  0
   36.5710   28.2850   30.3400 C   0  0  0  0  0  0  0  0  0  0  0  0
   36.0090   27.5330   31.2890 N   0  0  0  0  0  0  0  0  0  0  0  0
   35.3360   28.2960   32.1050 N   0  0  0  0  0  0  0  0  0  0  0  0
   36.5180   30.4310   30.0050 H   0  0  0  0  0  0  0  0  0  0  0  0
   37.1820   27.9620   29.5270 H   0  0  0  0  0  0  0  0  0  0  0  0
   38.3620   26.9820   33.1030 Br  0  0  0  0  0  0  0  0  0  0  0  0
   37.1360   25.7470   32.2880 C   0  0  0  0  0  0  0  0  0  0  0  0
   36.0770   26.1220   31.4610 C   0  0  0  0  0  0  0  0  0  0  0  0
   35.2690   25.1380   30.9380 C   0  0  0  0  0  0  0  0  0  0  0  0
   34.4800   25.5230   30.3140 H   0  0  0  0  0  0  0  0  0  0  0  0
   35.5210   23.8150   31.2390 C   0  0  0  0  0  0  0  0  0  0  0  0
   34.8570   23.0800   30.8030 H   0  0  0  0  0  0  0  0  0  0  0  0
   36.5660   23.4320   32.0560 C   0  0  0  0  0  3  0  0  0  0  0  0
   37.3750   24.4270   32.5790 C   0  0  0  0  0  3  0  0  0  0  0  0
   34.8730   30.8370   32.2940 C   0  0  0  0  0  0  0  0  0  0  0  0
   34.9320   31.6640   31.5240 H   0  0  0  0  0  0  0  0  0  0  0  0
   33.7950   30.6840   32.4000 H   0  0  0  0  0  0  0  0  0  0  0  0
   35.6260   31.3280   33.4710 C   0  0  0  0  0  0  0  0  0  0  0  0
   36.4870   30.6060   33.6230 H   0  0  0  0  0  0  0  0  0  0  0  0
   36.1650   32.3010   33.2760 H   0  0  0  0  0  0  0  0  0  0  0  0
   34.9470   31.4370   34.7320 C   0  0  0  0  0  0  0  0  0  0  0  0
   35.5280   32.0700   35.7950 C   0  0  0  0  0  0  0  0  0  0  0  0
   34.8580   32.1660   37.0350 C   0  0  0  0  0  0  0  0  0  0  0  0
   33.6000   31.5820   37.0760 N   0  0  0  0  0  0  0  0  0  0  0  0
   33.0660   30.9680   36.0000 C   0  0  0  0  0  0  0  0  0  0  0  0
   33.7460   30.8970   34.8260 N   0  0  0  0  0  0  0  0  0  0  0  0
   36.4840   32.5570   35.8790 H   0  0  0  0  0  0  0  0  0  0  0  0
   35.2150   32.6330   37.9190 H   0  0  0  0  0  0  0  0  0  0  0  0
   32.0780   30.5410   36.1270 H   0  0  0  0  0  0  0  0  0  0  0  0
  1  5  2  0  0  0  0
  1 17  1  0  0  0  0
  2  1  1  0  0  0  0
  3  2  2  0  0  0  0
  3  4  1  0  0  0  0
  4 10  1  0  0  0  0
  4  5  1  0  0  0  0
  6  2  1  0  0  0  0
  7  3  1  0  0  0  0
  9 16  1  0  0  0  0
  9  8  1  0  0  0  0
 10  9  2  0  0  0  0
 11 13  2  0  0  0  0
 11 10  1  0  0  0  0
 12 11  1  0  0  0  0
 13 15  1  0  0  0  0
 14 13  1  0  0  0  0
 15 16  2  0  0  0  0
 17 19  1  0  0  0  0
 17 20  1  0  0  0  0
 18 17  1  0  0  0  0
 20 21  1  0  0  0  0
 20 23  1  0  0  0  0
 22 20  1  0  0  0  0
 23 28  2  0  0  0  0
 23 24  1  0  0  0  0
 24 29  1  0  0  0  0
 24 25  2  0  0  0  0
 25 26  1  0  0  0  0
 25 30  1  0  0  0  0
 27 31  1  0  0  0  0
 27 26  2  0  0  0  0
 28 27  1  0  0  0  0
M  END
>  <minimizedAffinity>
-4.90757895

$$$$

 OpenBabel03272504013D

 31 33  0  0  0  0  0  0  0  0999 V2000
   36.0280   29.2550   32.5580 C   0  0  0  0  0  0  0  0  0  0  0  0
   35.4890   30.3270   31.8630 C   0  0  0  0  0  0  0  0  0  0  0  0
   34.6000   30.9630   32.6870 C   0  0  0  0  0  0  0  0  0  0  0  0
   34.6040   30.2910   33.8400 N   0  0  0  0  0  0  0  0  0  0  0  0
   35.4410   29.2950   33.7590 N   0  0  0  0  0  0  0  0  0  0  0  0
   35.7080   30.6400   30.8460 H   0  0  0  0  0  0  0  0  0  0  0  0
   34.0250   31.8260   32.4350 H   0  0  0  0  0  0  0  0  0  0  0  0
   36.1920   32.2730   35.4780 Br  0  0  0  0  0  0  0  0  0  0  0  0
   34.4950   31.4570   35.8620 C   0  0  0  0  0  0  0  0  0  0  0  0
   33.8520   30.5480   35.0210 C   0  0  0  0  0  0  0  0  0  0  0  0
   32.6360   30.0350   35.4120 C   0  0  0  0  0  0  0  0  0  0  0  0
   32.2180   29.3430   34.6990 H   0  0  0  0  0  0  0  0  0  0  0  0
   32.0840   30.4270   36.6140 C   0  0  0  0  0  0  0  0  0  0  0  0
   31.1260   29.9940   36.8750 H   0  0  0  0  0  0  0  0  0  0  0  0
   32.7090   31.3260   37.4540 C   0  0  0  0  0  3  0  0  0  0  0  0
   33.9330   31.8380   37.0550 C   0  0  0  0  0  3  0  0  0  0  0  0
   37.0230   28.3600   31.9330 C   0  0  0  0  0  0  0  0  0  0  0  0
   36.6420   27.9810   30.9370 H   0  0  0  0  0  0  0  0  0  0  0  0
   37.8660   28.9950   31.6420 H   0  0  0  0  0  0  0  0  0  0  0  0
   37.3070   27.1530   32.7420 C   0  0  0  0  0  0  0  0  0  0  0  0
   38.4360   27.0680   32.8020 H   0  0  0  0  0  0  0  0  0  0  0  0
   37.0220   27.2710   33.8280 H   0  0  0  0  0  0  0  0  0  0  0  0
   36.8190   25.8810   32.2860 C   0  0  0  0  0  0  0  0  0  0  0  0
   37.4290   24.7160   32.6560 C   0  0  0  0  0  0  0  0  0  0  0  0
   36.9480   23.4690   32.1970 C   0  0  0  0  0  0  0  0  0  0  0  0
   35.8380   23.5310   31.3670 N   0  0  0  0  0  0  0  0  0  0  0  0
   35.2680   24.7070   31.0280 C   0  0  0  0  0  0  0  0  0  0  0  0
   35.7640   25.8830   31.4920 N   0  0  0  0  0  0  0  0  0  0  0  0
   38.2820   24.5450   33.2900 H   0  0  0  0  0  0  0  0  0  0  0  0
   37.3430   22.5100   32.4220 H   0  0  0  0  0  0  0  0  0  0  0  0
   34.4050   24.6560   30.3750 H   0  0  0  0  0  0  0  0  0  0  0  0
  1  5  2  0  0  0  0
  2  1  1  0  0  0  0
  2  3  2  0  0  0  0
  3  4  1  0  0  0  0
  4 10  1  0  0  0  0
  5  4  1  0  0  0  0
  6  2  1  0  0  0  0
  7  3  1  0  0  0  0
  8  9  1  0  0  0  0
  9 16  1  0  0  0  0
 10 11  1  0  0  0  0
 10  9  2  0  0  0  0
 11 13  2  0  0  0  0
 12 11  1  0  0  0  0
 13 14  1  0  0  0  0
 13 15  1  0  0  0  0
 16 15  2  0  0  0  0
 17  1  1  0  0  0  0
 17 20  1  0  0  0  0
 18 17  1  0  0  0  0
 19 17  1  0  0  0  0
 20 21  1  0  0  0  0
 20 22  1  0  0  0  0
 23 24  1  0  0  0  0
 23 20  1  0  0  0  0
 24 29  1  0  0  0  0
 25 30  1  0  0  0  0
 25 24  2  0  0  0  0
 26 25  1  0  0  0  0
 27 26  2  0  0  0  0
 27 28  1  0  0  0  0
 28 23  2  0  0  0  0
 31 27  1  0  0  0  0
M  END
>  <minimizedAffinity>
-4.90017462

$$$$

 OpenBabel03272504013D

 31 33  0  0  0  0  0  0  0  0999 V2000
   37.0910   27.1250   34.2660 C   0  0  0  0  0  0  0  0  0  0  0  0
   37.7440   28.0240   35.0940 C   0  0  0  0  0  0  0  0  0  0  0  0
   38.3890   27.3100   36.0690 C   0  0  0  0  0  0  0  0  0  0  0  0
   38.1280   26.0230   35.8310 N   0  0  0  0  0  0  0  0  0  0  0  0
   37.3700   25.9220   34.7750 N   0  0  0  0  0  0  0  0  0  0  0  0
   37.7660   29.1070   35.0180 H   0  0  0  0  0  0  0  0  0  0  0  0
   38.9800   27.7230   36.8560 H   0  0  0  0  0  0  0  0  0  0  0  0
   40.3990   24.7990   34.2570 Br  0  0  0  0  0  0  0  0  0  0  0  0
   39.6200   24.2270   35.9180 C   0  0  0  0  0  0  0  0  0  0  0  0
   38.5660   24.8790   36.5570 C   0  0  0  0  0  0  0  0  0  0  0  0
   38.0970   24.3670   37.7460 C   0  0  0  0  0  0  0  0  0  0  0  0
   37.2840   24.9370   38.1630 H   0  0  0  0  0  0  0  0  0  0  0  0
   38.6760   23.2320   38.2760 C   0  0  0  0  0  0  0  0  0  0  0  0
   38.2710   22.8700   39.2130 H   0  0  0  0  0  0  0  0  0  0  0  0
   39.7200   22.5790   37.6540 C   0  0  0  0  0  3  0  0  0  0  0  0
   40.1860   23.0990   36.4570 C   0  0  0  0  0  3  0  0  0  0  0  0
   36.2920   27.5890   33.1130 C   0  0  0  0  0  0  0  0  0  0  0  0
   35.2470   27.1560   33.1570 H   0  0  0  0  0  0  0  0  0  0  0  0
   36.1150   28.6580   33.2720 H   0  0  0  0  0  0  0  0  0  0  0  0
   36.8500   27.1630   31.8100 C   0  0  0  0  0  0  0  0  0  0  0  0
   36.2390   27.6900   31.0130 H   0  0  0  0  0  0  0  0  0  0  0  0
   37.8860   27.5680   31.6190 H   0  0  0  0  0  0  0  0  0  0  0  0
   36.8470   25.7650   31.4770 C   0  0  0  0  0  0  0  0  0  0  0  0
   37.9990   25.1210   31.1220 C   0  0  0  0  0  0  0  0  0  0  0  0
   37.9870   23.7480   30.7880 C   0  0  0  0  0  0  0  0  0  0  0  0
   36.7450   23.1330   30.8520 N   0  0  0  0  0  0  0  0  0  0  0  0
   35.6340   23.8110   31.2090 C   0  0  0  0  0  0  0  0  0  0  0  0
   35.6900   25.1310   31.5210 N   0  0  0  0  0  0  0  0  0  0  0  0
   39.0070   25.4880   31.0420 H   0  0  0  0  0  0  0  0  0  0  0  0
   38.8180   23.1540   30.5020 H   0  0  0  0  0  0  0  0  0  0  0  0
   34.7090   23.2470   31.2310 H   0  0  0  0  0  0  0  0  0  0  0  0
  1  5  2  0  0  0  0
  1  2  1  0  0  0  0
  2  3  2  0  0  0  0
  3  7  1  0  0  0  0
  4  3  1  0  0  0  0
  4 10  1  0  0  0  0
  5  4  1  0  0  0  0
  6  2  1  0  0  0  0
  8  9  1  0  0  0  0
  9 16  2  0  0  0  0
  9 10  1  0  0  0  0
 10 11  2  0  0  0  0
 11 12  1  0  0  0  0
 11 13  1  0  0  0  0
 13 14  1  0  0  0  0
 15 13  2  0  0  0  0
 16 15  1  0  0  0  0
 17 18  1  0  0  0  0
 17 19  1  0  0  0  0
 17  1  1  0  0  0  0
 20 17  1  0  0  0  0
 21 20  1  0  0  0  0
 22 20  1  0  0  0  0
 23 28  1  0  0  0  0
 23 20  1  0  0  0  0
 24 23  2  0  0  0  0
 25 26  2  0  0  0  0
 25 24  1  0  0  0  0
 26 27  1  0  0  0  0
 27 31  1  0  0  0  0
 27 28  2  0  0  0  0
 29 24  1  0  0  0  0
 30 25  1  0  0  0  0
M  END
>  <minimizedAffinity>
-4.86463356

$$$$

 OpenBabel03272504013D

 31 33  0  0  0  0  0  0  0  0999 V2000
   38.5190   24.3990   33.6070 C   0  0  0  0  0  0  0  0  0  0  0  0
   39.6620   25.1520   33.8250 C   0  0  0  0  0  0  0  0  0  0  0  0
   39.3110   26.4750   33.7960 C   0  0  0  0  0  0  0  0  0  0  0  0
   37.9970   26.5130   33.5660 N   0  0  0  0  0  0  0  0  0  0  0  0
   37.5400   25.2960   33.4570 N   0  0  0  0  0  0  0  0  0  0  0  0
   40.6750   24.7940   33.9950 H   0  0  0  0  0  0  0  0  0  0  0  0
   39.9750   27.2990   33.9330 H   0  0  0  0  0  0  0  0  0  0  0  0
   38.0900   27.3750   30.6710 Br  0  0  0  0  0  0  0  0  0  0  0  0
   37.1140   28.1390   32.1390 C   0  0  0  0  0  0  0  0  0  0  0  0
   37.1490   27.6490   33.4450 C   0  0  0  0  0  0  0  0  0  0  0  0
   36.4020   28.2880   34.4090 C   0  0  0  0  0  0  0  0  0  0  0  0
   36.4920   27.8390   35.3840 H   0  0  0  0  0  0  0  0  0  0  0  0
   35.6420   29.3880   34.0660 C   0  0  0  0  0  0  0  0  0  0  0  0
   35.0720   29.8550   34.8610 H   0  0  0  0  0  0  0  0  0  0  0  0
   35.5990   29.8810   32.7780 C   0  0  0  0  0  3  0  0  0  0  0  0
   36.3540   29.2340   31.8130 C   0  0  0  0  0  3  0  0  0  0  0  0
   38.5700   22.9230   33.5710 C   0  0  0  0  0  0  0  0  0  0  0  0
   38.0430   22.5320   32.6500 H   0  0  0  0  0  0  0  0  0  0  0  0
   39.6150   22.6570   33.3810 H   0  0  0  0  0  0  0  0  0  0  0  0
   37.8900   22.2900   34.7240 C   0  0  0  0  0  0  0  0  0  0  0  0
   36.8000   22.5960   34.6580 H   0  0  0  0  0  0  0  0  0  0  0  0
   37.8250   21.1660   34.6370 H   0  0  0  0  0  0  0  0  0  0  0  0
   38.3310   22.6120   36.0530 C   0  0  0  0  0  0  0  0  0  0  0  0
   37.4820   23.1780   36.9630 C   0  0  0  0  0  0  0  0  0  0  0  0
   37.9250   23.4990   38.2650 C   0  0  0  0  0  0  0  0  0  0  0  0
   39.2540   23.1980   38.5300 N   0  0  0  0  0  0  0  0  0  0  0  0
   40.0550   22.6390   37.5990 C   0  0  0  0  0  0  0  0  0  0  0  0
   39.5880   22.3470   36.3580 N   0  0  0  0  0  0  0  0  0  0  0  0
   36.4440   23.4490   36.8730 H   0  0  0  0  0  0  0  0  0  0  0  0
   37.3530   23.9360   39.0440 H   0  0  0  0  0  0  0  0  0  0  0  0
   41.0780   22.4400   37.8980 H   0  0  0  0  0  0  0  0  0  0  0  0
  1  2  1  0  0  0  0
  2  6  1  0  0  0  0
  3  2  2  0  0  0  0
  3  7  1  0  0  0  0
  4  3  1  0  0  0  0
  5  4  1  0  0  0  0
  5  1  2  0  0  0  0
  8  9  1  0  0  0  0
  9 10  1  0  0  0  0
 10  4  1  0  0  0  0
 10 11  2  0  0  0  0
 11 12  1  0  0  0  0
 13 11  1  0  0  0  0
 13 14  1  0  0  0  0
 15 13  2  0  0  0  0
 16  9  2  0  0  0  0
 16 15  1  0  0  0  0
 17  1  1  0  0  0  0
 17 20  1  0  0  0  0
 18 17  1  0  0  0  0
 19 17  1  0  0  0  0
 20 23  1  0  0  0  0
 21 20  1  0  0  0  0
 22 20  1  0  0  0  0
 23 28  2  0  0  0  0
 23 24  1  0  0  0  0
 24 25  2  0  0  0  0
 25 26  1  0  0  0  0
 25 30  1  0  0  0  0
 27 31  1  0  0  0  0
 27 26  2  0  0  0  0
 28 27  1  0  0  0  0
 29 24  1  0  0  0  0
M  END
>  <minimizedAffinity>
-4.85687733

$$$$
