
 OpenBabel03272500083D

 39 42  0  0  0  0  0  0  0  0999 V2000
   32.4500   26.9690   48.1610 O   0  0  0  0  0  0  0  0  0  0  0  0
   31.1230   27.3690   48.3060 C   0  0  0  0  0  0  0  0  0  0  0  0
   30.8000   27.7770   49.5820 C   0  0  0  0  0  0  0  0  0  0  0  0
   29.5290   28.2000   49.8830 C   0  0  0  0  0  0  0  0  0  0  0  0
   28.5590   28.2130   48.8680 C   0  0  0  0  0  0  0  0  0  0  0  0
   28.9010   27.7980   47.5840 C   0  0  0  0  0  0  0  0  0  0  0  0
   30.1730   27.3820   47.3170 C   0  0  0  0  0  0  0  0  0  0  0  0
   31.4980   27.7900   50.4040 H   0  0  0  0  0  0  0  0  0  0  0  0
   29.2600   28.5230   50.8830 H   0  0  0  0  0  0  0  0  0  0  0  0
   27.5650   28.5480   49.1180 H   0  0  0  0  0  0  0  0  0  0  0  0
   28.1580   27.8070   46.8020 H   0  0  0  0  0  0  0  0  0  0  0  0
   30.4470   29.8900   45.6510 Br  0  0  0  0  0  0  0  0  0  0  0  0
   30.6950   28.0620   45.1510 C   0  0  0  0  0  0  0  0  0  0  0  0
   30.5490   26.9400   45.9770 C   0  0  0  0  0  0  0  0  0  0  0  0
   30.7730   25.6960   45.4260 C   0  0  0  0  0  0  0  0  0  0  0  0
   30.6240   24.9300   46.1830 H   0  0  0  0  0  0  0  0  0  0  0  0
   31.1230   25.5660   44.1250 C   0  0  0  0  0  0  0  0  0  0  0  0
   31.2750   24.5250   43.8000 H   0  0  0  0  0  0  0  0  0  0  0  0
   31.2770   26.6490   43.2840 C   0  0  0  0  0  3  0  0  0  0  0  0
   31.0590   27.9050   43.8080 C   0  0  0  0  0  3  0  0  0  0  0  0
   35.3830   28.7830   49.1900 C   0  0  0  0  0  0  0  0  0  0  0  0
   35.3120   29.9590   48.4390 C   0  0  0  0  0  0  0  0  0  0  0  0
   34.2220   30.0980   47.5750 C   0  0  0  0  0  0  0  0  0  0  0  0
   33.3100   29.0960   47.5170 N   0  0  0  0  0  0  0  0  0  0  0  0
   33.4020   27.9830   48.2440 C   0  0  0  0  0  0  0  0  0  0  0  0
   34.4520   27.8170   49.0960 N   0  0  0  0  0  0  0  0  0  0  0  0
   36.2170   28.6300   49.8800 H   0  0  0  0  0  0  0  0  0  0  0  0
   34.1730   31.0090   46.9990 H   0  0  0  0  0  0  0  0  0  0  0  0
   36.3310   30.9280   48.5890 N   0  0  0  0  0  0  0  0  0  0  0  0
   36.5130   31.6030   49.7170 C   0  0  0  0  0  0  0  0  0  0  0  0
   37.5310   32.5440   49.8050 C   0  0  0  0  0  0  0  0  0  0  0  0
   38.2840   32.6920   48.6690 C   0  0  0  0  0  0  0  0  0  0  0  0
   39.2240   33.5490   48.7260 O   0  0  0  0  0  0  0  0  0  0  0  0
   38.1400   32.0400   47.5160 N   0  0  0  0  0  0  0  0  0  0  0  0
   37.1260   31.1260   47.4830 C   0  0  0  0  0  0  0  0  0  0  0  0
   36.9700   30.4910   46.3910 O   0  0  0  0  0  0  0  0  0  0  0  0
   35.8790   31.4290   50.5650 H   0  0  0  0  0  0  0  0  0  0  0  0
   37.7320   33.1230   50.6870 H   0  0  0  0  0  0  0  0  0  0  0  0
   38.7470   32.1980   46.6840 H   0  0  0  0  0  0  0  0  0  0  0  0
  1 25  1  0  0  0  0
  1  2  1  0  0  0  0
  2  3  1  0  0  0  0
  3  4  2  0  0  0  0
  3  8  1  0  0  0  0
  4  9  1  0  0  0  0
  5 10  1  0  0  0  0
  5  4  1  0  0  0  0
  6  5  2  0  0  0  0
  7  6  1  0  0  0  0
  7  2  2  0  0  0  0
 11  6  1  0  0  0  0
 13 12  1  0  0  0  0
 13 14  1  0  0  0  0
 14  7  1  0  0  0  0
 15 14  2  0  0  0  0
 15 16  1  0  0  0  0
 17 15  1  0  0  0  0
 18 17  1  0  0  0  0
 19 20  1  0  0  0  0
 19 17  2  0  0  0  0
 20 13  2  0  0  0  0
 21 27  1  0  0  0  0
 22 29  1  0  0  0  0
 22 21  2  0  0  0  0
 23 22  1  0  0  0  0
 24 23  2  0  0  0  0
 24 25  1  0  0  0  0
 25 26  2  0  0  0  0
 26 21  1  0  0  0  0
 28 23  1  0  0  0  0
 29 30  1  0  0  0  0
 30 31  2  0  0  0  0
 30 37  1  0  0  0  0
 31 38  1  0  0  0  0
 32 33  2  0  0  0  0
 32 31  1  0  0  0  0
 34 32  1  0  0  0  0
 35 34  1  0  0  0  0
 35 29  1  0  0  0  0
 36 35  2  0  0  0  0
 39 34  1  0  0  0  0
M  END
>  <minimizedAffinity>
-5.88249207

>  <minimizedRMSD>
1.35997641

$$$$
