
 OpenBabel03272502203D

 28 30  0  0  0  0  0  0  0  0999 V2000
   37.6610   31.7260   46.9070 C   0  0  0  0  0  0  0  0  0  0  0  0
   37.9430   31.5870   45.5330 C   0  0  0  0  0  0  0  0  0  0  0  0
   37.1660   30.6800   44.7920 C   0  0  0  0  0  0  0  0  0  0  0  0
   36.1880   29.9910   45.4500 N   0  0  0  0  0  0  0  0  0  0  0  0
   35.9520   30.1540   46.7690 C   0  0  0  0  0  0  0  0  0  0  0  0
   36.6860   31.0160   47.4840 N   0  0  0  0  0  0  0  0  0  0  0  0
   38.7070   32.1270   45.0270 H   0  0  0  0  0  0  0  0  0  0  0  0
   37.2910   30.4960   43.7500 H   0  0  0  0  0  0  0  0  0  0  0  0
   36.7020   29.3350   49.6960 Br  0  0  0  0  0  0  0  0  0  0  0  0
   35.0670   28.9680   48.7560 C   0  0  0  0  0  0  0  0  0  0  0  0
   34.9040   29.4110   47.4620 C   0  0  0  0  0  0  0  0  0  0  0  0
   33.6910   29.1130   46.8500 C   0  0  0  0  0  0  0  0  0  0  0  0
   32.6720   28.4110   47.4620 C   0  0  0  0  0  0  0  0  0  0  0  0
   32.8930   27.9950   48.7510 C   0  0  0  0  0  0  0  0  0  0  0  0
   34.0830   28.2760   49.3830 C   0  0  0  0  0  0  0  0  0  0  0  0
   33.5250   29.4440   45.8340 H   0  0  0  0  0  0  0  0  0  0  0  0
   31.7450   28.2060   46.9360 H   0  0  0  0  0  0  0  0  0  0  0  0
   32.1010   27.4440   49.2440 H   0  0  0  0  0  0  0  0  0  0  0  0
   34.1990   27.9190   50.4040 H   0  0  0  0  0  0  0  0  0  0  0  0
   39.9170   33.0630   45.3030 Br  0  0  0  0  0  0  0  0  0  0  0  0
   39.4960   33.3440   47.1540 C   0  0  0  0  0  0  0  0  0  0  0  0
   38.4410   32.6540   47.7140 C   0  0  0  0  0  0  0  0  0  0  0  0
   38.2320   32.9350   49.0450 C   0  0  0  0  0  0  0  0  0  0  0  0
   37.4230   32.4300   49.5490 H   0  0  0  0  0  0  0  0  0  0  0  0
   39.0120   33.8280   49.7490 C   0  0  0  0  0  0  0  0  0  0  0  0
   38.7750   33.9890   50.8000 H   0  0  0  0  0  0  0  0  0  0  0  0
   40.0520   34.4910   49.1460 C   0  0  0  0  0  3  0  0  0  0  0  0
   40.3020   34.2440   47.8130 C   0  0  0  0  0  3  0  0  0  0  0  0
  1  6  1  0  0  0  0
  1 22  1  0  0  0  0
  2  1  2  0  0  0  0
  3  4  2  0  0  0  0
  3  2  1  0  0  0  0
  4  5  1  0  0  0  0
  5 11  1  0  0  0  0
  5  6  2  0  0  0  0
  7  2  1  0  0  0  0
  8  3  1  0  0  0  0
 10 15  1  0  0  0  0
 10  9  1  0  0  0  0
 11 10  2  0  0  0  0
 12 11  1  0  0  0  0
 12 13  2  0  0  0  0
 13 14  1  0  0  0  0
 14 18  1  0  0  0  0
 14 15  2  0  0  0  0
 15 19  1  0  0  0  0
 16 12  1  0  0  0  0
 17 13  1  0  0  0  0
 20 21  1  0  0  0  0
 21 22  2  0  0  0  0
 21 28  1  0  0  0  0
 22 23  1  0  0  0  0
 23 24  1  0  0  0  0
 23 25  2  0  0  0  0
 25 26  1  0  0  0  0
 27 25  1  0  0  0  0
 28 27  2  0  0  0  0
M  END
>  <minimizedAffinity>
-5.69606447

>  <minimizedRMSD>
2.92699051

$$$$
