
 OpenBabel03272504093D

 33 35  0  0  0  0  0  0  0  0999 V2000
   37.8180   30.4070   50.1270 C   0  0  0  0  0  0  0  0  0  0  0  0
   37.2810   30.6390   48.8530 C   0  0  0  0  0  0  0  0  0  0  0  0
   35.9320   30.3020   48.5910 C   0  0  0  0  0  0  0  0  0  0  0  0
   35.2190   29.7620   49.6100 N   0  0  0  0  0  0  0  0  0  0  0  0
   35.7830   29.5520   50.8420 C   0  0  0  0  0  0  0  0  0  0  0  0
   37.0780   29.8750   51.0950 N   0  0  0  0  0  0  0  0  0  0  0  0
   34.9560   28.9770   51.8640 N   0  0  0  0  0  0  0  0  0  0  0  0
   38.8490   30.6660   50.3290 H   0  0  0  0  0  0  0  0  0  0  0  0
   34.8460   29.5450   52.7400 H   0  0  0  0  0  0  0  0  0  0  0  0
   34.4580   28.0650   51.8240 H   0  0  0  0  0  0  0  0  0  0  0  0
   38.2360   33.5210   49.0880 Cl  0  0  0  0  0  0  0  0  0  0  0  0
   38.6920   32.5020   47.7550 C   0  0  0  0  0  0  0  0  0  0  0  0
   38.1760   31.2440   47.8290 C   0  0  0  0  0  0  0  0  0  0  0  0
   38.4860   30.3360   46.8050 C   0  0  0  0  0  0  0  0  0  0  0  0
   39.2790   30.6690   45.7480 C   0  0  0  0  0  0  0  0  0  0  0  0
   39.7930   31.9680   45.7050 C   0  0  0  0  0  0  0  0  0  0  0  0
   40.8210   32.4560   44.3900 Cl  0  0  0  0  0  0  0  0  0  0  0  0
   39.4910   32.8570   46.7040 C   0  0  0  0  0  0  0  0  0  0  0  0
   38.1550   29.3090   46.7460 H   0  0  0  0  0  0  0  0  0  0  0  0
   39.5500   30.0200   44.9310 H   0  0  0  0  0  0  0  0  0  0  0  0
   39.8580   33.8820   46.7410 H   0  0  0  0  0  0  0  0  0  0  0  0
   35.4020   30.5500   47.2660 C   0  0  0  0  0  0  0  0  0  0  0  0
   34.6690   31.4060   47.3640 H   0  0  0  0  0  0  0  0  0  0  0  0
   36.2370   30.9590   46.6220 H   0  0  0  0  0  0  0  0  0  0  0  0
   35.7950   30.7270   44.2420 Br  0  0  0  0  0  0  0  0  0  0  0  0
   34.8560   29.3420   45.1990 C   0  0  0  0  0  0  0  0  0  0  0  0
   34.7790   29.4130   46.5820 C   0  0  0  0  0  0  0  0  0  0  0  0
   34.1120   28.4200   47.2910 C   0  0  0  0  0  0  0  0  0  0  0  0
   34.0130   28.4240   48.3500 H   0  0  0  0  0  0  0  0  0  0  0  0
   33.5160   27.3520   46.6320 C   0  0  0  0  0  0  0  0  0  0  0  0
   32.9820   26.5690   47.2010 H   0  0  0  0  0  0  0  0  0  0  0  0
   33.5990   27.2930   45.2580 C   0  0  0  0  0  3  0  0  0  0  0  0
   34.2640   28.2790   44.5280 C   0  0  0  0  0  3  0  0  0  0  0  0
  1  8  1  0  0  0  0
  1  6  1  0  0  0  0
  2  1  2  0  0  0  0
  3  2  1  0  0  0  0
  3  4  2  0  0  0  0
  4  5  1  0  0  0  0
  5  6  2  0  0  0  0
  5  7  1  0  0  0  0
  7  9  1  0  0  0  0
 10  7  1  0  0  0  0
 12 13  1  0  0  0  0
 12 11  1  0  0  0  0
 13  2  1  0  0  0  0
 14 13  2  0  0  0  0
 15 14  1  0  0  0  0
 16 15  2  0  0  0  0
 16 18  1  0  0  0  0
 17 16  1  0  0  0  0
 18 21  1  0  0  0  0
 18 12  2  0  0  0  0
 19 14  1  0  0  0  0
 20 15  1  0  0  0  0
 22 23  1  0  0  0  0
 22  3  1  0  0  0  0
 24 22  1  0  0  0  0
 25 26  1  0  0  0  0
 26 27  1  0  0  0  0
 27 22  1  0  0  0  0
 27 28  2  0  0  0  0
 28 29  1  0  0  0  0
 30 31  1  0  0  0  0
 30 28  1  0  0  0  0
 32 30  2  0  0  0  0
 33 26  2  0  0  0  0
 33 32  1  0  0  0  0
M  END
>  <minimizedAffinity>
-5.83431005

>  <minimizedRMSD>
1.74840236

$$$$
