
 OpenBabel03272507333D

 36 39  0  0  1  0  0  0  0  0999 V2000
   35.8390   29.1910   49.8270 C   0  0  0  0  0  0  0  0  0  0  0  0
   34.9090   29.7010   50.7090 C   0  0  0  0  0  0  0  0  0  0  0  0
   33.6480   29.2400   50.3030 C   0  0  0  0  0  0  0  0  0  0  0  0
   33.8960   28.4710   49.1870 C   0  0  0  0  0  0  0  0  0  0  0  0
   35.1890   28.4710   48.9450 O   0  0  0  0  0  0  0  0  0  0  0  0
   35.0530   30.3420   51.5740 H   0  0  0  0  0  0  0  0  0  0  0  0
   32.6620   29.4080   50.7200 H   0  0  0  0  0  0  0  0  0  0  0  0
   37.2600   29.4710   49.9530 C   0  0  0  0  0  0  0  0  0  0  0  0
   37.9410   28.8020   50.7420 O   0  0  0  0  0  0  0  0  0  0  0  0
   37.7920   30.5280   49.1390 C   0  0  0  0  0  0  0  0  0  0  0  0
   38.1560   31.6980   49.7840 C   0  0  0  0  0  0  0  0  0  0  0  0
   38.6750   32.7470   49.0180 C   0  0  0  0  0  0  0  0  0  0  0  0
   38.7980   32.5580   47.6610 N   0  0  0  0  0  0  0  0  0  0  0  0
   38.4370   31.4130   47.0730 C   0  0  0  0  0  0  0  0  0  0  0  0
   37.9360   30.4020   47.7990 N   0  0  0  0  0  0  0  0  0  0  0  0
   38.0460   31.8100   50.8460 H   0  0  0  0  0  0  0  0  0  0  0  0
   38.9530   33.6510   49.5400 H   0  0  0  0  0  0  0  0  0  0  0  0
   38.5560   31.3230   46.0010 H   0  0  0  0  0  0  0  0  0  0  0  0
   32.8880   27.7630   48.3980 C   0  0  0  0  0  0  0  0  0  0  0  0
   31.8090   27.4050   48.9770 O   0  0  0  0  0  0  0  0  0  0  0  0
   33.1270   27.4620   46.9480 C   0  0  1  0  0  0  0  0  0  0  0  0
   32.6250   26.0010   46.6160 C   0  0  0  0  0  0  0  0  0  0  0  0
   32.0090   27.2120   46.0360 C   0  0  1  0  0  0  0  0  0  0  0  0
   34.2060   27.5210   46.6170 H   0  0  0  0  0  0  0  0  0  0  0  0
   33.2680   25.4000   45.9500 H   0  0  0  0  0  0  0  0  0  0  0  0
   32.1830   25.4270   47.4230 H   0  0  0  0  0  0  0  0  0  0  0  0
   32.2510   27.4230   44.9520 H   0  0  0  0  0  0  0  0  0  0  0  0
   31.5420   30.3020   45.6920 Br  0  0  0  0  0  0  0  0  0  0  0  0
   30.3190   28.9680   46.2770 C   0  0  0  0  0  0  0  0  0  0  0  0
   30.6280   27.6270   46.3940 C   0  0  0  0  0  0  0  0  0  0  0  0
   29.6710   26.7310   46.8290 C   0  0  0  0  0  0  0  0  0  0  0  0
   29.9440   25.6910   46.9090 H   0  0  0  0  0  0  0  0  0  0  0  0
   28.3950   27.1300   47.1580 C   0  0  0  0  0  0  0  0  0  0  0  0
   27.6770   26.3920   47.4940 H   0  0  0  0  0  0  0  0  0  0  0  0
   28.0920   28.4750   47.0380 C   0  0  0  0  0  3  0  0  0  0  0  0
   29.0290   29.3890   46.6060 C   0  0  0  0  0  3  0  0  0  0  0  0
  1  8  1  0  0  0  0
  1  2  2  0  0  0  0
  2  6  1  0  0  0  0
  3  2  1  0  0  0  0
  3  7  1  0  0  0  0
  4  3  2  0  0  0  0
  5  4  1  0  0  0  0
  5  1  1  0  0  0  0
  8  9  2  0  0  0  0
 10 11  1  0  0  0  0
 10  8  1  0  0  0  0
 11 16  1  0  0  0  0
 12 17  1  0  0  0  0
 12 11  2  0  0  0  0
 13 12  1  0  0  0  0
 14 13  2  0  0  0  0
 14 15  1  0  0  0  0
 15 10  2  0  0  0  0
 18 14  1  0  0  0  0
 19 20  2  0  0  0  0
 19  4  1  0  0  0  0
 21 24  1  6  0  0  0
 21 19  1  0  0  0  0
 22 21  1  0  0  0  0
 22 26  1  0  0  0  0
 23 27  1  6  0  0  0
 23 30  1  0  0  0  0
 23 22  1  0  0  0  0
 23 21  1  0  0  0  0
 25 22  1  0  0  0  0
 28 29  1  0  0  0  0
 29 30  2  0  0  0  0
 29 36  1  0  0  0  0
 30 31  1  0  0  0  0
 31 32  1  0  0  0  0
 31 33  2  0  0  0  0
 33 34  1  0  0  0  0
 35 33  1  0  0  0  0
 36 35  2  0  0  0  0
M  END
>  <minimizedAffinity>
-5.5436883

>  <minimizedRMSD>
1.99007535

$$$$
