
 OpenBabel03272500263D

 34 36  0  0  0  0  0  0  0  0999 V2000
   39.7870   31.8480   46.5080 C   0  0  0  0  0  0  0  0  0  0  0  0
   40.7480   32.4210   46.5760 H   0  0  0  0  0  0  0  0  0  0  0  0
   40.0650   30.8470   46.9560 H   0  0  0  0  0  0  0  0  0  0  0  0
   39.4810   31.6890   45.1150 C   0  0  0  0  0  0  0  0  0  0  0  0
   39.3870   32.7630   44.2890 C   0  0  0  0  0  0  0  0  0  0  0  0
   39.0900   32.6140   42.9290 C   0  0  0  0  0  0  0  0  0  0  0  0
   38.9030   31.3050   42.5030 N   0  0  0  0  0  0  0  0  0  0  0  0
   39.0030   30.2630   43.3410 C   0  0  0  0  0  0  0  0  0  0  0  0
   39.2910   30.4830   44.6350 N   0  0  0  0  0  0  0  0  0  0  0  0
   39.5240   33.7840   44.5860 H   0  0  0  0  0  0  0  0  0  0  0  0
   39.0080   33.4310   42.2530 H   0  0  0  0  0  0  0  0  0  0  0  0
   41.5350   29.1190   41.9540 Br  0  0  0  0  0  0  0  0  0  0  0  0
   39.8500   28.2620   42.1950 C   0  0  0  0  0  0  0  0  0  0  0  0
   38.7980   28.9090   42.8440 C   0  0  0  0  0  0  0  0  0  0  0  0
   37.5960   28.2770   43.0060 C   0  0  0  0  0  0  0  0  0  0  0  0
   36.7490   28.7620   43.5120 H   0  0  0  0  0  0  0  0  0  0  0  0
   37.3540   26.9850   42.5480 C   0  0  0  0  0  0  0  0  0  0  0  0
   36.3920   26.5080   42.6900 H   0  0  0  0  0  0  0  0  0  0  0  0
   38.3920   26.3210   41.8970 C   0  0  0  0  0  3  0  0  0  0  0  0
   39.6060   26.9820   41.7430 C   0  0  0  0  0  3  0  0  0  0  0  0
   38.7980   32.4330   47.4240 C   0  0  0  0  0  0  0  0  0  0  0  0
   38.0490   33.0930   46.9400 H   0  0  0  0  0  0  0  0  0  0  0  0
   39.2960   33.1110   48.1790 H   0  0  0  0  0  0  0  0  0  0  0  0
   38.0560   31.4520   48.2400 C   0  0  0  0  0  0  0  0  0  0  0  0
   37.0140   30.7080   47.6930 C   0  0  0  0  0  0  0  0  0  0  0  0
   36.5160   29.8880   48.6730 C   0  0  0  0  0  0  0  0  0  0  0  0
   37.2380   30.1330   49.7790 N   0  0  0  0  0  0  0  0  0  0  0  0
   38.1260   31.0490   49.4910 N   0  0  0  0  0  0  0  0  0  0  0  0
   36.6330   30.7420   46.6710 H   0  0  0  0  0  0  0  0  0  0  0  0
   35.6990   29.1560   48.6430 H   0  0  0  0  0  0  0  0  0  0  0  0
   37.1030   29.5180   51.0980 C   0  0  0  0  0  0  0  0  0  0  0  0
   37.8680   28.3660   51.1630 F   0  0  0  0  0  0  0  0  0  0  0  0
   35.8030   29.1830   51.3820 F   0  0  0  0  0  0  0  0  0  0  0  0
   37.5620   30.3570   52.0940 F   0  0  0  0  0  0  0  0  0  0  0  0
  1  2  1  0  0  0  0
  1  3  1  0  0  0  0
  1 21  1  0  0  0  0
  4  1  1  0  0  0  0
  5 10  1  0  0  0  0
  5  4  2  0  0  0  0
  6  5  1  0  0  0  0
  7  6  2  0  0  0  0
  7  8  1  0  0  0  0
  8  9  2  0  0  0  0
  9  4  1  0  0  0  0
 11  6  1  0  0  0  0
 12 13  1  0  0  0  0
 13 14  1  0  0  0  0
 14 15  2  0  0  0  0
 14  8  1  0  0  0  0
 15 16  1  0  0  0  0
 17 18  1  0  0  0  0
 17 15  1  0  0  0  0
 19 17  2  0  0  0  0
 20 19  1  0  0  0  0
 20 13  2  0  0  0  0
 21 23  1  0  0  0  0
 21 24  1  0  0  0  0
 22 21  1  0  0  0  0
 24 28  2  0  0  0  0
 25 24  1  0  0  0  0
 25 26  2  0  0  0  0
 26 27  1  0  0  0  0
 27 31  1  0  0  0  0
 28 27  1  0  0  0  0
 29 25  1  0  0  0  0
 30 26  1  0  0  0  0
 31 32  1  0  0  0  0
 31 33  1  0  0  0  0
 31 34  1  0  0  0  0
M  END
>  <minimizedAffinity>
-6.1075511

>  <minimizedRMSD>
1.95955873

$$$$
