
 OpenBabel03272503493D

 37 39  0  0  1  0  0  0  0  0999 V2000
   33.2400   27.2660   45.8370 C   0  0  1  0  0  0  0  0  0  0  0  0
   33.9030   27.4380   47.2200 C   0  0  2  0  0  0  0  0  0  0  0  0
   33.7160   26.2340   47.8190 O   0  0  0  0  0  0  0  0  0  0  0  0
   34.0760   25.3140   46.8460 C   0  0  0  0  0  0  0  0  0  0  0  0
   33.6570   25.8550   45.4920 C   0  0  2  0  0  0  0  0  0  0  0  0
   33.6940   28.0060   45.1320 H   0  0  0  0  0  0  0  0  0  0  0  0
   34.9480   27.7440   47.0080 H   0  0  0  0  0  0  0  0  0  0  0  0
   33.4810   24.3960   47.0350 H   0  0  0  0  0  0  0  0  0  0  0  0
   35.1360   25.0350   46.8730 H   0  0  0  0  0  0  0  0  0  0  0  0
   32.7210   25.3540   45.1390 H   0  0  0  0  0  0  0  0  0  0  0  0
   31.8780   27.4660   45.9260 O   0  0  0  0  0  0  0  0  0  0  0  0
   31.5910   28.0510   45.1840 H   0  0  0  0  0  0  0  0  0  0  0  0
   33.2460   28.5090   47.7830 O   0  0  0  0  0  0  0  0  0  0  0  0
   35.3350   29.7870   46.7900 O   0  0  0  0  0  0  0  0  0  0  0  0
   34.0630   29.9700   47.6130 P   0  0  1  0  0  0  0  0  0  0  0  0
   33.1220   31.0630   46.7240 O   0  0  0  0  0  0  0  0  0  0  0  0
   32.3010   31.2200   47.2760 H   0  0  0  0  0  0  0  0  0  0  0  0
   34.3500   30.5660   49.1850 O   0  0  0  0  0  0  0  0  0  0  0  0
   35.5960   30.4640   49.7880 C   0  0  0  0  0  0  0  0  0  0  0  0
   35.9760   29.4530   50.6990 C   0  0  0  0  0  0  0  0  0  0  0  0
   37.2620   29.4860   51.2190 C   0  0  0  0  0  0  0  0  0  0  0  0
   38.0980   30.4900   50.8310 N   0  0  0  0  0  0  0  0  0  0  0  0
   37.7050   31.4460   49.9550 C   0  0  0  0  0  0  0  0  0  0  0  0
   36.4490   31.4360   49.4290 N   0  0  0  0  0  0  0  0  0  0  0  0
   35.2240   28.7350   50.9120 H   0  0  0  0  0  0  0  0  0  0  0  0
   37.5370   28.7080   51.9120 H   0  0  0  0  0  0  0  0  0  0  0  0
   38.4160   32.2210   49.6820 H   0  0  0  0  0  0  0  0  0  0  0  0
   34.6950   25.8560   44.6270 O   0  0  0  0  0  0  0  0  0  0  0  0
   33.3860   25.7990   41.6760 Br  0  0  0  0  0  0  0  0  0  0  0  0
   34.8750   24.8600   42.3420 C   0  0  0  0  0  0  0  0  0  0  0  0
   35.1990   25.0910   43.6520 C   0  0  0  0  0  0  0  0  0  0  0  0
   36.3110   24.3860   44.1350 C   0  0  0  0  0  0  0  0  0  0  0  0
   36.7450   24.4150   45.1400 H   0  0  0  0  0  0  0  0  0  0  0  0
   37.0420   23.5040   43.3270 C   0  0  0  0  0  0  0  0  0  0  0  0
   37.9030   22.9400   43.6510 H   0  0  0  0  0  0  0  0  0  0  0  0
   36.6390   23.3380   42.0190 C   0  0  0  0  0  3  0  0  0  0  0  0
   35.5530   24.0080   41.4980 C   0  0  0  0  0  3  0  0  0  0  0  0
  1  6  1  6  0  0  0
  1 11  1  0  0  0  0
  1  2  1  0  0  0  0
  2  7  1  6  0  0  0
  2 13  1  0  0  0  0
  2  3  1  0  0  0  0
  4  9  1  0  0  0  0
  4  8  1  0  0  0  0
  4  3  1  0  0  0  0
  5 10  1  6  0  0  0
  5  1  1  0  0  0  0
  5  4  1  0  0  0  0
 12 11  1  0  0  0  0
 15 14  2  6  0  0  0
 15 13  1  0  0  0  0
 15 18  1  0  0  0  0
 16 17  1  0  0  0  0
 16 15  1  0  0  0  0
 18 19  1  0  0  0  0
 19 20  1  0  0  0  0
 20 25  1  0  0  0  0
 20 21  2  0  0  0  0
 21 26  1  0  0  0  0
 22 21  1  0  0  0  0
 23 22  2  0  0  0  0
 24 19  2  0  0  0  0
 24 23  1  0  0  0  0
 27 23  1  0  0  0  0
 28  5  1  0  0  0  0
 29 30  1  0  0  0  0
 30 31  1  0  0  0  0
 31 32  2  0  0  0  0
 31 28  1  0  0  0  0
 32 33  1  0  0  0  0
 34 35  1  0  0  0  0
 34 32  1  0  0  0  0
 36 34  2  0  0  0  0
 37 36  1  0  0  0  0
 37 30  2  0  0  0  0
M  END
>  <minimizedAffinity>
-4.14296913

>  <minimizedRMSD>
0.970526934

$$$$
