
 OpenBabel03272500283D

 34 36  0  0  0  0  0  0  0  0999 V2000
   37.1080   26.7910   33.4220 C   0  0  0  0  0  0  0  0  0  0  0  0
   37.2150   26.2720   32.4350 H   0  0  0  0  0  0  0  0  0  0  0  0
   36.3240   26.1660   33.9460 H   0  0  0  0  0  0  0  0  0  0  0  0
   36.5900   28.1040   33.1610 C   0  0  0  0  0  0  0  0  0  0  0  0
   36.6970   28.6710   31.9320 C   0  0  0  0  0  0  0  0  0  0  0  0
   36.1930   29.9500   31.6720 C   0  0  0  0  0  0  0  0  0  0  0  0
   35.5870   30.5800   32.7520 N   0  0  0  0  0  0  0  0  0  0  0  0
   35.4950   29.9960   33.9550 C   0  0  0  0  0  0  0  0  0  0  0  0
   36.0030   28.7640   34.1310 N   0  0  0  0  0  0  0  0  0  0  0  0
   37.1580   28.2130   31.0790 H   0  0  0  0  0  0  0  0  0  0  0  0
   36.2590   30.4250   30.7230 H   0  0  0  0  0  0  0  0  0  0  0  0
   32.4490   29.4110   34.1060 Br  0  0  0  0  0  0  0  0  0  0  0  0
   33.4780   30.5340   35.2520 C   0  0  0  0  0  0  0  0  0  0  0  0
   34.8500   30.6990   35.0560 C   0  0  0  0  0  0  0  0  0  0  0  0
   35.5720   31.5080   35.8890 C   0  0  0  0  0  0  0  0  0  0  0  0
   36.6520   31.6580   35.7590 H   0  0  0  0  0  0  0  0  0  0  0  0
   34.9990   32.2000   36.9540 C   0  0  0  0  0  0  0  0  0  0  0  0
   35.5940   32.8360   37.5990 H   0  0  0  0  0  0  0  0  0  0  0  0
   33.6300   32.0480   37.1650 C   0  0  0  0  0  3  0  0  0  0  0  0
   32.9160   31.2200   36.3070 C   0  0  0  0  0  3  0  0  0  0  0  0
   38.3400   26.6200   34.2050 C   0  0  0  0  0  0  0  0  0  0  0  0
   38.6880   27.5330   34.7310 H   0  0  0  0  0  0  0  0  0  0  0  0
   39.2110   26.3550   33.5360 H   0  0  0  0  0  0  0  0  0  0  0  0
   38.2940   25.5310   35.2010 C   0  0  0  0  0  0  0  0  0  0  0  0
   38.2640   24.1970   34.8020 C   0  0  0  0  0  0  0  0  0  0  0  0
   38.2230   23.4170   35.9290 C   0  0  0  0  0  0  0  0  0  0  0  0
   38.2280   24.2590   36.9760 N   0  0  0  0  0  0  0  0  0  0  0  0
   38.2690   25.4820   36.5150 N   0  0  0  0  0  0  0  0  0  0  0  0
   38.2710   23.8030   33.7840 H   0  0  0  0  0  0  0  0  0  0  0  0
   38.1910   22.3260   36.0400 H   0  0  0  0  0  0  0  0  0  0  0  0
   38.1940   23.9260   38.4000 C   0  0  0  0  0  0  0  0  0  0  0  0
   37.2860   22.9070   38.6250 F   0  0  0  0  0  0  0  0  0  0  0  0
   37.8330   25.0000   39.1730 F   0  0  0  0  0  0  0  0  0  0  0  0
   39.4210   23.4700   38.8380 F   0  0  0  0  0  0  0  0  0  0  0  0
  1  3  1  0  0  0  0
  1 21  1  0  0  0  0
  2  1  1  0  0  0  0
  4  1  1  0  0  0  0
  4  9  1  0  0  0  0
  5  4  2  0  0  0  0
  6  5  1  0  0  0  0
  6  7  2  0  0  0  0
  7  8  1  0  0  0  0
  8  9  2  0  0  0  0
  8 14  1  0  0  0  0
 10  5  1  0  0  0  0
 11  6  1  0  0  0  0
 12 13  1  0  0  0  0
 13 20  1  0  0  0  0
 14 13  2  0  0  0  0
 14 15  1  0  0  0  0
 15 17  2  0  0  0  0
 16 15  1  0  0  0  0
 17 19  1  0  0  0  0
 17 18  1  0  0  0  0
 20 19  2  0  0  0  0
 21 22  1  0  0  0  0
 21 24  1  0  0  0  0
 23 21  1  0  0  0  0
 24 28  2  0  0  0  0
 25 24  1  0  0  0  0
 25 26  2  0  0  0  0
 26 30  1  0  0  0  0
 26 27  1  0  0  0  0
 27 31  1  0  0  0  0
 28 27  1  0  0  0  0
 29 25  1  0  0  0  0
 31 32  1  0  0  0  0
 31 34  1  0  0  0  0
 31 33  1  0  0  0  0
M  END
>  <minimizedAffinity>
-6.5699358

$$$$

 OpenBabel03272500283D

 34 36  0  0  0  0  0  0  0  0999 V2000
   37.2970   27.2150   33.3930 C   0  0  0  0  0  0  0  0  0  0  0  0
   37.8550   27.0250   32.4400 H   0  0  0  0  0  0  0  0  0  0  0  0
   36.6770   26.2760   33.5090 H   0  0  0  0  0  0  0  0  0  0  0  0
   36.4360   28.3420   33.1660 C   0  0  0  0  0  0  0  0  0  0  0  0
   36.3880   28.9570   31.9560 C   0  0  0  0  0  0  0  0  0  0  0  0
   35.5500   30.0550   31.7290 C   0  0  0  0  0  0  0  0  0  0  0  0
   34.7870   30.4550   32.8190 N   0  0  0  0  0  0  0  0  0  0  0  0
   34.8550   29.8280   34.0020 C   0  0  0  0  0  0  0  0  0  0  0  0
   35.6830   28.7800   34.1470 N   0  0  0  0  0  0  0  0  0  0  0  0
   36.9620   28.6740   31.0970 H   0  0  0  0  0  0  0  0  0  0  0  0
   35.4860   30.5620   30.7960 H   0  0  0  0  0  0  0  0  0  0  0  0
   36.1730   32.1740   35.5530 Br  0  0  0  0  0  0  0  0  0  0  0  0
   34.4960   31.3390   35.9070 C   0  0  0  0  0  0  0  0  0  0  0  0
   34.0340   30.2870   35.1150 C   0  0  0  0  0  0  0  0  0  0  0  0
   32.8280   29.7010   35.3840 C   0  0  0  0  0  0  0  0  0  0  0  0
   32.4380   28.8710   34.7790 H   0  0  0  0  0  0  0  0  0  0  0  0
   32.0090   30.1060   36.4360 C   0  0  0  0  0  0  0  0  0  0  0  0
   31.0580   29.6240   36.6280 H   0  0  0  0  0  0  0  0  0  0  0  0
   32.4540   31.1550   37.2380 C   0  0  0  0  0  3  0  0  0  0  0  0
   33.6830   31.7370   36.9460 C   0  0  0  0  0  3  0  0  0  0  0  0
   38.2360   27.2150   34.5230 C   0  0  0  0  0  0  0  0  0  0  0  0
   38.1300   28.0740   35.2180 H   0  0  0  0  0  0  0  0  0  0  0  0
   39.3030   27.2980   34.1630 H   0  0  0  0  0  0  0  0  0  0  0  0
   38.2170   25.9850   35.3410 C   0  0  0  0  0  0  0  0  0  0  0  0
   38.1730   24.7280   34.7430 C   0  0  0  0  0  0  0  0  0  0  0  0
   38.1650   23.7840   35.7370 C   0  0  0  0  0  0  0  0  0  0  0  0
   38.2010   24.4540   36.9010 N   0  0  0  0  0  0  0  0  0  0  0  0
   38.2310   25.7340   36.6320 N   0  0  0  0  0  0  0  0  0  0  0  0
   38.1500   24.4960   33.6760 H   0  0  0  0  0  0  0  0  0  0  0  0
   38.1340   22.6880   35.6790 H   0  0  0  0  0  0  0  0  0  0  0  0
   38.2090   23.9070   38.2560 C   0  0  0  0  0  0  0  0  0  0  0  0
   37.9070   24.9020   39.1700 F   0  0  0  0  0  0  0  0  0  0  0  0
   39.4270   23.3730   38.5920 F   0  0  0  0  0  0  0  0  0  0  0  0
   37.2500   22.9250   38.4070 F   0  0  0  0  0  0  0  0  0  0  0  0
  1  3  1  0  0  0  0
  1 21  1  0  0  0  0
  2  1  1  0  0  0  0
  4  1  1  0  0  0  0
  4  9  1  0  0  0  0
  5  4  2  0  0  0  0
  6  5  1  0  0  0  0
  6  7  2  0  0  0  0
  7  8  1  0  0  0  0
  8  9  2  0  0  0  0
  8 14  1  0  0  0  0
 10  5  1  0  0  0  0
 11  6  1  0  0  0  0
 12 13  1  0  0  0  0
 13 20  1  0  0  0  0
 14 15  1  0  0  0  0
 14 13  2  0  0  0  0
 15 17  2  0  0  0  0
 16 15  1  0  0  0  0
 17 18  1  0  0  0  0
 17 19  1  0  0  0  0
 20 19  2  0  0  0  0
 21 22  1  0  0  0  0
 21 24  1  0  0  0  0
 23 21  1  0  0  0  0
 24 28  2  0  0  0  0
 25 24  1  0  0  0  0
 25 26  2  0  0  0  0
 26 27  1  0  0  0  0
 27 31  1  0  0  0  0
 28 27  1  0  0  0  0
 29 25  1  0  0  0  0
 30 26  1  0  0  0  0
 31 34  1  0  0  0  0
 31 33  1  0  0  0  0
 31 32  1  0  0  0  0
M  END
>  <minimizedAffinity>
-6.41673517

$$$$

 OpenBabel03272500283D

 34 36  0  0  0  0  0  0  0  0999 V2000
   38.0840   26.2060   34.0340 C   0  0  0  0  0  0  0  0  0  0  0  0
   38.2850   27.2930   33.8470 H   0  0  0  0  0  0  0  0  0  0  0  0
   39.1130   25.7450   33.9400 H   0  0  0  0  0  0  0  0  0  0  0  0
   37.2420   25.7390   32.9700 C   0  0  0  0  0  0  0  0  0  0  0  0
   36.5740   26.6070   32.1680 C   0  0  0  0  0  0  0  0  0  0  0  0
   35.7520   26.1570   31.1290 C   0  0  0  0  0  0  0  0  0  0  0  0
   35.6770   24.7760   30.9880 N   0  0  0  0  0  0  0  0  0  0  0  0
   36.3470   23.9420   31.7950 C   0  0  0  0  0  0  0  0  0  0  0  0
   37.1180   24.4470   32.7730 N   0  0  0  0  0  0  0  0  0  0  0  0
   36.6110   27.6760   32.2500 H   0  0  0  0  0  0  0  0  0  0  0  0
   35.2150   26.8070   30.4810 H   0  0  0  0  0  0  0  0  0  0  0  0
   38.7490   22.7650   30.2160 Br  0  0  0  0  0  0  0  0  0  0  0  0
   37.2410   21.8290   30.9130 C   0  0  0  0  0  0  0  0  0  0  0  0
   36.2340   22.5020   31.6060 C   0  0  0  0  0  0  0  0  0  0  0  0
   35.1610   21.8130   32.0990 C   0  0  0  0  0  0  0  0  0  0  0  0
   34.3520   22.3150   32.6490 H   0  0  0  0  0  0  0  0  0  0  0  0
   35.0090   20.4370   31.9440 C   0  0  0  0  0  0  0  0  0  0  0  0
   34.1480   19.9160   32.3440 H   0  0  0  0  0  0  0  0  0  0  0  0
   36.0050   19.7480   31.2540 C   0  0  0  0  0  3  0  0  0  0  0  0
   37.0880   20.4680   30.7620 C   0  0  0  0  0  3  0  0  0  0  0  0
   37.6870   26.0130   35.4360 C   0  0  0  0  0  0  0  0  0  0  0  0
   36.5980   25.8780   35.5970 H   0  0  0  0  0  0  0  0  0  0  0  0
   37.9340   26.9240   36.0570 H   0  0  0  0  0  0  0  0  0  0  0  0
   38.3730   24.9000   36.1240 C   0  0  0  0  0  0  0  0  0  0  0  0
   37.8060   24.2910   37.2400 C   0  0  0  0  0  0  0  0  0  0  0  0
   38.6560   23.3020   37.6630 C   0  0  0  0  0  0  0  0  0  0  0  0
   39.7050   23.3160   36.8240 N   0  0  0  0  0  0  0  0  0  0  0  0
   39.5070   24.2600   35.9400 N   0  0  0  0  0  0  0  0  0  0  0  0
   36.8550   24.5300   37.7220 H   0  0  0  0  0  0  0  0  0  0  0  0
   38.5720   22.6010   38.5030 H   0  0  0  0  0  0  0  0  0  0  0  0
   40.8870   22.4560   36.8450 C   0  0  0  0  0  0  0  0  0  0  0  0
   40.8380   21.6120   37.9410 F   0  0  0  0  0  0  0  0  0  0  0  0
   42.0520   23.1780   36.9140 F   0  0  0  0  0  0  0  0  0  0  0  0
   40.9420   21.6500   35.7260 F   0  0  0  0  0  0  0  0  0  0  0  0
  1 21  1  0  0  0  0
  2  1  1  0  0  0  0
  3  1  1  0  0  0  0
  4  1  1  0  0  0  0
  5 10  1  0  0  0  0
  5  4  2  0  0  0  0
  6  5  1  0  0  0  0
  7  6  2  0  0  0  0
  7  8  1  0  0  0  0
  8  9  2  0  0  0  0
  9  4  1  0  0  0  0
 11  6  1  0  0  0  0
 12 13  1  0  0  0  0
 13 14  1  0  0  0  0
 14  8  1  0  0  0  0
 14 15  2  0  0  0  0
 15 16  1  0  0  0  0
 17 15  1  0  0  0  0
 17 18  1  0  0  0  0
 19 17  2  0  0  0  0
 20 13  2  0  0  0  0
 20 19  1  0  0  0  0
 21 22  1  0  0  0  0
 21 23  1  0  0  0  0
 21 24  1  0  0  0  0
 24 25  1  0  0  0  0
 25 26  2  0  0  0  0
 25 29  1  0  0  0  0
 26 30  1  0  0  0  0
 27 31  1  0  0  0  0
 27 26  1  0  0  0  0
 28 24  2  0  0  0  0
 28 27  1  0  0  0  0
 31 33  1  0  0  0  0
 31 32  1  0  0  0  0
 34 31  1  0  0  0  0
M  END
>  <minimizedAffinity>
-5.92647505

$$$$

 OpenBabel03272500283D

 34 36  0  0  0  0  0  0  0  0999 V2000
   37.2950   25.0930   31.3690 C   0  0  0  0  0  0  0  0  0  0  0  0
   37.9130   24.4470   30.6930 H   0  0  0  0  0  0  0  0  0  0  0  0
   37.0090   25.9550   30.6950 H   0  0  0  0  0  0  0  0  0  0  0  0
   38.1580   25.5600   32.4180 C   0  0  0  0  0  0  0  0  0  0  0  0
   38.9710   26.6320   32.2340 C   0  0  0  0  0  0  0  0  0  0  0  0
   39.8130   27.0920   33.2530 C   0  0  0  0  0  0  0  0  0  0  0  0
   39.7490   26.3780   34.4430 N   0  0  0  0  0  0  0  0  0  0  0  0
   38.9360   25.3230   34.5960 C   0  0  0  0  0  0  0  0  0  0  0  0
   38.1550   24.9380   33.5730 N   0  0  0  0  0  0  0  0  0  0  0  0
   39.0440   27.2030   31.3300 H   0  0  0  0  0  0  0  0  0  0  0  0
   40.4630   27.9270   33.1450 H   0  0  0  0  0  0  0  0  0  0  0  0
   41.0030   23.0070   34.6920 Br  0  0  0  0  0  0  0  0  0  0  0  0
   39.7820   23.5370   36.0580 C   0  0  0  0  0  0  0  0  0  0  0  0
   38.9070   24.6070   35.8650 C   0  0  0  0  0  0  0  0  0  0  0  0
   38.0390   24.9730   36.8560 C   0  0  0  0  0  0  0  0  0  0  0  0
   37.3380   25.8100   36.7330 H   0  0  0  0  0  0  0  0  0  0  0  0
   37.9760   24.3190   38.0840 C   0  0  0  0  0  0  0  0  0  0  0  0
   37.2770   24.6290   38.8530 H   0  0  0  0  0  0  0  0  0  0  0  0
   38.8420   23.2480   38.2950 C   0  0  0  0  0  3  0  0  0  0  0  0
   39.7170   22.8940   37.2740 C   0  0  0  0  0  3  0  0  0  0  0  0
   36.0380   24.4060   31.6930 C   0  0  0  0  0  0  0  0  0  0  0  0
   35.1650   24.7190   31.0830 H   0  0  0  0  0  0  0  0  0  0  0  0
   35.7130   24.6330   32.7510 H   0  0  0  0  0  0  0  0  0  0  0  0
   36.1070   22.9320   31.6350 C   0  0  0  0  0  0  0  0  0  0  0  0
   37.1900   22.2890   31.0430 C   0  0  0  0  0  0  0  0  0  0  0  0
   36.9850   20.9360   31.1340 C   0  0  0  0  0  0  0  0  0  0  0  0
   35.8090   20.7710   31.7640 N   0  0  0  0  0  0  0  0  0  0  0  0
   35.3260   21.9540   32.0400 N   0  0  0  0  0  0  0  0  0  0  0  0
   38.0670   22.7450   30.5780 H   0  0  0  0  0  0  0  0  0  0  0  0
   37.6020   20.0960   30.7900 H   0  0  0  0  0  0  0  0  0  0  0  0
   35.1390   19.5170   32.1060 C   0  0  0  0  0  0  0  0  0  0  0  0
   35.2980   19.2490   33.4540 F   0  0  0  0  0  0  0  0  0  0  0  0
   35.6390   18.4540   31.3970 F   0  0  0  0  0  0  0  0  0  0  0  0
   33.7810   19.5930   31.8730 F   0  0  0  0  0  0  0  0  0  0  0  0
  1 21  1  0  0  0  0
  1  4  1  0  0  0  0
  2  1  1  0  0  0  0
  3  1  1  0  0  0  0
  4  9  1  0  0  0  0
  5  4  2  0  0  0  0
  5  6  1  0  0  0  0
  6  7  2  0  0  0  0
  7  8  1  0  0  0  0
  8 14  1  0  0  0  0
  9  8  2  0  0  0  0
 10  5  1  0  0  0  0
 11  6  1  0  0  0  0
 12 13  1  0  0  0  0
 13 20  1  0  0  0  0
 14 13  2  0  0  0  0
 14 15  1  0  0  0  0
 15 17  2  0  0  0  0
 16 15  1  0  0  0  0
 17 19  1  0  0  0  0
 17 18  1  0  0  0  0
 20 19  2  0  0  0  0
 21 23  1  0  0  0  0
 22 21  1  0  0  0  0
 24 21  1  0  0  0  0
 24 28  2  0  0  0  0
 25 26  2  0  0  0  0
 25 24  1  0  0  0  0
 26 27  1  0  0  0  0
 27 28  1  0  0  0  0
 27 31  1  0  0  0  0
 29 25  1  0  0  0  0
 30 26  1  0  0  0  0
 31 32  1  0  0  0  0
 33 31  1  0  0  0  0
 34 31  1  0  0  0  0
M  END
>  <minimizedAffinity>
-5.90170527

$$$$

 OpenBabel03272500283D

 34 36  0  0  0  0  0  0  0  0999 V2000
   37.1640   27.3540   33.4460 C   0  0  0  0  0  0  0  0  0  0  0  0
   36.6270   26.6720   34.1540 H   0  0  0  0  0  0  0  0  0  0  0  0
   38.0730   27.6650   34.0420 H   0  0  0  0  0  0  0  0  0  0  0  0
   36.3160   28.4920   33.2230 C   0  0  0  0  0  0  0  0  0  0  0  0
   36.2470   29.0890   32.0060 C   0  0  0  0  0  0  0  0  0  0  0  0
   35.4220   30.1970   31.7830 C   0  0  0  0  0  0  0  0  0  0  0  0
   34.6950   30.6270   32.8870 N   0  0  0  0  0  0  0  0  0  0  0  0
   34.7830   30.0170   34.0770 C   0  0  0  0  0  0  0  0  0  0  0  0
   35.5970   28.9580   34.2170 N   0  0  0  0  0  0  0  0  0  0  0  0
   36.7930   28.7830   31.1360 H   0  0  0  0  0  0  0  0  0  0  0  0
   35.3410   30.6910   30.8450 H   0  0  0  0  0  0  0  0  0  0  0  0
   36.2220   32.3030   35.6100 Br  0  0  0  0  0  0  0  0  0  0  0  0
   34.5180   31.5380   35.9900 C   0  0  0  0  0  0  0  0  0  0  0  0
   34.0000   30.5070   35.2040 C   0  0  0  0  0  0  0  0  0  0  0  0
   32.7750   29.9720   35.4910 C   0  0  0  0  0  0  0  0  0  0  0  0
   32.3420   29.1600   34.8910 H   0  0  0  0  0  0  0  0  0  0  0  0
   31.9910   30.4080   36.5570 C   0  0  0  0  0  0  0  0  0  0  0  0
   31.0240   29.9650   36.7630 H   0  0  0  0  0  0  0  0  0  0  0  0
   32.4920   31.4360   37.3540 C   0  0  0  0  0  3  0  0  0  0  0  0
   33.7380   31.9660   37.0430 C   0  0  0  0  0  3  0  0  0  0  0  0
   37.6790   26.5780   32.3090 C   0  0  0  0  0  0  0  0  0  0  0  0
   38.7320   26.2440   32.4120 H   0  0  0  0  0  0  0  0  0  0  0  0
   37.6930   27.2010   31.3660 H   0  0  0  0  0  0  0  0  0  0  0  0
   36.8750   25.3920   31.9560 C   0  0  0  0  0  0  0  0  0  0  0  0
   35.7310   25.5100   31.1700 C   0  0  0  0  0  0  0  0  0  0  0  0
   35.1950   24.2580   31.0080 C   0  0  0  0  0  0  0  0  0  0  0  0
   35.9930   23.4110   31.6790 N   0  0  0  0  0  0  0  0  0  0  0  0
   36.9610   24.1060   32.2190 N   0  0  0  0  0  0  0  0  0  0  0  0
   35.3060   26.4190   30.7400 H   0  0  0  0  0  0  0  0  0  0  0  0
   34.3010   23.9310   30.4610 H   0  0  0  0  0  0  0  0  0  0  0  0
   35.8560   21.9620   31.8160 C   0  0  0  0  0  0  0  0  0  0  0  0
   34.9160   21.6670   32.7880 F   0  0  0  0  0  0  0  0  0  0  0  0
   37.0380   21.3620   32.1690 F   0  0  0  0  0  0  0  0  0  0  0  0
   35.4100   21.3860   30.6440 F   0  0  0  0  0  0  0  0  0  0  0  0
  1  3  1  0  0  0  0
  1  2  1  0  0  0  0
  4  1  1  0  0  0  0
  4  9  1  0  0  0  0
  5  4  2  0  0  0  0
  6  5  1  0  0  0  0
  6  7  2  0  0  0  0
  7  8  1  0  0  0  0
  8  9  2  0  0  0  0
  8 14  1  0  0  0  0
 10  5  1  0  0  0  0
 11  6  1  0  0  0  0
 12 13  1  0  0  0  0
 13 20  1  0  0  0  0
 14 15  1  0  0  0  0
 14 13  2  0  0  0  0
 15 17  2  0  0  0  0
 16 15  1  0  0  0  0
 17 18  1  0  0  0  0
 17 19  1  0  0  0  0
 20 19  2  0  0  0  0
 21 22  1  0  0  0  0
 21  1  1  0  0  0  0
 23 21  1  0  0  0  0
 24 28  2  0  0  0  0
 24 21  1  0  0  0  0
 25 24  1  0  0  0  0
 26 25  2  0  0  0  0
 26 27  1  0  0  0  0
 27 31  1  0  0  0  0
 27 28  1  0  0  0  0
 29 25  1  0  0  0  0
 30 26  1  0  0  0  0
 31 33  1  0  0  0  0
 31 32  1  0  0  0  0
 34 31  1  0  0  0  0
M  END
>  <minimizedAffinity>
-5.78403664

$$$$

 OpenBabel03272500283D

 34 36  0  0  0  0  0  0  0  0999 V2000
   37.0200   27.6240   34.6970 C   0  0  0  0  0  0  0  0  0  0  0  0
   36.3050   27.0490   35.3400 H   0  0  0  0  0  0  0  0  0  0  0  0
   36.6810   28.6930   34.8460 H   0  0  0  0  0  0  0  0  0  0  0  0
   36.7870   27.2250   33.3370 C   0  0  0  0  0  0  0  0  0  0  0  0
   36.5120   28.1410   32.3730 C   0  0  0  0  0  0  0  0  0  0  0  0
   36.2850   27.7570   31.0460 C   0  0  0  0  0  0  0  0  0  0  0  0
   36.3630   26.3920   30.8020 N   0  0  0  0  0  0  0  0  0  0  0  0
   36.6370   25.5100   31.7740 C   0  0  0  0  0  0  0  0  0  0  0  0
   36.8430   25.9520   33.0260 N   0  0  0  0  0  0  0  0  0  0  0  0
   36.4450   29.1990   32.5280 H   0  0  0  0  0  0  0  0  0  0  0  0
   36.0670   28.4450   30.2660 H   0  0  0  0  0  0  0  0  0  0  0  0
   39.5100   24.6060   31.0170 Br  0  0  0  0  0  0  0  0  0  0  0  0
   37.9360   23.5330   31.1080 C   0  0  0  0  0  0  0  0  0  0  0  0
   36.7070   24.0880   31.4650 C   0  0  0  0  0  0  0  0  0  0  0  0
   35.5890   23.3030   31.5250 C   0  0  0  0  0  0  0  0  0  0  0  0
   34.6080   23.7110   31.8040 H   0  0  0  0  0  0  0  0  0  0  0  0
   35.6070   21.9400   31.2400 C   0  0  0  0  0  0  0  0  0  0  0  0
   34.7060   21.3400   31.2940 H   0  0  0  0  0  0  0  0  0  0  0  0
   36.8260   21.3680   30.8800 C   0  0  0  0  0  3  0  0  0  0  0  0
   37.9500   22.1840   30.8270 C   0  0  0  0  0  3  0  0  0  0  0  0
   38.3700   27.5510   35.2720 C   0  0  0  0  0  0  0  0  0  0  0  0
   38.5240   28.1670   36.1810 H   0  0  0  0  0  0  0  0  0  0  0  0
   39.1400   27.9520   34.5500 H   0  0  0  0  0  0  0  0  0  0  0  0
   38.8340   26.1840   35.5850 C   0  0  0  0  0  0  0  0  0  0  0  0
   39.8850   25.6050   34.8780 C   0  0  0  0  0  0  0  0  0  0  0  0
   40.0940   24.3470   35.3810 C   0  0  0  0  0  0  0  0  0  0  0  0
   39.1930   24.1730   36.3620 N   0  0  0  0  0  0  0  0  0  0  0  0
   38.4760   25.2630   36.4530 N   0  0  0  0  0  0  0  0  0  0  0  0
   40.4650   26.0440   34.0630 H   0  0  0  0  0  0  0  0  0  0  0  0
   40.8230   23.5780   35.0960 H   0  0  0  0  0  0  0  0  0  0  0  0
   39.0000   22.9990   37.2110 C   0  0  0  0  0  0  0  0  0  0  0  0
   39.3180   23.3060   38.5220 F   0  0  0  0  0  0  0  0  0  0  0  0
   39.7840   21.9430   36.8180 F   0  0  0  0  0  0  0  0  0  0  0  0
   37.6830   22.5860   37.2070 F   0  0  0  0  0  0  0  0  0  0  0  0
  1  3  1  0  0  0  0
  1 21  1  0  0  0  0
  1  2  1  0  0  0  0
  4  1  1  0  0  0  0
  5 10  1  0  0  0  0
  5  4  2  0  0  0  0
  6  5  1  0  0  0  0
  7  6  2  0  0  0  0
  7  8  1  0  0  0  0
  8  9  2  0  0  0  0
  9  4  1  0  0  0  0
 11  6  1  0  0  0  0
 12 13  1  0  0  0  0
 13 14  1  0  0  0  0
 14 15  2  0  0  0  0
 14  8  1  0  0  0  0
 15 16  1  0  0  0  0
 17 18  1  0  0  0  0
 17 15  1  0  0  0  0
 19 17  2  0  0  0  0
 20 19  1  0  0  0  0
 20 13  2  0  0  0  0
 21 24  1  0  0  0  0
 21 22  1  0  0  0  0
 23 21  1  0  0  0  0
 24 28  2  0  0  0  0
 25 26  2  0  0  0  0
 25 24  1  0  0  0  0
 26 27  1  0  0  0  0
 27 28  1  0  0  0  0
 27 31  1  0  0  0  0
 29 25  1  0  0  0  0
 30 26  1  0  0  0  0
 31 32  1  0  0  0  0
 33 31  1  0  0  0  0
 34 31  1  0  0  0  0
M  END
>  <minimizedAffinity>
-5.7357707

$$$$

 OpenBabel03272500283D

 34 36  0  0  0  0  0  0  0  0999 V2000
   36.7850   27.5780   34.5900 C   0  0  0  0  0  0  0  0  0  0  0  0
   35.9890   27.2050   35.2850 H   0  0  0  0  0  0  0  0  0  0  0  0
   37.4710   28.1500   35.2840 H   0  0  0  0  0  0  0  0  0  0  0  0
   36.1590   28.4850   33.6700 C   0  0  0  0  0  0  0  0  0  0  0  0
   34.9590   29.0550   33.9510 C   0  0  0  0  0  0  0  0  0  0  0  0
   34.3440   29.9400   33.0580 C   0  0  0  0  0  0  0  0  0  0  0  0
   35.0470   30.1820   31.8840 N   0  0  0  0  0  0  0  0  0  0  0  0
   36.2300   29.6040   31.6320 C   0  0  0  0  0  0  0  0  0  0  0  0
   36.7600   28.7640   32.5380 N   0  0  0  0  0  0  0  0  0  0  0  0
   34.3920   28.8900   34.8460 H   0  0  0  0  0  0  0  0  0  0  0  0
   33.4070   30.4050   33.2450 H   0  0  0  0  0  0  0  0  0  0  0  0
   36.9370   32.6140   31.3380 Br  0  0  0  0  0  0  0  0  0  0  0  0
   37.3110   31.2040   30.1110 C   0  0  0  0  0  0  0  0  0  0  0  0
   36.9270   29.8900   30.3850 C   0  0  0  0  0  0  0  0  0  0  0  0
   37.2050   28.8920   29.4940 C   0  0  0  0  0  0  0  0  0  0  0  0
   36.9160   27.8490   29.6820 H   0  0  0  0  0  0  0  0  0  0  0  0
   37.8690   29.1170   28.2900 C   0  0  0  0  0  0  0  0  0  0  0  0
   38.0760   28.3070   27.6000 H   0  0  0  0  0  0  0  0  0  0  0  0
   38.2600   30.4230   27.9980 C   0  0  0  0  0  3  0  0  0  0  0  0
   37.9680   31.4220   28.9190 C   0  0  0  0  0  3  0  0  0  0  0  0
   37.5760   26.4440   34.0930 C   0  0  0  0  0  0  0  0  0  0  0  0
   38.4910   26.7240   33.5320 H   0  0  0  0  0  0  0  0  0  0  0  0
   36.9870   25.8350   33.3460 H   0  0  0  0  0  0  0  0  0  0  0  0
   37.9780   25.4700   35.1280 C   0  0  0  0  0  0  0  0  0  0  0  0
   38.7700   24.3710   34.8080 C   0  0  0  0  0  0  0  0  0  0  0  0
   38.9810   23.6490   35.9550 C   0  0  0  0  0  0  0  0  0  0  0  0
   38.3330   24.2970   36.9370 N   0  0  0  0  0  0  0  0  0  0  0  0
   37.7600   25.3530   36.4200 N   0  0  0  0  0  0  0  0  0  0  0  0
   39.1720   24.0990   33.8300 H   0  0  0  0  0  0  0  0  0  0  0  0
   39.5480   22.7250   36.1210 H   0  0  0  0  0  0  0  0  0  0  0  0
   38.2480   23.9350   38.3510 C   0  0  0  0  0  0  0  0  0  0  0  0
   37.3070   22.9350   38.5270 F   0  0  0  0  0  0  0  0  0  0  0  0
   37.8900   25.0010   39.1370 F   0  0  0  0  0  0  0  0  0  0  0  0
   39.4490   23.4370   38.8160 F   0  0  0  0  0  0  0  0  0  0  0  0
  1  3  1  0  0  0  0
  1  2  1  0  0  0  0
  4  5  1  0  0  0  0
  4  1  1  0  0  0  0
  5 10  1  0  0  0  0
  6 11  1  0  0  0  0
  6  5  2  0  0  0  0
  7  6  1  0  0  0  0
  8  7  2  0  0  0  0
  8  9  1  0  0  0  0
  9  4  2  0  0  0  0
 13 14  1  0  0  0  0
 13 12  1  0  0  0  0
 14  8  1  0  0  0  0
 15 16  1  0  0  0  0
 15 14  2  0  0  0  0
 17 15  1  0  0  0  0
 18 17  1  0  0  0  0
 19 17  2  0  0  0  0
 19 20  1  0  0  0  0
 20 13  2  0  0  0  0
 21  1  1  0  0  0  0
 21 24  1  0  0  0  0
 22 21  1  0  0  0  0
 23 21  1  0  0  0  0
 24 28  2  0  0  0  0
 25 24  1  0  0  0  0
 25 26  2  0  0  0  0
 26 30  1  0  0  0  0
 26 27  1  0  0  0  0
 27 31  1  0  0  0  0
 28 27  1  0  0  0  0
 29 25  1  0  0  0  0
 31 32  1  0  0  0  0
 31 34  1  0  0  0  0
 31 33  1  0  0  0  0
M  END
>  <minimizedAffinity>
-5.67576599

$$$$

 OpenBabel03272500283D

 34 36  0  0  0  0  0  0  0  0999 V2000
   36.5940   26.5460   32.1590 C   0  0  0  0  0  0  0  0  0  0  0  0
   36.5490   26.2390   33.2360 H   0  0  0  0  0  0  0  0  0  0  0  0
   37.6880   26.4090   31.9080 H   0  0  0  0  0  0  0  0  0  0  0  0
   36.2520   27.9390   32.0980 C   0  0  0  0  0  0  0  0  0  0  0  0
   36.3810   28.6450   30.9450 C   0  0  0  0  0  0  0  0  0  0  0  0
   36.0490   30.0030   30.8790 C   0  0  0  0  0  0  0  0  0  0  0  0
   35.5850   30.5580   32.0660 N   0  0  0  0  0  0  0  0  0  0  0  0
   35.4670   29.8370   33.1890 C   0  0  0  0  0  0  0  0  0  0  0  0
   35.8060   28.5370   33.1770 N   0  0  0  0  0  0  0  0  0  0  0  0
   36.7360   28.2480   30.0140 H   0  0  0  0  0  0  0  0  0  0  0  0
   36.1370   30.5870   29.9950 H   0  0  0  0  0  0  0  0  0  0  0  0
   32.4130   29.4260   33.5820 Br  0  0  0  0  0  0  0  0  0  0  0  0
   33.6190   30.3670   34.7210 C   0  0  0  0  0  0  0  0  0  0  0  0
   34.9750   30.4670   34.4080 C   0  0  0  0  0  0  0  0  0  0  0  0
   35.8250   31.1450   35.2370 C   0  0  0  0  0  0  0  0  0  0  0  0
   36.8970   31.2400   35.0170 H   0  0  0  0  0  0  0  0  0  0  0  0
   35.4020   31.7620   36.4120 C   0  0  0  0  0  0  0  0  0  0  0  0
   36.0960   32.2950   37.0510 H   0  0  0  0  0  0  0  0  0  0  0  0
   34.0500   31.6740   36.7410 C   0  0  0  0  0  3  0  0  0  0  0  0
   33.2050   30.9790   35.8840 C   0  0  0  0  0  3  0  0  0  0  0  0
   35.8700   25.5670   31.3370 C   0  0  0  0  0  0  0  0  0  0  0  0
   36.0470   25.6540   30.2450 H   0  0  0  0  0  0  0  0  0  0  0  0
   34.7530   25.7040   31.4330 H   0  0  0  0  0  0  0  0  0  0  0  0
   36.1030   24.1570   31.7080 C   0  0  0  0  0  0  0  0  0  0  0  0
   37.2070   23.7920   32.4750 C   0  0  0  0  0  0  0  0  0  0  0  0
   37.1660   22.4330   32.6610 C   0  0  0  0  0  0  0  0  0  0  0  0
   36.0680   21.9940   32.0220 N   0  0  0  0  0  0  0  0  0  0  0  0
   35.4740   23.0250   31.4790 N   0  0  0  0  0  0  0  0  0  0  0  0
   37.9870   24.4420   32.8760 H   0  0  0  0  0  0  0  0  0  0  0  0
   37.8480   21.7670   33.2030 H   0  0  0  0  0  0  0  0  0  0  0  0
   35.5740   20.6220   31.9190 C   0  0  0  0  0  0  0  0  0  0  0  0
   36.2080   19.8210   32.8520 F   0  0  0  0  0  0  0  0  0  0  0  0
   35.7950   20.0850   30.6750 F   0  0  0  0  0  0  0  0  0  0  0  0
   34.2220   20.5530   32.1870 F   0  0  0  0  0  0  0  0  0  0  0  0
  1  2  1  0  0  0  0
  3  1  1  0  0  0  0
  4  1  1  0  0  0  0
  4  9  1  0  0  0  0
  5  4  2  0  0  0  0
  6  5  1  0  0  0  0
  6  7  2  0  0  0  0
  7  8  1  0  0  0  0
  8 14  1  0  0  0  0
  9  8  2  0  0  0  0
 10  5  1  0  0  0  0
 11  6  1  0  0  0  0
 12 13  1  0  0  0  0
 13 20  1  0  0  0  0
 14 13  2  0  0  0  0
 14 15  1  0  0  0  0
 15 17  2  0  0  0  0
 16 15  1  0  0  0  0
 17 19  1  0  0  0  0
 17 18  1  0  0  0  0
 20 19  2  0  0  0  0
 21 23  1  0  0  0  0
 21 24  1  0  0  0  0
 21  1  1  0  0  0  0
 22 21  1  0  0  0  0
 24 25  1  0  0  0  0
 25 26  2  0  0  0  0
 25 29  1  0  0  0  0
 26 30  1  0  0  0  0
 27 26  1  0  0  0  0
 28 24  2  0  0  0  0
 28 27  1  0  0  0  0
 31 27  1  0  0  0  0
 31 34  1  0  0  0  0
 31 32  1  0  0  0  0
 33 31  1  0  0  0  0
M  END
>  <minimizedAffinity>
-5.64255619

$$$$

 OpenBabel03272500283D

 34 36  0  0  0  0  0  0  0  0999 V2000
   37.1560   27.3510   33.2170 C   0  0  0  0  0  0  0  0  0  0  0  0
   37.8320   27.2600   32.3280 H   0  0  0  0  0  0  0  0  0  0  0  0
   36.5140   26.4230   33.1350 H   0  0  0  0  0  0  0  0  0  0  0  0
   36.3480   28.5210   33.0220 C   0  0  0  0  0  0  0  0  0  0  0  0
   36.0920   29.0000   31.7770 C   0  0  0  0  0  0  0  0  0  0  0  0
   35.3050   30.1400   31.5810 C   0  0  0  0  0  0  0  0  0  0  0  0
   34.8170   30.7300   32.7410 N   0  0  0  0  0  0  0  0  0  0  0  0
   35.0860   30.2360   33.9570 C   0  0  0  0  0  0  0  0  0  0  0  0
   35.8500   29.1370   34.0680 N   0  0  0  0  0  0  0  0  0  0  0  0
   36.4530   28.5690   30.8640 H   0  0  0  0  0  0  0  0  0  0  0  0
   35.0830   30.5430   30.6230 H   0  0  0  0  0  0  0  0  0  0  0  0
   32.1900   29.3210   34.6080 Br  0  0  0  0  0  0  0  0  0  0  0  0
   33.2560   30.5820   35.5610 C   0  0  0  0  0  0  0  0  0  0  0  0
   34.5500   30.8930   35.1430 C   0  0  0  0  0  0  0  0  0  0  0  0
   35.3000   31.7990   35.8400 C   0  0  0  0  0  0  0  0  0  0  0  0
   36.3210   32.0640   35.5340 H   0  0  0  0  0  0  0  0  0  0  0  0
   34.8310   32.4510   36.9780 C   0  0  0  0  0  0  0  0  0  0  0  0
   35.4460   33.1670   37.5110 H   0  0  0  0  0  0  0  0  0  0  0  0
   33.5400   32.1550   37.4110 C   0  0  0  0  0  3  0  0  0  0  0  0
   32.7960   31.2290   36.6880 C   0  0  0  0  0  3  0  0  0  0  0  0
   37.9390   27.1850   34.4500 C   0  0  0  0  0  0  0  0  0  0  0  0
   37.6220   27.8330   35.2930 H   0  0  0  0  0  0  0  0  0  0  0  0
   39.0180   27.4760   34.2860 H   0  0  0  0  0  0  0  0  0  0  0  0
   38.0020   25.8010   34.9600 C   0  0  0  0  0  0  0  0  0  0  0  0
   38.1470   25.5460   36.3210 C   0  0  0  0  0  0  0  0  0  0  0  0
   38.1750   24.1860   36.4990 C   0  0  0  0  0  0  0  0  0  0  0  0
   38.0500   23.6390   35.2780 N   0  0  0  0  0  0  0  0  0  0  0  0
   37.9510   24.6090   34.4060 N   0  0  0  0  0  0  0  0  0  0  0  0
   38.2280   26.2720   37.1330 H   0  0  0  0  0  0  0  0  0  0  0  0
   38.2760   23.5890   37.4140 H   0  0  0  0  0  0  0  0  0  0  0  0
   38.0220   22.2210   34.9250 C   0  0  0  0  0  0  0  0  0  0  0  0
   37.3640   22.0460   33.7210 F   0  0  0  0  0  0  0  0  0  0  0  0
   37.3830   21.4640   35.8750 F   0  0  0  0  0  0  0  0  0  0  0  0
   39.2980   21.7200   34.7580 F   0  0  0  0  0  0  0  0  0  0  0  0
  1 21  1  0  0  0  0
  2  1  1  0  0  0  0
  3  1  1  0  0  0  0
  4  1  1  0  0  0  0
  4  9  1  0  0  0  0
  5  4  2  0  0  0  0
  6  5  1  0  0  0  0
  6  7  2  0  0  0  0
  7  8  1  0  0  0  0
  8  9  2  0  0  0  0
  8 14  1  0  0  0  0
 10  5  1  0  0  0  0
 11  6  1  0  0  0  0
 12 13  1  0  0  0  0
 13 20  1  0  0  0  0
 14 13  2  0  0  0  0
 14 15  1  0  0  0  0
 15 17  2  0  0  0  0
 16 15  1  0  0  0  0
 17 19  1  0  0  0  0
 17 18  1  0  0  0  0
 20 19  2  0  0  0  0
 21 24  1  0  0  0  0
 21 22  1  0  0  0  0
 23 21  1  0  0  0  0
 24 25  1  0  0  0  0
 25 26  2  0  0  0  0
 25 29  1  0  0  0  0
 26 30  1  0  0  0  0
 27 26  1  0  0  0  0
 28 24  2  0  0  0  0
 28 27  1  0  0  0  0
 31 27  1  0  0  0  0
 31 33  1  0  0  0  0
 32 31  1  0  0  0  0
 34 31  1  0  0  0  0
M  END
>  <minimizedAffinity>
-5.61479425

$$$$
