
 OpenBabel03272504093D

 33 35  0  0  0  0  0  0  0  0999 V2000
   37.1820   30.6280   50.0950 C   0  0  0  0  0  0  0  0  0  0  0  0
   36.8590   30.5640   48.7320 C   0  0  0  0  0  0  0  0  0  0  0  0
   35.6370   29.9750   48.3300 C   0  0  0  0  0  0  0  0  0  0  0  0
   34.8290   29.4950   49.3070 N   0  0  0  0  0  0  0  0  0  0  0  0
   35.1820   29.5790   50.6290 C   0  0  0  0  0  0  0  0  0  0  0  0
   36.3550   30.1450   51.0160 N   0  0  0  0  0  0  0  0  0  0  0  0
   34.2670   29.0480   51.5990 N   0  0  0  0  0  0  0  0  0  0  0  0
   38.1150   31.0800   50.4040 H   0  0  0  0  0  0  0  0  0  0  0  0
   33.9250   29.7230   52.3260 H   0  0  0  0  0  0  0  0  0  0  0  0
   33.9100   28.0730   51.6500 H   0  0  0  0  0  0  0  0  0  0  0  0
   38.0070   33.3590   49.1070 Cl  0  0  0  0  0  0  0  0  0  0  0  0
   38.4450   32.3530   47.7570 C   0  0  0  0  0  0  0  0  0  0  0  0
   37.8380   31.1340   47.7660 C   0  0  0  0  0  0  0  0  0  0  0  0
   38.1250   30.2400   46.7230 C   0  0  0  0  0  0  0  0  0  0  0  0
   38.9840   30.5490   45.7120 C   0  0  0  0  0  0  0  0  0  0  0  0
   39.5900   31.8070   45.7350 C   0  0  0  0  0  0  0  0  0  0  0  0
   40.7050   32.2620   44.4800 Cl  0  0  0  0  0  0  0  0  0  0  0  0
   39.3110   32.6830   46.7520 C   0  0  0  0  0  0  0  0  0  0  0  0
   37.7250   29.2420   46.6150 H   0  0  0  0  0  0  0  0  0  0  0  0
   39.2420   29.9090   44.8840 H   0  0  0  0  0  0  0  0  0  0  0  0
   39.7480   33.6770   46.8400 H   0  0  0  0  0  0  0  0  0  0  0  0
   35.3290   29.9190   46.9150 C   0  0  0  0  0  0  0  0  0  0  0  0
   35.8730   30.7830   46.4300 H   0  0  0  0  0  0  0  0  0  0  0  0
   35.8160   28.9930   46.4840 H   0  0  0  0  0  0  0  0  0  0  0  0
   34.1550   27.1000   46.9520 Br  0  0  0  0  0  0  0  0  0  0  0  0
   33.2220   28.7270   46.5070 C   0  0  0  0  0  0  0  0  0  0  0  0
   33.9100   29.9300   46.5490 C   0  0  0  0  0  0  0  0  0  0  0  0
   33.2520   31.1140   46.2380 C   0  0  0  0  0  0  0  0  0  0  0  0
   33.7280   32.0660   46.2460 H   0  0  0  0  0  0  0  0  0  0  0  0
   31.9110   31.1130   45.8820 C   0  0  0  0  0  0  0  0  0  0  0  0
   31.3930   32.0580   45.6290 H   0  0  0  0  0  0  0  0  0  0  0  0
   31.2370   29.9110   45.8430 C   0  0  0  0  0  3  0  0  0  0  0  0
   31.8790   28.7100   46.1520 C   0  0  0  0  0  3  0  0  0  0  0  0
  1  8  1  0  0  0  0
  1  6  1  0  0  0  0
  2  1  2  0  0  0  0
  3  2  1  0  0  0  0
  3  4  2  0  0  0  0
  4  5  1  0  0  0  0
  5  6  2  0  0  0  0
  5  7  1  0  0  0  0
  7 10  1  0  0  0  0
  7  9  1  0  0  0  0
 12 13  1  0  0  0  0
 12 11  1  0  0  0  0
 13  2  1  0  0  0  0
 14 13  2  0  0  0  0
 15 16  2  0  0  0  0
 15 14  1  0  0  0  0
 16 18  1  0  0  0  0
 17 16  1  0  0  0  0
 18 21  1  0  0  0  0
 18 12  2  0  0  0  0
 19 14  1  0  0  0  0
 20 15  1  0  0  0  0
 22  3  1  0  0  0  0
 23 22  1  0  0  0  0
 24 22  1  0  0  0  0
 26 27  1  0  0  0  0
 26 25  1  0  0  0  0
 27 22  1  0  0  0  0
 28 29  1  0  0  0  0
 28 27  2  0  0  0  0
 30 28  1  0  0  0  0
 31 30  1  0  0  0  0
 32 30  2  0  0  0  0
 32 33  1  0  0  0  0
 33 26  2  0  0  0  0
M  END
>  <minimizedAffinity>
-5.19216299

>  <minimizedRMSD>
0.673105299

$$$$
