
 OpenBabel03272503493D

 37 39  0  0  1  0  0  0  0  0999 V2000
   33.2760   27.2680   45.8230 C   0  0  1  0  0  0  0  0  0  0  0  0
   33.9080   27.4290   47.2220 C   0  0  2  0  0  0  0  0  0  0  0  0
   33.7000   26.2230   47.8100 O   0  0  0  0  0  0  0  0  0  0  0  0
   34.0790   25.3060   46.8410 C   0  0  0  0  0  0  0  0  0  0  0  0
   33.6950   25.8570   45.4800 C   0  0  2  0  0  0  0  0  0  0  0  0
   33.7500   28.0090   45.1320 H   0  0  0  0  0  0  0  0  0  0  0  0
   34.9580   27.7310   47.0370 H   0  0  0  0  0  0  0  0  0  0  0  0
   33.4750   24.3900   47.0110 H   0  0  0  0  0  0  0  0  0  0  0  0
   35.1360   25.0210   46.8910 H   0  0  0  0  0  0  0  0  0  0  0  0
   32.7650   25.3620   45.1020 H   0  0  0  0  0  0  0  0  0  0  0  0
   31.9140   27.4740   45.8810 O   0  0  0  0  0  0  0  0  0  0  0  0
   31.6470   28.0650   45.1350 H   0  0  0  0  0  0  0  0  0  0  0  0
   33.2430   28.5000   47.7750 O   0  0  0  0  0  0  0  0  0  0  0  0
   35.3350   29.7820   46.7940 O   0  0  0  0  0  0  0  0  0  0  0  0
   34.0600   29.9610   47.6130 P   0  0  1  0  0  0  0  0  0  0  0  0
   33.1230   31.0580   46.7260 O   0  0  0  0  0  0  0  0  0  0  0  0
   32.3000   31.2140   47.2760 H   0  0  0  0  0  0  0  0  0  0  0  0
   34.3430   30.5510   49.1880 O   0  0  0  0  0  0  0  0  0  0  0  0
   35.5910   30.4560   49.7900 C   0  0  0  0  0  0  0  0  0  0  0  0
   35.9760   29.4480   50.7020 C   0  0  0  0  0  0  0  0  0  0  0  0
   37.2620   29.4870   51.2210 C   0  0  0  0  0  0  0  0  0  0  0  0
   38.0930   30.4950   50.8310 N   0  0  0  0  0  0  0  0  0  0  0  0
   37.6950   31.4490   49.9550 C   0  0  0  0  0  0  0  0  0  0  0  0
   36.4380   31.4320   49.4310 N   0  0  0  0  0  0  0  0  0  0  0  0
   35.2280   28.7260   50.9150 H   0  0  0  0  0  0  0  0  0  0  0  0
   37.5420   28.7110   51.9140 H   0  0  0  0  0  0  0  0  0  0  0  0
   38.4010   32.2280   49.6820 H   0  0  0  0  0  0  0  0  0  0  0  0
   34.7520   25.8570   44.6400 O   0  0  0  0  0  0  0  0  0  0  0  0
   36.8870   23.4790   45.1050 Br  0  0  0  0  0  0  0  0  0  0  0  0
   36.1190   24.1000   43.5030 C   0  0  0  0  0  0  0  0  0  0  0  0
   35.2330   25.1370   43.6200 C   0  0  0  0  0  0  0  0  0  0  0  0
   34.6660   25.5900   42.4180 C   0  0  0  0  0  0  0  0  0  0  0  0
   33.9420   26.3980   42.2750 H   0  0  0  0  0  0  0  0  0  0  0  0
   34.9890   25.0160   41.1810 C   0  0  0  0  0  0  0  0  0  0  0  0
   34.5840   25.3270   40.2300 H   0  0  0  0  0  0  0  0  0  0  0  0
   35.8940   23.9750   41.1650 C   0  0  0  0  0  3  0  0  0  0  0  0
   36.4770   23.4950   42.3180 C   0  0  0  0  0  3  0  0  0  0  0  0
  1  6  1  6  0  0  0
  1 11  1  0  0  0  0
  1  2  1  0  0  0  0
  2  7  1  6  0  0  0
  2 13  1  0  0  0  0
  2  3  1  0  0  0  0
  4  9  1  0  0  0  0
  4  8  1  0  0  0  0
  4  3  1  0  0  0  0
  5 10  1  6  0  0  0
  5  1  1  0  0  0  0
  5  4  1  0  0  0  0
 12 11  1  0  0  0  0
 15 14  2  6  0  0  0
 15 13  1  0  0  0  0
 15 18  1  0  0  0  0
 16 17  1  0  0  0  0
 16 15  1  0  0  0  0
 18 19  1  0  0  0  0
 19 20  1  0  0  0  0
 20 25  1  0  0  0  0
 20 21  2  0  0  0  0
 21 26  1  0  0  0  0
 22 21  1  0  0  0  0
 23 22  2  0  0  0  0
 24 19  2  0  0  0  0
 24 23  1  0  0  0  0
 27 23  1  0  0  0  0
 28  5  1  0  0  0  0
 30 31  1  0  0  0  0
 30 29  1  0  0  0  0
 31 28  1  0  0  0  0
 32 31  2  0  0  0  0
 33 32  1  0  0  0  0
 34 32  1  0  0  0  0
 35 34  1  0  0  0  0
 36 34  2  0  0  0  0
 36 37  1  0  0  0  0
 37 30  2  0  0  0  0
M  END
>  <minimizedAffinity>
-4.20039034

>  <minimizedRMSD>
0.92712605

$$$$
