
 OpenBabel03272503493D

 37 39  0  0  1  0  0  0  0  0999 V2000
   33.2380   27.2740   45.8440 C   0  0  1  0  0  0  0  0  0  0  0  0
   33.9060   27.4420   47.2250 C   0  0  2  0  0  0  0  0  0  0  0  0
   33.7170   26.2360   47.8220 O   0  0  0  0  0  0  0  0  0  0  0  0
   34.0740   25.3180   46.8450 C   0  0  0  0  0  0  0  0  0  0  0  0
   33.6530   25.8640   45.4940 C   0  0  2  0  0  0  0  0  0  0  0  0
   33.6920   28.0160   45.1380 H   0  0  0  0  0  0  0  0  0  0  0  0
   34.9500   27.7470   47.0120 H   0  0  0  0  0  0  0  0  0  0  0  0
   33.4780   24.4010   47.0330 H   0  0  0  0  0  0  0  0  0  0  0  0
   35.1330   25.0370   46.8690 H   0  0  0  0  0  0  0  0  0  0  0  0
   32.7150   25.3650   45.1410 H   0  0  0  0  0  0  0  0  0  0  0  0
   31.8770   27.4760   45.9360 O   0  0  0  0  0  0  0  0  0  0  0  0
   31.5890   28.0640   45.1960 H   0  0  0  0  0  0  0  0  0  0  0  0
   33.2520   28.5120   47.7920 O   0  0  0  0  0  0  0  0  0  0  0  0
   35.3350   29.7910   46.7890 O   0  0  0  0  0  0  0  0  0  0  0  0
   34.0640   29.9740   47.6140 P   0  0  1  0  0  0  0  0  0  0  0  0
   33.1190   31.0620   46.7240 O   0  0  0  0  0  0  0  0  0  0  0  0
   32.2990   31.2200   47.2770 H   0  0  0  0  0  0  0  0  0  0  0  0
   34.3550   30.5770   49.1830 O   0  0  0  0  0  0  0  0  0  0  0  0
   35.6000   30.4700   49.7870 C   0  0  0  0  0  0  0  0  0  0  0  0
   35.9740   29.4560   50.6980 C   0  0  0  0  0  0  0  0  0  0  0  0
   37.2590   29.4830   51.2200 C   0  0  0  0  0  0  0  0  0  0  0  0
   38.1000   30.4830   50.8340 N   0  0  0  0  0  0  0  0  0  0  0  0
   37.7130   31.4420   49.9580 C   0  0  0  0  0  0  0  0  0  0  0  0
   36.4570   31.4380   49.4310 N   0  0  0  0  0  0  0  0  0  0  0  0
   35.2190   28.7400   50.9090 H   0  0  0  0  0  0  0  0  0  0  0  0
   37.5300   28.7030   51.9130 H   0  0  0  0  0  0  0  0  0  0  0  0
   38.4270   32.2150   49.6880 H   0  0  0  0  0  0  0  0  0  0  0  0
   34.6880   25.8650   44.6260 O   0  0  0  0  0  0  0  0  0  0  0  0
   33.3820   25.8070   41.6740 Br  0  0  0  0  0  0  0  0  0  0  0  0
   34.8700   24.8680   42.3420 C   0  0  0  0  0  0  0  0  0  0  0  0
   35.1920   25.0990   43.6520 C   0  0  0  0  0  0  0  0  0  0  0  0
   36.3040   24.3930   44.1370 C   0  0  0  0  0  0  0  0  0  0  0  0
   36.7370   24.4230   45.1430 H   0  0  0  0  0  0  0  0  0  0  0  0
   37.0340   23.5100   43.3310 C   0  0  0  0  0  0  0  0  0  0  0  0
   37.8940   22.9450   43.6550 H   0  0  0  0  0  0  0  0  0  0  0  0
   36.6320   23.3430   42.0210 C   0  0  0  0  0  3  0  0  0  0  0  0
   35.5470   24.0140   41.4990 C   0  0  0  0  0  3  0  0  0  0  0  0
  1  6  1  6  0  0  0
  1 11  1  0  0  0  0
  1  2  1  0  0  0  0
  2  7  1  6  0  0  0
  2 13  1  0  0  0  0
  2  3  1  0  0  0  0
  4  9  1  0  0  0  0
  4  8  1  0  0  0  0
  4  3  1  0  0  0  0
  5 10  1  6  0  0  0
  5  1  1  0  0  0  0
  5  4  1  0  0  0  0
 12 11  1  0  0  0  0
 15 14  2  6  0  0  0
 15 13  1  0  0  0  0
 15 18  1  0  0  0  0
 16 17  1  0  0  0  0
 16 15  1  0  0  0  0
 18 19  1  0  0  0  0
 19 20  1  0  0  0  0
 20 25  1  0  0  0  0
 20 21  2  0  0  0  0
 21 26  1  0  0  0  0
 22 21  1  0  0  0  0
 23 22  2  0  0  0  0
 24 19  2  0  0  0  0
 24 23  1  0  0  0  0
 27 23  1  0  0  0  0
 28  5  1  0  0  0  0
 29 30  1  0  0  0  0
 30 31  1  0  0  0  0
 31 32  2  0  0  0  0
 31 28  1  0  0  0  0
 32 33  1  0  0  0  0
 34 35  1  0  0  0  0
 34 32  1  0  0  0  0
 36 34  2  0  0  0  0
 37 36  1  0  0  0  0
 37 30  2  0  0  0  0
M  END
>  <minimizedAffinity>
-4.14911032

>  <minimizedRMSD>
0.983662546

$$$$
