
 OpenBabel03272500263D

 34 36  0  0  0  0  0  0  0  0999 V2000
   39.7490   31.8560   46.4830 C   0  0  0  0  0  0  0  0  0  0  0  0
   40.7070   32.4380   46.4910 H   0  0  0  0  0  0  0  0  0  0  0  0
   40.0610   30.8620   46.9230 H   0  0  0  0  0  0  0  0  0  0  0  0
   39.3680   31.6820   45.1100 C   0  0  0  0  0  0  0  0  0  0  0  0
   39.1500   32.7500   44.2990 C   0  0  0  0  0  0  0  0  0  0  0  0
   38.7790   32.5860   42.9600 C   0  0  0  0  0  0  0  0  0  0  0  0
   38.6530   31.2680   42.5360 N   0  0  0  0  0  0  0  0  0  0  0  0
   38.8750   30.2330   43.3580 C   0  0  0  0  0  0  0  0  0  0  0  0
   39.2280   30.4670   44.6330 N   0  0  0  0  0  0  0  0  0  0  0  0
   39.2380   33.7770   44.5950 H   0  0  0  0  0  0  0  0  0  0  0  0
   38.6000   33.3970   42.2970 H   0  0  0  0  0  0  0  0  0  0  0  0
   41.4690   29.1810   42.0150 Br  0  0  0  0  0  0  0  0  0  0  0  0
   39.8140   28.2600   42.2350 C   0  0  0  0  0  0  0  0  0  0  0  0
   38.7290   28.8700   42.8650 C   0  0  0  0  0  0  0  0  0  0  0  0
   37.5500   28.1930   43.0130 C   0  0  0  0  0  0  0  0  0  0  0  0
   36.6780   28.6470   43.5040 H   0  0  0  0  0  0  0  0  0  0  0  0
   37.3650   26.8900   42.5570 C   0  0  0  0  0  0  0  0  0  0  0  0
   36.4200   26.3770   42.6880 H   0  0  0  0  0  0  0  0  0  0  0  0
   38.4380   26.2630   41.9250 C   0  0  0  0  0  3  0  0  0  0  0  0
   39.6270   26.9700   41.7850 C   0  0  0  0  0  3  0  0  0  0  0  0
   38.8080   32.4410   47.4470 C   0  0  0  0  0  0  0  0  0  0  0  0
   38.0630   33.1370   47.0080 H   0  0  0  0  0  0  0  0  0  0  0  0
   39.3490   33.0810   48.2050 H   0  0  0  0  0  0  0  0  0  0  0  0
   38.0630   31.4580   48.2580 C   0  0  0  0  0  0  0  0  0  0  0  0
   37.0180   30.7200   47.7070 C   0  0  0  0  0  0  0  0  0  0  0  0
   36.5180   29.8960   48.6830 C   0  0  0  0  0  0  0  0  0  0  0  0
   37.2430   30.1320   49.7900 N   0  0  0  0  0  0  0  0  0  0  0  0
   38.1330   31.0460   49.5060 N   0  0  0  0  0  0  0  0  0  0  0  0
   36.6350   30.7630   46.6860 H   0  0  0  0  0  0  0  0  0  0  0  0
   35.6980   29.1670   48.6490 H   0  0  0  0  0  0  0  0  0  0  0  0
   37.1070   29.5080   51.1050 C   0  0  0  0  0  0  0  0  0  0  0  0
   37.8700   28.3550   51.1620 F   0  0  0  0  0  0  0  0  0  0  0  0
   35.8070   29.1740   51.3870 F   0  0  0  0  0  0  0  0  0  0  0  0
   37.5680   30.3400   52.1050 F   0  0  0  0  0  0  0  0  0  0  0  0
  1  2  1  0  0  0  0
  1  3  1  0  0  0  0
  1 21  1  0  0  0  0
  4  1  1  0  0  0  0
  5 10  1  0  0  0  0
  5  4  2  0  0  0  0
  6  5  1  0  0  0  0
  7  6  2  0  0  0  0
  7  8  1  0  0  0  0
  8  9  2  0  0  0  0
  9  4  1  0  0  0  0
 11  6  1  0  0  0  0
 12 13  1  0  0  0  0
 13 14  1  0  0  0  0
 14 15  2  0  0  0  0
 14  8  1  0  0  0  0
 15 16  1  0  0  0  0
 17 18  1  0  0  0  0
 17 15  1  0  0  0  0
 19 17  2  0  0  0  0
 20 19  1  0  0  0  0
 20 13  2  0  0  0  0
 21 23  1  0  0  0  0
 21 24  1  0  0  0  0
 22 21  1  0  0  0  0
 24 28  2  0  0  0  0
 25 24  1  0  0  0  0
 25 26  2  0  0  0  0
 26 27  1  0  0  0  0
 27 31  1  0  0  0  0
 28 27  1  0  0  0  0
 29 25  1  0  0  0  0
 30 26  1  0  0  0  0
 31 32  1  0  0  0  0
 31 33  1  0  0  0  0
 31 34  1  0  0  0  0
M  END
>  <minimizedAffinity>
-6.08399963

>  <minimizedRMSD>
2.0129354

$$$$
