
 OpenBabel03272504093D

 33 35  0  0  0  0  0  0  0  0999 V2000
   37.1810   30.6270   50.0950 C   0  0  0  0  0  0  0  0  0  0  0  0
   36.8590   30.5640   48.7320 C   0  0  0  0  0  0  0  0  0  0  0  0
   35.6370   29.9760   48.3300 C   0  0  0  0  0  0  0  0  0  0  0  0
   34.8280   29.4960   49.3060 N   0  0  0  0  0  0  0  0  0  0  0  0
   35.1810   29.5790   50.6290 C   0  0  0  0  0  0  0  0  0  0  0  0
   36.3540   30.1430   51.0160 N   0  0  0  0  0  0  0  0  0  0  0  0
   34.2660   29.0480   51.5980 N   0  0  0  0  0  0  0  0  0  0  0  0
   38.1150   31.0780   50.4050 H   0  0  0  0  0  0  0  0  0  0  0  0
   33.9240   29.7230   52.3250 H   0  0  0  0  0  0  0  0  0  0  0  0
   33.9080   28.0730   51.6480 H   0  0  0  0  0  0  0  0  0  0  0  0
   38.0060   33.3590   49.1070 Cl  0  0  0  0  0  0  0  0  0  0  0  0
   38.4450   32.3530   47.7580 C   0  0  0  0  0  0  0  0  0  0  0  0
   37.8380   31.1340   47.7670 C   0  0  0  0  0  0  0  0  0  0  0  0
   38.1250   30.2400   46.7240 C   0  0  0  0  0  0  0  0  0  0  0  0
   38.9850   30.5490   45.7130 C   0  0  0  0  0  0  0  0  0  0  0  0
   39.5910   31.8080   45.7370 C   0  0  0  0  0  0  0  0  0  0  0  0
   40.7060   32.2620   44.4810 Cl  0  0  0  0  0  0  0  0  0  0  0  0
   39.3110   32.6830   46.7530 C   0  0  0  0  0  0  0  0  0  0  0  0
   37.7250   29.2420   46.6160 H   0  0  0  0  0  0  0  0  0  0  0  0
   39.2430   29.9090   44.8850 H   0  0  0  0  0  0  0  0  0  0  0  0
   39.7480   33.6770   46.8410 H   0  0  0  0  0  0  0  0  0  0  0  0
   35.3280   29.9210   46.9150 C   0  0  0  0  0  0  0  0  0  0  0  0
   35.8700   30.7870   46.4310 H   0  0  0  0  0  0  0  0  0  0  0  0
   35.8160   28.9970   46.4830 H   0  0  0  0  0  0  0  0  0  0  0  0
   34.1570   27.1010   46.9510 Br  0  0  0  0  0  0  0  0  0  0  0  0
   33.2220   28.7270   46.5060 C   0  0  0  0  0  0  0  0  0  0  0  0
   33.9080   29.9310   46.5490 C   0  0  0  0  0  0  0  0  0  0  0  0
   33.2500   31.1150   46.2380 C   0  0  0  0  0  0  0  0  0  0  0  0
   33.7250   32.0680   46.2460 H   0  0  0  0  0  0  0  0  0  0  0  0
   31.9080   31.1120   45.8820 C   0  0  0  0  0  0  0  0  0  0  0  0
   31.3890   32.0560   45.6290 H   0  0  0  0  0  0  0  0  0  0  0  0
   31.2360   29.9100   45.8430 C   0  0  0  0  0  3  0  0  0  0  0  0
   31.8790   28.7090   46.1520 C   0  0  0  0  0  3  0  0  0  0  0  0
  1  8  1  0  0  0  0
  1  6  1  0  0  0  0
  2  1  2  0  0  0  0
  3  2  1  0  0  0  0
  3  4  2  0  0  0  0
  4  5  1  0  0  0  0
  5  6  2  0  0  0  0
  5  7  1  0  0  0  0
  7 10  1  0  0  0  0
  7  9  1  0  0  0  0
 12 13  1  0  0  0  0
 12 11  1  0  0  0  0
 13  2  1  0  0  0  0
 14 13  2  0  0  0  0
 15 16  2  0  0  0  0
 15 14  1  0  0  0  0
 16 18  1  0  0  0  0
 17 16  1  0  0  0  0
 18 21  1  0  0  0  0
 18 12  2  0  0  0  0
 19 14  1  0  0  0  0
 20 15  1  0  0  0  0
 22  3  1  0  0  0  0
 23 22  1  0  0  0  0
 24 22  1  0  0  0  0
 26 27  1  0  0  0  0
 26 25  1  0  0  0  0
 27 22  1  0  0  0  0
 28 29  1  0  0  0  0
 28 27  2  0  0  0  0
 30 28  1  0  0  0  0
 31 30  1  0  0  0  0
 32 30  2  0  0  0  0
 32 33  1  0  0  0  0
 33 26  2  0  0  0  0
M  END
>  <minimizedAffinity>
-5.1918869

>  <minimizedRMSD>
0.689956427

$$$$
