
 OpenBabel03272503493D

 37 39  0  0  1  0  0  0  0  0999 V2000
   33.2890   27.2790   45.8340 C   0  0  1  0  0  0  0  0  0  0  0  0
   33.8870   27.4250   47.2490 C   0  0  2  0  0  0  0  0  0  0  0  0
   33.6410   26.2210   47.8280 O   0  0  0  0  0  0  0  0  0  0  0  0
   34.0280   25.2990   46.8660 C   0  0  0  0  0  0  0  0  0  0  0  0
   33.6900   25.8610   45.4970 C   0  0  2  0  0  0  0  0  0  0  0  0
   33.7950   28.0130   45.1580 H   0  0  0  0  0  0  0  0  0  0  0  0
   34.9470   27.7080   47.0920 H   0  0  0  0  0  0  0  0  0  0  0  0
   33.4030   24.3950   47.0170 H   0  0  0  0  0  0  0  0  0  0  0  0
   35.0780   24.9950   46.9430 H   0  0  0  0  0  0  0  0  0  0  0  0
   32.7620   25.3840   45.0940 H   0  0  0  0  0  0  0  0  0  0  0  0
   31.9300   27.5100   45.8560 O   0  0  0  0  0  0  0  0  0  0  0  0
   31.6940   28.1080   45.1050 H   0  0  0  0  0  0  0  0  0  0  0  0
   33.2270   28.5060   47.7870 O   0  0  0  0  0  0  0  0  0  0  0  0
   35.3350   29.7620   46.8060 O   0  0  0  0  0  0  0  0  0  0  0  0
   34.0600   29.9580   47.6200 P   0  0  1  0  0  0  0  0  0  0  0  0
   33.1370   31.0600   46.7250 O   0  0  0  0  0  0  0  0  0  0  0  0
   32.3140   31.2270   47.2720 H   0  0  0  0  0  0  0  0  0  0  0  0
   34.3450   30.5530   49.1940 O   0  0  0  0  0  0  0  0  0  0  0  0
   35.5920   30.4580   49.7950 C   0  0  0  0  0  0  0  0  0  0  0  0
   35.9760   29.4530   50.7100 C   0  0  0  0  0  0  0  0  0  0  0  0
   37.2630   29.4920   51.2290 C   0  0  0  0  0  0  0  0  0  0  0  0
   38.0950   30.4970   50.8350 N   0  0  0  0  0  0  0  0  0  0  0  0
   37.6980   31.4480   49.9560 C   0  0  0  0  0  0  0  0  0  0  0  0
   36.4410   31.4310   49.4320 N   0  0  0  0  0  0  0  0  0  0  0  0
   35.2270   28.7320   50.9270 H   0  0  0  0  0  0  0  0  0  0  0  0
   37.5410   28.7180   51.9250 H   0  0  0  0  0  0  0  0  0  0  0  0
   38.4060   32.2250   49.6790 H   0  0  0  0  0  0  0  0  0  0  0  0
   34.7690   25.8430   44.6850 O   0  0  0  0  0  0  0  0  0  0  0  0
   34.9570   22.7010   43.9630 Br  0  0  0  0  0  0  0  0  0  0  0  0
   35.2640   24.2000   42.8670 C   0  0  0  0  0  0  0  0  0  0  0  0
   35.1060   25.4240   43.4600 C   0  0  0  0  0  0  0  0  0  0  0  0
   35.3370   26.5330   42.6320 C   0  0  0  0  0  0  0  0  0  0  0  0
   35.2690   27.5960   42.8910 H   0  0  0  0  0  0  0  0  0  0  0  0
   35.7070   26.3940   41.2880 C   0  0  0  0  0  0  0  0  0  0  0  0
   35.8960   27.2130   40.6110 H   0  0  0  0  0  0  0  0  0  0  0  0
   35.8420   25.1180   40.7810 C   0  0  0  0  0  3  0  0  0  0  0  0
   35.6250   23.9980   41.5530 C   0  0  0  0  0  3  0  0  0  0  0  0
  1  6  1  6  0  0  0
  1 11  1  0  0  0  0
  1  2  1  0  0  0  0
  2  7  1  6  0  0  0
  2 13  1  0  0  0  0
  2  3  1  0  0  0  0
  4  9  1  0  0  0  0
  4  8  1  0  0  0  0
  4  3  1  0  0  0  0
  5 10  1  6  0  0  0
  5  1  1  0  0  0  0
  5  4  1  0  0  0  0
 12 11  1  0  0  0  0
 15 14  2  6  0  0  0
 15 13  1  0  0  0  0
 15 18  1  0  0  0  0
 16 17  1  0  0  0  0
 16 15  1  0  0  0  0
 18 19  1  0  0  0  0
 19 20  1  0  0  0  0
 20 25  1  0  0  0  0
 20 21  2  0  0  0  0
 21 26  1  0  0  0  0
 22 21  1  0  0  0  0
 23 22  2  0  0  0  0
 24 19  2  0  0  0  0
 24 23  1  0  0  0  0
 27 23  1  0  0  0  0
 28  5  1  0  0  0  0
 30 31  1  0  0  0  0
 30 29  1  0  0  0  0
 31 28  1  0  0  0  0
 32 33  1  0  0  0  0
 32 31  2  0  0  0  0
 34 32  1  0  0  0  0
 35 34  1  0  0  0  0
 36 34  2  0  0  0  0
 36 37  1  0  0  0  0
 37 30  2  0  0  0  0
M  END
>  <minimizedAffinity>
-4.02984333

>  <minimizedRMSD>
0.681070566

$$$$
