
 OpenBabel03272507523D

 32 34  0  0  0  0  0  0  0  0999 V2000
   36.2930   31.1780   48.9030 N   0  0  0  0  0  0  0  0  0  0  0  0
   36.4050   31.9980   49.9480 C   0  0  0  0  0  0  0  0  0  0  0  0
   37.4740   32.8870   50.0170 C   0  0  0  0  0  0  0  0  0  0  0  0
   38.3360   32.8280   48.9610 C   0  0  0  0  0  0  0  0  0  0  0  0
   39.3080   33.6440   49.0330 O   0  0  0  0  0  0  0  0  0  0  0  0
   38.2590   32.0300   47.9030 N   0  0  0  0  0  0  0  0  0  0  0  0
   37.2000   31.1850   47.8870 C   0  0  0  0  0  0  0  0  0  0  0  0
   37.1070   30.4120   46.8860 O   0  0  0  0  0  0  0  0  0  0  0  0
   35.6620   31.9650   50.7400 H   0  0  0  0  0  0  0  0  0  0  0  0
   37.5980   33.5680   50.8530 H   0  0  0  0  0  0  0  0  0  0  0  0
   39.9440   34.6290   47.4400 Br  0  0  0  0  0  0  0  0  0  0  0  0
   40.0560   33.0210   46.4210 C   0  0  0  0  0  0  0  0  0  0  0  0
   39.1970   32.0260   46.8400 C   0  0  0  0  0  0  0  0  0  0  0  0
   39.1870   30.8100   46.1740 C   0  0  0  0  0  0  0  0  0  0  0  0
   38.5540   29.9390   46.4070 H   0  0  0  0  0  0  0  0  0  0  0  0
   40.0270   30.5670   45.0900 C   0  0  0  0  0  0  0  0  0  0  0  0
   40.0430   29.6260   44.5500 H   0  0  0  0  0  0  0  0  0  0  0  0
   40.8890   31.5910   44.6820 C   0  0  0  0  0  3  0  0  0  0  0  0
   40.8940   32.8000   45.3480 C   0  0  0  0  0  3  0  0  0  0  0  0
   34.9990   29.3520   49.8450 C   0  0  0  0  0  0  0  0  0  0  0  0
   35.2180   30.2340   48.7740 C   0  0  0  0  0  0  0  0  0  0  0  0
   34.3940   30.1540   47.6460 C   0  0  0  0  0  0  0  0  0  0  0  0
   33.4130   29.2170   47.6470 N   0  0  0  0  0  0  0  0  0  0  0  0
   33.2090   28.3870   48.6560 C   0  0  0  0  0  0  0  0  0  0  0  0
   33.9930   28.4510   49.7470 N   0  0  0  0  0  0  0  0  0  0  0  0
   34.5850   30.8530   46.8260 H   0  0  0  0  0  0  0  0  0  0  0  0
   32.4190   27.6380   48.6450 H   0  0  0  0  0  0  0  0  0  0  0  0
   37.1350   29.0260   51.2970 C   0  0  0  0  0  0  0  0  0  0  0  0
   37.9420   28.7580   50.3900 O   0  0  0  0  0  0  0  0  0  0  0  0
   35.7640   29.3560   51.0310 N   0  0  0  0  0  0  0  0  0  0  0  0
   37.5770   28.9800   52.2510 H   0  0  0  0  0  0  0  0  0  0  0  0
   35.2980   29.6520   51.9360 H   0  0  0  0  0  0  0  0  0  0  0  0
  1  2  1  0  0  0  0
  2  3  2  0  0  0  0
  2  9  1  0  0  0  0
  3 10  1  0  0  0  0
  4  5  2  0  0  0  0
  4  3  1  0  0  0  0
  6  4  1  0  0  0  0
  7  6  1  0  0  0  0
  7  1  1  0  0  0  0
  8  7  2  0  0  0  0
 12 13  1  0  0  0  0
 12 11  1  0  0  0  0
 13  6  1  0  0  0  0
 14 15  1  0  0  0  0
 14 13  2  0  0  0  0
 16 14  1  0  0  0  0
 17 16  1  0  0  0  0
 18 16  2  0  0  0  0
 18 19  1  0  0  0  0
 19 12  2  0  0  0  0
 20 30  1  0  0  0  0
 21  1  1  0  0  0  0
 21 20  2  0  0  0  0
 22 23  2  0  0  0  0
 22 21  1  0  0  0  0
 23 24  1  0  0  0  0
 24 25  2  0  0  0  0
 25 20  1  0  0  0  0
 26 22  1  0  0  0  0
 27 24  1  0  0  0  0
 28 31  1  0  0  0  0
 29 28  2  0  0  0  0
 30 28  1  0  0  0  0
 30 32  1  0  0  0  0
M  END
>  <minimizedAffinity>
-5.79424238

>  <minimizedRMSD>
1.03856349

$$$$
