
 OpenBabel03272502203D

 28 30  0  0  0  0  0  0  0  0999 V2000
   36.1000   30.4520   46.8040 C   0  0  0  0  0  0  0  0  0  0  0  0
   36.4920   30.3330   45.4560 C   0  0  0  0  0  0  0  0  0  0  0  0
   35.6040   29.6990   44.5680 C   0  0  0  0  0  0  0  0  0  0  0  0
   34.4200   29.2410   45.0680 N   0  0  0  0  0  0  0  0  0  0  0  0
   34.0840   29.3770   46.3690 C   0  0  0  0  0  0  0  0  0  0  0  0
   34.9220   29.9780   47.2230 N   0  0  0  0  0  0  0  0  0  0  0  0
   37.4170   30.6920   45.0730 H   0  0  0  0  0  0  0  0  0  0  0  0
   35.7970   29.5550   43.5290 H   0  0  0  0  0  0  0  0  0  0  0  0
   34.3520   27.7870   49.0520 Br  0  0  0  0  0  0  0  0  0  0  0  0
   32.7480   28.1570   48.0620 C   0  0  0  0  0  0  0  0  0  0  0  0
   32.8140   28.8820   46.8920 C   0  0  0  0  0  0  0  0  0  0  0  0
   31.6110   29.1140   46.2350 C   0  0  0  0  0  0  0  0  0  0  0  0
   30.3860   28.6640   46.6890 C   0  0  0  0  0  0  0  0  0  0  0  0
   30.3840   27.9490   47.8590 C   0  0  0  0  0  0  0  0  0  0  0  0
   31.5590   27.7020   48.5320 C   0  0  0  0  0  0  0  0  0  0  0  0
   31.6210   29.6790   45.3130 H   0  0  0  0  0  0  0  0  0  0  0  0
   29.4770   28.8760   46.1340 H   0  0  0  0  0  0  0  0  0  0  0  0
   29.4300   27.5900   48.2270 H   0  0  0  0  0  0  0  0  0  0  0  0
   31.4930   27.1280   49.4540 H   0  0  0  0  0  0  0  0  0  0  0  0
   38.1720   32.2630   45.4340 Br  0  0  0  0  0  0  0  0  0  0  0  0
   37.9810   31.9510   47.3170 C   0  0  0  0  0  0  0  0  0  0  0  0
   36.9870   31.1010   47.7590 C   0  0  0  0  0  0  0  0  0  0  0  0
   36.9450   30.9520   49.1270 C   0  0  0  0  0  0  0  0  0  0  0  0
   36.1920   30.3010   49.5440 H   0  0  0  0  0  0  0  0  0  0  0  0
   37.8200   31.5990   49.9740 C   0  0  0  0  0  0  0  0  0  0  0  0
   37.7130   31.4240   51.0440 H   0  0  0  0  0  0  0  0  0  0  0  0
   38.7930   32.4360   49.4850 C   0  0  0  0  0  3  0  0  0  0  0  0
   38.8770   32.6180   48.1210 C   0  0  0  0  0  3  0  0  0  0  0  0
  1  6  1  0  0  0  0
  1 22  1  0  0  0  0
  2  1  2  0  0  0  0
  3  4  2  0  0  0  0
  3  2  1  0  0  0  0
  4  5  1  0  0  0  0
  5 11  1  0  0  0  0
  5  6  2  0  0  0  0
  7  2  1  0  0  0  0
  8  3  1  0  0  0  0
 10 15  1  0  0  0  0
 10  9  1  0  0  0  0
 11 10  2  0  0  0  0
 12 13  2  0  0  0  0
 12 11  1  0  0  0  0
 13 14  1  0  0  0  0
 14 18  1  0  0  0  0
 14 15  2  0  0  0  0
 15 19  1  0  0  0  0
 16 12  1  0  0  0  0
 17 13  1  0  0  0  0
 20 21  1  0  0  0  0
 21 22  2  0  0  0  0
 21 28  1  0  0  0  0
 22 23  1  0  0  0  0
 23 24  1  0  0  0  0
 23 25  2  0  0  0  0
 25 26  1  0  0  0  0
 27 25  1  0  0  0  0
 28 27  2  0  0  0  0
M  END
>  <minimizedAffinity>
-5.59681892

>  <minimizedRMSD>
4.37729836

$$$$
