
 OpenBabel03272504093D

 33 35  0  0  0  0  0  0  0  0999 V2000
   36.6520   30.5120   49.7290 C   0  0  0  0  0  0  0  0  0  0  0  0
   36.5620   30.6650   48.3380 C   0  0  0  0  0  0  0  0  0  0  0  0
   35.3670   30.3080   47.6710 C   0  0  0  0  0  0  0  0  0  0  0  0
   34.3530   29.8260   48.4310 N   0  0  0  0  0  0  0  0  0  0  0  0
   34.4820   29.6920   49.7900 C   0  0  0  0  0  0  0  0  0  0  0  0
   35.6290   30.0350   50.4310 N   0  0  0  0  0  0  0  0  0  0  0  0
   33.3590   29.1750   50.5180 N   0  0  0  0  0  0  0  0  0  0  0  0
   37.5650   30.7870   50.2410 H   0  0  0  0  0  0  0  0  0  0  0  0
   32.9780   29.7940   51.2760 H   0  0  0  0  0  0  0  0  0  0  0  0
   32.8870   28.2610   50.3700 H   0  0  0  0  0  0  0  0  0  0  0  0
   37.8190   33.3140   49.1620 Cl  0  0  0  0  0  0  0  0  0  0  0  0
   38.4370   32.3690   47.8400 C   0  0  0  0  0  0  0  0  0  0  0  0
   37.7510   31.2110   47.6290 C   0  0  0  0  0  0  0  0  0  0  0  0
   38.1710   30.3700   46.5870 C   0  0  0  0  0  0  0  0  0  0  0  0
   39.2320   30.6690   45.7880 C   0  0  0  0  0  0  0  0  0  0  0  0
   39.9140   31.8640   46.0340 C   0  0  0  0  0  0  0  0  0  0  0  0
   41.2850   32.3030   45.0570 Cl  0  0  0  0  0  0  0  0  0  0  0  0
   39.5060   32.6890   47.0500 C   0  0  0  0  0  0  0  0  0  0  0  0
   37.7260   29.4220   46.3200 H   0  0  0  0  0  0  0  0  0  0  0  0
   39.6000   30.0680   44.9720 H   0  0  0  0  0  0  0  0  0  0  0  0
   39.9910   33.6310   47.3040 H   0  0  0  0  0  0  0  0  0  0  0  0
   35.3010   30.4740   46.2330 C   0  0  0  0  0  0  0  0  0  0  0  0
   35.6040   31.5410   46.0160 H   0  0  0  0  0  0  0  0  0  0  0  0
   36.1150   29.8410   45.7670 H   0  0  0  0  0  0  0  0  0  0  0  0
   35.7120   28.8490   43.6810 Br  0  0  0  0  0  0  0  0  0  0  0  0
   34.0260   29.4320   44.4110 C   0  0  0  0  0  0  0  0  0  0  0  0
   34.0210   30.1590   45.5920 C   0  0  0  0  0  0  0  0  0  0  0  0
   32.8160   30.5830   46.1380 C   0  0  0  0  0  0  0  0  0  0  0  0
   32.7470   31.1510   47.0360 H   0  0  0  0  0  0  0  0  0  0  0  0
   31.6080   30.2900   45.5170 C   0  0  0  0  0  0  0  0  0  0  0  0
   30.6520   30.6340   45.9520 H   0  0  0  0  0  0  0  0  0  0  0  0
   31.6260   29.5660   44.3440 C   0  0  0  0  0  3  0  0  0  0  0  0
   32.8260   29.1300   43.7790 C   0  0  0  0  0  3  0  0  0  0  0  0
  1  8  1  0  0  0  0
  1  6  1  0  0  0  0
  2  1  2  0  0  0  0
  3  2  1  0  0  0  0
  3  4  2  0  0  0  0
  4  5  1  0  0  0  0
  5  6  2  0  0  0  0
  5  7  1  0  0  0  0
  7  9  1  0  0  0  0
 10  7  1  0  0  0  0
 12 11  1  0  0  0  0
 13 12  1  0  0  0  0
 13  2  1  0  0  0  0
 14 13  2  0  0  0  0
 15 16  2  0  0  0  0
 15 14  1  0  0  0  0
 16 18  1  0  0  0  0
 17 16  1  0  0  0  0
 18 21  1  0  0  0  0
 18 12  2  0  0  0  0
 19 14  1  0  0  0  0
 20 15  1  0  0  0  0
 22  3  1  0  0  0  0
 23 22  1  0  0  0  0
 24 22  1  0  0  0  0
 25 26  1  0  0  0  0
 26 27  1  0  0  0  0
 27 28  2  0  0  0  0
 27 22  1  0  0  0  0
 28 29  1  0  0  0  0
 30 31  1  0  0  0  0
 30 28  1  0  0  0  0
 32 30  2  0  0  0  0
 33 32  1  0  0  0  0
 33 26  2  0  0  0  0
M  END
>  <minimizedAffinity>
-5.58361769

>  <minimizedRMSD>
1.52799273

$$$$
