
 OpenBabel03272500263D

 34 36  0  0  0  0  0  0  0  0999 V2000
   39.8860   31.6400   46.5150 C   0  0  0  0  0  0  0  0  0  0  0  0
   40.9280   31.8970   46.8360 H   0  0  0  0  0  0  0  0  0  0  0  0
   39.8210   30.5350   46.7470 H   0  0  0  0  0  0  0  0  0  0  0  0
   39.8130   31.8440   45.0960 C   0  0  0  0  0  0  0  0  0  0  0  0
   39.5350   33.0670   44.5750 C   0  0  0  0  0  0  0  0  0  0  0  0
   39.4640   33.2720   43.1920 C   0  0  0  0  0  0  0  0  0  0  0  0
   39.6950   32.1450   42.4130 N   0  0  0  0  0  0  0  0  0  0  0  0
   39.9670   30.9500   42.9550 C   0  0  0  0  0  0  0  0  0  0  0  0
   40.0190   30.8280   44.2920 N   0  0  0  0  0  0  0  0  0  0  0  0
   39.3520   33.9550   45.1470 H   0  0  0  0  0  0  0  0  0  0  0  0
   39.2490   34.2140   42.7490 H   0  0  0  0  0  0  0  0  0  0  0  0
   37.4800   29.1000   42.7490 Br  0  0  0  0  0  0  0  0  0  0  0  0
   39.1730   28.8760   41.9030 C   0  0  0  0  0  0  0  0  0  0  0  0
   40.2020   29.7980   42.0930 C   0  0  0  0  0  0  0  0  0  0  0  0
   41.4100   29.6200   41.4760 C   0  0  0  0  0  0  0  0  0  0  0  0
   42.2380   30.3300   41.6080 H   0  0  0  0  0  0  0  0  0  0  0  0
   41.6800   28.5360   40.6450 C   0  0  0  0  0  0  0  0  0  0  0  0
   42.6460   28.4190   40.1690 H   0  0  0  0  0  0  0  0  0  0  0  0
   40.6660   27.6030   40.4420 C   0  0  0  0  0  3  0  0  0  0  0  0
   39.4460   27.8040   41.0780 C   0  0  0  0  0  3  0  0  0  0  0  0
   38.9200   32.2930   47.4100 C   0  0  0  0  0  0  0  0  0  0  0  0
   38.2080   32.9790   46.9070 H   0  0  0  0  0  0  0  0  0  0  0  0
   39.4450   32.9600   48.1550 H   0  0  0  0  0  0  0  0  0  0  0  0
   38.1240   31.3660   48.2400 C   0  0  0  0  0  0  0  0  0  0  0  0
   37.0390   30.6770   47.7030 C   0  0  0  0  0  0  0  0  0  0  0  0
   36.4960   29.8990   48.6940 C   0  0  0  0  0  0  0  0  0  0  0  0
   37.2330   30.1170   49.7960 N   0  0  0  0  0  0  0  0  0  0  0  0
   38.1720   30.9760   49.4950 N   0  0  0  0  0  0  0  0  0  0  0  0
   36.6590   30.7200   46.6800 H   0  0  0  0  0  0  0  0  0  0  0  0
   35.6380   29.2160   48.6730 H   0  0  0  0  0  0  0  0  0  0  0  0
   37.0640   29.5270   51.1230 C   0  0  0  0  0  0  0  0  0  0  0  0
   37.8410   28.3870   51.2350 F   0  0  0  0  0  0  0  0  0  0  0  0
   35.7600   29.1810   51.3730 F   0  0  0  0  0  0  0  0  0  0  0  0
   37.4820   30.3920   52.1140 F   0  0  0  0  0  0  0  0  0  0  0  0
  1  3  1  0  0  0  0
  1  2  1  0  0  0  0
  1 21  1  0  0  0  0
  4  1  1  0  0  0  0
  5  4  1  0  0  0  0
  5 10  1  0  0  0  0
  6  5  2  0  0  0  0
  7  8  2  0  0  0  0
  7  6  1  0  0  0  0
  8  9  1  0  0  0  0
  9  4  2  0  0  0  0
 11  6  1  0  0  0  0
 13 14  1  0  0  0  0
 13 12  1  0  0  0  0
 14  8  1  0  0  0  0
 15 16  1  0  0  0  0
 15 14  2  0  0  0  0
 17 15  1  0  0  0  0
 18 17  1  0  0  0  0
 19 17  2  0  0  0  0
 19 20  1  0  0  0  0
 20 13  2  0  0  0  0
 21 23  1  0  0  0  0
 21 24  1  0  0  0  0
 22 21  1  0  0  0  0
 24 28  2  0  0  0  0
 25 24  1  0  0  0  0
 25 26  2  0  0  0  0
 26 27  1  0  0  0  0
 27 31  1  0  0  0  0
 28 27  1  0  0  0  0
 29 25  1  0  0  0  0
 30 26  1  0  0  0  0
 31 32  1  0  0  0  0
 31 33  1  0  0  0  0
 31 34  1  0  0  0  0
M  END
>  <minimizedAffinity>
-6.15468931

>  <minimizedRMSD>
0.647985816

$$$$
