
 OpenBabel03272507353D

 36 39  0  0  1  0  0  0  0  0999 V2000
   36.7100   28.1440   33.1090 C   0  0  0  0  0  0  0  0  0  0  0  0
   36.4530   28.2390   34.4610 C   0  0  0  0  0  0  0  0  0  0  0  0
   37.4740   27.5480   35.1320 C   0  0  0  0  0  0  0  0  0  0  0  0
   38.2930   27.0720   34.1320 C   0  0  0  0  0  0  0  0  0  0  0  0
   37.8090   27.4440   32.9680 O   0  0  0  0  0  0  0  0  0  0  0  0
   35.6380   28.7370   34.9790 H   0  0  0  0  0  0  0  0  0  0  0  0
   37.6440   27.3830   36.1900 H   0  0  0  0  0  0  0  0  0  0  0  0
   35.8440   28.7540   32.1130 C   0  0  0  0  0  0  0  0  0  0  0  0
   34.6230   28.7880   32.3130 O   0  0  0  0  0  0  0  0  0  0  0  0
   36.4750   29.2860   30.9380 C   0  0  0  0  0  0  0  0  0  0  0  0
   36.9120   28.3760   29.9900 C   0  0  0  0  0  0  0  0  0  0  0  0
   37.5320   28.8640   28.8340 C   0  0  0  0  0  0  0  0  0  0  0  0
   37.6740   30.2260   28.7030 N   0  0  0  0  0  0  0  0  0  0  0  0
   37.2390   31.0750   29.6390 C   0  0  0  0  0  0  0  0  0  0  0  0
   36.6430   30.6160   30.7510 N   0  0  0  0  0  0  0  0  0  0  0  0
   36.7850   27.3190   30.1270 H   0  0  0  0  0  0  0  0  0  0  0  0
   37.8660   28.1380   28.1070 H   0  0  0  0  0  0  0  0  0  0  0  0
   37.3780   32.1360   29.4800 H   0  0  0  0  0  0  0  0  0  0  0  0
   39.5100   26.2850   34.3300 C   0  0  0  0  0  0  0  0  0  0  0  0
   40.4070   26.7430   35.1140 O   0  0  0  0  0  0  0  0  0  0  0  0
   39.6970   24.9760   33.6200 C   0  0  1  0  0  0  0  0  0  0  0  0
   41.0980   24.3560   34.0040 C   0  0  0  0  0  0  0  0  0  0  0  0
   39.8140   23.7230   34.3670 C   0  0  1  0  0  0  0  0  0  0  0  0
   39.6620   25.0340   32.4920 H   0  0  0  0  0  0  0  0  0  0  0  0
   41.6700   23.8890   33.1830 H   0  0  0  0  0  0  0  0  0  0  0  0
   41.7170   24.9080   34.7010 H   0  0  0  0  0  0  0  0  0  0  0  0
   39.5230   22.8090   33.7690 H   0  0  0  0  0  0  0  0  0  0  0  0
   41.9090   22.2860   36.2190 Br  0  0  0  0  0  0  0  0  0  0  0  0
   40.2160   23.0200   36.6790 C   0  0  0  0  0  0  0  0  0  0  0  0
   39.3650   23.6360   35.7810 C   0  0  0  0  0  0  0  0  0  0  0  0
   38.1530   24.1400   36.2100 C   0  0  0  0  0  0  0  0  0  0  0  0
   37.5130   24.6140   35.4840 H   0  0  0  0  0  0  0  0  0  0  0  0
   37.7500   24.0510   37.5230 C   0  0  0  0  0  0  0  0  0  0  0  0
   36.7910   24.4610   37.8140 H   0  0  0  0  0  0  0  0  0  0  0  0
   38.6070   23.4340   38.4170 C   0  0  0  0  0  3  0  0  0  0  0  0
   39.8220   22.9230   38.0140 C   0  0  0  0  0  3  0  0  0  0  0  0
  1  2  2  0  0  0  0
  2  6  1  0  0  0  0
  2  3  1  0  0  0  0
  3  7  1  0  0  0  0
  4 19  1  0  0  0  0
  4  3  2  0  0  0  0
  5  1  1  0  0  0  0
  5  4  1  0  0  0  0
  8  9  2  0  0  0  0
  8  1  1  0  0  0  0
 10  8  1  0  0  0  0
 11 16  1  0  0  0  0
 11 10  2  0  0  0  0
 12 11  1  0  0  0  0
 13 12  2  0  0  0  0
 13 14  1  0  0  0  0
 14 15  2  0  0  0  0
 15 10  1  0  0  0  0
 17 12  1  0  0  0  0
 18 14  1  0  0  0  0
 19 20  2  0  0  0  0
 21 24  1  6  0  0  0
 21 22  1  0  0  0  0
 21 19  1  0  0  0  0
 21 23  1  0  0  0  0
 22 23  1  0  0  0  0
 22 26  1  0  0  0  0
 23 27  1  6  0  0  0
 23 30  1  0  0  0  0
 25 22  1  0  0  0  0
 28 29  1  0  0  0  0
 29 36  1  0  0  0  0
 30 31  1  0  0  0  0
 30 29  2  0  0  0  0
 31 33  2  0  0  0  0
 32 31  1  0  0  0  0
 33 34  1  0  0  0  0
 33 35  1  0  0  0  0
 36 35  2  0  0  0  0
M  END
>  <minimizedAffinity>
-5.80520105

$$$$

 OpenBabel03272507353D

 36 39  0  0  1  0  0  0  0  0999 V2000
   35.1580   29.0110   33.6110 C   0  0  0  0  0  0  0  0  0  0  0  0
   35.6010   29.2410   32.3240 C   0  0  0  0  0  0  0  0  0  0  0  0
   36.6880   28.3850   32.0950 C   0  0  0  0  0  0  0  0  0  0  0  0
   36.8380   27.6830   33.2710 C   0  0  0  0  0  0  0  0  0  0  0  0
   35.9240   28.0810   34.1280 O   0  0  0  0  0  0  0  0  0  0  0  0
   35.2270   29.9350   31.5760 H   0  0  0  0  0  0  0  0  0  0  0  0
   37.3150   28.2510   31.2200 H   0  0  0  0  0  0  0  0  0  0  0  0
   34.0340   29.7340   34.1820 C   0  0  0  0  0  0  0  0  0  0  0  0
   32.8880   29.4820   33.7860 O   0  0  0  0  0  0  0  0  0  0  0  0
   34.3310   30.7140   35.1890 C   0  0  0  0  0  0  0  0  0  0  0  0
   35.5790   31.3120   35.1380 C   0  0  0  0  0  0  0  0  0  0  0  0
   35.9000   32.2690   36.1060 C   0  0  0  0  0  0  0  0  0  0  0  0
   34.9530   32.5660   37.0600 N   0  0  0  0  0  0  0  0  0  0  0  0
   33.7580   31.9690   37.0780 C   0  0  0  0  0  0  0  0  0  0  0  0
   33.4420   31.0480   36.1530 N   0  0  0  0  0  0  0  0  0  0  0  0
   36.2930   31.0550   34.3780 H   0  0  0  0  0  0  0  0  0  0  0  0
   36.8780   32.7240   36.0490 H   0  0  0  0  0  0  0  0  0  0  0  0
   33.0540   32.2430   37.8530 H   0  0  0  0  0  0  0  0  0  0  0  0
   37.8460   26.6550   33.5270 C   0  0  0  0  0  0  0  0  0  0  0  0
   37.5940   25.4560   33.1690 O   0  0  0  0  0  0  0  0  0  0  0  0
   39.1400   27.0060   34.2010 C   0  0  1  0  0  0  0  0  0  0  0  0
   38.8750   27.3460   35.7220 C   0  0  0  0  0  0  0  0  0  0  0  0
   39.6730   26.1800   35.2870 C   0  0  1  0  0  0  0  0  0  0  0  0
   39.6870   27.8900   33.7590 H   0  0  0  0  0  0  0  0  0  0  0  0
   39.4310   28.2050   36.1370 H   0  0  0  0  0  0  0  0  0  0  0  0
   37.8540   27.2780   36.0800 H   0  0  0  0  0  0  0  0  0  0  0  0
   40.7920   26.2680   35.4170 H   0  0  0  0  0  0  0  0  0  0  0  0
   41.2600   24.0780   33.5720 Br  0  0  0  0  0  0  0  0  0  0  0  0
   39.8220   23.7880   34.7830 C   0  0  0  0  0  0  0  0  0  0  0  0
   39.1900   24.7910   35.4930 C   0  0  0  0  0  0  0  0  0  0  0  0
   38.1520   24.4820   36.3510 C   0  0  0  0  0  0  0  0  0  0  0  0
   37.6800   25.2870   36.8900 H   0  0  0  0  0  0  0  0  0  0  0  0
   37.7150   23.1890   36.5310 C   0  0  0  0  0  0  0  0  0  0  0  0
   36.8980   22.9940   37.2150 H   0  0  0  0  0  0  0  0  0  0  0  0
   38.3530   22.1910   35.8170 C   0  0  0  0  0  3  0  0  0  0  0  0
   39.3910   22.4720   34.9550 C   0  0  0  0  0  3  0  0  0  0  0  0
  1  5  1  0  0  0  0
  1  8  1  0  0  0  0
  2  1  2  0  0  0  0
  3  2  1  0  0  0  0
  3  4  2  0  0  0  0
  4 19  1  0  0  0  0
  4  5  1  0  0  0  0
  6  2  1  0  0  0  0
  7  3  1  0  0  0  0
  8 10  1  0  0  0  0
  9  8  2  0  0  0  0
 10 15  1  0  0  0  0
 11 10  2  0  0  0  0
 11 12  1  0  0  0  0
 12 13  2  0  0  0  0
 13 14  1  0  0  0  0
 14 18  1  0  0  0  0
 15 14  2  0  0  0  0
 16 11  1  0  0  0  0
 17 12  1  0  0  0  0
 19 21  1  0  0  0  0
 20 19  2  0  0  0  0
 21 24  1  6  0  0  0
 21 23  1  0  0  0  0
 21 22  1  0  0  0  0
 22 26  1  0  0  0  0
 22 25  1  0  0  0  0
 23 27  1  1  0  0  0
 23 30  1  0  0  0  0
 23 22  1  0  0  0  0
 28 29  1  0  0  0  0
 29 36  2  0  0  0  0
 29 30  1  0  0  0  0
 30 31  2  0  0  0  0
 31 33  1  0  0  0  0
 31 32  1  0  0  0  0
 33 34  1  0  0  0  0
 35 33  2  0  0  0  0
 36 35  1  0  0  0  0
M  END
>  <minimizedAffinity>
-5.70887375

$$$$

 OpenBabel03272507353D

 36 39  0  0  1  0  0  0  0  0999 V2000
   38.2180   23.0250   33.9340 C   0  0  0  0  0  0  0  0  0  0  0  0
   39.5170   22.9440   33.4740 C   0  0  0  0  0  0  0  0  0  0  0  0
   39.6060   23.7430   32.3240 C   0  0  0  0  0  0  0  0  0  0  0  0
   38.3410   24.2630   32.1570 C   0  0  0  0  0  0  0  0  0  0  0  0
   37.5640   23.8180   33.1200 O   0  0  0  0  0  0  0  0  0  0  0  0
   40.3600   22.3890   33.8740 H   0  0  0  0  0  0  0  0  0  0  0  0
   40.4420   23.9510   31.6660 H   0  0  0  0  0  0  0  0  0  0  0  0
   37.7720   22.3140   35.1210 C   0  0  0  0  0  0  0  0  0  0  0  0
   36.9600   21.3870   35.0010 O   0  0  0  0  0  0  0  0  0  0  0  0
   38.3130   22.7420   36.3800 C   0  0  0  0  0  0  0  0  0  0  0  0
   37.5200   23.5700   37.1580 C   0  0  0  0  0  0  0  0  0  0  0  0
   38.0190   24.0060   38.3890 C   0  0  0  0  0  0  0  0  0  0  0  0
   39.2760   23.5860   38.7630 N   0  0  0  0  0  0  0  0  0  0  0  0
   40.0120   22.7860   37.9860 C   0  0  0  0  0  0  0  0  0  0  0  0
   39.5410   22.3640   36.8020 N   0  0  0  0  0  0  0  0  0  0  0  0
   36.5440   23.8780   36.8330 H   0  0  0  0  0  0  0  0  0  0  0  0
   37.3860   24.6510   38.9810 H   0  0  0  0  0  0  0  0  0  0  0  0
   40.9930   22.4890   38.3330 H   0  0  0  0  0  0  0  0  0  0  0  0
   37.9270   25.1700   31.0880 C   0  0  0  0  0  0  0  0  0  0  0  0
   36.8390   24.9200   30.4690 O   0  0  0  0  0  0  0  0  0  0  0  0
   38.7680   26.3590   30.7260 C   0  0  1  0  0  0  0  0  0  0  0  0
   37.8640   27.6540   30.6630 C   0  0  0  0  0  0  0  0  0  0  0  0
   38.9400   27.4730   31.6600 C   0  0  1  0  0  0  0  0  0  0  0  0
   39.3020   26.2840   29.7320 H   0  0  0  0  0  0  0  0  0  0  0  0
   38.0640   28.3530   29.8330 H   0  0  0  0  0  0  0  0  0  0  0  0
   36.8100   27.5410   30.8870 H   0  0  0  0  0  0  0  0  0  0  0  0
   39.8850   28.0700   31.4850 H   0  0  0  0  0  0  0  0  0  0  0  0
   41.5170   26.9570   33.3850 Br  0  0  0  0  0  0  0  0  0  0  0  0
   39.7050   27.0750   33.9520 C   0  0  0  0  0  0  0  0  0  0  0  0
   38.6390   27.3080   33.1050 C   0  0  0  0  0  0  0  0  0  0  0  0
   37.3550   27.3770   33.6100 C   0  0  0  0  0  0  0  0  0  0  0  0
   36.5460   27.5600   32.9230 H   0  0  0  0  0  0  0  0  0  0  0  0
   37.0910   27.2210   34.9530 C   0  0  0  0  0  0  0  0  0  0  0  0
   36.0690   27.2840   35.3040 H   0  0  0  0  0  0  0  0  0  0  0  0
   38.1640   26.9890   35.7950 C   0  0  0  0  0  3  0  0  0  0  0  0
   39.4540   26.9150   35.3150 C   0  0  0  0  0  3  0  0  0  0  0  0
  1  8  1  0  0  0  0
  2  6  1  0  0  0  0
  2  1  2  0  0  0  0
  3  2  1  0  0  0  0
  4  3  2  0  0  0  0
  4  5  1  0  0  0  0
  5  1  1  0  0  0  0
  7  3  1  0  0  0  0
  8 10  1  0  0  0  0
  9  8  2  0  0  0  0
 10 15  2  0  0  0  0
 10 11  1  0  0  0  0
 11 12  2  0  0  0  0
 12 13  1  0  0  0  0
 12 17  1  0  0  0  0
 14 18  1  0  0  0  0
 14 13  2  0  0  0  0
 15 14  1  0  0  0  0
 16 11  1  0  0  0  0
 19  4  1  0  0  0  0
 20 19  2  0  0  0  0
 21 24  1  6  0  0  0
 21 19  1  0  0  0  0
 21 23  1  0  0  0  0
 22 21  1  0  0  0  0
 22 26  1  0  0  0  0
 22 23  1  0  0  0  0
 23 27  1  6  0  0  0
 23 30  1  0  0  0  0
 25 22  1  0  0  0  0
 28 29  1  0  0  0  0
 29 36  1  0  0  0  0
 30 31  1  0  0  0  0
 30 29  2  0  0  0  0
 31 33  2  0  0  0  0
 32 31  1  0  0  0  0
 33 34  1  0  0  0  0
 33 35  1  0  0  0  0
 36 35  2  0  0  0  0
M  END
>  <minimizedAffinity>
-5.67164707

$$$$

 OpenBabel03272507353D

 36 39  0  0  1  0  0  0  0  0999 V2000
   36.2330   26.3850   31.8220 C   0  0  0  0  0  0  0  0  0  0  0  0
   35.6250   25.3620   31.1240 C   0  0  0  0  0  0  0  0  0  0  0  0
   36.2290   24.1620   31.5270 C   0  0  0  0  0  0  0  0  0  0  0  0
   37.1760   24.5380   32.4540 C   0  0  0  0  0  0  0  0  0  0  0  0
   37.1430   25.8450   32.5950 O   0  0  0  0  0  0  0  0  0  0  0  0
   34.8270   25.4040   30.3880 H   0  0  0  0  0  0  0  0  0  0  0  0
   36.0470   23.1370   31.2230 H   0  0  0  0  0  0  0  0  0  0  0  0
   35.8480   27.7760   31.6480 C   0  0  0  0  0  0  0  0  0  0  0  0
   34.9470   28.2470   32.3540 O   0  0  0  0  0  0  0  0  0  0  0  0
   36.5500   28.5280   30.6460 C   0  0  0  0  0  0  0  0  0  0  0  0
   36.2390   29.8730   30.5340 C   0  0  0  0  0  0  0  0  0  0  0  0
   36.9050   30.6320   29.5660 C   0  0  0  0  0  0  0  0  0  0  0  0
   37.8370   29.9980   28.7760 N   0  0  0  0  0  0  0  0  0  0  0  0
   38.1120   28.6980   28.9130 C   0  0  0  0  0  0  0  0  0  0  0  0
   37.4770   27.9610   29.8390 N   0  0  0  0  0  0  0  0  0  0  0  0
   35.5050   30.3330   31.1680 H   0  0  0  0  0  0  0  0  0  0  0  0
   36.6490   31.6790   29.4940 H   0  0  0  0  0  0  0  0  0  0  0  0
   38.8540   28.2540   28.2630 H   0  0  0  0  0  0  0  0  0  0  0  0
   38.0710   23.6320   33.1730 C   0  0  0  0  0  0  0  0  0  0  0  0
   37.5620   22.6260   33.7720 O   0  0  0  0  0  0  0  0  0  0  0  0
   39.5500   23.8890   33.2090 C   0  0  1  0  0  0  0  0  0  0  0  0
   39.8190   25.4110   33.5350 C   0  0  0  0  0  0  0  0  0  0  0  0
   40.2110   24.3140   34.4440 C   0  0  1  0  0  0  0  0  0  0  0  0
   40.1000   23.6570   32.2490 H   0  0  0  0  0  0  0  0  0  0  0  0
   40.6280   25.9000   32.9640 H   0  0  0  0  0  0  0  0  0  0  0  0
   38.9590   26.0500   33.6970 H   0  0  0  0  0  0  0  0  0  0  0  0
   41.3140   24.0650   34.4770 H   0  0  0  0  0  0  0  0  0  0  0  0
   41.4110   21.9040   36.0680 Br  0  0  0  0  0  0  0  0  0  0  0  0
   40.0070   23.0910   36.5560 C   0  0  0  0  0  0  0  0  0  0  0  0
   39.5530   24.1270   35.7620 C   0  0  0  0  0  0  0  0  0  0  0  0
   38.5260   24.9380   36.2030 C   0  0  0  0  0  0  0  0  0  0  0  0
   38.1950   25.7370   35.5600 H   0  0  0  0  0  0  0  0  0  0  0  0
   37.9250   24.7520   37.4280 C   0  0  0  0  0  0  0  0  0  0  0  0
   37.1230   25.4130   37.7330 H   0  0  0  0  0  0  0  0  0  0  0  0
   38.3850   23.7130   38.2180 C   0  0  0  0  0  3  0  0  0  0  0  0
   39.4090   22.8900   37.8010 C   0  0  0  0  0  3  0  0  0  0  0  0
  1  5  1  0  0  0  0
  2  3  1  0  0  0  0
  2  1  2  0  0  0  0
  3  4  2  0  0  0  0
  4  5  1  0  0  0  0
  4 19  1  0  0  0  0
  6  2  1  0  0  0  0
  7  3  1  0  0  0  0
  8  1  1  0  0  0  0
  8  9  2  0  0  0  0
 10  8  1  0  0  0  0
 11 10  1  0  0  0  0
 11 16  1  0  0  0  0
 12 11  2  0  0  0  0
 13 14  2  0  0  0  0
 13 12  1  0  0  0  0
 14 15  1  0  0  0  0
 15 10  2  0  0  0  0
 17 12  1  0  0  0  0
 18 14  1  0  0  0  0
 19 21  1  0  0  0  0
 19 20  2  0  0  0  0
 21 24  1  6  0  0  0
 21 22  1  0  0  0  0
 21 23  1  0  0  0  0
 22 26  1  0  0  0  0
 22 23  1  0  0  0  0
 23 27  1  1  0  0  0
 23 30  1  0  0  0  0
 25 22  1  0  0  0  0
 28 29  1  0  0  0  0
 29 36  1  0  0  0  0
 30 31  1  0  0  0  0
 30 29  2  0  0  0  0
 31 33  2  0  0  0  0
 32 31  1  0  0  0  0
 33 34  1  0  0  0  0
 33 35  1  0  0  0  0
 36 35  2  0  0  0  0
M  END
>  <minimizedAffinity>
-5.47660875

$$$$

 OpenBabel03272507353D

 36 39  0  0  1  0  0  0  0  0999 V2000
   36.9960   26.3700   33.0860 C   0  0  0  0  0  0  0  0  0  0  0  0
   37.0510   27.4780   33.9080 C   0  0  0  0  0  0  0  0  0  0  0  0
   37.5240   27.0500   35.1570 C   0  0  0  0  0  0  0  0  0  0  0  0
   37.7280   25.6960   35.0130 C   0  0  0  0  0  0  0  0  0  0  0  0
   37.4070   25.3420   33.7880 O   0  0  0  0  0  0  0  0  0  0  0  0
   36.7930   28.5110   33.6960 H   0  0  0  0  0  0  0  0  0  0  0  0
   37.7110   27.6010   36.0730 H   0  0  0  0  0  0  0  0  0  0  0  0
   36.5460   26.4530   31.7070 C   0  0  0  0  0  0  0  0  0  0  0  0
   35.5370   25.8240   31.3610 O   0  0  0  0  0  0  0  0  0  0  0  0
   37.3180   27.2730   30.8150 C   0  0  0  0  0  0  0  0  0  0  0  0
   36.6730   28.3510   30.2340 C   0  0  0  0  0  0  0  0  0  0  0  0
   37.3970   29.1680   29.3590 C   0  0  0  0  0  0  0  0  0  0  0  0
   38.7170   28.8540   29.1240 N   0  0  0  0  0  0  0  0  0  0  0  0
   39.3060   27.8040   29.7040 C   0  0  0  0  0  0  0  0  0  0  0  0
   38.6180   27.0150   30.5440 N   0  0  0  0  0  0  0  0  0  0  0  0
   35.6420   28.5660   30.4410 H   0  0  0  0  0  0  0  0  0  0  0  0
   36.8770   30.0040   28.9160 H   0  0  0  0  0  0  0  0  0  0  0  0
   40.3460   27.6070   29.4810 H   0  0  0  0  0  0  0  0  0  0  0  0
   38.2280   24.7940   36.0500 C   0  0  0  0  0  0  0  0  0  0  0  0
   37.6040   24.7470   37.1630 O   0  0  0  0  0  0  0  0  0  0  0  0
   39.4470   23.9530   35.8080 C   0  0  1  0  0  0  0  0  0  0  0  0
   39.5810   22.8670   36.9490 C   0  0  0  0  0  0  0  0  0  0  0  0
   39.3320   22.5190   35.5350 C   0  0  1  0  0  0  0  0  0  0  0  0
   40.4230   24.5210   35.7810 H   0  0  0  0  0  0  0  0  0  0  0  0
   40.5990   22.6850   37.3360 H   0  0  0  0  0  0  0  0  0  0  0  0
   38.8180   22.8500   37.7180 H   0  0  0  0  0  0  0  0  0  0  0  0
   40.2110   22.0940   34.9650 H   0  0  0  0  0  0  0  0  0  0  0  0
   39.0880   22.3140   32.4080 Br  0  0  0  0  0  0  0  0  0  0  0  0
   37.8320   21.7950   33.7390 C   0  0  0  0  0  0  0  0  0  0  0  0
   38.0400   21.9300   35.0980 C   0  0  0  0  0  0  0  0  0  0  0  0
   37.0670   21.5240   35.9910 C   0  0  0  0  0  0  0  0  0  0  0  0
   37.2600   21.6420   37.0440 H   0  0  0  0  0  0  0  0  0  0  0  0
   35.8740   20.9800   35.5710 C   0  0  0  0  0  0  0  0  0  0  0  0
   35.1400   20.6750   36.3070 H   0  0  0  0  0  0  0  0  0  0  0  0
   35.6730   20.8480   34.2080 C   0  0  0  0  0  3  0  0  0  0  0  0
   36.6280   21.2450   33.2970 C   0  0  0  0  0  3  0  0  0  0  0  0
  1  5  1  0  0  0  0
  1  2  2  0  0  0  0
  2  3  1  0  0  0  0
  3  7  1  0  0  0  0
  4  3  2  0  0  0  0
  4 19  1  0  0  0  0
  5  4  1  0  0  0  0
  6  2  1  0  0  0  0
  8  1  1  0  0  0  0
  9  8  2  0  0  0  0
 10  8  1  0  0  0  0
 11 16  1  0  0  0  0
 11 10  2  0  0  0  0
 12 11  1  0  0  0  0
 13 12  2  0  0  0  0
 13 14  1  0  0  0  0
 14 15  2  0  0  0  0
 15 10  1  0  0  0  0
 17 12  1  0  0  0  0
 18 14  1  0  0  0  0
 19 20  2  0  0  0  0
 21 24  1  6  0  0  0
 21 19  1  0  0  0  0
 21 22  1  0  0  0  0
 22 25  1  0  0  0  0
 22 26  1  0  0  0  0
 23 27  1  6  0  0  0
 23 21  1  0  0  0  0
 23 22  1  0  0  0  0
 28 29  1  0  0  0  0
 29 30  1  0  0  0  0
 30 23  1  0  0  0  0
 30 31  2  0  0  0  0
 31 32  1  0  0  0  0
 33 31  1  0  0  0  0
 33 34  1  0  0  0  0
 35 33  2  0  0  0  0
 36 29  2  0  0  0  0
 36 35  1  0  0  0  0
M  END
>  <minimizedAffinity>
-5.4313364

$$$$

 OpenBabel03272507353D

 36 39  0  0  1  0  0  0  0  0999 V2000
   35.8560   29.0190   33.6150 C   0  0  0  0  0  0  0  0  0  0  0  0
   36.2860   29.3030   32.3340 C   0  0  0  0  0  0  0  0  0  0  0  0
   37.1190   28.2500   31.9280 C   0  0  0  0  0  0  0  0  0  0  0  0
   37.1420   27.3850   32.9990 C   0  0  0  0  0  0  0  0  0  0  0  0
   36.3910   27.8740   33.9620 O   0  0  0  0  0  0  0  0  0  0  0  0
   36.0630   30.1580   31.7020 H   0  0  0  0  0  0  0  0  0  0  0  0
   37.6550   28.0860   31.0000 H   0  0  0  0  0  0  0  0  0  0  0  0
   34.9700   29.9080   34.3480 C   0  0  0  0  0  0  0  0  0  0  0  0
   35.4510   30.8670   34.9660 O   0  0  0  0  0  0  0  0  0  0  0  0
   33.5660   29.6090   34.3070 C   0  0  0  0  0  0  0  0  0  0  0  0
   32.8450   29.8110   35.4720 C   0  0  0  0  0  0  0  0  0  0  0  0
   31.4750   29.5260   35.4660 C   0  0  0  0  0  0  0  0  0  0  0  0
   30.9170   29.0610   34.2970 N   0  0  0  0  0  0  0  0  0  0  0  0
   31.6450   28.8790   33.1910 C   0  0  0  0  0  0  0  0  0  0  0  0
   32.9600   29.1480   33.1890 N   0  0  0  0  0  0  0  0  0  0  0  0
   33.3150   30.1750   36.3660 H   0  0  0  0  0  0  0  0  0  0  0  0
   30.9300   29.6900   36.3840 H   0  0  0  0  0  0  0  0  0  0  0  0
   31.1510   28.5100   32.3020 H   0  0  0  0  0  0  0  0  0  0  0  0
   37.8760   26.1220   33.0590 C   0  0  0  0  0  0  0  0  0  0  0  0
   37.2220   25.0340   32.9180 O   0  0  0  0  0  0  0  0  0  0  0  0
   39.3590   26.1100   33.2870 C   0  0  1  0  0  0  0  0  0  0  0  0
   39.7170   27.0340   34.5190 C   0  0  0  0  0  0  0  0  0  0  0  0
   39.9270   25.5710   34.5240 C   0  0  1  0  0  0  0  0  0  0  0  0
   39.9810   26.4720   32.4160 H   0  0  0  0  0  0  0  0  0  0  0  0
   40.6150   27.6670   34.4130 H   0  0  0  0  0  0  0  0  0  0  0  0
   38.8980   27.5270   35.0300 H   0  0  0  0  0  0  0  0  0  0  0  0
   40.9970   25.2220   34.4180 H   0  0  0  0  0  0  0  0  0  0  0  0
   40.3110   22.5300   33.8260 Br  0  0  0  0  0  0  0  0  0  0  0  0
   39.2260   23.3170   35.1760 C   0  0  0  0  0  0  0  0  0  0  0  0
   39.1290   24.6770   35.4010 C   0  0  0  0  0  0  0  0  0  0  0  0
   38.3130   25.1550   36.4080 C   0  0  0  0  0  0  0  0  0  0  0  0
   38.2590   26.2200   36.5570 H   0  0  0  0  0  0  0  0  0  0  0  0
   37.5780   24.3130   37.2120 C   0  0  0  0  0  0  0  0  0  0  0  0
   36.9520   24.7330   37.9890 H   0  0  0  0  0  0  0  0  0  0  0  0
   37.6810   22.9530   36.9810 C   0  0  0  0  0  3  0  0  0  0  0  0
   38.4880   22.4500   35.9830 C   0  0  0  0  0  3  0  0  0  0  0  0
  1  5  1  0  0  0  0
  1  8  1  0  0  0  0
  2  1  2  0  0  0  0
  3  2  1  0  0  0  0
  3  4  2  0  0  0  0
  4 19  1  0  0  0  0
  4  5  1  0  0  0  0
  6  2  1  0  0  0  0
  7  3  1  0  0  0  0
  8  9  2  0  0  0  0
 10  8  1  0  0  0  0
 10 11  1  0  0  0  0
 11 16  1  0  0  0  0
 12 11  2  0  0  0  0
 12 17  1  0  0  0  0
 13 12  1  0  0  0  0
 14 13  2  0  0  0  0
 15 14  1  0  0  0  0
 15 10  2  0  0  0  0
 18 14  1  0  0  0  0
 19 21  1  0  0  0  0
 20 19  2  0  0  0  0
 21 24  1  6  0  0  0
 21 22  1  0  0  0  0
 21 23  1  0  0  0  0
 22 23  1  0  0  0  0
 22 26  1  0  0  0  0
 23 27  1  6  0  0  0
 23 30  1  0  0  0  0
 25 22  1  0  0  0  0
 28 29  1  0  0  0  0
 29 30  2  0  0  0  0
 29 36  1  0  0  0  0
 30 31  1  0  0  0  0
 31 32  1  0  0  0  0
 31 33  2  0  0  0  0
 33 34  1  0  0  0  0
 35 33  1  0  0  0  0
 36 35  2  0  0  0  0
M  END
>  <minimizedAffinity>
-5.41415167

$$$$

 OpenBabel03272507353D

 36 39  0  0  1  0  0  0  0  0999 V2000
   37.0990   27.4020   34.7780 C   0  0  0  0  0  0  0  0  0  0  0  0
   38.2580   27.9130   35.3250 C   0  0  0  0  0  0  0  0  0  0  0  0
   38.8870   26.8710   36.0240 C   0  0  0  0  0  0  0  0  0  0  0  0
   38.0590   25.7830   35.8560 C   0  0  0  0  0  0  0  0  0  0  0  0
   37.0280   26.1390   35.1220 O   0  0  0  0  0  0  0  0  0  0  0  0
   38.6680   28.9170   35.2670 H   0  0  0  0  0  0  0  0  0  0  0  0
   39.8110   26.8520   36.5910 H   0  0  0  0  0  0  0  0  0  0  0  0
   36.1960   28.2160   33.9820 C   0  0  0  0  0  0  0  0  0  0  0  0
   35.2640   28.8090   34.5410 O   0  0  0  0  0  0  0  0  0  0  0  0
   36.4480   28.2800   32.5690 C   0  0  0  0  0  0  0  0  0  0  0  0
   36.1050   29.4540   31.9200 C   0  0  0  0  0  0  0  0  0  0  0  0
   36.3360   29.5460   30.5440 C   0  0  0  0  0  0  0  0  0  0  0  0
   36.8940   28.4600   29.9080 N   0  0  0  0  0  0  0  0  0  0  0  0
   37.2120   27.3430   30.5680 C   0  0  0  0  0  0  0  0  0  0  0  0
   36.9930   27.2460   31.8880 N   0  0  0  0  0  0  0  0  0  0  0  0
   35.6700   30.2810   32.4500 H   0  0  0  0  0  0  0  0  0  0  0  0
   36.0620   30.4700   30.0560 H   0  0  0  0  0  0  0  0  0  0  0  0
   37.6480   26.5220   30.0140 H   0  0  0  0  0  0  0  0  0  0  0  0
   38.2900   24.4450   36.3980 C   0  0  0  0  0  0  0  0  0  0  0  0
   38.3840   24.3130   37.6640 O   0  0  0  0  0  0  0  0  0  0  0  0
   38.4180   23.2620   35.4840 C   0  0  1  0  0  0  0  0  0  0  0  0
   38.5760   23.7560   33.9910 C   0  0  0  0  0  0  0  0  0  0  0  0
   39.6430   23.0330   34.7140 C   0  0  1  0  0  0  0  0  0  0  0  0
   37.5450   22.5460   35.5010 H   0  0  0  0  0  0  0  0  0  0  0  0
   38.0200   23.1880   33.2240 H   0  0  0  0  0  0  0  0  0  0  0  0
   38.5850   24.8250   33.8140 H   0  0  0  0  0  0  0  0  0  0  0  0
   39.8000   21.9530   34.4210 H   0  0  0  0  0  0  0  0  0  0  0  0
   41.1020   21.6070   37.1060 Br  0  0  0  0  0  0  0  0  0  0  0  0
   41.6350   23.1540   36.1350 C   0  0  0  0  0  0  0  0  0  0  0  0
   40.9140   23.7030   35.0920 C   0  0  0  0  0  0  0  0  0  0  0  0
   41.3820   24.8310   34.4450 C   0  0  0  0  0  0  0  0  0  0  0  0
   40.7970   25.2340   33.6360 H   0  0  0  0  0  0  0  0  0  0  0  0
   42.5620   25.4410   34.8070 C   0  0  0  0  0  0  0  0  0  0  0  0
   42.8900   26.3230   34.2710 H   0  0  0  0  0  0  0  0  0  0  0  0
   43.2780   24.8850   35.8520 C   0  0  0  0  0  3  0  0  0  0  0  0
   42.8330   23.7610   36.5130 C   0  0  0  0  0  3  0  0  0  0  0  0
  1  5  1  0  0  0  0
  1  2  2  0  0  0  0
  2  3  1  0  0  0  0
  3  7  1  0  0  0  0
  4  3  2  0  0  0  0
  4 19  1  0  0  0  0
  5  4  1  0  0  0  0
  6  2  1  0  0  0  0
  8  9  2  0  0  0  0
  8  1  1  0  0  0  0
 10  8  1  0  0  0  0
 11 16  1  0  0  0  0
 11 10  1  0  0  0  0
 12 11  2  0  0  0  0
 13 12  1  0  0  0  0
 13 14  2  0  0  0  0
 14 15  1  0  0  0  0
 15 10  2  0  0  0  0
 17 12  1  0  0  0  0
 18 14  1  0  0  0  0
 19 20  2  0  0  0  0
 21 24  1  1  0  0  0
 21 19  1  0  0  0  0
 22 23  1  0  0  0  0
 22 21  1  0  0  0  0
 23 27  1  6  0  0  0
 23 30  1  0  0  0  0
 23 21  1  0  0  0  0
 25 22  1  0  0  0  0
 26 22  1  0  0  0  0
 29 36  1  0  0  0  0
 29 28  1  0  0  0  0
 30 29  2  0  0  0  0
 31 33  2  0  0  0  0
 31 30  1  0  0  0  0
 32 31  1  0  0  0  0
 33 35  1  0  0  0  0
 34 33  1  0  0  0  0
 35 36  2  0  0  0  0
M  END
>  <minimizedAffinity>
-5.41122818

$$$$

 OpenBabel03272507353D

 36 39  0  0  1  0  0  0  0  0999 V2000
   38.0470   25.9110   33.4780 C   0  0  0  0  0  0  0  0  0  0  0  0
   38.0520   26.5630   34.6940 C   0  0  0  0  0  0  0  0  0  0  0  0
   39.2310   26.1960   35.3620 C   0  0  0  0  0  0  0  0  0  0  0  0
   39.8720   25.3360   34.4980 C   0  0  0  0  0  0  0  0  0  0  0  0
   39.1450   25.1980   33.4110 O   0  0  0  0  0  0  0  0  0  0  0  0
   37.3200   27.2430   35.1190 H   0  0  0  0  0  0  0  0  0  0  0  0
   39.6150   26.4820   36.3340 H   0  0  0  0  0  0  0  0  0  0  0  0
   36.9630   26.0660   32.5220 C   0  0  0  0  0  0  0  0  0  0  0  0
   36.3040   25.0720   32.1890 O   0  0  0  0  0  0  0  0  0  0  0  0
   36.7210   27.3880   32.0160 C   0  0  0  0  0  0  0  0  0  0  0  0
   37.6310   27.8880   31.1000 C   0  0  0  0  0  0  0  0  0  0  0  0
   37.4250   29.1750   30.5900 C   0  0  0  0  0  0  0  0  0  0  0  0
   36.3240   29.8750   31.0290 N   0  0  0  0  0  0  0  0  0  0  0  0
   35.4670   29.3590   31.9150 C   0  0  0  0  0  0  0  0  0  0  0  0
   35.6580   28.1260   32.4100 N   0  0  0  0  0  0  0  0  0  0  0  0
   38.4790   27.3120   30.7810 H   0  0  0  0  0  0  0  0  0  0  0  0
   38.1450   29.5460   29.8770 H   0  0  0  0  0  0  0  0  0  0  0  0
   34.6190   29.9580   32.2230 H   0  0  0  0  0  0  0  0  0  0  0  0
   41.1570   24.6830   34.7440 C   0  0  0  0  0  0  0  0  0  0  0  0
   42.1340   25.4000   35.1440 O   0  0  0  0  0  0  0  0  0  0  0  0
   41.3190   23.2070   34.5210 C   0  0  1  0  0  0  0  0  0  0  0  0
   42.1740   22.5810   35.6940 C   0  0  0  0  0  0  0  0  0  0  0  0
   40.7560   22.2370   35.4620 C   0  0  1  0  0  0  0  0  0  0  0  0
   41.8310   22.9220   33.5550 H   0  0  0  0  0  0  0  0  0  0  0  0
   42.9250   21.8260   35.4050 H   0  0  0  0  0  0  0  0  0  0  0  0
   42.5110   23.2470   36.4800 H   0  0  0  0  0  0  0  0  0  0  0  0
   40.5590   21.2220   35.0030 H   0  0  0  0  0  0  0  0  0  0  0  0
   37.8690   22.0170   34.2370 Br  0  0  0  0  0  0  0  0  0  0  0  0
   38.3860   22.5750   35.9800 C   0  0  0  0  0  0  0  0  0  0  0  0
   39.6940   22.6360   36.4210 C   0  0  0  0  0  0  0  0  0  0  0  0
   39.9720   23.0550   37.7070 C   0  0  0  0  0  0  0  0  0  0  0  0
   41.0020   23.0910   38.0210 H   0  0  0  0  0  0  0  0  0  0  0  0
   38.9770   23.4230   38.5850 C   0  0  0  0  0  0  0  0  0  0  0  0
   39.2420   23.7440   39.5850 H   0  0  0  0  0  0  0  0  0  0  0  0
   37.6700   23.3590   38.1360 C   0  0  0  0  0  3  0  0  0  0  0  0
   37.3660   22.9440   36.8580 C   0  0  0  0  0  3  0  0  0  0  0  0
  1  2  2  0  0  0  0
  2  6  1  0  0  0  0
  2  3  1  0  0  0  0
  3  7  1  0  0  0  0
  4 19  1  0  0  0  0
  4  3  2  0  0  0  0
  5  1  1  0  0  0  0
  5  4  1  0  0  0  0
  8  1  1  0  0  0  0
  9  8  2  0  0  0  0
 10 15  1  0  0  0  0
 10  8  1  0  0  0  0
 11 10  2  0  0  0  0
 12 13  2  0  0  0  0
 12 11  1  0  0  0  0
 13 14  1  0  0  0  0
 14 18  1  0  0  0  0
 14 15  2  0  0  0  0
 16 11  1  0  0  0  0
 17 12  1  0  0  0  0
 19 20  2  0  0  0  0
 21 24  1  6  0  0  0
 21 19  1  0  0  0  0
 21 23  1  0  0  0  0
 21 22  1  0  0  0  0
 22 26  1  0  0  0  0
 23 27  1  6  0  0  0
 23 22  1  0  0  0  0
 23 30  1  0  0  0  0
 25 22  1  0  0  0  0
 28 29  1  0  0  0  0
 29 30  2  0  0  0  0
 29 36  1  0  0  0  0
 30 31  1  0  0  0  0
 31 32  1  0  0  0  0
 31 33  2  0  0  0  0
 33 34  1  0  0  0  0
 35 33  1  0  0  0  0
 36 35  2  0  0  0  0
M  END
>  <minimizedAffinity>
-5.36120224

$$$$

 OpenBabel03272507353D

 36 39  0  0  1  0  0  0  0  0999 V2000
   38.5560   25.1010   35.2710 C   0  0  0  0  0  0  0  0  0  0  0  0
   38.2800   26.3710   35.7340 C   0  0  0  0  0  0  0  0  0  0  0  0
   38.2570   27.2270   34.6240 C   0  0  0  0  0  0  0  0  0  0  0  0
   38.5250   26.4140   33.5450 C   0  0  0  0  0  0  0  0  0  0  0  0
   38.6930   25.1810   33.9690 O   0  0  0  0  0  0  0  0  0  0  0  0
   38.1020   26.7140   36.7490 H   0  0  0  0  0  0  0  0  0  0  0  0
   38.0780   28.2950   34.5530 H   0  0  0  0  0  0  0  0  0  0  0  0
   38.6540   23.9560   36.1620 C   0  0  0  0  0  0  0  0  0  0  0  0
   37.6340   23.5430   36.7290 O   0  0  0  0  0  0  0  0  0  0  0  0
   39.9540   23.3690   36.3300 C   0  0  0  0  0  0  0  0  0  0  0  0
   40.0600   22.3210   37.2290 C   0  0  0  0  0  0  0  0  0  0  0  0
   41.3130   21.7290   37.4170 C   0  0  0  0  0  0  0  0  0  0  0  0
   42.3760   22.2230   36.6950 N   0  0  0  0  0  0  0  0  0  0  0  0
   42.2350   23.2360   35.8360 C   0  0  0  0  0  0  0  0  0  0  0  0
   41.0370   23.8110   35.6500 N   0  0  0  0  0  0  0  0  0  0  0  0
   39.2080   21.9620   37.7750 H   0  0  0  0  0  0  0  0  0  0  0  0
   41.3760   20.9130   38.1220 H   0  0  0  0  0  0  0  0  0  0  0  0
   43.1080   23.5810   35.2960 H   0  0  0  0  0  0  0  0  0  0  0  0
   38.6040   26.8460   32.1500 C   0  0  0  0  0  0  0  0  0  0  0  0
   39.5480   27.6380   31.8150 O   0  0  0  0  0  0  0  0  0  0  0  0
   37.5950   26.3740   31.1450 C   0  0  1  0  0  0  0  0  0  0  0  0
   36.2050   26.1330   31.8580 C   0  0  0  0  0  0  0  0  0  0  0  0
   36.4100   27.1760   30.8320 C   0  0  1  0  0  0  0  0  0  0  0  0
   37.8610   25.4130   30.6140 H   0  0  0  0  0  0  0  0  0  0  0  0
   35.6440   25.2330   31.5500 H   0  0  0  0  0  0  0  0  0  0  0  0
   36.1440   26.3360   32.9210 H   0  0  0  0  0  0  0  0  0  0  0  0
   35.9750   26.9630   29.8110 H   0  0  0  0  0  0  0  0  0  0  0  0
   37.7690   28.9890   28.6530 Br  0  0  0  0  0  0  0  0  0  0  0  0
   36.9290   29.5050   30.2800 C   0  0  0  0  0  0  0  0  0  0  0  0
   36.3580   28.6210   31.1740 C   0  0  0  0  0  0  0  0  0  0  0  0
   35.7710   29.0910   32.3330 C   0  0  0  0  0  0  0  0  0  0  0  0
   35.3340   28.3750   33.0100 H   0  0  0  0  0  0  0  0  0  0  0  0
   35.7310   30.4330   32.6370 C   0  0  0  0  0  0  0  0  0  0  0  0
   35.2590   30.7560   33.5570 H   0  0  0  0  0  0  0  0  0  0  0  0
   36.3040   31.3120   31.7360 C   0  0  0  0  0  3  0  0  0  0  0  0
   36.8960   30.8690   30.5740 C   0  0  0  0  0  3  0  0  0  0  0  0
  1  2  2  0  0  0  0
  1  8  1  0  0  0  0
  2  6  1  0  0  0  0
  3  2  1  0  0  0  0
  4  5  1  0  0  0  0
  4  3  2  0  0  0  0
  5  1  1  0  0  0  0
  7  3  1  0  0  0  0
  8 10  1  0  0  0  0
  8  9  2  0  0  0  0
 10 11  1  0  0  0  0
 11 12  2  0  0  0  0
 11 16  1  0  0  0  0
 12 17  1  0  0  0  0
 13 12  1  0  0  0  0
 14 13  2  0  0  0  0
 15 14  1  0  0  0  0
 15 10  2  0  0  0  0
 18 14  1  0  0  0  0
 19  4  1  0  0  0  0
 20 19  2  0  0  0  0
 21 24  1  6  0  0  0
 21 22  1  0  0  0  0
 21 19  1  0  0  0  0
 22 26  1  0  0  0  0
 23 27  1  6  0  0  0
 23 21  1  0  0  0  0
 23 30  1  0  0  0  0
 23 22  1  0  0  0  0
 25 22  1  0  0  0  0
 28 29  1  0  0  0  0
 29 36  2  0  0  0  0
 29 30  1  0  0  0  0
 30 31  2  0  0  0  0
 31 33  1  0  0  0  0
 31 32  1  0  0  0  0
 33 34  1  0  0  0  0
 35 33  2  0  0  0  0
 36 35  1  0  0  0  0
M  END
>  <minimizedAffinity>
-5.33187103

$$$$
