
 OpenBabel03272504003D

 31 33  0  0  0  0  0  0  0  0999 V2000
   35.8510   30.4020   49.2390 C   0  0  0  0  0  0  0  0  0  0  0  0
   36.9750   29.7840   49.7650 C   0  0  0  0  0  0  0  0  0  0  0  0
   38.0690   30.2330   49.0760 C   0  0  0  0  0  0  0  0  0  0  0  0
   37.6140   31.0950   48.1630 N   0  0  0  0  0  0  0  0  0  0  0  0
   36.3170   31.1890   48.2640 N   0  0  0  0  0  0  0  0  0  0  0  0
   37.0210   29.0650   50.5790 H   0  0  0  0  0  0  0  0  0  0  0  0
   39.0790   29.9390   49.2510 H   0  0  0  0  0  0  0  0  0  0  0  0
   36.4860   30.3730   45.4540 Br  0  0  0  0  0  0  0  0  0  0  0  0
   37.9140   31.5810   45.8980 C   0  0  0  0  0  0  0  0  0  0  0  0
   38.3500   31.8370   47.1970 C   0  0  0  0  0  0  0  0  0  0  0  0
   39.3850   32.7260   47.3820 C   0  0  0  0  0  0  0  0  0  0  0  0
   39.6530   32.8580   48.4170 H   0  0  0  0  0  0  0  0  0  0  0  0
   39.9620   33.3380   46.2890 C   0  0  0  0  0  0  0  0  0  0  0  0
   40.7720   34.0300   46.4880 H   0  0  0  0  0  0  0  0  0  0  0  0
   39.5380   33.0940   44.9980 C   0  0  0  0  0  3  0  0  0  0  0  0
   38.4970   32.1990   44.8200 C   0  0  0  0  0  3  0  0  0  0  0  0
   34.5020   30.1170   49.7680 C   0  0  0  0  0  0  0  0  0  0  0  0
   34.4710   30.2950   50.8850 H   0  0  0  0  0  0  0  0  0  0  0  0
   33.8480   30.9050   49.3810 H   0  0  0  0  0  0  0  0  0  0  0  0
   34.0870   28.7100   49.5730 C   0  0  0  0  0  0  0  0  0  0  0  0
   34.9370   28.0690   49.9640 H   0  0  0  0  0  0  0  0  0  0  0  0
   33.2320   28.4030   50.2450 H   0  0  0  0  0  0  0  0  0  0  0  0
   33.7980   28.2490   48.2420 C   0  0  0  0  0  0  0  0  0  0  0  0
   33.3170   29.1010   47.2880 C   0  0  0  0  0  0  0  0  0  0  0  0
   33.0280   28.6390   45.9850 C   0  0  0  0  0  0  0  0  0  0  0  0
   33.2700   27.2900   45.7670 N   0  0  0  0  0  0  0  0  0  0  0  0
   33.7470   26.4870   46.7410 C   0  0  0  0  0  0  0  0  0  0  0  0
   34.0110   26.9720   47.9810 N   0  0  0  0  0  0  0  0  0  0  0  0
   33.0960   30.1530   47.3400 H   0  0  0  0  0  0  0  0  0  0  0  0
   32.6540   29.2110   45.1730 H   0  0  0  0  0  0  0  0  0  0  0  0
   33.9040   25.4480   46.4770 H   0  0  0  0  0  0  0  0  0  0  0  0
  1  2  1  0  0  0  0
  1 17  1  0  0  0  0
  2  6  1  0  0  0  0
  3  7  1  0  0  0  0
  3  2  2  0  0  0  0
  4  5  1  0  0  0  0
  4  3  1  0  0  0  0
  5  1  2  0  0  0  0
  8  9  1  0  0  0  0
  9 10  1  0  0  0  0
 10 11  2  0  0  0  0
 10  4  1  0  0  0  0
 11 12  1  0  0  0  0
 13 14  1  0  0  0  0
 13 11  1  0  0  0  0
 15 13  2  0  0  0  0
 16 15  1  0  0  0  0
 16  9  2  0  0  0  0
 17 18  1  0  0  0  0
 19 17  1  0  0  0  0
 20 17  1  0  0  0  0
 20 21  1  0  0  0  0
 20 22  1  0  0  0  0
 23 20  1  0  0  0  0
 24 29  1  0  0  0  0
 24 23  2  0  0  0  0
 25 24  1  0  0  0  0
 26 25  2  0  0  0  0
 26 27  1  0  0  0  0
 27 28  2  0  0  0  0
 28 23  1  0  0  0  0
 30 25  1  0  0  0  0
 31 27  1  0  0  0  0
M  END
>  <minimizedAffinity>
-4.97128725

>  <minimizedRMSD>
6.70245218

$$$$
