
 OpenBabel03272503493D

 37 39  0  0  1  0  0  0  0  0999 V2000
   33.2390   27.2700   45.8400 C   0  0  1  0  0  0  0  0  0  0  0  0
   33.9040   27.4400   47.2220 C   0  0  2  0  0  0  0  0  0  0  0  0
   33.7160   26.2350   47.8200 O   0  0  0  0  0  0  0  0  0  0  0  0
   34.0750   25.3160   46.8450 C   0  0  0  0  0  0  0  0  0  0  0  0
   33.6550   25.8590   45.4920 C   0  0  2  0  0  0  0  0  0  0  0  0
   33.6920   28.0100   45.1340 H   0  0  0  0  0  0  0  0  0  0  0  0
   34.9480   27.7460   47.0090 H   0  0  0  0  0  0  0  0  0  0  0  0
   33.4790   24.3980   47.0340 H   0  0  0  0  0  0  0  0  0  0  0  0
   35.1340   25.0360   46.8710 H   0  0  0  0  0  0  0  0  0  0  0  0
   32.7180   25.3590   45.1400 H   0  0  0  0  0  0  0  0  0  0  0  0
   31.8770   27.4700   45.9300 O   0  0  0  0  0  0  0  0  0  0  0  0
   31.5900   28.0570   45.1880 H   0  0  0  0  0  0  0  0  0  0  0  0
   33.2480   28.5100   47.7860 O   0  0  0  0  0  0  0  0  0  0  0  0
   35.3340   29.7890   46.7890 O   0  0  0  0  0  0  0  0  0  0  0  0
   34.0630   29.9720   47.6130 P   0  0  1  0  0  0  0  0  0  0  0  0
   33.1210   31.0630   46.7240 O   0  0  0  0  0  0  0  0  0  0  0  0
   32.3000   31.2210   47.2770 H   0  0  0  0  0  0  0  0  0  0  0  0
   34.3520   30.5700   49.1840 O   0  0  0  0  0  0  0  0  0  0  0  0
   35.5980   30.4660   49.7870 C   0  0  0  0  0  0  0  0  0  0  0  0
   35.9760   29.4540   50.6970 C   0  0  0  0  0  0  0  0  0  0  0  0
   37.2620   29.4840   51.2180 C   0  0  0  0  0  0  0  0  0  0  0  0
   38.0990   30.4880   50.8310 N   0  0  0  0  0  0  0  0  0  0  0  0
   37.7080   31.4450   49.9560 C   0  0  0  0  0  0  0  0  0  0  0  0
   36.4520   31.4370   49.4300 N   0  0  0  0  0  0  0  0  0  0  0  0
   35.2230   28.7360   50.9090 H   0  0  0  0  0  0  0  0  0  0  0  0
   37.5350   28.7050   51.9100 H   0  0  0  0  0  0  0  0  0  0  0  0
   38.4200   32.2200   49.6850 H   0  0  0  0  0  0  0  0  0  0  0  0
   34.6910   25.8600   44.6260 O   0  0  0  0  0  0  0  0  0  0  0  0
   33.3830   25.8010   41.6740 Br  0  0  0  0  0  0  0  0  0  0  0  0
   34.8740   24.8630   42.3410 C   0  0  0  0  0  0  0  0  0  0  0  0
   35.1960   25.0940   43.6520 C   0  0  0  0  0  0  0  0  0  0  0  0
   36.3080   24.3890   44.1360 C   0  0  0  0  0  0  0  0  0  0  0  0
   36.7410   24.4180   45.1410 H   0  0  0  0  0  0  0  0  0  0  0  0
   37.0390   23.5070   43.3290 C   0  0  0  0  0  0  0  0  0  0  0  0
   37.8990   22.9420   43.6530 H   0  0  0  0  0  0  0  0  0  0  0  0
   36.6360   23.3400   42.0200 C   0  0  0  0  0  3  0  0  0  0  0  0
   35.5510   24.0100   41.4990 C   0  0  0  0  0  3  0  0  0  0  0  0
  1  6  1  6  0  0  0
  1 11  1  0  0  0  0
  1  2  1  0  0  0  0
  2  7  1  6  0  0  0
  2 13  1  0  0  0  0
  2  3  1  0  0  0  0
  4  9  1  0  0  0  0
  4  8  1  0  0  0  0
  4  3  1  0  0  0  0
  5 10  1  6  0  0  0
  5  1  1  0  0  0  0
  5  4  1  0  0  0  0
 12 11  1  0  0  0  0
 15 14  2  6  0  0  0
 15 13  1  0  0  0  0
 15 18  1  0  0  0  0
 16 17  1  0  0  0  0
 16 15  1  0  0  0  0
 18 19  1  0  0  0  0
 19 20  1  0  0  0  0
 20 25  1  0  0  0  0
 20 21  2  0  0  0  0
 21 26  1  0  0  0  0
 22 21  1  0  0  0  0
 23 22  2  0  0  0  0
 24 19  2  0  0  0  0
 24 23  1  0  0  0  0
 27 23  1  0  0  0  0
 28  5  1  0  0  0  0
 29 30  1  0  0  0  0
 30 31  1  0  0  0  0
 31 32  2  0  0  0  0
 31 28  1  0  0  0  0
 32 33  1  0  0  0  0
 34 35  1  0  0  0  0
 34 32  1  0  0  0  0
 36 34  2  0  0  0  0
 37 36  1  0  0  0  0
 37 30  2  0  0  0  0
M  END
>  <minimizedAffinity>
-4.14591742

>  <minimizedRMSD>
0.94613415

$$$$
