
 OpenBabel03272504093D

 33 35  0  0  0  0  0  0  0  0999 V2000
   37.8190   30.4070   50.1270 C   0  0  0  0  0  0  0  0  0  0  0  0
   37.2820   30.6390   48.8530 C   0  0  0  0  0  0  0  0  0  0  0  0
   35.9330   30.3030   48.5910 C   0  0  0  0  0  0  0  0  0  0  0  0
   35.2200   29.7620   49.6100 N   0  0  0  0  0  0  0  0  0  0  0  0
   35.7830   29.5520   50.8420 C   0  0  0  0  0  0  0  0  0  0  0  0
   37.0780   29.8760   51.0950 N   0  0  0  0  0  0  0  0  0  0  0  0
   34.9570   28.9770   51.8640 N   0  0  0  0  0  0  0  0  0  0  0  0
   38.8500   30.6670   50.3300 H   0  0  0  0  0  0  0  0  0  0  0  0
   34.8460   29.5450   52.7400 H   0  0  0  0  0  0  0  0  0  0  0  0
   34.4580   28.0650   51.8240 H   0  0  0  0  0  0  0  0  0  0  0  0
   38.2360   33.5210   49.0890 Cl  0  0  0  0  0  0  0  0  0  0  0  0
   38.6930   32.5020   47.7550 C   0  0  0  0  0  0  0  0  0  0  0  0
   38.1770   31.2440   47.8290 C   0  0  0  0  0  0  0  0  0  0  0  0
   38.4870   30.3360   46.8050 C   0  0  0  0  0  0  0  0  0  0  0  0
   39.2810   30.6690   45.7490 C   0  0  0  0  0  0  0  0  0  0  0  0
   39.7940   31.9680   45.7060 C   0  0  0  0  0  0  0  0  0  0  0  0
   40.8220   32.4570   44.3910 Cl  0  0  0  0  0  0  0  0  0  0  0  0
   39.4920   32.8570   46.7040 C   0  0  0  0  0  0  0  0  0  0  0  0
   38.1560   29.3090   46.7460 H   0  0  0  0  0  0  0  0  0  0  0  0
   39.5510   30.0210   44.9320 H   0  0  0  0  0  0  0  0  0  0  0  0
   39.8590   33.8820   46.7420 H   0  0  0  0  0  0  0  0  0  0  0  0
   35.4020   30.5500   47.2660 C   0  0  0  0  0  0  0  0  0  0  0  0
   34.6700   31.4060   47.3640 H   0  0  0  0  0  0  0  0  0  0  0  0
   36.2380   30.9580   46.6220 H   0  0  0  0  0  0  0  0  0  0  0  0
   35.7950   30.7260   44.2430 Br  0  0  0  0  0  0  0  0  0  0  0  0
   34.8550   29.3430   45.1990 C   0  0  0  0  0  0  0  0  0  0  0  0
   34.7800   29.4130   46.5820 C   0  0  0  0  0  0  0  0  0  0  0  0
   34.1120   28.4220   47.2900 C   0  0  0  0  0  0  0  0  0  0  0  0
   34.0130   28.4250   48.3500 H   0  0  0  0  0  0  0  0  0  0  0  0
   33.5150   27.3540   46.6330 C   0  0  0  0  0  0  0  0  0  0  0  0
   32.9800   26.5710   47.2010 H   0  0  0  0  0  0  0  0  0  0  0  0
   33.5970   27.2940   45.2590 C   0  0  0  0  0  3  0  0  0  0  0  0
   34.2630   28.2790   44.5270 C   0  0  0  0  0  3  0  0  0  0  0  0
  1  8  1  0  0  0  0
  1  6  1  0  0  0  0
  2  1  2  0  0  0  0
  3  2  1  0  0  0  0
  3  4  2  0  0  0  0
  4  5  1  0  0  0  0
  5  6  2  0  0  0  0
  5  7  1  0  0  0  0
  7  9  1  0  0  0  0
 10  7  1  0  0  0  0
 12 13  1  0  0  0  0
 12 11  1  0  0  0  0
 13  2  1  0  0  0  0
 14 13  2  0  0  0  0
 15 14  1  0  0  0  0
 16 15  2  0  0  0  0
 16 18  1  0  0  0  0
 17 16  1  0  0  0  0
 18 21  1  0  0  0  0
 18 12  2  0  0  0  0
 19 14  1  0  0  0  0
 20 15  1  0  0  0  0
 22 23  1  0  0  0  0
 22  3  1  0  0  0  0
 24 22  1  0  0  0  0
 25 26  1  0  0  0  0
 26 27  1  0  0  0  0
 27 22  1  0  0  0  0
 27 28  2  0  0  0  0
 28 29  1  0  0  0  0
 30 31  1  0  0  0  0
 30 28  1  0  0  0  0
 32 30  2  0  0  0  0
 33 26  2  0  0  0  0
 33 32  1  0  0  0  0
M  END
>  <minimizedAffinity>
-5.83426142

>  <minimizedRMSD>
1.57805133

$$$$
