
 OpenBabel03272503493D

 37 39  0  0  1  0  0  0  0  0999 V2000
   33.0620   27.3360   45.8890 C   0  0  1  0  0  0  0  0  0  0  0  0
   33.9200   27.4760   47.1640 C   0  0  2  0  0  0  0  0  0  0  0  0
   33.8390   26.2490   47.7420 O   0  0  0  0  0  0  0  0  0  0  0  0
   34.0640   25.3680   46.6940 C   0  0  0  0  0  0  0  0  0  0  0  0
   33.4430   25.9450   45.4360 C   0  0  2  0  0  0  0  0  0  0  0  0
   33.3970   28.1080   45.1500 H   0  0  0  0  0  0  0  0  0  0  0  0
   34.9180   27.8080   46.8120 H   0  0  0  0  0  0  0  0  0  0  0  0
   33.5160   24.4340   46.9370 H   0  0  0  0  0  0  0  0  0  0  0  0
   35.1200   25.1080   46.5550 H   0  0  0  0  0  0  0  0  0  0  0  0
   32.4720   25.4390   45.2070 H   0  0  0  0  0  0  0  0  0  0  0  0
   31.7260   27.5080   46.1840 O   0  0  0  0  0  0  0  0  0  0  0  0
   31.3240   28.1120   45.5120 H   0  0  0  0  0  0  0  0  0  0  0  0
   33.3390   28.5150   47.8540 O   0  0  0  0  0  0  0  0  0  0  0  0
   35.3490   29.8310   46.7550 O   0  0  0  0  0  0  0  0  0  0  0  0
   34.0970   29.9970   47.6120 P   0  0  1  0  0  0  0  0  0  0  0  0
   33.0920   31.0260   46.7190 O   0  0  0  0  0  0  0  0  0  0  0  0
   32.2820   31.1740   47.2910 H   0  0  0  0  0  0  0  0  0  0  0  0
   34.4110   30.6540   49.1540 O   0  0  0  0  0  0  0  0  0  0  0  0
   35.6480   30.5150   49.7690 C   0  0  0  0  0  0  0  0  0  0  0  0
   35.9900   29.4910   50.6800 C   0  0  0  0  0  0  0  0  0  0  0  0
   37.2710   29.4860   51.2130 C   0  0  0  0  0  0  0  0  0  0  0  0
   38.1390   30.4670   50.8360 N   0  0  0  0  0  0  0  0  0  0  0  0
   37.7820   31.4360   49.9590 C   0  0  0  0  0  0  0  0  0  0  0  0
   36.5310   31.4630   49.4220 N   0  0  0  0  0  0  0  0  0  0  0  0
   35.2160   28.7940   50.8840 H   0  0  0  0  0  0  0  0  0  0  0  0
   37.5170   28.6990   51.9070 H   0  0  0  0  0  0  0  0  0  0  0  0
   38.5170   32.1920   49.6960 H   0  0  0  0  0  0  0  0  0  0  0  0
   34.3410   25.9940   44.4290 O   0  0  0  0  0  0  0  0  0  0  0  0
   36.9750   26.6530   42.6820 Br  0  0  0  0  0  0  0  0  0  0  0  0
   35.4220   25.7080   42.1940 C   0  0  0  0  0  0  0  0  0  0  0  0
   34.4600   25.5870   43.1590 C   0  0  0  0  0  0  0  0  0  0  0  0
   33.3070   24.8820   42.7830 C   0  0  0  0  0  0  0  0  0  0  0  0
   32.4190   24.6640   43.3860 H   0  0  0  0  0  0  0  0  0  0  0  0
   33.1540   24.3370   41.5010 C   0  0  0  0  0  0  0  0  0  0  0  0
   32.2900   23.7870   41.1620 H   0  0  0  0  0  0  0  0  0  0  0  0
   34.1800   24.5120   40.5950 C   0  0  0  0  0  3  0  0  0  0  0  0
   35.3310   25.1980   40.9180 C   0  0  0  0  0  3  0  0  0  0  0  0
  1  6  1  6  0  0  0
  1 11  1  0  0  0  0
  1  2  1  0  0  0  0
  2  7  1  6  0  0  0
  2  3  1  0  0  0  0
  2 13  1  0  0  0  0
  4  8  1  0  0  0  0
  4  3  1  0  0  0  0
  5 10  1  6  0  0  0
  5  1  1  0  0  0  0
  5  4  1  0  0  0  0
  9  4  1  0  0  0  0
 12 11  1  0  0  0  0
 15 14  2  6  0  0  0
 15 13  1  0  0  0  0
 15 18  1  0  0  0  0
 16 17  1  0  0  0  0
 16 15  1  0  0  0  0
 18 19  1  0  0  0  0
 19 20  1  0  0  0  0
 20 25  1  0  0  0  0
 20 21  2  0  0  0  0
 21 26  1  0  0  0  0
 22 21  1  0  0  0  0
 23 22  2  0  0  0  0
 24 19  2  0  0  0  0
 24 23  1  0  0  0  0
 27 23  1  0  0  0  0
 28  5  1  0  0  0  0
 30 29  1  0  0  0  0
 30 31  1  0  0  0  0
 31 28  1  0  0  0  0
 32 31  2  0  0  0  0
 32 33  1  0  0  0  0
 34 32  1  0  0  0  0
 35 34  1  0  0  0  0
 36 37  1  0  0  0  0
 36 34  2  0  0  0  0
 37 30  2  0  0  0  0
M  END
>  <minimizedAffinity>
-3.99280405

>  <minimizedRMSD>
0.0711815655

$$$$
