
 OpenBabel03272509533D

 43 46  0  0  0  0  0  0  0  0999 V2000
   34.0670   28.9030   48.3190 C   0  0  0  0  0  0  0  0  0  0  0  0
   33.0720   29.2450   48.6700 H   0  0  0  0  0  0  0  0  0  0  0  0
   34.5880   29.7880   47.8940 H   0  0  0  0  0  0  0  0  0  0  0  0
   33.8470   27.8130   47.3190 C   0  0  0  0  0  0  0  0  0  0  0  0
   34.4800   26.9260   47.4600 H   0  0  0  0  0  0  0  0  0  0  0  0
   34.1010   28.1930   46.2910 H   0  0  0  0  0  0  0  0  0  0  0  0
   32.4260   27.3740   47.2540 C   0  0  0  0  0  0  0  0  0  0  0  0
   32.1570   26.0740   46.8670 C   0  0  0  0  0  0  0  0  0  0  0  0
   30.8840   25.5980   46.7830 C   0  0  0  0  0  0  0  0  0  0  0  0
   29.8690   26.3850   47.0760 N   0  0  0  0  0  0  0  0  0  0  0  0
   30.1200   27.6730   47.4600 C   0  0  0  0  0  0  0  0  0  0  0  0
   31.3740   28.1810   47.5550 N   0  0  0  0  0  0  0  0  0  0  0  0
   32.9840   25.4210   46.6240 H   0  0  0  0  0  0  0  0  0  0  0  0
   30.7200   24.5580   46.4710 H   0  0  0  0  0  0  0  0  0  0  0  0
   29.2100   27.3390   50.4030 Br  0  0  0  0  0  0  0  0  0  0  0  0
   28.4880   28.5370   49.0880 C   0  0  0  0  0  0  0  0  0  0  0  0
   29.0110   28.5700   47.7920 C   0  0  0  0  0  0  0  0  0  0  0  0
   28.4680   29.4410   46.8780 C   0  0  0  0  0  0  0  0  0  0  0  0
   28.8570   29.4830   45.8730 H   0  0  0  0  0  0  0  0  0  0  0  0
   27.4240   30.2840   47.1930 C   0  0  0  0  0  0  0  0  0  0  0  0
   27.0080   30.9600   46.4720 H   0  0  0  0  0  0  0  0  0  0  0  0
   26.9440   30.2140   48.4830 C   0  0  0  0  0  3  0  0  0  0  0  0
   27.4300   29.3700   49.4650 C   0  0  0  0  0  3  0  0  0  0  0  0
   34.7320   28.4000   49.4590 O   0  0  0  0  0  0  0  0  0  0  0  0
   37.1240   30.0080   51.6390 C   0  0  0  0  0  0  0  0  0  0  0  0
   37.9020   30.7150   50.6920 C   0  0  0  0  0  0  0  0  0  0  0  0
   37.5430   30.5860   49.3550 C   0  0  0  0  0  0  0  0  0  0  0  0
   36.4640   29.7810   49.0850 N   0  0  0  0  0  0  0  0  0  0  0  0
   35.7550   29.1320   49.9950 C   0  0  0  0  0  0  0  0  0  0  0  0
   36.1030   29.2570   51.2990 N   0  0  0  0  0  0  0  0  0  0  0  0
   37.4350   30.1350   52.6750 H   0  0  0  0  0  0  0  0  0  0  0  0
   38.7480   31.3450   50.9050 H   0  0  0  0  0  0  0  0  0  0  0  0
   38.7830   33.2030   49.2740 F   0  0  0  0  0  0  0  0  0  0  0  0
   38.7960   32.4460   48.1870 C   0  0  0  0  0  0  0  0  0  0  0  0
   38.2120   31.2250   48.2420 C   0  0  0  0  0  0  0  0  0  0  0  0
   38.2840   30.5140   47.0420 C   0  0  0  0  0  0  0  0  0  0  0  0
   38.8890   31.0110   45.9220 C   0  0  0  0  0  0  0  0  0  0  0  0
   39.4650   32.2470   45.9100 C   0  0  0  0  0  0  0  0  0  0  0  0
   39.4130   32.9690   47.0650 C   0  0  0  0  0  0  0  0  0  0  0  0
   37.8530   29.5080   46.9390 H   0  0  0  0  0  0  0  0  0  0  0  0
   38.9290   30.4300   45.0000 H   0  0  0  0  0  0  0  0  0  0  0  0
   39.9380   32.6170   45.0100 H   0  0  0  0  0  0  0  0  0  0  0  0
   39.8600   33.9510   47.0900 H   0  0  0  0  0  0  0  0  0  0  0  0
  1  2  1  0  0  0  0
  1 24  1  0  0  0  0
  3  1  1  0  0  0  0
  4  5  1  0  0  0  0
  4  1  1  0  0  0  0
  6  4  1  0  0  0  0
  7  4  1  0  0  0  0
  7 12  1  0  0  0  0
  8  7  2  0  0  0  0
  9  8  1  0  0  0  0
  9 10  2  0  0  0  0
 10 11  1  0  0  0  0
 11 12  2  0  0  0  0
 11 17  1  0  0  0  0
 13  8  1  0  0  0  0
 14  9  1  0  0  0  0
 16 23  1  0  0  0  0
 16 15  1  0  0  0  0
 17 16  2  0  0  0  0
 18 20  2  0  0  0  0
 18 17  1  0  0  0  0
 19 18  1  0  0  0  0
 20 22  1  0  0  0  0
 21 20  1  0  0  0  0
 22 23  2  0  0  0  0
 24 29  1  0  0  0  0
 25 31  1  0  0  0  0
 26 32  1  0  0  0  0
 26 25  2  0  0  0  0
 27 26  1  0  0  0  0
 28 27  2  0  0  0  0
 28 29  1  0  0  0  0
 29 30  2  0  0  0  0
 30 25  1  0  0  0  0
 34 35  1  0  0  0  0
 34 33  1  0  0  0  0
 35 27  1  0  0  0  0
 36 35  2  0  0  0  0
 37 36  1  0  0  0  0
 38 37  2  0  0  0  0
 38 39  1  0  0  0  0
 39 43  1  0  0  0  0
 39 34  2  0  0  0  0
 40 36  1  0  0  0  0
 41 37  1  0  0  0  0
 42 38  1  0  0  0  0
M  END
>  <minimizedAffinity>
-7.30098629

>  <minimizedRMSD>
2.18388319

$$$$
