
 OpenBabel03272510163D

 28 30  0  0  0  0  0  0  0  0999 V2000
   37.2150   29.4420   51.0920 Br  0  0  0  0  0  0  0  0  0  0  0  0
   35.9440   29.3690   49.6750 C   0  0  0  0  0  0  0  0  0  0  0  0
   36.0220   30.2320   48.6020 C   0  0  0  0  0  0  0  0  0  0  0  0
   35.0680   30.1330   47.5960 C   0  0  0  0  0  0  0  0  0  0  0  0
   34.0470   29.1900   47.6520 C   0  0  0  0  0  0  0  0  0  0  0  0
   33.9910   28.3460   48.7280 C   0  0  0  0  0  0  0  0  0  0  0  0
   34.9350   28.4390   49.7280 C   0  0  0  0  0  0  0  0  0  0  0  0
   35.1850   30.8370   46.7840 H   0  0  0  0  0  0  0  0  0  0  0  0
   33.1850   27.6250   48.7420 H   0  0  0  0  0  0  0  0  0  0  0  0
   34.8730   27.7630   50.5690 H   0  0  0  0  0  0  0  0  0  0  0  0
   38.0130   33.1770   49.4160 C   0  0  0  0  0  0  0  0  0  0  0  0
   39.0580   33.1630   48.4450 C   0  0  0  0  0  0  0  0  0  0  0  0
   39.0490   32.1200   47.5210 C   0  0  0  0  0  0  0  0  0  0  0  0
   38.0590   31.1740   47.5810 N   0  0  0  0  0  0  0  0  0  0  0  0
   37.0910   31.2340   48.5210 C   0  0  0  0  0  0  0  0  0  0  0  0
   37.0630   32.2350   49.4430 N   0  0  0  0  0  0  0  0  0  0  0  0
   37.9670   33.9530   50.1530 H   0  0  0  0  0  0  0  0  0  0  0  0
   39.7990   33.9420   48.4640 H   0  0  0  0  0  0  0  0  0  0  0  0
   39.8260   32.0760   46.7690 H   0  0  0  0  0  0  0  0  0  0  0  0
   33.7290   26.5060   46.0460 Br  0  0  0  0  0  0  0  0  0  0  0  0
   32.8430   28.1460   45.6950 C   0  0  0  0  0  0  0  0  0  0  0  0
   33.1230   29.2120   46.5230 C   0  0  0  0  0  0  0  0  0  0  0  0
   32.4650   30.4170   46.2570 C   0  0  0  0  0  0  0  0  0  0  0  0
   32.5840   31.3340   46.8180 H   0  0  0  0  0  0  0  0  0  0  0  0
   31.5680   30.5020   45.1880 C   0  0  0  0  0  0  0  0  0  0  0  0
   31.0330   31.4260   44.9460 H   0  0  0  0  0  0  0  0  0  0  0  0
   31.3090   29.4170   44.3780 C   0  0  0  0  0  3  0  0  0  0  0  0
   31.9610   28.2320   44.6460 C   0  0  0  0  0  3  0  0  0  0  0  0
  2  7  1  0  0  0  0
  2  1  1  0  0  0  0
  3  2  2  0  0  0  0
  4  5  2  0  0  0  0
  4  3  1  0  0  0  0
  5  6  1  0  0  0  0
  6  9  1  0  0  0  0
  6  7  2  0  0  0  0
  7 10  1  0  0  0  0
  8  4  1  0  0  0  0
 11 16  1  0  0  0  0
 11 17  1  0  0  0  0
 12 18  1  0  0  0  0
 12 11  2  0  0  0  0
 13 14  2  0  0  0  0
 13 12  1  0  0  0  0
 14 15  1  0  0  0  0
 15  3  1  0  0  0  0
 15 16  2  0  0  0  0
 19 13  1  0  0  0  0
 21 20  1  0  0  0  0
 21 22  1  0  0  0  0
 22  5  1  0  0  0  0
 23 22  2  0  0  0  0
 23 24  1  0  0  0  0
 25 23  1  0  0  0  0
 26 25  1  0  0  0  0
 27 28  1  0  0  0  0
 27 25  2  0  0  0  0
 28 21  2  0  0  0  0
M  END
>  <minimizedAffinity>
-6.05088663

>  <minimizedRMSD>
0.389500022

$$$$
