
 OpenBabel03272510203D

 36 39  0  0  0  0  0  0  0  0999 V2000
   37.2280   29.3370   51.0860 Br  0  0  0  0  0  0  0  0  0  0  0  0
   35.9260   29.3290   49.6930 C   0  0  0  0  0  0  0  0  0  0  0  0
   35.9800   30.2700   48.6560 C   0  0  0  0  0  0  0  0  0  0  0  0
   35.0120   30.2050   47.6890 C   0  0  0  0  0  0  0  0  0  0  0  0
   33.9940   29.2590   47.6900 C   0  0  0  0  0  0  0  0  0  0  0  0
   33.9770   28.3630   48.7120 C   0  0  0  0  0  0  0  0  0  0  0  0
   34.9360   28.4060   49.6970 C   0  0  0  0  0  0  0  0  0  0  0  0
   35.0350   30.9230   46.8810 H   0  0  0  0  0  0  0  0  0  0  0  0
   33.1920   27.6140   48.7350 H   0  0  0  0  0  0  0  0  0  0  0  0
   34.8530   27.6570   50.4760 H   0  0  0  0  0  0  0  0  0  0  0  0
   37.9130   33.2270   49.5800 C   0  0  0  0  0  0  0  0  0  0  0  0
   38.9710   33.2310   48.6340 C   0  0  0  0  0  0  0  0  0  0  0  0
   39.0010   32.2220   47.7010 C   0  0  0  0  0  0  0  0  0  0  0  0
   38.0220   31.2520   47.7060 N   0  0  0  0  0  0  0  0  0  0  0  0
   37.0300   31.2780   48.6190 C   0  0  0  0  0  0  0  0  0  0  0  0
   36.9810   32.2730   49.5590 N   0  0  0  0  0  0  0  0  0  0  0  0
   37.8490   33.9960   50.3280 H   0  0  0  0  0  0  0  0  0  0  0  0
   39.7180   34.0130   48.6680 H   0  0  0  0  0  0  0  0  0  0  0  0
   39.8000   32.1780   46.9440 H   0  0  0  0  0  0  0  0  0  0  0  0
   32.9730   29.1970   46.6610 C   0  0  0  0  0  0  0  0  0  0  0  0
   32.2320   28.0850   46.3570 C   0  0  0  0  0  0  0  0  0  0  0  0
   31.2650   28.0370   45.3770 C   0  0  0  0  0  0  0  0  0  0  0  0
   31.0260   29.1400   44.6750 N   0  0  0  0  0  0  0  0  0  0  0  0
   31.7360   30.2640   44.9430 C   0  0  0  0  0  0  0  0  0  0  0  0
   32.6730   30.2680   45.9100 N   0  0  0  0  0  0  0  0  0  0  0  0
   32.4190   27.1640   46.9310 H   0  0  0  0  0  0  0  0  0  0  0  0
   30.7100   27.1350   45.1780 H   0  0  0  0  0  0  0  0  0  0  0  0
   28.7880   31.0670   44.9600 Br  0  0  0  0  0  0  0  0  0  0  0  0
   30.2010   31.9820   44.1020 C   0  0  0  0  0  0  0  0  0  0  0  0
   31.4920   31.5020   44.1780 C   0  0  0  0  0  0  0  0  0  0  0  0
   32.5630   32.1550   43.5570 C   0  0  0  0  0  0  0  0  0  0  0  0
   33.5700   31.7620   43.6290 H   0  0  0  0  0  0  0  0  0  0  0  0
   32.3160   33.3280   42.8350 C   0  0  0  0  0  0  0  0  0  0  0  0
   33.1150   33.8640   42.3390 H   0  0  0  0  0  0  0  0  0  0  0  0
   31.0110   33.7610   42.7930 C   0  0  0  0  0  3  0  0  0  0  0  0
   29.9310   33.1490   43.3910 C   0  0  0  0  0  3  0  0  0  0  0  0
  2  7  1  0  0  0  0
  2  1  1  0  0  0  0
  3  2  2  0  0  0  0
  4  5  2  0  0  0  0
  4  3  1  0  0  0  0
  5  6  1  0  0  0  0
  6  9  1  0  0  0  0
  6  7  2  0  0  0  0
  7 10  1  0  0  0  0
  8  4  1  0  0  0  0
 11 17  1  0  0  0  0
 12 18  1  0  0  0  0
 12 11  2  0  0  0  0
 13 14  2  0  0  0  0
 13 12  1  0  0  0  0
 14 15  1  0  0  0  0
 15  3  1  0  0  0  0
 15 16  2  0  0  0  0
 16 11  1  0  0  0  0
 19 13  1  0  0  0  0
 20  5  1  0  0  0  0
 21 20  1  0  0  0  0
 21 26  1  0  0  0  0
 22 21  2  0  0  0  0
 23 24  2  0  0  0  0
 23 22  1  0  0  0  0
 24 25  1  0  0  0  0
 25 20  2  0  0  0  0
 27 22  1  0  0  0  0
 29 30  1  0  0  0  0
 29 28  1  0  0  0  0
 30 24  1  0  0  0  0
 31 32  1  0  0  0  0
 31 30  2  0  0  0  0
 33 31  1  0  0  0  0
 34 33  1  0  0  0  0
 35 33  2  0  0  0  0
 35 36  1  0  0  0  0
 36 29  2  0  0  0  0
M  END
>  <minimizedAffinity>
-6.44495153

>  <minimizedRMSD>
0.50657618

$$$$
