
 OpenBabel03272509543D

 43 46  0  0  0  0  0  0  0  0999 V2000
   34.0680   28.8940   48.3270 C   0  0  0  0  0  0  0  0  0  0  0  0
   33.0740   29.2260   48.6900 H   0  0  0  0  0  0  0  0  0  0  0  0
   34.5780   29.7860   47.9030 H   0  0  0  0  0  0  0  0  0  0  0  0
   33.8450   27.8110   47.3200 C   0  0  0  0  0  0  0  0  0  0  0  0
   34.4780   26.9220   47.4540 H   0  0  0  0  0  0  0  0  0  0  0  0
   34.0950   28.1970   46.2950 H   0  0  0  0  0  0  0  0  0  0  0  0
   32.4230   27.3720   47.2570 C   0  0  0  0  0  0  0  0  0  0  0  0
   32.1540   26.0720   46.8690 C   0  0  0  0  0  0  0  0  0  0  0  0
   30.8800   25.5960   46.7870 C   0  0  0  0  0  0  0  0  0  0  0  0
   29.8660   26.3830   47.0830 N   0  0  0  0  0  0  0  0  0  0  0  0
   30.1170   27.6700   47.4680 C   0  0  0  0  0  0  0  0  0  0  0  0
   31.3720   28.1780   47.5610 N   0  0  0  0  0  0  0  0  0  0  0  0
   32.9800   25.4190   46.6250 H   0  0  0  0  0  0  0  0  0  0  0  0
   30.7150   24.5560   46.4750 H   0  0  0  0  0  0  0  0  0  0  0  0
   29.2050   27.3270   50.4080 Br  0  0  0  0  0  0  0  0  0  0  0  0
   28.4850   28.5300   49.0980 C   0  0  0  0  0  0  0  0  0  0  0  0
   29.0090   28.5680   47.8010 C   0  0  0  0  0  0  0  0  0  0  0  0
   28.4670   29.4420   46.8910 C   0  0  0  0  0  0  0  0  0  0  0  0
   28.8580   29.4870   45.8860 H   0  0  0  0  0  0  0  0  0  0  0  0
   27.4240   30.2850   47.2080 C   0  0  0  0  0  0  0  0  0  0  0  0
   27.0100   30.9640   46.4890 H   0  0  0  0  0  0  0  0  0  0  0  0
   26.9440   30.2100   48.4970 C   0  0  0  0  0  3  0  0  0  0  0  0
   27.4260   29.3630   49.4760 C   0  0  0  0  0  3  0  0  0  0  0  0
   34.7480   28.3870   49.4560 O   0  0  0  0  0  0  0  0  0  0  0  0
   37.1260   30.0140   51.6370 C   0  0  0  0  0  0  0  0  0  0  0  0
   37.9020   30.7220   50.6900 C   0  0  0  0  0  0  0  0  0  0  0  0
   37.5480   30.5870   49.3520 C   0  0  0  0  0  0  0  0  0  0  0  0
   36.4740   29.7760   49.0820 N   0  0  0  0  0  0  0  0  0  0  0  0
   35.7660   29.1250   49.9920 C   0  0  0  0  0  0  0  0  0  0  0  0
   36.1090   29.2560   51.2970 N   0  0  0  0  0  0  0  0  0  0  0  0
   37.4340   30.1450   52.6730 H   0  0  0  0  0  0  0  0  0  0  0  0
   38.7450   31.3570   50.9030 H   0  0  0  0  0  0  0  0  0  0  0  0
   38.7860   33.2050   49.2710 F   0  0  0  0  0  0  0  0  0  0  0  0
   38.7990   32.4480   48.1840 C   0  0  0  0  0  0  0  0  0  0  0  0
   38.2160   31.2260   48.2390 C   0  0  0  0  0  0  0  0  0  0  0  0
   38.2880   30.5160   47.0390 C   0  0  0  0  0  0  0  0  0  0  0  0
   38.8920   31.0130   45.9190 C   0  0  0  0  0  0  0  0  0  0  0  0
   39.4680   32.2500   45.9070 C   0  0  0  0  0  0  0  0  0  0  0  0
   39.4160   32.9710   47.0620 C   0  0  0  0  0  0  0  0  0  0  0  0
   37.8580   29.5090   46.9360 H   0  0  0  0  0  0  0  0  0  0  0  0
   38.9330   30.4310   44.9970 H   0  0  0  0  0  0  0  0  0  0  0  0
   39.9400   32.6190   45.0070 H   0  0  0  0  0  0  0  0  0  0  0  0
   39.8620   33.9530   47.0860 H   0  0  0  0  0  0  0  0  0  0  0  0
  1  2  1  0  0  0  0
  1 24  1  0  0  0  0
  3  1  1  0  0  0  0
  4  5  1  0  0  0  0
  4  1  1  0  0  0  0
  6  4  1  0  0  0  0
  7  4  1  0  0  0  0
  7 12  1  0  0  0  0
  8  7  2  0  0  0  0
  9  8  1  0  0  0  0
  9 10  2  0  0  0  0
 10 11  1  0  0  0  0
 11 12  2  0  0  0  0
 11 17  1  0  0  0  0
 13  8  1  0  0  0  0
 14  9  1  0  0  0  0
 16 23  1  0  0  0  0
 16 15  1  0  0  0  0
 17 16  2  0  0  0  0
 18 20  2  0  0  0  0
 18 17  1  0  0  0  0
 19 18  1  0  0  0  0
 20 22  1  0  0  0  0
 21 20  1  0  0  0  0
 22 23  2  0  0  0  0
 24 29  1  0  0  0  0
 25 31  1  0  0  0  0
 26 32  1  0  0  0  0
 26 25  2  0  0  0  0
 27 26  1  0  0  0  0
 28 27  2  0  0  0  0
 28 29  1  0  0  0  0
 29 30  2  0  0  0  0
 30 25  1  0  0  0  0
 34 35  1  0  0  0  0
 34 33  1  0  0  0  0
 35 27  1  0  0  0  0
 36 35  2  0  0  0  0
 37 36  1  0  0  0  0
 38 37  2  0  0  0  0
 38 39  1  0  0  0  0
 39 43  1  0  0  0  0
 39 34  2  0  0  0  0
 40 36  1  0  0  0  0
 41 37  1  0  0  0  0
 42 38  1  0  0  0  0
M  END
>  <minimizedAffinity>
-7.30441618

>  <minimizedRMSD>
2.22581315

$$$$
