
 OpenBabel03272505353D

 35 37  0  0  1  0  0  0  0  0999 V2000
   39.0740   23.0090   37.4820 C   0  0  0  0  0  0  0  0  0  0  0  0
   40.3350   22.4670   37.6680 C   0  0  0  0  0  0  0  0  0  0  0  0
   41.0230   21.9740   36.5470 C   0  0  0  0  0  0  0  0  0  0  0  0
   40.3920   22.0620   35.3280 N   0  0  0  0  0  0  0  0  0  0  0  0
   39.1670   22.5960   35.1910 C   0  0  0  0  0  0  0  0  0  0  0  0
   38.5400   23.0530   36.2590 N   0  0  0  0  0  0  0  0  0  0  0  0
   38.6130   22.6390   33.8930 N   0  0  0  0  0  0  0  0  0  0  0  0
   37.8070   21.5090   33.4270 C   0  0  0  0  0  0  0  0  0  0  0  0
   38.1430   21.1360   31.9990 C   0  0  0  0  0  0  0  0  0  0  0  0
   38.2350   22.2890   31.1380 N   0  0  0  0  0  0  0  0  0  0  0  0
   37.9390   23.5200   31.7810 C   0  0  0  0  0  0  0  0  0  0  0  0
   38.8090   23.7560   32.9930 C   0  0  1  0  0  0  0  0  0  0  0  0
   40.8310   22.3950   38.6110 H   0  0  0  0  0  0  0  0  0  0  0  0
   42.0030   21.5410   36.6190 H   0  0  0  0  0  0  0  0  0  0  0  0
   37.9360   20.6140   34.0570 H   0  0  0  0  0  0  0  0  0  0  0  0
   36.7250   21.8050   33.5110 H   0  0  0  0  0  0  0  0  0  0  0  0
   39.1580   20.6780   32.0370 H   0  0  0  0  0  0  0  0  0  0  0  0
   37.3940   20.3960   31.6910 H   0  0  0  0  0  0  0  0  0  0  0  0
   37.7290   22.2040   30.2490 H   0  0  0  0  0  0  0  0  0  0  0  0
   36.8670   23.4500   32.1260 H   0  0  0  0  0  0  0  0  0  0  0  0
   38.0080   24.3280   31.0450 H   0  0  0  0  0  0  0  0  0  0  0  0
   39.8660   23.6190   32.6040 H   0  0  0  0  0  0  0  0  0  0  0  0
   41.5060   25.2040   33.7320 Br  0  0  0  0  0  0  0  0  0  0  0  0
   39.7130   25.8630   33.9630 C   0  0  0  0  0  0  0  0  0  0  0  0
   38.6190   25.0790   33.5800 C   0  0  0  0  0  0  0  0  0  0  0  0
   37.3990   25.6680   33.8000 C   0  0  0  0  0  0  0  0  0  0  0  0
   36.4980   25.1600   33.5380 H   0  0  0  0  0  0  0  0  0  0  0  0
   37.2130   26.9310   34.3520 C   0  0  0  0  0  0  0  0  0  0  0  0
   36.2170   27.3440   34.5010 H   0  0  0  0  0  0  0  0  0  0  0  0
   38.3300   27.6560   34.7100 C   0  0  0  0  0  3  0  0  0  0  0  0
   39.5900   27.1340   34.5210 C   0  0  0  0  0  3  0  0  0  0  0  0
   38.3360   23.5370   38.6700 C   0  0  0  0  0  0  0  0  0  0  0  0
   37.8100   24.7980   38.3620 F   0  0  0  0  0  0  0  0  0  0  0  0
   37.4020   22.6340   39.0330 F   0  0  0  0  0  0  0  0  0  0  0  0
   39.2740   23.7590   39.6700 F   0  0  0  0  0  0  0  0  0  0  0  0
  1  2  1  0  0  0  0
  1 32  1  0  0  0  0
  2 13  1  0  0  0  0
  3 14  1  0  0  0  0
  3  2  2  0  0  0  0
  4  3  1  0  0  0  0
  5  4  2  0  0  0  0
  5  6  1  0  0  0  0
  6  1  2  0  0  0  0
  7  5  1  0  0  0  0
  8 16  1  0  0  0  0
  8  7  1  0  0  0  0
  8 15  1  0  0  0  0
  9 17  1  0  0  0  0
  9  8  1  0  0  0  0
 10 11  1  0  0  0  0
 10  9  1  0  0  0  0
 11 20  1  0  0  0  0
 11 12  1  0  0  0  0
 12 22  1  6  0  0  0
 12 25  1  0  0  0  0
 12  7  1  0  0  0  0
 18  9  1  0  0  0  0
 19 10  1  0  0  0  0
 21 11  1  0  0  0  0
 23 24  1  0  0  0  0
 24 31  1  0  0  0  0
 25 26  1  0  0  0  0
 25 24  2  0  0  0  0
 26 28  2  0  0  0  0
 27 26  1  0  0  0  0
 28 29  1  0  0  0  0
 28 30  1  0  0  0  0
 31 30  2  0  0  0  0
 32 34  1  0  0  0  0
 32 35  1  0  0  0  0
 33 32  1  0  0  0  0
M  END
>  <minimizedAffinity>
-5.87371826

$$$$

 OpenBabel03272505353D

 35 37  0  0  1  0  0  0  0  0999 V2000
   37.2200   21.4820   33.2440 C   0  0  0  0  0  0  0  0  0  0  0  0
   38.0840   20.7290   32.4670 C   0  0  0  0  0  0  0  0  0  0  0  0
   39.2590   21.3370   31.9930 C   0  0  0  0  0  0  0  0  0  0  0  0
   39.4730   22.6520   32.3350 N   0  0  0  0  0  0  0  0  0  0  0  0
   38.6080   23.3460   33.0920 C   0  0  0  0  0  0  0  0  0  0  0  0
   37.5110   22.7540   33.5270 N   0  0  0  0  0  0  0  0  0  0  0  0
   38.9270   24.6910   33.3860 N   0  0  0  0  0  0  0  0  0  0  0  0
   38.4640   25.7440   32.4820 C   0  0  0  0  0  0  0  0  0  0  0  0
   39.5440   26.7720   32.2230 C   0  0  0  0  0  0  0  0  0  0  0  0
   40.2120   27.1800   33.4340 N   0  0  0  0  0  0  0  0  0  0  0  0
   39.6930   26.5870   34.6150 C   0  0  0  0  0  0  0  0  0  0  0  0
   39.7010   25.0780   34.5470 C   0  0  1  0  0  0  0  0  0  0  0  0
   37.9250   19.7080   32.1980 H   0  0  0  0  0  0  0  0  0  0  0  0
   39.9720   20.8130   31.3860 H   0  0  0  0  0  0  0  0  0  0  0  0
   38.1280   25.3460   31.5100 H   0  0  0  0  0  0  0  0  0  0  0  0
   37.5650   26.2290   32.9550 H   0  0  0  0  0  0  0  0  0  0  0  0
   40.3030   26.2610   31.5890 H   0  0  0  0  0  0  0  0  0  0  0  0
   39.0630   27.5900   31.6710 H   0  0  0  0  0  0  0  0  0  0  0  0
   40.3210   28.1950   33.5450 H   0  0  0  0  0  0  0  0  0  0  0  0
   38.6210   26.9290   34.6980 H   0  0  0  0  0  0  0  0  0  0  0  0
   40.2430   26.9760   35.4780 H   0  0  0  0  0  0  0  0  0  0  0  0
   40.7700   24.8200   34.2690 H   0  0  0  0  0  0  0  0  0  0  0  0
   41.6690   22.8100   35.4950 Br  0  0  0  0  0  0  0  0  0  0  0  0
   40.0710   23.4260   36.3730 C   0  0  0  0  0  0  0  0  0  0  0  0
   39.3060   24.4500   35.8040 C   0  0  0  0  0  0  0  0  0  0  0  0
   38.1930   24.7930   36.5330 C   0  0  0  0  0  0  0  0  0  0  0  0
   37.5430   25.5670   36.1940 H   0  0  0  0  0  0  0  0  0  0  0  0
   37.8170   24.2030   37.7350 C   0  0  0  0  0  0  0  0  0  0  0  0
   36.9210   24.5200   38.2660 H   0  0  0  0  0  0  0  0  0  0  0  0
   38.6120   23.1980   38.2440 C   0  0  0  0  0  3  0  0  0  0  0  0
   39.7450   22.7980   37.5730 C   0  0  0  0  0  3  0  0  0  0  0  0
   35.9680   20.8420   33.7540 C   0  0  0  0  0  0  0  0  0  0  0  0
   35.9430   19.4990   33.3580 F   0  0  0  0  0  0  0  0  0  0  0  0
   35.9110   21.0140   35.0900 F   0  0  0  0  0  0  0  0  0  0  0  0
   34.9030   21.4430   33.0970 F   0  0  0  0  0  0  0  0  0  0  0  0
  1  6  1  0  0  0  0
  1 32  1  0  0  0  0
  2  1  2  0  0  0  0
  3  4  2  0  0  0  0
  3  2  1  0  0  0  0
  4  5  1  0  0  0  0
  5  7  1  0  0  0  0
  5  6  2  0  0  0  0
  7 12  1  0  0  0  0
  8 16  1  0  0  0  0
  8  7  1  0  0  0  0
  9  8  1  0  0  0  0
  9 10  1  0  0  0  0
 10 19  1  0  0  0  0
 10 11  1  0  0  0  0
 11 20  1  0  0  0  0
 11 21  1  0  0  0  0
 12 22  1  6  0  0  0
 12 11  1  0  0  0  0
 12 25  1  0  0  0  0
 13  2  1  0  0  0  0
 14  3  1  0  0  0  0
 15  8  1  0  0  0  0
 17  9  1  0  0  0  0
 18  9  1  0  0  0  0
 23 24  1  0  0  0  0
 24 31  1  0  0  0  0
 25 24  2  0  0  0  0
 25 26  1  0  0  0  0
 26 28  2  0  0  0  0
 27 26  1  0  0  0  0
 28 30  1  0  0  0  0
 28 29  1  0  0  0  0
 31 30  2  0  0  0  0
 32 34  1  0  0  0  0
 33 32  1  0  0  0  0
 35 32  1  0  0  0  0
M  END
>  <minimizedAffinity>
-5.80007887

$$$$

 OpenBabel03272505353D

 35 37  0  0  1  0  0  0  0  0999 V2000
   38.1720   25.2760   34.9910 C   0  0  0  0  0  0  0  0  0  0  0  0
   37.4690   26.4590   35.1440 C   0  0  0  0  0  0  0  0  0  0  0  0
   37.2450   27.2550   34.0080 C   0  0  0  0  0  0  0  0  0  0  0  0
   37.7450   26.8030   32.8090 N   0  0  0  0  0  0  0  0  0  0  0  0
   38.4220   25.6480   32.7050 C   0  0  0  0  0  0  0  0  0  0  0  0
   38.6200   24.9150   33.7860 N   0  0  0  0  0  0  0  0  0  0  0  0
   38.8890   25.2760   31.4240 N   0  0  0  0  0  0  0  0  0  0  0  0
   40.2230   25.7080   31.0020 C   0  0  0  0  0  0  0  0  0  0  0  0
   40.2220   26.1980   29.5700 C   0  0  0  0  0  0  0  0  0  0  0  0
   39.4980   25.3150   28.6900 N   0  0  0  0  0  0  0  0  0  0  0  0
   38.9870   24.1520   29.3230 C   0  0  0  0  0  0  0  0  0  0  0  0
   38.1030   24.4840   30.5020 C   0  0  1  0  0  0  0  0  0  0  0  0
   37.0790   26.8170   36.0710 H   0  0  0  0  0  0  0  0  0  0  0  0
   36.7080   28.1840   34.0550 H   0  0  0  0  0  0  0  0  0  0  0  0
   40.6250   26.5110   31.6410 H   0  0  0  0  0  0  0  0  0  0  0  0
   40.9180   24.8310   31.1180 H   0  0  0  0  0  0  0  0  0  0  0  0
   39.6740   27.1670   29.5820 H   0  0  0  0  0  0  0  0  0  0  0  0
   41.2750   26.3500   29.2980 H   0  0  0  0  0  0  0  0  0  0  0  0
   39.9870   25.0790   27.8190 H   0  0  0  0  0  0  0  0  0  0  0  0
   39.8800   23.5780   29.7040 H   0  0  0  0  0  0  0  0  0  0  0  0
   38.4800   23.5350   28.5730 H   0  0  0  0  0  0  0  0  0  0  0  0
   37.3460   25.2160   30.0810 H   0  0  0  0  0  0  0  0  0  0  0  0
   35.0200   24.8710   31.0100 Br  0  0  0  0  0  0  0  0  0  0  0  0
   36.0840   23.3070   31.3610 C   0  0  0  0  0  0  0  0  0  0  0  0
   37.4540   23.3090   31.0750 C   0  0  0  0  0  0  0  0  0  0  0  0
   38.0940   22.1300   31.3720 C   0  0  0  0  0  0  0  0  0  0  0  0
   39.1380   22.0210   31.1880 H   0  0  0  0  0  0  0  0  0  0  0  0
   37.4780   21.0060   31.9120 C   0  0  0  0  0  0  0  0  0  0  0  0
   38.0410   20.0990   32.1260 H   0  0  0  0  0  0  0  0  0  0  0  0
   36.1250   21.0660   32.1720 C   0  0  0  0  0  3  0  0  0  0  0  0
   35.4130   22.2110   31.9010 C   0  0  0  0  0  3  0  0  0  0  0  0
   38.4140   24.4210   36.1940 C   0  0  0  0  0  0  0  0  0  0  0  0
   37.4890   23.3700   36.2060 F   0  0  0  0  0  0  0  0  0  0  0  0
   39.6990   24.0130   36.1810 F   0  0  0  0  0  0  0  0  0  0  0  0
   38.1150   25.1920   37.3100 F   0  0  0  0  0  0  0  0  0  0  0  0
  1  2  1  0  0  0  0
  1 32  1  0  0  0  0
  2 13  1  0  0  0  0
  3 14  1  0  0  0  0
  3  2  2  0  0  0  0
  4  3  1  0  0  0  0
  5  4  2  0  0  0  0
  5  6  1  0  0  0  0
  6  1  2  0  0  0  0
  7  5  1  0  0  0  0
  8 16  1  0  0  0  0
  8  7  1  0  0  0  0
  8 15  1  0  0  0  0
  9 17  1  0  0  0  0
  9  8  1  0  0  0  0
 10 11  1  0  0  0  0
 10  9  1  0  0  0  0
 11 20  1  0  0  0  0
 11 12  1  0  0  0  0
 12 22  1  6  0  0  0
 12 25  1  0  0  0  0
 12  7  1  0  0  0  0
 18  9  1  0  0  0  0
 19 10  1  0  0  0  0
 21 11  1  0  0  0  0
 23 24  1  0  0  0  0
 24 31  1  0  0  0  0
 25 24  2  0  0  0  0
 25 26  1  0  0  0  0
 26 28  2  0  0  0  0
 27 26  1  0  0  0  0
 28 29  1  0  0  0  0
 28 30  1  0  0  0  0
 31 30  2  0  0  0  0
 32 33  1  0  0  0  0
 32 35  1  0  0  0  0
 34 32  1  0  0  0  0
M  END
>  <minimizedAffinity>
-5.59360552

$$$$

 OpenBabel03272505353D

 35 37  0  0  1  0  0  0  0  0999 V2000
   37.2980   25.9960   33.3970 C   0  0  0  0  0  0  0  0  0  0  0  0
   37.5390   27.2990   33.8030 C   0  0  0  0  0  0  0  0  0  0  0  0
   38.2060   27.5060   35.0220 C   0  0  0  0  0  0  0  0  0  0  0  0
   38.5780   26.3920   35.7380 N   0  0  0  0  0  0  0  0  0  0  0  0
   38.3240   25.1460   35.3070 C   0  0  0  0  0  0  0  0  0  0  0  0
   37.6970   24.9750   34.1580 N   0  0  0  0  0  0  0  0  0  0  0  0
   38.7520   24.0720   36.1200 N   0  0  0  0  0  0  0  0  0  0  0  0
   37.8420   23.5470   37.1390 C   0  0  0  0  0  0  0  0  0  0  0  0
   38.5590   23.2840   38.4450 C   0  0  0  0  0  0  0  0  0  0  0  0
   39.8120   22.5970   38.2540 N   0  0  0  0  0  0  0  0  0  0  0  0
   40.0910   22.2600   36.9030 C   0  0  0  0  0  0  0  0  0  0  0  0
   40.0610   23.4660   35.9950 C   0  0  1  0  0  0  0  0  0  0  0  0
   37.2540   28.1680   33.2520 H   0  0  0  0  0  0  0  0  0  0  0  0
   38.4250   28.4880   35.3960 H   0  0  0  0  0  0  0  0  0  0  0  0
   36.9980   24.2280   37.3390 H   0  0  0  0  0  0  0  0  0  0  0  0
   37.3940   22.5950   36.7380 H   0  0  0  0  0  0  0  0  0  0  0  0
   38.7990   24.2870   38.8660 H   0  0  0  0  0  0  0  0  0  0  0  0
   37.8420   22.7540   39.0870 H   0  0  0  0  0  0  0  0  0  0  0  0
   39.9630   21.7940   38.8750 H   0  0  0  0  0  0  0  0  0  0  0  0
   39.2740   21.5530   36.5760 H   0  0  0  0  0  0  0  0  0  0  0  0
   41.0430   21.7210   36.8630 H   0  0  0  0  0  0  0  0  0  0  0  0
   40.7600   24.2060   36.4950 H   0  0  0  0  0  0  0  0  0  0  0  0
   42.1540   25.5160   34.8410 Br  0  0  0  0  0  0  0  0  0  0  0  0
   41.4160   23.9690   33.9680 C   0  0  0  0  0  0  0  0  0  0  0  0
   40.4850   23.1620   34.6310 C   0  0  0  0  0  0  0  0  0  0  0  0
   40.0400   22.0920   33.8950 C   0  0  0  0  0  0  0  0  0  0  0  0
   39.3330   21.4080   34.3070 H   0  0  0  0  0  0  0  0  0  0  0  0
   40.4470   21.7940   32.5980 C   0  0  0  0  0  0  0  0  0  0  0  0
   40.0570   20.9290   32.0660 H   0  0  0  0  0  0  0  0  0  0  0  0
   41.3670   22.6280   31.9970 C   0  0  0  0  0  3  0  0  0  0  0  0
   41.8620   23.7210   32.6700 C   0  0  0  0  0  3  0  0  0  0  0  0
   36.5900   25.7660   32.1000 C   0  0  0  0  0  0  0  0  0  0  0  0
   37.5060   25.8880   31.0480 F   0  0  0  0  0  0  0  0  0  0  0  0
   35.9780   24.5660   32.1510 F   0  0  0  0  0  0  0  0  0  0  0  0
   35.6910   26.8120   31.9330 F   0  0  0  0  0  0  0  0  0  0  0  0
  1  2  2  0  0  0  0
  1  6  1  0  0  0  0
  2  3  1  0  0  0  0
  3 14  1  0  0  0  0
  3  4  2  0  0  0  0
  5  4  1  0  0  0  0
  5  7  1  0  0  0  0
  6  5  2  0  0  0  0
  7  8  1  0  0  0  0
  8 15  1  0  0  0  0
  8  9  1  0  0  0  0
  9 17  1  0  0  0  0
  9 18  1  0  0  0  0
 10  9  1  0  0  0  0
 10 19  1  0  0  0  0
 11 10  1  0  0  0  0
 12  7  1  0  0  0  0
 12 22  1  1  0  0  0
 12 11  1  0  0  0  0
 13  2  1  0  0  0  0
 16  8  1  0  0  0  0
 20 11  1  0  0  0  0
 21 11  1  0  0  0  0
 24 25  1  0  0  0  0
 24 23  1  0  0  0  0
 25 12  1  0  0  0  0
 26 27  1  0  0  0  0
 26 25  2  0  0  0  0
 28 26  1  0  0  0  0
 29 28  1  0  0  0  0
 30 28  2  0  0  0  0
 30 31  1  0  0  0  0
 31 24  2  0  0  0  0
 32 34  1  0  0  0  0
 32  1  1  0  0  0  0
 33 32  1  0  0  0  0
 35 32  1  0  0  0  0
M  END
>  <minimizedAffinity>
-5.52323294

$$$$

 OpenBabel03272505353D

 35 37  0  0  1  0  0  0  0  0999 V2000
   37.8900   25.5750   35.0650 C   0  0  0  0  0  0  0  0  0  0  0  0
   37.1440   26.7420   35.0560 C   0  0  0  0  0  0  0  0  0  0  0  0
   36.8840   27.3590   33.8210 C   0  0  0  0  0  0  0  0  0  0  0  0
   37.3920   26.7580   32.6930 N   0  0  0  0  0  0  0  0  0  0  0  0
   38.1110   25.6260   32.7470 C   0  0  0  0  0  0  0  0  0  0  0  0
   38.3430   25.0630   33.9180 N   0  0  0  0  0  0  0  0  0  0  0  0
   38.5840   25.0920   31.5270 N   0  0  0  0  0  0  0  0  0  0  0  0
   39.8970   25.5070   31.0320 C   0  0  0  0  0  0  0  0  0  0  0  0
   39.8700   25.7870   29.5450 C   0  0  0  0  0  0  0  0  0  0  0  0
   39.1740   24.7620   28.8080 N   0  0  0  0  0  0  0  0  0  0  0  0
   38.7090   23.6830   29.6060 C   0  0  0  0  0  0  0  0  0  0  0  0
   37.8220   24.1490   30.7350 C   0  0  1  0  0  0  0  0  0  0  0  0
   36.7460   27.2140   35.9270 H   0  0  0  0  0  0  0  0  0  0  0  0
   36.3130   28.2650   33.7410 H   0  0  0  0  0  0  0  0  0  0  0  0
   40.2740   26.4070   31.5460 H   0  0  0  0  0  0  0  0  0  0  0  0
   40.6250   24.6800   31.2630 H   0  0  0  0  0  0  0  0  0  0  0  0
   39.2860   26.7270   29.4250 H   0  0  0  0  0  0  0  0  0  0  0  0
   40.9140   25.9360   29.2420 H   0  0  0  0  0  0  0  0  0  0  0  0
   39.6660   24.4220   27.9740 H   0  0  0  0  0  0  0  0  0  0  0  0
   39.6260   23.2020   30.0550 H   0  0  0  0  0  0  0  0  0  0  0  0
   38.2210   22.9480   28.9570 H   0  0  0  0  0  0  0  0  0  0  0  0
   37.0350   24.7850   30.2240 H   0  0  0  0  0  0  0  0  0  0  0  0
   39.9320   22.1540   31.9540 Br  0  0  0  0  0  0  0  0  0  0  0  0
   38.0150   22.0680   32.0900 C   0  0  0  0  0  0  0  0  0  0  0  0
   37.2210   23.0450   31.4780 C   0  0  0  0  0  0  0  0  0  0  0  0
   35.8700   22.8640   31.6530 C   0  0  0  0  0  0  0  0  0  0  0  0
   35.1740   23.5550   31.2340 H   0  0  0  0  0  0  0  0  0  0  0  0
   35.2930   21.8190   32.3660 C   0  0  0  0  0  0  0  0  0  0  0  0
   34.2140   21.7300   32.4690 H   0  0  0  0  0  0  0  0  0  0  0  0
   36.1290   20.8870   32.9450 C   0  0  0  0  0  3  0  0  0  0  0  0
   37.4940   20.9980   32.8160 C   0  0  0  0  0  3  0  0  0  0  0  0
   38.1700   24.9110   36.3750 C   0  0  0  0  0  0  0  0  0  0  0  0
   37.0870   24.0920   36.7180 F   0  0  0  0  0  0  0  0  0  0  0  0
   39.3410   24.2490   36.2800 F   0  0  0  0  0  0  0  0  0  0  0  0
   38.2030   25.9080   37.3410 F   0  0  0  0  0  0  0  0  0  0  0  0
  1 32  1  0  0  0  0
  2  1  1  0  0  0  0
  2 13  1  0  0  0  0
  3  2  2  0  0  0  0
  4  5  2  0  0  0  0
  4  3  1  0  0  0  0
  5  6  1  0  0  0  0
  6  1  2  0  0  0  0
  7  5  1  0  0  0  0
  8 16  1  0  0  0  0
  8  7  1  0  0  0  0
  8 15  1  0  0  0  0
  9  8  1  0  0  0  0
 10  9  1  0  0  0  0
 10 11  1  0  0  0  0
 11 20  1  0  0  0  0
 11 12  1  0  0  0  0
 12 22  1  6  0  0  0
 12 25  1  0  0  0  0
 12  7  1  0  0  0  0
 14  3  1  0  0  0  0
 17  9  1  0  0  0  0
 18  9  1  0  0  0  0
 19 10  1  0  0  0  0
 21 11  1  0  0  0  0
 23 24  1  0  0  0  0
 24 31  1  0  0  0  0
 25 26  1  0  0  0  0
 25 24  2  0  0  0  0
 26 28  2  0  0  0  0
 27 26  1  0  0  0  0
 28 29  1  0  0  0  0
 28 30  1  0  0  0  0
 31 30  2  0  0  0  0
 32 33  1  0  0  0  0
 32 35  1  0  0  0  0
 34 32  1  0  0  0  0
M  END
>  <minimizedAffinity>
-5.52274275

$$$$

 OpenBabel03272505353D

 35 37  0  0  1  0  0  0  0  0999 V2000
   37.1770   21.3170   33.0910 C   0  0  0  0  0  0  0  0  0  0  0  0
   37.9570   20.4120   32.3890 C   0  0  0  0  0  0  0  0  0  0  0  0
   39.1930   20.8470   31.8830 C   0  0  0  0  0  0  0  0  0  0  0  0
   39.5490   22.1540   32.1180 N   0  0  0  0  0  0  0  0  0  0  0  0
   38.7630   22.9990   32.8040 C   0  0  0  0  0  0  0  0  0  0  0  0
   37.6050   22.5690   33.2710 N   0  0  0  0  0  0  0  0  0  0  0  0
   39.2270   24.3210   32.9900 N   0  0  0  0  0  0  0  0  0  0  0  0
   38.8850   25.3400   31.9960 C   0  0  0  0  0  0  0  0  0  0  0  0
   40.0730   26.2190   31.6680 C   0  0  0  0  0  0  0  0  0  0  0  0
   40.7770   26.6510   32.8500 N   0  0  0  0  0  0  0  0  0  0  0  0
   40.1910   26.2180   34.0680 C   0  0  0  0  0  0  0  0  0  0  0  0
   40.0330   24.7170   34.1250 C   0  0  1  0  0  0  0  0  0  0  0  0
   37.6870   19.3960   32.2030 H   0  0  0  0  0  0  0  0  0  0  0  0
   39.8470   20.1990   31.3310 H   0  0  0  0  0  0  0  0  0  0  0  0
   38.5120   24.9010   31.0570 H   0  0  0  0  0  0  0  0  0  0  0  0
   38.0430   25.9570   32.4160 H   0  0  0  0  0  0  0  0  0  0  0  0
   40.7740   25.5760   31.0890 H   0  0  0  0  0  0  0  0  0  0  0  0
   39.6870   27.0350   31.0440 H   0  0  0  0  0  0  0  0  0  0  0  0
   40.9960   27.6530   32.8790 H   0  0  0  0  0  0  0  0  0  0  0  0
   39.1630   26.6810   34.1090 H   0  0  0  0  0  0  0  0  0  0  0  0
   40.7770   26.6150   34.9040 H   0  0  0  0  0  0  0  0  0  0  0  0
   41.0680   24.3210   33.8840 H   0  0  0  0  0  0  0  0  0  0  0  0
   37.4420   26.1870   35.1450 Br  0  0  0  0  0  0  0  0  0  0  0  0
   38.4240   24.7850   36.0240 C   0  0  0  0  0  0  0  0  0  0  0  0
   39.5660   24.2430   35.4250 C   0  0  0  0  0  0  0  0  0  0  0  0
   40.1700   23.2510   36.1580 C   0  0  0  0  0  0  0  0  0  0  0  0
   41.0450   22.7640   35.7910 H   0  0  0  0  0  0  0  0  0  0  0  0
   39.7250   22.7910   37.3930 C   0  0  0  0  0  0  0  0  0  0  0  0
   40.2480   22.0000   37.9260 H   0  0  0  0  0  0  0  0  0  0  0  0
   38.5930   23.3660   37.9320 C   0  0  0  0  0  3  0  0  0  0  0  0
   37.9300   24.3660   37.2580 C   0  0  0  0  0  3  0  0  0  0  0  0
   35.8610   20.8620   33.6350 C   0  0  0  0  0  0  0  0  0  0  0  0
   35.8390   21.0690   35.0200 F   0  0  0  0  0  0  0  0  0  0  0  0
   34.8770   21.5060   32.9750 F   0  0  0  0  0  0  0  0  0  0  0  0
   35.8000   19.4850   33.4630 F   0  0  0  0  0  0  0  0  0  0  0  0
  1  6  1  0  0  0  0
  1 32  1  0  0  0  0
  2  1  2  0  0  0  0
  3  4  2  0  0  0  0
  3  2  1  0  0  0  0
  4  5  1  0  0  0  0
  5  7  1  0  0  0  0
  5  6  2  0  0  0  0
  7 12  1  0  0  0  0
  8 16  1  0  0  0  0
  8  7  1  0  0  0  0
  9  8  1  0  0  0  0
  9 10  1  0  0  0  0
 10 19  1  0  0  0  0
 10 11  1  0  0  0  0
 11 20  1  0  0  0  0
 11 12  1  0  0  0  0
 11 21  1  0  0  0  0
 12 22  1  6  0  0  0
 12 25  1  0  0  0  0
 13  2  1  0  0  0  0
 14  3  1  0  0  0  0
 15  8  1  0  0  0  0
 17  9  1  0  0  0  0
 18  9  1  0  0  0  0
 23 24  1  0  0  0  0
 24 31  1  0  0  0  0
 25 24  2  0  0  0  0
 25 26  1  0  0  0  0
 26 28  2  0  0  0  0
 27 26  1  0  0  0  0
 28 29  1  0  0  0  0
 28 30  1  0  0  0  0
 31 30  2  0  0  0  0
 32 33  1  0  0  0  0
 34 32  1  0  0  0  0
 35 32  1  0  0  0  0
M  END
>  <minimizedAffinity>
-5.51245928

$$$$

 OpenBabel03272505353D

 35 37  0  0  1  0  0  0  0  0999 V2000
   38.3560   24.0710   35.6280 C   0  0  0  0  0  0  0  0  0  0  0  0
   37.7510   25.2550   36.0150 C   0  0  0  0  0  0  0  0  0  0  0  0
   37.4570   26.2090   35.0280 C   0  0  0  0  0  0  0  0  0  0  0  0
   37.7930   25.9020   33.7300 N   0  0  0  0  0  0  0  0  0  0  0  0
   38.3800   24.7410   33.3970 C   0  0  0  0  0  0  0  0  0  0  0  0
   38.6470   23.8580   34.3420 N   0  0  0  0  0  0  0  0  0  0  0  0
   38.6820   24.5270   32.0340 N   0  0  0  0  0  0  0  0  0  0  0  0
   39.9860   24.9480   31.5200 C   0  0  0  0  0  0  0  0  0  0  0  0
   39.8630   25.6290   30.1750 C   0  0  0  0  0  0  0  0  0  0  0  0
   38.9930   24.9120   29.2760 N   0  0  0  0  0  0  0  0  0  0  0  0
   38.4790   23.6990   29.8060 C   0  0  0  0  0  0  0  0  0  0  0  0
   37.7520   23.9090   31.1120 C   0  0  1  0  0  0  0  0  0  0  0  0
   37.4860   25.5000   37.0200 H   0  0  0  0  0  0  0  0  0  0  0  0
   36.9880   27.1470   35.2580 H   0  0  0  0  0  0  0  0  0  0  0  0
   40.5060   25.6340   32.2080 H   0  0  0  0  0  0  0  0  0  0  0  0
   40.6330   24.0300   31.4380 H   0  0  0  0  0  0  0  0  0  0  0  0
   39.3810   26.6130   30.3770 H   0  0  0  0  0  0  0  0  0  0  0  0
   40.8870   25.7660   29.8050 H   0  0  0  0  0  0  0  0  0  0  0  0
   39.3690   24.7750   28.3310 H   0  0  0  0  0  0  0  0  0  0  0  0
   39.3700   23.0350   30.0020 H   0  0  0  0  0  0  0  0  0  0  0  0
   37.8560   23.2170   29.0450 H   0  0  0  0  0  0  0  0  0  0  0  0
   37.0010   24.7280   30.8820 H   0  0  0  0  0  0  0  0  0  0  0  0
   39.7110   21.4710   31.4720 Br  0  0  0  0  0  0  0  0  0  0  0  0
   37.8200   21.5220   31.8180 C   0  0  0  0  0  0  0  0  0  0  0  0
   37.0950   22.6990   31.5980 C   0  0  0  0  0  0  0  0  0  0  0  0
   35.7560   22.5980   31.8850 C   0  0  0  0  0  0  0  0  0  0  0  0
   35.1110   23.4380   31.7590 H   0  0  0  0  0  0  0  0  0  0  0  0
   35.1270   21.4500   32.3550 C   0  0  0  0  0  0  0  0  0  0  0  0
   34.0590   21.4330   32.5640 H   0  0  0  0  0  0  0  0  0  0  0  0
   35.8950   20.3210   32.5510 C   0  0  0  0  0  3  0  0  0  0  0  0
   37.2450   20.3420   32.2870 C   0  0  0  0  0  3  0  0  0  0  0  0
   38.6720   23.0480   36.6730 C   0  0  0  0  0  0  0  0  0  0  0  0
   39.9570   23.2850   37.1760 F   0  0  0  0  0  0  0  0  0  0  0  0
   37.7060   23.0820   37.6130 F   0  0  0  0  0  0  0  0  0  0  0  0
   38.7440   21.8180   36.0330 F   0  0  0  0  0  0  0  0  0  0  0  0
  1  2  1  0  0  0  0
  1 32  1  0  0  0  0
  2 13  1  0  0  0  0
  3 14  1  0  0  0  0
  3  2  2  0  0  0  0
  4  3  1  0  0  0  0
  5  4  2  0  0  0  0
  5  6  1  0  0  0  0
  6  1  2  0  0  0  0
  7  5  1  0  0  0  0
  8  7  1  0  0  0  0
  8 15  1  0  0  0  0
  9 17  1  0  0  0  0
  9  8  1  0  0  0  0
 10 11  1  0  0  0  0
 10  9  1  0  0  0  0
 11 20  1  0  0  0  0
 11 12  1  0  0  0  0
 12 22  1  6  0  0  0
 12 25  1  0  0  0  0
 12  7  1  0  0  0  0
 16  8  1  0  0  0  0
 18  9  1  0  0  0  0
 19 10  1  0  0  0  0
 21 11  1  0  0  0  0
 23 24  1  0  0  0  0
 24 31  1  0  0  0  0
 25 24  2  0  0  0  0
 25 26  1  0  0  0  0
 26 28  2  0  0  0  0
 27 26  1  0  0  0  0
 28 30  1  0  0  0  0
 28 29  1  0  0  0  0
 31 30  2  0  0  0  0
 32 33  1  0  0  0  0
 32 34  1  0  0  0  0
 35 32  1  0  0  0  0
M  END
>  <minimizedAffinity>
-5.48767567

$$$$

 OpenBabel03272505353D

 35 37  0  0  1  0  0  0  0  0999 V2000
   37.4280   22.7760   32.9550 C   0  0  0  0  0  0  0  0  0  0  0  0
   37.2680   21.9460   34.0520 C   0  0  0  0  0  0  0  0  0  0  0  0
   38.1420   22.1020   35.1410 C   0  0  0  0  0  0  0  0  0  0  0  0
   39.1070   23.0760   35.0440 N   0  0  0  0  0  0  0  0  0  0  0  0
   39.2280   23.8600   33.9600 C   0  0  0  0  0  0  0  0  0  0  0  0
   38.3950   23.6970   32.9490 N   0  0  0  0  0  0  0  0  0  0  0  0
   40.2540   24.8320   33.9660 N   0  0  0  0  0  0  0  0  0  0  0  0
   41.5730   24.4750   33.4410 C   0  0  0  0  0  0  0  0  0  0  0  0
   42.6840   24.9950   34.3260 C   0  0  0  0  0  0  0  0  0  0  0  0
   42.4740   26.3660   34.7220 N   0  0  0  0  0  0  0  0  0  0  0  0
   41.3120   26.9610   34.1640 C   0  0  0  0  0  0  0  0  0  0  0  0
   40.0610   26.1740   34.4750 C   0  0  1  0  0  0  0  0  0  0  0  0
   36.5210   21.1880   34.1340 H   0  0  0  0  0  0  0  0  0  0  0  0
   38.0740   21.4930   36.0220 H   0  0  0  0  0  0  0  0  0  0  0  0
   41.7000   23.3850   33.3330 H   0  0  0  0  0  0  0  0  0  0  0  0
   41.6570   24.9100   32.4070 H   0  0  0  0  0  0  0  0  0  0  0  0
   42.6460   24.3800   35.2540 H   0  0  0  0  0  0  0  0  0  0  0  0
   43.6200   24.8180   33.7800 H   0  0  0  0  0  0  0  0  0  0  0  0
   43.2920   26.9760   34.6140 H   0  0  0  0  0  0  0  0  0  0  0  0
   41.4590   26.9590   33.0450 H   0  0  0  0  0  0  0  0  0  0  0  0
   41.2530   28.0020   34.4980 H   0  0  0  0  0  0  0  0  0  0  0  0
   40.0850   26.0510   35.6020 H   0  0  0  0  0  0  0  0  0  0  0  0
   40.0280   26.8240   31.3940 Br  0  0  0  0  0  0  0  0  0  0  0  0
   38.6600   27.2030   32.6920 C   0  0  0  0  0  0  0  0  0  0  0  0
   38.8420   26.8450   34.0330 C   0  0  0  0  0  0  0  0  0  0  0  0
   37.7890   27.1730   34.8520 C   0  0  0  0  0  0  0  0  0  0  0  0
   37.8210   26.9390   35.8920 H   0  0  0  0  0  0  0  0  0  0  0  0
   36.6230   27.8050   34.4350 C   0  0  0  0  0  0  0  0  0  0  0  0
   35.8230   28.0390   35.1340 H   0  0  0  0  0  0  0  0  0  0  0  0
   36.5030   28.1340   33.1000 C   0  0  0  0  0  3  0  0  0  0  0  0
   37.5140   27.8380   32.2150 C   0  0  0  0  0  3  0  0  0  0  0  0
   36.5020   22.6190   31.7910 C   0  0  0  0  0  0  0  0  0  0  0  0
   36.2810   23.8710   31.2050 F   0  0  0  0  0  0  0  0  0  0  0  0
   37.0240   21.7080   30.9450 F   0  0  0  0  0  0  0  0  0  0  0  0
   35.2710   22.2240   32.2990 F   0  0  0  0  0  0  0  0  0  0  0  0
  1  2  1  0  0  0  0
  2 13  1  0  0  0  0
  2  3  2  0  0  0  0
  3 14  1  0  0  0  0
  4  3  1  0  0  0  0
  5  7  1  0  0  0  0
  5  4  2  0  0  0  0
  6  1  2  0  0  0  0
  6  5  1  0  0  0  0
  7 12  1  0  0  0  0
  8  7  1  0  0  0  0
  8  9  1  0  0  0  0
  9 10  1  0  0  0  0
  9 17  1  0  0  0  0
 11 12  1  0  0  0  0
 11 21  1  0  0  0  0
 11 10  1  0  0  0  0
 12 22  1  1  0  0  0
 15  8  1  0  0  0  0
 16  8  1  0  0  0  0
 18  9  1  0  0  0  0
 19 10  1  0  0  0  0
 20 11  1  0  0  0  0
 23 24  1  0  0  0  0
 24 25  1  0  0  0  0
 25 12  1  0  0  0  0
 25 26  2  0  0  0  0
 26 27  1  0  0  0  0
 28 26  1  0  0  0  0
 28 29  1  0  0  0  0
 30 28  2  0  0  0  0
 31 24  2  0  0  0  0
 31 30  1  0  0  0  0
 32 35  1  0  0  0  0
 32  1  1  0  0  0  0
 33 32  1  0  0  0  0
 34 32  1  0  0  0  0
M  END
>  <minimizedAffinity>
-5.48090458

$$$$

 OpenBabel03272505353D

 35 37  0  0  1  0  0  0  0  0999 V2000
   37.0780   23.3020   32.1890 C   0  0  0  0  0  0  0  0  0  0  0  0
   36.2220   22.2770   32.5560 C   0  0  0  0  0  0  0  0  0  0  0  0
   36.6660   21.3430   33.5060 C   0  0  0  0  0  0  0  0  0  0  0  0
   37.9330   21.5090   34.0130 N   0  0  0  0  0  0  0  0  0  0  0  0
   38.7320   22.5180   33.6300 C   0  0  0  0  0  0  0  0  0  0  0  0
   38.2940   23.3850   32.7350 N   0  0  0  0  0  0  0  0  0  0  0  0
   40.0160   22.5960   34.2160 N   0  0  0  0  0  0  0  0  0  0  0  0
   41.1350   21.9090   33.5690 C   0  0  0  0  0  0  0  0  0  0  0  0
   42.0050   21.1910   34.5780 C   0  0  0  0  0  0  0  0  0  0  0  0
   42.3010   22.0090   35.7270 N   0  0  0  0  0  0  0  0  0  0  0  0
   41.7710   23.3240   35.6580 C   0  0  0  0  0  0  0  0  0  0  0  0
   40.2770   23.3280   35.4370 C   0  0  1  0  0  0  0  0  0  0  0  0
   35.2370   22.1420   32.1670 H   0  0  0  0  0  0  0  0  0  0  0  0
   36.0540   20.5250   33.8360 H   0  0  0  0  0  0  0  0  0  0  0  0
   40.7980   21.1750   32.8190 H   0  0  0  0  0  0  0  0  0  0  0  0
   41.7340   22.6820   33.0130 H   0  0  0  0  0  0  0  0  0  0  0  0
   41.4000   20.3280   34.9390 H   0  0  0  0  0  0  0  0  0  0  0  0
   42.8880   20.8420   34.0270 H   0  0  0  0  0  0  0  0  0  0  0  0
   43.2880   22.0200   36.0050 H   0  0  0  0  0  0  0  0  0  0  0  0
   42.2590   23.8170   34.7680 H   0  0  0  0  0  0  0  0  0  0  0  0
   42.0690   23.8730   36.5570 H   0  0  0  0  0  0  0  0  0  0  0  0
   39.8750   22.6550   36.2570 H   0  0  0  0  0  0  0  0  0  0  0  0
   37.7740   23.5150   37.3380 Br  0  0  0  0  0  0  0  0  0  0  0  0
   38.5790   24.9270   36.3090 C   0  0  0  0  0  0  0  0  0  0  0  0
   39.6950   24.6650   35.5070 C   0  0  0  0  0  0  0  0  0  0  0  0
   40.1700   25.7600   34.8270 C   0  0  0  0  0  0  0  0  0  0  0  0
   41.0220   25.6740   34.1910 H   0  0  0  0  0  0  0  0  0  0  0  0
   39.6240   27.0380   34.8960 C   0  0  0  0  0  0  0  0  0  0  0  0
   40.0470   27.8660   34.3320 H   0  0  0  0  0  0  0  0  0  0  0  0
   38.5240   27.2330   35.7040 C   0  0  0  0  0  3  0  0  0  0  0  0
   37.9890   26.1850   36.4190 C   0  0  0  0  0  3  0  0  0  0  0  0
   36.6130   24.3020   31.1790 C   0  0  0  0  0  0  0  0  0  0  0  0
   35.3090   23.9830   30.7830 F   0  0  0  0  0  0  0  0  0  0  0  0
   36.7330   25.5360   31.7090 F   0  0  0  0  0  0  0  0  0  0  0  0
   37.3980   24.1340   30.0450 F   0  0  0  0  0  0  0  0  0  0  0  0
  1  2  2  0  0  0  0
  1  6  1  0  0  0  0
  2  3  1  0  0  0  0
  3 14  1  0  0  0  0
  3  4  2  0  0  0  0
  5  4  1  0  0  0  0
  5  7  1  0  0  0  0
  6  5  2  0  0  0  0
  7 12  1  0  0  0  0
  8  7  1  0  0  0  0
  8  9  1  0  0  0  0
  9 17  1  0  0  0  0
  9 10  1  0  0  0  0
 10 19  1  0  0  0  0
 11 10  1  0  0  0  0
 11 21  1  0  0  0  0
 12 25  1  0  0  0  0
 12 11  1  0  0  0  0
 12 22  1  1  0  0  0
 13  2  1  0  0  0  0
 15  8  1  0  0  0  0
 16  8  1  0  0  0  0
 18  9  1  0  0  0  0
 20 11  1  0  0  0  0
 24 31  1  0  0  0  0
 24 23  1  0  0  0  0
 25 24  2  0  0  0  0
 26 28  2  0  0  0  0
 26 25  1  0  0  0  0
 27 26  1  0  0  0  0
 28 30  1  0  0  0  0
 29 28  1  0  0  0  0
 30 31  2  0  0  0  0
 32 34  1  0  0  0  0
 32  1  1  0  0  0  0
 33 32  1  0  0  0  0
 35 32  1  0  0  0  0
M  END
>  <minimizedAffinity>
-5.44309092

$$$$
