
 OpenBabel03272510163D

 28 30  0  0  0  0  0  0  0  0999 V2000
   36.8210   29.7810   51.2440 Br  0  0  0  0  0  0  0  0  0  0  0  0
   35.8430   29.2960   49.6830 C   0  0  0  0  0  0  0  0  0  0  0  0
   36.0960   29.8990   48.4690 C   0  0  0  0  0  0  0  0  0  0  0  0
   35.3520   29.5060   47.3630 C   0  0  0  0  0  0  0  0  0  0  0  0
   34.3670   28.5280   47.4570 C   0  0  0  0  0  0  0  0  0  0  0  0
   34.1360   27.9470   48.6740 C   0  0  0  0  0  0  0  0  0  0  0  0
   34.8710   28.3320   49.7740 C   0  0  0  0  0  0  0  0  0  0  0  0
   35.5990   30.0150   46.4410 H   0  0  0  0  0  0  0  0  0  0  0  0
   33.3630   27.1900   48.7160 H   0  0  0  0  0  0  0  0  0  0  0  0
   34.6710   27.8600   50.7270 H   0  0  0  0  0  0  0  0  0  0  0  0
   37.9750   32.9510   49.1440 C   0  0  0  0  0  0  0  0  0  0  0  0
   39.0310   32.9220   48.1830 C   0  0  0  0  0  0  0  0  0  0  0  0
   39.0660   31.8330   47.3140 C   0  0  0  0  0  0  0  0  0  0  0  0
   38.1090   30.8570   47.4160 N   0  0  0  0  0  0  0  0  0  0  0  0
   37.1300   30.9320   48.3440 C   0  0  0  0  0  0  0  0  0  0  0  0
   37.0590   31.9780   49.2120 N   0  0  0  0  0  0  0  0  0  0  0  0
   37.8960   33.7620   49.8380 H   0  0  0  0  0  0  0  0  0  0  0  0
   39.7430   33.7270   48.1670 H   0  0  0  0  0  0  0  0  0  0  0  0
   39.8520   31.7770   46.5720 H   0  0  0  0  0  0  0  0  0  0  0  0
   32.6200   30.8370   46.2280 Br  0  0  0  0  0  0  0  0  0  0  0  0
   32.8620   29.0960   45.5120 C   0  0  0  0  0  0  0  0  0  0  0  0
   33.6730   28.2270   46.2100 C   0  0  0  0  0  0  0  0  0  0  0  0
   33.8450   26.9460   45.6760 C   0  0  0  0  0  0  0  0  0  0  0  0
   34.4490   26.1610   46.1100 H   0  0  0  0  0  0  0  0  0  0  0  0
   33.2060   26.5960   44.4820 C   0  0  0  0  0  0  0  0  0  0  0  0
   33.3160   25.6040   44.0310 H   0  0  0  0  0  0  0  0  0  0  0  0
   32.4020   27.4880   43.8090 C   0  0  0  0  0  3  0  0  0  0  0  0
   32.2360   28.7490   44.3410 C   0  0  0  0  0  3  0  0  0  0  0  0
  2  7  1  0  0  0  0
  2  1  1  0  0  0  0
  3  2  2  0  0  0  0
  4  5  2  0  0  0  0
  4  3  1  0  0  0  0
  5  6  1  0  0  0  0
  6  9  1  0  0  0  0
  6  7  2  0  0  0  0
  7 10  1  0  0  0  0
  8  4  1  0  0  0  0
 11 16  1  0  0  0  0
 11 17  1  0  0  0  0
 12 11  2  0  0  0  0
 13 14  2  0  0  0  0
 13 12  1  0  0  0  0
 14 15  1  0  0  0  0
 15  3  1  0  0  0  0
 15 16  2  0  0  0  0
 18 12  1  0  0  0  0
 19 13  1  0  0  0  0
 21 22  1  0  0  0  0
 21 20  1  0  0  0  0
 22  5  1  0  0  0  0
 23 24  1  0  0  0  0
 23 22  2  0  0  0  0
 25 23  1  0  0  0  0
 26 25  1  0  0  0  0
 27 28  1  0  0  0  0
 27 25  2  0  0  0  0
 28 21  2  0  0  0  0
M  END
>  <minimizedAffinity>
-5.60570717

>  <minimizedRMSD>
1.07562327

$$$$
