
 OpenBabel03272510173D

 28 30  0  0  0  0  0  0  0  0999 V2000
   37.3160   29.3520   51.0980 Br  0  0  0  0  0  0  0  0  0  0  0  0
   35.9810   29.3050   49.7400 C   0  0  0  0  0  0  0  0  0  0  0  0
   36.0020   30.1980   48.6900 C   0  0  0  0  0  0  0  0  0  0  0  0
   35.0030   30.1170   47.7270 C   0  0  0  0  0  0  0  0  0  0  0  0
   33.9940   29.1630   47.8020 C   0  0  0  0  0  0  0  0  0  0  0  0
   33.9970   28.2880   48.8550 C   0  0  0  0  0  0  0  0  0  0  0  0
   34.9850   28.3630   49.8120 C   0  0  0  0  0  0  0  0  0  0  0  0
   35.0750   30.8450   46.9300 H   0  0  0  0  0  0  0  0  0  0  0  0
   33.1980   27.5580   48.8850 H   0  0  0  0  0  0  0  0  0  0  0  0
   34.9680   27.6620   50.6360 H   0  0  0  0  0  0  0  0  0  0  0  0
   37.9540   33.1830   49.4500 C   0  0  0  0  0  0  0  0  0  0  0  0
   38.9960   33.1690   48.4740 C   0  0  0  0  0  0  0  0  0  0  0  0
   38.9960   32.1120   47.5650 C   0  0  0  0  0  0  0  0  0  0  0  0
   38.0200   31.1530   47.6450 N   0  0  0  0  0  0  0  0  0  0  0  0
   37.0550   31.2140   48.5880 C   0  0  0  0  0  0  0  0  0  0  0  0
   37.0180   32.2280   49.4950 N   0  0  0  0  0  0  0  0  0  0  0  0
   37.9010   33.9690   50.1750 H   0  0  0  0  0  0  0  0  0  0  0  0
   39.7250   33.9580   48.4770 H   0  0  0  0  0  0  0  0  0  0  0  0
   39.7710   32.0680   46.8100 H   0  0  0  0  0  0  0  0  0  0  0  0
   31.3000   27.6070   48.2700 Br  0  0  0  0  0  0  0  0  0  0  0  0
   31.7840   28.5940   46.7230 C   0  0  0  0  0  0  0  0  0  0  0  0
   33.0190   29.2060   46.7170 C   0  0  0  0  0  0  0  0  0  0  0  0
   33.3680   29.9300   45.5730 C   0  0  0  0  0  0  0  0  0  0  0  0
   34.2970   30.4610   45.4250 H   0  0  0  0  0  0  0  0  0  0  0  0
   32.4760   30.0090   44.4990 C   0  0  0  0  0  0  0  0  0  0  0  0
   32.7110   30.5660   43.5850 H   0  0  0  0  0  0  0  0  0  0  0  0
   31.2490   29.3850   44.5350 C   0  0  0  0  0  3  0  0  0  0  0  0
   30.9110   28.6730   45.6670 C   0  0  0  0  0  3  0  0  0  0  0  0
  2  7  1  0  0  0  0
  2  1  1  0  0  0  0
  3  2  2  0  0  0  0
  4  5  2  0  0  0  0
  4  3  1  0  0  0  0
  5  6  1  0  0  0  0
  6  9  1  0  0  0  0
  6  7  2  0  0  0  0
  7 10  1  0  0  0  0
  8  4  1  0  0  0  0
 11 16  1  0  0  0  0
 11 17  1  0  0  0  0
 12 18  1  0  0  0  0
 12 11  2  0  0  0  0
 13 14  2  0  0  0  0
 13 12  1  0  0  0  0
 14 15  1  0  0  0  0
 15  3  1  0  0  0  0
 15 16  2  0  0  0  0
 19 13  1  0  0  0  0
 21 20  1  0  0  0  0
 22 21  1  0  0  0  0
 22  5  1  0  0  0  0
 23 22  2  0  0  0  0
 24 23  1  0  0  0  0
 25 27  2  0  0  0  0
 25 23  1  0  0  0  0
 26 25  1  0  0  0  0
 27 28  1  0  0  0  0
 28 21  2  0  0  0  0
M  END
>  <minimizedAffinity>
-6.16828585

>  <minimizedRMSD>
0.227000043

$$$$
