
 OpenBabel03272506093D

 44 47  0  0  0  0  0  0  0  0999 V2000
   34.1920   28.1830   49.0100 C   0  0  0  0  0  0  0  0  0  0  0  0
   35.0190   28.2050   48.2770 H   0  0  0  0  0  0  0  0  0  0  0  0
   34.3320   27.2000   49.5490 H   0  0  0  0  0  0  0  0  0  0  0  0
   32.8800   28.1380   48.2680 C   0  0  0  0  0  0  0  0  0  0  0  0
   32.8470   28.5250   46.8800 C   0  0  0  0  0  0  0  0  0  0  0  0
   31.1350   28.3010   46.5090 S   0  0  0  0  0  0  0  0  0  0  0  0
   30.6750   27.7260   48.2280 C   0  0  0  0  0  0  0  0  0  0  0  0
   31.7360   27.7780   48.7650 N   0  0  0  0  0  0  0  0  0  0  0  0
   29.4080   27.3120   48.8290 N   0  0  0  0  0  0  0  0  0  0  0  0
   28.4580   26.7410   47.9180 C   0  0  0  0  0  0  0  0  0  0  0  0
   27.0550   26.7290   48.4480 C   0  0  0  0  0  0  0  0  0  0  0  0
   26.8830   27.4630   49.6930 N   0  0  0  0  0  0  0  0  0  0  0  0
   27.8720   26.8870   50.6090 C   0  0  0  0  0  0  0  0  0  0  0  0
   29.1950   27.4940   50.2380 C   0  0  0  0  0  0  0  0  0  0  0  0
   33.6630   28.8480   46.2940 H   0  0  0  0  0  0  0  0  0  0  0  0
   28.7160   25.7050   47.6130 H   0  0  0  0  0  0  0  0  0  0  0  0
   28.4570   27.3640   46.9950 H   0  0  0  0  0  0  0  0  0  0  0  0
   26.7060   25.6900   48.6480 H   0  0  0  0  0  0  0  0  0  0  0  0
   26.3300   27.1690   47.7280 H   0  0  0  0  0  0  0  0  0  0  0  0
   27.1470   28.4570   49.5090 H   0  0  0  0  0  0  0  0  0  0  0  0
   27.6190   27.1310   51.6630 H   0  0  0  0  0  0  0  0  0  0  0  0
   27.8880   25.8090   50.4480 H   0  0  0  0  0  0  0  0  0  0  0  0
   29.9790   26.9900   50.8500 H   0  0  0  0  0  0  0  0  0  0  0  0
   29.1980   28.5750   50.4580 H   0  0  0  0  0  0  0  0  0  0  0  0
   34.2080   29.2460   50.0260 C   0  0  0  0  0  0  0  0  0  0  0  0
   33.7780   28.9470   51.0030 H   0  0  0  0  0  0  0  0  0  0  0  0
   33.6330   30.1340   49.6780 H   0  0  0  0  0  0  0  0  0  0  0  0
   37.4400   30.0140   51.6720 C   0  0  0  0  0  0  0  0  0  0  0  0
   38.1790   30.5710   50.6420 C   0  0  0  0  0  0  0  0  0  0  0  0
   37.5880   30.6920   49.3880 C   0  0  0  0  0  0  0  0  0  0  0  0
   36.3070   30.2450   49.2610 N   0  0  0  0  0  0  0  0  0  0  0  0
   35.6250   29.7100   50.2920 C   0  0  0  0  0  0  0  0  0  0  0  0
   36.1940   29.6010   51.4760 N   0  0  0  0  0  0  0  0  0  0  0  0
   37.9120   29.9310   52.6310 H   0  0  0  0  0  0  0  0  0  0  0  0
   39.1610   30.8720   50.8060 H   0  0  0  0  0  0  0  0  0  0  0  0
   38.9500   33.6590   49.3650 Br  0  0  0  0  0  0  0  0  0  0  0  0
   38.8170   32.4070   47.9480 C   0  0  0  0  0  0  0  0  0  0  0  0
   38.1930   31.2120   48.1780 C   0  0  0  0  0  0  0  0  0  0  0  0
   38.1360   30.4360   47.0410 C   0  0  0  0  0  0  0  0  0  0  0  0
   37.6830   29.4580   47.0280 H   0  0  0  0  0  0  0  0  0  0  0  0
   38.6420   30.8030   45.8170 C   0  0  0  0  0  0  0  0  0  0  0  0
   38.5810   30.1700   44.9460 H   0  0  0  0  0  0  0  0  0  0  0  0
   39.2600   32.0200   45.6510 C   0  0  0  0  0  0  0  0  0  0  0  0
   39.3380   32.8290   46.7630 C   0  0  0  0  0  0  0  0  0  0  0  0
  1  3  1  0  0  0  0
  1 25  1  0  0  0  0
  2  1  1  0  0  0  0
  4  8  1  0  0  0  0
  4  1  1  0  0  0  0
  5  4  2  0  0  0  0
  6  5  1  0  0  0  0
  6  7  1  0  0  0  0
  7  8  2  0  0  0  0
  7  9  1  0  0  0  0
  9 14  1  0  0  0  0
 10 11  1  0  0  0  0
 10  9  1  0  0  0  0
 11 18  1  0  0  0  0
 11 12  1  0  0  0  0
 12 13  1  0  0  0  0
 13 21  1  0  0  0  0
 14 24  1  0  0  0  0
 14 13  1  0  0  0  0
 14 23  1  0  0  0  0
 15  5  1  0  0  0  0
 16 10  1  0  0  0  0
 17 10  1  0  0  0  0
 19 11  1  0  0  0  0
 20 12  1  0  0  0  0
 22 13  1  0  0  0  0
 25 32  1  0  0  0  0
 25 26  1  0  0  0  0
 27 25  1  0  0  0  0
 28 34  1  0  0  0  0
 29 35  1  0  0  0  0
 29 28  2  0  0  0  0
 30 29  1  0  0  0  0
 31 30  2  0  0  0  0
 31 32  1  0  0  0  0
 32 33  2  0  0  0  0
 33 28  1  0  0  0  0
 37 38  1  0  0  0  0
 37 36  1  0  0  0  0
 38 30  1  0  0  0  0
 39 38  2  0  0  0  0
 40 39  1  0  0  0  0
 41 39  1  0  0  0  0
 42 41  1  0  0  0  0
 43 41  2  0  0  0  0
 43 44  1  0  0  0  0
 44 37  2  0  0  0  0
M  END
>  <minimizedAffinity>
-7.94840527

>  <minimizedRMSD>
2.08439684

$$$$
