
 OpenBabel03272502363D

 36 38  0  0  1  0  0  0  0  0999 V2000
   37.6300   26.5740   32.5900 C   0  0  0  0  0  3  0  0  0  0  0  0
   37.2350   25.6360   33.3910 C   0  0  0  0  0  3  0  0  0  0  0  0
   36.1120   29.6010   31.0350 C   0  0  0  0  0  0  0  0  0  0  0  0
   36.7730   28.4030   31.2210 C   0  0  0  0  0  0  0  0  0  0  0  0
   36.9150   27.8190   32.4540 C   0  0  0  0  0  0  0  0  0  0  0  0
   36.3670   28.4840   33.4900 N   0  0  0  0  0  0  0  0  0  0  0  0
   35.7240   29.6380   33.3400 C   0  0  0  0  0  0  0  0  0  0  0  0
   35.5960   30.2000   32.1050 N   0  0  0  0  0  0  0  0  0  0  0  0
   35.9830   30.0860   30.0780 H   0  0  0  0  0  0  0  0  0  0  0  0
   37.1460   28.0090   30.2960 H   0  0  0  0  0  0  0  0  0  0  0  0
   32.6160   29.2920   33.5010 Br  0  0  0  0  0  0  0  0  0  0  0  0
   33.7740   30.2690   34.6820 C   0  0  0  0  0  0  0  0  0  0  0  0
   35.1410   30.3340   34.4830 C   0  0  0  0  0  0  0  0  0  0  0  0
   35.9350   31.0530   35.3640 C   0  0  0  0  0  0  0  0  0  0  0  0
   37.0210   31.1170   35.2250 H   0  0  0  0  0  0  0  0  0  0  0  0
   35.3430   31.7070   36.4470 C   0  0  0  0  0  0  0  0  0  0  0  0
   35.9550   32.2640   37.1290 H   0  0  0  0  0  0  0  0  0  0  0  0
   33.9730   31.6630   36.6760 C   0  0  0  0  0  3  0  0  0  0  0  0
   33.2250   30.9320   35.7680 C   0  0  0  0  0  3  0  0  0  0  0  0
   38.0480   24.3750   33.4410 C   0  0  1  0  0  0  0  0  0  0  0  0
   38.9680   24.5030   32.8500 H   0  0  0  0  0  0  0  0  0  0  0  0
   38.3180   24.0220   34.8450 C   0  0  0  0  0  0  0  0  0  0  0  0
   37.8580   25.0030   35.7650 C   0  0  0  0  0  0  0  0  0  0  0  0
   37.9960   24.8900   37.1270 C   0  0  0  0  0  0  0  0  0  0  0  0
   38.6130   23.7730   37.6970 C   0  0  0  0  0  0  0  0  0  0  0  0
   39.0330   22.8640   36.7320 C   0  0  0  0  0  0  0  0  0  0  0  0
   38.9130   22.9460   35.3990 N   0  0  0  0  0  0  0  0  0  0  0  0
   37.3440   25.9610   35.5720 H   0  0  0  0  0  0  0  0  0  0  0  0
   37.6670   25.6030   37.8740 H   0  0  0  0  0  0  0  0  0  0  0  0
   38.7920   23.5420   38.7290 H   0  0  0  0  0  0  0  0  0  0  0  0
   39.5340   21.9370   37.0210 H   0  0  0  0  0  0  0  0  0  0  0  0
   37.0070   23.0340   32.7720 S   0  0  0  0  0  0  0  0  0  0  0  0
   36.1060   23.5800   31.3320 C   0  0  0  0  0  0  0  0  0  0  0  0
   35.0290   24.3970   31.6390 F   0  0  0  0  0  0  0  0  0  0  0  0
   36.9450   24.1660   30.4010 F   0  0  0  0  0  0  0  0  0  0  0  0
   35.5970   22.4160   30.7170 F   0  0  0  0  0  0  0  0  0  0  0  0
  1  2  2  0  0  0  0
  2 20  1  0  0  0  0
  3  4  2  0  0  0  0
  3  8  1  0  0  0  0
  4  5  1  0  0  0  0
  5  1  1  0  0  0  0
  5  6  2  0  0  0  0
  7  6  1  0  0  0  0
  7 13  1  0  0  0  0
  8  7  2  0  0  0  0
  9  3  1  0  0  0  0
 10  4  1  0  0  0  0
 11 12  1  0  0  0  0
 12 19  1  0  0  0  0
 13 12  2  0  0  0  0
 13 14  1  0  0  0  0
 14 16  2  0  0  0  0
 15 14  1  0  0  0  0
 16 18  1  0  0  0  0
 16 17  1  0  0  0  0
 19 18  2  0  0  0  0
 20 21  1  6  0  0  0
 20 22  1  0  0  0  0
 22 27  2  0  0  0  0
 22 23  1  0  0  0  0
 23 24  2  0  0  0  0
 24 25  1  0  0  0  0
 24 29  1  0  0  0  0
 25 30  1  0  0  0  0
 26 31  1  0  0  0  0
 26 25  2  0  0  0  0
 27 26  1  0  0  0  0
 28 23  1  0  0  0  0
 32 20  1  0  0  0  0
 33 34  1  0  0  0  0
 33 32  1  0  0  0  0
 35 33  1  0  0  0  0
 36 33  1  0  0  0  0
M  END
>  <minimizedAffinity>
-6.18556166

$$$$

 OpenBabel03272502363D

 36 38  0  0  1  0  0  0  0  0999 V2000
   37.4900   27.3790   33.2620 C   0  0  0  0  0  3  0  0  0  0  0  0
   37.1920   26.1650   33.6010 C   0  0  0  0  0  3  0  0  0  0  0  0
   35.3350   29.9940   31.7120 C   0  0  0  0  0  0  0  0  0  0  0  0
   36.2710   28.9970   31.9030 C   0  0  0  0  0  0  0  0  0  0  0  0
   36.4870   28.4060   33.1200 C   0  0  0  0  0  0  0  0  0  0  0  0
   35.7260   28.8540   34.1390 N   0  0  0  0  0  0  0  0  0  0  0  0
   34.8170   29.8110   33.9850 C   0  0  0  0  0  0  0  0  0  0  0  0
   34.6200   30.3850   32.7650 N   0  0  0  0  0  0  0  0  0  0  0  0
   35.1410   30.4790   30.7660 H   0  0  0  0  0  0  0  0  0  0  0  0
   36.7870   28.7600   30.9920 H   0  0  0  0  0  0  0  0  0  0  0  0
   36.1670   32.1630   35.5500 Br  0  0  0  0  0  0  0  0  0  0  0  0
   34.4790   31.3120   35.8920 C   0  0  0  0  0  0  0  0  0  0  0  0
   34.0080   30.2750   35.1080 C   0  0  0  0  0  0  0  0  0  0  0  0
   32.7820   29.6920   35.3950 C   0  0  0  0  0  0  0  0  0  0  0  0
   32.3890   28.8690   34.7860 H   0  0  0  0  0  0  0  0  0  0  0  0
   32.0350   30.1610   36.4780 C   0  0  0  0  0  0  0  0  0  0  0  0
   31.0870   29.7130   36.7020 H   0  0  0  0  0  0  0  0  0  0  0  0
   32.4780   31.2020   37.2860 C   0  0  0  0  0  3  0  0  0  0  0  0
   33.7070   31.7480   36.9560 C   0  0  0  0  0  3  0  0  0  0  0  0
   38.3150   25.1750   33.7030 C   0  0  1  0  0  0  0  0  0  0  0  0
   39.2800   25.6970   33.6120 H   0  0  0  0  0  0  0  0  0  0  0  0
   38.1920   24.4240   34.9650 C   0  0  0  0  0  0  0  0  0  0  0  0
   38.1220   25.2640   36.1090 C   0  0  0  0  0  0  0  0  0  0  0  0
   38.0010   24.7900   37.3920 C   0  0  0  0  0  0  0  0  0  0  0  0
   37.9390   23.4170   37.6490 C   0  0  0  0  0  0  0  0  0  0  0  0
   38.0140   22.6680   36.4800 C   0  0  0  0  0  0  0  0  0  0  0  0
   38.1320   23.1000   35.2160 N   0  0  0  0  0  0  0  0  0  0  0  0
   38.1470   26.3660   36.1740 H   0  0  0  0  0  0  0  0  0  0  0  0
   37.9430   25.3800   38.3000 H   0  0  0  0  0  0  0  0  0  0  0  0
   37.8450   22.8990   38.5830 H   0  0  0  0  0  0  0  0  0  0  0  0
   37.9780   21.5760   36.5150 H   0  0  0  0  0  0  0  0  0  0  0  0
   38.0860   23.9570   32.3640 S   0  0  0  0  0  0  0  0  0  0  0  0
   37.7060   24.7670   30.8200 C   0  0  0  0  0  0  0  0  0  0  0  0
   36.3760   25.1450   30.7140 F   0  0  0  0  0  0  0  0  0  0  0  0
   38.5600   25.8270   30.5800 F   0  0  0  0  0  0  0  0  0  0  0  0
   37.9630   23.8230   29.8030 F   0  0  0  0  0  0  0  0  0  0  0  0
  1  2  2  0  0  0  0
  2 20  1  0  0  0  0
  3  4  2  0  0  0  0
  3  8  1  0  0  0  0
  4  5  1  0  0  0  0
  5  1  1  0  0  0  0
  5  6  2  0  0  0  0
  7  6  1  0  0  0  0
  7 13  1  0  0  0  0
  8  7  2  0  0  0  0
  9  3  1  0  0  0  0
 10  4  1  0  0  0  0
 11 12  1  0  0  0  0
 12 19  1  0  0  0  0
 13 14  1  0  0  0  0
 13 12  2  0  0  0  0
 14 16  2  0  0  0  0
 15 14  1  0  0  0  0
 16 17  1  0  0  0  0
 16 18  1  0  0  0  0
 19 18  2  0  0  0  0
 20 21  1  6  0  0  0
 20 22  1  0  0  0  0
 22 27  2  0  0  0  0
 22 23  1  0  0  0  0
 23 28  1  0  0  0  0
 23 24  2  0  0  0  0
 24 25  1  0  0  0  0
 24 29  1  0  0  0  0
 25 30  1  0  0  0  0
 26 31  1  0  0  0  0
 26 25  2  0  0  0  0
 27 26  1  0  0  0  0
 32 20  1  0  0  0  0
 33 32  1  0  0  0  0
 34 33  1  0  0  0  0
 35 33  1  0  0  0  0
 36 33  1  0  0  0  0
M  END
>  <minimizedAffinity>
-6.04049492

$$$$

 OpenBabel03272502363D

 36 38  0  0  1  0  0  0  0  0999 V2000
   37.0690   26.8000   33.6150 C   0  0  0  0  0  3  0  0  0  0  0  0
   37.5420   26.4440   34.7660 C   0  0  0  0  0  3  0  0  0  0  0  0
   36.0040   29.9170   31.8730 C   0  0  0  0  0  0  0  0  0  0  0  0
   36.5260   28.6670   32.1420 C   0  0  0  0  0  0  0  0  0  0  0  0
   36.4930   28.1040   33.3910 C   0  0  0  0  0  0  0  0  0  0  0  0
   35.9160   28.8430   34.3580 N   0  0  0  0  0  0  0  0  0  0  0  0
   35.4040   30.0480   34.1290 C   0  0  0  0  0  0  0  0  0  0  0  0
   35.4480   30.5880   32.8790 N   0  0  0  0  0  0  0  0  0  0  0  0
   36.0130   30.3890   30.9000 H   0  0  0  0  0  0  0  0  0  0  0  0
   36.9450   28.2170   31.2630 H   0  0  0  0  0  0  0  0  0  0  0  0
   32.3280   29.5190   34.3740 Br  0  0  0  0  0  0  0  0  0  0  0  0
   33.4280   30.6920   35.4250 C   0  0  0  0  0  0  0  0  0  0  0  0
   34.7850   30.8240   35.1990 C   0  0  0  0  0  0  0  0  0  0  0  0
   35.5370   31.6850   35.9850 C   0  0  0  0  0  0  0  0  0  0  0  0
   36.6150   31.8050   35.8240 H   0  0  0  0  0  0  0  0  0  0  0  0
   34.9110   32.4120   37.0000 C   0  0  0  0  0  0  0  0  0  0  0  0
   35.4890   33.0790   37.6100 H   0  0  0  0  0  0  0  0  0  0  0  0
   33.5490   32.3040   37.2540 C   0  0  0  0  0  3  0  0  0  0  0  0
   32.8440   31.4310   36.4410 C   0  0  0  0  0  3  0  0  0  0  0  0
   38.1030   25.0570   34.8900 C   0  0  1  0  0  0  0  0  0  0  0  0
   37.4460   24.3430   34.3710 H   0  0  0  0  0  0  0  0  0  0  0  0
   39.4830   25.0400   34.3730 C   0  0  0  0  0  0  0  0  0  0  0  0
   40.2670   26.1290   34.8410 C   0  0  0  0  0  0  0  0  0  0  0  0
   41.5820   26.3200   34.4960 C   0  0  0  0  0  0  0  0  0  0  0  0
   42.2390   25.4280   33.6420 C   0  0  0  0  0  0  0  0  0  0  0  0
   41.4040   24.3960   33.2300 C   0  0  0  0  0  0  0  0  0  0  0  0
   40.1180   24.1830   33.5480 N   0  0  0  0  0  0  0  0  0  0  0  0
   39.9880   26.9560   35.5170 H   0  0  0  0  0  0  0  0  0  0  0  0
   42.2280   27.1280   34.8210 H   0  0  0  0  0  0  0  0  0  0  0  0
   43.2500   25.4420   33.2850 H   0  0  0  0  0  0  0  0  0  0  0  0
   41.7720   23.6170   32.5580 H   0  0  0  0  0  0  0  0  0  0  0  0
   38.2250   24.6790   36.6710 S   0  0  0  0  0  0  0  0  0  0  0  0
   39.1730   23.1920   36.9460 C   0  0  0  0  0  0  0  0  0  0  0  0
   38.7360   22.1170   36.1870 F   0  0  0  0  0  0  0  0  0  0  0  0
   40.5270   23.4170   36.7850 F   0  0  0  0  0  0  0  0  0  0  0  0
   38.9950   22.8550   38.3050 F   0  0  0  0  0  0  0  0  0  0  0  0
  1  2  2  0  0  0  0
  2 20  1  0  0  0  0
  3  4  2  0  0  0  0
  3  8  1  0  0  0  0
  4  5  1  0  0  0  0
  5  1  1  0  0  0  0
  5  6  2  0  0  0  0
  7  6  1  0  0  0  0
  7 13  1  0  0  0  0
  8  7  2  0  0  0  0
  9  3  1  0  0  0  0
 10  4  1  0  0  0  0
 11 12  1  0  0  0  0
 12 19  1  0  0  0  0
 13 12  2  0  0  0  0
 13 14  1  0  0  0  0
 14 16  2  0  0  0  0
 15 14  1  0  0  0  0
 16 18  1  0  0  0  0
 16 17  1  0  0  0  0
 19 18  2  0  0  0  0
 20 21  1  6  0  0  0
 20 32  1  0  0  0  0
 22 23  1  0  0  0  0
 22 20  1  0  0  0  0
 23 28  1  0  0  0  0
 24 29  1  0  0  0  0
 24 23  2  0  0  0  0
 25 24  1  0  0  0  0
 26 27  1  0  0  0  0
 26 25  2  0  0  0  0
 27 22  2  0  0  0  0
 30 25  1  0  0  0  0
 31 26  1  0  0  0  0
 32 33  1  0  0  0  0
 33 36  1  0  0  0  0
 34 33  1  0  0  0  0
 35 33  1  0  0  0  0
M  END
>  <minimizedAffinity>
-6.03209257

$$$$

 OpenBabel03272502363D

 36 38  0  0  1  0  0  0  0  0999 V2000
   36.3450   28.7930   34.6170 C   0  0  0  0  0  3  0  0  0  0  0  0
   35.2290   29.2320   34.1270 C   0  0  0  0  0  3  0  0  0  0  0  0
   37.2580   25.7520   32.6680 C   0  0  0  0  0  0  0  0  0  0  0  0
   36.7950   27.0040   33.0210 C   0  0  0  0  0  0  0  0  0  0  0  0
   36.8590   27.4830   34.3040 C   0  0  0  0  0  0  0  0  0  0  0  0
   37.4080   26.6570   35.2170 N   0  0  0  0  0  0  0  0  0  0  0  0
   37.8630   25.4480   34.9060 C   0  0  0  0  0  0  0  0  0  0  0  0
   37.7870   24.9920   33.6240 N   0  0  0  0  0  0  0  0  0  0  0  0
   37.2220   25.3460   31.6670 H   0  0  0  0  0  0  0  0  0  0  0  0
   36.3910   27.5290   32.1770 H   0  0  0  0  0  0  0  0  0  0  0  0
   40.7890   24.5870   34.1970 Br  0  0  0  0  0  0  0  0  0  0  0  0
   39.7430   24.1160   35.7380 C   0  0  0  0  0  0  0  0  0  0  0  0
   38.4520   24.5760   35.9180 C   0  0  0  0  0  0  0  0  0  0  0  0
   37.7370   24.2080   37.0480 C   0  0  0  0  0  0  0  0  0  0  0  0
   36.7120   24.5620   37.2110 H   0  0  0  0  0  0  0  0  0  0  0  0
   38.3320   23.3730   37.9960 C   0  0  0  0  0  0  0  0  0  0  0  0
   37.7820   23.0860   38.8710 H   0  0  0  0  0  0  0  0  0  0  0  0
   39.6280   22.8920   37.8470 C   0  0  0  0  0  3  0  0  0  0  0  0
   40.2980   23.2900   36.7020 C   0  0  0  0  0  3  0  0  0  0  0  0
   34.7830   30.6060   34.5330 C   0  0  1  0  0  0  0  0  0  0  0  0
   34.6200   31.2240   33.6360 H   0  0  0  0  0  0  0  0  0  0  0  0
   33.5800   30.5010   35.3770 C   0  0  0  0  0  0  0  0  0  0  0  0
   32.7280   29.4270   35.0020 C   0  0  0  0  0  0  0  0  0  0  0  0
   31.5510   29.1320   35.6450 C   0  0  0  0  0  0  0  0  0  0  0  0
   31.1170   29.8920   36.7360 C   0  0  0  0  0  0  0  0  0  0  0  0
   32.0040   30.9190   37.0370 C   0  0  0  0  0  0  0  0  0  0  0  0
   33.1580   31.2330   36.4290 N   0  0  0  0  0  0  0  0  0  0  0  0
   32.8440   28.6890   34.1890 H   0  0  0  0  0  0  0  0  0  0  0  0
   30.8630   28.3300   35.4050 H   0  0  0  0  0  0  0  0  0  0  0  0
   30.2340   29.7870   37.3350 H   0  0  0  0  0  0  0  0  0  0  0  0
   31.8040   31.6020   37.8660 H   0  0  0  0  0  0  0  0  0  0  0  0
   36.0890   31.3080   35.5970 S   0  0  0  0  0  0  0  0  0  0  0  0
   36.4800   32.9800   35.1120 C   0  0  0  0  0  0  0  0  0  0  0  0
   37.6300   33.4680   35.7130 F   0  0  0  0  0  0  0  0  0  0  0  0
   36.5240   33.1120   33.7370 F   0  0  0  0  0  0  0  0  0  0  0  0
   35.4010   33.7800   35.5450 F   0  0  0  0  0  0  0  0  0  0  0  0
  2 20  1  0  0  0  0
  2  1  2  0  0  0  0
  3  4  2  0  0  0  0
  3  8  1  0  0  0  0
  4  5  1  0  0  0  0
  5  1  1  0  0  0  0
  5  6  2  0  0  0  0
  7  6  1  0  0  0  0
  7 13  1  0  0  0  0
  8  7  2  0  0  0  0
  9  3  1  0  0  0  0
 10  4  1  0  0  0  0
 11 12  1  0  0  0  0
 12 13  2  0  0  0  0
 12 19  1  0  0  0  0
 13 14  1  0  0  0  0
 14 15  1  0  0  0  0
 14 16  2  0  0  0  0
 16 17  1  0  0  0  0
 18 16  1  0  0  0  0
 19 18  2  0  0  0  0
 20 21  1  6  0  0  0
 20 22  1  0  0  0  0
 20 32  1  0  0  0  0
 22 27  1  0  0  0  0
 23 22  2  0  0  0  0
 23 24  1  0  0  0  0
 24 25  2  0  0  0  0
 25 26  1  0  0  0  0
 25 30  1  0  0  0  0
 26 31  1  0  0  0  0
 27 26  2  0  0  0  0
 28 23  1  0  0  0  0
 29 24  1  0  0  0  0
 33 36  1  0  0  0  0
 33 32  1  0  0  0  0
 33 34  1  0  0  0  0
 35 33  1  0  0  0  0
M  END
>  <minimizedAffinity>
-6.02312231

$$$$

 OpenBabel03272502363D

 36 38  0  0  1  0  0  0  0  0999 V2000
   37.2150   26.8630   33.1730 C   0  0  0  0  0  3  0  0  0  0  0  0
   38.3080   26.6430   33.8330 C   0  0  0  0  0  3  0  0  0  0  0  0
   36.1870   30.1270   31.7000 C   0  0  0  0  0  0  0  0  0  0  0  0
   36.7070   28.8580   31.8660 C   0  0  0  0  0  0  0  0  0  0  0  0
   36.6420   28.1810   33.0550 C   0  0  0  0  0  0  0  0  0  0  0  0
   36.0340   28.8260   34.0710 N   0  0  0  0  0  0  0  0  0  0  0  0
   35.5250   30.0470   33.9410 C   0  0  0  0  0  0  0  0  0  0  0  0
   35.6020   30.7010   32.7480 N   0  0  0  0  0  0  0  0  0  0  0  0
   36.2220   30.6870   30.7760 H   0  0  0  0  0  0  0  0  0  0  0  0
   37.1520   28.4920   30.9610 H   0  0  0  0  0  0  0  0  0  0  0  0
   32.4630   29.4140   34.1060 Br  0  0  0  0  0  0  0  0  0  0  0  0
   33.5180   30.5320   35.2580 C   0  0  0  0  0  0  0  0  0  0  0  0
   34.8730   30.7190   35.0600 C   0  0  0  0  0  0  0  0  0  0  0  0
   35.5920   31.5360   35.9200 C   0  0  0  0  0  0  0  0  0  0  0  0
   36.6670   31.6980   35.7820 H   0  0  0  0  0  0  0  0  0  0  0  0
   34.9350   32.1640   36.9820 C   0  0  0  0  0  0  0  0  0  0  0  0
   35.4880   32.7960   37.6480 H   0  0  0  0  0  0  0  0  0  0  0  0
   33.5740   31.9980   37.2100 C   0  0  0  0  0  3  0  0  0  0  0  0
   32.9030   31.1720   36.3230 C   0  0  0  0  0  3  0  0  0  0  0  0
   38.8060   25.2280   33.9020 C   0  0  1  0  0  0  0  0  0  0  0  0
   39.8420   25.1810   33.5330 H   0  0  0  0  0  0  0  0  0  0  0  0
   38.6700   24.7290   35.2810 C   0  0  0  0  0  0  0  0  0  0  0  0
   39.4210   23.5470   35.5230 C   0  0  0  0  0  0  0  0  0  0  0  0
   39.4510   22.9010   36.7340 C   0  0  0  0  0  0  0  0  0  0  0  0
   38.7250   23.3860   37.8260 C   0  0  0  0  0  0  0  0  0  0  0  0
   38.0190   24.5400   37.5070 C   0  0  0  0  0  0  0  0  0  0  0  0
   37.9690   25.1930   36.3360 N   0  0  0  0  0  0  0  0  0  0  0  0
   40.0700   22.9740   34.8370 H   0  0  0  0  0  0  0  0  0  0  0  0
   40.0030   22.0000   36.9770 H   0  0  0  0  0  0  0  0  0  0  0  0
   38.6480   22.9990   38.8240 H   0  0  0  0  0  0  0  0  0  0  0  0
   37.4020   25.0410   38.2570 H   0  0  0  0  0  0  0  0  0  0  0  0
   37.6880   24.2100   32.8810 S   0  0  0  0  0  0  0  0  0  0  0  0
   38.3880   23.9130   31.2670 C   0  0  0  0  0  0  0  0  0  0  0  0
   39.3420   22.9060   31.2610 F   0  0  0  0  0  0  0  0  0  0  0  0
   37.4060   23.6940   30.3200 F   0  0  0  0  0  0  0  0  0  0  0  0
   39.0320   25.1120   30.8880 F   0  0  0  0  0  0  0  0  0  0  0  0
  1  2  2  0  0  0  0
  2 20  1  0  0  0  0
  3  4  2  0  0  0  0
  3  8  1  0  0  0  0
  4  5  1  0  0  0  0
  5  1  1  0  0  0  0
  5  6  2  0  0  0  0
  7  6  1  0  0  0  0
  7 13  1  0  0  0  0
  8  7  2  0  0  0  0
  9  3  1  0  0  0  0
 10  4  1  0  0  0  0
 11 12  1  0  0  0  0
 12 19  1  0  0  0  0
 13 12  2  0  0  0  0
 13 14  1  0  0  0  0
 14 16  2  0  0  0  0
 15 14  1  0  0  0  0
 16 18  1  0  0  0  0
 16 17  1  0  0  0  0
 19 18  2  0  0  0  0
 20 21  1  6  0  0  0
 20 22  1  0  0  0  0
 22 23  2  0  0  0  0
 22 27  1  0  0  0  0
 23 24  1  0  0  0  0
 24 29  1  0  0  0  0
 24 25  2  0  0  0  0
 25 30  1  0  0  0  0
 26 25  1  0  0  0  0
 26 31  1  0  0  0  0
 27 26  2  0  0  0  0
 28 23  1  0  0  0  0
 32 20  1  0  0  0  0
 33 32  1  0  0  0  0
 34 33  1  0  0  0  0
 35 33  1  0  0  0  0
 36 33  1  0  0  0  0
M  END
>  <minimizedAffinity>
-5.87561274

$$$$

 OpenBabel03272502363D

 36 38  0  0  1  0  0  0  0  0999 V2000
   37.4370   27.4020   33.2820 C   0  0  0  0  0  3  0  0  0  0  0  0
   37.1420   26.2140   33.7070 C   0  0  0  0  0  3  0  0  0  0  0  0
   35.3010   30.0190   31.7110 C   0  0  0  0  0  0  0  0  0  0  0  0
   36.2310   29.0180   31.9090 C   0  0  0  0  0  0  0  0  0  0  0  0
   36.4410   28.4330   33.1320 C   0  0  0  0  0  0  0  0  0  0  0  0
   35.6800   28.8930   34.1450 N   0  0  0  0  0  0  0  0  0  0  0  0
   34.7770   29.8540   33.9840 C   0  0  0  0  0  0  0  0  0  0  0  0
   34.5860   30.4210   32.7590 N   0  0  0  0  0  0  0  0  0  0  0  0
   35.1110   30.5000   30.7610 H   0  0  0  0  0  0  0  0  0  0  0  0
   36.7470   28.7710   31.0020 H   0  0  0  0  0  0  0  0  0  0  0  0
   36.1500   32.1910   35.5530 Br  0  0  0  0  0  0  0  0  0  0  0  0
   34.4490   31.3620   35.8870 C   0  0  0  0  0  0  0  0  0  0  0  0
   33.9690   30.3300   35.1020 C   0  0  0  0  0  0  0  0  0  0  0  0
   32.7340   29.7640   35.3830 C   0  0  0  0  0  0  0  0  0  0  0  0
   32.3330   28.9450   34.7740 H   0  0  0  0  0  0  0  0  0  0  0  0
   31.9870   30.2440   36.4620 C   0  0  0  0  0  0  0  0  0  0  0  0
   31.0320   29.8090   36.6820 H   0  0  0  0  0  0  0  0  0  0  0  0
   32.4400   31.2800   37.2700 C   0  0  0  0  0  3  0  0  0  0  0  0
   33.6780   31.8100   36.9470 C   0  0  0  0  0  3  0  0  0  0  0  0
   38.2570   25.2150   33.8100 C   0  0  1  0  0  0  0  0  0  0  0  0
   38.3930   24.9170   34.8610 H   0  0  0  0  0  0  0  0  0  0  0  0
   37.9730   24.0710   32.9260 C   0  0  0  0  0  0  0  0  0  0  0  0
   36.7630   24.2190   32.1950 C   0  0  0  0  0  0  0  0  0  0  0  0
   36.2940   23.2830   31.3070 C   0  0  0  0  0  0  0  0  0  0  0  0
   37.0010   22.1000   31.0670 C   0  0  0  0  0  0  0  0  0  0  0  0
   38.1680   22.0340   31.8200 C   0  0  0  0  0  0  0  0  0  0  0  0
   38.6520   22.9290   32.6940 N   0  0  0  0  0  0  0  0  0  0  0  0
   36.0350   25.0490   32.2020 H   0  0  0  0  0  0  0  0  0  0  0  0
   35.3820   23.3410   30.7230 H   0  0  0  0  0  0  0  0  0  0  0  0
   36.7680   21.2840   30.4120 H   0  0  0  0  0  0  0  0  0  0  0  0
   38.8310   21.1680   31.7440 H   0  0  0  0  0  0  0  0  0  0  0  0
   39.7590   26.0090   33.1440 S   0  0  0  0  0  0  0  0  0  0  0  0
   40.8220   26.5750   34.4610 C   0  0  0  0  0  0  0  0  0  0  0  0
   41.5200   25.5480   35.0790 F   0  0  0  0  0  0  0  0  0  0  0  0
   41.6650   27.5830   34.0350 F   0  0  0  0  0  0  0  0  0  0  0  0
   39.9760   27.1580   35.4290 F   0  0  0  0  0  0  0  0  0  0  0  0
  1  2  2  0  0  0  0
  2 20  1  0  0  0  0
  3  4  2  0  0  0  0
  3  8  1  0  0  0  0
  4  5  1  0  0  0  0
  5  1  1  0  0  0  0
  5  6  2  0  0  0  0
  7  6  1  0  0  0  0
  7 13  1  0  0  0  0
  8  7  2  0  0  0  0
  9  3  1  0  0  0  0
 10  4  1  0  0  0  0
 11 12  1  0  0  0  0
 12 19  1  0  0  0  0
 13 14  1  0  0  0  0
 13 12  2  0  0  0  0
 14 16  2  0  0  0  0
 15 14  1  0  0  0  0
 16 17  1  0  0  0  0
 16 18  1  0  0  0  0
 19 18  2  0  0  0  0
 20 21  1  1  0  0  0
 22 20  1  0  0  0  0
 23 28  1  0  0  0  0
 23 22  2  0  0  0  0
 24 23  1  0  0  0  0
 25 24  2  0  0  0  0
 25 26  1  0  0  0  0
 26 27  2  0  0  0  0
 27 22  1  0  0  0  0
 29 24  1  0  0  0  0
 30 25  1  0  0  0  0
 31 26  1  0  0  0  0
 32 20  1  0  0  0  0
 32 33  1  0  0  0  0
 33 34  1  0  0  0  0
 33 36  1  0  0  0  0
 35 33  1  0  0  0  0
M  END
>  <minimizedAffinity>
-5.82185125

$$$$

 OpenBabel03272502363D

 36 38  0  0  1  0  0  0  0  0999 V2000
   37.0650   27.1680   33.3860 C   0  0  0  0  0  3  0  0  0  0  0  0
   37.5950   26.8400   34.5210 C   0  0  0  0  0  3  0  0  0  0  0  0
   35.3190   30.0700   31.8340 C   0  0  0  0  0  0  0  0  0  0  0  0
   36.1080   28.9530   32.0280 C   0  0  0  0  0  0  0  0  0  0  0  0
   36.2130   28.3220   33.2400 C   0  0  0  0  0  0  0  0  0  0  0  0
   35.4950   28.8540   34.2490 N   0  0  0  0  0  0  0  0  0  0  0  0
   34.7270   29.9270   34.0920 C   0  0  0  0  0  0  0  0  0  0  0  0
   34.6380   30.5390   32.8780 N   0  0  0  0  0  0  0  0  0  0  0  0
   35.2140   30.5910   30.8930 H   0  0  0  0  0  0  0  0  0  0  0  0
   36.6080   28.6610   31.1250 H   0  0  0  0  0  0  0  0  0  0  0  0
   36.2370   32.2460   35.5570 Br  0  0  0  0  0  0  0  0  0  0  0  0
   34.5040   31.5130   35.9450 C   0  0  0  0  0  0  0  0  0  0  0  0
   33.9610   30.4800   35.2050 C   0  0  0  0  0  0  0  0  0  0  0  0
   32.7060   29.9850   35.5250 C   0  0  0  0  0  0  0  0  0  0  0  0
   32.2560   29.1670   34.9500 H   0  0  0  0  0  0  0  0  0  0  0  0
   32.0010   30.5380   36.5970 C   0  0  0  0  0  0  0  0  0  0  0  0
   31.0300   30.1580   36.8460 H   0  0  0  0  0  0  0  0  0  0  0  0
   32.5170   31.5770   37.3610 C   0  0  0  0  0  3  0  0  0  0  0  0
   33.7740   32.0350   37.0010 C   0  0  0  0  0  3  0  0  0  0  0  0
   38.4530   25.6090   34.5600 C   0  0  1  0  0  0  0  0  0  0  0  0
   38.1050   24.8890   33.8040 H   0  0  0  0  0  0  0  0  0  0  0  0
   39.8640   25.9900   34.3760 C   0  0  0  0  0  0  0  0  0  0  0  0
   40.7740   25.0060   34.8490 C   0  0  0  0  0  0  0  0  0  0  0  0
   42.1390   25.1390   34.7800 C   0  0  0  0  0  0  0  0  0  0  0  0
   42.7230   26.2820   34.2250 C   0  0  0  0  0  0  0  0  0  0  0  0
   41.7680   27.1930   33.7890 C   0  0  0  0  0  0  0  0  0  0  0  0
   40.4310   27.0920   33.8420 N   0  0  0  0  0  0  0  0  0  0  0  0
   40.5690   24.0280   35.3190 H   0  0  0  0  0  0  0  0  0  0  0  0
   42.8790   24.4250   35.1230 H   0  0  0  0  0  0  0  0  0  0  0  0
   43.7590   26.5300   34.1020 H   0  0  0  0  0  0  0  0  0  0  0  0
   42.0680   28.1380   33.3310 H   0  0  0  0  0  0  0  0  0  0  0  0
   38.3310   24.9180   36.2450 S   0  0  0  0  0  0  0  0  0  0  0  0
   37.9630   23.1720   36.1950 C   0  0  0  0  0  0  0  0  0  0  0  0
   36.8640   22.8240   36.9660 F   0  0  0  0  0  0  0  0  0  0  0  0
   37.8420   22.7160   34.8960 F   0  0  0  0  0  0  0  0  0  0  0  0
   39.0890   22.5140   36.7350 F   0  0  0  0  0  0  0  0  0  0  0  0
  1  2  2  0  0  0  0
  2 20  1  0  0  0  0
  3  4  2  0  0  0  0
  3  8  1  0  0  0  0
  4  5  1  0  0  0  0
  5  1  1  0  0  0  0
  5  6  2  0  0  0  0
  7  6  1  0  0  0  0
  7 13  1  0  0  0  0
  8  7  2  0  0  0  0
  9  3  1  0  0  0  0
 10  4  1  0  0  0  0
 11 12  1  0  0  0  0
 12 19  1  0  0  0  0
 13 14  1  0  0  0  0
 13 12  2  0  0  0  0
 14 16  2  0  0  0  0
 15 14  1  0  0  0  0
 16 17  1  0  0  0  0
 16 18  1  0  0  0  0
 19 18  2  0  0  0  0
 20 21  1  6  0  0  0
 20 32  1  0  0  0  0
 22 20  1  0  0  0  0
 22 23  1  0  0  0  0
 23 28  1  0  0  0  0
 24 23  2  0  0  0  0
 24 29  1  0  0  0  0
 25 24  1  0  0  0  0
 26 27  1  0  0  0  0
 26 25  2  0  0  0  0
 27 22  2  0  0  0  0
 30 25  1  0  0  0  0
 31 26  1  0  0  0  0
 33 32  1  0  0  0  0
 33 36  1  0  0  0  0
 33 34  1  0  0  0  0
 35 33  1  0  0  0  0
M  END
>  <minimizedAffinity>
-5.78819513

$$$$

 OpenBabel03272502363D

 36 38  0  0  1  0  0  0  0  0999 V2000
   35.0940   30.4180   33.6560 C   0  0  0  0  0  3  0  0  0  0  0  0
   35.7060   30.5130   34.7940 C   0  0  0  0  0  3  0  0  0  0  0  0
   36.5240   29.5270   30.3330 C   0  0  0  0  0  0  0  0  0  0  0  0
   36.0320   30.2350   31.4120 C   0  0  0  0  0  0  0  0  0  0  0  0
   35.6130   29.6280   32.5680 C   0  0  0  0  0  0  0  0  0  0  0  0
   35.7100   28.2840   32.5980 N   0  0  0  0  0  0  0  0  0  0  0  0
   36.1800   27.5770   31.5760 C   0  0  0  0  0  0  0  0  0  0  0  0
   36.5900   28.2010   30.4370 N   0  0  0  0  0  0  0  0  0  0  0  0
   36.8620   29.9750   29.4090 H   0  0  0  0  0  0  0  0  0  0  0  0
   36.0240   31.2910   31.2220 H   0  0  0  0  0  0  0  0  0  0  0  0
   38.8090   26.5970   32.9670 Br  0  0  0  0  0  0  0  0  0  0  0  0
   37.3810   25.5440   32.2290 C   0  0  0  0  0  0  0  0  0  0  0  0
   36.2720   26.1210   31.6410 C   0  0  0  0  0  0  0  0  0  0  0  0
   35.2670   25.3180   31.1220 C   0  0  0  0  0  0  0  0  0  0  0  0
   34.3780   25.7540   30.6520 H   0  0  0  0  0  0  0  0  0  0  0  0
   35.3880   23.9280   31.2010 C   0  0  0  0  0  0  0  0  0  0  0  0
   34.6120   23.3040   30.8020 H   0  0  0  0  0  0  0  0  0  0  0  0
   36.4890   23.3150   31.7860 C   0  0  0  0  0  3  0  0  0  0  0  0
   37.4640   24.1620   32.2880 C   0  0  0  0  0  3  0  0  0  0  0  0
   35.0820   31.3770   35.8510 C   0  0  1  0  0  0  0  0  0  0  0  0
   35.1950   30.8980   36.8360 H   0  0  0  0  0  0  0  0  0  0  0  0
   35.6790   32.7220   35.8000 C   0  0  0  0  0  0  0  0  0  0  0  0
   34.8520   33.7210   36.3830 C   0  0  0  0  0  0  0  0  0  0  0  0
   35.2000   35.0480   36.4530 C   0  0  0  0  0  0  0  0  0  0  0  0
   36.4210   35.4990   35.9410 C   0  0  0  0  0  0  0  0  0  0  0  0
   37.1660   34.4640   35.3900 C   0  0  0  0  0  0  0  0  0  0  0  0
   36.8540   33.1610   35.3060 N   0  0  0  0  0  0  0  0  0  0  0  0
   33.8570   33.6240   36.8520 H   0  0  0  0  0  0  0  0  0  0  0  0
   34.6140   35.8510   36.8840 H   0  0  0  0  0  0  0  0  0  0  0  0
   36.8300   36.4900   35.9220 H   0  0  0  0  0  0  0  0  0  0  0  0
   38.1470   34.6570   34.9480 H   0  0  0  0  0  0  0  0  0  0  0  0
   33.3230   31.5850   35.4100 S   0  0  0  0  0  0  0  0  0  0  0  0
   32.2660   31.1870   36.7910 C   0  0  0  0  0  0  0  0  0  0  0  0
   31.2490   32.1100   36.9850 F   0  0  0  0  0  0  0  0  0  0  0  0
   31.7760   29.8980   36.7000 F   0  0  0  0  0  0  0  0  0  0  0  0
   33.0870   31.2110   37.9390 F   0  0  0  0  0  0  0  0  0  0  0  0
  1  2  2  0  0  0  0
  2 20  1  0  0  0  0
  3  8  2  0  0  0  0
  3  4  1  0  0  0  0
  4  5  2  0  0  0  0
  5  6  1  0  0  0  0
  5  1  1  0  0  0  0
  7 13  1  0  0  0  0
  7  6  2  0  0  0  0
  8  7  1  0  0  0  0
  9  3  1  0  0  0  0
 10  4  1  0  0  0  0
 12 19  1  0  0  0  0
 12 11  1  0  0  0  0
 13 12  2  0  0  0  0
 14 16  2  0  0  0  0
 14 13  1  0  0  0  0
 15 14  1  0  0  0  0
 16 18  1  0  0  0  0
 17 16  1  0  0  0  0
 18 19  2  0  0  0  0
 20 21  1  1  0  0  0
 22 20  1  0  0  0  0
 22 23  1  0  0  0  0
 23 24  2  0  0  0  0
 23 28  1  0  0  0  0
 24 29  1  0  0  0  0
 25 24  1  0  0  0  0
 26 25  2  0  0  0  0
 27 26  1  0  0  0  0
 27 22  2  0  0  0  0
 30 25  1  0  0  0  0
 31 26  1  0  0  0  0
 32 20  1  0  0  0  0
 32 33  1  0  0  0  0
 33 34  1  0  0  0  0
 33 36  1  0  0  0  0
 35 33  1  0  0  0  0
M  END
>  <minimizedAffinity>
-5.73650694

$$$$

 OpenBabel03272502363D

 36 38  0  0  1  0  0  0  0  0999 V2000
   37.1860   26.8450   34.0070 C   0  0  0  0  0  3  0  0  0  0  0  0
   37.4010   25.9410   33.1050 C   0  0  0  0  0  3  0  0  0  0  0  0
   35.9580   29.7740   32.0590 C   0  0  0  0  0  0  0  0  0  0  0  0
   36.5380   28.5710   32.4100 C   0  0  0  0  0  0  0  0  0  0  0  0
   36.5510   28.1030   33.6980 C   0  0  0  0  0  0  0  0  0  0  0  0
   35.9600   28.8890   34.6190 N   0  0  0  0  0  0  0  0  0  0  0  0
   35.3930   30.0510   34.3110 C   0  0  0  0  0  0  0  0  0  0  0  0
   35.3920   30.4970   33.0230 N   0  0  0  0  0  0  0  0  0  0  0  0
   35.9300   30.1710   31.0540 H   0  0  0  0  0  0  0  0  0  0  0  0
   36.9610   28.0730   31.5590 H   0  0  0  0  0  0  0  0  0  0  0  0
   32.3450   29.4220   34.6520 Br  0  0  0  0  0  0  0  0  0  0  0  0
   33.4130   30.7120   35.5920 C   0  0  0  0  0  0  0  0  0  0  0  0
   34.7600   30.8800   35.3320 C   0  0  0  0  0  0  0  0  0  0  0  0
   35.4890   31.8250   36.0390 C   0  0  0  0  0  0  0  0  0  0  0  0
   36.5590   31.9740   35.8490 H   0  0  0  0  0  0  0  0  0  0  0  0
   34.8510   32.6010   37.0090 C   0  0  0  0  0  0  0  0  0  0  0  0
   35.4120   33.3330   37.5570 H   0  0  0  0  0  0  0  0  0  0  0  0
   33.4980   32.4580   37.2960 C   0  0  0  0  0  3  0  0  0  0  0  0
   32.8170   31.5010   36.5630 C   0  0  0  0  0  3  0  0  0  0  0  0
   38.0820   24.6750   33.5370 C   0  0  1  0  0  0  0  0  0  0  0  0
   38.0510   24.5920   34.6340 H   0  0  0  0  0  0  0  0  0  0  0  0
   37.4540   23.5260   32.8610 C   0  0  0  0  0  0  0  0  0  0  0  0
   36.4800   23.9090   31.9000 C   0  0  0  0  0  0  0  0  0  0  0  0
   35.7660   23.0120   31.1450 C   0  0  0  0  0  0  0  0  0  0  0  0
   35.9660   21.6350   31.2830 C   0  0  0  0  0  0  0  0  0  0  0  0
   36.9310   21.3460   32.2410 C   0  0  0  0  0  0  0  0  0  0  0  0
   37.6440   22.1980   32.9930 N   0  0  0  0  0  0  0  0  0  0  0  0
   36.1430   24.9190   31.6040 H   0  0  0  0  0  0  0  0  0  0  0  0
   35.0130   23.2440   30.4000 H   0  0  0  0  0  0  0  0  0  0  0  0
   35.4920   20.8200   30.7720 H   0  0  0  0  0  0  0  0  0  0  0  0
   37.2010   20.3110   32.4650 H   0  0  0  0  0  0  0  0  0  0  0  0
   39.7990   24.7480   32.9220 S   0  0  0  0  0  0  0  0  0  0  0  0
   40.7790   25.8780   33.8950 C   0  0  0  0  0  0  0  0  0  0  0  0
   42.1230   25.5390   33.9370 F   0  0  0  0  0  0  0  0  0  0  0  0
   40.5930   27.1870   33.4920 F   0  0  0  0  0  0  0  0  0  0  0  0
   40.2790   25.8030   35.2130 F   0  0  0  0  0  0  0  0  0  0  0  0
  2 20  1  0  0  0  0
  2  1  2  0  0  0  0
  3  4  2  0  0  0  0
  3  8  1  0  0  0  0
  4  5  1  0  0  0  0
  5  1  1  0  0  0  0
  5  6  2  0  0  0  0
  7  6  1  0  0  0  0
  7 13  1  0  0  0  0
  8  7  2  0  0  0  0
  9  3  1  0  0  0  0
 10  4  1  0  0  0  0
 11 12  1  0  0  0  0
 12 19  1  0  0  0  0
 13 12  2  0  0  0  0
 13 14  1  0  0  0  0
 14 16  2  0  0  0  0
 15 14  1  0  0  0  0
 16 18  1  0  0  0  0
 16 17  1  0  0  0  0
 19 18  2  0  0  0  0
 20 21  1  1  0  0  0
 22 27  1  0  0  0  0
 22 20  1  0  0  0  0
 23 22  2  0  0  0  0
 24 25  2  0  0  0  0
 24 23  1  0  0  0  0
 25 26  1  0  0  0  0
 26 31  1  0  0  0  0
 26 27  2  0  0  0  0
 28 23  1  0  0  0  0
 29 24  1  0  0  0  0
 30 25  1  0  0  0  0
 32 20  1  0  0  0  0
 32 33  1  0  0  0  0
 33 34  1  0  0  0  0
 33 36  1  0  0  0  0
 35 33  1  0  0  0  0
M  END
>  <minimizedAffinity>
-5.72310019

$$$$
