
 OpenBabel03272502353D

 36 38  0  0  1  0  0  0  0  0999 V2000
   35.5500   29.9370   47.9300 C   0  0  0  0  0  3  0  0  0  0  0  0
   36.6990   30.4160   47.5750 C   0  0  0  0  0  3  0  0  0  0  0  0
   33.7330   29.6820   44.6870 C   0  0  0  0  0  0  0  0  0  0  0  0
   34.7060   29.9040   45.6410 C   0  0  0  0  0  0  0  0  0  0  0  0
   34.5010   29.6720   46.9760 C   0  0  0  0  0  0  0  0  0  0  0  0
   33.2820   29.2070   47.3150 N   0  0  0  0  0  0  0  0  0  0  0  0
   32.3270   28.9840   46.4190 C   0  0  0  0  0  0  0  0  0  0  0  0
   32.5530   29.2230   45.0970 N   0  0  0  0  0  0  0  0  0  0  0  0
   33.8630   29.8550   43.6280 H   0  0  0  0  0  0  0  0  0  0  0  0
   35.6140   30.2720   45.2030 H   0  0  0  0  0  0  0  0  0  0  0  0
   32.4310   26.0190   47.4220 Br  0  0  0  0  0  0  0  0  0  0  0  0
   30.9090   27.1830   47.2830 C   0  0  0  0  0  0  0  0  0  0  0  0
   31.0160   28.4800   46.8180 C   0  0  0  0  0  0  0  0  0  0  0  0
   29.8860   29.2810   46.7360 C   0  0  0  0  0  0  0  0  0  0  0  0
   29.9490   30.3130   46.3710 H   0  0  0  0  0  0  0  0  0  0  0  0
   28.6480   28.7660   47.1270 C   0  0  0  0  0  0  0  0  0  0  0  0
   27.7730   29.3830   47.0650 H   0  0  0  0  0  0  0  0  0  0  0  0
   28.5050   27.4670   47.5990 C   0  0  0  0  0  3  0  0  0  0  0  0
   29.6630   26.7090   47.6610 C   0  0  0  0  0  3  0  0  0  0  0  0
   37.7120   30.6670   48.6540 C   0  0  1  0  0  0  0  0  0  0  0  0
   38.3380   29.7720   48.7910 H   0  0  0  0  0  0  0  0  0  0  0  0
   38.5000   31.8660   48.3170 C   0  0  0  0  0  0  0  0  0  0  0  0
   38.5800   32.7990   49.3870 C   0  0  0  0  0  0  0  0  0  0  0  0
   39.2620   33.9880   49.3070 C   0  0  0  0  0  0  0  0  0  0  0  0
   39.9340   34.3540   48.1360 C   0  0  0  0  0  0  0  0  0  0  0  0
   39.8060   33.3910   47.1420 C   0  0  0  0  0  0  0  0  0  0  0  0
   39.1480   32.2230   47.1900 N   0  0  0  0  0  0  0  0  0  0  0  0
   38.1450   32.7450   50.4000 H   0  0  0  0  0  0  0  0  0  0  0  0
   39.3580   34.7350   50.0860 H   0  0  0  0  0  0  0  0  0  0  0  0
   40.5040   35.2370   47.9220 H   0  0  0  0  0  0  0  0  0  0  0  0
   40.2770   33.5330   46.1660 H   0  0  0  0  0  0  0  0  0  0  0  0
   36.7920   31.0760   50.1760 S   0  0  0  0  0  0  0  0  0  0  0  0
   36.8510   29.7260   51.3410 C   0  0  0  0  0  0  0  0  0  0  0  0
   37.5220   30.0440   52.5120 F   0  0  0  0  0  0  0  0  0  0  0  0
   35.5900   29.2200   51.5950 F   0  0  0  0  0  0  0  0  0  0  0  0
   37.5660   28.6870   50.7080 F   0  0  0  0  0  0  0  0  0  0  0  0
  2  1  2  0  0  0  0
  2 20  1  0  0  0  0
  3  8  2  0  0  0  0
  3  4  1  0  0  0  0
  4  5  2  0  0  0  0
  5  6  1  0  0  0  0
  5  1  1  0  0  0  0
  7 13  1  0  0  0  0
  7  6  2  0  0  0  0
  8  7  1  0  0  0  0
  9  3  1  0  0  0  0
 10  4  1  0  0  0  0
 12 11  1  0  0  0  0
 12 19  1  0  0  0  0
 13 12  2  0  0  0  0
 14 13  1  0  0  0  0
 14 16  2  0  0  0  0
 15 14  1  0  0  0  0
 16 18  1  0  0  0  0
 17 16  1  0  0  0  0
 18 19  2  0  0  0  0
 20 21  1  1  0  0  0
 20 32  1  0  0  0  0
 22 20  1  0  0  0  0
 22 23  1  0  0  0  0
 23 28  1  0  0  0  0
 24 23  2  0  0  0  0
 24 29  1  0  0  0  0
 25 24  1  0  0  0  0
 26 27  1  0  0  0  0
 26 25  2  0  0  0  0
 27 22  2  0  0  0  0
 30 25  1  0  0  0  0
 31 26  1  0  0  0  0
 32 33  1  0  0  0  0
 33 35  1  0  0  0  0
 33 34  1  0  0  0  0
 36 33  1  0  0  0  0
M  END
>  <minimizedAffinity>
-6.68744802

>  <minimizedRMSD>
0.643841028

$$$$
