
 OpenBabel03262520073D

 18 19  0  0  0  0  0  0  0  0999 V2000
   37.8640   29.7790   50.2790 C   0  0  0  0  0  0  0  0  0  0  0  0
   38.3790   31.1010   50.3500 C   0  0  0  0  0  0  0  0  0  0  0  0
   37.8570   32.0360   49.4550 C   0  0  0  0  0  0  0  0  0  0  0  0
   36.8900   31.6460   48.5670 N   0  0  0  0  0  0  0  0  0  0  0  0
   36.4290   30.3660   48.5390 C   0  0  0  0  0  0  0  0  0  0  0  0
   36.9180   29.4400   49.3950 N   0  0  0  0  0  0  0  0  0  0  0  0
   38.2440   29.0240   50.9570 H   0  0  0  0  0  0  0  0  0  0  0  0
   39.1320   31.3090   51.0760 H   0  0  0  0  0  0  0  0  0  0  0  0
   38.2220   33.0360   49.4830 H   0  0  0  0  0  0  0  0  0  0  0  0
   33.8880   29.1490   49.9160 Br  0  0  0  0  0  0  0  0  0  0  0  0
   34.2140   29.3860   48.0470 C   0  0  0  0  0  0  0  0  0  0  0  0
   35.3990   29.9440   47.5950 C   0  0  0  0  0  0  0  0  0  0  0  0
   35.5590   30.0820   46.2320 C   0  0  0  0  0  0  0  0  0  0  0  0
   36.4830   30.5160   45.9190 H   0  0  0  0  0  0  0  0  0  0  0  0
   34.6040   29.6930   45.3070 C   0  0  0  0  0  0  0  0  0  0  0  0
   34.8680   29.8630   44.2650 H   0  0  0  0  0  0  0  0  0  0  0  0
   33.4370   29.1420   45.7970 C   0  0  0  0  0  3  0  0  0  0  0  0
   33.2520   28.9920   47.1620 C   0  0  0  0  0  3  0  0  0  0  0  0
  1  2  1  0  0  0  0
  1  7  1  0  0  0  0
  2  8  1  0  0  0  0
  3  9  1  0  0  0  0
  3  2  2  0  0  0  0
  4  3  1  0  0  0  0
  5  4  2  0  0  0  0
  5  6  1  0  0  0  0
  6  1  2  0  0  0  0
 11 10  1  0  0  0  0
 12 11  1  0  0  0  0
 12  5  1  0  0  0  0
 13 12  2  0  0  0  0
 14 13  1  0  0  0  0
 15 17  2  0  0  0  0
 15 13  1  0  0  0  0
 16 15  1  0  0  0  0
 17 18  1  0  0  0  0
 18 11  2  0  0  0  0
M  END
>  <minimizedAffinity>
-4.03039455

>  <minimizedRMSD>
2.90624452

$$$$
