
 OpenBabel03262520173D

 18 19  0  0  0  0  0  0  0  0999 V2000
   36.9690   29.5770   50.5760 C   0  0  0  0  0  0  0  0  0  0  0  0
   37.8710   30.0420   49.6100 C   0  0  0  0  0  0  0  0  0  0  0  0
   37.4340   30.6820   48.4520 C   0  0  0  0  0  0  0  0  0  0  0  0
   36.0890   30.8190   48.3310 N   0  0  0  0  0  0  0  0  0  0  0  0
   35.2260   30.3720   49.2610 C   0  0  0  0  0  0  0  0  0  0  0  0
   35.6600   29.7590   50.3690 N   0  0  0  0  0  0  0  0  0  0  0  0
   37.3240   29.0830   51.4710 H   0  0  0  0  0  0  0  0  0  0  0  0
   38.9200   29.8910   49.7880 H   0  0  0  0  0  0  0  0  0  0  0  0
   34.1830   30.5700   48.9950 H   0  0  0  0  0  0  0  0  0  0  0  0
   38.4990   33.4250   49.2060 Br  0  0  0  0  0  0  0  0  0  0  0  0
   38.9250   32.4160   47.6390 C   0  0  0  0  0  0  0  0  0  0  0  0
   38.3570   31.1740   47.4330 C   0  0  0  0  0  0  0  0  0  0  0  0
   38.6990   30.4890   46.2870 C   0  0  0  0  0  0  0  0  0  0  0  0
   38.2670   29.5230   46.1130 H   0  0  0  0  0  0  0  0  0  0  0  0
   39.5860   31.0440   45.3820 C   0  0  0  0  0  0  0  0  0  0  0  0
   39.8500   30.4940   44.4800 H   0  0  0  0  0  0  0  0  0  0  0  0
   40.1630   32.3000   45.5880 C   0  0  0  0  0  3  0  0  0  0  0  0
   39.8110   32.9820   46.7460 C   0  0  0  0  0  3  0  0  0  0  0  0
  1  7  1  0  0  0  0
  2  8  1  0  0  0  0
  2  1  2  0  0  0  0
  3  2  1  0  0  0  0
  4  3  2  0  0  0  0
  4  5  1  0  0  0  0
  5  6  2  0  0  0  0
  6  1  1  0  0  0  0
  9  5  1  0  0  0  0
 11 10  1  0  0  0  0
 12 11  1  0  0  0  0
 12  3  1  0  0  0  0
 13 12  2  0  0  0  0
 14 13  1  0  0  0  0
 15 17  2  0  0  0  0
 15 13  1  0  0  0  0
 16 15  1  0  0  0  0
 17 18  1  0  0  0  0
 18 11  2  0  0  0  0
M  END
>  <minimizedAffinity>
-5.19555807

>  <minimizedRMSD>
1.22885013

$$$$
