
 OpenBabel03272509543D

 43 46  0  0  0  0  0  0  0  0999 V2000
   34.2060   29.0740   48.0180 C   0  0  0  0  0  0  0  0  0  0  0  0
   33.5270   29.6520   48.6780 H   0  0  0  0  0  0  0  0  0  0  0  0
   34.6840   29.7980   47.3230 H   0  0  0  0  0  0  0  0  0  0  0  0
   33.3850   28.0400   47.3160 C   0  0  0  0  0  0  0  0  0  0  0  0
   33.7760   27.0150   47.3910 H   0  0  0  0  0  0  0  0  0  0  0  0
   33.3640   28.2650   46.2150 H   0  0  0  0  0  0  0  0  0  0  0  0
   31.9640   28.0370   47.7610 C   0  0  0  0  0  0  0  0  0  0  0  0
   31.6920   27.7470   49.0860 C   0  0  0  0  0  0  0  0  0  0  0  0
   30.4190   27.7240   49.5690 C   0  0  0  0  0  0  0  0  0  0  0  0
   29.4080   27.9840   48.7650 N   0  0  0  0  0  0  0  0  0  0  0  0
   29.6620   28.2720   47.4540 C   0  0  0  0  0  0  0  0  0  0  0  0
   30.9170   28.3040   46.9380 N   0  0  0  0  0  0  0  0  0  0  0  0
   32.5150   27.5330   49.7530 H   0  0  0  0  0  0  0  0  0  0  0  0
   30.2510   27.4890   50.6290 H   0  0  0  0  0  0  0  0  0  0  0  0
   28.5850   25.7050   46.0950 Br  0  0  0  0  0  0  0  0  0  0  0  0
   27.9630   27.5040   45.8460 C   0  0  0  0  0  0  0  0  0  0  0  0
   28.5570   28.5640   46.5370 C   0  0  0  0  0  0  0  0  0  0  0  0
   28.0850   29.8380   46.3340 C   0  0  0  0  0  0  0  0  0  0  0  0
   28.5290   30.6710   46.8580 H   0  0  0  0  0  0  0  0  0  0  0  0
   27.0450   30.1100   45.4710 C   0  0  0  0  0  0  0  0  0  0  0  0
   26.6850   31.1080   45.3200 H   0  0  0  0  0  0  0  0  0  0  0  0
   26.4930   29.0320   44.8140 C   0  0  0  0  0  3  0  0  0  0  0  0
   26.9040   27.7200   44.9580 C   0  0  0  0  0  3  0  0  0  0  0  0
   35.1510   28.4610   48.8700 O   0  0  0  0  0  0  0  0  0  0  0  0
   37.3080   30.1990   51.1890 C   0  0  0  0  0  0  0  0  0  0  0  0
   38.1150   30.9340   50.2900 C   0  0  0  0  0  0  0  0  0  0  0  0
   37.8560   30.7770   48.9330 C   0  0  0  0  0  0  0  0  0  0  0  0
   36.8380   29.9200   48.5990 N   0  0  0  0  0  0  0  0  0  0  0  0
   36.0990   29.2450   49.4660 C   0  0  0  0  0  0  0  0  0  0  0  0
   36.3490   29.3970   50.7890 N   0  0  0  0  0  0  0  0  0  0  0  0
   37.5410   30.3490   52.2430 H   0  0  0  0  0  0  0  0  0  0  0  0
   38.9140   31.6060   50.5530 H   0  0  0  0  0  0  0  0  0  0  0  0
   38.9210   33.4720   48.8860 F   0  0  0  0  0  0  0  0  0  0  0  0
   39.0730   32.6950   47.8230 C   0  0  0  0  0  0  0  0  0  0  0  0
   38.5690   31.4390   47.8620 C   0  0  0  0  0  0  0  0  0  0  0  0
   38.7870   30.7110   46.6900 C   0  0  0  0  0  0  0  0  0  0  0  0
   39.4460   31.2250   45.6100 C   0  0  0  0  0  0  0  0  0  0  0  0
   39.9380   32.4980   45.6130 C   0  0  0  0  0  0  0  0  0  0  0  0
   39.7430   33.2370   46.7410 C   0  0  0  0  0  0  0  0  0  0  0  0
   38.4340   29.6750   46.5780 H   0  0  0  0  0  0  0  0  0  0  0  0
   39.6000   30.6300   44.7090 H   0  0  0  0  0  0  0  0  0  0  0  0
   40.4560   32.8810   44.7440 H   0  0  0  0  0  0  0  0  0  0  0  0
   40.1200   34.2480   46.7760 H   0  0  0  0  0  0  0  0  0  0  0  0
  1  2  1  0  0  0  0
  1 24  1  0  0  0  0
  3  1  1  0  0  0  0
  4  5  1  0  0  0  0
  4  7  1  0  0  0  0
  4  1  1  0  0  0  0
  6  4  1  0  0  0  0
  7  8  1  0  0  0  0
  8  9  2  0  0  0  0
  8 13  1  0  0  0  0
  9 14  1  0  0  0  0
 10  9  1  0  0  0  0
 11 10  2  0  0  0  0
 12 11  1  0  0  0  0
 12  7  2  0  0  0  0
 16 15  1  0  0  0  0
 16 17  1  0  0  0  0
 17 11  1  0  0  0  0
 18 17  2  0  0  0  0
 18 19  1  0  0  0  0
 20 18  1  0  0  0  0
 21 20  1  0  0  0  0
 22 23  1  0  0  0  0
 22 20  2  0  0  0  0
 23 16  2  0  0  0  0
 24 29  1  0  0  0  0
 25 31  1  0  0  0  0
 26 32  1  0  0  0  0
 26 25  2  0  0  0  0
 27 26  1  0  0  0  0
 28 27  2  0  0  0  0
 28 29  1  0  0  0  0
 29 30  2  0  0  0  0
 30 25  1  0  0  0  0
 34 35  1  0  0  0  0
 34 33  1  0  0  0  0
 35 27  1  0  0  0  0
 36 35  2  0  0  0  0
 37 38  2  0  0  0  0
 37 36  1  0  0  0  0
 38 39  1  0  0  0  0
 39 43  1  0  0  0  0
 39 34  2  0  0  0  0
 40 36  1  0  0  0  0
 41 37  1  0  0  0  0
 42 38  1  0  0  0  0
M  END
>  <minimizedAffinity>
-6.9564724

>  <minimizedRMSD>
1.290923

$$$$
