
 OpenBabel03272509543D

 43 46  0  0  0  0  0  0  0  0999 V2000
   34.1210   29.0380   48.1110 C   0  0  0  0  0  0  0  0  0  0  0  0
   33.4390   29.6030   48.7790 H   0  0  0  0  0  0  0  0  0  0  0  0
   34.5900   29.7730   47.4220 H   0  0  0  0  0  0  0  0  0  0  0  0
   33.3070   28.0030   47.4010 C   0  0  0  0  0  0  0  0  0  0  0  0
   33.6910   26.9770   47.4920 H   0  0  0  0  0  0  0  0  0  0  0  0
   33.3090   28.2190   46.2980 H   0  0  0  0  0  0  0  0  0  0  0  0
   31.8780   28.0130   47.8190 C   0  0  0  0  0  0  0  0  0  0  0  0
   31.5790   27.7380   49.1410 C   0  0  0  0  0  0  0  0  0  0  0  0
   30.2960   27.7280   49.6000 C   0  0  0  0  0  0  0  0  0  0  0  0
   29.3030   27.9840   48.7740 N   0  0  0  0  0  0  0  0  0  0  0  0
   29.5840   28.2570   47.4640 C   0  0  0  0  0  0  0  0  0  0  0  0
   30.8480   28.2760   46.9730 N   0  0  0  0  0  0  0  0  0  0  0  0
   32.3880   27.5270   49.8260 H   0  0  0  0  0  0  0  0  0  0  0  0
   30.1070   27.5040   50.6580 H   0  0  0  0  0  0  0  0  0  0  0  0
   28.5570   25.6880   46.0700 Br  0  0  0  0  0  0  0  0  0  0  0  0
   27.9280   27.4840   45.8140 C   0  0  0  0  0  0  0  0  0  0  0  0
   28.4990   28.5450   46.5240 C   0  0  0  0  0  0  0  0  0  0  0  0
   28.0230   29.8180   46.3140 C   0  0  0  0  0  0  0  0  0  0  0  0
   28.4490   30.6510   46.8520 H   0  0  0  0  0  0  0  0  0  0  0  0
   27.0010   30.0850   45.4290 C   0  0  0  0  0  0  0  0  0  0  0  0
   26.6370   31.0830   45.2730 H   0  0  0  0  0  0  0  0  0  0  0  0
   26.4720   29.0060   44.7550 C   0  0  0  0  0  3  0  0  0  0  0  0
   26.8890   27.6970   44.9030 C   0  0  0  0  0  3  0  0  0  0  0  0
   35.0750   28.4250   48.9540 O   0  0  0  0  0  0  0  0  0  0  0  0
   37.2870   30.1660   51.2180 C   0  0  0  0  0  0  0  0  0  0  0  0
   38.0840   30.8870   50.2980 C   0  0  0  0  0  0  0  0  0  0  0  0
   37.7990   30.7210   48.9470 C   0  0  0  0  0  0  0  0  0  0  0  0
   36.7670   29.8680   48.6400 N   0  0  0  0  0  0  0  0  0  0  0  0
   36.0390   29.2070   49.5260 C   0  0  0  0  0  0  0  0  0  0  0  0
   36.3150   29.3680   50.8430 N   0  0  0  0  0  0  0  0  0  0  0  0
   37.5410   30.3230   52.2670 H   0  0  0  0  0  0  0  0  0  0  0  0
   38.8930   31.5550   50.5410 H   0  0  0  0  0  0  0  0  0  0  0  0
   38.9040   33.3980   48.8660 F   0  0  0  0  0  0  0  0  0  0  0  0
   39.0190   32.6150   47.8030 C   0  0  0  0  0  0  0  0  0  0  0  0
   38.4970   31.3670   47.8580 C   0  0  0  0  0  0  0  0  0  0  0  0
   38.6760   30.6320   46.6840 C   0  0  0  0  0  0  0  0  0  0  0  0
   39.3180   31.1330   45.5870 C   0  0  0  0  0  0  0  0  0  0  0  0
   39.8300   32.3980   45.5740 C   0  0  0  0  0  0  0  0  0  0  0  0
   39.6730   33.1440   46.7040 C   0  0  0  0  0  0  0  0  0  0  0  0
   38.3040   29.6020   46.5830 H   0  0  0  0  0  0  0  0  0  0  0  0
   39.4420   30.5330   44.6840 H   0  0  0  0  0  0  0  0  0  0  0  0
   40.3340   32.7700   44.6920 H   0  0  0  0  0  0  0  0  0  0  0  0
   40.0660   34.1480   46.7270 H   0  0  0  0  0  0  0  0  0  0  0  0
  1  2  1  0  0  0  0
  1 24  1  0  0  0  0
  3  1  1  0  0  0  0
  4  5  1  0  0  0  0
  4  7  1  0  0  0  0
  4  1  1  0  0  0  0
  6  4  1  0  0  0  0
  7  8  1  0  0  0  0
  8  9  2  0  0  0  0
  8 13  1  0  0  0  0
  9 14  1  0  0  0  0
 10  9  1  0  0  0  0
 11 10  2  0  0  0  0
 12 11  1  0  0  0  0
 12  7  2  0  0  0  0
 16 15  1  0  0  0  0
 16 17  1  0  0  0  0
 17 11  1  0  0  0  0
 18 17  2  0  0  0  0
 18 19  1  0  0  0  0
 20 18  1  0  0  0  0
 21 20  1  0  0  0  0
 22 23  1  0  0  0  0
 22 20  2  0  0  0  0
 23 16  2  0  0  0  0
 24 29  1  0  0  0  0
 25 31  1  0  0  0  0
 26 32  1  0  0  0  0
 26 25  2  0  0  0  0
 27 26  1  0  0  0  0
 28 27  2  0  0  0  0
 28 29  1  0  0  0  0
 29 30  2  0  0  0  0
 30 25  1  0  0  0  0
 34 35  1  0  0  0  0
 34 33  1  0  0  0  0
 35 27  1  0  0  0  0
 36 35  2  0  0  0  0
 37 36  1  0  0  0  0
 38 37  2  0  0  0  0
 38 39  1  0  0  0  0
 39 43  1  0  0  0  0
 39 34  2  0  0  0  0
 40 36  1  0  0  0  0
 41 37  1  0  0  0  0
 42 38  1  0  0  0  0
M  END
>  <minimizedAffinity>
-6.96537113

>  <minimizedRMSD>
1.22580361

$$$$
