
 OpenBabel03262520173D

 18 19  0  0  0  0  0  0  0  0999 V2000
   37.4460   30.5460   51.2920 C   0  0  0  0  0  0  0  0  0  0  0  0
   37.8780   30.9840   50.0340 C   0  0  0  0  0  0  0  0  0  0  0  0
   37.4540   30.3630   48.8600 C   0  0  0  0  0  0  0  0  0  0  0  0
   36.6060   29.3160   49.0260 N   0  0  0  0  0  0  0  0  0  0  0  0
   36.1930   28.8990   50.2360 C   0  0  0  0  0  0  0  0  0  0  0  0
   36.6080   29.5060   51.3550 N   0  0  0  0  0  0  0  0  0  0  0  0
   37.7830   31.0400   52.1950 H   0  0  0  0  0  0  0  0  0  0  0  0
   38.5500   31.8210   49.9960 H   0  0  0  0  0  0  0  0  0  0  0  0
   35.5120   28.0440   50.1760 H   0  0  0  0  0  0  0  0  0  0  0  0
   35.2000   30.0970   46.8410 Br  0  0  0  0  0  0  0  0  0  0  0  0
   36.9700   30.7390   46.5130 C   0  0  0  0  0  0  0  0  0  0  0  0
   37.8920   30.8020   47.5390 C   0  0  0  0  0  0  0  0  0  0  0  0
   39.1540   31.2740   47.2450 C   0  0  0  0  0  0  0  0  0  0  0  0
   39.8810   31.3290   48.0320 H   0  0  0  0  0  0  0  0  0  0  0  0
   39.4700   31.6670   45.9580 C   0  0  0  0  0  0  0  0  0  0  0  0
   40.4690   32.0390   45.7380 H   0  0  0  0  0  0  0  0  0  0  0  0
   38.5380   31.6050   44.9170 C   0  0  0  0  0  3  0  0  0  0  0  0
   37.2700   31.1290   45.2230 C   0  0  0  0  0  3  0  0  0  0  0  0
  1  6  1  0  0  0  0
  1  7  1  0  0  0  0
  2  1  2  0  0  0  0
  3  4  2  0  0  0  0
  3  2  1  0  0  0  0
  4  5  1  0  0  0  0
  5  6  2  0  0  0  0
  8  2  1  0  0  0  0
  9  5  1  0  0  0  0
 11 10  1  0  0  0  0
 11 12  1  0  0  0  0
 12  3  1  0  0  0  0
 13 12  2  0  0  0  0
 13 14  1  0  0  0  0
 15 13  1  0  0  0  0
 16 15  1  0  0  0  0
 17 18  1  0  0  0  0
 17 15  2  0  0  0  0
 18 11  2  0  0  0  0
M  END
>  <minimizedAffinity>
-4.53204346

>  <minimizedRMSD>
1.05243659

$$$$
