
 OpenBabel03272509543D

 43 46  0  0  0  0  0  0  0  0999 V2000
   34.0040   28.9130   48.3630 C   0  0  0  0  0  0  0  0  0  0  0  0
   33.0190   29.2050   48.7820 H   0  0  0  0  0  0  0  0  0  0  0  0
   34.4770   29.8360   47.9630 H   0  0  0  0  0  0  0  0  0  0  0  0
   33.7620   27.8740   47.3150 C   0  0  0  0  0  0  0  0  0  0  0  0
   34.4140   26.9920   47.3840 H   0  0  0  0  0  0  0  0  0  0  0  0
   33.9700   28.3120   46.3010 H   0  0  0  0  0  0  0  0  0  0  0  0
   32.3460   27.4140   47.2810 C   0  0  0  0  0  0  0  0  0  0  0  0
   32.0840   26.1270   46.8480 C   0  0  0  0  0  0  0  0  0  0  0  0
   30.8160   25.6330   46.7880 C   0  0  0  0  0  0  0  0  0  0  0  0
   29.8000   26.3910   47.1480 N   0  0  0  0  0  0  0  0  0  0  0  0
   30.0440   27.6650   47.5780 C   0  0  0  0  0  0  0  0  0  0  0  0
   31.2930   28.1900   47.6510 N   0  0  0  0  0  0  0  0  0  0  0  0
   32.9120   25.4990   46.5500 H   0  0  0  0  0  0  0  0  0  0  0  0
   30.6570   24.6050   46.4380 H   0  0  0  0  0  0  0  0  0  0  0  0
   29.1790   27.1240   50.5040 Br  0  0  0  0  0  0  0  0  0  0  0  0
   28.4290   28.4040   49.2830 C   0  0  0  0  0  0  0  0  0  0  0  0
   28.9340   28.5300   47.9850 C   0  0  0  0  0  0  0  0  0  0  0  0
   28.3720   29.4560   47.1400 C   0  0  0  0  0  0  0  0  0  0  0  0
   28.7460   29.5690   46.1350 H   0  0  0  0  0  0  0  0  0  0  0  0
   27.3280   30.2670   47.5270 C   0  0  0  0  0  0  0  0  0  0  0  0
   26.8960   30.9870   46.8580 H   0  0  0  0  0  0  0  0  0  0  0  0
   26.8660   30.1060   48.8140 C   0  0  0  0  0  3  0  0  0  0  0  0
   27.3710   29.2010   49.7300 C   0  0  0  0  0  3  0  0  0  0  0  0
   34.7400   28.3690   49.4390 O   0  0  0  0  0  0  0  0  0  0  0  0
   37.1000   30.0050   51.6310 C   0  0  0  0  0  0  0  0  0  0  0  0
   37.8800   30.7140   50.6880 C   0  0  0  0  0  0  0  0  0  0  0  0
   37.5330   30.5780   49.3480 C   0  0  0  0  0  0  0  0  0  0  0  0
   36.4630   29.7630   49.0730 N   0  0  0  0  0  0  0  0  0  0  0  0
   35.7520   29.1110   49.9800 C   0  0  0  0  0  0  0  0  0  0  0  0
   36.0890   29.2430   51.2860 N   0  0  0  0  0  0  0  0  0  0  0  0
   37.4030   30.1380   52.6690 H   0  0  0  0  0  0  0  0  0  0  0  0
   38.7190   31.3530   50.9050 H   0  0  0  0  0  0  0  0  0  0  0  0
   38.7750   33.1940   49.2770 F   0  0  0  0  0  0  0  0  0  0  0  0
   38.7900   32.4390   48.1880 C   0  0  0  0  0  0  0  0  0  0  0  0
   38.2050   31.2190   48.2390 C   0  0  0  0  0  0  0  0  0  0  0  0
   38.2790   30.5110   47.0370 C   0  0  0  0  0  0  0  0  0  0  0  0
   38.8870   31.0090   45.9200 C   0  0  0  0  0  0  0  0  0  0  0  0
   39.4650   32.2460   45.9120 C   0  0  0  0  0  0  0  0  0  0  0  0
   39.4110   32.9650   47.0690 C   0  0  0  0  0  0  0  0  0  0  0  0
   37.8480   29.5050   46.9310 H   0  0  0  0  0  0  0  0  0  0  0  0
   38.9290   30.4300   44.9960 H   0  0  0  0  0  0  0  0  0  0  0  0
   39.9400   32.6170   45.0140 H   0  0  0  0  0  0  0  0  0  0  0  0
   39.8580   33.9460   47.0970 H   0  0  0  0  0  0  0  0  0  0  0  0
  1  2  1  0  0  0  0
  1 24  1  0  0  0  0
  3  1  1  0  0  0  0
  4  5  1  0  0  0  0
  4  1  1  0  0  0  0
  6  4  1  0  0  0  0
  7  4  1  0  0  0  0
  7 12  1  0  0  0  0
  8  7  2  0  0  0  0
  9  8  1  0  0  0  0
  9 10  2  0  0  0  0
 10 11  1  0  0  0  0
 11 12  2  0  0  0  0
 11 17  1  0  0  0  0
 13  8  1  0  0  0  0
 14  9  1  0  0  0  0
 16 23  1  0  0  0  0
 16 15  1  0  0  0  0
 17 16  2  0  0  0  0
 18 20  2  0  0  0  0
 18 17  1  0  0  0  0
 19 18  1  0  0  0  0
 20 22  1  0  0  0  0
 21 20  1  0  0  0  0
 22 23  2  0  0  0  0
 24 29  1  0  0  0  0
 25 31  1  0  0  0  0
 26 32  1  0  0  0  0
 26 25  2  0  0  0  0
 27 26  1  0  0  0  0
 28 27  2  0  0  0  0
 28 29  1  0  0  0  0
 29 30  2  0  0  0  0
 30 25  1  0  0  0  0
 34 35  1  0  0  0  0
 34 33  1  0  0  0  0
 35 27  1  0  0  0  0
 36 35  2  0  0  0  0
 37 36  1  0  0  0  0
 38 37  2  0  0  0  0
 38 39  1  0  0  0  0
 39 43  1  0  0  0  0
 39 34  2  0  0  0  0
 40 36  1  0  0  0  0
 41 37  1  0  0  0  0
 42 38  1  0  0  0  0
M  END
>  <minimizedAffinity>
-7.3308816

>  <minimizedRMSD>
2.31896281

$$$$
