
 OpenBabel03272506103D

 44 47  0  0  0  0  0  0  0  0999 V2000
   36.7410   26.3250   32.5220 C   0  0  0  0  0  0  0  0  0  0  0  0
   35.6800   26.1580   32.7860 H   0  0  0  0  0  0  0  0  0  0  0  0
   36.7530   26.2630   31.3930 H   0  0  0  0  0  0  0  0  0  0  0  0
   37.5670   25.1900   33.0710 C   0  0  0  0  0  0  0  0  0  0  0  0
   38.1420   24.2360   32.1560 C   0  0  0  0  0  0  0  0  0  0  0  0
   38.9760   23.1540   33.2760 S   0  0  0  0  0  0  0  0  0  0  0  0
   38.4640   24.0930   34.8100 C   0  0  0  0  0  0  0  0  0  0  0  0
   37.8230   24.9700   34.3250 N   0  0  0  0  0  0  0  0  0  0  0  0
   38.7260   23.8850   36.2340 N   0  0  0  0  0  0  0  0  0  0  0  0
   39.9570   23.2100   36.5350 C   0  0  0  0  0  0  0  0  0  0  0  0
   39.9980   22.6340   37.9200 C   0  0  0  0  0  0  0  0  0  0  0  0
   38.7280   22.6970   38.6290 N   0  0  0  0  0  0  0  0  0  0  0  0
   38.3410   24.1110   38.5810 C   0  0  0  0  0  0  0  0  0  0  0  0
   37.7780   24.3480   37.2080 C   0  0  0  0  0  0  0  0  0  0  0  0
   38.0530   24.2350   31.1040 H   0  0  0  0  0  0  0  0  0  0  0  0
   40.8500   23.8560   36.4080 H   0  0  0  0  0  0  0  0  0  0  0  0
   40.0600   22.3610   35.8220 H   0  0  0  0  0  0  0  0  0  0  0  0
   40.7390   23.1690   38.5590 H   0  0  0  0  0  0  0  0  0  0  0  0
   40.2990   21.5640   37.9200 H   0  0  0  0  0  0  0  0  0  0  0  0
   38.0330   22.1490   38.0750 H   0  0  0  0  0  0  0  0  0  0  0  0
   37.5750   24.3340   39.3550 H   0  0  0  0  0  0  0  0  0  0  0  0
   39.2400   24.7090   38.7340 H   0  0  0  0  0  0  0  0  0  0  0  0
   37.5760   25.4400   37.1130 H   0  0  0  0  0  0  0  0  0  0  0  0
   36.8360   23.7890   37.0770 H   0  0  0  0  0  0  0  0  0  0  0  0
   37.2950   27.6350   32.8960 C   0  0  0  0  0  0  0  0  0  0  0  0
   38.2020   27.9230   32.3270 H   0  0  0  0  0  0  0  0  0  0  0  0
   37.5700   27.6520   33.9750 H   0  0  0  0  0  0  0  0  0  0  0  0
   35.1240   30.2030   31.3360 C   0  0  0  0  0  0  0  0  0  0  0  0
   34.4040   30.6870   32.4160 C   0  0  0  0  0  0  0  0  0  0  0  0
   34.6510   30.1490   33.6760 C   0  0  0  0  0  0  0  0  0  0  0  0
   35.5950   29.1700   33.7570 N   0  0  0  0  0  0  0  0  0  0  0  0
   36.2720   28.7300   32.6790 C   0  0  0  0  0  0  0  0  0  0  0  0
   36.0320   29.2460   31.4900 N   0  0  0  0  0  0  0  0  0  0  0  0
   34.9200   30.6300   30.3740 H   0  0  0  0  0  0  0  0  0  0  0  0
   33.6830   31.4220   32.2760 H   0  0  0  0  0  0  0  0  0  0  0  0
   35.9210   32.4120   35.6580 Br  0  0  0  0  0  0  0  0  0  0  0  0
   34.3370   31.3960   35.8820 C   0  0  0  0  0  0  0  0  0  0  0  0
   33.9900   30.4880   34.9200 C   0  0  0  0  0  0  0  0  0  0  0  0
   32.8450   29.7990   35.2520 C   0  0  0  0  0  0  0  0  0  0  0  0
   32.4160   29.0430   34.6150 H   0  0  0  0  0  0  0  0  0  0  0  0
   32.1230   29.9920   36.4070 C   0  0  0  0  0  0  0  0  0  0  0  0
   31.2280   29.4350   36.6360 H   0  0  0  0  0  0  0  0  0  0  0  0
   32.5240   30.9230   37.3360 C   0  0  0  0  0  3  0  0  0  0  0  0
   33.6670   31.6340   37.0440 C   0  0  0  0  0  3  0  0  0  0  0  0
  1  2  1  0  0  0  0
  1 25  1  0  0  0  0
  1  4  1  0  0  0  0
  3  1  1  0  0  0  0
  4  8  1  0  0  0  0
  5  4  2  0  0  0  0
  5  6  1  0  0  0  0
  6  7  1  0  0  0  0
  7  9  1  0  0  0  0
  8  7  2  0  0  0  0
  9 10  1  0  0  0  0
  9 14  1  0  0  0  0
 10 11  1  0  0  0  0
 11 18  1  0  0  0  0
 11 12  1  0  0  0  0
 13 12  1  0  0  0  0
 13 22  1  0  0  0  0
 13 21  1  0  0  0  0
 14 13  1  0  0  0  0
 15  5  1  0  0  0  0
 16 10  1  0  0  0  0
 17 10  1  0  0  0  0
 19 11  1  0  0  0  0
 20 12  1  0  0  0  0
 23 14  1  0  0  0  0
 24 14  1  0  0  0  0
 25 27  1  0  0  0  0
 26 25  1  0  0  0  0
 28 33  2  0  0  0  0
 28 29  1  0  0  0  0
 29 30  2  0  0  0  0
 30 31  1  0  0  0  0
 30 38  1  0  0  0  0
 32 25  1  0  0  0  0
 32 31  2  0  0  0  0
 33 32  1  0  0  0  0
 34 28  1  0  0  0  0
 35 29  1  0  0  0  0
 36 37  1  0  0  0  0
 37 44  1  0  0  0  0
 38 39  1  0  0  0  0
 38 37  2  0  0  0  0
 39 41  2  0  0  0  0
 40 39  1  0  0  0  0
 41 42  1  0  0  0  0
 41 43  1  0  0  0  0
 44 43  2  0  0  0  0
M  END
>  <minimizedAffinity>
-6.65073204

$$$$

 OpenBabel03272506103D

 44 47  0  0  0  0  0  0  0  0999 V2000
   35.8470   23.1760   31.8860 C   0  0  0  0  0  0  0  0  0  0  0  0
   35.1750   23.5910   32.6600 H   0  0  0  0  0  0  0  0  0  0  0  0
   35.2600   22.3120   31.4540 H   0  0  0  0  0  0  0  0  0  0  0  0
   37.0830   22.6270   32.5530 C   0  0  0  0  0  0  0  0  0  0  0  0
   37.9300   21.7220   31.8180 C   0  0  0  0  0  0  0  0  0  0  0  0
   39.1870   21.3910   33.0150 S   0  0  0  0  0  0  0  0  0  0  0  0
   38.4390   22.4860   34.3340 C   0  0  0  0  0  0  0  0  0  0  0  0
   37.4780   22.8910   33.7610 N   0  0  0  0  0  0  0  0  0  0  0  0
   38.8460   22.8120   35.7000 N   0  0  0  0  0  0  0  0  0  0  0  0
   40.2580   22.7440   35.9480 C   0  0  0  0  0  0  0  0  0  0  0  0
   40.6040   22.6540   37.4060 C   0  0  0  0  0  0  0  0  0  0  0  0
   39.4560   22.4600   38.2790 N   0  0  0  0  0  0  0  0  0  0  0  0
   38.5430   23.5590   37.9490 C   0  0  0  0  0  0  0  0  0  0  0  0
   37.8520   23.1660   36.6740 C   0  0  0  0  0  0  0  0  0  0  0  0
   37.7870   21.3820   30.8290 H   0  0  0  0  0  0  0  0  0  0  0  0
   40.8180   23.6010   35.5180 H   0  0  0  0  0  0  0  0  0  0  0  0
   40.6440   21.8210   35.4600 H   0  0  0  0  0  0  0  0  0  0  0  0
   41.1120   23.5800   37.7600 H   0  0  0  0  0  0  0  0  0  0  0  0
   41.3010   21.8140   37.6200 H   0  0  0  0  0  0  0  0  0  0  0  0
   39.0010   21.5620   38.0010 H   0  0  0  0  0  0  0  0  0  0  0  0
   37.7990   23.7070   38.7610 H   0  0  0  0  0  0  0  0  0  0  0  0
   39.1420   24.4570   37.7970 H   0  0  0  0  0  0  0  0  0  0  0  0
   37.2320   24.0330   36.3470 H   0  0  0  0  0  0  0  0  0  0  0  0
   37.1990   22.2930   36.8440 H   0  0  0  0  0  0  0  0  0  0  0  0
   36.1790   24.0800   30.7760 C   0  0  0  0  0  0  0  0  0  0  0  0
   35.3790   24.1790   30.0160 H   0  0  0  0  0  0  0  0  0  0  0  0
   37.0910   23.7280   30.2410 H   0  0  0  0  0  0  0  0  0  0  0  0
   35.8330   27.6060   31.8660 C   0  0  0  0  0  0  0  0  0  0  0  0
   37.1270   27.9370   32.2350 C   0  0  0  0  0  0  0  0  0  0  0  0
   38.1210   26.9710   32.1140 C   0  0  0  0  0  0  0  0  0  0  0  0
   37.7450   25.7510   31.6370 N   0  0  0  0  0  0  0  0  0  0  0  0
   36.4740   25.4740   31.2900 C   0  0  0  0  0  0  0  0  0  0  0  0
   35.5400   26.3950   31.4070 N   0  0  0  0  0  0  0  0  0  0  0  0
   35.0810   28.3640   31.9660 H   0  0  0  0  0  0  0  0  0  0  0  0
   37.3370   28.8830   32.6120 H   0  0  0  0  0  0  0  0  0  0  0  0
   39.0580   26.7400   35.2340 Br  0  0  0  0  0  0  0  0  0  0  0  0
   40.1260   27.0330   33.6960 C   0  0  0  0  0  0  0  0  0  0  0  0
   39.5190   27.1010   32.4720 C   0  0  0  0  0  0  0  0  0  0  0  0
   40.4220   27.3650   31.4650 C   0  0  0  0  0  0  0  0  0  0  0  0
   40.1300   27.4540   30.4320 H   0  0  0  0  0  0  0  0  0  0  0  0
   41.7730   27.5390   31.6520 C   0  0  0  0  0  0  0  0  0  0  0  0
   42.4540   27.7440   30.8400 H   0  0  0  0  0  0  0  0  0  0  0  0
   42.3230   27.4560   32.9090 C   0  0  0  0  0  3  0  0  0  0  0  0
   41.4550   27.1950   33.9470 C   0  0  0  0  0  3  0  0  0  0  0  0
  1  4  1  0  0  0  0
  1  2  1  0  0  0  0
  3  1  1  0  0  0  0
  4  8  1  0  0  0  0
  5  4  2  0  0  0  0
  5  6  1  0  0  0  0
  6  7  1  0  0  0  0
  7  9  1  0  0  0  0
  8  7  2  0  0  0  0
  9 10  1  0  0  0  0
  9 14  1  0  0  0  0
 10 11  1  0  0  0  0
 11 19  1  0  0  0  0
 11 18  1  0  0  0  0
 11 12  1  0  0  0  0
 13 12  1  0  0  0  0
 13 21  1  0  0  0  0
 14 24  1  0  0  0  0
 14 13  1  0  0  0  0
 15  5  1  0  0  0  0
 16 10  1  0  0  0  0
 17 10  1  0  0  0  0
 20 12  1  0  0  0  0
 22 13  1  0  0  0  0
 23 14  1  0  0  0  0
 25 32  1  0  0  0  0
 25  1  1  0  0  0  0
 26 25  1  0  0  0  0
 27 25  1  0  0  0  0
 28 34  1  0  0  0  0
 28 29  1  0  0  0  0
 29 35  1  0  0  0  0
 30 29  2  0  0  0  0
 30 38  1  0  0  0  0
 31 30  1  0  0  0  0
 32 33  1  0  0  0  0
 32 31  2  0  0  0  0
 33 28  2  0  0  0  0
 37 44  1  0  0  0  0
 37 36  1  0  0  0  0
 38 37  2  0  0  0  0
 39 41  2  0  0  0  0
 39 38  1  0  0  0  0
 40 39  1  0  0  0  0
 41 43  1  0  0  0  0
 42 41  1  0  0  0  0
 43 44  2  0  0  0  0
M  END
>  <minimizedAffinity>
-6.36195564

$$$$

 OpenBabel03272506103D

 44 47  0  0  0  0  0  0  0  0999 V2000
   36.1480   26.0190   31.7160 C   0  0  0  0  0  0  0  0  0  0  0  0
   35.1300   25.7500   32.0540 H   0  0  0  0  0  0  0  0  0  0  0  0
   35.9690   26.6370   30.7860 H   0  0  0  0  0  0  0  0  0  0  0  0
   36.8820   24.7630   31.3210 C   0  0  0  0  0  0  0  0  0  0  0  0
   38.1380   24.8770   30.6230 C   0  0  0  0  0  0  0  0  0  0  0  0
   38.5570   23.1740   30.4040 S   0  0  0  0  0  0  0  0  0  0  0  0
   37.0260   22.5250   31.2590 C   0  0  0  0  0  0  0  0  0  0  0  0
   36.4890   23.5470   31.5480 N   0  0  0  0  0  0  0  0  0  0  0  0
   36.5440   21.1730   31.5370 N   0  0  0  0  0  0  0  0  0  0  0  0
   37.5670   20.1770   31.6770 C   0  0  0  0  0  0  0  0  0  0  0  0
   37.0580   18.7730   31.5280 C   0  0  0  0  0  0  0  0  0  0  0  0
   35.6750   18.6860   31.0860 N   0  0  0  0  0  0  0  0  0  0  0  0
   34.9200   19.4960   32.0470 C   0  0  0  0  0  0  0  0  0  0  0  0
   35.1330   20.9290   31.6500 C   0  0  0  0  0  0  0  0  0  0  0  0
   38.6280   25.7690   30.3430 H   0  0  0  0  0  0  0  0  0  0  0  0
   38.1100   20.2420   32.6430 H   0  0  0  0  0  0  0  0  0  0  0  0
   38.3150   20.3440   30.8680 H   0  0  0  0  0  0  0  0  0  0  0  0
   37.1130   18.2190   32.4930 H   0  0  0  0  0  0  0  0  0  0  0  0
   37.6550   18.1860   30.7960 H   0  0  0  0  0  0  0  0  0  0  0  0
   35.6160   19.1480   30.1510 H   0  0  0  0  0  0  0  0  0  0  0  0
   33.8390   19.2420   32.0100 H   0  0  0  0  0  0  0  0  0  0  0  0
   35.3340   19.3090   33.0390 H   0  0  0  0  0  0  0  0  0  0  0  0
   34.6560   21.5670   32.4300 H   0  0  0  0  0  0  0  0  0  0  0  0
   34.6610   21.1320   30.6740 H   0  0  0  0  0  0  0  0  0  0  0  0
   36.9340   26.8430   32.6450 C   0  0  0  0  0  0  0  0  0  0  0  0
   38.0310   26.7700   32.5010 H   0  0  0  0  0  0  0  0  0  0  0  0
   36.7270   26.5530   33.7010 H   0  0  0  0  0  0  0  0  0  0  0  0
   36.4870   30.2770   31.3220 C   0  0  0  0  0  0  0  0  0  0  0  0
   35.8540   30.9250   32.3700 C   0  0  0  0  0  0  0  0  0  0  0  0
   35.5780   30.2050   33.5290 C   0  0  0  0  0  0  0  0  0  0  0  0
   35.9540   28.8950   33.5480 N   0  0  0  0  0  0  0  0  0  0  0  0
   36.5680   28.3060   32.5050 C   0  0  0  0  0  0  0  0  0  0  0  0
   36.8260   28.9960   31.4120 N   0  0  0  0  0  0  0  0  0  0  0  0
   36.6910   30.8480   30.4380 H   0  0  0  0  0  0  0  0  0  0  0  0
   35.5770   31.9220   32.2760 H   0  0  0  0  0  0  0  0  0  0  0  0
   32.4290   29.5010   34.0310 Br  0  0  0  0  0  0  0  0  0  0  0  0
   33.6080   30.5020   35.1270 C   0  0  0  0  0  0  0  0  0  0  0  0
   34.9010   30.6810   34.7170 C   0  0  0  0  0  0  0  0  0  0  0  0
   35.6130   31.4680   35.5960 C   0  0  0  0  0  0  0  0  0  0  0  0
   36.6500   31.7180   35.4420 H   0  0  0  0  0  0  0  0  0  0  0  0
   35.1010   32.0120   36.7500 C   0  0  0  0  0  0  0  0  0  0  0  0
   35.6880   32.6240   37.4180 H   0  0  0  0  0  0  0  0  0  0  0  0
   33.7910   31.7930   37.1080 C   0  0  0  0  0  3  0  0  0  0  0  0
   33.0420   31.0120   36.2550 C   0  0  0  0  0  3  0  0  0  0  0  0
  1  2  1  0  0  0  0
  1 25  1  0  0  0  0
  3  1  1  0  0  0  0
  4  8  1  0  0  0  0
  4  1  1  0  0  0  0
  5  4  2  0  0  0  0
  6  5  1  0  0  0  0
  6  7  1  0  0  0  0
  7  9  1  0  0  0  0
  7  8  2  0  0  0  0
  9 14  1  0  0  0  0
  9 10  1  0  0  0  0
 10 16  1  0  0  0  0
 11 10  1  0  0  0  0
 11 18  1  0  0  0  0
 12 11  1  0  0  0  0
 12 13  1  0  0  0  0
 13 22  1  0  0  0  0
 14 13  1  0  0  0  0
 14 23  1  0  0  0  0
 15  5  1  0  0  0  0
 17 10  1  0  0  0  0
 19 11  1  0  0  0  0
 20 12  1  0  0  0  0
 21 13  1  0  0  0  0
 24 14  1  0  0  0  0
 25 27  1  0  0  0  0
 26 25  1  0  0  0  0
 28 33  2  0  0  0  0
 28 29  1  0  0  0  0
 29 30  2  0  0  0  0
 30 31  1  0  0  0  0
 30 38  1  0  0  0  0
 32 25  1  0  0  0  0
 32 31  2  0  0  0  0
 33 32  1  0  0  0  0
 34 28  1  0  0  0  0
 35 29  1  0  0  0  0
 36 37  1  0  0  0  0
 37 44  1  0  0  0  0
 38 37  2  0  0  0  0
 38 39  1  0  0  0  0
 39 41  2  0  0  0  0
 40 39  1  0  0  0  0
 41 43  1  0  0  0  0
 41 42  1  0  0  0  0
 44 43  2  0  0  0  0
M  END
>  <minimizedAffinity>
-6.07594824

$$$$

 OpenBabel03272506103D

 44 47  0  0  0  0  0  0  0  0999 V2000
   37.5650   27.5780   33.5000 C   0  0  0  0  0  0  0  0  0  0  0  0
   37.6040   27.0880   34.4900 H   0  0  0  0  0  0  0  0  0  0  0  0
   38.4500   28.2810   33.5100 H   0  0  0  0  0  0  0  0  0  0  0  0
   36.3030   28.3990   33.4080 C   0  0  0  0  0  0  0  0  0  0  0  0
   35.4420   28.2320   32.2650 C   0  0  0  0  0  0  0  0  0  0  0  0
   34.1590   29.3870   32.6390 S   0  0  0  0  0  0  0  0  0  0  0  0
   34.9170   29.9460   34.2540 C   0  0  0  0  0  0  0  0  0  0  0  0
   35.8980   29.2730   34.2780 N   0  0  0  0  0  0  0  0  0  0  0  0
   34.5000   30.9210   35.2610 N   0  0  0  0  0  0  0  0  0  0  0  0
   33.0830   31.1280   35.3580 C   0  0  0  0  0  0  0  0  0  0  0  0
   32.7130   32.4030   36.0590 C   0  0  0  0  0  0  0  0  0  0  0  0
   33.8420   33.2770   36.3380 N   0  0  0  0  0  0  0  0  0  0  0  0
   34.7910   32.4420   37.0810 C   0  0  0  0  0  0  0  0  0  0  0  0
   35.4890   31.5880   36.0600 C   0  0  0  0  0  0  0  0  0  0  0  0
   35.5900   27.5770   31.4510 H   0  0  0  0  0  0  0  0  0  0  0  0
   32.5550   30.2950   35.8670 H   0  0  0  0  0  0  0  0  0  0  0  0
   32.6780   31.1920   34.3230 H   0  0  0  0  0  0  0  0  0  0  0  0
   32.2270   32.1980   37.0410 H   0  0  0  0  0  0  0  0  0  0  0  0
   31.9900   33.0090   35.4720 H   0  0  0  0  0  0  0  0  0  0  0  0
   34.2760   33.5300   35.4220 H   0  0  0  0  0  0  0  0  0  0  0  0
   35.5270   33.0720   37.6240 H   0  0  0  0  0  0  0  0  0  0  0  0
   34.2200   31.8210   37.7720 H   0  0  0  0  0  0  0  0  0  0  0  0
   36.1380   30.8690   36.6130 H   0  0  0  0  0  0  0  0  0  0  0  0
   36.1150   32.2110   35.4000 H   0  0  0  0  0  0  0  0  0  0  0  0
   37.7240   26.6890   32.3390 C   0  0  0  0  0  0  0  0  0  0  0  0
   38.6730   26.8340   31.7840 H   0  0  0  0  0  0  0  0  0  0  0  0
   36.8960   26.8410   31.6100 H   0  0  0  0  0  0  0  0  0  0  0  0
   37.2970   23.0070   32.3560 C   0  0  0  0  0  0  0  0  0  0  0  0
   37.6490   22.6670   33.6510 C   0  0  0  0  0  0  0  0  0  0  0  0
   38.0310   23.6810   34.5250 C   0  0  0  0  0  0  0  0  0  0  0  0
   38.0310   24.9530   34.0360 N   0  0  0  0  0  0  0  0  0  0  0  0
   37.6800   25.2370   32.7670 C   0  0  0  0  0  0  0  0  0  0  0  0
   37.3200   24.2700   31.9480 N   0  0  0  0  0  0  0  0  0  0  0  0
   37.0060   22.2120   31.6970 H   0  0  0  0  0  0  0  0  0  0  0  0
   37.6460   21.6720   33.9500 H   0  0  0  0  0  0  0  0  0  0  0  0
   40.8720   22.2300   35.2210 Br  0  0  0  0  0  0  0  0  0  0  0  0
   39.6020   22.9790   36.4130 C   0  0  0  0  0  0  0  0  0  0  0  0
   38.4640   23.5380   35.9010 C   0  0  0  0  0  0  0  0  0  0  0  0
   37.6230   23.9920   36.8940 C   0  0  0  0  0  0  0  0  0  0  0  0
   36.6780   24.4650   36.6830 H   0  0  0  0  0  0  0  0  0  0  0  0
   37.8840   23.9040   38.2400 C   0  0  0  0  0  0  0  0  0  0  0  0
   37.2040   24.2710   38.9930 H   0  0  0  0  0  0  0  0  0  0  0  0
   39.0500   23.3310   38.6920 C   0  0  0  0  0  3  0  0  0  0  0  0
   39.9190   22.8610   37.7320 C   0  0  0  0  0  3  0  0  0  0  0  0
  1  3  1  0  0  0  0
  1  2  1  0  0  0  0
  4  1  1  0  0  0  0
  4  8  1  0  0  0  0
  5  6  1  0  0  0  0
  5  4  2  0  0  0  0
  6  7  1  0  0  0  0
  7  8  2  0  0  0  0
  7  9  1  0  0  0  0
  9 10  1  0  0  0  0
  9 14  1  0  0  0  0
 10 16  1  0  0  0  0
 10 11  1  0  0  0  0
 11 12  1  0  0  0  0
 11 18  1  0  0  0  0
 12 13  1  0  0  0  0
 13 21  1  0  0  0  0
 13 22  1  0  0  0  0
 14 23  1  0  0  0  0
 14 13  1  0  0  0  0
 15  5  1  0  0  0  0
 17 10  1  0  0  0  0
 19 11  1  0  0  0  0
 20 12  1  0  0  0  0
 24 14  1  0  0  0  0
 25 32  1  0  0  0  0
 25  1  1  0  0  0  0
 26 25  1  0  0  0  0
 27 25  1  0  0  0  0
 28 29  1  0  0  0  0
 29 35  1  0  0  0  0
 29 30  2  0  0  0  0
 30 38  1  0  0  0  0
 31 30  1  0  0  0  0
 32 31  2  0  0  0  0
 33 28  2  0  0  0  0
 33 32  1  0  0  0  0
 34 28  1  0  0  0  0
 36 37  1  0  0  0  0
 37 44  1  0  0  0  0
 38 37  2  0  0  0  0
 38 39  1  0  0  0  0
 39 41  2  0  0  0  0
 40 39  1  0  0  0  0
 41 43  1  0  0  0  0
 41 42  1  0  0  0  0
 44 43  2  0  0  0  0
M  END
>  <minimizedAffinity>
-6.04351664

$$$$

 OpenBabel03272506103D

 44 47  0  0  0  0  0  0  0  0999 V2000
   37.5320   25.4280   31.0940 C   0  0  0  0  0  0  0  0  0  0  0  0
   37.2290   25.9470   30.1660 H   0  0  0  0  0  0  0  0  0  0  0  0
   38.4580   25.9850   31.4250 H   0  0  0  0  0  0  0  0  0  0  0  0
   37.9220   24.0110   30.7570 C   0  0  0  0  0  0  0  0  0  0  0  0
   39.0740   23.7810   29.9210 C   0  0  0  0  0  0  0  0  0  0  0  0
   39.0840   22.0160   29.8390 S   0  0  0  0  0  0  0  0  0  0  0  0
   37.5700   21.8010   30.9150 C   0  0  0  0  0  0  0  0  0  0  0  0
   37.3080   22.9370   31.1520 N   0  0  0  0  0  0  0  0  0  0  0  0
   36.8470   20.6190   31.3840 N   0  0  0  0  0  0  0  0  0  0  0  0
   37.6410   19.4310   31.5180 C   0  0  0  0  0  0  0  0  0  0  0  0
   36.8260   18.1720   31.5730 C   0  0  0  0  0  0  0  0  0  0  0  0
   35.4120   18.3660   31.2910 N   0  0  0  0  0  0  0  0  0  0  0  0
   34.9780   19.3990   32.2370 C   0  0  0  0  0  0  0  0  0  0  0  0
   35.4430   20.7110   31.6710 C   0  0  0  0  0  0  0  0  0  0  0  0
   39.7050   24.5140   29.4990 H   0  0  0  0  0  0  0  0  0  0  0  0
   38.3030   19.4480   32.4090 H   0  0  0  0  0  0  0  0  0  0  0  0
   38.2980   19.3600   30.6210 H   0  0  0  0  0  0  0  0  0  0  0  0
   36.8820   17.6980   32.5790 H   0  0  0  0  0  0  0  0  0  0  0  0
   37.1840   17.4090   30.8470 H   0  0  0  0  0  0  0  0  0  0  0  0
   35.3360   18.7550   30.3250 H   0  0  0  0  0  0  0  0  0  0  0  0
   33.8720   19.3950   32.3420 H   0  0  0  0  0  0  0  0  0  0  0  0
   35.4640   19.2020   33.1930 H   0  0  0  0  0  0  0  0  0  0  0  0
   35.2180   21.5000   32.4260 H   0  0  0  0  0  0  0  0  0  0  0  0
   34.9060   20.9380   30.7350 H   0  0  0  0  0  0  0  0  0  0  0  0
   36.5680   25.4810   32.2020 C   0  0  0  0  0  0  0  0  0  0  0  0
   36.0830   24.5100   32.4280 H   0  0  0  0  0  0  0  0  0  0  0  0
   35.7520   26.2060   31.9800 H   0  0  0  0  0  0  0  0  0  0  0  0
   37.6270   27.5060   35.1200 C   0  0  0  0  0  0  0  0  0  0  0  0
   38.5070   26.6590   35.7730 C   0  0  0  0  0  0  0  0  0  0  0  0
   38.7470   25.4000   35.2290 C   0  0  0  0  0  0  0  0  0  0  0  0
   38.0890   25.0880   34.0770 N   0  0  0  0  0  0  0  0  0  0  0  0
   37.2420   25.9450   33.4760 C   0  0  0  0  0  0  0  0  0  0  0  0
   37.0220   27.1340   33.9990 N   0  0  0  0  0  0  0  0  0  0  0  0
   37.4550   28.4710   35.5550 H   0  0  0  0  0  0  0  0  0  0  0  0
   38.9580   26.9570   36.6610 H   0  0  0  0  0  0  0  0  0  0  0  0
   37.6860   23.4810   37.6480 Br  0  0  0  0  0  0  0  0  0  0  0  0
   39.3600   23.4500   36.7600 C   0  0  0  0  0  0  0  0  0  0  0  0
   39.5990   24.3590   35.7670 C   0  0  0  0  0  0  0  0  0  0  0  0
   40.8730   24.2390   35.2570 C   0  0  0  0  0  0  0  0  0  0  0  0
   41.2440   24.8690   34.4650 H   0  0  0  0  0  0  0  0  0  0  0  0
   41.8020   23.3190   35.6820 C   0  0  0  0  0  0  0  0  0  0  0  0
   42.7930   23.2500   35.2590 H   0  0  0  0  0  0  0  0  0  0  0  0
   41.4990   22.4280   36.6850 C   0  0  0  0  0  3  0  0  0  0  0  0
   40.2340   22.5150   37.2250 C   0  0  0  0  0  3  0  0  0  0  0  0
  1  3  1  0  0  0  0
  1 25  1  0  0  0  0
  2  1  1  0  0  0  0
  4  1  1  0  0  0  0
  4  8  1  0  0  0  0
  5  4  2  0  0  0  0
  6  5  1  0  0  0  0
  6  7  1  0  0  0  0
  7  8  2  0  0  0  0
  7  9  1  0  0  0  0
  9 10  1  0  0  0  0
  9 14  1  0  0  0  0
 10 11  1  0  0  0  0
 10 16  1  0  0  0  0
 11 18  1  0  0  0  0
 12 11  1  0  0  0  0
 12 13  1  0  0  0  0
 13 21  1  0  0  0  0
 13 22  1  0  0  0  0
 14 13  1  0  0  0  0
 14 23  1  0  0  0  0
 15  5  1  0  0  0  0
 17 10  1  0  0  0  0
 19 11  1  0  0  0  0
 20 12  1  0  0  0  0
 24 14  1  0  0  0  0
 25 26  1  0  0  0  0
 25 32  1  0  0  0  0
 27 25  1  0  0  0  0
 28 34  1  0  0  0  0
 28 29  1  0  0  0  0
 29 35  1  0  0  0  0
 30 38  1  0  0  0  0
 30 29  2  0  0  0  0
 31 30  1  0  0  0  0
 32 33  1  0  0  0  0
 32 31  2  0  0  0  0
 33 28  2  0  0  0  0
 37 44  1  0  0  0  0
 37 36  1  0  0  0  0
 38 37  2  0  0  0  0
 39 41  2  0  0  0  0
 39 38  1  0  0  0  0
 40 39  1  0  0  0  0
 41 43  1  0  0  0  0
 42 41  1  0  0  0  0
 43 44  2  0  0  0  0
M  END
>  <minimizedAffinity>
-5.98824835

$$$$

 OpenBabel03272506103D

 44 47  0  0  0  0  0  0  0  0999 V2000
   37.6990   26.6110   34.9840 C   0  0  0  0  0  0  0  0  0  0  0  0
   36.9600   26.8870   35.7590 H   0  0  0  0  0  0  0  0  0  0  0  0
   38.6800   26.9880   35.4000 H   0  0  0  0  0  0  0  0  0  0  0  0
   37.3920   27.3740   33.7200 C   0  0  0  0  0  0  0  0  0  0  0  0
   36.2870   28.2990   33.7120 C   0  0  0  0  0  0  0  0  0  0  0  0
   36.3610   28.8970   32.0510 S   0  0  0  0  0  0  0  0  0  0  0  0
   37.8370   27.8530   31.5750 C   0  0  0  0  0  0  0  0  0  0  0  0
   38.0370   27.2800   32.5980 N   0  0  0  0  0  0  0  0  0  0  0  0
   38.5940   27.7160   30.3310 N   0  0  0  0  0  0  0  0  0  0  0  0
   38.6000   28.8780   29.4890 C   0  0  0  0  0  0  0  0  0  0  0  0
   38.9950   28.5850   28.0710 C   0  0  0  0  0  0  0  0  0  0  0  0
   39.1110   27.1670   27.7660 N   0  0  0  0  0  0  0  0  0  0  0  0
   40.0460   26.6420   28.7660 C   0  0  0  0  0  0  0  0  0  0  0  0
   39.2590   26.4780   30.0350 C   0  0  0  0  0  0  0  0  0  0  0  0
   35.6400   28.5200   34.5170 H   0  0  0  0  0  0  0  0  0  0  0  0
   39.2620   29.6850   29.8670 H   0  0  0  0  0  0  0  0  0  0  0  0
   37.5640   29.2850   29.4660 H   0  0  0  0  0  0  0  0  0  0  0  0
   39.9820   29.0390   27.8230 H   0  0  0  0  0  0  0  0  0  0  0  0
   38.2670   29.0000   27.3390 H   0  0  0  0  0  0  0  0  0  0  0  0
   38.1750   26.7340   27.9340 H   0  0  0  0  0  0  0  0  0  0  0  0
   40.4610   25.6650   28.4400 H   0  0  0  0  0  0  0  0  0  0  0  0
   40.8380   27.3800   28.9020 H   0  0  0  0  0  0  0  0  0  0  0  0
   39.9740   26.1810   30.8380 H   0  0  0  0  0  0  0  0  0  0  0  0
   38.4970   25.6880   29.9160 H   0  0  0  0  0  0  0  0  0  0  0  0
   37.8530   25.1710   34.7300 C   0  0  0  0  0  0  0  0  0  0  0  0
   38.5630   24.9280   33.9150 H   0  0  0  0  0  0  0  0  0  0  0  0
   36.8760   24.7130   34.4560 H   0  0  0  0  0  0  0  0  0  0  0  0
   38.1090   23.7800   38.1570 C   0  0  0  0  0  0  0  0  0  0  0  0
   39.3370   23.1400   38.1330 C   0  0  0  0  0  0  0  0  0  0  0  0
   40.0850   23.1790   36.9590 C   0  0  0  0  0  0  0  0  0  0  0  0
   39.5470   23.8510   35.9030 N   0  0  0  0  0  0  0  0  0  0  0  0
   38.3470   24.4590   35.9720 C   0  0  0  0  0  0  0  0  0  0  0  0
   37.6470   24.4180   37.0880 N   0  0  0  0  0  0  0  0  0  0  0  0
   37.5470   23.7390   39.0700 H   0  0  0  0  0  0  0  0  0  0  0  0
   39.6760   22.6280   38.9710 H   0  0  0  0  0  0  0  0  0  0  0  0
   42.4020   24.7570   35.2850 Br  0  0  0  0  0  0  0  0  0  0  0  0
   42.4690   23.0270   36.0550 C   0  0  0  0  0  0  0  0  0  0  0  0
   41.3690   22.5530   36.7160 C   0  0  0  0  0  0  0  0  0  0  0  0
   41.5590   21.2680   37.1740 C   0  0  0  0  0  0  0  0  0  0  0  0
   40.8030   20.7290   37.7200 H   0  0  0  0  0  0  0  0  0  0  0  0
   42.7100   20.5370   36.9980 C   0  0  0  0  0  0  0  0  0  0  0  0
   42.8260   19.5310   37.3710 H   0  0  0  0  0  0  0  0  0  0  0  0
   43.7830   21.0710   36.3250 C   0  0  0  0  0  3  0  0  0  0  0  0
   43.6360   22.3550   35.8480 C   0  0  0  0  0  3  0  0  0  0  0  0
  1  3  1  0  0  0  0
  1  2  1  0  0  0  0
  4  1  1  0  0  0  0
  5  4  2  0  0  0  0
  5 15  1  0  0  0  0
  6  5  1  0  0  0  0
  7  6  1  0  0  0  0
  7  8  2  0  0  0  0
  8  4  1  0  0  0  0
  9  7  1  0  0  0  0
 10 16  1  0  0  0  0
 10  9  1  0  0  0  0
 11 10  1  0  0  0  0
 12 20  1  0  0  0  0
 12 11  1  0  0  0  0
 12 13  1  0  0  0  0
 13 22  1  0  0  0  0
 13 14  1  0  0  0  0
 14  9  1  0  0  0  0
 14 23  1  0  0  0  0
 17 10  1  0  0  0  0
 18 11  1  0  0  0  0
 19 11  1  0  0  0  0
 21 13  1  0  0  0  0
 24 14  1  0  0  0  0
 25  1  1  0  0  0  0
 25 32  1  0  0  0  0
 26 25  1  0  0  0  0
 27 25  1  0  0  0  0
 28 34  1  0  0  0  0
 29 28  1  0  0  0  0
 29 35  1  0  0  0  0
 30 29  2  0  0  0  0
 31 32  2  0  0  0  0
 31 30  1  0  0  0  0
 32 33  1  0  0  0  0
 33 28  2  0  0  0  0
 36 37  1  0  0  0  0
 37 38  1  0  0  0  0
 38 30  1  0  0  0  0
 38 39  2  0  0  0  0
 39 40  1  0  0  0  0
 41 39  1  0  0  0  0
 41 42  1  0  0  0  0
 43 41  2  0  0  0  0
 44 37  2  0  0  0  0
 44 43  1  0  0  0  0
M  END
>  <minimizedAffinity>
-5.98602247

$$$$

 OpenBabel03272506103D

 44 47  0  0  0  0  0  0  0  0999 V2000
   37.9120   25.6670   32.8240 C   0  0  0  0  0  0  0  0  0  0  0  0
   37.2820   25.7690   31.9210 H   0  0  0  0  0  0  0  0  0  0  0  0
   38.9650   25.8020   32.4370 H   0  0  0  0  0  0  0  0  0  0  0  0
   37.7770   24.2640   33.3600 C   0  0  0  0  0  0  0  0  0  0  0  0
   38.1380   24.0000   34.7300 C   0  0  0  0  0  0  0  0  0  0  0  0
   37.8080   22.2680   34.8380 S   0  0  0  0  0  0  0  0  0  0  0  0
   37.2360   22.1070   33.0660 C   0  0  0  0  0  0  0  0  0  0  0  0
   37.3590   23.2300   32.6950 N   0  0  0  0  0  0  0  0  0  0  0  0
   36.7590   20.9710   32.2770 N   0  0  0  0  0  0  0  0  0  0  0  0
   36.1170   19.9320   33.0310 C   0  0  0  0  0  0  0  0  0  0  0  0
   36.0320   18.6270   32.2960 C   0  0  0  0  0  0  0  0  0  0  0  0
   36.7760   18.5990   31.0450 N   0  0  0  0  0  0  0  0  0  0  0  0
   36.2740   19.7480   30.2830 C   0  0  0  0  0  0  0  0  0  0  0  0
   36.9510   20.9610   30.8540 C   0  0  0  0  0  0  0  0  0  0  0  0
   38.4990   24.6990   35.4350 H   0  0  0  0  0  0  0  0  0  0  0  0
   35.0930   20.2030   33.3630 H   0  0  0  0  0  0  0  0  0  0  0  0
   36.7240   19.7550   33.9480 H   0  0  0  0  0  0  0  0  0  0  0  0
   34.9770   18.3760   32.0370 H   0  0  0  0  0  0  0  0  0  0  0  0
   36.4160   17.7780   32.9020 H   0  0  0  0  0  0  0  0  0  0  0  0
   37.7800   18.7730   31.2740 H   0  0  0  0  0  0  0  0  0  0  0  0
   36.5190   19.6400   29.2050 H   0  0  0  0  0  0  0  0  0  0  0  0
   35.1960   19.8040   30.4370 H   0  0  0  0  0  0  0  0  0  0  0  0
   36.5040   21.8570   30.3630 H   0  0  0  0  0  0  0  0  0  0  0  0
   38.0330   20.9320   30.6450 H   0  0  0  0  0  0  0  0  0  0  0  0
   37.6970   26.6750   33.8720 C   0  0  0  0  0  0  0  0  0  0  0  0
   38.6310   27.0830   34.3080 H   0  0  0  0  0  0  0  0  0  0  0  0
   37.1060   26.2480   34.7140 H   0  0  0  0  0  0  0  0  0  0  0  0
   36.1450   29.1600   31.6000 C   0  0  0  0  0  0  0  0  0  0  0  0
   35.4650   29.9880   32.4770 C   0  0  0  0  0  0  0  0  0  0  0  0
   35.5310   29.7130   33.8400 C   0  0  0  0  0  0  0  0  0  0  0  0
   36.2680   28.6310   34.2180 N   0  0  0  0  0  0  0  0  0  0  0  0
   36.9130   27.8520   33.3290 C   0  0  0  0  0  0  0  0  0  0  0  0
   36.8460   28.1220   32.0410 N   0  0  0  0  0  0  0  0  0  0  0  0
   36.0830   29.3890   30.5540 H   0  0  0  0  0  0  0  0  0  0  0  0
   34.9040   30.7850   32.1150 H   0  0  0  0  0  0  0  0  0  0  0  0
   32.3180   29.3840   34.3210 Br  0  0  0  0  0  0  0  0  0  0  0  0
   33.5590   30.4350   35.2940 C   0  0  0  0  0  0  0  0  0  0  0  0
   34.8720   30.4300   34.9130 C   0  0  0  0  0  0  0  0  0  0  0  0
   35.6340   31.2780   35.6870 C   0  0  0  0  0  0  0  0  0  0  0  0
   36.6940   31.4060   35.5370 H   0  0  0  0  0  0  0  0  0  0  0  0
   35.1490   32.0410   36.7210 C   0  0  0  0  0  0  0  0  0  0  0  0
   35.7740   32.6960   37.3090 H   0  0  0  0  0  0  0  0  0  0  0  0
   33.8150   32.0000   37.0570 C   0  0  0  0  0  3  0  0  0  0  0  0
   33.0160   31.1660   36.3070 C   0  0  0  0  0  3  0  0  0  0  0  0
  1  4  1  0  0  0  0
  1 25  1  0  0  0  0
  2  1  1  0  0  0  0
  3  1  1  0  0  0  0
  4  5  2  0  0  0  0
  5  6  1  0  0  0  0
  5 15  1  0  0  0  0
  7  6  1  0  0  0  0
  8  7  2  0  0  0  0
  8  4  1  0  0  0  0
  9 10  1  0  0  0  0
  9  7  1  0  0  0  0
 10 16  1  0  0  0  0
 10 17  1  0  0  0  0
 11 19  1  0  0  0  0
 11 10  1  0  0  0  0
 12 20  1  0  0  0  0
 12 11  1  0  0  0  0
 13 22  1  0  0  0  0
 13 14  1  0  0  0  0
 13 12  1  0  0  0  0
 14  9  1  0  0  0  0
 18 11  1  0  0  0  0
 21 13  1  0  0  0  0
 23 14  1  0  0  0  0
 24 14  1  0  0  0  0
 25 26  1  0  0  0  0
 25 27  1  0  0  0  0
 28 33  2  0  0  0  0
 28 29  1  0  0  0  0
 29 30  2  0  0  0  0
 30 31  1  0  0  0  0
 30 38  1  0  0  0  0
 32 25  1  0  0  0  0
 32 31  2  0  0  0  0
 33 32  1  0  0  0  0
 34 28  1  0  0  0  0
 35 29  1  0  0  0  0
 36 37  1  0  0  0  0
 37 44  1  0  0  0  0
 38 37  2  0  0  0  0
 38 39  1  0  0  0  0
 39 41  2  0  0  0  0
 40 39  1  0  0  0  0
 41 43  1  0  0  0  0
 41 42  1  0  0  0  0
 44 43  2  0  0  0  0
M  END
>  <minimizedAffinity>
-5.81882715

$$$$

 OpenBabel03272506103D

 44 47  0  0  0  0  0  0  0  0999 V2000
   37.2060   27.8980   32.6630 C   0  0  0  0  0  0  0  0  0  0  0  0
   37.8170   28.4830   31.9500 H   0  0  0  0  0  0  0  0  0  0  0  0
   37.2250   28.5170   33.6080 H   0  0  0  0  0  0  0  0  0  0  0  0
   37.8950   26.5850   32.9370 C   0  0  0  0  0  0  0  0  0  0  0  0
   38.4490   25.8420   31.8340 C   0  0  0  0  0  0  0  0  0  0  0  0
   39.1110   24.4350   32.6740 S   0  0  0  0  0  0  0  0  0  0  0  0
   38.5740   25.0020   34.3740 C   0  0  0  0  0  0  0  0  0  0  0  0
   38.0440   26.0320   34.1020 N   0  0  0  0  0  0  0  0  0  0  0  0
   38.7200   24.4160   35.7060 N   0  0  0  0  0  0  0  0  0  0  0  0
   39.8650   23.5690   35.8780 C   0  0  0  0  0  0  0  0  0  0  0  0
   39.7630   22.6610   37.0680 C   0  0  0  0  0  0  0  0  0  0  0  0
   38.4570   22.6680   37.7110 N   0  0  0  0  0  0  0  0  0  0  0  0
   38.1940   24.0790   38.0120 C   0  0  0  0  0  0  0  0  0  0  0  0
   37.7490   24.7090   36.7230 C   0  0  0  0  0  0  0  0  0  0  0  0
   38.4330   26.1150   30.8150 H   0  0  0  0  0  0  0  0  0  0  0  0
   40.8170   24.1350   35.9620 H   0  0  0  0  0  0  0  0  0  0  0  0
   39.9470   22.9220   34.9750 H   0  0  0  0  0  0  0  0  0  0  0  0
   40.5000   22.9410   37.8560 H   0  0  0  0  0  0  0  0  0  0  0  0
   39.9730   21.6010   36.8060 H   0  0  0  0  0  0  0  0  0  0  0  0
   37.7590   22.3490   37.0040 H   0  0  0  0  0  0  0  0  0  0  0  0
   37.3980   24.1740   38.7820 H   0  0  0  0  0  0  0  0  0  0  0  0
   39.1270   24.5270   38.3540 H   0  0  0  0  0  0  0  0  0  0  0  0
   37.6460   25.8050   36.9030 H   0  0  0  0  0  0  0  0  0  0  0  0
   36.7750   24.2980   36.4090 H   0  0  0  0  0  0  0  0  0  0  0  0
   35.7960   27.7090   32.2910 C   0  0  0  0  0  0  0  0  0  0  0  0
   35.2980   26.8680   32.8140 H   0  0  0  0  0  0  0  0  0  0  0  0
   35.7000   27.5120   31.1990 H   0  0  0  0  0  0  0  0  0  0  0  0
   33.0050   30.1040   32.7530 C   0  0  0  0  0  0  0  0  0  0  0  0
   33.6580   31.2520   33.1720 C   0  0  0  0  0  0  0  0  0  0  0  0
   35.0440   31.2210   33.2990 C   0  0  0  0  0  0  0  0  0  0  0  0
   35.6670   30.0470   32.9980 N   0  0  0  0  0  0  0  0  0  0  0  0
   34.9910   28.9550   32.5930 C   0  0  0  0  0  0  0  0  0  0  0  0
   33.6800   28.9950   32.4750 N   0  0  0  0  0  0  0  0  0  0  0  0
   31.9380   30.1470   32.6610 H   0  0  0  0  0  0  0  0  0  0  0  0
   33.1140   32.1060   33.4050 H   0  0  0  0  0  0  0  0  0  0  0  0
   35.2470   31.9560   36.4740 Br  0  0  0  0  0  0  0  0  0  0  0  0
   36.1470   32.7600   35.0130 C   0  0  0  0  0  0  0  0  0  0  0  0
   35.9080   32.2930   33.7500 C   0  0  0  0  0  0  0  0  0  0  0  0
   36.5990   33.0110   32.7980 C   0  0  0  0  0  0  0  0  0  0  0  0
   36.5370   32.7880   31.7450 H   0  0  0  0  0  0  0  0  0  0  0  0
   37.4350   34.0680   33.0690 C   0  0  0  0  0  0  0  0  0  0  0  0
   37.9620   34.6080   32.2980 H   0  0  0  0  0  0  0  0  0  0  0  0
   37.6360   34.4880   34.3630 C   0  0  0  0  0  3  0  0  0  0  0  0
   36.9620   33.7990   35.3470 C   0  0  0  0  0  3  0  0  0  0  0  0
  1  4  1  0  0  0  0
  1  3  1  0  0  0  0
  2  1  1  0  0  0  0
  4  8  1  0  0  0  0
  5  6  1  0  0  0  0
  5  4  2  0  0  0  0
  6  7  1  0  0  0  0
  7  9  1  0  0  0  0
  8  7  2  0  0  0  0
  9 10  1  0  0  0  0
  9 14  1  0  0  0  0
 10 16  1  0  0  0  0
 10 11  1  0  0  0  0
 11 12  1  0  0  0  0
 11 18  1  0  0  0  0
 12 13  1  0  0  0  0
 13 22  1  0  0  0  0
 13 21  1  0  0  0  0
 14 23  1  0  0  0  0
 14 13  1  0  0  0  0
 15  5  1  0  0  0  0
 17 10  1  0  0  0  0
 19 11  1  0  0  0  0
 20 12  1  0  0  0  0
 24 14  1  0  0  0  0
 25 32  1  0  0  0  0
 25  1  1  0  0  0  0
 25 26  1  0  0  0  0
 27 25  1  0  0  0  0
 28 29  1  0  0  0  0
 29 30  2  0  0  0  0
 29 35  1  0  0  0  0
 30 38  1  0  0  0  0
 31 30  1  0  0  0  0
 32 31  2  0  0  0  0
 33 32  1  0  0  0  0
 33 28  2  0  0  0  0
 34 28  1  0  0  0  0
 37 44  1  0  0  0  0
 37 36  1  0  0  0  0
 38 37  2  0  0  0  0
 39 41  2  0  0  0  0
 39 38  1  0  0  0  0
 40 39  1  0  0  0  0
 41 43  1  0  0  0  0
 42 41  1  0  0  0  0
 43 44  2  0  0  0  0
M  END
>  <minimizedAffinity>
-5.81340647

$$$$

 OpenBabel03272506103D

 44 47  0  0  0  0  0  0  0  0999 V2000
   37.3830   25.8880   35.5310 C   0  0  0  0  0  0  0  0  0  0  0  0
   37.0080   26.5070   36.3670 H   0  0  0  0  0  0  0  0  0  0  0  0
   36.4530   25.3910   35.1230 H   0  0  0  0  0  0  0  0  0  0  0  0
   38.2930   24.8190   36.0810 C   0  0  0  0  0  0  0  0  0  0  0  0
   37.9080   24.1220   37.2820 C   0  0  0  0  0  0  0  0  0  0  0  0
   39.2750   23.0220   37.4850 S   0  0  0  0  0  0  0  0  0  0  0  0
   40.1840   23.6180   35.9640 C   0  0  0  0  0  0  0  0  0  0  0  0
   39.4290   24.4490   35.5720 N   0  0  0  0  0  0  0  0  0  0  0  0
   41.4560   23.2330   35.3550 N   0  0  0  0  0  0  0  0  0  0  0  0
   41.8610   21.8770   35.5920 C   0  0  0  0  0  0  0  0  0  0  0  0
   43.3210   21.6370   35.3430 C   0  0  0  0  0  0  0  0  0  0  0  0
   44.0890   22.8480   35.0950 N   0  0  0  0  0  0  0  0  0  0  0  0
   43.3950   23.5140   33.9880 C   0  0  0  0  0  0  0  0  0  0  0  0
   42.1980   24.1940   34.5870 C   0  0  0  0  0  0  0  0  0  0  0  0
   37.0290   24.2720   37.8460 H   0  0  0  0  0  0  0  0  0  0  0  0
   41.2880   21.1400   34.9920 H   0  0  0  0  0  0  0  0  0  0  0  0
   41.6670   21.6480   36.6650 H   0  0  0  0  0  0  0  0  0  0  0  0
   43.4780   20.9810   34.4560 H   0  0  0  0  0  0  0  0  0  0  0  0
   43.8150   21.1280   36.2000 H   0  0  0  0  0  0  0  0  0  0  0  0
   44.0040   23.4510   35.9440 H   0  0  0  0  0  0  0  0  0  0  0  0
   44.0590   24.2600   33.5010 H   0  0  0  0  0  0  0  0  0  0  0  0
   43.0830   22.7450   33.2800 H   0  0  0  0  0  0  0  0  0  0  0  0
   41.5970   24.6160   33.7480 H   0  0  0  0  0  0  0  0  0  0  0  0
   42.5150   25.0110   35.2570 H   0  0  0  0  0  0  0  0  0  0  0  0
   38.0090   26.6220   34.4220 C   0  0  0  0  0  0  0  0  0  0  0  0
   38.4290   25.9730   33.6270 H   0  0  0  0  0  0  0  0  0  0  0  0
   38.8440   27.2600   34.7930 H   0  0  0  0  0  0  0  0  0  0  0  0
   35.7990   28.2540   31.9330 C   0  0  0  0  0  0  0  0  0  0  0  0
   35.1900   29.2500   32.6770 C   0  0  0  0  0  0  0  0  0  0  0  0
   35.5250   29.3770   34.0220 C   0  0  0  0  0  0  0  0  0  0  0  0
   36.4410   28.4970   34.5170 N   0  0  0  0  0  0  0  0  0  0  0  0
   37.0080   27.5420   33.7560 C   0  0  0  0  0  0  0  0  0  0  0  0
   36.6850   27.4320   32.4830 N   0  0  0  0  0  0  0  0  0  0  0  0
   35.5280   28.1720   30.8990 H   0  0  0  0  0  0  0  0  0  0  0  0
   34.4830   29.8730   32.2370 H   0  0  0  0  0  0  0  0  0  0  0  0
   32.3420   29.3560   34.7490 Br  0  0  0  0  0  0  0  0  0  0  0  0
   33.7040   30.4860   35.4270 C   0  0  0  0  0  0  0  0  0  0  0  0
   34.9850   30.3240   34.9760 C   0  0  0  0  0  0  0  0  0  0  0  0
   35.8440   31.2490   35.5270 C   0  0  0  0  0  0  0  0  0  0  0  0
   36.8950   31.2770   35.2920 H   0  0  0  0  0  0  0  0  0  0  0  0
   35.4750   32.2230   36.4240 C   0  0  0  0  0  0  0  0  0  0  0  0
   36.1750   32.9330   36.8370 H   0  0  0  0  0  0  0  0  0  0  0  0
   34.1690   32.3330   36.8400 C   0  0  0  0  0  3  0  0  0  0  0  0
   33.2750   31.4280   36.3130 C   0  0  0  0  0  3  0  0  0  0  0  0
  1  4  1  0  0  0  0
  1  2  1  0  0  0  0
  3  1  1  0  0  0  0
  4  5  2  0  0  0  0
  5  6  1  0  0  0  0
  5 15  1  0  0  0  0
  7  6  1  0  0  0  0
  8  7  2  0  0  0  0
  8  4  1  0  0  0  0
  9 10  1  0  0  0  0
  9  7  1  0  0  0  0
 10 17  1  0  0  0  0
 11 10  1  0  0  0  0
 11 19  1  0  0  0  0
 12 11  1  0  0  0  0
 12 20  1  0  0  0  0
 13 14  1  0  0  0  0
 13 12  1  0  0  0  0
 14 24  1  0  0  0  0
 14  9  1  0  0  0  0
 16 10  1  0  0  0  0
 18 11  1  0  0  0  0
 21 13  1  0  0  0  0
 22 13  1  0  0  0  0
 23 14  1  0  0  0  0
 25 27  1  0  0  0  0
 25  1  1  0  0  0  0
 26 25  1  0  0  0  0
 28 33  2  0  0  0  0
 28 29  1  0  0  0  0
 29 30  2  0  0  0  0
 30 31  1  0  0  0  0
 30 38  1  0  0  0  0
 32 25  1  0  0  0  0
 32 31  2  0  0  0  0
 33 32  1  0  0  0  0
 34 28  1  0  0  0  0
 35 29  1  0  0  0  0
 36 37  1  0  0  0  0
 37 44  1  0  0  0  0
 38 37  2  0  0  0  0
 38 39  1  0  0  0  0
 39 41  2  0  0  0  0
 40 39  1  0  0  0  0
 41 42  1  0  0  0  0
 41 43  1  0  0  0  0
 44 43  2  0  0  0  0
M  END
>  <minimizedAffinity>
-5.80191135

$$$$
