
 OpenBabel03272509543D

 43 46  0  0  0  0  0  0  0  0999 V2000
   34.5280   28.4550   48.2270 C   0  0  0  0  0  0  0  0  0  0  0  0
   33.9390   29.3960   48.2040 H   0  0  0  0  0  0  0  0  0  0  0  0
   35.3730   28.5800   47.5170 H   0  0  0  0  0  0  0  0  0  0  0  0
   33.6090   27.3350   47.8560 C   0  0  0  0  0  0  0  0  0  0  0  0
   33.7080   26.4350   48.4800 H   0  0  0  0  0  0  0  0  0  0  0  0
   33.8410   26.9930   46.8110 H   0  0  0  0  0  0  0  0  0  0  0  0
   32.1780   27.7470   47.8450 C   0  0  0  0  0  0  0  0  0  0  0  0
   31.4120   27.4870   48.9660 C   0  0  0  0  0  0  0  0  0  0  0  0
   30.0960   27.8330   49.0330 C   0  0  0  0  0  0  0  0  0  0  0  0
   29.5230   28.4330   48.0090 N   0  0  0  0  0  0  0  0  0  0  0  0
   30.2690   28.6960   46.8940 C   0  0  0  0  0  0  0  0  0  0  0  0
   31.5810   28.3660   46.7930 N   0  0  0  0  0  0  0  0  0  0  0  0
   31.8730   26.9950   49.8110 H   0  0  0  0  0  0  0  0  0  0  0  0
   29.5270   27.6070   49.9440 H   0  0  0  0  0  0  0  0  0  0  0  0
   32.1030   30.9100   45.7380 Br  0  0  0  0  0  0  0  0  0  0  0  0
   30.3670   30.3880   45.1080 C   0  0  0  0  0  0  0  0  0  0  0  0
   29.6590   29.3620   45.7410 C   0  0  0  0  0  0  0  0  0  0  0  0
   28.4180   29.0150   45.2620 C   0  0  0  0  0  0  0  0  0  0  0  0
   27.8550   28.2260   45.7360 H   0  0  0  0  0  0  0  0  0  0  0  0
   27.8460   29.6430   44.1760 C   0  0  0  0  0  0  0  0  0  0  0  0
   26.8770   29.3650   43.8110 H   0  0  0  0  0  0  0  0  0  0  0  0
   28.5830   30.6470   43.5870 C   0  0  0  0  0  3  0  0  0  0  0  0
   29.8350   31.0600   44.0020 C   0  0  0  0  0  3  0  0  0  0  0  0
   34.9760   28.3080   49.5580 O   0  0  0  0  0  0  0  0  0  0  0  0
   37.3400   30.1940   51.5360 C   0  0  0  0  0  0  0  0  0  0  0  0
   38.0590   30.8570   50.5150 C   0  0  0  0  0  0  0  0  0  0  0  0
   37.6750   30.6060   49.2030 C   0  0  0  0  0  0  0  0  0  0  0  0
   36.6300   29.7330   49.0280 N   0  0  0  0  0  0  0  0  0  0  0  0
   35.9750   29.1260   50.0050 C   0  0  0  0  0  0  0  0  0  0  0  0
   36.3480   29.3710   51.2850 N   0  0  0  0  0  0  0  0  0  0  0  0
   37.6700   30.4170   52.5500 H   0  0  0  0  0  0  0  0  0  0  0  0
   38.8790   31.5410   50.6540 H   0  0  0  0  0  0  0  0  0  0  0  0
   39.0000   33.1700   48.9490 F   0  0  0  0  0  0  0  0  0  0  0  0
   38.9070   32.3800   47.8890 C   0  0  0  0  0  0  0  0  0  0  0  0
   38.2850   31.1850   48.0260 C   0  0  0  0  0  0  0  0  0  0  0  0
   38.2450   30.4360   46.8470 C   0  0  0  0  0  0  0  0  0  0  0  0
   38.7850   30.8740   45.6720 C   0  0  0  0  0  0  0  0  0  0  0  0
   39.4030   32.0870   45.5780 C   0  0  0  0  0  0  0  0  0  0  0  0
   39.4610   32.8450   46.7090 C   0  0  0  0  0  0  0  0  0  0  0  0
   37.7710   29.4440   46.8080 H   0  0  0  0  0  0  0  0  0  0  0  0
   38.7370   30.2640   44.7680 H   0  0  0  0  0  0  0  0  0  0  0  0
   39.8230   32.4100   44.6350 H   0  0  0  0  0  0  0  0  0  0  0  0
   39.9430   33.8090   46.6700 H   0  0  0  0  0  0  0  0  0  0  0  0
  1 24  1  0  0  0  0
  2  1  1  0  0  0  0
  3  1  1  0  0  0  0
  4  1  1  0  0  0  0
  4  5  1  0  0  0  0
  6  4  1  0  0  0  0
  7  4  1  0  0  0  0
  7  8  1  0  0  0  0
  8  9  2  0  0  0  0
  8 13  1  0  0  0  0
  9 14  1  0  0  0  0
 10  9  1  0  0  0  0
 11 10  2  0  0  0  0
 12 11  1  0  0  0  0
 12  7  2  0  0  0  0
 16 15  1  0  0  0  0
 16 17  1  0  0  0  0
 17 11  1  0  0  0  0
 18 19  1  0  0  0  0
 18 17  2  0  0  0  0
 20 18  1  0  0  0  0
 21 20  1  0  0  0  0
 22 23  1  0  0  0  0
 22 20  2  0  0  0  0
 23 16  2  0  0  0  0
 24 29  1  0  0  0  0
 25 31  1  0  0  0  0
 26 32  1  0  0  0  0
 26 25  2  0  0  0  0
 27 26  1  0  0  0  0
 28 27  2  0  0  0  0
 28 29  1  0  0  0  0
 29 30  2  0  0  0  0
 30 25  1  0  0  0  0
 34 35  1  0  0  0  0
 34 33  1  0  0  0  0
 35 27  1  0  0  0  0
 36 35  2  0  0  0  0
 37 36  1  0  0  0  0
 38 37  2  0  0  0  0
 38 39  1  0  0  0  0
 39 34  2  0  0  0  0
 40 36  1  0  0  0  0
 41 37  1  0  0  0  0
 42 38  1  0  0  0  0
 43 39  1  0  0  0  0
M  END
>  <minimizedAffinity>
-6.68009758

>  <minimizedRMSD>
0.495125562

$$$$
