
 OpenBabel03272509543D

 43 46  0  0  0  0  0  0  0  0999 V2000
   34.1780   29.0870   48.0770 C   0  0  0  0  0  0  0  0  0  0  0  0
   33.4970   29.6160   48.7730 H   0  0  0  0  0  0  0  0  0  0  0  0
   34.6410   29.8560   47.4220 H   0  0  0  0  0  0  0  0  0  0  0  0
   33.3670   28.0830   47.3220 C   0  0  0  0  0  0  0  0  0  0  0  0
   33.7630   27.0570   47.3510 H   0  0  0  0  0  0  0  0  0  0  0  0
   33.3510   28.3590   46.2320 H   0  0  0  0  0  0  0  0  0  0  0  0
   31.9440   28.0520   47.7580 C   0  0  0  0  0  0  0  0  0  0  0  0
   31.6670   27.7340   49.0750 C   0  0  0  0  0  0  0  0  0  0  0  0
   30.3920   27.6850   49.5500 C   0  0  0  0  0  0  0  0  0  0  0  0
   29.3820   27.9450   48.7450 N   0  0  0  0  0  0  0  0  0  0  0  0
   29.6400   28.2610   47.4400 C   0  0  0  0  0  0  0  0  0  0  0  0
   30.8980   28.3190   46.9330 N   0  0  0  0  0  0  0  0  0  0  0  0
   32.4890   27.5190   49.7430 H   0  0  0  0  0  0  0  0  0  0  0  0
   30.2210   27.4270   50.6040 H   0  0  0  0  0  0  0  0  0  0  0  0
   28.5770   25.6990   46.0610 Br  0  0  0  0  0  0  0  0  0  0  0  0
   27.9490   27.4980   45.8220 C   0  0  0  0  0  0  0  0  0  0  0  0
   28.5370   28.5550   46.5220 C   0  0  0  0  0  0  0  0  0  0  0  0
   28.0620   29.8290   46.3260 C   0  0  0  0  0  0  0  0  0  0  0  0
   28.5010   30.6590   46.8570 H   0  0  0  0  0  0  0  0  0  0  0  0
   27.0230   30.1030   45.4610 C   0  0  0  0  0  0  0  0  0  0  0  0
   26.6590   31.1010   45.3160 H   0  0  0  0  0  0  0  0  0  0  0  0
   26.4780   29.0270   44.7960 C   0  0  0  0  0  3  0  0  0  0  0  0
   26.8920   27.7170   44.9320 C   0  0  0  0  0  3  0  0  0  0  0  0
   35.1380   28.4390   48.8860 O   0  0  0  0  0  0  0  0  0  0  0  0
   37.2610   30.0760   51.3090 C   0  0  0  0  0  0  0  0  0  0  0  0
   38.0610   30.8710   50.4550 C   0  0  0  0  0  0  0  0  0  0  0  0
   37.8100   30.7860   49.0900 C   0  0  0  0  0  0  0  0  0  0  0  0
   36.8050   29.9340   48.7050 N   0  0  0  0  0  0  0  0  0  0  0  0
   36.0720   29.2020   49.5290 C   0  0  0  0  0  0  0  0  0  0  0  0
   36.3150   29.2840   50.8600 N   0  0  0  0  0  0  0  0  0  0  0  0
   37.4880   30.1710   52.3700 H   0  0  0  0  0  0  0  0  0  0  0  0
   38.8500   31.5380   50.7590 H   0  0  0  0  0  0  0  0  0  0  0  0
   38.8290   33.4960   49.1950 F   0  0  0  0  0  0  0  0  0  0  0  0
   39.0000   32.7810   48.0920 C   0  0  0  0  0  0  0  0  0  0  0  0
   38.5180   31.5160   48.0610 C   0  0  0  0  0  0  0  0  0  0  0  0
   38.7540   30.8560   46.8530 C   0  0  0  0  0  0  0  0  0  0  0  0
   39.4110   31.4380   45.8060 C   0  0  0  0  0  0  0  0  0  0  0  0
   39.8800   32.7170   45.8800 C   0  0  0  0  0  0  0  0  0  0  0  0
   39.6680   33.3910   47.0460 C   0  0  0  0  0  0  0  0  0  0  0  0
   38.4190   29.8220   46.6830 H   0  0  0  0  0  0  0  0  0  0  0  0
   39.5800   30.8950   44.8750 H   0  0  0  0  0  0  0  0  0  0  0  0
   40.3970   33.1550   45.0370 H   0  0  0  0  0  0  0  0  0  0  0  0
   40.0270   34.4040   47.1370 H   0  0  0  0  0  0  0  0  0  0  0  0
  1  2  1  0  0  0  0
  1 24  1  0  0  0  0
  3  1  1  0  0  0  0
  4  5  1  0  0  0  0
  4  7  1  0  0  0  0
  4  1  1  0  0  0  0
  6  4  1  0  0  0  0
  7  8  1  0  0  0  0
  8  9  2  0  0  0  0
  8 13  1  0  0  0  0
  9 14  1  0  0  0  0
 10  9  1  0  0  0  0
 11 10  2  0  0  0  0
 12 11  1  0  0  0  0
 12  7  2  0  0  0  0
 16 15  1  0  0  0  0
 16 17  1  0  0  0  0
 17 11  1  0  0  0  0
 18 17  2  0  0  0  0
 18 19  1  0  0  0  0
 20 18  1  0  0  0  0
 21 20  1  0  0  0  0
 22 23  1  0  0  0  0
 22 20  2  0  0  0  0
 23 16  2  0  0  0  0
 24 29  1  0  0  0  0
 25 31  1  0  0  0  0
 26 32  1  0  0  0  0
 26 25  2  0  0  0  0
 27 26  1  0  0  0  0
 28 27  2  0  0  0  0
 28 29  1  0  0  0  0
 29 30  2  0  0  0  0
 30 25  1  0  0  0  0
 34 33  1  0  0  0  0
 35 34  1  0  0  0  0
 35 27  1  0  0  0  0
 36 35  2  0  0  0  0
 37 38  2  0  0  0  0
 37 36  1  0  0  0  0
 38 39  1  0  0  0  0
 39 43  1  0  0  0  0
 39 34  2  0  0  0  0
 40 36  1  0  0  0  0
 41 37  1  0  0  0  0
 42 38  1  0  0  0  0
M  END
>  <minimizedAffinity>
-6.95921898

>  <minimizedRMSD>
1.43122602

$$$$
