
 OpenBabel03262520173D

 18 19  0  0  0  0  0  0  0  0999 V2000
   37.4380   30.4540   51.2920 C   0  0  0  0  0  0  0  0  0  0  0  0
   37.9020   31.0910   50.1340 C   0  0  0  0  0  0  0  0  0  0  0  0
   37.5640   30.6310   48.8630 C   0  0  0  0  0  0  0  0  0  0  0  0
   36.7640   29.5350   48.8320 N   0  0  0  0  0  0  0  0  0  0  0  0
   36.3210   28.9260   49.9460 C   0  0  0  0  0  0  0  0  0  0  0  0
   36.6530   29.3790   51.1610 N   0  0  0  0  0  0  0  0  0  0  0  0
   37.7090   30.8250   52.2730 H   0  0  0  0  0  0  0  0  0  0  0  0
   38.5320   31.9540   50.2530 H   0  0  0  0  0  0  0  0  0  0  0  0
   35.6880   28.0600   49.7280 H   0  0  0  0  0  0  0  0  0  0  0  0
   35.6230   30.1550   46.5750 Br  0  0  0  0  0  0  0  0  0  0  0  0
   37.2540   31.1510   46.5130 C   0  0  0  0  0  0  0  0  0  0  0  0
   38.0360   31.2800   47.6430 C   0  0  0  0  0  0  0  0  0  0  0  0
   39.2020   32.0080   47.5420 C   0  0  0  0  0  0  0  0  0  0  0  0
   39.8200   32.1180   48.4120 H   0  0  0  0  0  0  0  0  0  0  0  0
   39.5620   32.5850   46.3380 C   0  0  0  0  0  0  0  0  0  0  0  0
   40.4840   33.1590   46.2690 H   0  0  0  0  0  0  0  0  0  0  0  0
   38.7720   32.4560   45.1920 C   0  0  0  0  0  3  0  0  0  0  0  0
   37.5990   31.7200   45.3050 C   0  0  0  0  0  3  0  0  0  0  0  0
  1  7  1  0  0  0  0
  2  8  1  0  0  0  0
  2  1  2  0  0  0  0
  3  2  1  0  0  0  0
  4  3  2  0  0  0  0
  4  5  1  0  0  0  0
  5  6  2  0  0  0  0
  6  1  1  0  0  0  0
  9  5  1  0  0  0  0
 11 10  1  0  0  0  0
 11 12  1  0  0  0  0
 12  3  1  0  0  0  0
 13 12  2  0  0  0  0
 13 14  1  0  0  0  0
 15 13  1  0  0  0  0
 16 15  1  0  0  0  0
 17 18  1  0  0  0  0
 17 15  2  0  0  0  0
 18 11  2  0  0  0  0
M  END
>  <minimizedAffinity>
-4.75957441

>  <minimizedRMSD>
0.735997498

$$$$
