
 OpenBabel03262520173D

 18 19  0  0  0  0  0  0  0  0999 V2000
   37.4380   30.4550   51.2920 C   0  0  0  0  0  0  0  0  0  0  0  0
   37.9020   31.0920   50.1340 C   0  0  0  0  0  0  0  0  0  0  0  0
   37.5640   30.6310   48.8630 C   0  0  0  0  0  0  0  0  0  0  0  0
   36.7650   29.5340   48.8320 N   0  0  0  0  0  0  0  0  0  0  0  0
   36.3210   28.9260   49.9460 C   0  0  0  0  0  0  0  0  0  0  0  0
   36.6530   29.3800   51.1610 N   0  0  0  0  0  0  0  0  0  0  0  0
   37.7080   30.8260   52.2730 H   0  0  0  0  0  0  0  0  0  0  0  0
   38.5310   31.9550   50.2520 H   0  0  0  0  0  0  0  0  0  0  0  0
   35.6880   28.0590   49.7280 H   0  0  0  0  0  0  0  0  0  0  0  0
   35.6230   30.1550   46.5750 Br  0  0  0  0  0  0  0  0  0  0  0  0
   37.2540   31.1500   46.5130 C   0  0  0  0  0  0  0  0  0  0  0  0
   38.0360   31.2790   47.6430 C   0  0  0  0  0  0  0  0  0  0  0  0
   39.2020   32.0080   47.5410 C   0  0  0  0  0  0  0  0  0  0  0  0
   39.8200   32.1170   48.4110 H   0  0  0  0  0  0  0  0  0  0  0  0
   39.5610   32.5850   46.3380 C   0  0  0  0  0  0  0  0  0  0  0  0
   40.4860   33.1590   46.2690 H   0  0  0  0  0  0  0  0  0  0  0  0
   38.7720   32.4560   45.1920 C   0  0  0  0  0  3  0  0  0  0  0  0
   37.5990   31.7200   45.3050 C   0  0  0  0  0  3  0  0  0  0  0  0
  1  7  1  0  0  0  0
  2  8  1  0  0  0  0
  2  1  2  0  0  0  0
  3  2  1  0  0  0  0
  4  3  2  0  0  0  0
  4  5  1  0  0  0  0
  5  6  2  0  0  0  0
  6  1  1  0  0  0  0
  9  5  1  0  0  0  0
 11 10  1  0  0  0  0
 11 12  1  0  0  0  0
 12  3  1  0  0  0  0
 13 12  2  0  0  0  0
 13 14  1  0  0  0  0
 15 13  1  0  0  0  0
 16 15  1  0  0  0  0
 17 18  1  0  0  0  0
 17 15  2  0  0  0  0
 18 11  2  0  0  0  0
M  END
>  <minimizedAffinity>
-4.7595911

>  <minimizedRMSD>
0.816887259

$$$$
