
 OpenBabel03272510223D

 36 39  0  0  0  0  0  0  0  0999 V2000
   38.2500   21.9570   33.5670 Br  0  0  0  0  0  0  0  0  0  0  0  0
   37.7720   23.7950   33.3890 C   0  0  0  0  0  0  0  0  0  0  0  0
   37.8710   24.6700   34.4790 C   0  0  0  0  0  0  0  0  0  0  0  0
   37.5110   25.9760   34.2780 C   0  0  0  0  0  0  0  0  0  0  0  0
   37.0590   26.4650   33.0590 C   0  0  0  0  0  0  0  0  0  0  0  0
   36.9780   25.5850   32.0260 C   0  0  0  0  0  0  0  0  0  0  0  0
   37.3320   24.2670   32.1990 C   0  0  0  0  0  0  0  0  0  0  0  0
   37.5790   26.6670   35.1070 H   0  0  0  0  0  0  0  0  0  0  0  0
   36.6280   25.9430   31.0630 H   0  0  0  0  0  0  0  0  0  0  0  0
   37.2400   23.6300   31.3270 H   0  0  0  0  0  0  0  0  0  0  0  0
   37.8490   23.8990   38.0480 C   0  0  0  0  0  0  0  0  0  0  0  0
   39.1310   23.3290   38.2650 C   0  0  0  0  0  0  0  0  0  0  0  0
   39.9750   23.2210   37.1850 C   0  0  0  0  0  0  0  0  0  0  0  0
   39.5640   23.6600   35.9450 N   0  0  0  0  0  0  0  0  0  0  0  0
   38.3390   24.1960   35.7730 C   0  0  0  0  0  0  0  0  0  0  0  0
   37.4810   24.3140   36.8350 N   0  0  0  0  0  0  0  0  0  0  0  0
   37.1560   24.0040   38.8620 H   0  0  0  0  0  0  0  0  0  0  0  0
   39.4110   22.9980   39.2550 H   0  0  0  0  0  0  0  0  0  0  0  0
   40.9810   22.7870   37.2970 H   0  0  0  0  0  0  0  0  0  0  0  0
   36.6790   27.8500   32.8550 C   0  0  0  0  0  0  0  0  0  0  0  0
   36.8970   28.5630   31.7050 C   0  0  0  0  0  0  0  0  0  0  0  0
   36.5330   29.8790   31.5230 C   0  0  0  0  0  0  0  0  0  0  0  0
   35.9280   30.5080   32.5250 N   0  0  0  0  0  0  0  0  0  0  0  0
   35.6910   29.8400   33.6810 C   0  0  0  0  0  0  0  0  0  0  0  0
   36.0640   28.5540   33.8180 N   0  0  0  0  0  0  0  0  0  0  0  0
   37.3980   28.0540   30.8670 H   0  0  0  0  0  0  0  0  0  0  0  0
   36.7290   30.3940   30.5960 H   0  0  0  0  0  0  0  0  0  0  0  0
   32.6720   29.3720   33.6730 Br  0  0  0  0  0  0  0  0  0  0  0  0
   33.6520   30.3890   34.9290 C   0  0  0  0  0  0  0  0  0  0  0  0
   35.0210   30.5150   34.8100 C   0  0  0  0  0  0  0  0  0  0  0  0
   35.7780   31.2590   35.7210 C   0  0  0  0  0  0  0  0  0  0  0  0
   36.8510   31.3480   35.6100 H   0  0  0  0  0  0  0  0  0  0  0  0
   35.1270   31.8950   36.7850 C   0  0  0  0  0  0  0  0  0  0  0  0
   35.6740   32.4800   37.5130 H   0  0  0  0  0  0  0  0  0  0  0  0
   33.7630   31.7340   36.8550 C   0  0  0  0  0  3  0  0  0  0  0  0
   32.9830   31.0110   35.9800 C   0  0  0  0  0  3  0  0  0  0  0  0
  2  1  1  0  0  0  0
  2  3  1  0  0  0  0
  3 15  1  0  0  0  0
  4  3  2  0  0  0  0
  4  8  1  0  0  0  0
  5  4  1  0  0  0  0
  6  7  1  0  0  0  0
  6  5  2  0  0  0  0
  7  2  2  0  0  0  0
  9  6  1  0  0  0  0
 10  7  1  0  0  0  0
 11 12  1  0  0  0  0
 11 17  1  0  0  0  0
 12 18  1  0  0  0  0
 13 19  1  0  0  0  0
 13 12  2  0  0  0  0
 14 13  1  0  0  0  0
 15 14  2  0  0  0  0
 15 16  1  0  0  0  0
 16 11  2  0  0  0  0
 20  5  1  0  0  0  0
 20 25  1  0  0  0  0
 21 20  2  0  0  0  0
 22 21  1  0  0  0  0
 22 23  2  0  0  0  0
 23 24  1  0  0  0  0
 24 25  2  0  0  0  0
 24 30  1  0  0  0  0
 26 21  1  0  0  0  0
 27 22  1  0  0  0  0
 28 29  1  0  0  0  0
 29 36  1  0  0  0  0
 30 29  2  0  0  0  0
 30 31  1  0  0  0  0
 31 33  2  0  0  0  0
 32 31  1  0  0  0  0
 33 35  1  0  0  0  0
 33 34  1  0  0  0  0
 36 35  2  0  0  0  0
M  END
>  <minimizedAffinity>
-6.68153715

$$$$

 OpenBabel03272510223D

 36 39  0  0  0  0  0  0  0  0999 V2000
   40.6110   24.3080   34.3020 Br  0  0  0  0  0  0  0  0  0  0  0  0
   39.2450   25.6050   34.0040 C   0  0  0  0  0  0  0  0  0  0  0  0
   38.1620   25.7220   34.8850 C   0  0  0  0  0  0  0  0  0  0  0  0
   37.2190   26.6760   34.6080 C   0  0  0  0  0  0  0  0  0  0  0  0
   37.2880   27.5220   33.5090 C   0  0  0  0  0  0  0  0  0  0  0  0
   38.3540   27.3780   32.6780 C   0  0  0  0  0  0  0  0  0  0  0  0
   39.3160   26.4270   32.9310 C   0  0  0  0  0  0  0  0  0  0  0  0
   36.3750   26.7810   35.2760 H   0  0  0  0  0  0  0  0  0  0  0  0
   38.4310   28.0260   31.8110 H   0  0  0  0  0  0  0  0  0  0  0  0
   40.1350   26.3760   32.2220 H   0  0  0  0  0  0  0  0  0  0  0  0
   37.6570   22.6840   36.8480 C   0  0  0  0  0  0  0  0  0  0  0  0
   37.8260   23.1300   38.1850 C   0  0  0  0  0  0  0  0  0  0  0  0
   38.1090   24.4600   38.3860 C   0  0  0  0  0  0  0  0  0  0  0  0
   38.2190   25.3100   37.3070 N   0  0  0  0  0  0  0  0  0  0  0  0
   38.0530   24.8540   36.0490 C   0  0  0  0  0  0  0  0  0  0  0  0
   37.7710   23.5320   35.8240 N   0  0  0  0  0  0  0  0  0  0  0  0
   37.4350   21.6540   36.6430 H   0  0  0  0  0  0  0  0  0  0  0  0
   37.7310   22.4270   39.0010 H   0  0  0  0  0  0  0  0  0  0  0  0
   38.2500   24.8590   39.4030 H   0  0  0  0  0  0  0  0  0  0  0  0
   36.2850   28.5300   33.2220 C   0  0  0  0  0  0  0  0  0  0  0  0
   36.0320   29.0570   31.9830 C   0  0  0  0  0  0  0  0  0  0  0  0
   35.0770   30.0150   31.7230 C   0  0  0  0  0  0  0  0  0  0  0  0
   34.3450   30.4630   32.7370 N   0  0  0  0  0  0  0  0  0  0  0  0
   34.5610   29.9690   33.9820 C   0  0  0  0  0  0  0  0  0  0  0  0
   35.5050   29.0330   34.1920 N   0  0  0  0  0  0  0  0  0  0  0  0
   36.6310   28.6940   31.1330 H   0  0  0  0  0  0  0  0  0  0  0  0
   34.9190   30.3960   30.7280 H   0  0  0  0  0  0  0  0  0  0  0  0
   36.0410   32.0910   35.6070 Br  0  0  0  0  0  0  0  0  0  0  0  0
   34.3110   31.4120   35.9490 C   0  0  0  0  0  0  0  0  0  0  0  0
   33.7620   30.4500   35.1260 C   0  0  0  0  0  0  0  0  0  0  0  0
   32.4850   29.9250   35.3490 C   0  0  0  0  0  0  0  0  0  0  0  0
   32.0730   29.1700   34.6920 H   0  0  0  0  0  0  0  0  0  0  0  0
   31.7410   30.3910   36.4400 C   0  0  0  0  0  0  0  0  0  0  0  0
   30.7480   30.0120   36.6480 H   0  0  0  0  0  0  0  0  0  0  0  0
   32.3360   31.3500   37.2250 C   0  0  0  0  0  3  0  0  0  0  0  0
   33.5890   31.8910   37.0390 C   0  0  0  0  0  3  0  0  0  0  0  0
  2  1  1  0  0  0  0
  2  3  1  0  0  0  0
  3 15  1  0  0  0  0
  4  3  2  0  0  0  0
  4  8  1  0  0  0  0
  5  4  1  0  0  0  0
  6  7  1  0  0  0  0
  6  5  2  0  0  0  0
  7  2  2  0  0  0  0
  9  6  1  0  0  0  0
 10  7  1  0  0  0  0
 11 12  1  0  0  0  0
 12 13  2  0  0  0  0
 12 18  1  0  0  0  0
 13 19  1  0  0  0  0
 14 13  1  0  0  0  0
 15 14  2  0  0  0  0
 16 15  1  0  0  0  0
 16 11  2  0  0  0  0
 17 11  1  0  0  0  0
 20  5  1  0  0  0  0
 20 25  1  0  0  0  0
 21 20  2  0  0  0  0
 22 21  1  0  0  0  0
 22 23  2  0  0  0  0
 23 24  1  0  0  0  0
 24 25  2  0  0  0  0
 24 30  1  0  0  0  0
 26 21  1  0  0  0  0
 27 22  1  0  0  0  0
 28 29  1  0  0  0  0
 29 36  1  0  0  0  0
 30 31  1  0  0  0  0
 30 29  2  0  0  0  0
 31 33  2  0  0  0  0
 32 31  1  0  0  0  0
 33 34  1  0  0  0  0
 33 35  1  0  0  0  0
 36 35  2  0  0  0  0
M  END
>  <minimizedAffinity>
-6.55394411

$$$$

 OpenBabel03272510223D

 36 39  0  0  0  0  0  0  0  0999 V2000
   35.8430   31.8290   32.0210 Br  0  0  0  0  0  0  0  0  0  0  0  0
   36.2170   29.9900   32.3620 C   0  0  0  0  0  0  0  0  0  0  0  0
   35.8970   29.4110   33.5970 C   0  0  0  0  0  0  0  0  0  0  0  0
   36.1940   28.0850   33.7720 C   0  0  0  0  0  0  0  0  0  0  0  0
   36.7900   27.3000   32.7930 C   0  0  0  0  0  0  0  0  0  0  0  0
   37.0840   27.8990   31.6080 C   0  0  0  0  0  0  0  0  0  0  0  0
   36.7970   29.2290   31.4050 C   0  0  0  0  0  0  0  0  0  0  0  0
   35.9560   27.6200   34.7190 H   0  0  0  0  0  0  0  0  0  0  0  0
   37.5500   27.3070   30.8270 H   0  0  0  0  0  0  0  0  0  0  0  0
   37.0620   29.6310   30.4340 H   0  0  0  0  0  0  0  0  0  0  0  0
   33.2800   30.8030   35.7300 C   0  0  0  0  0  0  0  0  0  0  0  0
   33.9970   31.6510   36.6120 C   0  0  0  0  0  0  0  0  0  0  0  0
   35.3620   31.7300   36.4590 C   0  0  0  0  0  0  0  0  0  0  0  0
   35.9850   30.9970   35.4720 N   0  0  0  0  0  0  0  0  0  0  0  0
   35.2730   30.2000   34.6500 C   0  0  0  0  0  0  0  0  0  0  0  0
   33.9130   30.1060   34.7840 N   0  0  0  0  0  0  0  0  0  0  0  0
   32.2130   30.7100   35.8120 H   0  0  0  0  0  0  0  0  0  0  0  0
   33.4660   32.2070   37.3720 H   0  0  0  0  0  0  0  0  0  0  0  0
   35.9670   32.3730   37.1170 H   0  0  0  0  0  0  0  0  0  0  0  0
   37.1010   25.8970   32.9860 C   0  0  0  0  0  0  0  0  0  0  0  0
   36.9020   24.9120   32.0540 C   0  0  0  0  0  0  0  0  0  0  0  0
   37.2010   23.5820   32.2490 C   0  0  0  0  0  0  0  0  0  0  0  0
   37.7190   23.2200   33.4170 N   0  0  0  0  0  0  0  0  0  0  0  0
   37.9330   24.1610   34.3690 C   0  0  0  0  0  0  0  0  0  0  0  0
   37.6270   25.4510   34.1380 N   0  0  0  0  0  0  0  0  0  0  0  0
   36.4740   25.1990   31.0810 H   0  0  0  0  0  0  0  0  0  0  0  0
   37.0240   22.8470   31.4800 H   0  0  0  0  0  0  0  0  0  0  0  0
   40.9150   23.5230   34.1770 Br  0  0  0  0  0  0  0  0  0  0  0  0
   39.8490   23.4690   35.7360 C   0  0  0  0  0  0  0  0  0  0  0  0
   38.5070   23.7850   35.6770 C   0  0  0  0  0  0  0  0  0  0  0  0
   37.6880   23.7570   36.8100 C   0  0  0  0  0  0  0  0  0  0  0  0
   36.6370   24.0070   36.7430 H   0  0  0  0  0  0  0  0  0  0  0  0
   38.2470   23.3970   38.0430 C   0  0  0  0  0  0  0  0  0  0  0  0
   37.6500   23.3630   38.9450 H   0  0  0  0  0  0  0  0  0  0  0  0
   39.5880   23.0940   38.0440 C   0  0  0  0  0  3  0  0  0  0  0  0
   40.4270   23.1090   36.9510 C   0  0  0  0  0  3  0  0  0  0  0  0
  1  2  1  0  0  0  0
  2  3  1  0  0  0  0
  3  4  2  0  0  0  0
  3 15  1  0  0  0  0
  4  8  1  0  0  0  0
  5 20  1  0  0  0  0
  5  4  1  0  0  0  0
  6  5  2  0  0  0  0
  7  6  1  0  0  0  0
  7  2  2  0  0  0  0
  9  6  1  0  0  0  0
 10  7  1  0  0  0  0
 11 17  1  0  0  0  0
 11 12  1  0  0  0  0
 12 18  1  0  0  0  0
 13 12  2  0  0  0  0
 13 19  1  0  0  0  0
 14 13  1  0  0  0  0
 15 16  1  0  0  0  0
 15 14  2  0  0  0  0
 16 11  2  0  0  0  0
 20 25  1  0  0  0  0
 21 22  1  0  0  0  0
 21 20  2  0  0  0  0
 22 23  2  0  0  0  0
 23 24  1  0  0  0  0
 24 30  1  0  0  0  0
 25 24  2  0  0  0  0
 26 21  1  0  0  0  0
 27 22  1  0  0  0  0
 28 29  1  0  0  0  0
 29 36  1  0  0  0  0
 30 29  2  0  0  0  0
 30 31  1  0  0  0  0
 31 33  2  0  0  0  0
 32 31  1  0  0  0  0
 33 35  1  0  0  0  0
 33 34  1  0  0  0  0
 36 35  2  0  0  0  0
M  END
>  <minimizedAffinity>
-6.46668339

$$$$

 OpenBabel03272510223D

 36 39  0  0  0  0  0  0  0  0999 V2000
   39.0860   22.7150   35.2650 Br  0  0  0  0  0  0  0  0  0  0  0  0
   38.3030   24.3560   34.6900 C   0  0  0  0  0  0  0  0  0  0  0  0
   37.7590   24.4800   33.4050 C   0  0  0  0  0  0  0  0  0  0  0  0
   37.2130   25.6880   33.0610 C   0  0  0  0  0  0  0  0  0  0  0  0
   37.1740   26.7810   33.9180 C   0  0  0  0  0  0  0  0  0  0  0  0
   37.7110   26.6210   35.1560 C   0  0  0  0  0  0  0  0  0  0  0  0
   38.2670   25.4190   35.5290 C   0  0  0  0  0  0  0  0  0  0  0  0
   36.7880   25.8040   32.0730 H   0  0  0  0  0  0  0  0  0  0  0  0
   37.6940   27.4600   35.8440 H   0  0  0  0  0  0  0  0  0  0  0  0
   38.6740   25.3720   36.5320 H   0  0  0  0  0  0  0  0  0  0  0  0
   36.6650   21.4590   31.6690 C   0  0  0  0  0  0  0  0  0  0  0  0
   37.7230   21.2070   30.7590 C   0  0  0  0  0  0  0  0  0  0  0  0
   38.7890   22.0750   30.7580 C   0  0  0  0  0  0  0  0  0  0  0  0
   38.8020   23.1470   31.6240 N   0  0  0  0  0  0  0  0  0  0  0  0
   37.7800   23.3590   32.4770 C   0  0  0  0  0  0  0  0  0  0  0  0
   36.7070   22.5070   32.4950 N   0  0  0  0  0  0  0  0  0  0  0  0
   35.8120   20.8080   31.7060 H   0  0  0  0  0  0  0  0  0  0  0  0
   37.6700   20.3530   30.0970 H   0  0  0  0  0  0  0  0  0  0  0  0
   39.6380   21.9260   30.0720 H   0  0  0  0  0  0  0  0  0  0  0  0
   36.5940   28.0570   33.5450 C   0  0  0  0  0  0  0  0  0  0  0  0
   36.6020   28.5850   32.2810 C   0  0  0  0  0  0  0  0  0  0  0  0
   36.0490   29.7990   31.9390 C   0  0  0  0  0  0  0  0  0  0  0  0
   35.4650   30.5140   32.8940 N   0  0  0  0  0  0  0  0  0  0  0  0
   35.4320   30.0300   34.1610 C   0  0  0  0  0  0  0  0  0  0  0  0
   35.9860   28.8380   34.4520 N   0  0  0  0  0  0  0  0  0  0  0  0
   37.0840   28.0030   31.4800 H   0  0  0  0  0  0  0  0  0  0  0  0
   36.0840   30.1680   30.9270 H   0  0  0  0  0  0  0  0  0  0  0  0
   32.4490   29.4180   34.3960 Br  0  0  0  0  0  0  0  0  0  0  0  0
   33.4390   30.6270   35.4590 C   0  0  0  0  0  0  0  0  0  0  0  0
   34.7890   30.8040   35.2410 C   0  0  0  0  0  0  0  0  0  0  0  0
   35.5540   31.6900   36.0080 C   0  0  0  0  0  0  0  0  0  0  0  0
   36.6120   31.8160   35.8210 H   0  0  0  0  0  0  0  0  0  0  0  0
   34.9290   32.4180   37.0280 C   0  0  0  0  0  0  0  0  0  0  0  0
   35.4830   33.1130   37.6450 H   0  0  0  0  0  0  0  0  0  0  0  0
   33.5820   32.2000   37.2010 C   0  0  0  0  0  3  0  0  0  0  0  0
   32.7960   31.3390   36.4680 C   0  0  0  0  0  3  0  0  0  0  0  0
  2  1  1  0  0  0  0
  2  7  1  0  0  0  0
  3  2  2  0  0  0  0
  4  3  1  0  0  0  0
  4  5  2  0  0  0  0
  5  6  1  0  0  0  0
  6  7  2  0  0  0  0
  6  9  1  0  0  0  0
  7 10  1  0  0  0  0
  8  4  1  0  0  0  0
 11 17  1  0  0  0  0
 11 16  1  0  0  0  0
 12 11  2  0  0  0  0
 13 12  1  0  0  0  0
 13 14  2  0  0  0  0
 14 15  1  0  0  0  0
 15 16  2  0  0  0  0
 15  3  1  0  0  0  0
 18 12  1  0  0  0  0
 19 13  1  0  0  0  0
 20  5  1  0  0  0  0
 20 25  1  0  0  0  0
 21 20  2  0  0  0  0
 22 21  1  0  0  0  0
 22 23  2  0  0  0  0
 23 24  1  0  0  0  0
 24 25  2  0  0  0  0
 24 30  1  0  0  0  0
 26 21  1  0  0  0  0
 27 22  1  0  0  0  0
 28 29  1  0  0  0  0
 29 36  1  0  0  0  0
 30 29  2  0  0  0  0
 30 31  1  0  0  0  0
 31 33  2  0  0  0  0
 32 31  1  0  0  0  0
 33 35  1  0  0  0  0
 33 34  1  0  0  0  0
 36 35  2  0  0  0  0
M  END
>  <minimizedAffinity>
-6.31977749

$$$$

 OpenBabel03272510223D

 36 39  0  0  0  0  0  0  0  0999 V2000
   39.5070   23.0190   36.2090 Br  0  0  0  0  0  0  0  0  0  0  0  0
   38.6330   24.5330   35.4480 C   0  0  0  0  0  0  0  0  0  0  0  0
   38.1210   24.4850   34.1450 C   0  0  0  0  0  0  0  0  0  0  0  0
   37.5050   25.6100   33.6630 C   0  0  0  0  0  0  0  0  0  0  0  0
   37.3670   26.7800   34.3990 C   0  0  0  0  0  0  0  0  0  0  0  0
   37.8770   26.7870   35.6590 C   0  0  0  0  0  0  0  0  0  0  0  0
   38.5010   25.6710   36.1690 C   0  0  0  0  0  0  0  0  0  0  0  0
   37.1040   25.5930   32.6590 H   0  0  0  0  0  0  0  0  0  0  0  0
   37.7830   27.6890   36.2550 H   0  0  0  0  0  0  0  0  0  0  0  0
   38.8790   25.7570   37.1810 H   0  0  0  0  0  0  0  0  0  0  0  0
   39.5270   22.0830   31.7800 C   0  0  0  0  0  0  0  0  0  0  0  0
   38.5740   21.0320   31.7800 C   0  0  0  0  0  0  0  0  0  0  0  0
   37.4700   21.1680   32.5890 C   0  0  0  0  0  0  0  0  0  0  0  0
   37.3200   22.2970   33.3640 N   0  0  0  0  0  0  0  0  0  0  0  0
   38.2450   23.2780   33.3400 C   0  0  0  0  0  0  0  0  0  0  0  0
   39.3530   23.1650   32.5420 N   0  0  0  0  0  0  0  0  0  0  0  0
   40.4040   22.0220   31.1640 H   0  0  0  0  0  0  0  0  0  0  0  0
   38.7320   20.1630   31.1560 H   0  0  0  0  0  0  0  0  0  0  0  0
   36.7000   20.3810   32.6280 H   0  0  0  0  0  0  0  0  0  0  0  0
   36.7140   27.9680   33.8810 C   0  0  0  0  0  0  0  0  0  0  0  0
   36.6330   28.3050   32.5560 C   0  0  0  0  0  0  0  0  0  0  0  0
   36.0100   29.4360   32.0760 C   0  0  0  0  0  0  0  0  0  0  0  0
   35.4470   30.2620   32.9510 N   0  0  0  0  0  0  0  0  0  0  0  0
   35.5040   29.9680   34.2730 C   0  0  0  0  0  0  0  0  0  0  0  0
   36.1220   28.8510   34.7010 N   0  0  0  0  0  0  0  0  0  0  0  0
   37.0950   27.6280   31.8200 H   0  0  0  0  0  0  0  0  0  0  0  0
   35.9750   29.6530   31.0210 H   0  0  0  0  0  0  0  0  0  0  0  0
   32.5350   29.3740   34.6790 Br  0  0  0  0  0  0  0  0  0  0  0  0
   33.5450   30.7130   35.5480 C   0  0  0  0  0  0  0  0  0  0  0  0
   34.8870   30.8690   35.2670 C   0  0  0  0  0  0  0  0  0  0  0  0
   35.6660   31.8490   35.8910 C   0  0  0  0  0  0  0  0  0  0  0  0
   36.7170   31.9560   35.6560 H   0  0  0  0  0  0  0  0  0  0  0  0
   35.0650   32.6970   36.8300 C   0  0  0  0  0  0  0  0  0  0  0  0
   35.6320   33.4680   37.3370 H   0  0  0  0  0  0  0  0  0  0  0  0
   33.7270   32.4950   37.0720 C   0  0  0  0  0  3  0  0  0  0  0  0
   32.9270   31.5440   36.4780 C   0  0  0  0  0  3  0  0  0  0  0  0
  2  7  1  0  0  0  0
  2  1  1  0  0  0  0
  3  2  2  0  0  0  0
  4  3  1  0  0  0  0
  4  5  2  0  0  0  0
  5  6  1  0  0  0  0
  6  7  2  0  0  0  0
  6  9  1  0  0  0  0
  7 10  1  0  0  0  0
  8  4  1  0  0  0  0
 11 12  2  0  0  0  0
 11 16  1  0  0  0  0
 12 13  1  0  0  0  0
 13 19  1  0  0  0  0
 13 14  2  0  0  0  0
 15 14  1  0  0  0  0
 15  3  1  0  0  0  0
 16 15  2  0  0  0  0
 17 11  1  0  0  0  0
 18 12  1  0  0  0  0
 20  5  1  0  0  0  0
 20 25  1  0  0  0  0
 21 20  2  0  0  0  0
 22 21  1  0  0  0  0
 22 23  2  0  0  0  0
 23 24  1  0  0  0  0
 24 25  2  0  0  0  0
 24 30  1  0  0  0  0
 26 21  1  0  0  0  0
 27 22  1  0  0  0  0
 28 29  1  0  0  0  0
 29 36  1  0  0  0  0
 30 29  2  0  0  0  0
 30 31  1  0  0  0  0
 31 33  2  0  0  0  0
 32 31  1  0  0  0  0
 33 35  1  0  0  0  0
 33 34  1  0  0  0  0
 36 35  2  0  0  0  0
M  END
>  <minimizedAffinity>
-6.19513273

$$$$

 OpenBabel03272510223D

 36 39  0  0  0  0  0  0  0  0999 V2000
   40.1740   23.7700   35.5780 Br  0  0  0  0  0  0  0  0  0  0  0  0
   38.9870   25.1230   34.9490 C   0  0  0  0  0  0  0  0  0  0  0  0
   38.2210   24.9230   33.7930 C   0  0  0  0  0  0  0  0  0  0  0  0
   37.3890   25.9380   33.4000 C   0  0  0  0  0  0  0  0  0  0  0  0
   37.2730   27.1400   34.0870 C   0  0  0  0  0  0  0  0  0  0  0  0
   38.0330   27.2960   35.2040 C   0  0  0  0  0  0  0  0  0  0  0  0
   38.8780   26.2920   35.6210 C   0  0  0  0  0  0  0  0  0  0  0  0
   36.7900   25.8040   32.5100 H   0  0  0  0  0  0  0  0  0  0  0  0
   37.9610   28.2260   35.7580 H   0  0  0  0  0  0  0  0  0  0  0  0
   39.4480   26.4940   36.5200 H   0  0  0  0  0  0  0  0  0  0  0  0
   37.4840   21.5050   32.7410 C   0  0  0  0  0  0  0  0  0  0  0  0
   38.4080   21.2830   31.6880 C   0  0  0  0  0  0  0  0  0  0  0  0
   39.2640   22.3080   31.3600 C   0  0  0  0  0  0  0  0  0  0  0  0
   39.2040   23.5000   32.0480 N   0  0  0  0  0  0  0  0  0  0  0  0
   38.3130   23.6780   33.0450 C   0  0  0  0  0  0  0  0  0  0  0  0
   37.4500   22.6710   33.3880 N   0  0  0  0  0  0  0  0  0  0  0  0
   36.7960   20.7330   33.0320 H   0  0  0  0  0  0  0  0  0  0  0  0
   38.4190   20.3310   31.1750 H   0  0  0  0  0  0  0  0  0  0  0  0
   40.0020   22.1890   30.5510 H   0  0  0  0  0  0  0  0  0  0  0  0
   36.3910   28.2110   33.6640 C   0  0  0  0  0  0  0  0  0  0  0  0
   36.3070   28.7020   32.3870 C   0  0  0  0  0  0  0  0  0  0  0  0
   35.4660   29.7200   31.9970 C   0  0  0  0  0  0  0  0  0  0  0  0
   34.6770   30.2690   32.9140 N   0  0  0  0  0  0  0  0  0  0  0  0
   34.7260   29.8140   34.1910 C   0  0  0  0  0  0  0  0  0  0  0  0
   35.5630   28.8160   34.5300 N   0  0  0  0  0  0  0  0  0  0  0  0
   36.9560   28.2550   31.6170 H   0  0  0  0  0  0  0  0  0  0  0  0
   35.4400   30.0680   30.9780 H   0  0  0  0  0  0  0  0  0  0  0  0
   36.1090   32.0950   35.6790 Br  0  0  0  0  0  0  0  0  0  0  0  0
   34.3600   31.4480   35.9820 C   0  0  0  0  0  0  0  0  0  0  0  0
   33.8600   30.4060   35.2300 C   0  0  0  0  0  0  0  0  0  0  0  0
   32.5700   29.9020   35.4260 C   0  0  0  0  0  0  0  0  0  0  0  0
   32.1960   29.0830   34.8260 H   0  0  0  0  0  0  0  0  0  0  0  0
   31.7620   30.4740   36.4170 C   0  0  0  0  0  0  0  0  0  0  0  0
   30.7570   30.1150   36.6010 H   0  0  0  0  0  0  0  0  0  0  0  0
   32.3110   31.5100   37.1350 C   0  0  0  0  0  3  0  0  0  0  0  0
   33.5740   32.0330   36.9720 C   0  0  0  0  0  3  0  0  0  0  0  0
  2  1  1  0  0  0  0
  2  7  1  0  0  0  0
  3  2  2  0  0  0  0
  4  3  1  0  0  0  0
  4  5  2  0  0  0  0
  5  6  1  0  0  0  0
  6  7  2  0  0  0  0
  6  9  1  0  0  0  0
  7 10  1  0  0  0  0
  8  4  1  0  0  0  0
 11 17  1  0  0  0  0
 11 16  1  0  0  0  0
 12 11  2  0  0  0  0
 13 12  1  0  0  0  0
 13 14  2  0  0  0  0
 14 15  1  0  0  0  0
 15 16  2  0  0  0  0
 15  3  1  0  0  0  0
 18 12  1  0  0  0  0
 19 13  1  0  0  0  0
 20  5  1  0  0  0  0
 20 25  1  0  0  0  0
 21 20  2  0  0  0  0
 22 21  1  0  0  0  0
 22 23  2  0  0  0  0
 23 24  1  0  0  0  0
 24 25  2  0  0  0  0
 24 30  1  0  0  0  0
 26 21  1  0  0  0  0
 27 22  1  0  0  0  0
 28 29  1  0  0  0  0
 29 36  1  0  0  0  0
 30 31  1  0  0  0  0
 30 29  2  0  0  0  0
 31 33  2  0  0  0  0
 32 31  1  0  0  0  0
 33 34  1  0  0  0  0
 33 35  1  0  0  0  0
 36 35  2  0  0  0  0
M  END
>  <minimizedAffinity>
-6.06985188

$$$$

 OpenBabel03272510223D

 36 39  0  0  0  0  0  0  0  0999 V2000
   35.5660   31.3050   31.7650 Br  0  0  0  0  0  0  0  0  0  0  0  0
   36.1440   29.5800   32.3380 C   0  0  0  0  0  0  0  0  0  0  0  0
   35.9120   29.1450   33.6490 C   0  0  0  0  0  0  0  0  0  0  0  0
   36.3540   27.8950   33.9900 C   0  0  0  0  0  0  0  0  0  0  0  0
   37.0130   27.0500   33.1060 C   0  0  0  0  0  0  0  0  0  0  0  0
   37.2190   27.5080   31.8420 C   0  0  0  0  0  0  0  0  0  0  0  0
   36.7860   28.7600   31.4730 C   0  0  0  0  0  0  0  0  0  0  0  0
   36.1850   27.5400   34.9980 H   0  0  0  0  0  0  0  0  0  0  0  0
   37.7320   26.8670   31.1330 H   0  0  0  0  0  0  0  0  0  0  0  0
   36.9870   29.0510   30.4480 H   0  0  0  0  0  0  0  0  0  0  0  0
   35.4310   31.6240   36.2870 C   0  0  0  0  0  0  0  0  0  0  0  0
   34.0220   31.6570   36.4480 C   0  0  0  0  0  0  0  0  0  0  0  0
   33.2660   30.8300   35.6510 C   0  0  0  0  0  0  0  0  0  0  0  0
   33.8830   30.0070   34.7340 N   0  0  0  0  0  0  0  0  0  0  0  0
   35.2250   30.0000   34.6060 C   0  0  0  0  0  0  0  0  0  0  0  0
   35.9990   30.8160   35.3900 N   0  0  0  0  0  0  0  0  0  0  0  0
   36.0620   32.2520   36.8880 H   0  0  0  0  0  0  0  0  0  0  0  0
   33.5800   32.3190   37.1800 H   0  0  0  0  0  0  0  0  0  0  0  0
   32.1680   30.8160   35.7350 H   0  0  0  0  0  0  0  0  0  0  0  0
   37.4790   25.7260   33.4750 C   0  0  0  0  0  0  0  0  0  0  0  0
   38.3040   25.4510   34.5330 C   0  0  0  0  0  0  0  0  0  0  0  0
   38.7410   24.1900   34.8740 C   0  0  0  0  0  0  0  0  0  0  0  0
   38.3390   23.1640   34.1320 N   0  0  0  0  0  0  0  0  0  0  0  0
   37.5210   23.3900   33.0740 C   0  0  0  0  0  0  0  0  0  0  0  0
   37.1170   24.6390   32.7760 N   0  0  0  0  0  0  0  0  0  0  0  0
   38.6450   26.2920   35.1570 H   0  0  0  0  0  0  0  0  0  0  0  0
   39.3910   24.0290   35.7180 H   0  0  0  0  0  0  0  0  0  0  0  0
   39.6100   22.5690   31.0030 Br  0  0  0  0  0  0  0  0  0  0  0  0
   37.9040   21.7950   31.2510 C   0  0  0  0  0  0  0  0  0  0  0  0
   37.0590   22.2690   32.2330 C   0  0  0  0  0  0  0  0  0  0  0  0
   35.7890   21.7200   32.4460 C   0  0  0  0  0  0  0  0  0  0  0  0
   35.1400   22.1060   33.2210 H   0  0  0  0  0  0  0  0  0  0  0  0
   35.3660   20.6570   31.6380 C   0  0  0  0  0  0  0  0  0  0  0  0
   34.3920   20.2030   31.7690 H   0  0  0  0  0  0  0  0  0  0  0  0
   36.2490   20.2250   30.6770 C   0  0  0  0  0  3  0  0  0  0  0  0
   37.5040   20.7390   30.4370 C   0  0  0  0  0  3  0  0  0  0  0  0
  1  2  1  0  0  0  0
  2  3  1  0  0  0  0
  3  4  2  0  0  0  0
  3 15  1  0  0  0  0
  4  8  1  0  0  0  0
  5 20  1  0  0  0  0
  5  4  1  0  0  0  0
  6  5  2  0  0  0  0
  7  6  1  0  0  0  0
  7  2  2  0  0  0  0
  9  6  1  0  0  0  0
 10  7  1  0  0  0  0
 11 12  1  0  0  0  0
 11 17  1  0  0  0  0
 12 18  1  0  0  0  0
 13 19  1  0  0  0  0
 13 12  2  0  0  0  0
 14 13  1  0  0  0  0
 15 14  2  0  0  0  0
 15 16  1  0  0  0  0
 16 11  2  0  0  0  0
 20 21  1  0  0  0  0
 21 22  2  0  0  0  0
 21 26  1  0  0  0  0
 22 27  1  0  0  0  0
 23 22  1  0  0  0  0
 24 23  2  0  0  0  0
 25 24  1  0  0  0  0
 25 20  2  0  0  0  0
 28 29  1  0  0  0  0
 29 30  1  0  0  0  0
 30 31  2  0  0  0  0
 30 24  1  0  0  0  0
 31 32  1  0  0  0  0
 33 34  1  0  0  0  0
 33 31  1  0  0  0  0
 35 33  2  0  0  0  0
 36 35  1  0  0  0  0
 36 29  2  0  0  0  0
M  END
>  <minimizedAffinity>
-6.03497744

$$$$

 OpenBabel03272510223D

 36 39  0  0  0  0  0  0  0  0999 V2000
   33.6080   31.8810   31.1950 Br  0  0  0  0  0  0  0  0  0  0  0  0
   34.8630   30.4830   31.5260 C   0  0  0  0  0  0  0  0  0  0  0  0
   34.6200   29.5220   32.5150 C   0  0  0  0  0  0  0  0  0  0  0  0
   35.5640   28.5460   32.6980 C   0  0  0  0  0  0  0  0  0  0  0  0
   36.7360   28.4690   31.9550 C   0  0  0  0  0  0  0  0  0  0  0  0
   36.9340   29.4190   31.0040 C   0  0  0  0  0  0  0  0  0  0  0  0
   36.0030   30.4110   30.7990 C   0  0  0  0  0  0  0  0  0  0  0  0
   35.3960   27.7950   33.4580 H   0  0  0  0  0  0  0  0  0  0  0  0
   37.8420   29.3810   30.4100 H   0  0  0  0  0  0  0  0  0  0  0  0
   36.2350   31.1310   30.0220 H   0  0  0  0  0  0  0  0  0  0  0  0
   32.3780   30.3340   35.2810 C   0  0  0  0  0  0  0  0  0  0  0  0
   31.1590   29.7150   34.9030 C   0  0  0  0  0  0  0  0  0  0  0  0
   31.1300   29.0320   33.7100 C   0  0  0  0  0  0  0  0  0  0  0  0
   32.2620   28.9680   32.9270 N   0  0  0  0  0  0  0  0  0  0  0  0
   33.4050   29.5680   33.3160 C   0  0  0  0  0  0  0  0  0  0  0  0
   33.4570   30.2540   34.5010 N   0  0  0  0  0  0  0  0  0  0  0  0
   32.4490   30.8780   36.2050 H   0  0  0  0  0  0  0  0  0  0  0  0
   30.2950   29.7920   35.5490 H   0  0  0  0  0  0  0  0  0  0  0  0
   30.2090   28.5330   33.3690 H   0  0  0  0  0  0  0  0  0  0  0  0
   37.7310   27.4330   32.1540 C   0  0  0  0  0  0  0  0  0  0  0  0
   38.8450   27.2530   31.3760 C   0  0  0  0  0  0  0  0  0  0  0  0
   39.7830   26.2640   31.5750 C   0  0  0  0  0  0  0  0  0  0  0  0
   39.6050   25.4240   32.5880 N   0  0  0  0  0  0  0  0  0  0  0  0
   38.5170   25.5650   33.3850 C   0  0  0  0  0  0  0  0  0  0  0  0
   37.6230   26.5450   33.1560 N   0  0  0  0  0  0  0  0  0  0  0  0
   39.0040   27.9430   30.5320 H   0  0  0  0  0  0  0  0  0  0  0  0
   40.6420   26.1670   30.9310 H   0  0  0  0  0  0  0  0  0  0  0  0
   38.5030   27.0260   36.0680 Br  0  0  0  0  0  0  0  0  0  0  0  0
   38.2670   25.1710   35.7930 C   0  0  0  0  0  0  0  0  0  0  0  0
   38.2950   24.6450   34.5180 C   0  0  0  0  0  0  0  0  0  0  0  0
   38.1240   23.2780   34.2760 C   0  0  0  0  0  0  0  0  0  0  0  0
   38.1510   22.8840   33.2680 H   0  0  0  0  0  0  0  0  0  0  0  0
   37.9160   22.4180   35.3620 C   0  0  0  0  0  0  0  0  0  0  0  0
   37.7780   21.3540   35.2190 H   0  0  0  0  0  0  0  0  0  0  0  0
   37.8960   22.9970   36.6090 C   0  0  0  0  0  3  0  0  0  0  0  0
   38.0610   24.3350   36.8870 C   0  0  0  0  0  3  0  0  0  0  0  0
  1  2  1  0  0  0  0
  2  3  1  0  0  0  0
  3  4  2  0  0  0  0
  3 15  1  0  0  0  0
  4  8  1  0  0  0  0
  5 20  1  0  0  0  0
  5  4  1  0  0  0  0
  6  5  2  0  0  0  0
  7  6  1  0  0  0  0
  7  2  2  0  0  0  0
  9  6  1  0  0  0  0
 10  7  1  0  0  0  0
 11 17  1  0  0  0  0
 12 11  1  0  0  0  0
 12 18  1  0  0  0  0
 13 12  2  0  0  0  0
 14 15  2  0  0  0  0
 14 13  1  0  0  0  0
 15 16  1  0  0  0  0
 16 11  2  0  0  0  0
 19 13  1  0  0  0  0
 20 25  1  0  0  0  0
 21 22  1  0  0  0  0
 21 20  2  0  0  0  0
 22 23  2  0  0  0  0
 23 24  1  0  0  0  0
 24 30  1  0  0  0  0
 25 24  2  0  0  0  0
 26 21  1  0  0  0  0
 27 22  1  0  0  0  0
 29 28  1  0  0  0  0
 29 36  1  0  0  0  0
 30 29  2  0  0  0  0
 31 30  1  0  0  0  0
 31 33  2  0  0  0  0
 32 31  1  0  0  0  0
 33 35  1  0  0  0  0
 34 33  1  0  0  0  0
 35 36  2  0  0  0  0
M  END
>  <minimizedAffinity>
-6.00390768

$$$$

 OpenBabel03272510223D

 36 39  0  0  0  0  0  0  0  0999 V2000
   32.9810   31.6130   32.0550 Br  0  0  0  0  0  0  0  0  0  0  0  0
   34.3660   30.3430   32.3780 C   0  0  0  0  0  0  0  0  0  0  0  0
   34.5390   29.7790   33.6480 C   0  0  0  0  0  0  0  0  0  0  0  0
   35.5550   28.8730   33.8070 C   0  0  0  0  0  0  0  0  0  0  0  0
   36.4080   28.4950   32.7780 C   0  0  0  0  0  0  0  0  0  0  0  0
   36.2080   29.0650   31.5600 C   0  0  0  0  0  0  0  0  0  0  0  0
   35.1960   29.9780   31.3720 C   0  0  0  0  0  0  0  0  0  0  0  0
   35.7050   28.4260   34.7800 H   0  0  0  0  0  0  0  0  0  0  0  0
   36.8620   28.7860   30.7400 H   0  0  0  0  0  0  0  0  0  0  0  0
   35.1020   30.3860   30.3730 H   0  0  0  0  0  0  0  0  0  0  0  0
   31.6760   29.7070   35.9130 C   0  0  0  0  0  0  0  0  0  0  0  0
   31.9470   30.7700   36.8130 C   0  0  0  0  0  0  0  0  0  0  0  0
   33.1040   31.4880   36.6260 C   0  0  0  0  0  0  0  0  0  0  0  0
   33.9540   31.1650   35.5900 N   0  0  0  0  0  0  0  0  0  0  0  0
   33.6660   30.1490   34.7520 C   0  0  0  0  0  0  0  0  0  0  0  0
   32.5190   29.4190   34.9200 N   0  0  0  0  0  0  0  0  0  0  0  0
   30.7840   29.1180   36.0200 H   0  0  0  0  0  0  0  0  0  0  0  0
   31.2520   30.9870   37.6120 H   0  0  0  0  0  0  0  0  0  0  0  0
   33.3640   32.3230   37.2960 H   0  0  0  0  0  0  0  0  0  0  0  0
   37.4820   27.5350   32.9550 C   0  0  0  0  0  0  0  0  0  0  0  0
   38.6130   27.4710   32.1840 C   0  0  0  0  0  0  0  0  0  0  0  0
   39.6260   26.5550   32.3600 C   0  0  0  0  0  0  0  0  0  0  0  0
   39.5070   25.6690   33.3430 N   0  0  0  0  0  0  0  0  0  0  0  0
   38.4040   25.6960   34.1320 C   0  0  0  0  0  0  0  0  0  0  0  0
   37.4370   26.6090   33.9250 N   0  0  0  0  0  0  0  0  0  0  0  0
   38.7240   28.2000   31.3650 H   0  0  0  0  0  0  0  0  0  0  0  0
   40.4960   26.5480   31.7240 H   0  0  0  0  0  0  0  0  0  0  0  0
   38.0160   22.8470   33.1010 Br  0  0  0  0  0  0  0  0  0  0  0  0
   38.0620   23.3950   34.9090 C   0  0  0  0  0  0  0  0  0  0  0  0
   38.2470   24.7230   35.2310 C   0  0  0  0  0  0  0  0  0  0  0  0
   38.2870   25.1650   36.5580 C   0  0  0  0  0  0  0  0  0  0  0  0
   38.4320   26.2120   36.7910 H   0  0  0  0  0  0  0  0  0  0  0  0
   38.1340   24.2300   37.5890 C   0  0  0  0  0  0  0  0  0  0  0  0
   38.1590   24.5290   38.6290 H   0  0  0  0  0  0  0  0  0  0  0  0
   37.9540   22.9210   37.2100 C   0  0  0  0  0  3  0  0  0  0  0  0
   37.9080   22.4470   35.9170 C   0  0  0  0  0  3  0  0  0  0  0  0
  1  2  1  0  0  0  0
  2  3  1  0  0  0  0
  3  4  2  0  0  0  0
  3 15  1  0  0  0  0
  4  8  1  0  0  0  0
  5 20  1  0  0  0  0
  5  4  1  0  0  0  0
  6  5  2  0  0  0  0
  7  6  1  0  0  0  0
  7  2  2  0  0  0  0
  9  6  1  0  0  0  0
 10  7  1  0  0  0  0
 11 17  1  0  0  0  0
 11 12  1  0  0  0  0
 12 18  1  0  0  0  0
 13 12  2  0  0  0  0
 13 19  1  0  0  0  0
 14 13  1  0  0  0  0
 15 16  1  0  0  0  0
 15 14  2  0  0  0  0
 16 11  2  0  0  0  0
 20 25  1  0  0  0  0
 21 22  1  0  0  0  0
 21 20  2  0  0  0  0
 22 23  2  0  0  0  0
 23 24  1  0  0  0  0
 24 30  1  0  0  0  0
 25 24  2  0  0  0  0
 26 21  1  0  0  0  0
 27 22  1  0  0  0  0
 28 29  1  0  0  0  0
 29 30  2  0  0  0  0
 29 36  1  0  0  0  0
 30 31  1  0  0  0  0
 31 32  1  0  0  0  0
 31 33  2  0  0  0  0
 33 34  1  0  0  0  0
 35 33  1  0  0  0  0
 36 35  2  0  0  0  0
M  END
>  <minimizedAffinity>
-5.93205404

$$$$
