
 OpenBabel03272510163D

 28 30  0  0  0  0  0  0  0  0999 V2000
   37.2180   29.4390   51.0880 Br  0  0  0  0  0  0  0  0  0  0  0  0
   35.9460   29.3660   49.6730 C   0  0  0  0  0  0  0  0  0  0  0  0
   36.0230   30.2300   48.6010 C   0  0  0  0  0  0  0  0  0  0  0  0
   35.0680   30.1320   47.5960 C   0  0  0  0  0  0  0  0  0  0  0  0
   34.0470   29.1900   47.6510 C   0  0  0  0  0  0  0  0  0  0  0  0
   33.9930   28.3450   48.7260 C   0  0  0  0  0  0  0  0  0  0  0  0
   34.9370   28.4370   49.7250 C   0  0  0  0  0  0  0  0  0  0  0  0
   35.1840   30.8370   46.7830 H   0  0  0  0  0  0  0  0  0  0  0  0
   33.1860   27.6230   48.7400 H   0  0  0  0  0  0  0  0  0  0  0  0
   34.8750   27.7590   50.5660 H   0  0  0  0  0  0  0  0  0  0  0  0
   38.0130   33.1760   49.4160 C   0  0  0  0  0  0  0  0  0  0  0  0
   39.0580   33.1620   48.4450 C   0  0  0  0  0  0  0  0  0  0  0  0
   39.0490   32.1200   47.5190 C   0  0  0  0  0  0  0  0  0  0  0  0
   38.0590   31.1740   47.5790 N   0  0  0  0  0  0  0  0  0  0  0  0
   37.0910   31.2330   48.5200 C   0  0  0  0  0  0  0  0  0  0  0  0
   37.0640   32.2330   49.4420 N   0  0  0  0  0  0  0  0  0  0  0  0
   37.9670   33.9510   50.1530 H   0  0  0  0  0  0  0  0  0  0  0  0
   39.7980   33.9420   48.4630 H   0  0  0  0  0  0  0  0  0  0  0  0
   39.8260   32.0770   46.7670 H   0  0  0  0  0  0  0  0  0  0  0  0
   33.7300   26.5060   46.0410 Br  0  0  0  0  0  0  0  0  0  0  0  0
   32.8420   28.1460   45.6930 C   0  0  0  0  0  0  0  0  0  0  0  0
   33.1230   29.2120   46.5220 C   0  0  0  0  0  0  0  0  0  0  0  0
   32.4640   30.4160   46.2580 C   0  0  0  0  0  0  0  0  0  0  0  0
   32.5820   31.3330   46.8210 H   0  0  0  0  0  0  0  0  0  0  0  0
   31.5660   30.5020   45.1910 C   0  0  0  0  0  0  0  0  0  0  0  0
   31.0300   31.4280   44.9500 H   0  0  0  0  0  0  0  0  0  0  0  0
   31.3070   29.4190   44.3790 C   0  0  0  0  0  3  0  0  0  0  0  0
   31.9600   28.2340   44.6450 C   0  0  0  0  0  3  0  0  0  0  0  0
  2  7  1  0  0  0  0
  2  1  1  0  0  0  0
  3  2  2  0  0  0  0
  4  5  2  0  0  0  0
  4  3  1  0  0  0  0
  5  6  1  0  0  0  0
  6  9  1  0  0  0  0
  6  7  2  0  0  0  0
  7 10  1  0  0  0  0
  8  4  1  0  0  0  0
 11 16  1  0  0  0  0
 11 17  1  0  0  0  0
 12 18  1  0  0  0  0
 12 11  2  0  0  0  0
 13 14  2  0  0  0  0
 13 12  1  0  0  0  0
 14 15  1  0  0  0  0
 15  3  1  0  0  0  0
 15 16  2  0  0  0  0
 19 13  1  0  0  0  0
 21 20  1  0  0  0  0
 21 22  1  0  0  0  0
 22  5  1  0  0  0  0
 23 22  2  0  0  0  0
 23 24  1  0  0  0  0
 25 23  1  0  0  0  0
 26 25  1  0  0  0  0
 27 28  1  0  0  0  0
 27 25  2  0  0  0  0
 28 21  2  0  0  0  0
M  END
>  <minimizedAffinity>
-6.05068064

>  <minimizedRMSD>
0.59265995

$$$$
