
 OpenBabel03272510213D

 36 39  0  0  0  0  0  0  0  0999 V2000
   37.2340   29.2700   50.9870 Br  0  0  0  0  0  0  0  0  0  0  0  0
   35.9310   29.3310   49.5970 C   0  0  0  0  0  0  0  0  0  0  0  0
   35.9920   30.3120   48.5990 C   0  0  0  0  0  0  0  0  0  0  0  0
   35.0230   30.2950   47.6320 C   0  0  0  0  0  0  0  0  0  0  0  0
   33.9960   29.3600   47.5960 C   0  0  0  0  0  0  0  0  0  0  0  0
   33.9710   28.4240   48.5810 C   0  0  0  0  0  0  0  0  0  0  0  0
   34.9320   28.4180   49.5660 C   0  0  0  0  0  0  0  0  0  0  0  0
   35.0520   31.0450   46.8530 H   0  0  0  0  0  0  0  0  0  0  0  0
   33.1780   27.6830   48.5760 H   0  0  0  0  0  0  0  0  0  0  0  0
   34.8420   27.6390   50.3140 H   0  0  0  0  0  0  0  0  0  0  0  0
   37.9390   33.2290   49.6180 C   0  0  0  0  0  0  0  0  0  0  0  0
   39.0120   33.2430   48.6900 C   0  0  0  0  0  0  0  0  0  0  0  0
   39.0460   32.2550   47.7350 C   0  0  0  0  0  0  0  0  0  0  0  0
   38.0590   31.2950   47.7040 N   0  0  0  0  0  0  0  0  0  0  0  0
   37.0520   31.3100   48.6010 C   0  0  0  0  0  0  0  0  0  0  0  0
   36.9970   32.2850   49.5620 N   0  0  0  0  0  0  0  0  0  0  0  0
   37.8700   33.9810   50.3820 H   0  0  0  0  0  0  0  0  0  0  0  0
   39.7650   34.0170   48.7520 H   0  0  0  0  0  0  0  0  0  0  0  0
   39.8570   32.2190   46.9900 H   0  0  0  0  0  0  0  0  0  0  0  0
   32.9720   29.3490   46.5680 C   0  0  0  0  0  0  0  0  0  0  0  0
   31.7850   28.6700   46.6480 C   0  0  0  0  0  0  0  0  0  0  0  0
   30.8210   28.6660   45.6650 C   0  0  0  0  0  0  0  0  0  0  0  0
   31.0480   29.3670   44.5590 N   0  0  0  0  0  0  0  0  0  0  0  0
   32.2100   30.0550   44.4370 C   0  0  0  0  0  0  0  0  0  0  0  0
   33.1270   30.0320   45.4220 N   0  0  0  0  0  0  0  0  0  0  0  0
   31.5840   28.0840   47.5590 H   0  0  0  0  0  0  0  0  0  0  0  0
   29.9030   28.1130   45.7790 H   0  0  0  0  0  0  0  0  0  0  0  0
   31.3880   32.9810   44.7460 Br  0  0  0  0  0  0  0  0  0  0  0  0
   32.1660   32.1840   43.2190 C   0  0  0  0  0  0  0  0  0  0  0  0
   32.4880   30.8420   43.2190 C   0  0  0  0  0  0  0  0  0  0  0  0
   33.0640   30.2190   42.1070 C   0  0  0  0  0  0  0  0  0  0  0  0
   33.3100   29.1640   42.1270 H   0  0  0  0  0  0  0  0  0  0  0  0
   33.3220   30.9790   40.9600 C   0  0  0  0  0  0  0  0  0  0  0  0
   33.7660   30.5360   40.0790 H   0  0  0  0  0  0  0  0  0  0  0  0
   32.9800   32.3110   41.0170 C   0  0  0  0  0  3  0  0  0  0  0  0
   32.4120   32.9600   42.0900 C   0  0  0  0  0  3  0  0  0  0  0  0
  2  1  1  0  0  0  0
  3 15  1  0  0  0  0
  3  2  2  0  0  0  0
  4  3  1  0  0  0  0
  5  4  2  0  0  0  0
  5  6  1  0  0  0  0
  6  7  2  0  0  0  0
  7  2  1  0  0  0  0
  7 10  1  0  0  0  0
  8  4  1  0  0  0  0
  9  6  1  0  0  0  0
 11 17  1  0  0  0  0
 12 18  1  0  0  0  0
 12 11  2  0  0  0  0
 13 12  1  0  0  0  0
 14 13  2  0  0  0  0
 14 15  1  0  0  0  0
 15 16  2  0  0  0  0
 16 11  1  0  0  0  0
 19 13  1  0  0  0  0
 20 21  1  0  0  0  0
 20  5  1  0  0  0  0
 21 26  1  0  0  0  0
 22 27  1  0  0  0  0
 22 21  2  0  0  0  0
 23 22  1  0  0  0  0
 24 23  2  0  0  0  0
 24 25  1  0  0  0  0
 25 20  2  0  0  0  0
 29 30  1  0  0  0  0
 29 28  1  0  0  0  0
 30 24  1  0  0  0  0
 31 32  1  0  0  0  0
 31 30  2  0  0  0  0
 33 35  2  0  0  0  0
 33 31  1  0  0  0  0
 34 33  1  0  0  0  0
 35 36  1  0  0  0  0
 36 29  2  0  0  0  0
M  END
>  <minimizedAffinity>
-6.21310282

>  <minimizedRMSD>
1.70801806

$$$$
