
 OpenBabel03272510173D

 28 30  0  0  0  0  0  0  0  0999 V2000
   37.2310   29.3790   51.0280 Br  0  0  0  0  0  0  0  0  0  0  0  0
   35.9490   29.3420   49.6200 C   0  0  0  0  0  0  0  0  0  0  0  0
   36.0200   30.2310   48.5680 C   0  0  0  0  0  0  0  0  0  0  0  0
   35.0580   30.1580   47.5680 C   0  0  0  0  0  0  0  0  0  0  0  0
   34.0350   29.2170   47.6090 C   0  0  0  0  0  0  0  0  0  0  0  0
   33.9870   28.3470   48.6640 C   0  0  0  0  0  0  0  0  0  0  0  0
   34.9380   28.4140   49.6580 C   0  0  0  0  0  0  0  0  0  0  0  0
   35.1700   30.8820   46.7720 H   0  0  0  0  0  0  0  0  0  0  0  0
   33.1780   27.6270   48.6680 H   0  0  0  0  0  0  0  0  0  0  0  0
   34.8810   27.7170   50.4840 H   0  0  0  0  0  0  0  0  0  0  0  0
   38.0110   33.1650   49.4240 C   0  0  0  0  0  0  0  0  0  0  0  0
   39.0600   33.1600   48.4570 C   0  0  0  0  0  0  0  0  0  0  0  0
   39.0540   32.1280   47.5210 C   0  0  0  0  0  0  0  0  0  0  0  0
   38.0620   31.1820   47.5660 N   0  0  0  0  0  0  0  0  0  0  0  0
   37.0900   31.2330   48.5030 C   0  0  0  0  0  0  0  0  0  0  0  0
   37.0600   32.2240   49.4360 N   0  0  0  0  0  0  0  0  0  0  0  0
   37.9630   33.9330   50.1690 H   0  0  0  0  0  0  0  0  0  0  0  0
   39.8010   33.9380   48.4880 H   0  0  0  0  0  0  0  0  0  0  0  0
   39.8340   32.0920   46.7720 H   0  0  0  0  0  0  0  0  0  0  0  0
   33.7190   26.5810   45.9250 Br  0  0  0  0  0  0  0  0  0  0  0  0
   32.8220   28.2260   45.6310 C   0  0  0  0  0  0  0  0  0  0  0  0
   33.1030   29.2680   46.4880 C   0  0  0  0  0  0  0  0  0  0  0  0
   32.4370   30.4760   46.2640 C   0  0  0  0  0  0  0  0  0  0  0  0
   32.5550   31.3770   46.8520 H   0  0  0  0  0  0  0  0  0  0  0  0
   31.5300   30.5890   45.2050 C   0  0  0  0  0  0  0  0  0  0  0  0
   30.9890   31.5180   44.9960 H   0  0  0  0  0  0  0  0  0  0  0  0
   31.2710   29.5280   44.3650 C   0  0  0  0  0  3  0  0  0  0  0  0
   31.9310   28.3390   44.5910 C   0  0  0  0  0  3  0  0  0  0  0  0
  2  7  1  0  0  0  0
  2  1  1  0  0  0  0
  3  2  2  0  0  0  0
  4  5  2  0  0  0  0
  4  3  1  0  0  0  0
  5  6  1  0  0  0  0
  6  9  1  0  0  0  0
  6  7  2  0  0  0  0
  7 10  1  0  0  0  0
  8  4  1  0  0  0  0
 11 16  1  0  0  0  0
 11 17  1  0  0  0  0
 12 18  1  0  0  0  0
 12 11  2  0  0  0  0
 13 14  2  0  0  0  0
 13 12  1  0  0  0  0
 14 15  1  0  0  0  0
 15  3  1  0  0  0  0
 15 16  2  0  0  0  0
 19 13  1  0  0  0  0
 21 20  1  0  0  0  0
 21 22  1  0  0  0  0
 22  5  1  0  0  0  0
 23 22  2  0  0  0  0
 23 24  1  0  0  0  0
 25 23  1  0  0  0  0
 26 25  1  0  0  0  0
 27 28  1  0  0  0  0
 27 25  2  0  0  0  0
 28 21  2  0  0  0  0
M  END
>  <minimizedAffinity>
-6.03123426

>  <minimizedRMSD>
0.104196087

$$$$
