
 OpenBabel03272502353D

 36 38  0  0  1  0  0  0  0  0999 V2000
   35.5490   29.9360   47.9290 C   0  0  0  0  0  3  0  0  0  0  0  0
   36.6980   30.4170   47.5750 C   0  0  0  0  0  3  0  0  0  0  0  0
   33.7320   29.6820   44.6870 C   0  0  0  0  0  0  0  0  0  0  0  0
   34.7050   29.9040   45.6410 C   0  0  0  0  0  0  0  0  0  0  0  0
   34.5000   29.6710   46.9760 C   0  0  0  0  0  0  0  0  0  0  0  0
   33.2810   29.2070   47.3150 N   0  0  0  0  0  0  0  0  0  0  0  0
   32.3250   28.9840   46.4190 C   0  0  0  0  0  0  0  0  0  0  0  0
   32.5520   29.2220   45.0960 N   0  0  0  0  0  0  0  0  0  0  0  0
   33.8620   29.8550   43.6270 H   0  0  0  0  0  0  0  0  0  0  0  0
   35.6130   30.2710   45.2020 H   0  0  0  0  0  0  0  0  0  0  0  0
   32.4300   26.0190   47.4200 Br  0  0  0  0  0  0  0  0  0  0  0  0
   30.9070   27.1820   47.2820 C   0  0  0  0  0  0  0  0  0  0  0  0
   31.0140   28.4800   46.8180 C   0  0  0  0  0  0  0  0  0  0  0  0
   29.8850   29.2820   46.7380 C   0  0  0  0  0  0  0  0  0  0  0  0
   29.9470   30.3140   46.3720 H   0  0  0  0  0  0  0  0  0  0  0  0
   28.6470   28.7670   47.1290 C   0  0  0  0  0  0  0  0  0  0  0  0
   27.7730   29.3840   47.0660 H   0  0  0  0  0  0  0  0  0  0  0  0
   28.5030   27.4680   47.5990 C   0  0  0  0  0  3  0  0  0  0  0  0
   29.6610   26.7090   47.6600 C   0  0  0  0  0  3  0  0  0  0  0  0
   37.7110   30.6670   48.6530 C   0  0  1  0  0  0  0  0  0  0  0  0
   38.3370   29.7720   48.7900 H   0  0  0  0  0  0  0  0  0  0  0  0
   38.4990   31.8660   48.3170 C   0  0  0  0  0  0  0  0  0  0  0  0
   38.5800   32.7980   49.3860 C   0  0  0  0  0  0  0  0  0  0  0  0
   39.2630   33.9870   49.3060 C   0  0  0  0  0  0  0  0  0  0  0  0
   39.9340   34.3540   48.1360 C   0  0  0  0  0  0  0  0  0  0  0  0
   39.8050   33.3910   47.1420 C   0  0  0  0  0  0  0  0  0  0  0  0
   39.1460   32.2230   47.1890 N   0  0  0  0  0  0  0  0  0  0  0  0
   38.1460   32.7440   50.4000 H   0  0  0  0  0  0  0  0  0  0  0  0
   39.3590   34.7340   50.0860 H   0  0  0  0  0  0  0  0  0  0  0  0
   40.5040   35.2370   47.9220 H   0  0  0  0  0  0  0  0  0  0  0  0
   40.2750   33.5330   46.1650 H   0  0  0  0  0  0  0  0  0  0  0  0
   36.7910   31.0770   50.1760 S   0  0  0  0  0  0  0  0  0  0  0  0
   36.8500   29.7270   51.3410 C   0  0  0  0  0  0  0  0  0  0  0  0
   37.5170   30.0470   52.5140 F   0  0  0  0  0  0  0  0  0  0  0  0
   35.5900   29.2170   51.5910 F   0  0  0  0  0  0  0  0  0  0  0  0
   37.5720   28.6900   50.7110 F   0  0  0  0  0  0  0  0  0  0  0  0
  2  1  2  0  0  0  0
  2 20  1  0  0  0  0
  3  8  2  0  0  0  0
  3  4  1  0  0  0  0
  4  5  2  0  0  0  0
  5  6  1  0  0  0  0
  5  1  1  0  0  0  0
  7 13  1  0  0  0  0
  7  6  2  0  0  0  0
  8  7  1  0  0  0  0
  9  3  1  0  0  0  0
 10  4  1  0  0  0  0
 12 11  1  0  0  0  0
 12 19  1  0  0  0  0
 13 12  2  0  0  0  0
 14 13  1  0  0  0  0
 14 16  2  0  0  0  0
 15 14  1  0  0  0  0
 16 18  1  0  0  0  0
 17 16  1  0  0  0  0
 18 19  2  0  0  0  0
 20 21  1  1  0  0  0
 20 32  1  0  0  0  0
 22 20  1  0  0  0  0
 22 23  1  0  0  0  0
 23 28  1  0  0  0  0
 24 23  2  0  0  0  0
 24 29  1  0  0  0  0
 25 24  1  0  0  0  0
 26 27  1  0  0  0  0
 26 25  2  0  0  0  0
 27 22  2  0  0  0  0
 30 25  1  0  0  0  0
 31 26  1  0  0  0  0
 32 33  1  0  0  0  0
 33 35  1  0  0  0  0
 33 34  1  0  0  0  0
 36 33  1  0  0  0  0
M  END
>  <minimizedAffinity>
-6.68690872

>  <minimizedRMSD>
0.133853897

$$$$
