
 OpenBabel03272508373D

 44 47  0  0  1  0  0  0  0  0999 V2000
   35.6270   33.8450   40.0580 C   0  0  0  0  0  0  0  0  0  0  0  0
   35.1780   34.7400   39.5540 H   0  0  0  0  0  0  0  0  0  0  0  0
   36.5140   33.6140   39.3950 H   0  0  0  0  0  0  0  0  0  0  0  0
   34.7160   32.7870   39.8920 N   0  0  0  0  0  0  0  0  0  0  0  0
   34.7530   32.1100   38.6580 C   0  0  0  0  0  0  0  0  0  0  0  0
   33.5230   32.1780   37.8300 C   0  0  0  0  0  0  0  0  0  0  0  0
   32.3520   32.0900   38.5860 O   0  0  0  0  0  0  0  0  0  0  0  0
   32.3260   33.0260   39.5670 C   0  0  0  0  0  0  0  0  0  0  0  0
   33.4730   32.8740   40.5150 C   0  0  1  0  0  0  0  0  0  0  0  0
   35.6620   32.1290   38.0570 H   0  0  0  0  0  0  0  0  0  0  0  0
   34.8120   31.0550   39.0300 H   0  0  0  0  0  0  0  0  0  0  0  0
   33.4690   31.1320   37.3300 H   0  0  0  0  0  0  0  0  0  0  0  0
   33.5010   32.7560   36.9290 H   0  0  0  0  0  0  0  0  0  0  0  0
   31.4580   32.6780   40.1920 H   0  0  0  0  0  0  0  0  0  0  0  0
   32.0000   34.0310   39.3230 H   0  0  0  0  0  0  0  0  0  0  0  0
   33.4980   33.9190   41.0160 H   0  0  0  0  0  0  0  0  0  0  0  0
   32.6960   34.3690   43.1240 Br  0  0  0  0  0  0  0  0  0  0  0  0
   32.8720   32.4570   42.9200 C   0  0  0  0  0  0  0  0  0  0  0  0
   33.2390   31.9740   41.6520 C   0  0  0  0  0  0  0  0  0  0  0  0
   33.3200   30.6030   41.6720 C   0  0  0  0  0  0  0  0  0  0  0  0
   33.5850   30.0770   40.7710 H   0  0  0  0  0  0  0  0  0  0  0  0
   33.0880   29.7770   42.7470 C   0  0  0  0  0  0  0  0  0  0  0  0
   33.1730   28.7050   42.6870 H   0  0  0  0  0  0  0  0  0  0  0  0
   32.7350   30.3530   43.9470 C   0  0  0  0  0  3  0  0  0  0  0  0
   32.6190   31.7200   44.0550 C   0  0  0  0  0  3  0  0  0  0  0  0
   36.1280   34.1490   41.3820 C   0  0  0  0  0  0  0  0  0  0  0  0
   36.9310   34.9490   41.2550 H   0  0  0  0  0  0  0  0  0  0  0  0
   35.5310   34.5390   42.1900 H   0  0  0  0  0  0  0  0  0  0  0  0
   38.1780   31.3290   42.2290 C   0  0  0  0  0  0  0  0  0  0  0  0
   37.3790   31.4080   43.3540 C   0  0  0  0  0  0  0  0  0  0  0  0
   36.5070   32.4850   43.1620 C   0  0  0  0  0  0  0  0  0  0  0  0
   36.8030   32.9950   41.9680 N   0  0  0  0  0  0  0  0  0  0  0  0
   37.8040   32.3020   41.4090 N   0  0  0  0  0  0  0  0  0  0  0  0
   37.4300   30.7390   44.2360 H   0  0  0  0  0  0  0  0  0  0  0  0
   35.8430   32.6690   43.9240 H   0  0  0  0  0  0  0  0  0  0  0  0
   40.1460   28.1360   42.3290 C   0  0  0  0  0  0  0  0  0  0  0  0
   39.1030   29.0140   42.5260 C   0  0  0  0  0  0  0  0  0  0  0  0
   39.2020   30.3250   42.0800 C   0  0  0  0  0  0  0  0  0  0  0  0
   40.3680   30.6340   41.4650 N   0  0  0  0  0  0  0  0  0  0  0  0
   41.3880   29.7590   41.2770 C   0  0  0  0  0  0  0  0  0  0  0  0
   41.2540   28.5190   41.7170 N   0  0  0  0  0  0  0  0  0  0  0  0
   39.9200   27.1460   42.7330 H   0  0  0  0  0  0  0  0  0  0  0  0
   38.1630   28.7690   43.0210 H   0  0  0  0  0  0  0  0  0  0  0  0
   42.2980   30.0730   40.7750 H   0  0  0  0  0  0  0  0  0  0  0  0
  1 26  1  0  0  0  0
  2  1  1  0  0  0  0
  3  1  1  0  0  0  0
  4  1  1  0  0  0  0
  4  9  1  0  0  0  0
  5 11  1  0  0  0  0
  5  4  1  0  0  0  0
  6  7  1  0  0  0  0
  6  5  1  0  0  0  0
  7  8  1  0  0  0  0
  8 14  1  0  0  0  0
  8  9  1  0  0  0  0
  9 16  1  1  0  0  0
  9 19  1  0  0  0  0
 10  5  1  0  0  0  0
 12  6  1  0  0  0  0
 13  6  1  0  0  0  0
 15  8  1  0  0  0  0
 18 17  1  0  0  0  0
 18 25  1  0  0  0  0
 19 20  1  0  0  0  0
 19 18  2  0  0  0  0
 20 22  2  0  0  0  0
 21 20  1  0  0  0  0
 22 24  1  0  0  0  0
 23 22  1  0  0  0  0
 24 25  2  0  0  0  0
 26 32  1  0  0  0  0
 26 28  1  0  0  0  0
 27 26  1  0  0  0  0
 29 30  1  0  0  0  0
 30 34  1  0  0  0  0
 31 30  2  0  0  0  0
 31 35  1  0  0  0  0
 32 31  1  0  0  0  0
 33 32  1  0  0  0  0
 33 29  2  0  0  0  0
 36 37  1  0  0  0  0
 36 42  1  0  0  0  0
 37 43  1  0  0  0  0
 38 29  1  0  0  0  0
 38 37  2  0  0  0  0
 39 38  1  0  0  0  0
 40 39  2  0  0  0  0
 40 41  1  0  0  0  0
 41 36  2  0  0  0  0
 44 40  1  0  0  0  0
M  END
>  <minimizedAffinity>
-2.98641801

>  <minimizedRMSD>
8.2377367

$$$$
