
 OpenBabel03272510173D

 28 30  0  0  0  0  0  0  0  0999 V2000
   36.9560   29.8990   51.3270 Br  0  0  0  0  0  0  0  0  0  0  0  0
   35.9520   29.3720   49.7960 C   0  0  0  0  0  0  0  0  0  0  0  0
   36.1750   29.9500   48.5640 C   0  0  0  0  0  0  0  0  0  0  0  0
   35.4140   29.5250   47.4810 C   0  0  0  0  0  0  0  0  0  0  0  0
   34.4410   28.5410   47.6170 C   0  0  0  0  0  0  0  0  0  0  0  0
   34.2390   27.9840   48.8500 C   0  0  0  0  0  0  0  0  0  0  0  0
   34.9920   28.4000   49.9270 C   0  0  0  0  0  0  0  0  0  0  0  0
   35.6370   30.0170   46.5440 H   0  0  0  0  0  0  0  0  0  0  0  0
   33.4750   27.2210   48.9230 H   0  0  0  0  0  0  0  0  0  0  0  0
   34.8150   27.9470   50.8930 H   0  0  0  0  0  0  0  0  0  0  0  0
   38.0420   33.0290   49.1420 C   0  0  0  0  0  0  0  0  0  0  0  0
   39.0730   32.9950   48.1560 C   0  0  0  0  0  0  0  0  0  0  0  0
   39.0970   31.8910   47.3040 C   0  0  0  0  0  0  0  0  0  0  0  0
   38.1520   30.9090   47.4460 N   0  0  0  0  0  0  0  0  0  0  0  0
   37.1960   30.9900   48.3970 C   0  0  0  0  0  0  0  0  0  0  0  0
   37.1360   32.0500   49.2480 N   0  0  0  0  0  0  0  0  0  0  0  0
   37.9720   33.8510   49.8240 H   0  0  0  0  0  0  0  0  0  0  0  0
   39.7770   33.8050   48.1080 H   0  0  0  0  0  0  0  0  0  0  0  0
   39.8650   31.8310   46.5440 H   0  0  0  0  0  0  0  0  0  0  0  0
   32.7160   30.8310   46.3240 Br  0  0  0  0  0  0  0  0  0  0  0  0
   32.9200   29.0610   45.6710 C   0  0  0  0  0  0  0  0  0  0  0  0
   33.7260   28.2050   46.3900 C   0  0  0  0  0  0  0  0  0  0  0  0
   33.8700   26.9030   45.9010 C   0  0  0  0  0  0  0  0  0  0  0  0
   34.4670   26.1250   46.3560 H   0  0  0  0  0  0  0  0  0  0  0  0
   33.2110   26.5190   44.7300 C   0  0  0  0  0  0  0  0  0  0  0  0
   33.2970   25.5090   44.3140 H   0  0  0  0  0  0  0  0  0  0  0  0
   32.4120   27.3990   44.0340 C   0  0  0  0  0  3  0  0  0  0  0  0
   32.2730   28.6810   44.5200 C   0  0  0  0  0  3  0  0  0  0  0  0
  2  7  1  0  0  0  0
  2  1  1  0  0  0  0
  3  2  2  0  0  0  0
  4  5  2  0  0  0  0
  4  3  1  0  0  0  0
  5  6  1  0  0  0  0
  6  9  1  0  0  0  0
  6  7  2  0  0  0  0
  7 10  1  0  0  0  0
  8  4  1  0  0  0  0
 11 16  1  0  0  0  0
 11 17  1  0  0  0  0
 12 11  2  0  0  0  0
 13 14  2  0  0  0  0
 13 12  1  0  0  0  0
 14 15  1  0  0  0  0
 15  3  1  0  0  0  0
 15 16  2  0  0  0  0
 18 12  1  0  0  0  0
 19 13  1  0  0  0  0
 21 20  1  0  0  0  0
 21 22  1  0  0  0  0
 22  5  1  0  0  0  0
 23 24  1  0  0  0  0
 23 22  2  0  0  0  0
 25 23  1  0  0  0  0
 26 25  1  0  0  0  0
 27 28  1  0  0  0  0
 27 25  2  0  0  0  0
 28 21  2  0  0  0  0
M  END
>  <minimizedAffinity>
-5.64571714

>  <minimizedRMSD>
1.10538054

$$$$
