
 OpenBabel03262520443D

 28 30  0  0  1  0  0  0  0  0999 V2000
   38.5960   32.5030   47.2970 C   0  0  1  0  0  0  0  0  0  0  0  0
   39.8340   33.1780   46.6680 C   0  0  0  0  0  0  0  0  0  0  0  0
   39.5490   31.7210   46.5170 C   0  0  2  0  0  0  0  0  0  0  0  0
   37.6100   32.8580   46.9600 H   0  0  0  0  0  0  0  0  0  0  0  0
   40.6510   33.5170   47.3390 H   0  0  0  0  0  0  0  0  0  0  0  0
   39.6580   33.9150   45.8700 H   0  0  0  0  0  0  0  0  0  0  0  0
   40.1890   31.0900   47.2150 H   0  0  0  0  0  0  0  0  0  0  0  0
   36.7130   30.4660   45.6040 Br  0  0  0  0  0  0  0  0  0  0  0  0
   38.3110   30.4770   44.6160 C   0  0  0  0  0  0  0  0  0  0  0  0
   39.3860   31.0710   45.2370 C   0  0  0  0  0  0  0  0  0  0  0  0
   40.5620   31.0470   44.4600 C   0  0  0  0  0  0  0  0  0  0  0  0
   41.5170   31.4780   44.8020 H   0  0  0  0  0  0  0  0  0  0  0  0
   40.6290   30.4920   43.2180 C   0  0  0  0  0  0  0  0  0  0  0  0
   41.5330   30.4750   42.6240 H   0  0  0  0  0  0  0  0  0  0  0  0
   39.5280   29.9220   42.6660 C   0  0  0  0  0  0  0  0  0  0  0  0
   38.3600   29.9100   43.3600 C   0  0  0  0  0  0  0  0  0  0  0  0
   38.6330   32.5390   48.8070 C   0  0  0  0  0  0  0  0  0  0  0  0
   39.6700   32.2500   49.1150 H   0  0  0  0  0  0  0  0  0  0  0  0
   38.4640   33.5450   49.2270 H   0  0  0  0  0  0  0  0  0  0  0  0
   37.3280   29.8800   51.0740 C   0  0  0  0  0  0  0  0  0  0  0  0
   38.1930   30.8130   50.4730 C   0  0  0  0  0  0  0  0  0  0  0  0
   37.7110   31.5680   49.4220 C   0  0  0  0  0  0  0  0  0  0  0  0
   36.4480   31.3790   49.0240 N   0  0  0  0  0  0  0  0  0  0  0  0
   35.6250   30.4800   49.6060 C   0  0  0  0  0  0  0  0  0  0  0  0
   36.0760   29.7390   50.6280 N   0  0  0  0  0  0  0  0  0  0  0  0
   37.7270   29.2970   51.8980 H   0  0  0  0  0  0  0  0  0  0  0  0
   39.1980   30.9120   50.8470 H   0  0  0  0  0  0  0  0  0  0  0  0
   34.5970   30.3180   49.2910 H   0  0  0  0  0  0  0  0  0  0  0  0
  1  4  1  6  0  0  0
  1 17  1  0  0  0  0
  2  1  1  0  0  0  0
  2  5  1  0  0  0  0
  3  2  1  0  0  0  0
  3  7  1  1  0  0  0
  3  1  1  0  0  0  0
  6  2  1  0  0  0  0
  9 10  1  0  0  0  0
  9  8  1  0  0  0  0
 10  3  1  0  0  0  0
 11 12  1  0  0  0  0
 11 10  2  0  0  0  0
 13 11  1  0  0  0  0
 14 13  1  0  0  0  0
 15 13  2  0  0  0  0
 15 16  1  0  0  0  0
 16  9  2  0  0  0  0
 17 18  1  0  0  0  0
 17 19  1  0  0  0  0
 17 22  1  0  0  0  0
 20 26  1  0  0  0  0
 21 27  1  0  0  0  0
 21 20  2  0  0  0  0
 22 21  1  0  0  0  0
 23 22  2  0  0  0  0
 23 24  1  0  0  0  0
 24 25  2  0  0  0  0
 25 20  1  0  0  0  0
 28 24  1  0  0  0  0
M  END
>  <minimizedAffinity>
-5.31520796

>  <minimizedRMSD>
1.18539703

$$$$
