
 OpenBabel03272502343D

 36 38  0  0  1  0  0  0  0  0999 V2000
   35.6200   29.9610   47.8760 C   0  0  0  0  0  3  0  0  0  0  0  0
   36.8010   30.3800   47.5500 C   0  0  0  0  0  3  0  0  0  0  0  0
   34.0010   29.3920   44.5680 C   0  0  0  0  0  0  0  0  0  0  0  0
   34.9300   29.6560   45.5560 C   0  0  0  0  0  0  0  0  0  0  0  0
   34.6110   29.6640   46.8890 C   0  0  0  0  0  0  0  0  0  0  0  0
   33.3250   29.3950   47.1910 N   0  0  0  0  0  0  0  0  0  0  0  0
   32.4110   29.1370   46.2630 C   0  0  0  0  0  0  0  0  0  0  0  0
   32.7500   29.1350   44.9430 N   0  0  0  0  0  0  0  0  0  0  0  0
   34.2200   29.3780   43.5100 H   0  0  0  0  0  0  0  0  0  0  0  0
   35.9020   29.8470   45.1440 H   0  0  0  0  0  0  0  0  0  0  0  0
   30.3780   31.0510   44.8460 Br  0  0  0  0  0  0  0  0  0  0  0  0
   30.0160   29.6170   46.0720 C   0  0  0  0  0  0  0  0  0  0  0  0
   31.0250   28.8490   46.6220 C   0  0  0  0  0  0  0  0  0  0  0  0
   30.7130   27.8250   47.5040 C   0  0  0  0  0  0  0  0  0  0  0  0
   31.4980   27.2030   47.9530 H   0  0  0  0  0  0  0  0  0  0  0  0
   29.3760   27.5780   47.8260 C   0  0  0  0  0  0  0  0  0  0  0  0
   29.1330   26.7860   48.5060 H   0  0  0  0  0  0  0  0  0  0  0  0
   28.3380   28.3290   47.2900 C   0  0  0  0  0  3  0  0  0  0  0  0
   28.7030   29.3400   46.4160 C   0  0  0  0  0  3  0  0  0  0  0  0
   37.7670   30.6730   48.6600 C   0  0  1  0  0  0  0  0  0  0  0  0
   38.4120   29.7980   48.8320 H   0  0  0  0  0  0  0  0  0  0  0  0
   38.5330   31.8890   48.3340 C   0  0  0  0  0  0  0  0  0  0  0  0
   38.6050   32.8090   49.4150 C   0  0  0  0  0  0  0  0  0  0  0  0
   39.2680   34.0100   49.3470 C   0  0  0  0  0  0  0  0  0  0  0  0
   39.9270   34.4020   48.1780 C   0  0  0  0  0  0  0  0  0  0  0  0
   39.8090   33.4490   47.1720 C   0  0  0  0  0  0  0  0  0  0  0  0
   39.1700   32.2700   47.2080 N   0  0  0  0  0  0  0  0  0  0  0  0
   38.1770   32.7350   50.4310 H   0  0  0  0  0  0  0  0  0  0  0  0
   39.3560   34.7490   50.1350 H   0  0  0  0  0  0  0  0  0  0  0  0
   40.4820   35.2970   47.9720 H   0  0  0  0  0  0  0  0  0  0  0  0
   40.2720   33.6110   46.1950 H   0  0  0  0  0  0  0  0  0  0  0  0
   36.7820   31.0770   50.1420 S   0  0  0  0  0  0  0  0  0  0  0  0
   36.8310   29.7430   51.3260 C   0  0  0  0  0  0  0  0  0  0  0  0
   37.4940   30.0760   52.4980 F   0  0  0  0  0  0  0  0  0  0  0  0
   35.5670   29.2420   51.5770 F   0  0  0  0  0  0  0  0  0  0  0  0
   37.5500   28.6950   50.7120 F   0  0  0  0  0  0  0  0  0  0  0  0
  2  1  2  0  0  0  0
  2 20  1  0  0  0  0
  3  8  2  0  0  0  0
  3  4  1  0  0  0  0
  4  5  2  0  0  0  0
  5  6  1  0  0  0  0
  5  1  1  0  0  0  0
  7 13  1  0  0  0  0
  7  6  2  0  0  0  0
  8  7  1  0  0  0  0
  9  3  1  0  0  0  0
 10  4  1  0  0  0  0
 11 12  1  0  0  0  0
 12 19  2  0  0  0  0
 12 13  1  0  0  0  0
 13 14  2  0  0  0  0
 14 16  1  0  0  0  0
 14 15  1  0  0  0  0
 16 17  1  0  0  0  0
 18 16  2  0  0  0  0
 19 18  1  0  0  0  0
 20 21  1  1  0  0  0
 20 32  1  0  0  0  0
 22 20  1  0  0  0  0
 22 23  1  0  0  0  0
 23 28  1  0  0  0  0
 24 23  2  0  0  0  0
 24 29  1  0  0  0  0
 25 24  1  0  0  0  0
 26 27  1  0  0  0  0
 26 25  2  0  0  0  0
 27 22  2  0  0  0  0
 30 25  1  0  0  0  0
 31 26  1  0  0  0  0
 32 33  1  0  0  0  0
 33 35  1  0  0  0  0
 33 34  1  0  0  0  0
 36 33  1  0  0  0  0
M  END
>  <minimizedAffinity>
-6.54661512

>  <minimizedRMSD>
0.370400488

$$$$
