
 OpenBabel03272509543D

 43 46  0  0  0  0  0  0  0  0999 V2000
   34.4690   28.5160   48.1690 C   0  0  0  0  0  0  0  0  0  0  0  0
   33.8720   29.4490   48.2310 H   0  0  0  0  0  0  0  0  0  0  0  0
   35.2810   28.6950   47.4310 H   0  0  0  0  0  0  0  0  0  0  0  0
   33.5450   27.4100   47.7690 C   0  0  0  0  0  0  0  0  0  0  0  0
   33.6190   26.5040   48.3880 H   0  0  0  0  0  0  0  0  0  0  0  0
   33.7950   27.0730   46.7270 H   0  0  0  0  0  0  0  0  0  0  0  0
   32.1200   27.8410   47.7310 C   0  0  0  0  0  0  0  0  0  0  0  0
   31.3210   27.5660   48.8250 C   0  0  0  0  0  0  0  0  0  0  0  0
   30.0080   27.9270   48.8660 C   0  0  0  0  0  0  0  0  0  0  0  0
   29.4700   28.5560   47.8410 N   0  0  0  0  0  0  0  0  0  0  0  0
   30.2480   28.8350   46.7520 C   0  0  0  0  0  0  0  0  0  0  0  0
   31.5580   28.4910   46.6770 N   0  0  0  0  0  0  0  0  0  0  0  0
   31.7540   27.0490   49.6700 H   0  0  0  0  0  0  0  0  0  0  0  0
   29.4130   27.6870   49.7570 H   0  0  0  0  0  0  0  0  0  0  0  0
   32.1300   31.0620   45.7070 Br  0  0  0  0  0  0  0  0  0  0  0  0
   30.4090   30.5700   45.0130 C   0  0  0  0  0  0  0  0  0  0  0  0
   29.6760   29.5340   45.5990 C   0  0  0  0  0  0  0  0  0  0  0  0
   28.4480   29.2100   45.0750 C   0  0  0  0  0  0  0  0  0  0  0  0
   27.8650   28.4140   45.5130 H   0  0  0  0  0  0  0  0  0  0  0  0
   27.9120   29.8700   43.9900 C   0  0  0  0  0  0  0  0  0  0  0  0
   26.9520   29.6080   43.5890 H   0  0  0  0  0  0  0  0  0  0  0  0
   28.6730   30.8810   43.4480 C   0  0  0  0  0  3  0  0  0  0  0  0
   29.9150   31.2740   43.9100 C   0  0  0  0  0  3  0  0  0  0  0  0
   34.9780   28.2910   49.4670 O   0  0  0  0  0  0  0  0  0  0  0  0
   37.3030   30.1790   51.4880 C   0  0  0  0  0  0  0  0  0  0  0  0
   38.0350   30.8500   50.4810 C   0  0  0  0  0  0  0  0  0  0  0  0
   37.6720   30.6020   49.1620 C   0  0  0  0  0  0  0  0  0  0  0  0
   36.6330   29.7250   48.9670 N   0  0  0  0  0  0  0  0  0  0  0  0
   35.9670   29.1120   49.9330 C   0  0  0  0  0  0  0  0  0  0  0  0
   36.3190   29.3530   51.2190 N   0  0  0  0  0  0  0  0  0  0  0  0
   37.6170   30.3990   52.5080 H   0  0  0  0  0  0  0  0  0  0  0  0
   38.8500   31.5370   50.6350 H   0  0  0  0  0  0  0  0  0  0  0  0
   38.9900   33.1730   48.9390 F   0  0  0  0  0  0  0  0  0  0  0  0
   38.9150   32.3870   47.8740 C   0  0  0  0  0  0  0  0  0  0  0  0
   38.2960   31.1890   47.9960 C   0  0  0  0  0  0  0  0  0  0  0  0
   38.2770   30.4450   46.8140 C   0  0  0  0  0  0  0  0  0  0  0  0
   38.8320   30.8910   45.6490 C   0  0  0  0  0  0  0  0  0  0  0  0
   39.4470   32.1060   45.5700 C   0  0  0  0  0  0  0  0  0  0  0  0
   39.4850   32.8590   46.7050 C   0  0  0  0  0  0  0  0  0  0  0  0
   37.8080   29.4510   46.7640 H   0  0  0  0  0  0  0  0  0  0  0  0
   38.8010   30.2840   44.7420 H   0  0  0  0  0  0  0  0  0  0  0  0
   39.8800   32.4360   44.6340 H   0  0  0  0  0  0  0  0  0  0  0  0
   39.9640   33.8250   46.6770 H   0  0  0  0  0  0  0  0  0  0  0  0
  1  2  1  0  0  0  0
  1 24  1  0  0  0  0
  3  1  1  0  0  0  0
  4  1  1  0  0  0  0
  4  5  1  0  0  0  0
  6  4  1  0  0  0  0
  7  4  1  0  0  0  0
  7  8  1  0  0  0  0
  8  9  2  0  0  0  0
  8 13  1  0  0  0  0
  9 14  1  0  0  0  0
 10  9  1  0  0  0  0
 11 10  2  0  0  0  0
 12 11  1  0  0  0  0
 12  7  2  0  0  0  0
 16 17  1  0  0  0  0
 16 15  1  0  0  0  0
 17 11  1  0  0  0  0
 18 19  1  0  0  0  0
 18 17  2  0  0  0  0
 20 18  1  0  0  0  0
 21 20  1  0  0  0  0
 22 23  1  0  0  0  0
 22 20  2  0  0  0  0
 23 16  2  0  0  0  0
 24 29  1  0  0  0  0
 25 31  1  0  0  0  0
 26 32  1  0  0  0  0
 26 25  2  0  0  0  0
 27 26  1  0  0  0  0
 28 27  2  0  0  0  0
 28 29  1  0  0  0  0
 29 30  2  0  0  0  0
 30 25  1  0  0  0  0
 34 35  1  0  0  0  0
 34 33  1  0  0  0  0
 35 27  1  0  0  0  0
 36 35  2  0  0  0  0
 37 36  1  0  0  0  0
 38 37  2  0  0  0  0
 38 39  1  0  0  0  0
 39 34  2  0  0  0  0
 40 36  1  0  0  0  0
 41 37  1  0  0  0  0
 42 38  1  0  0  0  0
 43 39  1  0  0  0  0
M  END
>  <minimizedAffinity>
-6.68118143

>  <minimizedRMSD>
0.189394012

$$$$
