
 OpenBabel03262520133D

 42 44  0  0  0  0  0  0  0  0999 V2000
   35.3220   30.4240   49.4750 C   0  0  0  0  0  0  0  0  0  0  0  0
   35.0430   31.4720   49.7910 H   0  0  0  0  0  0  0  0  0  0  0  0
   36.2240   30.1690   50.0810 H   0  0  0  0  0  0  0  0  0  0  0  0
   38.2050   31.5910   48.9670 Br  0  0  0  0  0  0  0  0  0  0  0  0
   36.9580   30.9460   47.6490 C   0  0  0  0  0  0  0  0  0  0  0  0
   37.2850   30.9590   46.3110 C   0  0  0  0  0  0  0  0  0  0  0  0
   36.3620   30.5010   45.4220 C   0  0  0  0  0  0  0  0  0  0  0  0
   35.1190   30.0280   45.8190 C   0  0  0  0  0  0  0  0  0  0  0  0
   34.8220   30.0290   47.1830 C   0  0  0  0  0  0  0  0  0  0  0  0
   35.7470   30.4880   48.0790 C   0  0  0  0  0  0  0  0  0  0  0  0
   36.6780   30.5340   44.3660 H   0  0  0  0  0  0  0  0  0  0  0  0
   34.5200   29.7080   45.0030 H   0  0  0  0  0  0  0  0  0  0  0  0
   33.8320   29.6490   47.2770 H   0  0  0  0  0  0  0  0  0  0  0  0
   39.8070   33.2640   45.0150 C   0  0  0  0  0  0  0  0  0  0  0  0
   41.0010   32.4770   44.9940 C   0  0  0  0  0  0  0  0  0  0  0  0
   40.8980   31.1720   45.4290 C   0  0  0  0  0  0  0  0  0  0  0  0
   39.6870   30.6790   45.8580 N   0  0  0  0  0  0  0  0  0  0  0  0
   38.5910   31.4610   45.8580 C   0  0  0  0  0  0  0  0  0  0  0  0
   38.6670   32.7330   45.4390 N   0  0  0  0  0  0  0  0  0  0  0  0
   39.8410   34.2830   44.6850 H   0  0  0  0  0  0  0  0  0  0  0  0
   41.8810   32.9580   44.6440 H   0  0  0  0  0  0  0  0  0  0  0  0
   41.7930   30.5720   45.4160 H   0  0  0  0  0  0  0  0  0  0  0  0
   34.2770   29.4260   49.8160 C   0  0  0  0  0  0  0  0  0  0  0  0
   33.2980   29.8090   49.6220 H   0  0  0  0  0  0  0  0  0  0  0  0
   34.3240   29.3730   50.9610 H   0  0  0  0  0  0  0  0  0  0  0  0
   34.6820   28.1450   49.3860 N   0  0  0  0  0  0  0  0  0  0  0  0
   35.6040   28.1370   48.8790 H   0  0  0  0  0  0  0  0  0  0  0  0
   33.7330   27.3520   48.6880 C   0  0  0  0  0  0  0  0  0  0  0  0
   33.8980   27.3270   47.5860 H   0  0  0  0  0  0  0  0  0  0  0  0
   33.7180   26.2920   49.0380 H   0  0  0  0  0  0  0  0  0  0  0  0
   32.3770   27.9210   48.9400 C   0  0  0  0  0  0  0  0  0  0  0  0
   32.0020   27.5320   49.9140 H   0  0  0  0  0  0  0  0  0  0  0  0
   32.1800   28.9570   48.7610 H   0  0  0  0  0  0  0  0  0  0  0  0
   29.3260   27.9900   49.7860 Br  0  0  0  0  0  0  0  0  0  0  0  0
   30.0890   27.2070   48.2060 C   0  0  0  0  0  0  0  0  0  0  0  0
   31.4380   27.2400   47.9340 C   0  0  0  0  0  0  0  0  0  0  0  0
   31.8940   26.6580   46.7750 C   0  0  0  0  0  0  0  0  0  0  0  0
   32.9560   26.6840   46.5590 H   0  0  0  0  0  0  0  0  0  0  0  0
   30.9610   26.0700   45.9500 C   0  0  0  0  0  0  0  0  0  0  0  0
   31.2790   25.6020   45.0300 H   0  0  0  0  0  0  0  0  0  0  0  0
   29.6080   26.0310   46.2130 C   0  0  0  0  0  0  0  0  0  0  0  0
   29.1420   26.6220   47.3920 C   0  0  0  0  0  0  0  0  0  0  0  0
  1  2  1  0  0  0  0
  1 23  1  0  0  0  0
  1  3  1  0  0  0  0
  5 10  1  0  0  0  0
  5  4  1  0  0  0  0
  6  5  2  0  0  0  0
  7  8  2  0  0  0  0
  7  6  1  0  0  0  0
  8  9  1  0  0  0  0
  9 13  1  0  0  0  0
  9 10  2  0  0  0  0
 10  1  1  0  0  0  0
 11  7  1  0  0  0  0
 12  8  1  0  0  0  0
 14 19  1  0  0  0  0
 15 14  2  0  0  0  0
 15 16  1  0  0  0  0
 16 17  2  0  0  0  0
 17 18  1  0  0  0  0
 18  6  1  0  0  0  0
 19 18  2  0  0  0  0
 20 14  1  0  0  0  0
 21 15  1  0  0  0  0
 22 16  1  0  0  0  0
 23 25  1  0  0  0  0
 24 23  1  0  0  0  0
 26 23  1  0  0  0  0
 27 26  1  0  0  0  0
 28 31  1  0  0  0  0
 28 30  1  0  0  0  0
 28 26  1  0  0  0  0
 29 28  1  0  0  0  0
 31 32  1  0  0  0  0
 33 31  1  0  0  0  0
 35 34  1  0  0  0  0
 36 35  1  0  0  0  0
 36 31  1  0  0  0  0
 37 36  2  0  0  0  0
 38 37  1  0  0  0  0
 39 41  2  0  0  0  0
 39 37  1  0  0  0  0
 40 39  1  0  0  0  0
 41 42  1  0  0  0  0
 42 35  2  0  0  0  0
M  END
>  <minimizedAffinity>
-5.67687511

>  <minimizedRMSD>
0.635207951

$$$$
