
 OpenBabel03272502343D

 36 38  0  0  1  0  0  0  0  0999 V2000
   35.6170   29.9140   47.9400 C   0  0  0  0  0  3  0  0  0  0  0  0
   36.7710   30.3850   47.5870 C   0  0  0  0  0  3  0  0  0  0  0  0
   33.8890   29.4360   44.6740 C   0  0  0  0  0  0  0  0  0  0  0  0
   34.8440   29.6970   45.6370 C   0  0  0  0  0  0  0  0  0  0  0  0
   34.5830   29.6160   46.9800 C   0  0  0  0  0  0  0  0  0  0  0  0
   33.3270   29.2620   47.3180 N   0  0  0  0  0  0  0  0  0  0  0  0
   32.3880   29.0050   46.4140 C   0  0  0  0  0  0  0  0  0  0  0  0
   32.6700   29.0930   45.0840 N   0  0  0  0  0  0  0  0  0  0  0  0
   34.0620   29.4910   43.6080 H   0  0  0  0  0  0  0  0  0  0  0  0
   35.7860   29.9620   45.1970 H   0  0  0  0  0  0  0  0  0  0  0  0
   30.1890   30.7720   45.0540 Br  0  0  0  0  0  0  0  0  0  0  0  0
   29.9610   29.3190   46.2910 C   0  0  0  0  0  0  0  0  0  0  0  0
   31.0360   28.6240   46.8130 C   0  0  0  0  0  0  0  0  0  0  0  0
   30.8190   27.5820   47.7030 C   0  0  0  0  0  0  0  0  0  0  0  0
   31.6570   27.0180   48.1300 H   0  0  0  0  0  0  0  0  0  0  0  0
   29.5120   27.2460   48.0630 C   0  0  0  0  0  0  0  0  0  0  0  0
   29.3430   26.4410   48.7510 H   0  0  0  0  0  0  0  0  0  0  0  0
   28.4100   27.9230   47.5560 C   0  0  0  0  0  3  0  0  0  0  0  0
   28.6810   28.9550   46.6720 C   0  0  0  0  0  3  0  0  0  0  0  0
   37.7670   30.6730   48.6730 C   0  0  1  0  0  0  0  0  0  0  0  0
   38.4090   29.7930   48.8310 H   0  0  0  0  0  0  0  0  0  0  0  0
   38.5330   31.8820   48.3250 C   0  0  0  0  0  0  0  0  0  0  0  0
   38.6120   32.8180   49.3930 C   0  0  0  0  0  0  0  0  0  0  0  0
   39.2770   34.0160   49.3030 C   0  0  0  0  0  0  0  0  0  0  0  0
   39.9310   34.3900   48.1250 C   0  0  0  0  0  0  0  0  0  0  0  0
   39.8050   33.4240   47.1340 C   0  0  0  0  0  0  0  0  0  0  0  0
   39.1630   32.2470   47.1900 N   0  0  0  0  0  0  0  0  0  0  0  0
   38.1900   32.7590   50.4110 H   0  0  0  0  0  0  0  0  0  0  0  0
   39.3710   34.7660   50.0800 H   0  0  0  0  0  0  0  0  0  0  0  0
   40.4860   35.2810   47.9030 H   0  0  0  0  0  0  0  0  0  0  0  0
   40.2620   33.5700   46.1520 H   0  0  0  0  0  0  0  0  0  0  0  0
   36.8220   31.0870   50.1780 S   0  0  0  0  0  0  0  0  0  0  0  0
   36.8600   29.7400   51.3480 C   0  0  0  0  0  0  0  0  0  0  0  0
   37.5210   30.0570   52.5250 F   0  0  0  0  0  0  0  0  0  0  0  0
   35.5930   29.2430   51.5900 F   0  0  0  0  0  0  0  0  0  0  0  0
   37.5750   28.6940   50.7250 F   0  0  0  0  0  0  0  0  0  0  0  0
  2  1  2  0  0  0  0
  2 20  1  0  0  0  0
  3  8  2  0  0  0  0
  3  4  1  0  0  0  0
  4  5  2  0  0  0  0
  5  6  1  0  0  0  0
  5  1  1  0  0  0  0
  7 13  1  0  0  0  0
  7  6  2  0  0  0  0
  8  7  1  0  0  0  0
  9  3  1  0  0  0  0
 10  4  1  0  0  0  0
 11 12  1  0  0  0  0
 12 19  2  0  0  0  0
 12 13  1  0  0  0  0
 13 14  2  0  0  0  0
 14 16  1  0  0  0  0
 14 15  1  0  0  0  0
 16 17  1  0  0  0  0
 18 16  2  0  0  0  0
 19 18  1  0  0  0  0
 20 21  1  1  0  0  0
 20 32  1  0  0  0  0
 22 20  1  0  0  0  0
 22 23  1  0  0  0  0
 23 28  1  0  0  0  0
 24 23  2  0  0  0  0
 24 29  1  0  0  0  0
 25 24  1  0  0  0  0
 26 27  1  0  0  0  0
 26 25  2  0  0  0  0
 27 22  2  0  0  0  0
 30 25  1  0  0  0  0
 31 26  1  0  0  0  0
 32 33  1  0  0  0  0
 33 35  1  0  0  0  0
 33 34  1  0  0  0  0
 36 33  1  0  0  0  0
M  END
>  <minimizedAffinity>
-6.59660769

>  <minimizedRMSD>
0.185424417

$$$$
