
 OpenBabel03272508443D

 27 29  0  0  0  0  0  0  0  0999 V2000
   35.8510   30.0030   49.8030 C   0  0  0  0  0  0  0  0  0  0  0  0
   36.8770   29.3810   50.4880 C   0  0  0  0  0  0  0  0  0  0  0  0
   37.9730   30.1890   50.1690 C   0  0  0  0  0  0  0  0  0  0  0  0
   37.5870   31.2170   49.3460 C   0  0  0  0  0  0  0  0  0  0  0  0
   36.2950   31.0800   49.1400 O   0  0  0  0  0  0  0  0  0  0  0  0
   36.7790   28.5000   51.0930 H   0  0  0  0  0  0  0  0  0  0  0  0
   38.9800   29.9790   50.5560 H   0  0  0  0  0  0  0  0  0  0  0  0
   38.4440   30.7010   46.4110 Br  0  0  0  0  0  0  0  0  0  0  0  0
   38.8990   32.1730   47.5000 C   0  0  0  0  0  0  0  0  0  0  0  0
   38.4390   32.2670   48.7980 C   0  0  0  0  0  0  0  0  0  0  0  0
   38.7760   33.3470   49.5890 C   0  0  0  0  0  0  0  0  0  0  0  0
   38.4230   33.4330   50.6060 H   0  0  0  0  0  0  0  0  0  0  0  0
   39.5810   34.3480   49.0850 C   0  0  0  0  0  0  0  0  0  0  0  0
   39.8250   35.1690   49.7180 H   0  0  0  0  0  0  0  0  0  0  0  0
   40.0250   34.2280   47.7850 C   0  0  0  0  0  0  0  0  0  0  0  0
   39.7080   33.1510   46.9480 C   0  0  0  0  0  0  0  0  0  0  0  0
   34.4560   29.5600   49.7910 C   0  0  0  0  0  0  0  0  0  0  0  0
   33.7500   29.8500   50.7950 O   0  0  0  0  0  0  0  0  0  0  0  0
   32.4020   27.2600   47.8800 C   0  0  0  0  0  0  0  0  0  0  0  0
   32.8730   27.3920   46.5790 C   0  0  0  0  0  0  0  0  0  0  0  0
   33.9180   28.2880   46.3450 C   0  0  0  0  0  0  0  0  0  0  0  0
   34.3990   28.9670   47.4090 N   0  0  0  0  0  0  0  0  0  0  0  0
   33.9240   28.8190   48.6590 C   0  0  0  0  0  0  0  0  0  0  0  0
   32.9190   27.9590   48.8860 N   0  0  0  0  0  0  0  0  0  0  0  0
   31.5930   26.5490   47.9870 H   0  0  0  0  0  0  0  0  0  0  0  0
   32.5330   26.8820   45.6900 H   0  0  0  0  0  0  0  0  0  0  0  0
   34.4080   28.5250   45.4240 H   0  0  0  0  0  0  0  0  0  0  0  0
  1  2  2  0  0  0  0
  2  6  1  0  0  0  0
  3  2  1  0  0  0  0
  3  7  1  0  0  0  0
  4  3  2  0  0  0  0
  5  4  1  0  0  0  0
  5  1  1  0  0  0  0
  8  9  1  0  0  0  0
  9 10  1  0  0  0  0
 10  4  1  0  0  0  0
 10 11  2  0  0  0  0
 11 12  1  0  0  0  0
 13 11  1  0  0  0  0
 13 14  1  0  0  0  0
 15 13  2  0  0  0  0
 16  9  2  0  0  0  0
 16 15  1  0  0  0  0
 17  1  1  0  0  0  0
 17 18  2  0  0  0  0
 19 25  1  0  0  0  0
 19 24  1  0  0  0  0
 20 19  2  0  0  0  0
 21 20  1  0  0  0  0
 21 22  2  0  0  0  0
 22 23  1  0  0  0  0
 23 24  2  0  0  0  0
 23 17  1  0  0  0  0
 26 20  1  0  0  0  0
 27 21  1  0  0  0  0
M  END
>  <minimizedAffinity>
-6.17081499

>  <minimizedRMSD>
2.01250529

$$$$
