
 OpenBabel03272507303D

 29 31  0  0  0  0  0  0  0  0999 V2000
   35.9520   29.5430   49.8460 C   0  0  0  0  0  0  0  0  0  0  0  0
   34.8750   29.4860   50.6760 C   0  0  0  0  0  0  0  0  0  0  0  0
   33.8500   28.8340   49.9710 C   0  0  0  0  0  0  0  0  0  0  0  0
   34.3950   28.5320   48.7280 C   0  0  0  0  0  0  0  0  0  0  0  0
   35.6220   28.9730   48.7210 O   0  0  0  0  0  0  0  0  0  0  0  0
   34.7540   29.8500   51.6890 H   0  0  0  0  0  0  0  0  0  0  0  0
   32.8490   28.6270   50.3580 H   0  0  0  0  0  0  0  0  0  0  0  0
   37.2090   30.1580   50.2480 C   0  0  0  0  0  0  0  0  0  0  0  0
   37.6520   29.9140   51.3820 O   0  0  0  0  0  0  0  0  0  0  0  0
   37.8570   31.0180   49.2900 C   0  0  0  0  0  0  0  0  0  0  0  0
   38.1230   32.3240   49.6730 C   0  0  0  0  0  0  0  0  0  0  0  0
   38.7430   33.2050   48.8100 C   0  0  0  0  0  0  0  0  0  0  0  0
   39.0690   32.7190   47.5850 N   0  0  0  0  0  0  0  0  0  0  0  0
   38.8150   31.4490   47.1980 C   0  0  0  0  0  0  0  0  0  0  0  0
   38.2080   30.6150   48.0670 N   0  0  0  0  0  0  0  0  0  0  0  0
   37.8450   32.6780   50.6700 H   0  0  0  0  0  0  0  0  0  0  0  0
   38.9800   34.2250   49.0360 H   0  0  0  0  0  0  0  0  0  0  0  0
   39.1020   31.1240   46.2020 H   0  0  0  0  0  0  0  0  0  0  0  0
   33.6830   27.8410   47.6450 C   0  0  0  0  0  0  0  0  0  0  0  0
   34.0640   26.6950   47.2800 O   0  0  0  0  0  0  0  0  0  0  0  0
   30.8200   26.8030   48.4230 Br  0  0  0  0  0  0  0  0  0  0  0  0
   31.2090   28.2410   47.2300 C   0  0  0  0  0  0  0  0  0  0  0  0
   32.5410   28.5320   47.0280 C   0  0  0  0  0  0  0  0  0  0  0  0
   32.9250   29.5710   46.1700 C   0  0  0  0  0  0  0  0  0  0  0  0
   33.9380   29.8750   45.9470 H   0  0  0  0  0  0  0  0  0  0  0  0
   31.8590   30.2440   45.5700 C   0  0  0  0  0  0  0  0  0  0  0  0
   32.1420   31.0650   44.8900 H   0  0  0  0  0  0  0  0  0  0  0  0
   30.5130   29.9950   45.7340 C   0  0  0  0  0  3  0  0  0  0  0  0
   30.2180   28.9580   46.5950 C   0  0  0  0  0  3  0  0  0  0  0  0
  1  8  1  0  0  0  0
  1  2  2  0  0  0  0
  2  6  1  0  0  0  0
  3  7  1  0  0  0  0
  3  2  1  0  0  0  0
  4  3  2  0  0  0  0
  5  4  1  0  0  0  0
  5  1  1  0  0  0  0
  8  9  2  0  0  0  0
 10 11  1  0  0  0  0
 10  8  1  0  0  0  0
 11 16  1  0  0  0  0
 12 17  1  0  0  0  0
 12 11  2  0  0  0  0
 13 12  1  0  0  0  0
 14 13  2  0  0  0  0
 14 15  1  0  0  0  0
 15 10  2  0  0  0  0
 18 14  1  0  0  0  0
 19  4  1  0  0  0  0
 20 19  2  0  0  0  0
 22 21  1  0  0  0  0
 23 22  1  0  0  0  0
 23 19  1  0  0  0  0
 24 23  2  0  0  0  0
 25 24  1  0  0  0  0
 26 28  2  0  0  0  0
 26 24  1  0  0  0  0
 27 26  1  0  0  0  0
 28 29  1  0  0  0  0
 29 22  2  0  0  0  0
M  END
>  <minimizedAffinity>
-5.67139673

>  <minimizedRMSD>
3.40427971

$$$$
