
 OpenBabel03272507303D

 29 31  0  0  0  0  0  0  0  0999 V2000
   31.3560   27.4640   45.9730 C   0  0  0  0  0  0  0  0  0  0  0  0
   30.7400   26.4140   45.3650 C   0  0  0  0  0  0  0  0  0  0  0  0
   31.7520   25.5480   44.9190 C   0  0  0  0  0  0  0  0  0  0  0  0
   32.9450   26.1530   45.3000 C   0  0  0  0  0  0  0  0  0  0  0  0
   32.6430   27.2640   45.9090 O   0  0  0  0  0  0  0  0  0  0  0  0
   29.6860   26.2140   45.2150 H   0  0  0  0  0  0  0  0  0  0  0  0
   31.5900   24.6060   44.3880 H   0  0  0  0  0  0  0  0  0  0  0  0
   30.6090   28.5660   46.5610 C   0  0  0  0  0  0  0  0  0  0  0  0
   29.9870   28.3640   47.6170 O   0  0  0  0  0  0  0  0  0  0  0  0
   30.6450   29.8300   45.8670 C   0  0  0  0  0  0  0  0  0  0  0  0
   29.4760   30.2630   45.2600 C   0  0  0  0  0  0  0  0  0  0  0  0
   29.4330   31.4620   44.5780 C   0  0  0  0  0  0  0  0  0  0  0  0
   30.5870   32.1770   44.5420 N   0  0  0  0  0  0  0  0  0  0  0  0
   31.7330   31.7660   45.1290 C   0  0  0  0  0  0  0  0  0  0  0  0
   31.7390   30.5880   45.7870 N   0  0  0  0  0  0  0  0  0  0  0  0
   28.5650   29.6590   45.3110 H   0  0  0  0  0  0  0  0  0  0  0  0
   28.5690   31.8610   44.0860 H   0  0  0  0  0  0  0  0  0  0  0  0
   32.6220   32.3860   45.0620 H   0  0  0  0  0  0  0  0  0  0  0  0
   34.2830   25.6040   45.0430 C   0  0  0  0  0  0  0  0  0  0  0  0
   34.9890   26.0900   44.1160 O   0  0  0  0  0  0  0  0  0  0  0  0
   36.6720   23.8810   43.9440 Br  0  0  0  0  0  0  0  0  0  0  0  0
   35.7690   23.6210   45.6040 C   0  0  0  0  0  0  0  0  0  0  0  0
   34.7430   24.4960   45.8930 C   0  0  0  0  0  0  0  0  0  0  0  0
   34.0210   24.3840   47.0880 C   0  0  0  0  0  0  0  0  0  0  0  0
   33.2040   25.0170   47.4040 H   0  0  0  0  0  0  0  0  0  0  0  0
   34.4370   23.3390   47.9150 C   0  0  0  0  0  0  0  0  0  0  0  0
   33.8810   23.2340   48.8600 H   0  0  0  0  0  0  0  0  0  0  0  0
   35.4530   22.4370   47.6770 C   0  0  0  0  0  3  0  0  0  0  0  0
   36.1140   22.6150   46.4800 C   0  0  0  0  0  3  0  0  0  0  0  0
  1  8  1  0  0  0  0
  2  1  2  0  0  0  0
  3  4  2  0  0  0  0
  3  2  1  0  0  0  0
  4  5  1  0  0  0  0
  5  1  1  0  0  0  0
  6  2  1  0  0  0  0
  7  3  1  0  0  0  0
  8  9  2  0  0  0  0
 10  8  1  0  0  0  0
 11 16  1  0  0  0  0
 11 10  2  0  0  0  0
 12 11  1  0  0  0  0
 13 12  2  0  0  0  0
 13 14  1  0  0  0  0
 14 15  2  0  0  0  0
 15 10  1  0  0  0  0
 17 12  1  0  0  0  0
 18 14  1  0  0  0  0
 19  4  1  0  0  0  0
 19 23  1  0  0  0  0
 20 19  2  0  0  0  0
 21 22  1  0  0  0  0
 22 23  2  0  0  0  0
 22 29  1  0  0  0  0
 23 24  1  0  0  0  0
 24 25  1  0  0  0  0
 24 26  2  0  0  0  0
 26 27  1  0  0  0  0
 28 26  1  0  0  0  0
 29 28  2  0  0  0  0
M  END
>  <minimizedAffinity>
-2.88247657

>  <minimizedRMSD>
6.340415

$$$$
