
 OpenBabel03272507303D

 29 31  0  0  0  0  0  0  0  0999 V2000
   35.8720   29.1860   49.7980 C   0  0  0  0  0  0  0  0  0  0  0  0
   34.9150   29.5450   50.6960 C   0  0  0  0  0  0  0  0  0  0  0  0
   33.6890   29.0760   50.1960 C   0  0  0  0  0  0  0  0  0  0  0  0
   34.0000   28.4470   48.9950 C   0  0  0  0  0  0  0  0  0  0  0  0
   35.2880   28.5470   48.8230 O   0  0  0  0  0  0  0  0  0  0  0  0
   35.0010   30.0860   51.6310 H   0  0  0  0  0  0  0  0  0  0  0  0
   32.7180   29.2020   50.6820 H   0  0  0  0  0  0  0  0  0  0  0  0
   37.2780   29.5100   49.9930 C   0  0  0  0  0  0  0  0  0  0  0  0
   37.9230   28.8670   50.8370 O   0  0  0  0  0  0  0  0  0  0  0  0
   37.8280   30.5680   49.1820 C   0  0  0  0  0  0  0  0  0  0  0  0
   38.1350   31.7660   49.8100 C   0  0  0  0  0  0  0  0  0  0  0  0
   38.6650   32.8240   49.0990 C   0  0  0  0  0  0  0  0  0  0  0  0
   38.8640   32.6190   47.7720 N   0  0  0  0  0  0  0  0  0  0  0  0
   38.5690   31.4570   47.1480 C   0  0  0  0  0  0  0  0  0  0  0  0
   38.0510   30.4440   47.8730 N   0  0  0  0  0  0  0  0  0  0  0  0
   37.9600   31.8920   50.8830 H   0  0  0  0  0  0  0  0  0  0  0  0
   38.9270   33.7760   49.5150 H   0  0  0  0  0  0  0  0  0  0  0  0
   38.7530   31.3590   46.0820 H   0  0  0  0  0  0  0  0  0  0  0  0
   33.0230   27.8000   48.1100 C   0  0  0  0  0  0  0  0  0  0  0  0
   31.9050   27.4410   48.5720 O   0  0  0  0  0  0  0  0  0  0  0  0
   33.7780   24.8680   47.2610 Br  0  0  0  0  0  0  0  0  0  0  0  0
   33.7680   26.4000   46.1250 C   0  0  0  0  0  0  0  0  0  0  0  0
   33.4030   27.5970   46.7040 C   0  0  0  0  0  0  0  0  0  0  0  0
   33.3670   28.7770   45.9500 C   0  0  0  0  0  0  0  0  0  0  0  0
   33.0960   29.7590   46.3110 H   0  0  0  0  0  0  0  0  0  0  0  0
   33.7240   28.6140   44.6100 C   0  0  0  0  0  0  0  0  0  0  0  0
   33.7020   29.5320   44.0010 H   0  0  0  0  0  0  0  0  0  0  0  0
   34.0970   27.4450   43.9790 C   0  0  0  0  0  3  0  0  0  0  0  0
   34.1080   26.3300   44.7900 C   0  0  0  0  0  3  0  0  0  0  0  0
  1  8  1  0  0  0  0
  1  2  2  0  0  0  0
  2  6  1  0  0  0  0
  3  7  1  0  0  0  0
  3  2  1  0  0  0  0
  4  3  2  0  0  0  0
  5  4  1  0  0  0  0
  5  1  1  0  0  0  0
  8  9  2  0  0  0  0
 10 11  1  0  0  0  0
 10  8  1  0  0  0  0
 11 16  1  0  0  0  0
 12 17  1  0  0  0  0
 12 11  2  0  0  0  0
 13 12  1  0  0  0  0
 14 13  2  0  0  0  0
 14 15  1  0  0  0  0
 15 10  2  0  0  0  0
 18 14  1  0  0  0  0
 19 20  2  0  0  0  0
 19  4  1  0  0  0  0
 22 23  1  0  0  0  0
 22 21  1  0  0  0  0
 23 19  1  0  0  0  0
 24 25  1  0  0  0  0
 24 23  2  0  0  0  0
 26 24  1  0  0  0  0
 27 26  1  0  0  0  0
 28 26  2  0  0  0  0
 28 29  1  0  0  0  0
 29 22  2  0  0  0  0
M  END
>  <minimizedAffinity>
-5.31982899

>  <minimizedRMSD>
1.72338569

$$$$
