
 OpenBabel03272500373D

 30 31  0  0  1  0  0  0  0  0999 V2000
   37.0130   30.6240   49.1470 C   0  0  0  0  0  0  0  0  0  0  0  0
   37.1530   31.7440   49.9990 C   0  0  0  0  0  0  0  0  0  0  0  0
   37.8540   32.8530   49.5260 C   0  0  0  0  0  0  0  0  0  0  0  0
   38.3640   32.7770   48.2560 N   0  0  0  0  0  0  0  0  0  0  0  0
   38.2140   31.6930   47.4660 C   0  0  0  0  0  0  0  0  0  0  0  0
   37.5390   30.6390   47.9330 N   0  0  0  0  0  0  0  0  0  0  0  0
   38.7830   31.7200   46.1630 N   0  0  0  0  0  0  0  0  0  0  0  0
   40.1290   31.2660   45.9640 C   0  0  0  0  0  0  0  0  0  0  0  0
   40.7980   32.3530   45.1060 C   0  0  0  0  0  0  0  0  0  0  0  0
   40.1410   32.1980   43.7490 C   0  0  0  0  0  0  0  0  0  0  0  0
   38.7220   32.6460   43.8690 C   0  0  0  0  0  0  0  0  0  0  0  0
   38.0070   32.1990   45.0800 C   0  0  1  0  0  0  0  0  0  0  0  0
   36.7360   31.7620   50.9930 H   0  0  0  0  0  0  0  0  0  0  0  0
   37.9860   33.7240   50.1370 H   0  0  0  0  0  0  0  0  0  0  0  0
   40.1930   30.3390   45.3580 H   0  0  0  0  0  0  0  0  0  0  0  0
   40.7010   31.0850   46.8860 H   0  0  0  0  0  0  0  0  0  0  0  0
   41.8950   32.1590   45.0670 H   0  0  0  0  0  0  0  0  0  0  0  0
   40.5420   33.3300   45.5490 H   0  0  0  0  0  0  0  0  0  0  0  0
   40.2580   31.1620   43.3870 H   0  0  0  0  0  0  0  0  0  0  0  0
   40.6660   32.9380   43.0910 H   0  0  0  0  0  0  0  0  0  0  0  0
   38.7090   33.7730   43.8490 H   0  0  0  0  0  0  0  0  0  0  0  0
   38.1850   32.3330   42.9410 H   0  0  0  0  0  0  0  0  0  0  0  0
   37.3400   33.0070   45.4760 H   0  0  0  0  0  0  0  0  0  0  0  0
   36.2610   29.4360   49.6570 C   0  0  0  0  0  0  0  0  0  0  0  0
   35.3340   29.8570   50.6190 F   0  0  0  0  0  0  0  0  0  0  0  0
   35.7100   28.7960   48.5930 F   0  0  0  0  0  0  0  0  0  0  0  0
   37.1730   28.6280   50.3340 F   0  0  0  0  0  0  0  0  0  0  0  0
   37.0450   31.0770   44.6720 C   0  0  0  0  0  0  0  0  0  0  0  0
   36.3020   31.4410   43.4070 C   0  0  0  0  0  0  0  0  0  0  0  0
   36.3440   32.5460   43.3360 H   0  0  0  0  0  0  0  0  0  0  0  0
  1 24  1  0  0  0  0
  1  2  1  0  0  0  0
  2 13  1  0  0  0  0
  3  2  2  0  0  0  0
  3 14  1  0  0  0  0
  4  3  1  0  0  0  0
  5  6  1  0  0  0  0
  5  4  2  0  0  0  0
  6  1  2  0  0  0  0
  7  5  1  0  0  0  0
  8  7  1  0  0  0  0
  8 16  1  0  0  0  0
  9 18  1  0  0  0  0
  9  8  1  0  0  0  0
 10 11  1  0  0  0  0
 10  9  1  0  0  0  0
 11 12  1  0  0  0  0
 12 23  1  1  0  0  0
 12  7  1  0  0  0  0
 15  8  1  0  0  0  0
 17  9  1  0  0  0  0
 19 10  1  0  0  0  0
 20 10  1  0  0  0  0
 21 11  1  0  0  0  0
 22 11  1  0  0  0  0
 24 27  1  0  0  0  0
 24 25  1  0  0  0  0
 26 24  1  0  0  0  0
 28 12  1  0  0  0  0
 29 28  1  0  0  0  0
 30 29  1  0  0  0  0
M  END
>  <minimizedAffinity>
-6.11391115

>  <minimizedRMSD>
0.871937871

$$$$
