
 OpenBabel03272500393D

 19 20  0  0  1  0  0  0  0  0999 V2000
   35.7260   30.6160   49.2070 C   0  0  1  0  0  0  0  0  0  0  0  0
   35.5900   29.2180   48.8100 C   0  0  0  0  0  0  0  0  0  0  0  0
   35.9930   29.5260   50.2240 C   0  0  1  0  0  0  0  0  0  0  0  0
   34.8310   31.2490   49.3800 H   0  0  0  0  0  0  0  0  0  0  0  0
   34.5810   28.8280   48.5810 H   0  0  0  0  0  0  0  0  0  0  0  0
   36.3620   28.7390   48.1800 H   0  0  0  0  0  0  0  0  0  0  0  0
   35.1600   29.3670   50.9400 H   0  0  0  0  0  0  0  0  0  0  0  0
   36.9440   31.4030   48.8350 C   0  0  0  0  0  0  0  0  0  0  0  0
   37.2530   32.5330   49.6170 C   0  0  0  0  0  0  0  0  0  0  0  0
   38.3740   33.2640   49.2240 C   0  0  0  0  0  0  0  0  0  0  0  0
   39.1010   32.8690   48.1320 N   0  0  0  0  0  0  0  0  0  0  0  0
   38.7640   31.7770   47.4120 C   0  0  0  0  0  0  0  0  0  0  0  0
   37.6760   31.0350   47.7650 N   0  0  0  0  0  0  0  0  0  0  0  0
   36.6340   32.7850   50.4670 H   0  0  0  0  0  0  0  0  0  0  0  0
   38.6490   34.1430   49.8000 H   0  0  0  0  0  0  0  0  0  0  0  0
   39.3280   31.4510   46.5470 H   0  0  0  0  0  0  0  0  0  0  0  0
   37.3830   29.3080   50.7190 C   0  0  0  0  0  0  0  0  0  0  0  0
   37.4820   29.7580   52.1350 C   0  0  0  0  0  0  0  0  0  0  0  0
   36.5970   30.3620   52.4210 H   0  0  0  0  0  0  0  0  0  0  0  0
  1  4  1  1  0  0  0
  1  3  1  0  0  0  0
  2  1  1  0  0  0  0
  2  3  1  0  0  0  0
  3 17  1  0  0  0  0
  3  7  1  1  0  0  0
  5  2  1  0  0  0  0
  6  2  1  0  0  0  0
  8  1  1  0  0  0  0
  8  9  1  0  0  0  0
  9 14  1  0  0  0  0
 10  9  2  0  0  0  0
 10 15  1  0  0  0  0
 11 10  1  0  0  0  0
 12 13  1  0  0  0  0
 12 11  2  0  0  0  0
 13  8  2  0  0  0  0
 16 12  1  0  0  0  0
 17 18  1  0  0  0  0
 18 19  1  0  0  0  0
M  END
>  <minimizedAffinity>
-4.63871956

>  <minimizedRMSD>
0.822808862

$$$$
