
 OpenBabel03272506143D

 18 18  0  0  0  0  0  0  0  0999 V2000
   35.5440   30.2820   47.6860 C   0  0  0  0  0  0  0  0  0  0  0  0
   36.1790   30.4260   48.9300 C   0  0  0  0  0  0  0  0  0  0  0  0
   37.5230   30.7400   48.9860 C   0  0  0  0  0  0  0  0  0  0  0  0
   38.1990   30.9000   47.8050 N   0  0  0  0  0  0  0  0  0  0  0  0
   37.5700   30.7560   46.6170 C   0  0  0  0  0  0  0  0  0  0  0  0
   36.2430   30.4470   46.5460 N   0  0  0  0  0  0  0  0  0  0  0  0
   35.5560   30.2800   49.7770 H   0  0  0  0  0  0  0  0  0  0  0  0
   38.1370   30.8900   45.7000 H   0  0  0  0  0  0  0  0  0  0  0  0
   34.2180   29.9730   47.4670 O   0  0  0  0  0  0  0  0  0  0  0  0
   34.3690   27.3710   48.0920 O   0  0  0  0  0  0  0  0  0  0  0  0
   33.4750   28.5940   48.1630 P   0  0  0  0  0  0  0  0  0  0  0  0
   33.1040   29.0000   49.7620 O   0  0  0  0  0  0  0  0  0  0  0  0
   33.3790   29.9130   50.0200 H   0  0  0  0  0  0  0  0  0  0  0  0
   32.0730   28.2160   47.2820 O   0  0  0  0  0  0  0  0  0  0  0  0
   31.8480   28.9380   46.6270 H   0  0  0  0  0  0  0  0  0  0  0  0
   38.1610   30.8860   50.3200 C   0  0  0  0  0  0  0  0  0  0  0  0
   37.3760   30.1900   51.3840 C   0  0  0  0  0  0  0  0  0  0  0  0
   38.0390   29.3770   51.7950 H   0  0  0  0  0  0  0  0  0  0  0  0
  1  2  1  0  0  0  0
  2  3  2  0  0  0  0
  2  7  1  0  0  0  0
  3 16  1  0  0  0  0
  4  3  1  0  0  0  0
  5  4  2  0  0  0  0
  6  5  1  0  0  0  0
  6  1  2  0  0  0  0
  8  5  1  0  0  0  0
  9  1  1  0  0  0  0
  9 11  1  0  0  0  0
 10 11  2  0  0  0  0
 11 12  1  0  0  0  0
 12 13  1  0  0  0  0
 14 11  1  0  0  0  0
 15 14  1  0  0  0  0
 16 17  1  0  0  0  0
 17 18  1  0  0  0  0
M  END
>  <minimizedAffinity>
-4.13380718

>  <minimizedRMSD>
2.69861627

$$$$
