
 OpenBabel03272508443D

 21 22  0  0  0  0  0  0  0  0999 V2000
   35.2140   29.6110   50.2490 C   0  0  0  0  0  0  0  0  0  0  0  0
   34.9120   29.1930   51.3780 O   0  0  0  0  0  0  0  0  0  0  0  0
   32.8260   28.0100   48.0120 C   0  0  0  0  0  0  0  0  0  0  0  0
   32.8290   28.8530   46.8920 C   0  0  0  0  0  0  0  0  0  0  0  0
   33.6400   29.9720   46.8860 C   0  0  0  0  0  0  0  0  0  0  0  0
   34.3930   30.1790   47.9880 N   0  0  0  0  0  0  0  0  0  0  0  0
   34.3940   29.3700   49.0680 C   0  0  0  0  0  0  0  0  0  0  0  0
   33.6030   28.2790   49.0750 N   0  0  0  0  0  0  0  0  0  0  0  0
   32.1680   27.1540   47.9470 H   0  0  0  0  0  0  0  0  0  0  0  0
   32.2410   28.7170   45.9950 H   0  0  0  0  0  0  0  0  0  0  0  0
   33.7320   30.6940   46.0890 H   0  0  0  0  0  0  0  0  0  0  0  0
   36.4570   30.3790   50.1180 C   0  0  0  0  0  0  0  0  0  0  0  0
   37.6070   30.1480   50.8470 C   0  0  0  0  0  0  0  0  0  0  0  0
   38.4870   31.1340   50.3570 C   0  0  0  0  0  0  0  0  0  0  0  0
   37.8520   31.8790   49.3970 C   0  0  0  0  0  0  0  0  0  0  0  0
   36.6470   31.4070   49.2790 O   0  0  0  0  0  0  0  0  0  0  0  0
   37.8010   29.4060   51.6030 H   0  0  0  0  0  0  0  0  0  0  0  0
   39.4940   31.2990   50.6630 H   0  0  0  0  0  0  0  0  0  0  0  0
   38.3620   33.0230   48.5960 C   0  0  0  0  0  0  0  0  0  0  0  0
   39.2420   33.8830   49.4780 C   0  0  0  0  0  0  0  0  0  0  0  0
   38.6010   34.6780   49.9190 H   0  0  0  0  0  0  0  0  0  0  0  0
  1  2  2  0  0  0  0
  3  8  1  0  0  0  0
  4  3  2  0  0  0  0
  5  4  1  0  0  0  0
  5  6  2  0  0  0  0
  6  7  1  0  0  0  0
  7  8  2  0  0  0  0
  7  1  1  0  0  0  0
  9  3  1  0  0  0  0
 10  4  1  0  0  0  0
 11  5  1  0  0  0  0
 12  1  1  0  0  0  0
 12 13  2  0  0  0  0
 13 17  1  0  0  0  0
 14 18  1  0  0  0  0
 14 13  1  0  0  0  0
 15 14  2  0  0  0  0
 16 15  1  0  0  0  0
 16 12  1  0  0  0  0
 19 15  1  0  0  0  0
 19 20  1  0  0  0  0
 20 21  1  0  0  0  0
M  END
>  <minimizedAffinity>
-5.00974894

>  <minimizedRMSD>
1.82700229

$$$$
