
 OpenBabel03272506113D

 38 40  0  0  1  0  0  0  0  0999 V2000
   36.8480   30.5010   45.8110 C   0  0  0  0  0  0  0  0  0  0  0  0
   37.3460   30.3700   44.5080 C   0  0  0  0  0  0  0  0  0  0  0  0
   38.6900   30.4380   44.1940 C   0  0  0  0  0  0  0  0  0  0  0  0
   39.6220   30.6470   45.2200 C   0  0  0  0  0  0  0  0  0  0  0  0
   39.1030   30.7750   46.4970 C   0  0  0  0  0  0  0  0  0  0  0  0
   37.7600   30.7130   46.8330 C   0  0  0  0  0  0  0  0  0  0  0  0
   36.6730   30.2080   43.6620 H   0  0  0  0  0  0  0  0  0  0  0  0
   38.9870   30.3300   43.1630 H   0  0  0  0  0  0  0  0  0  0  0  0
   40.6410   30.6900   44.9290 H   0  0  0  0  0  0  0  0  0  0  0  0
   39.9230   30.9170   47.1890 H   0  0  0  0  0  0  0  0  0  0  0  0
   37.2900   30.9770   48.1670 C   0  0  1  0  0  0  0  0  0  0  0  0
   37.0360   29.5570   48.8050 C   0  0  0  0  0  0  0  0  0  0  0  0
   36.3840   29.7090   50.1800 C   0  0  0  0  0  0  0  0  0  0  0  0
   37.0780   30.7660   50.9820 C   0  0  0  0  0  0  0  0  0  0  0  0
   38.4430   30.9650   50.4000 C   0  0  0  0  0  0  0  0  0  0  0  0
   38.2680   31.6640   49.0680 C   0  0  2  0  0  0  0  0  0  0  0  0
   36.3830   31.4070   48.4480 H   0  0  0  0  0  0  0  0  0  0  0  0
   36.3360   29.0230   48.1600 H   0  0  0  0  0  0  0  0  0  0  0  0
   37.9820   29.0390   48.8680 H   0  0  0  0  0  0  0  0  0  0  0  0
   35.3270   30.0290   50.0060 H   0  0  0  0  0  0  0  0  0  0  0  0
   36.3990   28.7200   50.6320 H   0  0  0  0  0  0  0  0  0  0  0  0
   36.5180   31.6940   51.0740 H   0  0  0  0  0  0  0  0  0  0  0  0
   37.2290   30.3960   52.0390 H   0  0  0  0  0  0  0  0  0  0  0  0
   39.0560   31.6510   51.0310 H   0  0  0  0  0  0  0  0  0  0  0  0
   38.9950   30.0280   50.3220 H   0  0  0  0  0  0  0  0  0  0  0  0
   39.2870   31.8060   48.6730 H   0  0  0  0  0  0  0  0  0  0  0  0
   37.8250   33.1190   49.3520 C   0  0  0  0  0  0  0  0  0  0  0  0
   39.0820   33.9600   49.3350 C   0  0  0  0  0  0  0  0  0  0  0  0
   39.4920   34.0700   50.3650 H   0  0  0  0  0  0  0  0  0  0  0  0
   34.6830   30.1670   44.7310 C   0  0  0  0  0  0  0  0  0  0  0  0
   35.4430   30.3050   45.9460 C   0  0  0  0  0  0  0  0  0  0  0  0
   34.7440   30.2230   47.1160 C   0  0  0  0  0  0  0  0  0  0  0  0
   33.4090   30.0170   47.0860 N   0  0  0  0  0  0  0  0  0  0  0  0
   32.7100   29.8880   45.9120 C   0  0  0  0  0  0  0  0  0  0  0  0
   33.3580   29.9660   44.7010 N   0  0  0  0  0  0  0  0  0  0  0  0
   35.1010   30.2090   43.7370 H   0  0  0  0  0  0  0  0  0  0  0  0
   35.0310   30.3590   48.1120 H   0  0  0  0  0  0  0  0  0  0  0  0
   31.6280   29.7220   45.8960 H   0  0  0  0  0  0  0  0  0  0  0  0
  1 31  1  0  0  0  0
  1  6  1  0  0  0  0
  2  1  2  0  0  0  0
  3  2  1  0  0  0  0
  3  4  2  0  0  0  0
  4  5  1  0  0  0  0
  5  6  2  0  0  0  0
  5 10  1  0  0  0  0
  6 11  1  0  0  0  0
  7  2  1  0  0  0  0
  8  3  1  0  0  0  0
  9  4  1  0  0  0  0
 11 17  1  6  0  0  0
 11 12  1  0  0  0  0
 11 16  1  0  0  0  0
 12 19  1  0  0  0  0
 12 13  1  0  0  0  0
 13 21  1  0  0  0  0
 13 14  1  0  0  0  0
 14 22  1  0  0  0  0
 14 23  1  0  0  0  0
 15 14  1  0  0  0  0
 15 24  1  0  0  0  0
 16 26  1  6  0  0  0
 16 27  1  0  0  0  0
 16 15  1  0  0  0  0
 18 12  1  0  0  0  0
 20 13  1  0  0  0  0
 25 15  1  0  0  0  0
 28 27  1  0  0  0  0
 28 29  1  0  0  0  0
 30 31  1  0  0  0  0
 31 32  2  0  0  0  0
 32 37  1  0  0  0  0
 33 32  1  0  0  0  0
 34 33  2  0  0  0  0
 35 30  2  0  0  0  0
 35 34  1  0  0  0  0
 36 30  1  0  0  0  0
 38 34  1  0  0  0  0
M  END
>  <minimizedAffinity>
-6.22230244

>  <minimizedRMSD>
2.05317664

$$$$
