
 OpenBabel03272510263D

 39 42  0  0  1  0  0  0  0  0999 V2000
   36.2350   30.2000   46.8710 C   0  0  0  0  0  0  0  0  0  0  0  0
   37.0820   30.7700   47.8190 C   0  0  0  0  0  0  0  0  0  0  0  0
   38.0650   31.6730   47.4470 C   0  0  0  0  0  0  0  0  0  0  0  0
   38.1600   31.9730   46.0930 C   0  0  0  0  0  0  0  0  0  0  0  0
   39.0380   32.8240   45.4900 N   0  0  0  0  0  0  0  0  0  0  0  0
   38.7530   32.7920   44.1770 C   0  0  0  0  0  0  0  0  0  0  0  0
   37.7530   31.9710   43.9470 N   0  0  0  0  0  0  0  0  0  0  0  0
   37.3430   31.4310   45.1210 C   0  0  0  0  0  0  0  0  0  0  0  0
   36.3560   30.5210   45.5240 C   0  0  0  0  0  0  0  0  0  0  0  0
   35.4470   29.4910   47.0820 H   0  0  0  0  0  0  0  0  0  0  0  0
   38.7160   32.1100   48.1890 H   0  0  0  0  0  0  0  0  0  0  0  0
   39.7920   33.3940   45.9590 H   0  0  0  0  0  0  0  0  0  0  0  0
   35.7200   30.1010   44.7540 H   0  0  0  0  0  0  0  0  0  0  0  0
   37.4960   30.1580   51.4960 C   0  0  0  0  0  0  0  0  0  0  0  0
   37.7900   30.5950   50.2170 C   0  0  0  0  0  0  0  0  0  0  0  0
   36.8780   30.3630   49.1940 C   0  0  0  0  0  0  0  0  0  0  0  0
   35.7240   29.7060   49.5150 N   0  0  0  0  0  0  0  0  0  0  0  0
   35.4450   29.2840   50.7640 C   0  0  0  0  0  0  0  0  0  0  0  0
   36.3270   29.5100   51.7370 N   0  0  0  0  0  0  0  0  0  0  0  0
   38.2010   30.3360   52.2880 H   0  0  0  0  0  0  0  0  0  0  0  0
   38.7090   31.1140   49.9780 H   0  0  0  0  0  0  0  0  0  0  0  0
   34.4890   28.7750   50.8670 H   0  0  0  0  0  0  0  0  0  0  0  0
   39.4750   33.5620   43.2510 O   0  0  0  0  0  0  0  0  0  0  0  0
   39.5890   31.8680   41.7260 N   0  0  0  0  0  0  0  0  0  0  0  0
   39.2160   33.2890   41.8810 C   0  0  1  0  0  0  0  0  0  0  0  0
   37.8040   33.4370   41.5420 C   0  0  0  0  0  0  0  0  0  0  0  0
   37.6370   33.1370   40.1790 O   0  0  0  0  0  0  0  0  0  0  0  0
   38.0940   31.9110   39.7910 C   0  0  0  0  0  0  0  0  0  0  0  0
   39.4690   31.5930   40.3130 C   0  0  2  0  0  0  0  0  0  0  0  0
   40.6290   31.8730   41.9270 H   0  0  0  0  0  0  0  0  0  0  0  0
   39.8180   33.9180   41.2070 H   0  0  0  0  0  0  0  0  0  0  0  0
   37.5580   34.5410   41.5950 H   0  0  0  0  0  0  0  0  0  0  0  0
   37.0070   32.9280   42.0120 H   0  0  0  0  0  0  0  0  0  0  0  0
   37.4000   31.0650   40.0640 H   0  0  0  0  0  0  0  0  0  0  0  0
   38.1890   31.9450   38.6840 H   0  0  0  0  0  0  0  0  0  0  0  0
   40.2680   32.1120   39.7430 H   0  0  0  0  0  0  0  0  0  0  0  0
   39.7230   30.0970   40.1500 C   0  0  0  0  0  2  0  0  0  0  0  0
   40.6190   29.7880   38.9970 C   0  0  0  0  0  2  0  0  0  0  0  0
   41.2390   30.6390   38.6530 H   0  0  0  0  0  0  0  0  0  0  0  0
  1 10  1  0  0  0  0
  1  2  1  0  0  0  0
  2 16  1  0  0  0  0
  3  2  2  0  0  0  0
  3 11  1  0  0  0  0
  4  3  1  0  0  0  0
  5 12  1  0  0  0  0
  5  4  1  0  0  0  0
  6  5  1  0  0  0  0
  7  6  2  0  0  0  0
  7  8  1  0  0  0  0
  8  9  1  0  0  0  0
  8  4  2  0  0  0  0
  9  1  2  0  0  0  0
 13  9  1  0  0  0  0
 14 19  1  0  0  0  0
 14 20  1  0  0  0  0
 15 14  2  0  0  0  0
 16 17  2  0  0  0  0
 16 15  1  0  0  0  0
 17 18  1  0  0  0  0
 18 22  1  0  0  0  0
 18 19  2  0  0  0  0
 21 15  1  0  0  0  0
 23  6  1  0  0  0  0
 24 25  1  0  0  0  0
 24 30  1  0  0  0  0
 25 31  1  6  0  0  0
 25 23  1  0  0  0  0
 26 32  1  0  0  0  0
 26 25  1  0  0  0  0
 26 33  1  0  0  0  0
 27 26  1  0  0  0  0
 28 34  1  0  0  0  0
 28 27  1  0  0  0  0
 28 29  1  0  0  0  0
 29 36  1  6  0  0  0
 29 24  1  0  0  0  0
 35 28  1  0  0  0  0
 37 29  1  0  0  0  0
 38 37  1  0  0  0  0
 39 38  1  0  0  0  0
M  END
>  <minimizedAffinity>
-5.50626612

>  <minimizedRMSD>
0.032821063

$$$$
