
 OpenBabel03272510263D

 39 42  0  0  1  0  0  0  0  0999 V2000
   36.2350   30.2010   46.8690 C   0  0  0  0  0  0  0  0  0  0  0  0
   37.0810   30.7710   47.8170 C   0  0  0  0  0  0  0  0  0  0  0  0
   38.0630   31.6750   47.4450 C   0  0  0  0  0  0  0  0  0  0  0  0
   38.1580   31.9760   46.0910 C   0  0  0  0  0  0  0  0  0  0  0  0
   39.0360   32.8280   45.4880 N   0  0  0  0  0  0  0  0  0  0  0  0
   38.7510   32.7960   44.1750 C   0  0  0  0  0  0  0  0  0  0  0  0
   37.7510   31.9740   43.9450 N   0  0  0  0  0  0  0  0  0  0  0  0
   37.3420   31.4330   45.1190 C   0  0  0  0  0  0  0  0  0  0  0  0
   36.3560   30.5220   45.5220 C   0  0  0  0  0  0  0  0  0  0  0  0
   35.4470   29.4910   47.0800 H   0  0  0  0  0  0  0  0  0  0  0  0
   38.7140   32.1120   48.1870 H   0  0  0  0  0  0  0  0  0  0  0  0
   39.7890   33.3980   45.9570 H   0  0  0  0  0  0  0  0  0  0  0  0
   35.7200   30.1020   44.7520 H   0  0  0  0  0  0  0  0  0  0  0  0
   37.4970   30.1560   51.4940 C   0  0  0  0  0  0  0  0  0  0  0  0
   37.7910   30.5940   50.2140 C   0  0  0  0  0  0  0  0  0  0  0  0
   36.8780   30.3630   49.1920 C   0  0  0  0  0  0  0  0  0  0  0  0
   35.7240   29.7070   49.5130 N   0  0  0  0  0  0  0  0  0  0  0  0
   35.4460   29.2840   50.7620 C   0  0  0  0  0  0  0  0  0  0  0  0
   36.3280   29.5090   51.7340 N   0  0  0  0  0  0  0  0  0  0  0  0
   38.2030   30.3330   52.2850 H   0  0  0  0  0  0  0  0  0  0  0  0
   38.7100   31.1130   49.9750 H   0  0  0  0  0  0  0  0  0  0  0  0
   34.4890   28.7750   50.8650 H   0  0  0  0  0  0  0  0  0  0  0  0
   39.4710   33.5670   43.2490 O   0  0  0  0  0  0  0  0  0  0  0  0
   39.5900   31.8670   41.7320 N   0  0  0  0  0  0  0  0  0  0  0  0
   39.2180   33.2890   41.8800 C   0  0  1  0  0  0  0  0  0  0  0  0
   37.8080   33.4370   41.5340 C   0  0  0  0  0  0  0  0  0  0  0  0
   37.6470   33.1320   40.1710 O   0  0  0  0  0  0  0  0  0  0  0  0
   38.1040   31.9050   39.7900 C   0  0  0  0  0  0  0  0  0  0  0  0
   39.4760   31.5860   40.3190 C   0  0  2  0  0  0  0  0  0  0  0  0
   40.6290   31.8710   41.9380 H   0  0  0  0  0  0  0  0  0  0  0  0
   39.8240   33.9150   41.2060 H   0  0  0  0  0  0  0  0  0  0  0  0
   37.5640   34.5430   41.5810 H   0  0  0  0  0  0  0  0  0  0  0  0
   37.0080   32.9320   42.0020 H   0  0  0  0  0  0  0  0  0  0  0  0
   37.4070   31.0610   40.0630 H   0  0  0  0  0  0  0  0  0  0  0  0
   38.2030   31.9340   38.6840 H   0  0  0  0  0  0  0  0  0  0  0  0
   40.2780   32.1020   39.7510 H   0  0  0  0  0  0  0  0  0  0  0  0
   39.7280   30.0890   40.1630 C   0  0  0  0  0  2  0  0  0  0  0  0
   39.9970   29.6960   38.7490 C   0  0  0  0  0  2  0  0  0  0  0  0
   40.3220   30.5270   38.0930 H   0  0  0  0  0  0  0  0  0  0  0  0
  1 10  1  0  0  0  0
  1  2  1  0  0  0  0
  2 16  1  0  0  0  0
  3  2  2  0  0  0  0
  3 11  1  0  0  0  0
  4  3  1  0  0  0  0
  5 12  1  0  0  0  0
  5  4  1  0  0  0  0
  6  5  1  0  0  0  0
  7  6  2  0  0  0  0
  7  8  1  0  0  0  0
  8  9  1  0  0  0  0
  8  4  2  0  0  0  0
  9  1  2  0  0  0  0
 13  9  1  0  0  0  0
 14 19  1  0  0  0  0
 14 20  1  0  0  0  0
 15 14  2  0  0  0  0
 16 17  2  0  0  0  0
 16 15  1  0  0  0  0
 17 18  1  0  0  0  0
 18 22  1  0  0  0  0
 18 19  2  0  0  0  0
 21 15  1  0  0  0  0
 23  6  1  0  0  0  0
 24 25  1  0  0  0  0
 24 30  1  0  0  0  0
 25 31  1  6  0  0  0
 25 23  1  0  0  0  0
 26 32  1  0  0  0  0
 26 25  1  0  0  0  0
 26 33  1  0  0  0  0
 27 26  1  0  0  0  0
 28 34  1  0  0  0  0
 28 27  1  0  0  0  0
 28 29  1  0  0  0  0
 29 36  1  6  0  0  0
 29 24  1  0  0  0  0
 35 28  1  0  0  0  0
 37 29  1  0  0  0  0
 38 37  1  0  0  0  0
 39 38  1  0  0  0  0
M  END
>  <minimizedAffinity>
-5.49376917

>  <minimizedRMSD>
0.0371161252

$$$$
