
 OpenBabel03272501503D

 14 14  0  0  0  0  0  0  0  0999 V2000
   37.8930   24.1780   38.0150 C   0  0  0  0  0  0  0  0  0  0  0  0
   38.0890   24.9160   36.8270 C   0  0  0  0  0  0  0  0  0  0  0  0
   39.1800   24.5250   35.9960 C   0  0  0  0  0  0  0  0  0  0  0  0
   39.9610   23.4670   36.4020 N   0  0  0  0  0  0  0  0  0  0  0  0
   39.7100   22.8180   37.5450 C   0  0  0  0  0  0  0  0  0  0  0  0
   38.6920   23.1520   38.3600 N   0  0  0  0  0  0  0  0  0  0  0  0
   40.6100   21.7400   37.8310 N   0  0  0  0  0  0  0  0  0  0  0  0
   37.0740   24.4490   38.6690 H   0  0  0  0  0  0  0  0  0  0  0  0
   37.4570   25.7400   36.5390 H   0  0  0  0  0  0  0  0  0  0  0  0
   41.4920   21.8030   38.3890 H   0  0  0  0  0  0  0  0  0  0  0  0
   40.0950   20.9860   37.3270 H   0  0  0  0  0  0  0  0  0  0  0  0
   39.4140   25.2720   34.7470 C   0  0  0  0  0  2  0  0  0  0  0  0
   39.6820   26.7260   34.9500 C   0  0  0  0  0  2  0  0  0  0  0  0
   40.7590   26.9140   34.7950 H   0  0  0  0  0  0  0  0  0  0  0  0
  1  6  1  0  0  0  0
  1  8  1  0  0  0  0
  2  1  2  0  0  0  0
  3  4  2  0  0  0  0
  3  2  1  0  0  0  0
  4  5  1  0  0  0  0
  5  7  1  0  0  0  0
  5  6  2  0  0  0  0
  7 10  1  0  0  0  0
  9  2  1  0  0  0  0
 11  7  1  0  0  0  0
 12 13  1  0  0  0  0
 12  3  1  0  0  0  0
 14 13  1  0  0  0  0
M  END
>  <minimizedAffinity>
-3.67795682

$$$$

 OpenBabel03272501503D

 14 14  0  0  0  0  0  0  0  0999 V2000
   40.3820   23.3500   35.9310 C   0  0  0  0  0  0  0  0  0  0  0  0
   39.7010   24.4610   35.3870 C   0  0  0  0  0  0  0  0  0  0  0  0
   38.5560   24.9290   36.0970 C   0  0  0  0  0  0  0  0  0  0  0  0
   38.1940   24.2740   37.2520 N   0  0  0  0  0  0  0  0  0  0  0  0
   38.8920   23.2240   37.7020 C   0  0  0  0  0  0  0  0  0  0  0  0
   39.9790   22.7490   37.0660 N   0  0  0  0  0  0  0  0  0  0  0  0
   38.3920   22.6500   38.9150 N   0  0  0  0  0  0  0  0  0  0  0  0
   41.2560   22.9700   35.4170 H   0  0  0  0  0  0  0  0  0  0  0  0
   40.0130   24.9520   34.4800 H   0  0  0  0  0  0  0  0  0  0  0  0
   37.7040   21.8650   38.9900 H   0  0  0  0  0  0  0  0  0  0  0  0
   38.9200   23.2480   39.5870 H   0  0  0  0  0  0  0  0  0  0  0  0
   37.8210   26.0870   35.5590 C   0  0  0  0  0  2  0  0  0  0  0  0
   38.5530   27.3820   35.6840 C   0  0  0  0  0  2  0  0  0  0  0  0
   38.9360   27.6710   34.6890 H   0  0  0  0  0  0  0  0  0  0  0  0
  1  6  1  0  0  0  0
  2  1  2  0  0  0  0
  2  3  1  0  0  0  0
  3  4  2  0  0  0  0
  4  5  1  0  0  0  0
  5  7  1  0  0  0  0
  6  5  2  0  0  0  0
  7 10  1  0  0  0  0
  7 11  1  0  0  0  0
  8  1  1  0  0  0  0
  9  2  1  0  0  0  0
 12 13  1  0  0  0  0
 12  3  1  0  0  0  0
 14 13  1  0  0  0  0
M  END
>  <minimizedAffinity>
-3.5789094

$$$$

 OpenBabel03272501503D

 14 14  0  0  0  0  0  0  0  0999 V2000
   38.8560   22.5420   34.8090 C   0  0  0  0  0  0  0  0  0  0  0  0
   38.3500   23.8320   34.5370 C   0  0  0  0  0  0  0  0  0  0  0  0
   38.1970   24.7150   35.6460 C   0  0  0  0  0  0  0  0  0  0  0  0
   38.5480   24.2570   36.8960 N   0  0  0  0  0  0  0  0  0  0  0  0
   39.0210   23.0170   37.0720 C   0  0  0  0  0  0  0  0  0  0  0  0
   39.1830   22.1500   36.0550 N   0  0  0  0  0  0  0  0  0  0  0  0
   39.3430   22.6870   38.4290 N   0  0  0  0  0  0  0  0  0  0  0  0
   38.9850   21.8470   33.9890 H   0  0  0  0  0  0  0  0  0  0  0  0
   38.0850   24.1590   33.5440 H   0  0  0  0  0  0  0  0  0  0  0  0
   38.7030   22.2390   39.1240 H   0  0  0  0  0  0  0  0  0  0  0  0
   40.3280   23.0280   38.4310 H   0  0  0  0  0  0  0  0  0  0  0  0
   37.6720   26.0690   35.3990 C   0  0  0  0  0  2  0  0  0  0  0  0
   38.5570   27.1640   35.8960 C   0  0  0  0  0  2  0  0  0  0  0  0
   39.0580   27.6340   35.0320 H   0  0  0  0  0  0  0  0  0  0  0  0
  1  6  1  0  0  0  0
  2  1  2  0  0  0  0
  2  3  1  0  0  0  0
  3  4  2  0  0  0  0
  4  5  1  0  0  0  0
  5  7  1  0  0  0  0
  6  5  2  0  0  0  0
  7 11  1  0  0  0  0
  7 10  1  0  0  0  0
  8  1  1  0  0  0  0
  9  2  1  0  0  0  0
 12  3  1  0  0  0  0
 12 13  1  0  0  0  0
 14 13  1  0  0  0  0
M  END
>  <minimizedAffinity>
-3.51185274

$$$$

 OpenBabel03272501503D

 14 14  0  0  0  0  0  0  0  0999 V2000
   37.6660   22.1650   35.0550 C   0  0  0  0  0  0  0  0  0  0  0  0
   37.2450   21.6800   33.7970 C   0  0  0  0  0  0  0  0  0  0  0  0
   36.0700   20.8720   33.7760 C   0  0  0  0  0  0  0  0  0  0  0  0
   35.4310   20.6200   34.9690 N   0  0  0  0  0  0  0  0  0  0  0  0
   35.8950   21.1180   36.1230 C   0  0  0  0  0  0  0  0  0  0  0  0
   36.9990   21.8850   36.1900 N   0  0  0  0  0  0  0  0  0  0  0  0
   35.1220   20.7690   37.2770 N   0  0  0  0  0  0  0  0  0  0  0  0
   38.5540   22.7820   35.1060 H   0  0  0  0  0  0  0  0  0  0  0  0
   37.7690   21.8960   32.8810 H   0  0  0  0  0  0  0  0  0  0  0  0
   35.2770   19.9420   37.8980 H   0  0  0  0  0  0  0  0  0  0  0  0
   34.4470   21.5630   37.2440 H   0  0  0  0  0  0  0  0  0  0  0  0
   35.6010   20.3480   32.4810 C   0  0  0  0  0  2  0  0  0  0  0  0
   35.2150   18.9070   32.5130 C   0  0  0  0  0  2  0  0  0  0  0  0
   34.1130   18.8340   32.4880 H   0  0  0  0  0  0  0  0  0  0  0  0
  1  8  1  0  0  0  0
  1  6  1  0  0  0  0
  2  1  2  0  0  0  0
  3  2  1  0  0  0  0
  3  4  2  0  0  0  0
  4  5  1  0  0  0  0
  5  6  2  0  0  0  0
  5  7  1  0  0  0  0
  7 10  1  0  0  0  0
  9  2  1  0  0  0  0
 11  7  1  0  0  0  0
 12 13  1  0  0  0  0
 12  3  1  0  0  0  0
 14 13  1  0  0  0  0
M  END
>  <minimizedAffinity>
-3.45612597

$$$$

 OpenBabel03272501503D

 14 14  0  0  0  0  0  0  0  0999 V2000
   39.5300   24.0990   35.6430 C   0  0  0  0  0  0  0  0  0  0  0  0
   40.8710   23.6770   35.5150 C   0  0  0  0  0  0  0  0  0  0  0  0
   41.4110   22.9040   36.5850 C   0  0  0  0  0  0  0  0  0  0  0  0
   40.5990   22.6230   37.6600 N   0  0  0  0  0  0  0  0  0  0  0  0
   39.3340   23.0610   37.7070 C   0  0  0  0  0  0  0  0  0  0  0  0
   38.7830   23.7920   36.7210 N   0  0  0  0  0  0  0  0  0  0  0  0
   38.6160   22.6870   38.8890 N   0  0  0  0  0  0  0  0  0  0  0  0
   39.0880   24.6870   34.8490 H   0  0  0  0  0  0  0  0  0  0  0  0
   41.4800   23.9150   34.6580 H   0  0  0  0  0  0  0  0  0  0  0  0
   38.5440   23.2450   39.7710 H   0  0  0  0  0  0  0  0  0  0  0  0
   38.2520   21.7700   38.5520 H   0  0  0  0  0  0  0  0  0  0  0  0
   42.8090   22.4460   36.4850 C   0  0  0  0  0  2  0  0  0  0  0  0
   43.8150   23.5460   36.5610 C   0  0  0  0  0  2  0  0  0  0  0  0
   44.2970   23.5170   37.5540 H   0  0  0  0  0  0  0  0  0  0  0  0
  1  6  1  0  0  0  0
  2  1  2  0  0  0  0
  2  3  1  0  0  0  0
  3  4  2  0  0  0  0
  4  5  1  0  0  0  0
  5  7  1  0  0  0  0
  6  5  2  0  0  0  0
  7 10  1  0  0  0  0
  8  1  1  0  0  0  0
  9  2  1  0  0  0  0
 11  7  1  0  0  0  0
 12 13  1  0  0  0  0
 12  3  1  0  0  0  0
 13 14  1  0  0  0  0
M  END
>  <minimizedAffinity>
-3.35292554

$$$$

 OpenBabel03272501503D

 14 14  0  0  0  0  0  0  0  0999 V2000
   40.5110   22.7780   34.8150 C   0  0  0  0  0  0  0  0  0  0  0  0
   39.4800   23.6280   35.2730 C   0  0  0  0  0  0  0  0  0  0  0  0
   39.1610   23.5680   36.6610 C   0  0  0  0  0  0  0  0  0  0  0  0
   39.8700   22.6960   37.4550 N   0  0  0  0  0  0  0  0  0  0  0  0
   40.8350   21.9200   36.9450 C   0  0  0  0  0  0  0  0  0  0  0  0
   41.1700   21.9440   35.6410 N   0  0  0  0  0  0  0  0  0  0  0  0
   41.4820   21.0670   37.8960 N   0  0  0  0  0  0  0  0  0  0  0  0
   40.7780   22.7990   33.7670 H   0  0  0  0  0  0  0  0  0  0  0  0
   38.9440   24.3000   34.6230 H   0  0  0  0  0  0  0  0  0  0  0  0
   41.2080   20.0850   38.1310 H   0  0  0  0  0  0  0  0  0  0  0  0
   42.2240   21.7310   38.2040 H   0  0  0  0  0  0  0  0  0  0  0  0
   38.0900   24.4410   37.1740 C   0  0  0  0  0  2  0  0  0  0  0  0
   37.9250   24.3920   38.6570 C   0  0  0  0  0  2  0  0  0  0  0  0
   38.3400   25.3190   39.0910 H   0  0  0  0  0  0  0  0  0  0  0  0
  1  2  2  0  0  0  0
  1  6  1  0  0  0  0
  2  3  1  0  0  0  0
  3 12  1  0  0  0  0
  3  4  2  0  0  0  0
  5  4  1  0  0  0  0
  5  7  1  0  0  0  0
  6  5  2  0  0  0  0
  7 10  1  0  0  0  0
  7 11  1  0  0  0  0
  8  1  1  0  0  0  0
  9  2  1  0  0  0  0
 12 13  1  0  0  0  0
 13 14  1  0  0  0  0
M  END
>  <minimizedAffinity>
-3.26250672

$$$$

 OpenBabel03272501503D

 14 14  0  0  0  0  0  0  0  0999 V2000
   37.9050   24.0910   38.0880 C   0  0  0  0  0  0  0  0  0  0  0  0
   39.0020   23.2450   38.3620 C   0  0  0  0  0  0  0  0  0  0  0  0
   39.7870   22.8230   37.2490 C   0  0  0  0  0  0  0  0  0  0  0  0
   39.4280   23.2630   35.9950 N   0  0  0  0  0  0  0  0  0  0  0  0
   38.3720   24.0650   35.8170 C   0  0  0  0  0  0  0  0  0  0  0  0
   37.6030   24.4890   36.8380 N   0  0  0  0  0  0  0  0  0  0  0  0
   38.1260   24.4370   34.4560 N   0  0  0  0  0  0  0  0  0  0  0  0
   37.2880   24.4310   38.9100 H   0  0  0  0  0  0  0  0  0  0  0  0
   39.2550   22.9200   39.3580 H   0  0  0  0  0  0  0  0  0  0  0  0
   37.5030   23.9360   33.7810 H   0  0  0  0  0  0  0  0  0  0  0  0
   38.7330   25.2840   34.4260 H   0  0  0  0  0  0  0  0  0  0  0  0
   40.9400   21.9390   37.4980 C   0  0  0  0  0  2  0  0  0  0  0  0
   42.1540   22.2870   36.7020 C   0  0  0  0  0  2  0  0  0  0  0  0
   42.8900   22.7690   37.3690 H   0  0  0  0  0  0  0  0  0  0  0  0
  1  2  1  0  0  0  0
  1  8  1  0  0  0  0
  2  9  1  0  0  0  0
  3 12  1  0  0  0  0
  3  2  2  0  0  0  0
  4  3  1  0  0  0  0
  5  4  2  0  0  0  0
  5  6  1  0  0  0  0
  6  1  2  0  0  0  0
  7  5  1  0  0  0  0
 10  7  1  0  0  0  0
 11  7  1  0  0  0  0
 13 14  1  0  0  0  0
 13 12  1  0  0  0  0
M  END
>  <minimizedAffinity>
-3.25903893

$$$$

 OpenBabel03272501503D

 14 14  0  0  0  0  0  0  0  0999 V2000
   40.3210   25.3810   34.6410 C   0  0  0  0  0  0  0  0  0  0  0  0
   39.8020   24.2370   35.2870 C   0  0  0  0  0  0  0  0  0  0  0  0
   38.7250   24.4420   36.1990 C   0  0  0  0  0  0  0  0  0  0  0  0
   38.2680   25.7270   36.3880 N   0  0  0  0  0  0  0  0  0  0  0  0
   38.8150   26.7610   35.7380 C   0  0  0  0  0  0  0  0  0  0  0  0
   39.8320   26.6150   34.8680 N   0  0  0  0  0  0  0  0  0  0  0  0
   38.2310   28.0340   36.0400 N   0  0  0  0  0  0  0  0  0  0  0  0
   41.1390   25.2610   33.9420 H   0  0  0  0  0  0  0  0  0  0  0  0
   40.1840   23.2450   35.1140 H   0  0  0  0  0  0  0  0  0  0  0  0
   38.5480   28.6980   36.7840 H   0  0  0  0  0  0  0  0  0  0  0  0
   37.4780   28.0220   35.3200 H   0  0  0  0  0  0  0  0  0  0  0  0
   38.1580   23.2710   36.8900 C   0  0  0  0  0  2  0  0  0  0  0  0
   37.9290   23.4790   38.3500 C   0  0  0  0  0  2  0  0  0  0  0  0
   36.8460   23.6060   38.5250 H   0  0  0  0  0  0  0  0  0  0  0  0
  1  6  2  0  0  0  0
  1  2  1  0  0  0  0
  2  3  2  0  0  0  0
  3  4  1  0  0  0  0
  3 12  1  0  0  0  0
  5  7  1  0  0  0  0
  5  4  2  0  0  0  0
  6  5  1  0  0  0  0
  7 10  1  0  0  0  0
  8  1  1  0  0  0  0
  9  2  1  0  0  0  0
 11  7  1  0  0  0  0
 12 13  1  0  0  0  0
 13 14  1  0  0  0  0
M  END
>  <minimizedAffinity>
-3.21355844

$$$$

 OpenBabel03272501503D

 14 14  0  0  0  0  0  0  0  0999 V2000
   41.4030   24.1180   35.1510 C   0  0  0  0  0  0  0  0  0  0  0  0
   40.2660   24.9470   35.0260 C   0  0  0  0  0  0  0  0  0  0  0  0
   39.1630   24.6640   35.8850 C   0  0  0  0  0  0  0  0  0  0  0  0
   39.2770   23.6150   36.7680 N   0  0  0  0  0  0  0  0  0  0  0  0
   40.3910   22.8740   36.8250 C   0  0  0  0  0  0  0  0  0  0  0  0
   41.4560   23.1040   36.0350 N   0  0  0  0  0  0  0  0  0  0  0  0
   40.3580   21.8190   37.7930 N   0  0  0  0  0  0  0  0  0  0  0  0
   42.2590   24.3050   34.5140 H   0  0  0  0  0  0  0  0  0  0  0  0
   40.2110   25.7620   34.3240 H   0  0  0  0  0  0  0  0  0  0  0  0
   40.0500   20.8340   37.6250 H   0  0  0  0  0  0  0  0  0  0  0  0
   40.7160   22.3610   38.6090 H   0  0  0  0  0  0  0  0  0  0  0  0
   37.9600   25.5090   35.7830 C   0  0  0  0  0  2  0  0  0  0  0  0
   38.2280   26.9690   35.9390 C   0  0  0  0  0  2  0  0  0  0  0  0
   38.1610   27.4500   34.9480 H   0  0  0  0  0  0  0  0  0  0  0  0
  1  6  1  0  0  0  0
  2  1  2  0  0  0  0
  2  3  1  0  0  0  0
  3  4  2  0  0  0  0
  4  5  1  0  0  0  0
  5  7  1  0  0  0  0
  6  5  2  0  0  0  0
  7 11  1  0  0  0  0
  8  1  1  0  0  0  0
  9  2  1  0  0  0  0
 10  7  1  0  0  0  0
 12  3  1  0  0  0  0
 12 13  1  0  0  0  0
 14 13  1  0  0  0  0
M  END
>  <minimizedAffinity>
-3.18162799

$$$$
