
 OpenBabel03272507513D

 22 23  0  0  0  0  0  0  0  0999 V2000
   39.2870   23.5060   35.0410 N   0  0  0  0  0  0  0  0  0  0  0  0
   40.5760   23.8070   35.2230 C   0  0  0  0  0  0  0  0  0  0  0  0
   41.3440   23.1450   36.1710 C   0  0  0  0  0  0  0  0  0  0  0  0
   40.6360   22.1820   36.8660 C   0  0  0  0  0  0  0  0  0  0  0  0
   41.3130   21.5500   37.7490 O   0  0  0  0  0  0  0  0  0  0  0  0
   39.3410   21.8420   36.7180 N   0  0  0  0  0  0  0  0  0  0  0  0
   38.6650   22.5410   35.7700 C   0  0  0  0  0  0  0  0  0  0  0  0
   37.4590   22.2420   35.6160 O   0  0  0  0  0  0  0  0  0  0  0  0
   41.0800   24.5750   34.6390 H   0  0  0  0  0  0  0  0  0  0  0  0
   42.3660   23.3370   36.3630 H   0  0  0  0  0  0  0  0  0  0  0  0
   38.9130   21.0940   37.3010 H   0  0  0  0  0  0  0  0  0  0  0  0
   37.8540   25.3950   34.4780 C   0  0  0  0  0  0  0  0  0  0  0  0
   38.4820   24.1770   34.0810 C   0  0  0  0  0  0  0  0  0  0  0  0
   38.2740   23.7110   32.7770 C   0  0  0  0  0  0  0  0  0  0  0  0
   37.4780   24.4490   31.9550 N   0  0  0  0  0  0  0  0  0  0  0  0
   36.8950   25.5870   32.3360 C   0  0  0  0  0  0  0  0  0  0  0  0
   37.0780   26.0590   33.5810 N   0  0  0  0  0  0  0  0  0  0  0  0
   38.7530   22.7990   32.5040 H   0  0  0  0  0  0  0  0  0  0  0  0
   36.2640   26.1820   31.7020 H   0  0  0  0  0  0  0  0  0  0  0  0
   38.0030   25.9810   35.8360 C   0  0  0  0  0  2  0  0  0  0  0  0
   38.7660   27.2690   35.7730 C   0  0  0  0  0  2  0  0  0  0  0  0
   38.0610   28.1220   35.8750 H   0  0  0  0  0  0  0  0  0  0  0  0
  1  2  1  0  0  0  0
  1  7  1  0  0  0  0
  2  3  2  0  0  0  0
  3 10  1  0  0  0  0
  3  4  1  0  0  0  0
  4  5  2  0  0  0  0
  6  4  1  0  0  0  0
  6 11  1  0  0  0  0
  7  6  1  0  0  0  0
  8  7  2  0  0  0  0
  9  2  1  0  0  0  0
 12 20  1  0  0  0  0
 13 12  1  0  0  0  0
 13  1  1  0  0  0  0
 14 13  2  0  0  0  0
 15 16  2  0  0  0  0
 15 14  1  0  0  0  0
 16 17  1  0  0  0  0
 17 12  2  0  0  0  0
 18 14  1  0  0  0  0
 19 16  1  0  0  0  0
 21 20  1  0  0  0  0
 21 22  1  0  0  0  0
M  END
>  <minimizedAffinity>
-4.53855705

$$$$

 OpenBabel03272507513D

 22 23  0  0  0  0  0  0  0  0999 V2000
   38.7030   25.5100   35.2010 N   0  0  0  0  0  0  0  0  0  0  0  0
   38.6930   26.6770   35.8510 C   0  0  0  0  0  0  0  0  0  0  0  0
   37.8620   27.7150   35.4560 C   0  0  0  0  0  0  0  0  0  0  0  0
   37.0840   27.3990   34.3560 C   0  0  0  0  0  0  0  0  0  0  0  0
   36.3040   28.3340   33.9640 O   0  0  0  0  0  0  0  0  0  0  0  0
   37.0580   26.2410   33.6710 N   0  0  0  0  0  0  0  0  0  0  0  0
   37.9030   25.2800   34.1260 C   0  0  0  0  0  0  0  0  0  0  0  0
   37.8960   24.1940   33.5010 O   0  0  0  0  0  0  0  0  0  0  0  0
   39.3270   26.8630   36.7170 H   0  0  0  0  0  0  0  0  0  0  0  0
   37.8070   28.6610   35.9270 H   0  0  0  0  0  0  0  0  0  0  0  0
   36.4260   26.1160   32.8530 H   0  0  0  0  0  0  0  0  0  0  0  0
   39.0850   23.5570   36.6070 C   0  0  0  0  0  0  0  0  0  0  0  0
   39.5520   24.4370   35.5860 C   0  0  0  0  0  0  0  0  0  0  0  0
   40.8120   24.2000   35.0220 C   0  0  0  0  0  0  0  0  0  0  0  0
   41.5270   23.1360   35.4820 N   0  0  0  0  0  0  0  0  0  0  0  0
   41.0810   22.3190   36.4370 C   0  0  0  0  0  0  0  0  0  0  0  0
   39.8770   22.5210   36.9960 N   0  0  0  0  0  0  0  0  0  0  0  0
   41.1380   24.8710   34.2610 H   0  0  0  0  0  0  0  0  0  0  0  0
   41.6320   21.4750   36.8130 H   0  0  0  0  0  0  0  0  0  0  0  0
   37.7680   23.7140   37.2760 C   0  0  0  0  0  2  0  0  0  0  0  0
   37.9380   24.3050   38.6430 C   0  0  0  0  0  2  0  0  0  0  0  0
   37.6500   25.3790   38.6200 H   0  0  0  0  0  0  0  0  0  0  0  0
  1 13  1  0  0  0  0
  1  2  1  0  0  0  0
  2  9  1  0  0  0  0
  3  2  2  0  0  0  0
  3 10  1  0  0  0  0
  4  3  1  0  0  0  0
  5  4  2  0  0  0  0
  6  7  1  0  0  0  0
  6  4  1  0  0  0  0
  7  1  1  0  0  0  0
  8  7  2  0  0  0  0
 11  6  1  0  0  0  0
 12 17  1  0  0  0  0
 12 20  1  0  0  0  0
 13 12  2  0  0  0  0
 14 15  2  0  0  0  0
 14 13  1  0  0  0  0
 15 16  1  0  0  0  0
 16 19  1  0  0  0  0
 16 17  2  0  0  0  0
 18 14  1  0  0  0  0
 20 21  1  0  0  0  0
 22 21  1  0  0  0  0
M  END
>  <minimizedAffinity>
-4.47407007

$$$$

 OpenBabel03272507513D

 22 23  0  0  0  0  0  0  0  0999 V2000
   39.2940   24.3860   35.9690 N   0  0  0  0  0  0  0  0  0  0  0  0
   40.5510   24.1290   35.5940 C   0  0  0  0  0  0  0  0  0  0  0  0
   41.2780   23.0980   36.1690 C   0  0  0  0  0  0  0  0  0  0  0  0
   40.5690   22.4050   37.1340 C   0  0  0  0  0  0  0  0  0  0  0  0
   41.2090   21.4450   37.6860 O   0  0  0  0  0  0  0  0  0  0  0  0
   39.3050   22.6250   37.5440 N   0  0  0  0  0  0  0  0  0  0  0  0
   38.6680   23.6540   36.9280 C   0  0  0  0  0  0  0  0  0  0  0  0
   37.4910   23.8760   37.2970 O   0  0  0  0  0  0  0  0  0  0  0  0
   41.0540   24.7090   34.8220 H   0  0  0  0  0  0  0  0  0  0  0  0
   42.2740   22.8440   35.9170 H   0  0  0  0  0  0  0  0  0  0  0  0
   38.8710   22.0340   38.2830 H   0  0  0  0  0  0  0  0  0  0  0  0
   37.8550   25.1800   34.1710 C   0  0  0  0  0  0  0  0  0  0  0  0
   38.5350   25.4420   35.3970 C   0  0  0  0  0  0  0  0  0  0  0  0
   38.4200   26.7170   35.9670 C   0  0  0  0  0  0  0  0  0  0  0  0
   37.6620   27.6410   35.3160 N   0  0  0  0  0  0  0  0  0  0  0  0
   37.0290   27.3860   34.1690 C   0  0  0  0  0  0  0  0  0  0  0  0
   37.1210   26.1720   33.6000 N   0  0  0  0  0  0  0  0  0  0  0  0
   38.9370   26.8880   36.8830 H   0  0  0  0  0  0  0  0  0  0  0  0
   36.4270   28.1020   33.6420 H   0  0  0  0  0  0  0  0  0  0  0  0
   37.9090   23.8680   33.4770 C   0  0  0  0  0  2  0  0  0  0  0  0
   38.7730   23.9530   32.2550 C   0  0  0  0  0  2  0  0  0  0  0  0
   39.7560   23.4760   32.4630 H   0  0  0  0  0  0  0  0  0  0  0  0
  1  7  1  0  0  0  0
  2  1  1  0  0  0  0
  2  3  2  0  0  0  0
  3  4  1  0  0  0  0
  4  6  1  0  0  0  0
  4  5  2  0  0  0  0
  6 11  1  0  0  0  0
  7  8  2  0  0  0  0
  7  6  1  0  0  0  0
  9  2  1  0  0  0  0
 10  3  1  0  0  0  0
 12 13  1  0  0  0  0
 13 14  2  0  0  0  0
 13  1  1  0  0  0  0
 14 18  1  0  0  0  0
 15 14  1  0  0  0  0
 16 15  2  0  0  0  0
 17 16  1  0  0  0  0
 17 12  2  0  0  0  0
 19 16  1  0  0  0  0
 20 12  1  0  0  0  0
 21 22  1  0  0  0  0
 21 20  1  0  0  0  0
M  END
>  <minimizedAffinity>
-4.43781853

$$$$

 OpenBabel03272507513D

 22 23  0  0  0  0  0  0  0  0999 V2000
   37.7550   26.2090   31.9790 N   0  0  0  0  0  0  0  0  0  0  0  0
   38.7110   27.0880   31.6630 C   0  0  0  0  0  0  0  0  0  0  0  0
   38.5070   28.0550   30.6900 C   0  0  0  0  0  0  0  0  0  0  0  0
   37.2480   27.9950   30.1200 C   0  0  0  0  0  0  0  0  0  0  0  0
   37.0240   28.8740   29.2180 O   0  0  0  0  0  0  0  0  0  0  0  0
   36.2540   27.1330   30.4060 N   0  0  0  0  0  0  0  0  0  0  0  0
   36.5400   26.2190   31.3700 C   0  0  0  0  0  0  0  0  0  0  0  0
   35.6290   25.4070   31.6500 O   0  0  0  0  0  0  0  0  0  0  0  0
   39.6830   27.0870   32.1520 H   0  0  0  0  0  0  0  0  0  0  0  0
   39.2220   28.7770   30.3930 H   0  0  0  0  0  0  0  0  0  0  0  0
   35.3410   27.1840   29.9100 H   0  0  0  0  0  0  0  0  0  0  0  0
   37.7770   25.5810   34.3340 C   0  0  0  0  0  0  0  0  0  0  0  0
   37.9470   25.2070   32.9680 C   0  0  0  0  0  0  0  0  0  0  0  0
   38.2930   23.8810   32.6760 C   0  0  0  0  0  0  0  0  0  0  0  0
   38.4490   23.0170   33.7170 N   0  0  0  0  0  0  0  0  0  0  0  0
   38.2860   23.3780   34.9910 C   0  0  0  0  0  0  0  0  0  0  0  0
   37.9540   24.6420   35.3010 N   0  0  0  0  0  0  0  0  0  0  0  0
   38.4140   23.6250   31.6480 H   0  0  0  0  0  0  0  0  0  0  0  0
   38.4050   22.7110   35.8250 H   0  0  0  0  0  0  0  0  0  0  0  0
   37.4140   26.9580   34.7590 C   0  0  0  0  0  2  0  0  0  0  0  0
   38.4450   27.5090   35.6960 C   0  0  0  0  0  2  0  0  0  0  0  0
   39.0890   28.2350   35.1520 H   0  0  0  0  0  0  0  0  0  0  0  0
  1 13  1  0  0  0  0
  2  1  1  0  0  0  0
  2  9  1  0  0  0  0
  3  2  2  0  0  0  0
  4  6  1  0  0  0  0
  4  3  1  0  0  0  0
  5  4  2  0  0  0  0
  6  7  1  0  0  0  0
  7  8  2  0  0  0  0
  7  1  1  0  0  0  0
 10  3  1  0  0  0  0
 11  6  1  0  0  0  0
 12 20  1  0  0  0  0
 12 17  1  0  0  0  0
 13 12  2  0  0  0  0
 14 13  1  0  0  0  0
 14 15  2  0  0  0  0
 15 16  1  0  0  0  0
 16 17  2  0  0  0  0
 16 19  1  0  0  0  0
 18 14  1  0  0  0  0
 20 21  1  0  0  0  0
 22 21  1  0  0  0  0
M  END
>  <minimizedAffinity>
-4.16257381

$$$$

 OpenBabel03272507513D

 22 23  0  0  0  0  0  0  0  0999 V2000
   38.9320   23.9620   34.9790 N   0  0  0  0  0  0  0  0  0  0  0  0
   38.3460   23.8040   36.1700 C   0  0  0  0  0  0  0  0  0  0  0  0
   38.9650   23.0980   37.1900 C   0  0  0  0  0  0  0  0  0  0  0  0
   40.2060   22.6030   36.8320 C   0  0  0  0  0  0  0  0  0  0  0  0
   40.8070   21.9450   37.7510 O   0  0  0  0  0  0  0  0  0  0  0  0
   40.8370   22.7360   35.6510 N   0  0  0  0  0  0  0  0  0  0  0  0
   40.1590   23.4420   34.7090 C   0  0  0  0  0  0  0  0  0  0  0  0
   40.7280   23.5770   33.6010 O   0  0  0  0  0  0  0  0  0  0  0  0
   37.3660   24.2240   36.3930 H   0  0  0  0  0  0  0  0  0  0  0  0
   38.5540   22.9380   38.1520 H   0  0  0  0  0  0  0  0  0  0  0  0
   41.7770   22.3190   35.4950 H   0  0  0  0  0  0  0  0  0  0  0  0
   38.5170   26.0860   33.8600 C   0  0  0  0  0  0  0  0  0  0  0  0
   38.3110   24.6760   33.9190 C   0  0  0  0  0  0  0  0  0  0  0  0
   37.5130   24.0750   32.9370 C   0  0  0  0  0  0  0  0  0  0  0  0
   36.9750   24.8740   31.9750 N   0  0  0  0  0  0  0  0  0  0  0  0
   37.1740   26.1920   31.9290 C   0  0  0  0  0  0  0  0  0  0  0  0
   37.9350   26.7950   32.8570 N   0  0  0  0  0  0  0  0  0  0  0  0
   37.3740   23.0200   33.0020 H   0  0  0  0  0  0  0  0  0  0  0  0
   36.7580   26.8380   31.1780 H   0  0  0  0  0  0  0  0  0  0  0  0
   39.3410   26.8290   34.8490 C   0  0  0  0  0  2  0  0  0  0  0  0
   38.4680   27.4880   35.8740 C   0  0  0  0  0  2  0  0  0  0  0  0
   38.5040   26.9060   36.8200 H   0  0  0  0  0  0  0  0  0  0  0  0
  1  2  1  0  0  0  0
  2  9  1  0  0  0  0
  2  3  2  0  0  0  0
  3 10  1  0  0  0  0
  4  3  1  0  0  0  0
  4  5  2  0  0  0  0
  6  4  1  0  0  0  0
  7  1  1  0  0  0  0
  7  6  1  0  0  0  0
  8  7  2  0  0  0  0
 11  6  1  0  0  0  0
 12 13  1  0  0  0  0
 12 20  1  0  0  0  0
 13  1  1  0  0  0  0
 14 18  1  0  0  0  0
 14 13  2  0  0  0  0
 15 14  1  0  0  0  0
 16 15  2  0  0  0  0
 16 17  1  0  0  0  0
 17 12  2  0  0  0  0
 19 16  1  0  0  0  0
 20 21  1  0  0  0  0
 21 22  1  0  0  0  0
M  END
>  <minimizedAffinity>
-4.05256081

$$$$

 OpenBabel03272507513D

 22 23  0  0  0  0  0  0  0  0999 V2000
   38.4850   25.4440   35.4300 N   0  0  0  0  0  0  0  0  0  0  0  0
   38.4890   26.6880   35.9170 C   0  0  0  0  0  0  0  0  0  0  0  0
   37.7840   27.7070   35.2960 C   0  0  0  0  0  0  0  0  0  0  0  0
   37.1100   27.2890   34.1630 C   0  0  0  0  0  0  0  0  0  0  0  0
   36.4460   28.2050   33.5630 O   0  0  0  0  0  0  0  0  0  0  0  0
   37.0740   26.0510   33.6350 N   0  0  0  0  0  0  0  0  0  0  0  0
   37.7930   25.1150   34.3070 C   0  0  0  0  0  0  0  0  0  0  0  0
   37.7740   23.9560   33.8310 O   0  0  0  0  0  0  0  0  0  0  0  0
   39.0380   26.9540   36.8190 H   0  0  0  0  0  0  0  0  0  0  0  0
   37.7480   28.7110   35.6310 H   0  0  0  0  0  0  0  0  0  0  0  0
   36.5270   25.8520   32.7720 H   0  0  0  0  0  0  0  0  0  0  0  0
   40.5140   24.1000   35.5530 C   0  0  0  0  0  0  0  0  0  0  0  0
   39.2070   24.3870   36.0470 C   0  0  0  0  0  0  0  0  0  0  0  0
   38.7080   23.6170   37.1060 C   0  0  0  0  0  0  0  0  0  0  0  0
   39.5020   22.6320   37.6090 N   0  0  0  0  0  0  0  0  0  0  0  0
   40.7240   22.3720   37.1390 C   0  0  0  0  0  0  0  0  0  0  0  0
   41.2280   23.0940   36.1250 N   0  0  0  0  0  0  0  0  0  0  0  0
   37.7300   23.8510   37.4580 H   0  0  0  0  0  0  0  0  0  0  0  0
   41.3640   21.5990   37.5230 H   0  0  0  0  0  0  0  0  0  0  0  0
   41.1420   24.8490   34.4340 C   0  0  0  0  0  2  0  0  0  0  0  0
   42.3210   25.6350   34.9210 C   0  0  0  0  0  2  0  0  0  0  0  0
   43.2590   25.1160   34.6240 H   0  0  0  0  0  0  0  0  0  0  0  0
  1  2  1  0  0  0  0
  1 13  1  0  0  0  0
  2  9  1  0  0  0  0
  3 10  1  0  0  0  0
  3  2  2  0  0  0  0
  4  3  1  0  0  0  0
  5  4  2  0  0  0  0
  6  4  1  0  0  0  0
  6  7  1  0  0  0  0
  7  1  1  0  0  0  0
  8  7  2  0  0  0  0
 11  6  1  0  0  0  0
 12 13  2  0  0  0  0
 12 17  1  0  0  0  0
 13 14  1  0  0  0  0
 14 18  1  0  0  0  0
 14 15  2  0  0  0  0
 16 19  1  0  0  0  0
 16 15  1  0  0  0  0
 17 16  2  0  0  0  0
 20 21  1  0  0  0  0
 20 12  1  0  0  0  0
 22 21  1  0  0  0  0
M  END
>  <minimizedAffinity>
-4.04682302

$$$$

 OpenBabel03272507513D

 22 23  0  0  0  0  0  0  0  0999 V2000
   39.1370   23.0500   34.9010 N   0  0  0  0  0  0  0  0  0  0  0  0
   40.3780   22.6550   34.6040 C   0  0  0  0  0  0  0  0  0  0  0  0
   41.1940   22.0620   35.5560 C   0  0  0  0  0  0  0  0  0  0  0  0
   40.5840   21.9390   36.7920 C   0  0  0  0  0  0  0  0  0  0  0  0
   41.3080   21.3950   37.6960 O   0  0  0  0  0  0  0  0  0  0  0  0
   39.3400   22.3190   37.1390 N   0  0  0  0  0  0  0  0  0  0  0  0
   38.6120   22.8910   36.1450 C   0  0  0  0  0  0  0  0  0  0  0  0
   37.4510   23.2530   36.4470 O   0  0  0  0  0  0  0  0  0  0  0  0
   40.8010   22.7760   33.6070 H   0  0  0  0  0  0  0  0  0  0  0  0
   42.1840   21.7290   35.3840 H   0  0  0  0  0  0  0  0  0  0  0  0
   38.9850   22.1730   38.1060 H   0  0  0  0  0  0  0  0  0  0  0  0
   37.4530   22.8180   33.1550 C   0  0  0  0  0  0  0  0  0  0  0  0
   38.2890   23.6660   33.9420 C   0  0  0  0  0  0  0  0  0  0  0  0
   38.2300   25.0490   33.7270 C   0  0  0  0  0  0  0  0  0  0  0  0
   37.3740   25.5110   32.7740 N   0  0  0  0  0  0  0  0  0  0  0  0
   36.5970   24.7100   32.0450 C   0  0  0  0  0  0  0  0  0  0  0  0
   36.6310   23.3800   32.2290 N   0  0  0  0  0  0  0  0  0  0  0  0
   38.8640   25.6610   34.3260 H   0  0  0  0  0  0  0  0  0  0  0  0
   35.9150   25.0570   31.2890 H   0  0  0  0  0  0  0  0  0  0  0  0
   37.4350   21.3390   33.2960 C   0  0  0  0  0  2  0  0  0  0  0  0
   36.0870   20.8690   33.7520 C   0  0  0  0  0  2  0  0  0  0  0  0
   35.5350   20.4340   32.8910 H   0  0  0  0  0  0  0  0  0  0  0  0
  1  7  1  0  0  0  0
  2  1  1  0  0  0  0
  2  3  2  0  0  0  0
  3  4  1  0  0  0  0
  4  6  1  0  0  0  0
  4  5  2  0  0  0  0
  6 11  1  0  0  0  0
  7  8  2  0  0  0  0
  7  6  1  0  0  0  0
  9  2  1  0  0  0  0
 10  3  1  0  0  0  0
 12 20  1  0  0  0  0
 12 13  1  0  0  0  0
 13  1  1  0  0  0  0
 14 13  2  0  0  0  0
 14 18  1  0  0  0  0
 15 14  1  0  0  0  0
 16 17  1  0  0  0  0
 16 15  2  0  0  0  0
 17 12  2  0  0  0  0
 19 16  1  0  0  0  0
 20 21  1  0  0  0  0
 22 21  1  0  0  0  0
M  END
>  <minimizedAffinity>
-4.03958416

$$$$

 OpenBabel03272507513D

 22 23  0  0  0  0  0  0  0  0999 V2000
   34.9930   30.4480   34.3070 N   0  0  0  0  0  0  0  0  0  0  0  0
   35.7180   31.2710   35.0700 C   0  0  0  0  0  0  0  0  0  0  0  0
   35.2000   31.8160   36.2360 C   0  0  0  0  0  0  0  0  0  0  0  0
   33.9010   31.4160   36.4910 C   0  0  0  0  0  0  0  0  0  0  0  0
   33.3900   31.9000   37.5600 O   0  0  0  0  0  0  0  0  0  0  0  0
   33.1320   30.5910   35.7550 N   0  0  0  0  0  0  0  0  0  0  0  0
   33.7180   30.1040   34.6310 C   0  0  0  0  0  0  0  0  0  0  0  0
   33.0200   29.3350   33.9310 O   0  0  0  0  0  0  0  0  0  0  0  0
   36.7410   31.5440   34.8170 H   0  0  0  0  0  0  0  0  0  0  0  0
   35.7210   32.4720   36.8820 H   0  0  0  0  0  0  0  0  0  0  0  0
   32.1610   30.3590   36.0490 H   0  0  0  0  0  0  0  0  0  0  0  0
   36.2650   28.6830   33.2080 C   0  0  0  0  0  0  0  0  0  0  0  0
   35.5030   29.8850   33.1050 C   0  0  0  0  0  0  0  0  0  0  0  0
   35.3010   30.4430   31.8360 C   0  0  0  0  0  0  0  0  0  0  0  0
   35.8450   29.8040   30.7640 N   0  0  0  0  0  0  0  0  0  0  0  0
   36.5560   28.6800   30.8720 C   0  0  0  0  0  0  0  0  0  0  0  0
   36.7650   28.1220   32.0750 N   0  0  0  0  0  0  0  0  0  0  0  0
   34.7290   31.3400   31.7850 H   0  0  0  0  0  0  0  0  0  0  0  0
   36.9930   28.1620   30.0370 H   0  0  0  0  0  0  0  0  0  0  0  0
   36.5440   28.0070   34.5010 C   0  0  0  0  0  2  0  0  0  0  0  0
   37.3820   26.7830   34.2860 C   0  0  0  0  0  2  0  0  0  0  0  0
   38.4320   26.9980   34.5840 H   0  0  0  0  0  0  0  0  0  0  0  0
  1  7  1  0  0  0  0
  1  2  1  0  0  0  0
  2  3  2  0  0  0  0
  3  4  1  0  0  0  0
  3 10  1  0  0  0  0
  4  5  2  0  0  0  0
  6 11  1  0  0  0  0
  6  4  1  0  0  0  0
  7  6  1  0  0  0  0
  8  7  2  0  0  0  0
  9  2  1  0  0  0  0
 12 20  1  0  0  0  0
 13 12  1  0  0  0  0
 13  1  1  0  0  0  0
 14 13  2  0  0  0  0
 15 16  2  0  0  0  0
 15 14  1  0  0  0  0
 16 17  1  0  0  0  0
 17 12  2  0  0  0  0
 18 14  1  0  0  0  0
 19 16  1  0  0  0  0
 21 20  1  0  0  0  0
 21 22  1  0  0  0  0
M  END
>  <minimizedAffinity>
-4.02722597

$$$$

 OpenBabel03272507513D

 22 23  0  0  0  0  0  0  0  0999 V2000
   35.7000   28.1220   31.5470 N   0  0  0  0  0  0  0  0  0  0  0  0
   34.8680   28.7670   32.3710 C   0  0  0  0  0  0  0  0  0  0  0  0
   34.6200   30.1240   32.2270 C   0  0  0  0  0  0  0  0  0  0  0  0
   35.3100   30.6930   31.1720 C   0  0  0  0  0  0  0  0  0  0  0  0
   35.1040   31.9460   31.0090 O   0  0  0  0  0  0  0  0  0  0  0  0
   36.1550   30.0870   30.3170 N   0  0  0  0  0  0  0  0  0  0  0  0
   36.3400   28.7590   30.5310 C   0  0  0  0  0  0  0  0  0  0  0  0
   37.1230   28.1750   29.7460 O   0  0  0  0  0  0  0  0  0  0  0  0
   34.3490   28.2600   33.1820 H   0  0  0  0  0  0  0  0  0  0  0  0
   33.9750   30.6900   32.8450 H   0  0  0  0  0  0  0  0  0  0  0  0
   36.6190   30.6210   29.5540 H   0  0  0  0  0  0  0  0  0  0  0  0
   37.0040   26.3470   32.5890 C   0  0  0  0  0  0  0  0  0  0  0  0
   35.9730   26.7340   31.6820 C   0  0  0  0  0  0  0  0  0  0  0  0
   35.2900   25.7330   30.9790 C   0  0  0  0  0  0  0  0  0  0  0  0
   35.6500   24.4390   31.1990 N   0  0  0  0  0  0  0  0  0  0  0  0
   36.6160   24.0880   32.0500 C   0  0  0  0  0  0  0  0  0  0  0  0
   37.2870   25.0250   32.7380 N   0  0  0  0  0  0  0  0  0  0  0  0
   34.5230   26.0470   30.3080 H   0  0  0  0  0  0  0  0  0  0  0  0
   36.9140   23.0720   32.2360 H   0  0  0  0  0  0  0  0  0  0  0  0
   37.7950   27.3220   33.3840 C   0  0  0  0  0  2  0  0  0  0  0  0
   37.3100   27.3620   34.8010 C   0  0  0  0  0  2  0  0  0  0  0  0
   38.0190   26.8040   35.4510 H   0  0  0  0  0  0  0  0  0  0  0  0
  1 13  1  0  0  0  0
  1  2  1  0  0  0  0
  2  9  1  0  0  0  0
  3  2  2  0  0  0  0
  3 10  1  0  0  0  0
  4  3  1  0  0  0  0
  5  4  2  0  0  0  0
  6  7  1  0  0  0  0
  6  4  1  0  0  0  0
  7  1  1  0  0  0  0
  8  7  2  0  0  0  0
 11  6  1  0  0  0  0
 12 17  1  0  0  0  0
 12 20  1  0  0  0  0
 13 12  2  0  0  0  0
 14 15  2  0  0  0  0
 14 13  1  0  0  0  0
 15 16  1  0  0  0  0
 16 19  1  0  0  0  0
 16 17  2  0  0  0  0
 18 14  1  0  0  0  0
 20 21  1  0  0  0  0
 21 22  1  0  0  0  0
M  END
>  <minimizedAffinity>
-4.0159297

$$$$
