
 OpenBabel03272509153D

 38 40  0  0  1  0  0  0  0  0999 V2000
   37.7230   23.8880   32.3860 C   0  0  0  0  0  0  0  0  0  0  0  0
   38.0950   24.1250   33.7470 C   0  0  0  0  0  0  0  0  0  0  0  0
   38.0500   23.0360   34.6180 C   0  0  0  0  0  0  0  0  0  0  0  0
   37.6630   21.8250   34.1340 N   0  0  0  0  0  0  0  0  0  0  0  0
   37.3200   21.6400   32.8410 C   0  0  0  0  0  0  0  0  0  0  0  0
   37.3530   22.6600   31.9870 N   0  0  0  0  0  0  0  0  0  0  0  0
   37.7270   24.6470   31.6280 H   0  0  0  0  0  0  0  0  0  0  0  0
   37.0260   20.6200   32.5970 H   0  0  0  0  0  0  0  0  0  0  0  0
   38.4650   25.4750   34.0560 N   0  0  0  0  0  0  0  0  0  0  0  0
   39.6830   26.2070   34.3670 C   0  0  0  0  0  0  0  0  0  0  0  0
   39.2270   26.9830   35.6190 C   0  0  0  0  0  0  0  0  0  0  0  0
   37.7640   27.2730   35.3820 C   0  0  0  0  0  0  0  0  0  0  0  0
   37.4430   26.5410   34.1210 C   0  0  1  0  0  0  0  0  0  0  0  0
   39.9140   26.9110   33.5580 H   0  0  0  0  0  0  0  0  0  0  0  0
   40.5170   25.5150   34.6140 H   0  0  0  0  0  0  0  0  0  0  0  0
   39.3550   26.3480   36.5090 H   0  0  0  0  0  0  0  0  0  0  0  0
   39.7980   27.9340   35.7020 H   0  0  0  0  0  0  0  0  0  0  0  0
   37.1330   27.0820   36.2430 H   0  0  0  0  0  0  0  0  0  0  0  0
   37.6570   28.3950   35.2090 H   0  0  0  0  0  0  0  0  0  0  0  0
   36.4420   26.1260   34.0710 H   0  0  0  0  0  0  0  0  0  0  0  0
   36.8010   27.5510   31.9160 C   0  0  0  0  0  0  0  0  0  0  0  0
   35.7610   26.8260   31.7670 O   0  0  0  0  0  0  0  0  0  0  0  0
   37.6870   27.4590   33.0190 N   0  0  0  0  0  0  0  0  0  0  0  0
   36.9090   28.2510   31.0660 H   0  0  0  0  0  0  0  0  0  0  0  0
   38.4760   28.1310   32.8980 H   0  0  0  0  0  0  0  0  0  0  0  0
   38.4070   23.1600   35.9940 C   0  0  0  0  0  0  0  0  0  0  0  0
   37.4860   23.6530   36.8880 C   0  0  0  0  0  0  0  0  0  0  0  0
   37.7350   23.8010   38.2380 C   0  0  0  0  0  0  0  0  0  0  0  0
   38.9870   23.4240   38.6920 C   0  0  0  0  0  0  0  0  0  0  0  0
   39.9700   22.9200   37.8540 C   0  0  0  0  0  0  0  0  0  0  0  0
   39.6240   22.8100   36.5060 C   0  0  0  0  0  0  0  0  0  0  0  0
   36.4930   23.9670   36.5600 H   0  0  0  0  0  0  0  0  0  0  0  0
   36.9960   24.1950   38.9290 H   0  0  0  0  0  0  0  0  0  0  0  0
   39.2210   23.5240   39.7420 H   0  0  0  0  0  0  0  0  0  0  0  0
   40.9610   22.6260   38.2160 H   0  0  0  0  0  0  0  0  0  0  0  0
   40.6310   22.3350   35.5200 C   0  0  0  0  0  2  0  0  0  0  0  0
   41.8080   23.2800   35.4090 C   0  0  0  0  0  2  0  0  0  0  0  0
   42.3620   22.9980   34.4950 H   0  0  0  0  0  0  0  0  0  0  0  0
  1  2  1  0  0  0  0
  2  9  1  0  0  0  0
  2  3  2  0  0  0  0
  3 26  1  0  0  0  0
  4  3  1  0  0  0  0
  5  4  2  0  0  0  0
  6  1  2  0  0  0  0
  6  5  1  0  0  0  0
  7  1  1  0  0  0  0
  8  5  1  0  0  0  0
  9 13  1  0  0  0  0
  9 10  1  0  0  0  0
 10 15  1  0  0  0  0
 10 11  1  0  0  0  0
 11 17  1  0  0  0  0
 11 16  1  0  0  0  0
 12 11  1  0  0  0  0
 12 18  1  0  0  0  0
 13 20  1  6  0  0  0
 13 12  1  0  0  0  0
 14 10  1  0  0  0  0
 19 12  1  0  0  0  0
 21 23  1  0  0  0  0
 22 21  2  0  0  0  0
 23 13  1  0  0  0  0
 24 21  1  0  0  0  0
 25 23  1  0  0  0  0
 26 31  2  0  0  0  0
 26 27  1  0  0  0  0
 27 28  2  0  0  0  0
 28 29  1  0  0  0  0
 28 33  1  0  0  0  0
 29 34  1  0  0  0  0
 30 35  1  0  0  0  0
 30 29  2  0  0  0  0
 31 30  1  0  0  0  0
 32 27  1  0  0  0  0
 36 31  1  0  0  0  0
 37 36  1  0  0  0  0
 38 37  1  0  0  0  0
M  END
>  <minimizedAffinity>
-5.4759984

$$$$

 OpenBabel03272509153D

 38 40  0  0  1  0  0  0  0  0999 V2000
   37.2590   25.8640   33.7170 C   0  0  0  0  0  0  0  0  0  0  0  0
   38.0610   24.8000   34.2390 C   0  0  0  0  0  0  0  0  0  0  0  0
   38.9350   25.1140   35.2810 C   0  0  0  0  0  0  0  0  0  0  0  0
   38.9750   26.3950   35.7380 N   0  0  0  0  0  0  0  0  0  0  0  0
   38.2010   27.3720   35.2200 C   0  0  0  0  0  0  0  0  0  0  0  0
   37.3580   27.1030   34.2260 N   0  0  0  0  0  0  0  0  0  0  0  0
   36.5490   25.7380   32.9230 H   0  0  0  0  0  0  0  0  0  0  0  0
   38.3440   28.3490   35.6810 H   0  0  0  0  0  0  0  0  0  0  0  0
   37.8730   23.5250   33.6130 N   0  0  0  0  0  0  0  0  0  0  0  0
   37.7440   22.1370   34.0280 C   0  0  0  0  0  0  0  0  0  0  0  0
   38.7490   21.4670   33.0680 C   0  0  0  0  0  0  0  0  0  0  0  0
   38.6680   22.2780   31.7970 C   0  0  0  0  0  0  0  0  0  0  0  0
   37.7640   23.4160   32.1430 C   0  0  1  0  0  0  0  0  0  0  0  0
   36.7310   21.7740   33.8150 H   0  0  0  0  0  0  0  0  0  0  0  0
   38.0590   22.0010   35.0860 H   0  0  0  0  0  0  0  0  0  0  0  0
   39.7600   21.5260   33.4990 H   0  0  0  0  0  0  0  0  0  0  0  0
   38.4410   20.4160   32.8730 H   0  0  0  0  0  0  0  0  0  0  0  0
   39.6340   22.5230   31.3700 H   0  0  0  0  0  0  0  0  0  0  0  0
   38.1740   21.6270   31.0010 H   0  0  0  0  0  0  0  0  0  0  0  0
   38.0040   24.3580   31.6630 H   0  0  0  0  0  0  0  0  0  0  0  0
   35.5090   23.8410   31.1280 C   0  0  0  0  0  0  0  0  0  0  0  0
   35.7830   25.0330   30.7610 O   0  0  0  0  0  0  0  0  0  0  0  0
   36.4080   22.9950   31.8270 N   0  0  0  0  0  0  0  0  0  0  0  0
   34.4810   23.5700   30.8260 H   0  0  0  0  0  0  0  0  0  0  0  0
   35.9450   22.0850   32.0420 H   0  0  0  0  0  0  0  0  0  0  0  0
   39.7750   24.1280   35.8790 C   0  0  0  0  0  0  0  0  0  0  0  0
   41.0270   23.9030   35.3590 C   0  0  0  0  0  0  0  0  0  0  0  0
   41.9140   22.9790   35.8730 C   0  0  0  0  0  0  0  0  0  0  0  0
   41.4970   22.2530   36.9750 C   0  0  0  0  0  0  0  0  0  0  0  0
   40.2490   22.4210   37.5570 C   0  0  0  0  0  0  0  0  0  0  0  0
   39.4240   23.3770   36.9640 C   0  0  0  0  0  0  0  0  0  0  0  0
   41.3820   24.4540   34.4840 H   0  0  0  0  0  0  0  0  0  0  0  0
   42.8980   22.8130   35.4460 H   0  0  0  0  0  0  0  0  0  0  0  0
   42.1620   21.5190   37.4080 H   0  0  0  0  0  0  0  0  0  0  0  0
   39.9210   21.8410   38.4270 H   0  0  0  0  0  0  0  0  0  0  0  0
   38.0450   23.5880   37.4810 C   0  0  0  0  0  2  0  0  0  0  0  0
   38.0360   24.4040   38.7560 C   0  0  0  0  0  2  0  0  0  0  0  0
   37.0290   24.2930   39.2010 H   0  0  0  0  0  0  0  0  0  0  0  0
  1  6  2  0  0  0  0
  1  2  1  0  0  0  0
  2  3  2  0  0  0  0
  3  4  1  0  0  0  0
  3 26  1  0  0  0  0
  5  8  1  0  0  0  0
  5  4  2  0  0  0  0
  6  5  1  0  0  0  0
  7  1  1  0  0  0  0
  9 10  1  0  0  0  0
  9  2  1  0  0  0  0
 10 15  1  0  0  0  0
 11 16  1  0  0  0  0
 11 10  1  0  0  0  0
 12 13  1  0  0  0  0
 12 11  1  0  0  0  0
 13 20  1  6  0  0  0
 13  9  1  0  0  0  0
 14 10  1  0  0  0  0
 17 11  1  0  0  0  0
 18 12  1  0  0  0  0
 19 12  1  0  0  0  0
 21 23  1  0  0  0  0
 22 21  2  0  0  0  0
 23 25  1  0  0  0  0
 23 13  1  0  0  0  0
 24 21  1  0  0  0  0
 26 31  1  0  0  0  0
 27 28  1  0  0  0  0
 27 26  2  0  0  0  0
 28 29  2  0  0  0  0
 29 34  1  0  0  0  0
 29 30  1  0  0  0  0
 30 35  1  0  0  0  0
 31 36  1  0  0  0  0
 31 30  2  0  0  0  0
 32 27  1  0  0  0  0
 33 28  1  0  0  0  0
 36 37  1  0  0  0  0
 37 38  1  0  0  0  0
M  END
>  <minimizedAffinity>
-5.30484247

$$$$

 OpenBabel03272509153D

 38 40  0  0  1  0  0  0  0  0999 V2000
   37.4050   23.9330   32.5030 C   0  0  0  0  0  0  0  0  0  0  0  0
   38.4010   23.8740   33.5300 C   0  0  0  0  0  0  0  0  0  0  0  0
   38.4810   22.6950   34.2720 C   0  0  0  0  0  0  0  0  0  0  0  0
   37.6220   21.6790   33.9830 N   0  0  0  0  0  0  0  0  0  0  0  0
   36.6960   21.7730   33.0060 C   0  0  0  0  0  0  0  0  0  0  0  0
   36.5950   22.8840   32.2820 N   0  0  0  0  0  0  0  0  0  0  0  0
   37.2570   24.7830   31.8670 H   0  0  0  0  0  0  0  0  0  0  0  0
   36.0740   20.8840   32.8920 H   0  0  0  0  0  0  0  0  0  0  0  0
   39.2000   25.0540   33.6770 N   0  0  0  0  0  0  0  0  0  0  0  0
   40.5940   25.4310   33.5040 C   0  0  0  0  0  0  0  0  0  0  0  0
   40.8500   26.1640   34.8370 C   0  0  0  0  0  0  0  0  0  0  0  0
   39.5350   26.8240   35.1730 C   0  0  0  0  0  0  0  0  0  0  0  0
   38.5930   26.3240   34.1280 C   0  0  1  0  0  0  0  0  0  0  0  0
   40.6910   26.1370   32.6690 H   0  0  0  0  0  0  0  0  0  0  0  0
   41.2470   24.5360   33.4140 H   0  0  0  0  0  0  0  0  0  0  0  0
   41.1220   25.4300   35.6100 H   0  0  0  0  0  0  0  0  0  0  0  0
   41.6410   26.9340   34.6990 H   0  0  0  0  0  0  0  0  0  0  0  0
   39.2360   26.7050   36.2090 H   0  0  0  0  0  0  0  0  0  0  0  0
   39.6720   27.9500   35.0570 H   0  0  0  0  0  0  0  0  0  0  0  0
   37.5730   26.1730   34.4600 H   0  0  0  0  0  0  0  0  0  0  0  0
   37.4760   27.7170   32.3650 C   0  0  0  0  0  0  0  0  0  0  0  0
   36.2970   27.3230   32.6520 O   0  0  0  0  0  0  0  0  0  0  0  0
   38.6510   27.2630   33.0170 N   0  0  0  0  0  0  0  0  0  0  0  0
   37.4480   28.4550   31.5410 H   0  0  0  0  0  0  0  0  0  0  0  0
   39.4910   27.7060   32.5860 H   0  0  0  0  0  0  0  0  0  0  0  0
   39.4420   22.5270   35.3130 C   0  0  0  0  0  0  0  0  0  0  0  0
   40.6630   21.9660   35.0210 C   0  0  0  0  0  0  0  0  0  0  0  0
   41.6580   21.7710   35.9570 C   0  0  0  0  0  0  0  0  0  0  0  0
   41.3890   22.1730   37.2540 C   0  0  0  0  0  0  0  0  0  0  0  0
   40.1820   22.7450   37.6290 C   0  0  0  0  0  0  0  0  0  0  0  0
   39.2390   22.8980   36.6110 C   0  0  0  0  0  0  0  0  0  0  0  0
   40.9020   21.6310   34.0090 H   0  0  0  0  0  0  0  0  0  0  0  0
   42.6150   21.3230   35.7080 H   0  0  0  0  0  0  0  0  0  0  0  0
   42.1420   22.0380   38.0170 H   0  0  0  0  0  0  0  0  0  0  0  0
   39.9720   23.0590   38.6570 H   0  0  0  0  0  0  0  0  0  0  0  0
   37.8930   23.4500   36.9270 C   0  0  0  0  0  2  0  0  0  0  0  0
   37.8980   24.2610   38.2040 C   0  0  0  0  0  2  0  0  0  0  0  0
   36.8410   24.4080   38.4950 H   0  0  0  0  0  0  0  0  0  0  0  0
  1  2  1  0  0  0  0
  2  9  1  0  0  0  0
  2  3  2  0  0  0  0
  3 26  1  0  0  0  0
  4  3  1  0  0  0  0
  5  4  2  0  0  0  0
  6  1  2  0  0  0  0
  6  5  1  0  0  0  0
  7  1  1  0  0  0  0
  8  5  1  0  0  0  0
  9 13  1  0  0  0  0
 10  9  1  0  0  0  0
 10 11  1  0  0  0  0
 11 12  1  0  0  0  0
 11 16  1  0  0  0  0
 12 18  1  0  0  0  0
 13 20  1  1  0  0  0
 13 12  1  0  0  0  0
 14 10  1  0  0  0  0
 15 10  1  0  0  0  0
 17 11  1  0  0  0  0
 19 12  1  0  0  0  0
 21 22  2  0  0  0  0
 21 23  1  0  0  0  0
 23 13  1  0  0  0  0
 24 21  1  0  0  0  0
 25 23  1  0  0  0  0
 26 31  1  0  0  0  0
 27 26  2  0  0  0  0
 27 28  1  0  0  0  0
 28 29  2  0  0  0  0
 29 30  1  0  0  0  0
 29 34  1  0  0  0  0
 30 35  1  0  0  0  0
 31 36  1  0  0  0  0
 31 30  2  0  0  0  0
 32 27  1  0  0  0  0
 33 28  1  0  0  0  0
 36 37  1  0  0  0  0
 37 38  1  0  0  0  0
M  END
>  <minimizedAffinity>
-5.18648815

$$$$

 OpenBabel03272509153D

 38 40  0  0  1  0  0  0  0  0999 V2000
   37.3580   23.4720   32.4240 C   0  0  0  0  0  0  0  0  0  0  0  0
   37.8450   23.7710   33.7360 C   0  0  0  0  0  0  0  0  0  0  0  0
   37.8740   22.7240   34.6580 C   0  0  0  0  0  0  0  0  0  0  0  0
   37.4440   21.4930   34.2660 N   0  0  0  0  0  0  0  0  0  0  0  0
   36.9910   21.2510   33.0180 C   0  0  0  0  0  0  0  0  0  0  0  0
   36.9520   22.2290   32.1170 N   0  0  0  0  0  0  0  0  0  0  0  0
   37.2980   24.1940   31.6340 H   0  0  0  0  0  0  0  0  0  0  0  0
   36.6750   20.2210   32.8480 H   0  0  0  0  0  0  0  0  0  0  0  0
   38.2430   25.1300   33.9480 N   0  0  0  0  0  0  0  0  0  0  0  0
   37.6630   26.3400   34.5110 C   0  0  0  0  0  0  0  0  0  0  0  0
   37.9880   27.3500   33.3910 C   0  0  0  0  0  0  0  0  0  0  0  0
   39.3100   26.8880   32.8270 C   0  0  0  0  0  0  0  0  0  0  0  0
   39.5810   25.5990   33.5310 C   0  0  1  0  0  0  0  0  0  0  0  0
   38.1960   26.6200   35.4280 H   0  0  0  0  0  0  0  0  0  0  0  0
   36.5640   26.2380   34.6420 H   0  0  0  0  0  0  0  0  0  0  0  0
   37.2040   27.3060   32.6210 H   0  0  0  0  0  0  0  0  0  0  0  0
   38.0910   28.3710   33.8220 H   0  0  0  0  0  0  0  0  0  0  0  0
   39.3460   26.8800   31.7430 H   0  0  0  0  0  0  0  0  0  0  0  0
   40.1000   27.6560   33.1210 H   0  0  0  0  0  0  0  0  0  0  0  0
   40.0900   24.8480   32.9370 H   0  0  0  0  0  0  0  0  0  0  0  0
   41.7330   25.6960   34.8170 C   0  0  0  0  0  0  0  0  0  0  0  0
   42.4330   25.1660   33.8900 O   0  0  0  0  0  0  0  0  0  0  0  0
   40.3350   25.9190   34.7340 N   0  0  0  0  0  0  0  0  0  0  0  0
   42.3700   25.9490   35.6850 H   0  0  0  0  0  0  0  0  0  0  0  0
   39.9880   26.3330   35.6250 H   0  0  0  0  0  0  0  0  0  0  0  0
   38.3470   22.9100   35.9910 C   0  0  0  0  0  0  0  0  0  0  0  0
   37.4840   23.3710   36.9560 C   0  0  0  0  0  0  0  0  0  0  0  0
   37.8460   23.5740   38.2720 C   0  0  0  0  0  0  0  0  0  0  0  0
   39.1550   23.2880   38.6160 C   0  0  0  0  0  0  0  0  0  0  0  0
   40.0870   22.8200   37.7000 C   0  0  0  0  0  0  0  0  0  0  0  0
   39.6260   22.6500   36.3950 C   0  0  0  0  0  0  0  0  0  0  0  0
   36.4460   23.6140   36.7150 H   0  0  0  0  0  0  0  0  0  0  0  0
   37.1500   23.9420   39.0200 H   0  0  0  0  0  0  0  0  0  0  0  0
   39.4790   23.4330   39.6360 H   0  0  0  0  0  0  0  0  0  0  0  0
   41.1240   22.5990   37.9750 H   0  0  0  0  0  0  0  0  0  0  0  0
   40.5660   22.2080   35.3290 C   0  0  0  0  0  2  0  0  0  0  0  0
   41.9730   22.0220   35.8550 C   0  0  0  0  0  2  0  0  0  0  0  0
   42.6380   21.9510   34.9750 H   0  0  0  0  0  0  0  0  0  0  0  0
  1  2  1  0  0  0  0
  2  9  1  0  0  0  0
  2  3  2  0  0  0  0
  3 26  1  0  0  0  0
  4  3  1  0  0  0  0
  5  4  2  0  0  0  0
  6  1  2  0  0  0  0
  6  5  1  0  0  0  0
  7  1  1  0  0  0  0
  8  5  1  0  0  0  0
  9 10  1  0  0  0  0
 10 15  1  0  0  0  0
 10 14  1  0  0  0  0
 11 17  1  0  0  0  0
 11 10  1  0  0  0  0
 12 19  1  0  0  0  0
 12 11  1  0  0  0  0
 12 13  1  0  0  0  0
 13 20  1  6  0  0  0
 13  9  1  0  0  0  0
 13 23  1  0  0  0  0
 16 11  1  0  0  0  0
 18 12  1  0  0  0  0
 21 24  1  0  0  0  0
 22 21  2  0  0  0  0
 23 21  1  0  0  0  0
 23 25  1  0  0  0  0
 26 31  2  0  0  0  0
 26 27  1  0  0  0  0
 27 28  2  0  0  0  0
 28 29  1  0  0  0  0
 28 33  1  0  0  0  0
 29 34  1  0  0  0  0
 30 35  1  0  0  0  0
 30 29  2  0  0  0  0
 31 30  1  0  0  0  0
 32 27  1  0  0  0  0
 36 37  1  0  0  0  0
 36 31  1  0  0  0  0
 38 37  1  0  0  0  0
M  END
>  <minimizedAffinity>
-4.90507078

$$$$

 OpenBabel03272509153D

 38 40  0  0  1  0  0  0  0  0999 V2000
   38.1190   24.7020   34.2760 C   0  0  0  0  0  0  0  0  0  0  0  0
   37.7490   25.5180   33.1600 C   0  0  0  0  0  0  0  0  0  0  0  0
   38.0710   26.8740   33.2270 C   0  0  0  0  0  0  0  0  0  0  0  0
   38.7120   27.3410   34.3340 N   0  0  0  0  0  0  0  0  0  0  0  0
   39.0460   26.5390   35.3670 C   0  0  0  0  0  0  0  0  0  0  0  0
   38.7510   25.2420   35.3310 N   0  0  0  0  0  0  0  0  0  0  0  0
   37.9290   23.6490   34.3310 H   0  0  0  0  0  0  0  0  0  0  0  0
   39.5500   27.0510   36.1870 H   0  0  0  0  0  0  0  0  0  0  0  0
   37.0750   24.8340   32.0970 N   0  0  0  0  0  0  0  0  0  0  0  0
   35.7780   24.8930   31.4380 C   0  0  0  0  0  0  0  0  0  0  0  0
   35.3930   23.3990   31.4540 C   0  0  0  0  0  0  0  0  0  0  0  0
   36.7020   22.6610   31.3080 C   0  0  0  0  0  0  0  0  0  0  0  0
   37.7390   23.7340   31.3670 C   0  0  1  0  0  0  0  0  0  0  0  0
   35.9000   25.2330   30.4020 H   0  0  0  0  0  0  0  0  0  0  0  0
   35.0530   25.4940   32.0280 H   0  0  0  0  0  0  0  0  0  0  0  0
   34.9180   23.1550   32.4150 H   0  0  0  0  0  0  0  0  0  0  0  0
   34.7270   23.1730   30.5920 H   0  0  0  0  0  0  0  0  0  0  0  0
   36.8130   21.8240   31.9890 H   0  0  0  0  0  0  0  0  0  0  0  0
   36.7130   22.1760   30.2760 H   0  0  0  0  0  0  0  0  0  0  0  0
   38.6680   23.4510   31.8480 H   0  0  0  0  0  0  0  0  0  0  0  0
   39.2490   24.6050   29.5630 C   0  0  0  0  0  0  0  0  0  0  0  0
   40.2790   24.6750   30.3130 O   0  0  0  0  0  0  0  0  0  0  0  0
   37.9690   24.1820   30.0010 N   0  0  0  0  0  0  0  0  0  0  0  0
   39.4990   24.9220   28.5330 H   0  0  0  0  0  0  0  0  0  0  0  0
   37.2870   24.2400   29.2150 H   0  0  0  0  0  0  0  0  0  0  0  0
   37.7550   27.7750   32.1670 C   0  0  0  0  0  0  0  0  0  0  0  0
   38.5970   27.8660   31.0850 C   0  0  0  0  0  0  0  0  0  0  0  0
   38.3720   28.7000   30.0090 C   0  0  0  0  0  0  0  0  0  0  0  0
   37.2280   29.4770   30.0440 C   0  0  0  0  0  0  0  0  0  0  0  0
   36.3290   29.4440   31.1000 C   0  0  0  0  0  0  0  0  0  0  0  0
   36.6450   28.5710   32.1420 C   0  0  0  0  0  0  0  0  0  0  0  0
   39.5130   27.2720   31.0310 H   0  0  0  0  0  0  0  0  0  0  0  0
   39.0510   28.7600   29.1640 H   0  0  0  0  0  0  0  0  0  0  0  0
   37.0140   30.1440   29.2210 H   0  0  0  0  0  0  0  0  0  0  0  0
   35.4260   30.0630   31.1270 H   0  0  0  0  0  0  0  0  0  0  0  0
   35.7730   28.5070   33.3460 C   0  0  0  0  0  2  0  0  0  0  0  0
   35.6450   29.8540   34.0250 C   0  0  0  0  0  2  0  0  0  0  0  0
   35.2100   29.6680   35.0250 H   0  0  0  0  0  0  0  0  0  0  0  0
  1  7  1  0  0  0  0
  1  6  1  0  0  0  0
  2  3  1  0  0  0  0
  2  1  2  0  0  0  0
  3  4  2  0  0  0  0
  4  5  1  0  0  0  0
  5  8  1  0  0  0  0
  6  5  2  0  0  0  0
  9  2  1  0  0  0  0
 10 11  1  0  0  0  0
 10 15  1  0  0  0  0
 10  9  1  0  0  0  0
 11 16  1  0  0  0  0
 12 13  1  0  0  0  0
 12 11  1  0  0  0  0
 12 18  1  0  0  0  0
 13 20  1  1  0  0  0
 13  9  1  0  0  0  0
 14 10  1  0  0  0  0
 17 11  1  0  0  0  0
 19 12  1  0  0  0  0
 21 23  1  0  0  0  0
 21 22  2  0  0  0  0
 23 13  1  0  0  0  0
 24 21  1  0  0  0  0
 25 23  1  0  0  0  0
 26  3  1  0  0  0  0
 27 26  2  0  0  0  0
 28 29  2  0  0  0  0
 28 27  1  0  0  0  0
 29 30  1  0  0  0  0
 30 35  1  0  0  0  0
 30 31  2  0  0  0  0
 31 26  1  0  0  0  0
 31 36  1  0  0  0  0
 32 27  1  0  0  0  0
 33 28  1  0  0  0  0
 34 29  1  0  0  0  0
 36 37  1  0  0  0  0
 37 38  1  0  0  0  0
M  END
>  <minimizedAffinity>
-4.90403271

$$$$

 OpenBabel03272509153D

 38 40  0  0  1  0  0  0  0  0999 V2000
   37.2340   24.5330   32.0180 C   0  0  0  0  0  0  0  0  0  0  0  0
   37.8040   24.5660   33.3300 C   0  0  0  0  0  0  0  0  0  0  0  0
   37.8140   23.3700   34.0490 C   0  0  0  0  0  0  0  0  0  0  0  0
   37.2900   22.2540   33.4730 N   0  0  0  0  0  0  0  0  0  0  0  0
   36.7610   22.2640   32.2310 C   0  0  0  0  0  0  0  0  0  0  0  0
   36.7380   23.3880   31.5210 N   0  0  0  0  0  0  0  0  0  0  0  0
   37.1790   25.3880   31.3730 H   0  0  0  0  0  0  0  0  0  0  0  0
   36.3750   21.2990   31.9010 H   0  0  0  0  0  0  0  0  0  0  0  0
   38.2940   25.8430   33.7550 N   0  0  0  0  0  0  0  0  0  0  0  0
   39.5530   26.5720   33.7200 C   0  0  0  0  0  0  0  0  0  0  0  0
   39.6400   27.0420   35.1870 C   0  0  0  0  0  0  0  0  0  0  0  0
   38.2080   27.2800   35.6020 C   0  0  0  0  0  0  0  0  0  0  0  0
   37.4030   26.8040   34.4380 C   0  0  1  0  0  0  0  0  0  0  0  0
   39.4640   27.4420   33.0580 H   0  0  0  0  0  0  0  0  0  0  0  0
   40.4020   25.9000   33.4700 H   0  0  0  0  0  0  0  0  0  0  0  0
   40.0920   26.2470   35.7980 H   0  0  0  0  0  0  0  0  0  0  0  0
   40.2190   27.9900   35.2450 H   0  0  0  0  0  0  0  0  0  0  0  0
   37.9600   26.8740   36.5770 H   0  0  0  0  0  0  0  0  0  0  0  0
   38.0660   28.4040   35.7300 H   0  0  0  0  0  0  0  0  0  0  0  0
   36.4540   26.3450   34.6900 H   0  0  0  0  0  0  0  0  0  0  0  0
   36.0800   28.7870   33.6540 C   0  0  0  0  0  0  0  0  0  0  0  0
   35.1200   28.6040   34.4740 O   0  0  0  0  0  0  0  0  0  0  0  0
   37.2170   27.9450   33.5530 N   0  0  0  0  0  0  0  0  0  0  0  0
   35.8960   29.6870   33.0380 H   0  0  0  0  0  0  0  0  0  0  0  0
   37.8430   28.2830   32.7910 H   0  0  0  0  0  0  0  0  0  0  0  0
   38.3640   23.2890   35.3640 C   0  0  0  0  0  0  0  0  0  0  0  0
   37.5610   23.5510   36.4480 C   0  0  0  0  0  0  0  0  0  0  0  0
   37.9990   23.4900   37.7560 C   0  0  0  0  0  0  0  0  0  0  0  0
   39.3220   23.1400   37.9600 C   0  0  0  0  0  0  0  0  0  0  0  0
   40.1950   22.8620   36.9190 C   0  0  0  0  0  0  0  0  0  0  0  0
   39.6590   22.9530   35.6340 C   0  0  0  0  0  0  0  0  0  0  0  0
   36.5140   23.8380   36.3200 H   0  0  0  0  0  0  0  0  0  0  0  0
   37.3510   23.7040   38.6000 H   0  0  0  0  0  0  0  0  0  0  0  0
   39.7050   23.0800   38.9690 H   0  0  0  0  0  0  0  0  0  0  0  0
   41.2440   22.5890   37.0840 H   0  0  0  0  0  0  0  0  0  0  0  0
   40.5320   22.7290   34.4500 C   0  0  0  0  0  2  0  0  0  0  0  0
   41.7160   23.6730   34.4310 C   0  0  0  0  0  2  0  0  0  0  0  0
   42.1530   23.6190   33.4160 H   0  0  0  0  0  0  0  0  0  0  0  0
  1  2  1  0  0  0  0
  2  9  1  0  0  0  0
  2  3  2  0  0  0  0
  3 26  1  0  0  0  0
  4  3  1  0  0  0  0
  5  4  2  0  0  0  0
  6  1  2  0  0  0  0
  6  5  1  0  0  0  0
  7  1  1  0  0  0  0
  8  5  1  0  0  0  0
  9 13  1  0  0  0  0
 10  9  1  0  0  0  0
 10 11  1  0  0  0  0
 11 17  1  0  0  0  0
 11 12  1  0  0  0  0
 11 16  1  0  0  0  0
 12 19  1  0  0  0  0
 12 18  1  0  0  0  0
 13 20  1  1  0  0  0
 13 12  1  0  0  0  0
 14 10  1  0  0  0  0
 15 10  1  0  0  0  0
 21 22  2  0  0  0  0
 23 21  1  0  0  0  0
 23 13  1  0  0  0  0
 24 21  1  0  0  0  0
 25 23  1  0  0  0  0
 26 31  2  0  0  0  0
 26 27  1  0  0  0  0
 27 28  2  0  0  0  0
 28 29  1  0  0  0  0
 28 33  1  0  0  0  0
 29 34  1  0  0  0  0
 30 35  1  0  0  0  0
 30 29  2  0  0  0  0
 31 30  1  0  0  0  0
 32 27  1  0  0  0  0
 36 31  1  0  0  0  0
 37 36  1  0  0  0  0
 38 37  1  0  0  0  0
M  END
>  <minimizedAffinity>
-4.89895296

$$$$

 OpenBabel03272509153D

 38 40  0  0  1  0  0  0  0  0999 V2000
   37.2580   26.0590   33.6570 C   0  0  0  0  0  0  0  0  0  0  0  0
   38.0040   24.9780   34.2260 C   0  0  0  0  0  0  0  0  0  0  0  0
   38.7740   25.2610   35.3540 C   0  0  0  0  0  0  0  0  0  0  0  0
   38.7750   26.5290   35.8460 N   0  0  0  0  0  0  0  0  0  0  0  0
   38.0570   27.5230   35.2810 C   0  0  0  0  0  0  0  0  0  0  0  0
   37.3130   27.2840   34.2050 N   0  0  0  0  0  0  0  0  0  0  0  0
   36.6280   25.9580   32.7950 H   0  0  0  0  0  0  0  0  0  0  0  0
   38.1580   28.4880   35.7790 H   0  0  0  0  0  0  0  0  0  0  0  0
   37.8720   23.7210   33.5520 N   0  0  0  0  0  0  0  0  0  0  0  0
   37.8260   22.3120   33.9120 C   0  0  0  0  0  0  0  0  0  0  0  0
   38.8480   21.7370   32.9100 C   0  0  0  0  0  0  0  0  0  0  0  0
   38.6990   22.5910   31.6740 C   0  0  0  0  0  0  0  0  0  0  0  0
   37.7420   23.6630   32.0800 C   0  0  1  0  0  0  0  0  0  0  0  0
   36.8300   21.9030   33.7020 H   0  0  0  0  0  0  0  0  0  0  0  0
   38.1680   22.1520   34.9580 H   0  0  0  0  0  0  0  0  0  0  0  0
   39.8610   21.8320   33.3260 H   0  0  0  0  0  0  0  0  0  0  0  0
   38.5930   20.6790   32.6770 H   0  0  0  0  0  0  0  0  0  0  0  0
   39.6430   22.9050   31.2410 H   0  0  0  0  0  0  0  0  0  0  0  0
   38.2260   21.9470   30.8610 H   0  0  0  0  0  0  0  0  0  0  0  0
   37.9220   24.6350   31.6350 H   0  0  0  0  0  0  0  0  0  0  0  0
   35.4540   24.0010   31.1090 C   0  0  0  0  0  0  0  0  0  0  0  0
   35.6600   25.2150   30.7750 O   0  0  0  0  0  0  0  0  0  0  0  0
   36.4040   23.1820   31.7700 N   0  0  0  0  0  0  0  0  0  0  0  0
   34.4360   23.6860   30.8130 H   0  0  0  0  0  0  0  0  0  0  0  0
   35.9920   22.2440   31.9640 H   0  0  0  0  0  0  0  0  0  0  0  0
   39.5500   24.2550   36.0050 C   0  0  0  0  0  0  0  0  0  0  0  0
   39.0400   23.6210   37.1120 C   0  0  0  0  0  0  0  0  0  0  0  0
   39.7100   22.6310   37.8030 C   0  0  0  0  0  0  0  0  0  0  0  0
   40.9620   22.2750   37.3340 C   0  0  0  0  0  0  0  0  0  0  0  0
   41.5460   22.8680   36.2240 C   0  0  0  0  0  0  0  0  0  0  0  0
   40.7910   23.8590   35.5960 C   0  0  0  0  0  0  0  0  0  0  0  0
   38.0580   23.8860   37.5120 H   0  0  0  0  0  0  0  0  0  0  0  0
   39.2920   22.1440   38.6780 H   0  0  0  0  0  0  0  0  0  0  0  0
   41.5190   21.5040   37.8460 H   0  0  0  0  0  0  0  0  0  0  0  0
   42.5390   22.5850   35.8580 H   0  0  0  0  0  0  0  0  0  0  0  0
   41.3570   24.5940   34.4320 C   0  0  0  0  0  2  0  0  0  0  0  0
   42.7440   25.1270   34.7180 C   0  0  0  0  0  2  0  0  0  0  0  0
   42.9760   25.8610   33.9230 H   0  0  0  0  0  0  0  0  0  0  0  0
  1  6  2  0  0  0  0
  1  2  1  0  0  0  0
  2  3  2  0  0  0  0
  3  4  1  0  0  0  0
  3 26  1  0  0  0  0
  5  8  1  0  0  0  0
  5  4  2  0  0  0  0
  6  5  1  0  0  0  0
  7  1  1  0  0  0  0
  9 10  1  0  0  0  0
  9  2  1  0  0  0  0
 10 15  1  0  0  0  0
 11 16  1  0  0  0  0
 11 10  1  0  0  0  0
 12 13  1  0  0  0  0
 12 11  1  0  0  0  0
 13 20  1  6  0  0  0
 13  9  1  0  0  0  0
 14 10  1  0  0  0  0
 17 11  1  0  0  0  0
 18 12  1  0  0  0  0
 19 12  1  0  0  0  0
 21 23  1  0  0  0  0
 22 21  2  0  0  0  0
 23 25  1  0  0  0  0
 23 13  1  0  0  0  0
 24 21  1  0  0  0  0
 26 27  1  0  0  0  0
 27 32  1  0  0  0  0
 27 28  2  0  0  0  0
 28 33  1  0  0  0  0
 29 28  1  0  0  0  0
 29 34  1  0  0  0  0
 30 29  2  0  0  0  0
 31 26  2  0  0  0  0
 31 30  1  0  0  0  0
 35 30  1  0  0  0  0
 36 37  1  0  0  0  0
 36 31  1  0  0  0  0
 38 37  1  0  0  0  0
M  END
>  <minimizedAffinity>
-4.84915829

$$$$

 OpenBabel03272509153D

 38 40  0  0  1  0  0  0  0  0999 V2000
   37.0860   25.6060   32.4460 C   0  0  0  0  0  0  0  0  0  0  0  0
   37.2260   24.1900   32.5970 C   0  0  0  0  0  0  0  0  0  0  0  0
   36.3280   23.3830   31.8980 C   0  0  0  0  0  0  0  0  0  0  0  0
   35.3820   23.9770   31.1210 N   0  0  0  0  0  0  0  0  0  0  0  0
   35.2810   25.3180   31.0040 C   0  0  0  0  0  0  0  0  0  0  0  0
   36.1230   26.1130   31.6580 N   0  0  0  0  0  0  0  0  0  0  0  0
   37.7220   26.3210   32.9290 H   0  0  0  0  0  0  0  0  0  0  0  0
   34.4730   25.6510   30.3520 H   0  0  0  0  0  0  0  0  0  0  0  0
   38.2830   23.7680   33.4670 N   0  0  0  0  0  0  0  0  0  0  0  0
   39.7260   23.5920   33.3930 C   0  0  0  0  0  0  0  0  0  0  0  0
   39.8630   22.1780   33.9950 C   0  0  0  0  0  0  0  0  0  0  0  0
   38.7660   22.0900   35.0280 C   0  0  0  0  0  0  0  0  0  0  0  0
   37.9970   23.3590   34.8580 C   0  0  1  0  0  0  0  0  0  0  0  0
   40.2260   24.3210   34.0430 H   0  0  0  0  0  0  0  0  0  0  0  0
   40.0800   23.6090   32.3400 H   0  0  0  0  0  0  0  0  0  0  0  0
   39.7090   21.4290   33.2040 H   0  0  0  0  0  0  0  0  0  0  0  0
   40.8580   22.0700   34.4810 H   0  0  0  0  0  0  0  0  0  0  0  0
   38.2070   21.1610   34.9970 H   0  0  0  0  0  0  0  0  0  0  0  0
   39.2590   22.0780   36.0570 H   0  0  0  0  0  0  0  0  0  0  0  0
   36.9290   23.2770   35.0290 H   0  0  0  0  0  0  0  0  0  0  0  0
   38.2520   24.4200   37.1180 C   0  0  0  0  0  0  0  0  0  0  0  0
   37.3750   23.6820   37.6800 O   0  0  0  0  0  0  0  0  0  0  0  0
   38.5970   24.3450   35.7450 N   0  0  0  0  0  0  0  0  0  0  0  0
   38.6950   25.1190   37.8510 H   0  0  0  0  0  0  0  0  0  0  0  0
   39.3140   25.0680   35.5180 H   0  0  0  0  0  0  0  0  0  0  0  0
   36.3840   21.9590   31.9710 C   0  0  0  0  0  0  0  0  0  0  0  0
   35.5300   21.2930   32.8190 C   0  0  0  0  0  0  0  0  0  0  0  0
   35.5030   19.9200   32.9520 C   0  0  0  0  0  0  0  0  0  0  0  0
   36.3920   19.1950   32.1780 C   0  0  0  0  0  0  0  0  0  0  0  0
   37.2840   19.7920   31.3000 C   0  0  0  0  0  0  0  0  0  0  0  0
   37.2370   21.1850   31.2380 C   0  0  0  0  0  0  0  0  0  0  0  0
   34.8230   21.8380   33.4500 H   0  0  0  0  0  0  0  0  0  0  0  0
   34.8240   19.4120   33.6300 H   0  0  0  0  0  0  0  0  0  0  0  0
   36.4020   18.1170   32.2520 H   0  0  0  0  0  0  0  0  0  0  0  0
   37.9890   19.2150   30.6910 H   0  0  0  0  0  0  0  0  0  0  0  0
   38.1950   21.9200   30.3690 C   0  0  0  0  0  2  0  0  0  0  0  0
   39.5720   21.2900   30.3820 C   0  0  0  0  0  2  0  0  0  0  0  0
   40.2660   22.0260   29.9340 H   0  0  0  0  0  0  0  0  0  0  0  0
  1  2  1  0  0  0  0
  1  7  1  0  0  0  0
  2  9  1  0  0  0  0
  3 26  1  0  0  0  0
  3  2  2  0  0  0  0
  4  3  1  0  0  0  0
  5  4  2  0  0  0  0
  5  6  1  0  0  0  0
  6  1  2  0  0  0  0
  8  5  1  0  0  0  0
  9 13  1  0  0  0  0
 10  9  1  0  0  0  0
 10 11  1  0  0  0  0
 10 14  1  0  0  0  0
 11 17  1  0  0  0  0
 11 12  1  0  0  0  0
 12 19  1  0  0  0  0
 13 12  1  0  0  0  0
 13 20  1  1  0  0  0
 13 23  1  0  0  0  0
 15 10  1  0  0  0  0
 16 11  1  0  0  0  0
 18 12  1  0  0  0  0
 21 22  2  0  0  0  0
 21 24  1  0  0  0  0
 23 21  1  0  0  0  0
 25 23  1  0  0  0  0
 26 27  1  0  0  0  0
 27 28  2  0  0  0  0
 27 32  1  0  0  0  0
 28 33  1  0  0  0  0
 29 34  1  0  0  0  0
 29 28  1  0  0  0  0
 30 29  2  0  0  0  0
 31 30  1  0  0  0  0
 31 26  2  0  0  0  0
 35 30  1  0  0  0  0
 36 37  1  0  0  0  0
 36 31  1  0  0  0  0
 38 37  1  0  0  0  0
M  END
>  <minimizedAffinity>
-4.82731342

$$$$

 OpenBabel03272509153D

 38 40  0  0  1  0  0  0  0  0999 V2000
   36.5850   28.1370   34.5040 C   0  0  0  0  0  0  0  0  0  0  0  0
   37.3660   27.2410   33.7060 C   0  0  0  0  0  0  0  0  0  0  0  0
   37.0310   27.1350   32.3560 C   0  0  0  0  0  0  0  0  0  0  0  0
   35.9970   27.8800   31.8770 N   0  0  0  0  0  0  0  0  0  0  0  0
   35.2840   28.7150   32.6620 C   0  0  0  0  0  0  0  0  0  0  0  0
   35.5800   28.8370   33.9530 N   0  0  0  0  0  0  0  0  0  0  0  0
   36.7560   28.3040   35.5500 H   0  0  0  0  0  0  0  0  0  0  0  0
   34.4830   29.2420   32.1440 H   0  0  0  0  0  0  0  0  0  0  0  0
   38.4050   26.5450   34.4050 N   0  0  0  0  0  0  0  0  0  0  0  0
   39.7930   26.7840   34.7740 C   0  0  0  0  0  0  0  0  0  0  0  0
   40.4330   25.4580   34.3120 C   0  0  0  0  0  0  0  0  0  0  0  0
   39.3670   24.4140   34.5410 C   0  0  0  0  0  0  0  0  0  0  0  0
   38.1680   25.1980   34.9640 C   0  0  1  0  0  0  0  0  0  0  0  0
   39.8800   26.8770   35.8630 H   0  0  0  0  0  0  0  0  0  0  0  0
   40.2170   27.6440   34.2120 H   0  0  0  0  0  0  0  0  0  0  0  0
   40.6830   25.5270   33.2430 H   0  0  0  0  0  0  0  0  0  0  0  0
   41.3280   25.2350   34.9340 H   0  0  0  0  0  0  0  0  0  0  0  0
   39.2430   23.7240   33.7130 H   0  0  0  0  0  0  0  0  0  0  0  0
   39.7110   23.7500   35.4010 H   0  0  0  0  0  0  0  0  0  0  0  0
   37.2160   24.8000   34.6310 H   0  0  0  0  0  0  0  0  0  0  0  0
   37.7860   24.2430   37.2520 C   0  0  0  0  0  0  0  0  0  0  0  0
   37.2890   23.1470   36.8270 O   0  0  0  0  0  0  0  0  0  0  0  0
   38.2160   25.3030   36.4140 N   0  0  0  0  0  0  0  0  0  0  0  0
   37.8300   24.2450   38.3580 H   0  0  0  0  0  0  0  0  0  0  0  0
   38.5550   26.1000   36.9950 H   0  0  0  0  0  0  0  0  0  0  0  0
   37.7480   26.2780   31.4700 C   0  0  0  0  0  0  0  0  0  0  0  0
   38.8980   26.7360   30.8710 C   0  0  0  0  0  0  0  0  0  0  0  0
   39.6630   25.9790   30.0070 C   0  0  0  0  0  0  0  0  0  0  0  0
   39.2300   24.6900   29.7470 C   0  0  0  0  0  0  0  0  0  0  0  0
   38.0810   24.1560   30.3110 C   0  0  0  0  0  0  0  0  0  0  0  0
   37.3740   24.9990   31.1690 C   0  0  0  0  0  0  0  0  0  0  0  0
   39.2610   27.7510   31.0490 H   0  0  0  0  0  0  0  0  0  0  0  0
   40.5670   26.3590   29.5400 H   0  0  0  0  0  0  0  0  0  0  0  0
   39.8010   24.0650   29.0760 H   0  0  0  0  0  0  0  0  0  0  0  0
   37.7390   23.1360   30.1000 H   0  0  0  0  0  0  0  0  0  0  0  0
   36.0980   24.5360   31.7770 C   0  0  0  0  0  2  0  0  0  0  0  0
   35.7690   23.1100   31.3880 C   0  0  0  0  0  2  0  0  0  0  0  0
   34.7100   22.9400   31.6590 H   0  0  0  0  0  0  0  0  0  0  0  0
  1  7  1  0  0  0  0
  2  9  1  0  0  0  0
  2  1  2  0  0  0  0
  3  2  1  0  0  0  0
  4  3  2  0  0  0  0
  4  5  1  0  0  0  0
  5  6  2  0  0  0  0
  6  1  1  0  0  0  0
  8  5  1  0  0  0  0
  9 10  1  0  0  0  0
  9 13  1  0  0  0  0
 10 14  1  0  0  0  0
 11 12  1  0  0  0  0
 11 10  1  0  0  0  0
 11 17  1  0  0  0  0
 12 13  1  0  0  0  0
 12 19  1  0  0  0  0
 13 20  1  6  0  0  0
 13 23  1  0  0  0  0
 15 10  1  0  0  0  0
 16 11  1  0  0  0  0
 18 12  1  0  0  0  0
 21 24  1  0  0  0  0
 22 21  2  0  0  0  0
 23 25  1  0  0  0  0
 23 21  1  0  0  0  0
 26  3  1  0  0  0  0
 27 32  1  0  0  0  0
 27 26  2  0  0  0  0
 28 27  1  0  0  0  0
 29 28  2  0  0  0  0
 29 30  1  0  0  0  0
 30 31  2  0  0  0  0
 31 26  1  0  0  0  0
 31 36  1  0  0  0  0
 33 28  1  0  0  0  0
 34 29  1  0  0  0  0
 35 30  1  0  0  0  0
 37 38  1  0  0  0  0
 37 36  1  0  0  0  0
M  END
>  <minimizedAffinity>
-4.82209873

$$$$
