
 OpenBabel03262523143D

 23 24  0  0  0  0  0  0  0  0999 V2000
   38.2820   25.5370   35.1960 C   0  0  0  0  0  0  0  0  0  0  0  0
   38.1220   26.7800   35.7550 C   0  0  0  0  0  0  0  0  0  0  0  0
   37.4180   27.6540   34.9550 C   0  0  0  0  0  0  0  0  0  0  0  0
   36.9210   27.3260   33.7180 C   0  0  0  0  0  0  0  0  0  0  0  0
   37.1260   26.0540   33.2280 C   0  0  0  0  0  0  0  0  0  0  0  0
   37.8090   25.1810   33.9870 N   0  0  0  0  0  0  0  0  0  0  0  0
   38.5070   27.0360   36.7170 H   0  0  0  0  0  0  0  0  0  0  0  0
   37.2310   28.6790   35.3040 H   0  0  0  0  0  0  0  0  0  0  0  0
   36.3680   28.0410   33.1070 H   0  0  0  0  0  0  0  0  0  0  0  0
   39.1970   23.1020   37.7970 C   0  0  0  0  0  0  0  0  0  0  0  0
   40.4140   22.5930   37.3280 C   0  0  0  0  0  0  0  0  0  0  0  0
   40.9070   23.1020   36.1100 C   0  0  0  0  0  0  0  0  0  0  0  0
   40.1800   24.0390   35.4800 N   0  0  0  0  0  0  0  0  0  0  0  0
   39.0090   24.5160   35.9500 C   0  0  0  0  0  0  0  0  0  0  0  0
   38.5350   24.0300   37.1160 N   0  0  0  0  0  0  0  0  0  0  0  0
   40.9520   21.8420   37.8780 H   0  0  0  0  0  0  0  0  0  0  0  0
   41.8460   22.7350   35.7120 H   0  0  0  0  0  0  0  0  0  0  0  0
   38.6330   22.6380   39.0170 N   0  0  0  0  0  0  0  0  0  0  0  0
   37.9810   23.2420   39.5630 H   0  0  0  0  0  0  0  0  0  0  0  0
   38.8910   21.6790   39.3490 H   0  0  0  0  0  0  0  0  0  0  0  0
   36.5900   25.6960   31.8900 C   0  0  0  0  0  2  0  0  0  0  0  0
   35.7840   26.9110   31.4240 C   0  0  0  0  0  2  0  0  0  0  0  0
   35.9120   27.0600   30.3490 H   0  0  0  0  0  0  0  0  0  0  0  0
  1  2  1  0  0  0  0
  1 14  1  0  0  0  0
  2  7  1  0  0  0  0
  3  8  1  0  0  0  0
  3  2  2  0  0  0  0
  4  3  1  0  0  0  0
  5  4  2  0  0  0  0
  5  6  1  0  0  0  0
  6  1  2  0  0  0  0
  9  4  1  0  0  0  0
 10 18  1  0  0  0  0
 11 10  1  0  0  0  0
 11 16  1  0  0  0  0
 12 11  2  0  0  0  0
 13 14  2  0  0  0  0
 13 12  1  0  0  0  0
 14 15  1  0  0  0  0
 15 10  2  0  0  0  0
 17 12  1  0  0  0  0
 18 20  1  0  0  0  0
 18 19  1  0  0  0  0
 21  5  1  0  0  0  0
 22 21  1  0  0  0  0
 23 22  1  0  0  0  0
M  END
>  <minimizedAffinity>
-4.88354492

$$$$

 OpenBabel03262523143D

 23 24  0  0  0  0  0  0  0  0999 V2000
   38.0900   24.4300   34.7860 C   0  0  0  0  0  0  0  0  0  0  0  0
   38.0950   23.4770   33.7990 C   0  0  0  0  0  0  0  0  0  0  0  0
   37.7760   23.9750   32.5540 C   0  0  0  0  0  0  0  0  0  0  0  0
   37.4790   25.2930   32.3120 C   0  0  0  0  0  0  0  0  0  0  0  0
   37.4960   26.1880   33.3600 C   0  0  0  0  0  0  0  0  0  0  0  0
   37.8040   25.7300   34.5850 N   0  0  0  0  0  0  0  0  0  0  0  0
   38.3260   22.4520   33.9850 H   0  0  0  0  0  0  0  0  0  0  0  0
   37.7490   23.2980   31.6890 H   0  0  0  0  0  0  0  0  0  0  0  0
   37.2290   25.6580   31.3150 H   0  0  0  0  0  0  0  0  0  0  0  0
   39.6600   22.7370   37.6490 C   0  0  0  0  0  0  0  0  0  0  0  0
   39.0000   23.3080   38.7450 C   0  0  0  0  0  0  0  0  0  0  0  0
   38.0140   24.2780   38.4770 C   0  0  0  0  0  0  0  0  0  0  0  0
   37.7710   24.5910   37.1940 N   0  0  0  0  0  0  0  0  0  0  0  0
   38.4180   24.0270   36.1530 C   0  0  0  0  0  0  0  0  0  0  0  0
   39.3630   23.0980   36.4070 N   0  0  0  0  0  0  0  0  0  0  0  0
   39.2380   23.0160   39.7510 H   0  0  0  0  0  0  0  0  0  0  0  0
   37.4790   24.7450   39.2970 H   0  0  0  0  0  0  0  0  0  0  0  0
   40.6680   21.7510   37.8370 N   0  0  0  0  0  0  0  0  0  0  0  0
   40.8790   21.0590   37.0860 H   0  0  0  0  0  0  0  0  0  0  0  0
   41.1890   21.7420   38.7450 H   0  0  0  0  0  0  0  0  0  0  0  0
   37.1750   27.6150   33.1020 C   0  0  0  0  0  2  0  0  0  0  0  0
   36.5040   28.1310   34.3780 C   0  0  0  0  0  2  0  0  0  0  0  0
   36.8130   29.1590   34.5780 H   0  0  0  0  0  0  0  0  0  0  0  0
  1 14  1  0  0  0  0
  2  7  1  0  0  0  0
  2  1  2  0  0  0  0
  3  2  1  0  0  0  0
  4  3  2  0  0  0  0
  4  5  1  0  0  0  0
  5  6  2  0  0  0  0
  6  1  1  0  0  0  0
  8  3  1  0  0  0  0
  9  4  1  0  0  0  0
 10 18  1  0  0  0  0
 10 11  1  0  0  0  0
 11 16  1  0  0  0  0
 12 11  2  0  0  0  0
 12 17  1  0  0  0  0
 13 12  1  0  0  0  0
 14 15  1  0  0  0  0
 14 13  2  0  0  0  0
 15 10  2  0  0  0  0
 18 20  1  0  0  0  0
 19 18  1  0  0  0  0
 21  5  1  0  0  0  0
 21 22  1  0  0  0  0
 22 23  1  0  0  0  0
M  END
>  <minimizedAffinity>
-4.82192612

$$$$

 OpenBabel03262523143D

 23 24  0  0  0  0  0  0  0  0999 V2000
   38.6240   24.9740   34.7830 C   0  0  0  0  0  0  0  0  0  0  0  0
   39.2770   26.1560   34.5390 C   0  0  0  0  0  0  0  0  0  0  0  0
   39.1080   26.6190   33.2510 C   0  0  0  0  0  0  0  0  0  0  0  0
   38.3630   25.9700   32.2980 C   0  0  0  0  0  0  0  0  0  0  0  0
   37.7380   24.7870   32.6260 C   0  0  0  0  0  0  0  0  0  0  0  0
   37.8850   24.3120   33.8740 N   0  0  0  0  0  0  0  0  0  0  0  0
   39.8560   26.6620   35.2780 H   0  0  0  0  0  0  0  0  0  0  0  0
   39.5890   27.5590   32.9450 H   0  0  0  0  0  0  0  0  0  0  0  0
   38.2480   26.3620   31.2860 H   0  0  0  0  0  0  0  0  0  0  0  0
   39.6660   22.8400   37.5930 C   0  0  0  0  0  0  0  0  0  0  0  0
   38.8680   23.3050   38.6460 C   0  0  0  0  0  0  0  0  0  0  0  0
   37.9740   24.3580   38.3680 C   0  0  0  0  0  0  0  0  0  0  0  0
   37.9440   24.8460   37.1170 N   0  0  0  0  0  0  0  0  0  0  0  0
   38.7220   24.3820   36.1170 C   0  0  0  0  0  0  0  0  0  0  0  0
   39.5790   23.3740   36.3800 N   0  0  0  0  0  0  0  0  0  0  0  0
   38.9360   22.8740   39.6270 H   0  0  0  0  0  0  0  0  0  0  0  0
   37.3380   24.7480   39.1550 H   0  0  0  0  0  0  0  0  0  0  0  0
   40.5940   21.7810   37.7920 N   0  0  0  0  0  0  0  0  0  0  0  0
   40.8900   21.1780   36.9940 H   0  0  0  0  0  0  0  0  0  0  0  0
   40.9670   21.6250   38.7580 H   0  0  0  0  0  0  0  0  0  0  0  0
   36.9310   24.0820   31.5970 C   0  0  0  0  0  2  0  0  0  0  0  0
   35.7280   24.9860   31.3170 C   0  0  0  0  0  2  0  0  0  0  0  0
   35.4750   24.9600   30.2550 H   0  0  0  0  0  0  0  0  0  0  0  0
  1 14  1  0  0  0  0
  2  1  1  0  0  0  0
  2  7  1  0  0  0  0
  3  2  2  0  0  0  0
  4  5  2  0  0  0  0
  4  3  1  0  0  0  0
  5  6  1  0  0  0  0
  6  1  2  0  0  0  0
  8  3  1  0  0  0  0
  9  4  1  0  0  0  0
 10 18  1  0  0  0  0
 10 11  1  0  0  0  0
 11 16  1  0  0  0  0
 12 11  2  0  0  0  0
 12 17  1  0  0  0  0
 13 12  1  0  0  0  0
 14 15  1  0  0  0  0
 14 13  2  0  0  0  0
 15 10  2  0  0  0  0
 18 20  1  0  0  0  0
 19 18  1  0  0  0  0
 21  5  1  0  0  0  0
 22 21  1  0  0  0  0
 23 22  1  0  0  0  0
M  END
>  <minimizedAffinity>
-4.77565765

$$$$

 OpenBabel03262523143D

 23 24  0  0  0  0  0  0  0  0999 V2000
   39.0020   22.8920   35.2050 C   0  0  0  0  0  0  0  0  0  0  0  0
   40.1370   22.2680   35.6590 C   0  0  0  0  0  0  0  0  0  0  0  0
   41.2180   23.1150   35.7740 C   0  0  0  0  0  0  0  0  0  0  0  0
   41.1770   24.4530   35.4680 C   0  0  0  0  0  0  0  0  0  0  0  0
   39.9960   25.0020   35.0180 C   0  0  0  0  0  0  0  0  0  0  0  0
   38.9250   24.1990   34.8960 N   0  0  0  0  0  0  0  0  0  0  0  0
   40.1710   21.2290   35.8980 H   0  0  0  0  0  0  0  0  0  0  0  0
   42.1810   22.7210   36.1290 H   0  0  0  0  0  0  0  0  0  0  0  0
   42.0510   25.0990   35.5690 H   0  0  0  0  0  0  0  0  0  0  0  0
   35.8970   21.0650   35.9490 C   0  0  0  0  0  0  0  0  0  0  0  0
   35.4960   20.6100   34.6860 C   0  0  0  0  0  0  0  0  0  0  0  0
   36.3110   20.9440   33.5860 C   0  0  0  0  0  0  0  0  0  0  0  0
   37.4150   21.6730   33.8190 N   0  0  0  0  0  0  0  0  0  0  0  0
   37.7820   22.1000   35.0450 C   0  0  0  0  0  0  0  0  0  0  0  0
   37.0040   21.7820   36.0990 N   0  0  0  0  0  0  0  0  0  0  0  0
   34.6010   20.0290   34.5630 H   0  0  0  0  0  0  0  0  0  0  0  0
   36.0380   20.6120   32.5910 H   0  0  0  0  0  0  0  0  0  0  0  0
   35.1280   20.7710   37.1090 N   0  0  0  0  0  0  0  0  0  0  0  0
   35.5760   20.7460   38.0500 H   0  0  0  0  0  0  0  0  0  0  0  0
   34.1050   20.5800   36.9890 H   0  0  0  0  0  0  0  0  0  0  0  0
   39.9480   26.4490   34.6850 C   0  0  0  0  0  2  0  0  0  0  0  0
   38.9290   27.0660   35.6470 C   0  0  0  0  0  2  0  0  0  0  0  0
   39.2590   28.0580   35.9600 H   0  0  0  0  0  0  0  0  0  0  0  0
  1  2  1  0  0  0  0
  2  3  2  0  0  0  0
  2  7  1  0  0  0  0
  3  8  1  0  0  0  0
  4  9  1  0  0  0  0
  4  3  1  0  0  0  0
  5  4  2  0  0  0  0
  6  5  1  0  0  0  0
  6  1  2  0  0  0  0
 10 15  1  0  0  0  0
 10 18  1  0  0  0  0
 11 10  2  0  0  0  0
 12 13  2  0  0  0  0
 12 11  1  0  0  0  0
 13 14  1  0  0  0  0
 14  1  1  0  0  0  0
 14 15  2  0  0  0  0
 16 11  1  0  0  0  0
 17 12  1  0  0  0  0
 18 19  1  0  0  0  0
 20 18  1  0  0  0  0
 21  5  1  0  0  0  0
 21 22  1  0  0  0  0
 22 23  1  0  0  0  0
M  END
>  <minimizedAffinity>
-4.59991455

$$$$

 OpenBabel03262523143D

 23 24  0  0  0  0  0  0  0  0999 V2000
   37.4740   22.0930   34.0690 C   0  0  0  0  0  0  0  0  0  0  0  0
   36.5650   21.0820   34.2590 C   0  0  0  0  0  0  0  0  0  0  0  0
   35.6020   21.0190   33.2750 C   0  0  0  0  0  0  0  0  0  0  0  0
   35.5470   21.8760   32.2040 C   0  0  0  0  0  0  0  0  0  0  0  0
   36.5000   22.8650   32.0860 C   0  0  0  0  0  0  0  0  0  0  0  0
   37.4500   22.9500   33.0320 N   0  0  0  0  0  0  0  0  0  0  0  0
   36.6060   20.4150   35.0910 H   0  0  0  0  0  0  0  0  0  0  0  0
   34.8220   20.2460   33.3280 H   0  0  0  0  0  0  0  0  0  0  0  0
   34.7720   21.8010   31.4400 H   0  0  0  0  0  0  0  0  0  0  0  0
   39.2700   22.6620   37.2280 C   0  0  0  0  0  0  0  0  0  0  0  0
   40.6130   22.5670   36.8410 C   0  0  0  0  0  0  0  0  0  0  0  0
   40.8810   22.3060   35.4820 C   0  0  0  0  0  0  0  0  0  0  0  0
   39.8370   22.1660   34.6500 N   0  0  0  0  0  0  0  0  0  0  0  0
   38.5500   22.2620   35.0450 C   0  0  0  0  0  0  0  0  0  0  0  0
   38.2910   22.5120   36.3450 N   0  0  0  0  0  0  0  0  0  0  0  0
   41.4070   22.6890   37.5530 H   0  0  0  0  0  0  0  0  0  0  0  0
   41.9070   22.2250   35.1400 H   0  0  0  0  0  0  0  0  0  0  0  0
   38.9170   22.9230   38.5810 N   0  0  0  0  0  0  0  0  0  0  0  0
   38.0050   23.3730   38.8130 H   0  0  0  0  0  0  0  0  0  0  0  0
   39.5960   22.6530   39.3300 H   0  0  0  0  0  0  0  0  0  0  0  0
   36.4430   23.7950   30.9290 C   0  0  0  0  0  2  0  0  0  0  0  0
   35.2470   24.7140   31.1900 C   0  0  0  0  0  2  0  0  0  0  0  0
   35.4730   25.7300   30.8570 H   0  0  0  0  0  0  0  0  0  0  0  0
  1  2  1  0  0  0  0
  1 14  1  0  0  0  0
  2  7  1  0  0  0  0
  3  8  1  0  0  0  0
  3  2  2  0  0  0  0
  4  3  1  0  0  0  0
  5  4  2  0  0  0  0
  5  6  1  0  0  0  0
  6  1  2  0  0  0  0
  9  4  1  0  0  0  0
 10 18  1  0  0  0  0
 11 10  1  0  0  0  0
 11 16  1  0  0  0  0
 12 11  2  0  0  0  0
 13 14  2  0  0  0  0
 13 12  1  0  0  0  0
 14 15  1  0  0  0  0
 15 10  2  0  0  0  0
 17 12  1  0  0  0  0
 18 19  1  0  0  0  0
 18 20  1  0  0  0  0
 21 22  1  0  0  0  0
 21  5  1  0  0  0  0
 23 22  1  0  0  0  0
M  END
>  <minimizedAffinity>
-4.59214544

$$$$

 OpenBabel03262523143D

 23 24  0  0  0  0  0  0  0  0999 V2000
   38.4340   24.4450   36.3110 C   0  0  0  0  0  0  0  0  0  0  0  0
   37.8070   24.6570   37.5130 C   0  0  0  0  0  0  0  0  0  0  0  0
   38.3190   23.8940   38.5400 C   0  0  0  0  0  0  0  0  0  0  0  0
   39.3550   23.0050   38.3880 C   0  0  0  0  0  0  0  0  0  0  0  0
   39.9310   22.8520   37.1450 C   0  0  0  0  0  0  0  0  0  0  0  0
   39.4510   23.5840   36.1250 N   0  0  0  0  0  0  0  0  0  0  0  0
   37.0020   25.3470   37.6330 H   0  0  0  0  0  0  0  0  0  0  0  0
   37.8910   23.9830   39.5480 H   0  0  0  0  0  0  0  0  0  0  0  0
   39.7390   22.4150   39.2210 H   0  0  0  0  0  0  0  0  0  0  0  0
   36.9850   27.0890   34.2020 C   0  0  0  0  0  0  0  0  0  0  0  0
   37.1590   26.5820   32.9090 C   0  0  0  0  0  0  0  0  0  0  0  0
   37.7790   25.3230   32.7810 C   0  0  0  0  0  0  0  0  0  0  0  0
   38.1620   24.6930   33.9040 N   0  0  0  0  0  0  0  0  0  0  0  0
   37.9840   25.2010   35.1410 C   0  0  0  0  0  0  0  0  0  0  0  0
   37.3900   26.4060   35.2660 N   0  0  0  0  0  0  0  0  0  0  0  0
   36.8310   27.1330   32.0470 H   0  0  0  0  0  0  0  0  0  0  0  0
   37.9330   24.8940   31.7980 H   0  0  0  0  0  0  0  0  0  0  0  0
   36.3690   28.3530   34.4150 N   0  0  0  0  0  0  0  0  0  0  0  0
   35.8890   28.5640   35.3160 H   0  0  0  0  0  0  0  0  0  0  0  0
   36.4110   29.0600   33.6430 H   0  0  0  0  0  0  0  0  0  0  0  0
   41.0510   21.8920   36.9780 C   0  0  0  0  0  2  0  0  0  0  0  0
   42.2690   22.7330   36.5860 C   0  0  0  0  0  2  0  0  0  0  0  0
   43.1700   22.3330   37.0550 H   0  0  0  0  0  0  0  0  0  0  0  0
  1  2  1  0  0  0  0
  2  7  1  0  0  0  0
  2  3  2  0  0  0  0
  3  8  1  0  0  0  0
  4  3  1  0  0  0  0
  4  9  1  0  0  0  0
  5  4  2  0  0  0  0
  6  1  2  0  0  0  0
  6  5  1  0  0  0  0
 10 18  1  0  0  0  0
 10 15  1  0  0  0  0
 11 10  2  0  0  0  0
 12 11  1  0  0  0  0
 12 13  2  0  0  0  0
 13 14  1  0  0  0  0
 14 15  2  0  0  0  0
 14  1  1  0  0  0  0
 16 11  1  0  0  0  0
 17 12  1  0  0  0  0
 18 19  1  0  0  0  0
 20 18  1  0  0  0  0
 21  5  1  0  0  0  0
 22 21  1  0  0  0  0
 22 23  1  0  0  0  0
M  END
>  <minimizedAffinity>
-4.58529615

$$$$

 OpenBabel03262523143D

 23 24  0  0  0  0  0  0  0  0999 V2000
   38.0050   25.6380   34.5090 C   0  0  0  0  0  0  0  0  0  0  0  0
   39.0500   24.9810   33.9080 C   0  0  0  0  0  0  0  0  0  0  0  0
   39.6970   24.1000   34.7470 C   0  0  0  0  0  0  0  0  0  0  0  0
   39.3430   23.8900   36.0570 C   0  0  0  0  0  0  0  0  0  0  0  0
   38.2800   24.5920   36.5850 C   0  0  0  0  0  0  0  0  0  0  0  0
   37.6300   25.4580   35.7890 N   0  0  0  0  0  0  0  0  0  0  0  0
   39.3270   25.1420   32.8910 H   0  0  0  0  0  0  0  0  0  0  0  0
   40.5510   23.5190   34.3700 H   0  0  0  0  0  0  0  0  0  0  0  0
   39.8760   23.1860   36.6970 H   0  0  0  0  0  0  0  0  0  0  0  0
   36.2970   27.2790   31.6950 C   0  0  0  0  0  0  0  0  0  0  0  0
   35.7730   28.4360   32.2850 C   0  0  0  0  0  0  0  0  0  0  0  0
   36.0190   28.6350   33.6580 C   0  0  0  0  0  0  0  0  0  0  0  0
   36.7380   27.7060   34.3100 N   0  0  0  0  0  0  0  0  0  0  0  0
   37.2340   26.5990   33.7210 C   0  0  0  0  0  0  0  0  0  0  0  0
   36.9990   26.4050   32.4070 N   0  0  0  0  0  0  0  0  0  0  0  0
   35.2040   29.1440   31.7110 H   0  0  0  0  0  0  0  0  0  0  0  0
   35.6310   29.5180   34.1540 H   0  0  0  0  0  0  0  0  0  0  0  0
   36.0910   27.0050   30.3150 N   0  0  0  0  0  0  0  0  0  0  0  0
   36.7620   26.4050   29.7870 H   0  0  0  0  0  0  0  0  0  0  0  0
   35.2520   27.4230   29.8470 H   0  0  0  0  0  0  0  0  0  0  0  0
   37.8940   24.3680   38.0010 C   0  0  0  0  0  2  0  0  0  0  0  0
   38.8730   23.3230   38.5420 C   0  0  0  0  0  2  0  0  0  0  0  0
   39.1340   23.5500   39.5770 H   0  0  0  0  0  0  0  0  0  0  0  0
  1  6  1  0  0  0  0
  2  1  2  0  0  0  0
  2  3  1  0  0  0  0
  3  4  2  0  0  0  0
  4  5  1  0  0  0  0
  4  9  1  0  0  0  0
  5 21  1  0  0  0  0
  6  5  2  0  0  0  0
  7  2  1  0  0  0  0
  8  3  1  0  0  0  0
 10 11  2  0  0  0  0
 10 15  1  0  0  0  0
 11 12  1  0  0  0  0
 12 17  1  0  0  0  0
 12 13  2  0  0  0  0
 14 13  1  0  0  0  0
 14  1  1  0  0  0  0
 15 14  2  0  0  0  0
 16 11  1  0  0  0  0
 18 10  1  0  0  0  0
 19 18  1  0  0  0  0
 20 18  1  0  0  0  0
 21 22  1  0  0  0  0
 22 23  1  0  0  0  0
M  END
>  <minimizedAffinity>
-4.57528734

$$$$

 OpenBabel03262523143D

 23 24  0  0  0  0  0  0  0  0999 V2000
   37.8180   25.5880   34.6250 C   0  0  0  0  0  0  0  0  0  0  0  0
   37.6260   26.6860   35.4260 C   0  0  0  0  0  0  0  0  0  0  0  0
   37.0430   27.7480   34.7680 C   0  0  0  0  0  0  0  0  0  0  0  0
   36.6850   27.7220   33.4420 C   0  0  0  0  0  0  0  0  0  0  0  0
   36.9120   26.5780   32.7080 C   0  0  0  0  0  0  0  0  0  0  0  0
   37.4800   25.5270   33.3240 N   0  0  0  0  0  0  0  0  0  0  0  0
   37.9030   26.7080   36.4550 H   0  0  0  0  0  0  0  0  0  0  0  0
   36.8430   28.6810   35.3130 H   0  0  0  0  0  0  0  0  0  0  0  0
   36.2240   28.5800   32.9490 H   0  0  0  0  0  0  0  0  0  0  0  0
   39.0430   23.1270   37.0700 C   0  0  0  0  0  0  0  0  0  0  0  0
   39.5780   22.1220   36.2540 C   0  0  0  0  0  0  0  0  0  0  0  0
   39.5080   22.3100   34.8590 C   0  0  0  0  0  0  0  0  0  0  0  0
   38.9350   23.4370   34.4040 N   0  0  0  0  0  0  0  0  0  0  0  0
   38.4260   24.3920   35.2090 C   0  0  0  0  0  0  0  0  0  0  0  0
   38.4920   24.2150   36.5440 N   0  0  0  0  0  0  0  0  0  0  0  0
   40.0240   21.2420   36.6770 H   0  0  0  0  0  0  0  0  0  0  0  0
   39.9100   21.5570   34.1920 H   0  0  0  0  0  0  0  0  0  0  0  0
   39.0740   23.0110   38.4870 N   0  0  0  0  0  0  0  0  0  0  0  0
   39.0540   23.8630   39.0890 H   0  0  0  0  0  0  0  0  0  0  0  0
   39.1170   22.0510   38.9040 H   0  0  0  0  0  0  0  0  0  0  0  0
   36.5260   26.5470   31.2740 C   0  0  0  0  0  2  0  0  0  0  0  0
   36.3630   28.0090   30.8530 C   0  0  0  0  0  2  0  0  0  0  0  0
   36.7280   28.1520   29.8340 H   0  0  0  0  0  0  0  0  0  0  0  0
  1 14  1  0  0  0  0
  1  2  1  0  0  0  0
  2  7  1  0  0  0  0
  3  8  1  0  0  0  0
  3  2  2  0  0  0  0
  4  3  1  0  0  0  0
  5  6  1  0  0  0  0
  5  4  2  0  0  0  0
  6  1  2  0  0  0  0
  9  4  1  0  0  0  0
 10 18  1  0  0  0  0
 11 16  1  0  0  0  0
 11 10  2  0  0  0  0
 12 11  1  0  0  0  0
 13 12  2  0  0  0  0
 13 14  1  0  0  0  0
 14 15  2  0  0  0  0
 15 10  1  0  0  0  0
 17 12  1  0  0  0  0
 18 20  1  0  0  0  0
 18 19  1  0  0  0  0
 21  5  1  0  0  0  0
 22 21  1  0  0  0  0
 23 22  1  0  0  0  0
M  END
>  <minimizedAffinity>
-4.49581766

$$$$

 OpenBabel03262523143D

 23 24  0  0  0  0  0  0  0  0999 V2000
   37.4160   27.0530   34.1530 C   0  0  0  0  0  0  0  0  0  0  0  0
   37.7950   27.6480   35.3300 C   0  0  0  0  0  0  0  0  0  0  0  0
   38.3260   26.7630   36.2440 C   0  0  0  0  0  0  0  0  0  0  0  0
   38.4680   25.4170   36.0110 C   0  0  0  0  0  0  0  0  0  0  0  0
   38.0620   24.8990   34.8000 C   0  0  0  0  0  0  0  0  0  0  0  0
   37.5400   25.7390   33.8900 N   0  0  0  0  0  0  0  0  0  0  0  0
   37.6860   28.6930   35.5130 H   0  0  0  0  0  0  0  0  0  0  0  0
   38.6630   27.1310   37.2230 H   0  0  0  0  0  0  0  0  0  0  0  0
   38.8920   24.7410   36.7550 H   0  0  0  0  0  0  0  0  0  0  0  0
   36.5110   28.3710   30.8400 C   0  0  0  0  0  0  0  0  0  0  0  0
   35.7320   29.4910   31.1550 C   0  0  0  0  0  0  0  0  0  0  0  0
   35.5290   29.7780   32.5200 C   0  0  0  0  0  0  0  0  0  0  0  0
   36.0930   28.9630   33.4260 N   0  0  0  0  0  0  0  0  0  0  0  0
   36.8400   27.8890   33.0990 C   0  0  0  0  0  0  0  0  0  0  0  0
   37.0360   27.6110   31.7930 N   0  0  0  0  0  0  0  0  0  0  0  0
   35.3060   30.1070   30.3850 H   0  0  0  0  0  0  0  0  0  0  0  0
   34.9320   30.6360   32.8080 H   0  0  0  0  0  0  0  0  0  0  0  0
   36.7620   28.0140   29.4860 N   0  0  0  0  0  0  0  0  0  0  0  0
   37.6110   27.4650   29.2310 H   0  0  0  0  0  0  0  0  0  0  0  0
   36.0720   28.3170   28.7580 H   0  0  0  0  0  0  0  0  0  0  0  0
   38.2130   23.4440   34.5450 C   0  0  0  0  0  2  0  0  0  0  0  0
   37.9620   22.7560   35.8890 C   0  0  0  0  0  2  0  0  0  0  0  0
   37.4170   21.8210   35.7380 H   0  0  0  0  0  0  0  0  0  0  0  0
  1  2  1  0  0  0  0
  2  7  1  0  0  0  0
  2  3  2  0  0  0  0
  3  8  1  0  0  0  0
  4  3  1  0  0  0  0
  4  9  1  0  0  0  0
  5  4  2  0  0  0  0
  6  1  2  0  0  0  0
  6  5  1  0  0  0  0
 10 11  2  0  0  0  0
 10 15  1  0  0  0  0
 11 12  1  0  0  0  0
 12 17  1  0  0  0  0
 12 13  2  0  0  0  0
 14 13  1  0  0  0  0
 14  1  1  0  0  0  0
 15 14  2  0  0  0  0
 16 11  1  0  0  0  0
 18 10  1  0  0  0  0
 19 18  1  0  0  0  0
 20 18  1  0  0  0  0
 21  5  1  0  0  0  0
 21 22  1  0  0  0  0
 23 22  1  0  0  0  0
M  END
>  <minimizedAffinity>
-4.4660573

$$$$
