
 OpenBabel03272509563D

 37 39  0  0  0  0  0  0  0  0999 V2000
   36.3900   29.5750   31.8330 C   0  0  0  0  0  0  0  0  0  0  0  0
   35.7390   30.4230   32.7740 C   0  0  0  0  0  0  0  0  0  0  0  0
   35.5290   29.9310   34.0390 C   0  0  0  0  0  0  0  0  0  0  0  0
   35.9710   28.6470   34.2920 N   0  0  0  0  0  0  0  0  0  0  0  0
   36.5750   27.8760   33.3970 C   0  0  0  0  0  0  0  0  0  0  0  0
   36.7850   28.3500   32.1550 N   0  0  0  0  0  0  0  0  0  0  0  0
   36.5460   29.9800   30.8410 H   0  0  0  0  0  0  0  0  0  0  0  0
   35.4000   31.4230   32.5590 H   0  0  0  0  0  0  0  0  0  0  0  0
   36.7190   31.7720   35.9280 F   0  0  0  0  0  0  0  0  0  0  0  0
   35.4240   31.5070   36.0160 C   0  0  0  0  0  0  0  0  0  0  0  0
   34.8870   30.6430   35.1240 C   0  0  0  0  0  0  0  0  0  0  0  0
   33.5170   30.4330   35.3050 C   0  0  0  0  0  0  0  0  0  0  0  0
   32.7870   31.0430   36.2910 C   0  0  0  0  0  0  0  0  0  0  0  0
   33.3870   31.9140   37.1730 C   0  0  0  0  0  0  0  0  0  0  0  0
   34.7220   32.1360   37.0170 C   0  0  0  0  0  0  0  0  0  0  0  0
   32.9890   29.7470   34.6260 H   0  0  0  0  0  0  0  0  0  0  0  0
   31.7280   30.8250   36.3610 H   0  0  0  0  0  0  0  0  0  0  0  0
   32.7640   32.3670   37.9310 H   0  0  0  0  0  0  0  0  0  0  0  0
   35.2140   32.8170   37.6990 H   0  0  0  0  0  0  0  0  0  0  0  0
   36.9130   26.6540   33.8930 O   0  0  0  0  0  0  0  0  0  0  0  0
   37.8930   26.5840   34.9240 C   0  0  0  0  0  0  0  0  0  0  0  0
   37.3240   26.5190   35.8810 H   0  0  0  0  0  0  0  0  0  0  0  0
   38.4930   27.5100   34.8620 H   0  0  0  0  0  0  0  0  0  0  0  0
   38.7210   25.3490   34.7570 C   0  0  0  0  0  0  0  0  0  0  0  0
   39.7370   25.6220   34.4100 H   0  0  0  0  0  0  0  0  0  0  0  0
   38.3120   24.6800   33.9440 H   0  0  0  0  0  0  0  0  0  0  0  0
   38.8280   24.5500   36.0050 C   0  0  0  0  0  0  0  0  0  0  0  0
   37.9030   24.7820   37.0060 C   0  0  0  0  0  0  0  0  0  0  0  0
   37.9200   24.1010   38.1850 C   0  0  0  0  0  0  0  0  0  0  0  0
   38.8460   23.1860   38.3910 N   0  0  0  0  0  0  0  0  0  0  0  0
   39.7690   22.9490   37.4040 C   0  0  0  0  0  0  0  0  0  0  0  0
   39.7650   23.6140   36.2330 N   0  0  0  0  0  0  0  0  0  0  0  0
   37.1340   25.5370   36.8430 H   0  0  0  0  0  0  0  0  0  0  0  0
   37.1840   24.2830   38.9830 H   0  0  0  0  0  0  0  0  0  0  0  0
   40.8910   21.9440   37.4710 C   0  0  0  0  0  2  0  0  0  0  0  0
   42.0800   22.3620   36.6690 C   0  0  0  0  0  2  0  0  0  0  0  0
   42.5060   21.4170   36.2270 H   0  0  0  0  0  0  0  0  0  0  0  0
  1  6  2  0  0  0  0
  1  2  1  0  0  0  0
  2  3  2  0  0  0  0
  3  4  1  0  0  0  0
  3 11  1  0  0  0  0
  5 20  1  0  0  0  0
  5  4  2  0  0  0  0
  6  5  1  0  0  0  0
  7  1  1  0  0  0  0
  8  2  1  0  0  0  0
  9 10  1  0  0  0  0
 10 15  1  0  0  0  0
 11 12  1  0  0  0  0
 11 10  2  0  0  0  0
 12 13  2  0  0  0  0
 13 17  1  0  0  0  0
 13 14  1  0  0  0  0
 14 18  1  0  0  0  0
 15 14  2  0  0  0  0
 15 19  1  0  0  0  0
 16 12  1  0  0  0  0
 20 21  1  0  0  0  0
 21 22  1  0  0  0  0
 23 21  1  0  0  0  0
 24 21  1  0  0  0  0
 24 27  1  0  0  0  0
 25 24  1  0  0  0  0
 26 24  1  0  0  0  0
 27 32  2  0  0  0  0
 27 28  1  0  0  0  0
 28 29  2  0  0  0  0
 29 30  1  0  0  0  0
 29 34  1  0  0  0  0
 31 35  1  0  0  0  0
 31 30  2  0  0  0  0
 32 31  1  0  0  0  0
 33 28  1  0  0  0  0
 36 35  1  0  0  0  0
 37 36  1  0  0  0  0
M  END
>  <minimizedAffinity>
-6.17446089

$$$$

 OpenBabel03272509563D

 37 39  0  0  0  0  0  0  0  0999 V2000
   37.4250   27.6320   34.8210 C   0  0  0  0  0  0  0  0  0  0  0  0
   38.1120   26.7790   35.7320 C   0  0  0  0  0  0  0  0  0  0  0  0
   38.2740   25.4630   35.3770 C   0  0  0  0  0  0  0  0  0  0  0  0
   37.7520   25.0750   34.1570 N   0  0  0  0  0  0  0  0  0  0  0  0
   37.1160   25.8900   33.3260 C   0  0  0  0  0  0  0  0  0  0  0  0
   36.9530   27.1820   33.6660 N   0  0  0  0  0  0  0  0  0  0  0  0
   37.3070   28.6670   35.1190 H   0  0  0  0  0  0  0  0  0  0  0  0
   38.5130   27.0990   36.6800 H   0  0  0  0  0  0  0  0  0  0  0  0
   37.5270   24.4410   37.9790 F   0  0  0  0  0  0  0  0  0  0  0  0
   38.6110   23.9610   37.3860 C   0  0  0  0  0  0  0  0  0  0  0  0
   38.9420   24.4530   36.1700 C   0  0  0  0  0  0  0  0  0  0  0  0
   40.1000   23.8800   35.6340 C   0  0  0  0  0  0  0  0  0  0  0  0
   40.8280   22.9150   36.2770 C   0  0  0  0  0  0  0  0  0  0  0  0
   40.4420   22.4520   37.5150 C   0  0  0  0  0  0  0  0  0  0  0  0
   39.3170   22.9940   38.0590 C   0  0  0  0  0  0  0  0  0  0  0  0
   40.4500   24.2150   34.6460 H   0  0  0  0  0  0  0  0  0  0  0  0
   41.7130   22.5240   35.7890 H   0  0  0  0  0  0  0  0  0  0  0  0
   41.0540   21.6900   37.9770 H   0  0  0  0  0  0  0  0  0  0  0  0
   38.9960   22.6450   39.0320 H   0  0  0  0  0  0  0  0  0  0  0  0
   36.6980   25.2660   32.1900 O   0  0  0  0  0  0  0  0  0  0  0  0
   37.0520   23.9010   31.9930 C   0  0  0  0  0  0  0  0  0  0  0  0
   37.2300   23.4820   33.0110 H   0  0  0  0  0  0  0  0  0  0  0  0
   37.9700   23.8920   31.3770 H   0  0  0  0  0  0  0  0  0  0  0  0
   35.9170   23.1680   31.3490 C   0  0  0  0  0  0  0  0  0  0  0  0
   35.9600   23.3020   30.2510 H   0  0  0  0  0  0  0  0  0  0  0  0
   34.9190   23.5980   31.6510 H   0  0  0  0  0  0  0  0  0  0  0  0
   35.9130   21.7160   31.6650 C   0  0  0  0  0  0  0  0  0  0  0  0
   35.5130   21.3270   32.9300 C   0  0  0  0  0  0  0  0  0  0  0  0
   35.4750   20.0210   33.3130 C   0  0  0  0  0  0  0  0  0  0  0  0
   35.8310   19.0850   32.4550 N   0  0  0  0  0  0  0  0  0  0  0  0
   36.2300   19.4610   31.1980 C   0  0  0  0  0  0  0  0  0  0  0  0
   36.2720   20.7470   30.8050 N   0  0  0  0  0  0  0  0  0  0  0  0
   35.2160   22.0960   33.6440 H   0  0  0  0  0  0  0  0  0  0  0  0
   35.1570   19.7090   34.3190 H   0  0  0  0  0  0  0  0  0  0  0  0
   36.6680   18.5270   30.0980 C   0  0  0  0  0  2  0  0  0  0  0  0
   37.3190   19.2480   28.9630 C   0  0  0  0  0  2  0  0  0  0  0  0
   37.0040   18.7050   28.0270 H   0  0  0  0  0  0  0  0  0  0  0  0
  1  7  1  0  0  0  0
  1  2  1  0  0  0  0
  2  8  1  0  0  0  0
  3  2  2  0  0  0  0
  3 11  1  0  0  0  0
  4  3  1  0  0  0  0
  5  6  1  0  0  0  0
  5  4  2  0  0  0  0
  6  1  2  0  0  0  0
 10  9  1  0  0  0  0
 10 15  1  0  0  0  0
 11 10  2  0  0  0  0
 12 11  1  0  0  0  0
 12 13  2  0  0  0  0
 13 14  1  0  0  0  0
 14 18  1  0  0  0  0
 14 15  2  0  0  0  0
 15 19  1  0  0  0  0
 16 12  1  0  0  0  0
 17 13  1  0  0  0  0
 20  5  1  0  0  0  0
 21 20  1  0  0  0  0
 21 22  1  0  0  0  0
 23 21  1  0  0  0  0
 24 26  1  0  0  0  0
 24 27  1  0  0  0  0
 24 21  1  0  0  0  0
 25 24  1  0  0  0  0
 27 28  1  0  0  0  0
 28 29  2  0  0  0  0
 28 33  1  0  0  0  0
 29 34  1  0  0  0  0
 30 29  1  0  0  0  0
 31 30  2  0  0  0  0
 32 31  1  0  0  0  0
 32 27  2  0  0  0  0
 35 31  1  0  0  0  0
 36 35  1  0  0  0  0
 37 36  1  0  0  0  0
M  END
>  <minimizedAffinity>
-5.73019695

$$$$

 OpenBabel03272509563D

 37 39  0  0  0  0  0  0  0  0999 V2000
   37.3970   27.6930   34.8490 C   0  0  0  0  0  0  0  0  0  0  0  0
   38.0790   26.8200   35.7430 C   0  0  0  0  0  0  0  0  0  0  0  0
   38.2610   25.5180   35.3500 C   0  0  0  0  0  0  0  0  0  0  0  0
   37.7630   25.1630   34.1100 N   0  0  0  0  0  0  0  0  0  0  0  0
   37.1310   25.9970   33.2950 C   0  0  0  0  0  0  0  0  0  0  0  0
   36.9480   27.2750   33.6720 N   0  0  0  0  0  0  0  0  0  0  0  0
   37.2620   28.7170   35.1770 H   0  0  0  0  0  0  0  0  0  0  0  0
   38.4600   27.1130   36.7080 H   0  0  0  0  0  0  0  0  0  0  0  0
   37.3790   24.2590   37.8020 F   0  0  0  0  0  0  0  0  0  0  0  0
   38.5340   23.8890   37.2670 C   0  0  0  0  0  0  0  0  0  0  0  0
   38.9280   24.4900   36.1210 C   0  0  0  0  0  0  0  0  0  0  0  0
   40.1570   24.0270   35.6430 C   0  0  0  0  0  0  0  0  0  0  0  0
   40.8930   23.0580   36.2730 C   0  0  0  0  0  0  0  0  0  0  0  0
   40.4410   22.4810   37.4390 C   0  0  0  0  0  0  0  0  0  0  0  0
   39.2450   22.9150   37.9260 C   0  0  0  0  0  0  0  0  0  0  0  0
   40.5620   24.4550   34.7140 H   0  0  0  0  0  0  0  0  0  0  0  0
   41.8360   22.7570   35.8340 H   0  0  0  0  0  0  0  0  0  0  0  0
   41.0620   21.7220   37.8940 H   0  0  0  0  0  0  0  0  0  0  0  0
   38.8720   22.4750   38.8420 H   0  0  0  0  0  0  0  0  0  0  0  0
   36.7390   25.4050   32.1330 O   0  0  0  0  0  0  0  0  0  0  0  0
   37.5660   24.3920   31.5720 C   0  0  0  0  0  0  0  0  0  0  0  0
   38.1080   23.9290   32.4300 H   0  0  0  0  0  0  0  0  0  0  0  0
   38.2560   24.8920   30.8680 H   0  0  0  0  0  0  0  0  0  0  0  0
   36.7190   23.3520   30.9060 C   0  0  0  0  0  0  0  0  0  0  0  0
   37.2690   22.9100   30.0520 H   0  0  0  0  0  0  0  0  0  0  0  0
   35.7910   23.8030   30.4460 H   0  0  0  0  0  0  0  0  0  0  0  0
   36.2980   22.2680   31.8310 C   0  0  0  0  0  0  0  0  0  0  0  0
   35.4620   21.2820   31.3410 C   0  0  0  0  0  0  0  0  0  0  0  0
   35.0230   20.2490   32.1110 C   0  0  0  0  0  0  0  0  0  0  0  0
   35.4020   20.1770   33.3720 N   0  0  0  0  0  0  0  0  0  0  0  0
   36.2300   21.1500   33.8680 C   0  0  0  0  0  0  0  0  0  0  0  0
   36.6730   22.1770   33.1190 N   0  0  0  0  0  0  0  0  0  0  0  0
   35.1460   21.3350   30.2990 H   0  0  0  0  0  0  0  0  0  0  0  0
   34.3590   19.4630   31.7230 H   0  0  0  0  0  0  0  0  0  0  0  0
   36.7570   21.2230   35.2800 C   0  0  0  0  0  2  0  0  0  0  0  0
   35.6900   20.9960   36.2990 C   0  0  0  0  0  2  0  0  0  0  0  0
   35.9340   21.6760   37.1640 H   0  0  0  0  0  0  0  0  0  0  0  0
  1  7  1  0  0  0  0
  1  2  1  0  0  0  0
  2  8  1  0  0  0  0
  3  2  2  0  0  0  0
  3 11  1  0  0  0  0
  4  3  1  0  0  0  0
  5  6  1  0  0  0  0
  5  4  2  0  0  0  0
  6  1  2  0  0  0  0
 10  9  1  0  0  0  0
 10 15  1  0  0  0  0
 11 10  2  0  0  0  0
 12 11  1  0  0  0  0
 12 13  2  0  0  0  0
 13 14  1  0  0  0  0
 14 18  1  0  0  0  0
 14 15  2  0  0  0  0
 15 19  1  0  0  0  0
 16 12  1  0  0  0  0
 17 13  1  0  0  0  0
 20  5  1  0  0  0  0
 21 20  1  0  0  0  0
 21 22  1  0  0  0  0
 23 21  1  0  0  0  0
 24 21  1  0  0  0  0
 24 27  1  0  0  0  0
 25 24  1  0  0  0  0
 26 24  1  0  0  0  0
 27 32  1  0  0  0  0
 28 27  2  0  0  0  0
 28 29  1  0  0  0  0
 29 30  2  0  0  0  0
 30 31  1  0  0  0  0
 31 35  1  0  0  0  0
 32 31  2  0  0  0  0
 33 28  1  0  0  0  0
 34 29  1  0  0  0  0
 35 36  1  0  0  0  0
 36 37  1  0  0  0  0
M  END
>  <minimizedAffinity>
-5.72861814

$$$$

 OpenBabel03272509563D

 37 39  0  0  0  0  0  0  0  0999 V2000
   39.9070   27.0930   33.2550 C   0  0  0  0  0  0  0  0  0  0  0  0
   40.0700   26.3210   34.4400 C   0  0  0  0  0  0  0  0  0  0  0  0
   39.0180   25.5360   34.8410 C   0  0  0  0  0  0  0  0  0  0  0  0
   37.8830   25.5610   34.0530 N   0  0  0  0  0  0  0  0  0  0  0  0
   37.7560   26.2890   32.9520 C   0  0  0  0  0  0  0  0  0  0  0  0
   38.7820   27.0620   32.5520 N   0  0  0  0  0  0  0  0  0  0  0  0
   40.7470   27.7080   32.9550 H   0  0  0  0  0  0  0  0  0  0  0  0
   40.9640   26.3140   35.0430 H   0  0  0  0  0  0  0  0  0  0  0  0
   40.6860   23.2420   35.4200 F   0  0  0  0  0  0  0  0  0  0  0  0
   39.7690   23.6110   36.3030 C   0  0  0  0  0  0  0  0  0  0  0  0
   39.0000   24.6860   36.0130 C   0  0  0  0  0  0  0  0  0  0  0  0
   38.0670   24.9900   37.0090 C   0  0  0  0  0  0  0  0  0  0  0  0
   37.9430   24.2700   38.1680 C   0  0  0  0  0  0  0  0  0  0  0  0
   38.7550   23.1840   38.4100 C   0  0  0  0  0  0  0  0  0  0  0  0
   39.6720   22.8670   37.4540 C   0  0  0  0  0  0  0  0  0  0  0  0
   37.3960   25.8490   36.8650 H   0  0  0  0  0  0  0  0  0  0  0  0
   37.1940   24.5740   38.8890 H   0  0  0  0  0  0  0  0  0  0  0  0
   38.6130   22.6510   39.3400 H   0  0  0  0  0  0  0  0  0  0  0  0
   40.3200   22.0160   37.6240 H   0  0  0  0  0  0  0  0  0  0  0  0
   36.5410   26.1400   32.3560 O   0  0  0  0  0  0  0  0  0  0  0  0
   36.4580   25.3700   31.1620 C   0  0  0  0  0  0  0  0  0  0  0  0
   37.4420   24.8550   31.0620 H   0  0  0  0  0  0  0  0  0  0  0  0
   36.2760   26.0780   30.3330 H   0  0  0  0  0  0  0  0  0  0  0  0
   35.3760   24.3430   31.2900 C   0  0  0  0  0  0  0  0  0  0  0  0
   34.6710   24.4330   30.4410 H   0  0  0  0  0  0  0  0  0  0  0  0
   34.7420   24.5190   32.2080 H   0  0  0  0  0  0  0  0  0  0  0  0
   35.9000   22.9540   31.3480 C   0  0  0  0  0  0  0  0  0  0  0  0
   37.2330   22.7480   31.0470 C   0  0  0  0  0  0  0  0  0  0  0  0
   37.8040   21.5130   31.0720 C   0  0  0  0  0  0  0  0  0  0  0  0
   37.0680   20.4670   31.3920 N   0  0  0  0  0  0  0  0  0  0  0  0
   35.7440   20.6600   31.6920 C   0  0  0  0  0  0  0  0  0  0  0  0
   35.1660   21.8760   31.6720 N   0  0  0  0  0  0  0  0  0  0  0  0
   37.8480   23.6090   30.7810 H   0  0  0  0  0  0  0  0  0  0  0  0
   38.8650   21.3470   30.8330 H   0  0  0  0  0  0  0  0  0  0  0  0
   34.7620   19.5820   32.0770 C   0  0  0  0  0  2  0  0  0  0  0  0
   35.4290   18.3990   32.7000 C   0  0  0  0  0  2  0  0  0  0  0  0
   34.8580   17.4960   32.3440 H   0  0  0  0  0  0  0  0  0  0  0  0
  1  2  1  0  0  0  0
  2  3  2  0  0  0  0
  2  8  1  0  0  0  0
  3 11  1  0  0  0  0
  4  3  1  0  0  0  0
  5  4  2  0  0  0  0
  6  5  1  0  0  0  0
  6  1  2  0  0  0  0
  7  1  1  0  0  0  0
  9 10  1  0  0  0  0
 10 15  1  0  0  0  0
 11 10  2  0  0  0  0
 11 12  1  0  0  0  0
 12 13  2  0  0  0  0
 13 14  1  0  0  0  0
 13 17  1  0  0  0  0
 14 18  1  0  0  0  0
 15 19  1  0  0  0  0
 15 14  2  0  0  0  0
 16 12  1  0  0  0  0
 20  5  1  0  0  0  0
 21 24  1  0  0  0  0
 21 20  1  0  0  0  0
 22 21  1  0  0  0  0
 23 21  1  0  0  0  0
 24 27  1  0  0  0  0
 24 26  1  0  0  0  0
 25 24  1  0  0  0  0
 27 32  1  0  0  0  0
 28 29  1  0  0  0  0
 28 27  2  0  0  0  0
 29 30  2  0  0  0  0
 30 31  1  0  0  0  0
 31 35  1  0  0  0  0
 32 31  2  0  0  0  0
 33 28  1  0  0  0  0
 34 29  1  0  0  0  0
 35 36  1  0  0  0  0
 37 36  1  0  0  0  0
M  END
>  <minimizedAffinity>
-5.71641922

$$$$

 OpenBabel03272509563D

 37 39  0  0  0  0  0  0  0  0999 V2000
   36.2460   29.6490   31.7600 C   0  0  0  0  0  0  0  0  0  0  0  0
   35.5720   30.4570   32.7190 C   0  0  0  0  0  0  0  0  0  0  0  0
   35.5040   29.9940   34.0090 C   0  0  0  0  0  0  0  0  0  0  0  0
   36.1010   28.7750   34.2690 N   0  0  0  0  0  0  0  0  0  0  0  0
   36.7230   28.0410   33.3560 C   0  0  0  0  0  0  0  0  0  0  0  0
   36.7940   28.4870   32.0890 N   0  0  0  0  0  0  0  0  0  0  0  0
   36.2880   30.0300   30.7460 H   0  0  0  0  0  0  0  0  0  0  0  0
   35.1110   31.4070   32.4990 H   0  0  0  0  0  0  0  0  0  0  0  0
   36.7040   31.7530   35.9690 F   0  0  0  0  0  0  0  0  0  0  0  0
   35.4050   31.4990   36.0420 C   0  0  0  0  0  0  0  0  0  0  0  0
   34.8640   30.6740   35.1160 C   0  0  0  0  0  0  0  0  0  0  0  0
   33.4910   30.4740   35.2830 C   0  0  0  0  0  0  0  0  0  0  0  0
   32.7620   31.0560   36.2860 C   0  0  0  0  0  0  0  0  0  0  0  0
   33.3670   31.8880   37.2010 C   0  0  0  0  0  0  0  0  0  0  0  0
   34.7050   32.1000   37.0600 C   0  0  0  0  0  0  0  0  0  0  0  0
   32.9590   29.8180   34.5770 H   0  0  0  0  0  0  0  0  0  0  0  0
   31.7000   30.8470   36.3430 H   0  0  0  0  0  0  0  0  0  0  0  0
   32.7450   32.3200   37.9720 H   0  0  0  0  0  0  0  0  0  0  0  0
   35.2010   32.7510   37.7690 H   0  0  0  0  0  0  0  0  0  0  0  0
   37.2250   26.8810   33.8630 O   0  0  0  0  0  0  0  0  0  0  0  0
   37.7350   25.9070   32.9590 C   0  0  0  0  0  0  0  0  0  0  0  0
   38.8270   26.1140   32.8700 H   0  0  0  0  0  0  0  0  0  0  0  0
   37.2070   26.0510   31.9980 H   0  0  0  0  0  0  0  0  0  0  0  0
   37.5370   24.5340   33.5240 C   0  0  0  0  0  0  0  0  0  0  0  0
   37.5060   23.7920   32.7030 H   0  0  0  0  0  0  0  0  0  0  0  0
   36.5370   24.4360   34.0370 H   0  0  0  0  0  0  0  0  0  0  0  0
   38.5960   24.1490   34.4920 C   0  0  0  0  0  0  0  0  0  0  0  0
   39.8980   24.0680   34.0350 C   0  0  0  0  0  0  0  0  0  0  0  0
   40.9350   23.7230   34.8470 C   0  0  0  0  0  0  0  0  0  0  0  0
   40.7020   23.4540   36.1160 N   0  0  0  0  0  0  0  0  0  0  0  0
   39.4130   23.5310   36.5790 C   0  0  0  0  0  0  0  0  0  0  0  0
   38.3780   23.8710   35.7890 N   0  0  0  0  0  0  0  0  0  0  0  0
   40.0990   24.2900   32.9870 H   0  0  0  0  0  0  0  0  0  0  0  0
   41.9730   23.6580   34.4850 H   0  0  0  0  0  0  0  0  0  0  0  0
   38.9690   23.2580   37.9940 C   0  0  0  0  0  2  0  0  0  0  0  0
   37.9390   24.2320   38.4670 C   0  0  0  0  0  2  0  0  0  0  0  0
   38.1570   24.4100   39.5580 H   0  0  0  0  0  0  0  0  0  0  0  0
  1  6  2  0  0  0  0
  1  2  1  0  0  0  0
  2  3  2  0  0  0  0
  3  4  1  0  0  0  0
  3 11  1  0  0  0  0
  5 20  1  0  0  0  0
  5  4  2  0  0  0  0
  6  5  1  0  0  0  0
  7  1  1  0  0  0  0
  8  2  1  0  0  0  0
  9 10  1  0  0  0  0
 10 15  1  0  0  0  0
 11 12  1  0  0  0  0
 11 10  2  0  0  0  0
 12 13  2  0  0  0  0
 13 17  1  0  0  0  0
 13 14  1  0  0  0  0
 14 18  1  0  0  0  0
 15 14  2  0  0  0  0
 15 19  1  0  0  0  0
 16 12  1  0  0  0  0
 21 24  1  0  0  0  0
 21 20  1  0  0  0  0
 22 21  1  0  0  0  0
 23 21  1  0  0  0  0
 24 26  1  0  0  0  0
 24 27  1  0  0  0  0
 25 24  1  0  0  0  0
 27 32  1  0  0  0  0
 28 27  2  0  0  0  0
 28 29  1  0  0  0  0
 29 30  2  0  0  0  0
 30 31  1  0  0  0  0
 31 35  1  0  0  0  0
 32 31  2  0  0  0  0
 33 28  1  0  0  0  0
 34 29  1  0  0  0  0
 35 36  1  0  0  0  0
 36 37  1  0  0  0  0
M  END
>  <minimizedAffinity>
-5.60411882

$$$$

 OpenBabel03272509563D

 37 39  0  0  0  0  0  0  0  0999 V2000
   37.8710   23.0950   32.2540 C   0  0  0  0  0  0  0  0  0  0  0  0
   38.1380   22.7480   33.6090 C   0  0  0  0  0  0  0  0  0  0  0  0
   38.3150   23.7710   34.5070 C   0  0  0  0  0  0  0  0  0  0  0  0
   38.2160   25.0590   34.0150 N   0  0  0  0  0  0  0  0  0  0  0  0
   37.9650   25.3560   32.7470 C   0  0  0  0  0  0  0  0  0  0  0  0
   37.7910   24.3590   31.8600 N   0  0  0  0  0  0  0  0  0  0  0  0
   37.7350   22.2740   31.5600 H   0  0  0  0  0  0  0  0  0  0  0  0
   38.2120   21.7370   33.9750 H   0  0  0  0  0  0  0  0  0  0  0  0
   40.5110   22.3610   35.7560 F   0  0  0  0  0  0  0  0  0  0  0  0
   39.6120   22.9600   36.5230 C   0  0  0  0  0  0  0  0  0  0  0  0
   38.5930   23.6140   35.9190 C   0  0  0  0  0  0  0  0  0  0  0  0
   37.7030   24.2110   36.8170 C   0  0  0  0  0  0  0  0  0  0  0  0
   37.8480   24.1400   38.1780 C   0  0  0  0  0  0  0  0  0  0  0  0
   38.9060   23.4600   38.7370 C   0  0  0  0  0  0  0  0  0  0  0  0
   39.7880   22.8700   37.8830 C   0  0  0  0  0  0  0  0  0  0  0  0
   36.8410   24.7670   36.4210 H   0  0  0  0  0  0  0  0  0  0  0  0
   37.1120   24.6320   38.8030 H   0  0  0  0  0  0  0  0  0  0  0  0
   38.9720   23.4360   39.8160 H   0  0  0  0  0  0  0  0  0  0  0  0
   40.6280   22.3300   38.3010 H   0  0  0  0  0  0  0  0  0  0  0  0
   37.9180   26.6970   32.5170 O   0  0  0  0  0  0  0  0  0  0  0  0
   37.1130   27.5060   33.3670 C   0  0  0  0  0  0  0  0  0  0  0  0
   37.7880   28.3020   33.7600 H   0  0  0  0  0  0  0  0  0  0  0  0
   36.7340   26.8510   34.1720 H   0  0  0  0  0  0  0  0  0  0  0  0
   36.0120   28.1400   32.5740 C   0  0  0  0  0  0  0  0  0  0  0  0
   35.3100   27.3620   32.2170 H   0  0  0  0  0  0  0  0  0  0  0  0
   36.4040   28.6260   31.6330 H   0  0  0  0  0  0  0  0  0  0  0  0
   35.2590   29.1630   33.3440 C   0  0  0  0  0  0  0  0  0  0  0  0
   33.9340   29.3810   33.0150 C   0  0  0  0  0  0  0  0  0  0  0  0
   33.1630   30.2960   33.6630 C   0  0  0  0  0  0  0  0  0  0  0  0
   33.6880   31.0080   34.6410 N   0  0  0  0  0  0  0  0  0  0  0  0
   35.0020   30.8000   34.9750 C   0  0  0  0  0  0  0  0  0  0  0  0
   35.7760   29.8980   34.3440 N   0  0  0  0  0  0  0  0  0  0  0  0
   33.4930   28.7960   32.2070 H   0  0  0  0  0  0  0  0  0  0  0  0
   32.1080   30.4710   33.4030 H   0  0  0  0  0  0  0  0  0  0  0  0
   35.7580   31.5220   36.0620 C   0  0  0  0  0  2  0  0  0  0  0  0
   36.0540   32.9410   35.7040 C   0  0  0  0  0  2  0  0  0  0  0  0
   37.0720   33.1650   36.1340 H   0  0  0  0  0  0  0  0  0  0  0  0
  1  2  1  0  0  0  0
  2  8  1  0  0  0  0
  2  3  2  0  0  0  0
  3 11  1  0  0  0  0
  4  3  1  0  0  0  0
  5  4  2  0  0  0  0
  6  1  2  0  0  0  0
  6  5  1  0  0  0  0
  7  1  1  0  0  0  0
  9 10  1  0  0  0  0
 10 15  1  0  0  0  0
 11 10  2  0  0  0  0
 11 12  1  0  0  0  0
 12 13  2  0  0  0  0
 13 14  1  0  0  0  0
 13 17  1  0  0  0  0
 14 18  1  0  0  0  0
 15 19  1  0  0  0  0
 15 14  2  0  0  0  0
 16 12  1  0  0  0  0
 20  5  1  0  0  0  0
 20 21  1  0  0  0  0
 21 22  1  0  0  0  0
 21 23  1  0  0  0  0
 24 27  1  0  0  0  0
 24 21  1  0  0  0  0
 25 24  1  0  0  0  0
 26 24  1  0  0  0  0
 27 32  1  0  0  0  0
 28 27  2  0  0  0  0
 28 29  1  0  0  0  0
 29 30  2  0  0  0  0
 30 31  1  0  0  0  0
 31 35  1  0  0  0  0
 32 31  2  0  0  0  0
 33 28  1  0  0  0  0
 34 29  1  0  0  0  0
 36 35  1  0  0  0  0
 36 37  1  0  0  0  0
M  END
>  <minimizedAffinity>
-5.379251

$$$$

 OpenBabel03272509563D

 37 39  0  0  0  0  0  0  0  0999 V2000
   43.7170   26.7590   33.8750 C   0  0  0  0  0  0  0  0  0  0  0  0
   42.3820   27.2040   33.6600 C   0  0  0  0  0  0  0  0  0  0  0  0
   41.3780   26.5650   34.3440 C   0  0  0  0  0  0  0  0  0  0  0  0
   41.7520   25.5390   35.1900 N   0  0  0  0  0  0  0  0  0  0  0  0
   43.0040   25.1430   35.3730 C   0  0  0  0  0  0  0  0  0  0  0  0
   43.9950   25.7630   34.7070 N   0  0  0  0  0  0  0  0  0  0  0  0
   44.4960   27.2750   33.3260 H   0  0  0  0  0  0  0  0  0  0  0  0
   42.1080   28.0070   32.9950 H   0  0  0  0  0  0  0  0  0  0  0  0
   39.7580   26.8790   31.9670 F   0  0  0  0  0  0  0  0  0  0  0  0
   39.1920   27.0280   33.1560 C   0  0  0  0  0  0  0  0  0  0  0  0
   39.9670   26.8770   34.2550 C   0  0  0  0  0  0  0  0  0  0  0  0
   39.2730   27.0550   35.4550 C   0  0  0  0  0  0  0  0  0  0  0  0
   37.9370   27.3530   35.5150 C   0  0  0  0  0  0  0  0  0  0  0  0
   37.1970   27.4940   34.3620 C   0  0  0  0  0  0  0  0  0  0  0  0
   37.8500   27.3250   33.1780 C   0  0  0  0  0  0  0  0  0  0  0  0
   39.8180   26.9520   36.4050 H   0  0  0  0  0  0  0  0  0  0  0  0
   37.4770   27.4730   36.4880 H   0  0  0  0  0  0  0  0  0  0  0  0
   36.1470   27.7290   34.4670 H   0  0  0  0  0  0  0  0  0  0  0  0
   37.2880   27.4330   32.2600 H   0  0  0  0  0  0  0  0  0  0  0  0
   43.1100   24.1120   36.2570 O   0  0  0  0  0  0  0  0  0  0  0  0
   42.6980   22.8150   35.8410 C   0  0  0  0  0  0  0  0  0  0  0  0
   43.6290   22.2060   35.7720 H   0  0  0  0  0  0  0  0  0  0  0  0
   42.2060   22.9310   34.8590 H   0  0  0  0  0  0  0  0  0  0  0  0
   41.7920   22.2130   36.8710 C   0  0  0  0  0  0  0  0  0  0  0  0
   42.1890   22.4170   37.8850 H   0  0  0  0  0  0  0  0  0  0  0  0
   41.7660   21.0870   36.7950 H   0  0  0  0  0  0  0  0  0  0  0  0
   40.3980   22.7170   36.7810 C   0  0  0  0  0  0  0  0  0  0  0  0
   39.6990   22.9120   37.9580 C   0  0  0  0  0  0  0  0  0  0  0  0
   38.4170   23.3700   37.9770 C   0  0  0  0  0  0  0  0  0  0  0  0
   37.8090   23.6410   36.8390 N   0  0  0  0  0  0  0  0  0  0  0  0
   38.4940   23.4500   35.6660 C   0  0  0  0  0  0  0  0  0  0  0  0
   39.7620   22.9980   35.6310 N   0  0  0  0  0  0  0  0  0  0  0  0
   40.1950   22.6910   38.9040 H   0  0  0  0  0  0  0  0  0  0  0  0
   37.8590   23.5260   38.9130 H   0  0  0  0  0  0  0  0  0  0  0  0
   37.9550   23.7070   34.2810 C   0  0  0  0  0  2  0  0  0  0  0  0
   38.9070   23.2830   33.2110 C   0  0  0  0  0  2  0  0  0  0  0  0
   38.8030   24.0400   32.3830 H   0  0  0  0  0  0  0  0  0  0  0  0
  1  6  1  0  0  0  0
  2  1  2  0  0  0  0
  2  3  1  0  0  0  0
  3  4  2  0  0  0  0
  4  5  1  0  0  0  0
  5 20  1  0  0  0  0
  6  5  2  0  0  0  0
  7  1  1  0  0  0  0
  8  2  1  0  0  0  0
  9 10  1  0  0  0  0
 10 15  2  0  0  0  0
 10 11  1  0  0  0  0
 11  3  1  0  0  0  0
 11 12  2  0  0  0  0
 12 13  1  0  0  0  0
 12 16  1  0  0  0  0
 13 17  1  0  0  0  0
 14 18  1  0  0  0  0
 14 13  2  0  0  0  0
 15 14  1  0  0  0  0
 19 15  1  0  0  0  0
 21 20  1  0  0  0  0
 21 24  1  0  0  0  0
 22 21  1  0  0  0  0
 23 21  1  0  0  0  0
 24 25  1  0  0  0  0
 26 24  1  0  0  0  0
 27 24  1  0  0  0  0
 27 28  1  0  0  0  0
 28 29  2  0  0  0  0
 28 33  1  0  0  0  0
 29 34  1  0  0  0  0
 30 29  1  0  0  0  0
 31 30  2  0  0  0  0
 32 31  1  0  0  0  0
 32 27  2  0  0  0  0
 35 31  1  0  0  0  0
 36 35  1  0  0  0  0
 37 36  1  0  0  0  0
M  END
>  <minimizedAffinity>
-5.33108568

$$$$

 OpenBabel03272509563D

 37 39  0  0  0  0  0  0  0  0999 V2000
   35.5120   24.4610   31.1980 C   0  0  0  0  0  0  0  0  0  0  0  0
   35.3210   25.8640   31.0440 C   0  0  0  0  0  0  0  0  0  0  0  0
   36.1790   26.7020   31.7120 C   0  0  0  0  0  0  0  0  0  0  0  0
   37.1610   26.1090   32.4820 N   0  0  0  0  0  0  0  0  0  0  0  0
   37.3170   24.7980   32.6100 C   0  0  0  0  0  0  0  0  0  0  0  0
   36.4810   23.9690   31.9580 N   0  0  0  0  0  0  0  0  0  0  0  0
   34.8250   23.8160   30.6640 H   0  0  0  0  0  0  0  0  0  0  0  0
   34.5490   26.3100   30.4380 H   0  0  0  0  0  0  0  0  0  0  0  0
   35.4620   28.5310   33.8370 F   0  0  0  0  0  0  0  0  0  0  0  0
   35.8100   29.0210   32.6560 C   0  0  0  0  0  0  0  0  0  0  0  0
   36.1410   28.1490   31.6760 C   0  0  0  0  0  0  0  0  0  0  0  0
   36.4920   28.7690   30.4730 C   0  0  0  0  0  0  0  0  0  0  0  0
   36.4990   30.1290   30.3010 C   0  0  0  0  0  0  0  0  0  0  0  0
   36.1520   30.9680   31.3360 C   0  0  0  0  0  0  0  0  0  0  0  0
   35.8070   30.3890   32.5190 C   0  0  0  0  0  0  0  0  0  0  0  0
   36.7780   28.1430   29.6150 H   0  0  0  0  0  0  0  0  0  0  0  0
   36.7850   30.5270   29.3350 H   0  0  0  0  0  0  0  0  0  0  0  0
   36.1750   32.0320   31.1450 H   0  0  0  0  0  0  0  0  0  0  0  0
   35.5300   31.0310   33.3460 H   0  0  0  0  0  0  0  0  0  0  0  0
   38.3560   24.4660   33.4240 O   0  0  0  0  0  0  0  0  0  0  0  0
   39.2230   23.4090   33.0260 C   0  0  0  0  0  0  0  0  0  0  0  0
   40.2590   23.7820   33.2000 H   0  0  0  0  0  0  0  0  0  0  0  0
   39.0270   23.2170   31.9550 H   0  0  0  0  0  0  0  0  0  0  0  0
   38.9830   22.2030   33.8800 C   0  0  0  0  0  0  0  0  0  0  0  0
   39.4050   21.3050   33.3890 H   0  0  0  0  0  0  0  0  0  0  0  0
   37.8810   21.9800   33.9850 H   0  0  0  0  0  0  0  0  0  0  0  0
   39.5610   22.3330   35.2420 C   0  0  0  0  0  0  0  0  0  0  0  0
   40.8920   22.0050   35.4180 C   0  0  0  0  0  0  0  0  0  0  0  0
   41.5110   22.0920   36.6280 C   0  0  0  0  0  0  0  0  0  0  0  0
   40.8260   22.5030   37.6770 N   0  0  0  0  0  0  0  0  0  0  0  0
   39.5040   22.8300   37.5130 C   0  0  0  0  0  0  0  0  0  0  0  0
   38.8790   22.7500   36.3230 N   0  0  0  0  0  0  0  0  0  0  0  0
   41.4660   21.6650   34.5550 H   0  0  0  0  0  0  0  0  0  0  0  0
   42.5710   21.8320   36.7700 H   0  0  0  0  0  0  0  0  0  0  0  0
   38.5760   23.3150   38.5980 C   0  0  0  0  0  2  0  0  0  0  0  0
   37.9290   24.6170   38.2570 C   0  0  0  0  0  2  0  0  0  0  0  0
   37.8530   25.1910   39.2240 H   0  0  0  0  0  0  0  0  0  0  0  0
  1  6  1  0  0  0  0
  2  1  2  0  0  0  0
  2  3  1  0  0  0  0
  3  4  2  0  0  0  0
  4  5  1  0  0  0  0
  5 20  1  0  0  0  0
  6  5  2  0  0  0  0
  7  1  1  0  0  0  0
  8  2  1  0  0  0  0
 10  9  1  0  0  0  0
 11  3  1  0  0  0  0
 11 10  2  0  0  0  0
 12 11  1  0  0  0  0
 13 12  2  0  0  0  0
 13 14  1  0  0  0  0
 14 15  2  0  0  0  0
 15 10  1  0  0  0  0
 15 19  1  0  0  0  0
 16 12  1  0  0  0  0
 17 13  1  0  0  0  0
 18 14  1  0  0  0  0
 21 22  1  0  0  0  0
 21 20  1  0  0  0  0
 21 24  1  0  0  0  0
 23 21  1  0  0  0  0
 24 26  1  0  0  0  0
 24 27  1  0  0  0  0
 25 24  1  0  0  0  0
 27 28  2  0  0  0  0
 27 32  1  0  0  0  0
 28 29  1  0  0  0  0
 29 34  1  0  0  0  0
 29 30  2  0  0  0  0
 31 30  1  0  0  0  0
 31 35  1  0  0  0  0
 32 31  2  0  0  0  0
 33 28  1  0  0  0  0
 36 35  1  0  0  0  0
 36 37  1  0  0  0  0
M  END
>  <minimizedAffinity>
-5.32343197

$$$$

 OpenBabel03272509563D

 37 39  0  0  0  0  0  0  0  0999 V2000
   36.0490   29.2630   31.9270 C   0  0  0  0  0  0  0  0  0  0  0  0
   35.4140   30.1860   32.8060 C   0  0  0  0  0  0  0  0  0  0  0  0
   35.4280   29.9020   34.1490 C   0  0  0  0  0  0  0  0  0  0  0  0
   36.0620   28.7360   34.5350 N   0  0  0  0  0  0  0  0  0  0  0  0
   36.6460   27.8920   33.6960 C   0  0  0  0  0  0  0  0  0  0  0  0
   36.6370   28.1630   32.3780 N   0  0  0  0  0  0  0  0  0  0  0  0
   36.0260   29.5030   30.8710 H   0  0  0  0  0  0  0  0  0  0  0  0
   34.9240   31.0910   32.4870 H   0  0  0  0  0  0  0  0  0  0  0  0
   36.7450   31.7630   35.9320 F   0  0  0  0  0  0  0  0  0  0  0  0
   35.4340   31.5930   36.0320 C   0  0  0  0  0  0  0  0  0  0  0  0
   34.8380   30.7180   35.1890 C   0  0  0  0  0  0  0  0  0  0  0  0
   33.4570   30.6150   35.3780 C   0  0  0  0  0  0  0  0  0  0  0  0
   32.7720   31.3300   36.3250 C   0  0  0  0  0  0  0  0  0  0  0  0
   33.4320   32.2070   37.1560 C   0  0  0  0  0  0  0  0  0  0  0  0
   34.7790   32.3260   36.9920 C   0  0  0  0  0  0  0  0  0  0  0  0
   32.8820   29.9290   34.7390 H   0  0  0  0  0  0  0  0  0  0  0  0
   31.7010   31.1900   36.4040 H   0  0  0  0  0  0  0  0  0  0  0  0
   32.8430   32.7450   37.8850 H   0  0  0  0  0  0  0  0  0  0  0  0
   35.3180   33.0100   37.6350 H   0  0  0  0  0  0  0  0  0  0  0  0
   37.1990   26.8180   34.3240 O   0  0  0  0  0  0  0  0  0  0  0  0
   38.6180   26.7170   34.3770 C   0  0  0  0  0  0  0  0  0  0  0  0
   38.8610   26.3590   35.4050 H   0  0  0  0  0  0  0  0  0  0  0  0
   39.0220   27.7280   34.1850 H   0  0  0  0  0  0  0  0  0  0  0  0
   39.0950   25.7070   33.3790 C   0  0  0  0  0  0  0  0  0  0  0  0
   40.2000   25.6450   33.4070 H   0  0  0  0  0  0  0  0  0  0  0  0
   38.8530   26.0220   32.3220 H   0  0  0  0  0  0  0  0  0  0  0  0
   38.5210   24.3550   33.6030 C   0  0  0  0  0  0  0  0  0  0  0  0
   38.8290   23.7060   34.7840 C   0  0  0  0  0  0  0  0  0  0  0  0
   38.3520   22.4660   35.0800 C   0  0  0  0  0  0  0  0  0  0  0  0
   37.5670   21.8520   34.2160 N   0  0  0  0  0  0  0  0  0  0  0  0
   37.2560   22.4870   33.0420 C   0  0  0  0  0  0  0  0  0  0  0  0
   37.7200   23.7130   32.7360 N   0  0  0  0  0  0  0  0  0  0  0  0
   39.4770   24.2080   35.5040 H   0  0  0  0  0  0  0  0  0  0  0  0
   38.5950   21.9470   36.0200 H   0  0  0  0  0  0  0  0  0  0  0  0
   36.3780   21.9340   31.9480 C   0  0  0  0  0  2  0  0  0  0  0  0
   35.6870   23.0080   31.1730 C   0  0  0  0  0  2  0  0  0  0  0  0
   34.6670   22.6030   30.9190 H   0  0  0  0  0  0  0  0  0  0  0  0
  1  6  2  0  0  0  0
  1  2  1  0  0  0  0
  2  3  2  0  0  0  0
  3  4  1  0  0  0  0
  3 11  1  0  0  0  0
  5 20  1  0  0  0  0
  5  4  2  0  0  0  0
  6  5  1  0  0  0  0
  7  1  1  0  0  0  0
  8  2  1  0  0  0  0
  9 10  1  0  0  0  0
 10 15  1  0  0  0  0
 11 12  1  0  0  0  0
 11 10  2  0  0  0  0
 12 13  2  0  0  0  0
 13 17  1  0  0  0  0
 13 14  1  0  0  0  0
 14 18  1  0  0  0  0
 15 14  2  0  0  0  0
 15 19  1  0  0  0  0
 16 12  1  0  0  0  0
 20 21  1  0  0  0  0
 21 22  1  0  0  0  0
 23 21  1  0  0  0  0
 24 25  1  0  0  0  0
 24 27  1  0  0  0  0
 24 21  1  0  0  0  0
 26 24  1  0  0  0  0
 27 28  1  0  0  0  0
 28 29  2  0  0  0  0
 28 33  1  0  0  0  0
 29 34  1  0  0  0  0
 30 29  1  0  0  0  0
 31 30  2  0  0  0  0
 32 31  1  0  0  0  0
 32 27  2  0  0  0  0
 35 31  1  0  0  0  0
 36 35  1  0  0  0  0
 37 36  1  0  0  0  0
M  END
>  <minimizedAffinity>
-5.29882479

$$$$
