
 OpenBabel03272509143D

 38 40  0  0  1  0  0  0  0  0999 V2000
   34.8590   30.0810   46.8890 C   0  0  0  0  0  0  0  0  0  0  0  0
   36.1970   30.5830   46.9700 C   0  0  0  0  0  0  0  0  0  0  0  0
   36.8850   30.7570   45.7690 C   0  0  0  0  0  0  0  0  0  0  0  0
   36.2570   30.4460   44.6030 N   0  0  0  0  0  0  0  0  0  0  0  0
   34.9930   29.9740   44.5670 C   0  0  0  0  0  0  0  0  0  0  0  0
   34.3110   29.7980   45.6960 N   0  0  0  0  0  0  0  0  0  0  0  0
   34.2340   29.9140   47.7450 H   0  0  0  0  0  0  0  0  0  0  0  0
   34.6210   29.7620   43.5640 H   0  0  0  0  0  0  0  0  0  0  0  0
   36.6760   30.8420   48.2950 N   0  0  0  0  0  0  0  0  0  0  0  0
   37.0820   31.9980   49.0810 C   0  0  0  0  0  0  0  0  0  0  0  0
   38.4210   31.4880   49.6510 C   0  0  0  0  0  0  0  0  0  0  0  0
   38.2170   30.0050   49.8470 C   0  0  0  0  0  0  0  0  0  0  0  0
   36.8720   29.7370   49.2560 C   0  0  1  0  0  0  0  0  0  0  0  0
   36.3700   32.1640   49.8990 H   0  0  0  0  0  0  0  0  0  0  0  0
   37.2420   32.8880   48.4340 H   0  0  0  0  0  0  0  0  0  0  0  0
   39.2230   31.6750   48.9220 H   0  0  0  0  0  0  0  0  0  0  0  0
   38.6260   31.9790   50.6280 H   0  0  0  0  0  0  0  0  0  0  0  0
   39.0450   29.3980   49.4960 H   0  0  0  0  0  0  0  0  0  0  0  0
   38.1880   29.8040   50.9690 H   0  0  0  0  0  0  0  0  0  0  0  0
   36.7660   28.7730   48.7690 H   0  0  0  0  0  0  0  0  0  0  0  0
   34.7850   29.0260   50.4530 C   0  0  0  0  0  0  0  0  0  0  0  0
   34.5170   28.0770   49.6430 O   0  0  0  0  0  0  0  0  0  0  0  0
   35.8970   29.8960   50.3240 N   0  0  0  0  0  0  0  0  0  0  0  0
   34.0290   29.0700   51.2600 H   0  0  0  0  0  0  0  0  0  0  0  0
   35.8830   30.6060   51.0880 H   0  0  0  0  0  0  0  0  0  0  0  0
   38.2210   31.2590   45.7350 C   0  0  0  0  0  0  0  0  0  0  0  0
   38.4880   32.5010   46.2590 C   0  0  0  0  0  0  0  0  0  0  0  0
   39.7470   33.0670   46.2800 C   0  0  0  0  0  0  0  0  0  0  0  0
   40.7800   32.3220   45.7380 C   0  0  0  0  0  0  0  0  0  0  0  0
   40.5910   31.0630   45.1890 C   0  0  0  0  0  0  0  0  0  0  0  0
   39.2830   30.5780   45.2130 C   0  0  0  0  0  0  0  0  0  0  0  0
   37.6930   33.1170   46.6860 H   0  0  0  0  0  0  0  0  0  0  0  0
   39.9390   34.0510   46.6960 H   0  0  0  0  0  0  0  0  0  0  0  0
   41.7810   32.7290   45.7350 H   0  0  0  0  0  0  0  0  0  0  0  0
   41.4110   30.4780   44.7580 H   0  0  0  0  0  0  0  0  0  0  0  0
   38.9700   29.2610   44.5950 C   0  0  0  0  0  0  0  0  0  0  0  0
   39.3830   29.2040   43.1400 C   0  0  0  0  0  0  0  0  0  0  0  0
   38.8920   28.3160   42.7010 H   0  0  0  0  0  0  0  0  0  0  0  0
  1  2  1  0  0  0  0
  1  7  1  0  0  0  0
  2  9  1  0  0  0  0
  3  2  2  0  0  0  0
  4  3  1  0  0  0  0
  5  4  2  0  0  0  0
  5  6  1  0  0  0  0
  6  1  2  0  0  0  0
  8  5  1  0  0  0  0
  9 10  1  0  0  0  0
  9 13  1  0  0  0  0
 10 11  1  0  0  0  0
 10 14  1  0  0  0  0
 11 12  1  0  0  0  0
 11 17  1  0  0  0  0
 12 19  1  0  0  0  0
 13 20  1  6  0  0  0
 13 12  1  0  0  0  0
 13 23  1  0  0  0  0
 15 10  1  0  0  0  0
 16 11  1  0  0  0  0
 18 12  1  0  0  0  0
 21 24  1  0  0  0  0
 22 21  2  0  0  0  0
 23 21  1  0  0  0  0
 23 25  1  0  0  0  0
 26  3  1  0  0  0  0
 26 27  1  0  0  0  0
 27 28  2  0  0  0  0
 27 32  1  0  0  0  0
 28 33  1  0  0  0  0
 29 28  1  0  0  0  0
 30 31  1  0  0  0  0
 30 29  2  0  0  0  0
 31 26  2  0  0  0  0
 34 29  1  0  0  0  0
 35 30  1  0  0  0  0
 36 31  1  0  0  0  0
 37 36  1  0  0  0  0
 38 37  1  0  0  0  0
M  END
>  <minimizedAffinity>
-5.43906307

>  <minimizedRMSD>
0.730052114

$$$$
