
 OpenBabel03272510263D

 39 42  0  0  1  0  0  0  0  0999 V2000
   36.1490   30.1910   46.9790 C   0  0  0  0  0  0  0  0  0  0  0  0
   37.0100   30.7380   47.9270 C   0  0  0  0  0  0  0  0  0  0  0  0
   38.0080   31.6250   47.5570 C   0  0  0  0  0  0  0  0  0  0  0  0
   38.1030   31.9340   46.2050 C   0  0  0  0  0  0  0  0  0  0  0  0
   38.9940   32.7740   45.6040 N   0  0  0  0  0  0  0  0  0  0  0  0
   38.7020   32.7580   44.2930 C   0  0  0  0  0  0  0  0  0  0  0  0
   37.6850   31.9570   44.0610 N   0  0  0  0  0  0  0  0  0  0  0  0
   37.2710   31.4160   45.2330 C   0  0  0  0  0  0  0  0  0  0  0  0
   36.2690   30.5210   45.6340 C   0  0  0  0  0  0  0  0  0  0  0  0
   35.3480   29.4950   47.1880 H   0  0  0  0  0  0  0  0  0  0  0  0
   38.6710   32.0430   48.2990 H   0  0  0  0  0  0  0  0  0  0  0  0
   39.7600   33.3260   46.0750 H   0  0  0  0  0  0  0  0  0  0  0  0
   35.6210   30.1190   44.8640 H   0  0  0  0  0  0  0  0  0  0  0  0
   37.4230   30.1050   51.6010 C   0  0  0  0  0  0  0  0  0  0  0  0
   37.7180   30.5490   50.3250 C   0  0  0  0  0  0  0  0  0  0  0  0
   36.8060   30.3230   49.3000 C   0  0  0  0  0  0  0  0  0  0  0  0
   35.6520   29.6650   49.6170 N   0  0  0  0  0  0  0  0  0  0  0  0
   35.3730   29.2360   50.8640 C   0  0  0  0  0  0  0  0  0  0  0  0
   36.2530   29.4560   51.8370 N   0  0  0  0  0  0  0  0  0  0  0  0
   38.1280   30.2780   52.3940 H   0  0  0  0  0  0  0  0  0  0  0  0
   38.6380   31.0690   50.0890 H   0  0  0  0  0  0  0  0  0  0  0  0
   34.4150   28.7270   50.9640 H   0  0  0  0  0  0  0  0  0  0  0  0
   39.4330   33.5210   43.3700 O   0  0  0  0  0  0  0  0  0  0  0  0
   39.8890   31.5950   42.2340 N   0  0  0  0  0  0  0  0  0  0  0  0
   39.4920   33.0060   42.0470 C   0  0  1  0  0  0  0  0  0  0  0  0
   38.1950   33.0380   41.3790 C   0  0  0  0  0  0  0  0  0  0  0  0
   38.3440   32.5010   40.0880 O   0  0  0  0  0  0  0  0  0  0  0  0
   38.8760   31.2460   40.0370 C   0  0  0  0  0  0  0  0  0  0  0  0
   40.0950   31.0760   40.9020 C   0  0  2  0  0  0  0  0  0  0  0  0
   40.8560   31.6760   42.6600 H   0  0  0  0  0  0  0  0  0  0  0  0
   40.2330   33.5330   41.4250 H   0  0  0  0  0  0  0  0  0  0  0  0
   37.9460   34.1250   41.1780 H   0  0  0  0  0  0  0  0  0  0  0  0
   37.3110   32.5870   41.7400 H   0  0  0  0  0  0  0  0  0  0  0  0
   38.1370   30.4330   40.2920 H   0  0  0  0  0  0  0  0  0  0  0  0
   39.2200   31.0920   38.9910 H   0  0  0  0  0  0  0  0  0  0  0  0
   41.0030   31.5200   40.4440 H   0  0  0  0  0  0  0  0  0  0  0  0
   40.3770   29.5860   41.0670 C   0  0  0  0  0  2  0  0  0  0  0  0
   41.4900   29.3150   42.0240 C   0  0  0  0  0  2  0  0  0  0  0  0
   41.7090   30.1460   42.7230 H   0  0  0  0  0  0  0  0  0  0  0  0
  1 10  1  0  0  0  0
  1  2  1  0  0  0  0
  2 16  1  0  0  0  0
  3  2  2  0  0  0  0
  3 11  1  0  0  0  0
  4  3  1  0  0  0  0
  5 12  1  0  0  0  0
  5  4  1  0  0  0  0
  6  5  1  0  0  0  0
  7  6  2  0  0  0  0
  7  8  1  0  0  0  0
  8  9  1  0  0  0  0
  8  4  2  0  0  0  0
  9  1  2  0  0  0  0
 13  9  1  0  0  0  0
 14 19  1  0  0  0  0
 14 20  1  0  0  0  0
 15 14  2  0  0  0  0
 16 17  2  0  0  0  0
 16 15  1  0  0  0  0
 17 18  1  0  0  0  0
 18 22  1  0  0  0  0
 18 19  2  0  0  0  0
 21 15  1  0  0  0  0
 23  6  1  0  0  0  0
 24 30  1  0  0  0  0
 25 31  1  6  0  0  0
 25 24  1  0  0  0  0
 25 23  1  0  0  0  0
 26 33  1  0  0  0  0
 26 25  1  0  0  0  0
 27 26  1  0  0  0  0
 28 27  1  0  0  0  0
 28 34  1  0  0  0  0
 28 29  1  0  0  0  0
 29 36  1  6  0  0  0
 29 37  1  0  0  0  0
 29 24  1  0  0  0  0
 32 26  1  0  0  0  0
 35 28  1  0  0  0  0
 37 38  1  0  0  0  0
 38 39  1  0  0  0  0
M  END
>  <minimizedAffinity>
-5.75701046

>  <minimizedRMSD>
0.572508276

$$$$
