
 OpenBabel03272508463D

 21 22  0  0  0  0  0  0  0  0999 V2000
   38.1970   24.2280   36.5330 C   0  0  0  0  0  0  0  0  0  0  0  0
   37.2210   23.7110   37.1000 O   0  0  0  0  0  0  0  0  0  0  0  0
   40.9800   22.0490   37.4130 C   0  0  0  0  0  0  0  0  0  0  0  0
   41.9540   22.3830   36.4630 C   0  0  0  0  0  0  0  0  0  0  0  0
   41.6760   23.3490   35.5150 C   0  0  0  0  0  0  0  0  0  0  0  0
   40.4530   23.9190   35.5730 N   0  0  0  0  0  0  0  0  0  0  0  0
   39.5120   23.6020   36.4870 C   0  0  0  0  0  0  0  0  0  0  0  0
   39.7830   22.6590   37.4110 N   0  0  0  0  0  0  0  0  0  0  0  0
   41.2660   21.2850   38.1230 H   0  0  0  0  0  0  0  0  0  0  0  0
   42.9420   21.9480   36.3880 H   0  0  0  0  0  0  0  0  0  0  0  0
   42.3390   23.6930   34.7350 H   0  0  0  0  0  0  0  0  0  0  0  0
   37.9960   25.5300   35.8870 C   0  0  0  0  0  0  0  0  0  0  0  0
   38.3860   26.7440   36.4190 C   0  0  0  0  0  0  0  0  0  0  0  0
   37.9740   27.6610   35.4320 C   0  0  0  0  0  0  0  0  0  0  0  0
   37.3800   26.9850   34.3970 C   0  0  0  0  0  0  0  0  0  0  0  0
   37.4090   25.7210   34.6970 O   0  0  0  0  0  0  0  0  0  0  0  0
   38.8820   26.9550   37.3510 H   0  0  0  0  0  0  0  0  0  0  0  0
   38.0900   28.7190   35.4560 H   0  0  0  0  0  0  0  0  0  0  0  0
   36.7910   27.5110   33.1380 C   0  0  0  0  0  2  0  0  0  0  0  0
   36.0010   28.7630   33.4540 C   0  0  0  0  0  2  0  0  0  0  0  0
   34.9470   28.4570   33.6370 H   0  0  0  0  0  0  0  0  0  0  0  0
  1  2  2  0  0  0  0
  3  9  1  0  0  0  0
  4  3  2  0  0  0  0
  5  6  2  0  0  0  0
  5  4  1  0  0  0  0
  6  7  1  0  0  0  0
  7  1  1  0  0  0  0
  7  8  2  0  0  0  0
  8  3  1  0  0  0  0
 10  4  1  0  0  0  0
 11  5  1  0  0  0  0
 12 13  2  0  0  0  0
 12  1  1  0  0  0  0
 13 17  1  0  0  0  0
 14 18  1  0  0  0  0
 14 13  1  0  0  0  0
 15 16  1  0  0  0  0
 15 14  2  0  0  0  0
 16 12  1  0  0  0  0
 19 20  1  0  0  0  0
 19 15  1  0  0  0  0
 20 21  1  0  0  0  0
M  END
>  <minimizedAffinity>
-4.34961414

$$$$

 OpenBabel03272508463D

 21 22  0  0  0  0  0  0  0  0999 V2000
   38.6530   23.7280   34.3460 C   0  0  0  0  0  0  0  0  0  0  0  0
   39.3840   24.4950   33.6980 O   0  0  0  0  0  0  0  0  0  0  0  0
   39.8500   22.7780   37.6530 C   0  0  0  0  0  0  0  0  0  0  0  0
   38.8990   23.3500   38.5080 C   0  0  0  0  0  0  0  0  0  0  0  0
   37.8430   24.0630   37.9720 C   0  0  0  0  0  0  0  0  0  0  0  0
   37.8020   24.1600   36.6260 N   0  0  0  0  0  0  0  0  0  0  0  0
   38.7150   23.6110   35.7980 C   0  0  0  0  0  0  0  0  0  0  0  0
   39.7450   22.9170   36.3210 N   0  0  0  0  0  0  0  0  0  0  0  0
   40.6470   22.2350   38.1420 H   0  0  0  0  0  0  0  0  0  0  0  0
   38.9000   23.2910   39.5880 H   0  0  0  0  0  0  0  0  0  0  0  0
   37.0500   24.5470   38.5220 H   0  0  0  0  0  0  0  0  0  0  0  0
   37.6920   22.9120   33.5980 C   0  0  0  0  0  0  0  0  0  0  0  0
   37.2330   23.1990   32.3270 C   0  0  0  0  0  0  0  0  0  0  0  0
   36.3500   22.1320   32.0680 C   0  0  0  0  0  0  0  0  0  0  0  0
   36.3200   21.2880   33.1500 C   0  0  0  0  0  0  0  0  0  0  0  0
   37.1280   21.7790   34.0420 O   0  0  0  0  0  0  0  0  0  0  0  0
   37.4780   24.0250   31.6810 H   0  0  0  0  0  0  0  0  0  0  0  0
   35.7810   21.9760   31.1820 H   0  0  0  0  0  0  0  0  0  0  0  0
   35.5460   20.0360   33.3510 C   0  0  0  0  0  2  0  0  0  0  0  0
   34.7830   19.7240   32.0810 C   0  0  0  0  0  2  0  0  0  0  0  0
   33.7730   20.1800   32.1770 H   0  0  0  0  0  0  0  0  0  0  0  0
  1  7  1  0  0  0  0
  2  1  2  0  0  0  0
  3  9  1  0  0  0  0
  3  4  1  0  0  0  0
  4 10  1  0  0  0  0
  5  4  2  0  0  0  0
  5 11  1  0  0  0  0
  6  5  1  0  0  0  0
  7  8  1  0  0  0  0
  7  6  2  0  0  0  0
  8  3  2  0  0  0  0
 12 16  1  0  0  0  0
 12  1  1  0  0  0  0
 13 12  2  0  0  0  0
 14 13  1  0  0  0  0
 14 15  2  0  0  0  0
 15 19  1  0  0  0  0
 15 16  1  0  0  0  0
 17 13  1  0  0  0  0
 18 14  1  0  0  0  0
 20 21  1  0  0  0  0
 20 19  1  0  0  0  0
M  END
>  <minimizedAffinity>
-4.28848886

$$$$

 OpenBabel03272508463D

 21 22  0  0  0  0  0  0  0  0999 V2000
   38.4550   25.3860   33.1320 C   0  0  0  0  0  0  0  0  0  0  0  0
   39.5940   25.3770   32.6350 O   0  0  0  0  0  0  0  0  0  0  0  0
   35.5840   26.4010   31.1330 C   0  0  0  0  0  0  0  0  0  0  0  0
   34.9650   25.1810   30.8280 C   0  0  0  0  0  0  0  0  0  0  0  0
   35.5160   24.0030   31.2980 C   0  0  0  0  0  0  0  0  0  0  0  0
   36.6410   24.1150   32.0370 N   0  0  0  0  0  0  0  0  0  0  0  0
   37.2400   25.2870   32.3330 C   0  0  0  0  0  0  0  0  0  0  0  0
   36.7040   26.4350   31.8740 N   0  0  0  0  0  0  0  0  0  0  0  0
   35.0990   27.2800   30.7320 H   0  0  0  0  0  0  0  0  0  0  0  0
   34.0650   25.0550   30.2420 H   0  0  0  0  0  0  0  0  0  0  0  0
   35.1350   23.0060   31.1340 H   0  0  0  0  0  0  0  0  0  0  0  0
   38.3510   25.5040   34.5900 C   0  0  0  0  0  0  0  0  0  0  0  0
   38.5180   26.6770   35.3010 C   0  0  0  0  0  0  0  0  0  0  0  0
   38.3210   26.2620   36.6330 C   0  0  0  0  0  0  0  0  0  0  0  0
   38.0560   24.9160   36.6600 C   0  0  0  0  0  0  0  0  0  0  0  0
   38.0810   24.4950   35.4310 O   0  0  0  0  0  0  0  0  0  0  0  0
   38.7430   27.6680   34.9440 H   0  0  0  0  0  0  0  0  0  0  0  0
   38.3640   26.8730   37.5040 H   0  0  0  0  0  0  0  0  0  0  0  0
   37.7820   24.0300   37.8210 C   0  0  0  0  0  2  0  0  0  0  0  0
   39.0520   23.2880   38.1800 C   0  0  0  0  0  2  0  0  0  0  0  0
   39.0400   22.3190   37.6350 H   0  0  0  0  0  0  0  0  0  0  0  0
  1 12  1  0  0  0  0
  2  1  2  0  0  0  0
  3  8  1  0  0  0  0
  4  3  2  0  0  0  0
  4  5  1  0  0  0  0
  5  6  2  0  0  0  0
  6  7  1  0  0  0  0
  7  1  1  0  0  0  0
  8  7  2  0  0  0  0
  9  3  1  0  0  0  0
 10  4  1  0  0  0  0
 11  5  1  0  0  0  0
 12 13  2  0  0  0  0
 12 16  1  0  0  0  0
 13 14  1  0  0  0  0
 14 15  2  0  0  0  0
 14 18  1  0  0  0  0
 15 19  1  0  0  0  0
 16 15  1  0  0  0  0
 17 13  1  0  0  0  0
 19 20  1  0  0  0  0
 21 20  1  0  0  0  0
M  END
>  <minimizedAffinity>
-4.25355053

$$$$

 OpenBabel03272508463D

 21 22  0  0  0  0  0  0  0  0999 V2000
   38.1450   26.4800   35.3890 C   0  0  0  0  0  0  0  0  0  0  0  0
   38.3440   27.5610   35.9680 O   0  0  0  0  0  0  0  0  0  0  0  0
   40.0930   23.4550   35.9560 C   0  0  0  0  0  0  0  0  0  0  0  0
   39.3600   22.7890   36.9460 C   0  0  0  0  0  0  0  0  0  0  0  0
   38.1980   23.3590   37.4310 C   0  0  0  0  0  0  0  0  0  0  0  0
   37.8420   24.5500   36.9020 N   0  0  0  0  0  0  0  0  0  0  0  0
   38.5450   25.1950   35.9470 C   0  0  0  0  0  0  0  0  0  0  0  0
   39.6780   24.6390   35.4750 N   0  0  0  0  0  0  0  0  0  0  0  0
   40.9910   22.9510   35.6240 H   0  0  0  0  0  0  0  0  0  0  0  0
   39.6140   21.8370   37.3910 H   0  0  0  0  0  0  0  0  0  0  0  0
   37.5480   22.9470   38.1880 H   0  0  0  0  0  0  0  0  0  0  0  0
   37.4760   26.5220   34.0840 C   0  0  0  0  0  0  0  0  0  0  0  0
   37.0590   27.6750   33.4470 C   0  0  0  0  0  0  0  0  0  0  0  0
   36.4900   27.1820   32.2560 C   0  0  0  0  0  0  0  0  0  0  0  0
   36.5880   25.8140   32.2330 C   0  0  0  0  0  0  0  0  0  0  0  0
   37.1770   25.4520   33.3330 O   0  0  0  0  0  0  0  0  0  0  0  0
   37.1410   28.7000   33.7660 H   0  0  0  0  0  0  0  0  0  0  0  0
   36.0480   27.7560   31.4760 H   0  0  0  0  0  0  0  0  0  0  0  0
   36.1350   24.8510   31.1950 C   0  0  0  0  0  2  0  0  0  0  0  0
   34.7360   25.2290   30.7550 C   0  0  0  0  0  2  0  0  0  0  0  0
   34.0210   24.6520   31.3820 H   0  0  0  0  0  0  0  0  0  0  0  0
  1  7  1  0  0  0  0
  1  2  2  0  0  0  0
  3  4  1  0  0  0  0
  4 10  1  0  0  0  0
  4  5  2  0  0  0  0
  5 11  1  0  0  0  0
  6  5  1  0  0  0  0
  7  6  2  0  0  0  0
  8  7  1  0  0  0  0
  8  3  2  0  0  0  0
  9  3  1  0  0  0  0
 12  1  1  0  0  0  0
 13 17  1  0  0  0  0
 13 12  2  0  0  0  0
 14 13  1  0  0  0  0
 15 14  2  0  0  0  0
 15 16  1  0  0  0  0
 16 12  1  0  0  0  0
 18 14  1  0  0  0  0
 19 15  1  0  0  0  0
 20 19  1  0  0  0  0
 20 21  1  0  0  0  0
M  END
>  <minimizedAffinity>
-4.25030231

$$$$

 OpenBabel03272508463D

 21 22  0  0  0  0  0  0  0  0999 V2000
   38.2410   26.4340   35.3940 C   0  0  0  0  0  0  0  0  0  0  0  0
   38.4340   27.5070   35.9890 O   0  0  0  0  0  0  0  0  0  0  0  0
   38.2970   23.3830   37.3820 C   0  0  0  0  0  0  0  0  0  0  0  0
   39.4560   22.7360   36.9340 C   0  0  0  0  0  0  0  0  0  0  0  0
   40.2300   23.3280   35.9540 C   0  0  0  0  0  0  0  0  0  0  0  0
   39.8020   24.5210   35.4850 N   0  0  0  0  0  0  0  0  0  0  0  0
   38.6860   25.1470   35.9140 C   0  0  0  0  0  0  0  0  0  0  0  0
   37.9320   24.5690   36.8690 N   0  0  0  0  0  0  0  0  0  0  0  0
   37.7420   22.8610   38.1500 H   0  0  0  0  0  0  0  0  0  0  0  0
   39.8280   21.7830   37.2870 H   0  0  0  0  0  0  0  0  0  0  0  0
   41.1400   22.9330   35.5280 H   0  0  0  0  0  0  0  0  0  0  0  0
   37.5310   26.4870   34.1120 C   0  0  0  0  0  0  0  0  0  0  0  0
   37.0490   27.6410   33.5240 C   0  0  0  0  0  0  0  0  0  0  0  0
   36.4640   27.1610   32.3350 C   0  0  0  0  0  0  0  0  0  0  0  0
   36.6160   25.7990   32.2660 C   0  0  0  0  0  0  0  0  0  0  0  0
   37.2530   25.4290   33.3370 O   0  0  0  0  0  0  0  0  0  0  0  0
   37.0980   28.6590   33.8720 H   0  0  0  0  0  0  0  0  0  0  0  0
   35.9750   27.7390   31.5870 H   0  0  0  0  0  0  0  0  0  0  0  0
   36.1710   24.8500   31.2130 C   0  0  0  0  0  2  0  0  0  0  0  0
   34.7730   25.2280   30.7740 C   0  0  0  0  0  2  0  0  0  0  0  0
   34.0570   24.6390   31.3890 H   0  0  0  0  0  0  0  0  0  0  0  0
  1  7  1  0  0  0  0
  1  2  2  0  0  0  0
  3  9  1  0  0  0  0
  4 10  1  0  0  0  0
  4  3  1  0  0  0  0
  5  4  2  0  0  0  0
  6  7  2  0  0  0  0
  6  5  1  0  0  0  0
  7  8  1  0  0  0  0
  8  3  2  0  0  0  0
 11  5  1  0  0  0  0
 12  1  1  0  0  0  0
 13 17  1  0  0  0  0
 13 12  2  0  0  0  0
 14 13  1  0  0  0  0
 15 14  2  0  0  0  0
 15 16  1  0  0  0  0
 16 12  1  0  0  0  0
 18 14  1  0  0  0  0
 19 15  1  0  0  0  0
 20 19  1  0  0  0  0
 20 21  1  0  0  0  0
M  END
>  <minimizedAffinity>
-4.23947668

$$$$

 OpenBabel03272508463D

 21 22  0  0  0  0  0  0  0  0999 V2000
   38.7400   22.6820   35.8780 C   0  0  0  0  0  0  0  0  0  0  0  0
   39.6220   22.1190   36.5460 O   0  0  0  0  0  0  0  0  0  0  0  0
   35.6440   20.8100   35.4570 C   0  0  0  0  0  0  0  0  0  0  0  0
   35.5910   20.5950   34.0730 C   0  0  0  0  0  0  0  0  0  0  0  0
   36.6050   21.0830   33.2700 C   0  0  0  0  0  0  0  0  0  0  0  0
   37.6010   21.7500   33.8930 N   0  0  0  0  0  0  0  0  0  0  0  0
   37.6560   21.9590   35.2250 C   0  0  0  0  0  0  0  0  0  0  0  0
   36.6670   21.4840   36.0080 N   0  0  0  0  0  0  0  0  0  0  0  0
   34.8170   20.4010   36.0220 H   0  0  0  0  0  0  0  0  0  0  0  0
   34.8110   20.0660   33.5420 H   0  0  0  0  0  0  0  0  0  0  0  0
   36.6790   20.9830   32.1980 H   0  0  0  0  0  0  0  0  0  0  0  0
   38.8100   24.1420   35.7530 C   0  0  0  0  0  0  0  0  0  0  0  0
   37.9960   25.0330   36.4260 C   0  0  0  0  0  0  0  0  0  0  0  0
   38.4580   26.2820   35.9670 C   0  0  0  0  0  0  0  0  0  0  0  0
   39.4850   26.0930   35.0770 C   0  0  0  0  0  0  0  0  0  0  0  0
   39.6700   24.8110   34.9700 O   0  0  0  0  0  0  0  0  0  0  0  0
   37.2040   24.8390   37.1290 H   0  0  0  0  0  0  0  0  0  0  0  0
   38.0900   27.2410   36.2480 H   0  0  0  0  0  0  0  0  0  0  0  0
   40.2870   27.0970   34.3310 C   0  0  0  0  0  2  0  0  0  0  0  0
   39.8700   27.0720   32.8760 C   0  0  0  0  0  2  0  0  0  0  0  0
   40.5470   26.3670   32.3450 H   0  0  0  0  0  0  0  0  0  0  0  0
  1  2  2  0  0  0  0
  3  8  1  0  0  0  0
  3  9  1  0  0  0  0
  4  3  2  0  0  0  0
  5  6  2  0  0  0  0
  5  4  1  0  0  0  0
  6  7  1  0  0  0  0
  7  1  1  0  0  0  0
  7  8  2  0  0  0  0
 10  4  1  0  0  0  0
 11  5  1  0  0  0  0
 12  1  1  0  0  0  0
 12 13  2  0  0  0  0
 13 17  1  0  0  0  0
 14 18  1  0  0  0  0
 14 13  1  0  0  0  0
 15 14  2  0  0  0  0
 16 15  1  0  0  0  0
 16 12  1  0  0  0  0
 19 15  1  0  0  0  0
 20 19  1  0  0  0  0
 21 20  1  0  0  0  0
M  END
>  <minimizedAffinity>
-4.20757914

$$$$

 OpenBabel03272508463D

 21 22  0  0  0  0  0  0  0  0999 V2000
   38.3840   25.5690   35.2360 C   0  0  0  0  0  0  0  0  0  0  0  0
   38.6460   26.7580   35.4800 O   0  0  0  0  0  0  0  0  0  0  0  0
   36.5130   25.7080   32.1140 C   0  0  0  0  0  0  0  0  0  0  0  0
   36.5830   24.3890   31.6460 C   0  0  0  0  0  0  0  0  0  0  0  0
   37.2650   23.4400   32.3850 C   0  0  0  0  0  0  0  0  0  0  0  0
   37.8310   23.8630   33.5360 N   0  0  0  0  0  0  0  0  0  0  0  0
   37.7660   25.1320   33.9910 C   0  0  0  0  0  0  0  0  0  0  0  0
   37.1010   26.0570   33.2700 N   0  0  0  0  0  0  0  0  0  0  0  0
   35.9630   26.3950   31.4850 H   0  0  0  0  0  0  0  0  0  0  0  0
   36.1420   24.0160   30.7310 H   0  0  0  0  0  0  0  0  0  0  0  0
   37.3890   22.3980   32.1330 H   0  0  0  0  0  0  0  0  0  0  0  0
   38.7180   24.5760   36.2620 C   0  0  0  0  0  0  0  0  0  0  0  0
   38.0010   24.3690   37.4240 C   0  0  0  0  0  0  0  0  0  0  0  0
   38.7190   23.3310   38.0510 C   0  0  0  0  0  0  0  0  0  0  0  0
   39.7900   22.9780   37.2700 C   0  0  0  0  0  0  0  0  0  0  0  0
   39.7620   23.7350   36.2140 O   0  0  0  0  0  0  0  0  0  0  0  0
   37.1130   24.8650   37.7780 H   0  0  0  0  0  0  0  0  0  0  0  0
   38.4920   22.8720   38.9840 H   0  0  0  0  0  0  0  0  0  0  0  0
   40.8310   21.9430   37.5040 C   0  0  0  0  0  2  0  0  0  0  0  0
   42.0690   22.3080   36.7130 C   0  0  0  0  0  2  0  0  0  0  0  0
   42.0020   21.7950   35.7290 H   0  0  0  0  0  0  0  0  0  0  0  0
  1  2  2  0  0  0  0
  1 12  1  0  0  0  0
  3  8  1  0  0  0  0
  4  3  2  0  0  0  0
  4  5  1  0  0  0  0
  5  6  2  0  0  0  0
  6  7  1  0  0  0  0
  7  1  1  0  0  0  0
  8  7  2  0  0  0  0
  9  3  1  0  0  0  0
 10  4  1  0  0  0  0
 11  5  1  0  0  0  0
 12 13  2  0  0  0  0
 13 17  1  0  0  0  0
 13 14  1  0  0  0  0
 14 18  1  0  0  0  0
 15 19  1  0  0  0  0
 15 14  2  0  0  0  0
 16 12  1  0  0  0  0
 16 15  1  0  0  0  0
 20 19  1  0  0  0  0
 21 20  1  0  0  0  0
M  END
>  <minimizedAffinity>
-4.16801739

$$$$

 OpenBabel03272508463D

 21 22  0  0  0  0  0  0  0  0999 V2000
   38.3450   22.2280   34.2140 C   0  0  0  0  0  0  0  0  0  0  0  0
   39.4740   21.7300   34.0690 O   0  0  0  0  0  0  0  0  0  0  0  0
   35.9490   22.1580   31.4720 C   0  0  0  0  0  0  0  0  0  0  0  0
   35.0600   21.1450   31.8550 C   0  0  0  0  0  0  0  0  0  0  0  0
   35.2660   20.4750   33.0470 C   0  0  0  0  0  0  0  0  0  0  0  0
   36.3370   20.8560   33.7760 N   0  0  0  0  0  0  0  0  0  0  0  0
   37.1940   21.8320   33.4120 C   0  0  0  0  0  0  0  0  0  0  0  0
   36.9940   22.4840   32.2500 N   0  0  0  0  0  0  0  0  0  0  0  0
   35.7260   22.6380   30.5280 H   0  0  0  0  0  0  0  0  0  0  0  0
   34.1950   20.8150   31.2960 H   0  0  0  0  0  0  0  0  0  0  0  0
   34.6560   19.6810   33.4500 H   0  0  0  0  0  0  0  0  0  0  0  0
   38.1850   23.2600   35.2430 C   0  0  0  0  0  0  0  0  0  0  0  0
   37.8120   23.0200   36.5510 C   0  0  0  0  0  0  0  0  0  0  0  0
   37.8040   24.3120   37.1130 C   0  0  0  0  0  0  0  0  0  0  0  0
   38.1570   25.2310   36.1570 C   0  0  0  0  0  0  0  0  0  0  0  0
   38.3760   24.5740   35.0570 O   0  0  0  0  0  0  0  0  0  0  0  0
   37.5830   22.0870   37.0370 H   0  0  0  0  0  0  0  0  0  0  0  0
   37.5660   24.5680   38.1190 H   0  0  0  0  0  0  0  0  0  0  0  0
   38.2880   26.7070   36.2670 C   0  0  0  0  0  2  0  0  0  0  0  0
   39.2900   27.1860   35.2390 C   0  0  0  0  0  2  0  0  0  0  0  0
   40.2870   27.2160   35.7310 H   0  0  0  0  0  0  0  0  0  0  0  0
  1 12  1  0  0  0  0
  2  1  2  0  0  0  0
  3  4  2  0  0  0  0
  3  8  1  0  0  0  0
  4  5  1  0  0  0  0
  5 11  1  0  0  0  0
  5  6  2  0  0  0  0
  7  6  1  0  0  0  0
  7  1  1  0  0  0  0
  8  7  2  0  0  0  0
  9  3  1  0  0  0  0
 10  4  1  0  0  0  0
 12 13  2  0  0  0  0
 13 17  1  0  0  0  0
 13 14  1  0  0  0  0
 14 18  1  0  0  0  0
 15 19  1  0  0  0  0
 15 14  2  0  0  0  0
 16 12  1  0  0  0  0
 16 15  1  0  0  0  0
 20 21  1  0  0  0  0
 20 19  1  0  0  0  0
M  END
>  <minimizedAffinity>
-4.155756

$$$$

 OpenBabel03272508463D

 21 22  0  0  0  0  0  0  0  0999 V2000
   38.1580   23.8950   34.5970 C   0  0  0  0  0  0  0  0  0  0  0  0
   37.9290   22.9430   33.8330 O   0  0  0  0  0  0  0  0  0  0  0  0
   39.7790   22.8120   37.6750 C   0  0  0  0  0  0  0  0  0  0  0  0
   38.9630   23.3640   38.6710 C   0  0  0  0  0  0  0  0  0  0  0  0
   37.8560   24.1090   38.3090 C   0  0  0  0  0  0  0  0  0  0  0  0
   37.6330   24.2550   36.9850 N   0  0  0  0  0  0  0  0  0  0  0  0
   38.4160   23.7250   36.0220 C   0  0  0  0  0  0  0  0  0  0  0  0
   39.4950   23.0000   36.3750 N   0  0  0  0  0  0  0  0  0  0  0  0
   40.6260   22.2420   38.0310 H   0  0  0  0  0  0  0  0  0  0  0  0
   39.1110   23.2670   39.7380 H   0  0  0  0  0  0  0  0  0  0  0  0
   37.1540   24.5830   38.9790 H   0  0  0  0  0  0  0  0  0  0  0  0
   38.1650   25.2430   34.0200 C   0  0  0  0  0  0  0  0  0  0  0  0
   39.2930   25.9070   33.5770 C   0  0  0  0  0  0  0  0  0  0  0  0
   38.7720   27.1350   33.1250 C   0  0  0  0  0  0  0  0  0  0  0  0
   37.4120   27.1530   33.3100 C   0  0  0  0  0  0  0  0  0  0  0  0
   37.0830   26.0140   33.8430 O   0  0  0  0  0  0  0  0  0  0  0  0
   40.3200   25.5820   33.5700 H   0  0  0  0  0  0  0  0  0  0  0  0
   39.3200   27.9430   32.7010 H   0  0  0  0  0  0  0  0  0  0  0  0
   36.4290   28.2200   32.9920 C   0  0  0  0  0  2  0  0  0  0  0  0
   35.9850   28.8750   34.2820 C   0  0  0  0  0  2  0  0  0  0  0  0
   35.0680   28.3480   34.6280 H   0  0  0  0  0  0  0  0  0  0  0  0
  1  7  1  0  0  0  0
  2  1  2  0  0  0  0
  3  9  1  0  0  0  0
  3  4  1  0  0  0  0
  4 10  1  0  0  0  0
  5  4  2  0  0  0  0
  5 11  1  0  0  0  0
  6  5  1  0  0  0  0
  7  8  1  0  0  0  0
  7  6  2  0  0  0  0
  8  3  2  0  0  0  0
 12  1  1  0  0  0  0
 13 12  2  0  0  0  0
 14 15  2  0  0  0  0
 14 13  1  0  0  0  0
 15 16  1  0  0  0  0
 16 12  1  0  0  0  0
 17 13  1  0  0  0  0
 18 14  1  0  0  0  0
 19 15  1  0  0  0  0
 19 20  1  0  0  0  0
 20 21  1  0  0  0  0
M  END
>  <minimizedAffinity>
-4.1483922

$$$$
