
 OpenBabel03262521033D

 12 12  0  0  0  0  0  0  0  0999 V2000
   39.5310   24.1130   35.8130 C   0  0  0  0  0  0  0  0  0  0  0  0
   38.4270   24.7440   36.4040 C   0  0  0  0  0  0  0  0  0  0  0  0
   38.0500   24.3170   37.6920 C   0  0  0  0  0  0  0  0  0  0  0  0
   38.7730   23.3290   38.2800 N   0  0  0  0  0  0  0  0  0  0  0  0
   39.8320   22.7480   37.6720 C   0  0  0  0  0  0  0  0  0  0  0  0
   40.2140   23.1400   36.4320 N   0  0  0  0  0  0  0  0  0  0  0  0
   39.8490   24.4130   34.8280 H   0  0  0  0  0  0  0  0  0  0  0  0
   37.2000   24.7960   38.1600 H   0  0  0  0  0  0  0  0  0  0  0  0
   40.3990   21.9600   38.1550 H   0  0  0  0  0  0  0  0  0  0  0  0
   37.7370   25.7960   35.6600 C   0  0  0  0  0  2  0  0  0  0  0  0
   38.4680   27.1050   35.9300 C   0  0  0  0  0  2  0  0  0  0  0  0
   38.4300   27.3400   36.9910 H   0  0  0  0  0  0  0  0  0  0  0  0
  1  2  2  0  0  0  0
  1  6  1  0  0  0  0
  2  3  1  0  0  0  0
  3  8  1  0  0  0  0
  3  4  2  0  0  0  0
  5  9  1  0  0  0  0
  5  4  1  0  0  0  0
  6  5  2  0  0  0  0
  7  1  1  0  0  0  0
 10 11  1  0  0  0  0
 10  2  1  0  0  0  0
 11 12  1  0  0  0  0
M  END
>  <minimizedAffinity>
-3.0515275

$$$$

 OpenBabel03262521033D

 12 12  0  0  0  0  0  0  0  0999 V2000
   38.0710   24.3300   37.5750 C   0  0  0  0  0  0  0  0  0  0  0  0
   38.4780   24.7500   36.3000 C   0  0  0  0  0  0  0  0  0  0  0  0
   39.6020   24.1140   35.7370 C   0  0  0  0  0  0  0  0  0  0  0  0
   40.2180   23.1410   36.4570 N   0  0  0  0  0  0  0  0  0  0  0  0
   39.7910   22.7680   37.6840 C   0  0  0  0  0  0  0  0  0  0  0  0
   38.7120   23.3650   38.2480 N   0  0  0  0  0  0  0  0  0  0  0  0
   37.2150   24.7930   38.0380 H   0  0  0  0  0  0  0  0  0  0  0  0
   39.9260   24.4280   34.7540 H   0  0  0  0  0  0  0  0  0  0  0  0
   40.2940   21.9890   38.2460 H   0  0  0  0  0  0  0  0  0  0  0  0
   37.7230   25.8090   35.6350 C   0  0  0  0  0  2  0  0  0  0  0  0
   38.4360   27.1270   35.9140 C   0  0  0  0  0  2  0  0  0  0  0  0
   38.4500   27.3220   36.9830 H   0  0  0  0  0  0  0  0  0  0  0  0
  1  7  1  0  0  0  0
  1  6  1  0  0  0  0
  2  1  2  0  0  0  0
  3  2  1  0  0  0  0
  3  4  2  0  0  0  0
  4  5  1  0  0  0  0
  5  9  1  0  0  0  0
  5  6  2  0  0  0  0
  8  3  1  0  0  0  0
 10 11  1  0  0  0  0
 10  2  1  0  0  0  0
 11 12  1  0  0  0  0
M  END
>  <minimizedAffinity>
-3.01357651

$$$$

 OpenBabel03262521033D

 12 12  0  0  0  0  0  0  0  0999 V2000
   39.5860   23.3400   36.0200 C   0  0  0  0  0  0  0  0  0  0  0  0
   39.8230   22.8370   37.3080 C   0  0  0  0  0  0  0  0  0  0  0  0
   38.9540   23.2550   38.3350 C   0  0  0  0  0  0  0  0  0  0  0  0
   37.9480   24.1110   38.0190 N   0  0  0  0  0  0  0  0  0  0  0  0
   37.7580   24.5700   36.7620 C   0  0  0  0  0  0  0  0  0  0  0  0
   38.5800   24.1850   35.7560 N   0  0  0  0  0  0  0  0  0  0  0  0
   40.2300   23.0440   35.2080 H   0  0  0  0  0  0  0  0  0  0  0  0
   39.1250   22.8740   39.3330 H   0  0  0  0  0  0  0  0  0  0  0  0
   36.9490   25.2540   36.5260 H   0  0  0  0  0  0  0  0  0  0  0  0
   40.9430   21.9210   37.5090 C   0  0  0  0  0  2  0  0  0  0  0  0
   42.1140   22.4350   36.6810 C   0  0  0  0  0  2  0  0  0  0  0  0
   41.8480   22.4420   35.6270 H   0  0  0  0  0  0  0  0  0  0  0  0
  1  2  1  0  0  0  0
  2 10  1  0  0  0  0
  2  3  2  0  0  0  0
  3  8  1  0  0  0  0
  4  3  1  0  0  0  0
  5  4  2  0  0  0  0
  6  1  2  0  0  0  0
  6  5  1  0  0  0  0
  7  1  1  0  0  0  0
  9  5  1  0  0  0  0
 11 10  1  0  0  0  0
 12 11  1  0  0  0  0
M  END
>  <minimizedAffinity>
-2.95554519

$$$$

 OpenBabel03262521033D

 12 12  0  0  0  0  0  0  0  0999 V2000
   39.5410   24.5450   35.5380 C   0  0  0  0  0  0  0  0  0  0  0  0
   38.4600   25.0570   36.2680 C   0  0  0  0  0  0  0  0  0  0  0  0
   38.2650   26.4520   36.2430 C   0  0  0  0  0  0  0  0  0  0  0  0
   39.1280   27.2100   35.5180 N   0  0  0  0  0  0  0  0  0  0  0  0
   40.1580   26.6710   34.8280 C   0  0  0  0  0  0  0  0  0  0  0  0
   40.3680   25.3330   34.8360 N   0  0  0  0  0  0  0  0  0  0  0  0
   39.7220   23.4820   35.5330 H   0  0  0  0  0  0  0  0  0  0  0  0
   37.4340   26.8610   36.8030 H   0  0  0  0  0  0  0  0  0  0  0  0
   40.8390   27.2910   34.2540 H   0  0  0  0  0  0  0  0  0  0  0  0
   37.6070   24.1280   37.0060 C   0  0  0  0  0  2  0  0  0  0  0  0
   37.9970   24.2140   38.4770 C   0  0  0  0  0  2  0  0  0  0  0  0
   39.0350   23.9160   38.6030 H   0  0  0  0  0  0  0  0  0  0  0  0
  1  2  1  0  0  0  0
  2 10  1  0  0  0  0
  3  2  2  0  0  0  0
  3  8  1  0  0  0  0
  4  3  1  0  0  0  0
  5  6  1  0  0  0  0
  5  4  2  0  0  0  0
  6  1  2  0  0  0  0
  7  1  1  0  0  0  0
  9  5  1  0  0  0  0
 10 11  1  0  0  0  0
 11 12  1  0  0  0  0
M  END
>  <minimizedAffinity>
-2.88901114

$$$$

 OpenBabel03262521033D

 12 12  0  0  0  0  0  0  0  0999 V2000
   39.1760   23.3390   36.2360 C   0  0  0  0  0  0  0  0  0  0  0  0
   39.6380   22.9050   37.4860 C   0  0  0  0  0  0  0  0  0  0  0  0
   40.7670   22.0630   37.5020 C   0  0  0  0  0  0  0  0  0  0  0  0
   41.3350   21.7260   36.3150 N   0  0  0  0  0  0  0  0  0  0  0  0
   40.8550   22.1690   35.1320 C   0  0  0  0  0  0  0  0  0  0  0  0
   39.7700   22.9800   35.0900 N   0  0  0  0  0  0  0  0  0  0  0  0
   38.3140   23.9840   36.1840 H   0  0  0  0  0  0  0  0  0  0  0  0
   41.1350   21.7200   38.4610 H   0  0  0  0  0  0  0  0  0  0  0  0
   41.3200   21.8910   34.1930 H   0  0  0  0  0  0  0  0  0  0  0  0
   38.9320   23.3440   38.6880 C   0  0  0  0  0  2  0  0  0  0  0  0
   37.9050   24.3870   38.2630 C   0  0  0  0  0  2  0  0  0  0  0  0
   38.4080   25.2420   37.8170 H   0  0  0  0  0  0  0  0  0  0  0  0
  1  2  1  0  0  0  0
  2  3  2  0  0  0  0
  2 10  1  0  0  0  0
  3  8  1  0  0  0  0
  4  3  1  0  0  0  0
  5  4  2  0  0  0  0
  6  5  1  0  0  0  0
  6  1  2  0  0  0  0
  7  1  1  0  0  0  0
  9  5  1  0  0  0  0
 11 10  1  0  0  0  0
 12 11  1  0  0  0  0
M  END
>  <minimizedAffinity>
-2.8250649

$$$$

 OpenBabel03262521033D

 12 12  0  0  0  0  0  0  0  0999 V2000
   38.3990   22.1350   35.7450 C   0  0  0  0  0  0  0  0  0  0  0  0
   38.5490   23.3390   36.4480 C   0  0  0  0  0  0  0  0  0  0  0  0
   38.4020   24.5360   35.7200 C   0  0  0  0  0  0  0  0  0  0  0  0
   38.1260   24.4530   34.3930 N   0  0  0  0  0  0  0  0  0  0  0  0
   37.9910   23.2680   33.7560 C   0  0  0  0  0  0  0  0  0  0  0  0
   38.1280   22.1020   34.4330 N   0  0  0  0  0  0  0  0  0  0  0  0
   38.5050   21.1990   36.2680 H   0  0  0  0  0  0  0  0  0  0  0  0
   38.5140   25.4730   36.2510 H   0  0  0  0  0  0  0  0  0  0  0  0
   37.7710   23.2190   32.6950 H   0  0  0  0  0  0  0  0  0  0  0  0
   38.8440   23.2860   37.8780 C   0  0  0  0  0  2  0  0  0  0  0  0
   37.9570   24.3140   38.5700 C   0  0  0  0  0  2  0  0  0  0  0  0
   38.1860   25.3100   38.1990 H   0  0  0  0  0  0  0  0  0  0  0  0
  1  7  1  0  0  0  0
  1  2  1  0  0  0  0
  2 10  1  0  0  0  0
  3  8  1  0  0  0  0
  3  2  2  0  0  0  0
  4  3  1  0  0  0  0
  5  4  2  0  0  0  0
  5  6  1  0  0  0  0
  6  1  2  0  0  0  0
  9  5  1  0  0  0  0
 10 11  1  0  0  0  0
 12 11  1  0  0  0  0
M  END
>  <minimizedAffinity>
-2.70907927

$$$$

 OpenBabel03262521033D

 12 12  0  0  0  0  0  0  0  0999 V2000
   37.0920   23.5140   32.4270 C   0  0  0  0  0  0  0  0  0  0  0  0
   36.0120   23.3310   31.5530 C   0  0  0  0  0  0  0  0  0  0  0  0
   35.3410   24.4850   31.1020 C   0  0  0  0  0  0  0  0  0  0  0  0
   35.7790   25.6950   31.5370 N   0  0  0  0  0  0  0  0  0  0  0  0
   36.8270   25.8240   32.3810 C   0  0  0  0  0  0  0  0  0  0  0  0
   37.4880   24.7300   32.8300 N   0  0  0  0  0  0  0  0  0  0  0  0
   37.6300   22.6550   32.7940 H   0  0  0  0  0  0  0  0  0  0  0  0
   34.5050   24.3570   30.4260 H   0  0  0  0  0  0  0  0  0  0  0  0
   37.1640   26.7980   32.7190 H   0  0  0  0  0  0  0  0  0  0  0  0
   35.6450   21.9710   31.1640 C   0  0  0  0  0  2  0  0  0  0  0  0
   35.0890   21.2720   32.3990 C   0  0  0  0  0  2  0  0  0  0  0  0
   35.8510   21.2250   33.1730 H   0  0  0  0  0  0  0  0  0  0  0  0
  1  7  1  0  0  0  0
  1  6  1  0  0  0  0
  2  1  2  0  0  0  0
  3  4  2  0  0  0  0
  3  2  1  0  0  0  0
  4  5  1  0  0  0  0
  5  9  1  0  0  0  0
  5  6  2  0  0  0  0
  8  3  1  0  0  0  0
 10  2  1  0  0  0  0
 10 11  1  0  0  0  0
 11 12  1  0  0  0  0
M  END
>  <minimizedAffinity>
-2.6404407

$$$$

 OpenBabel03262521033D

 12 12  0  0  0  0  0  0  0  0999 V2000
   33.5560   31.0350   35.0670 C   0  0  0  0  0  0  0  0  0  0  0  0
   33.7500   31.4380   36.3950 C   0  0  0  0  0  0  0  0  0  0  0  0
   32.7170   31.1620   37.3130 C   0  0  0  0  0  0  0  0  0  0  0  0
   31.6060   30.5270   36.8590 N   0  0  0  0  0  0  0  0  0  0  0  0
   31.4620   30.1560   35.5670 C   0  0  0  0  0  0  0  0  0  0  0  0
   32.4400   30.4110   34.6640 N   0  0  0  0  0  0  0  0  0  0  0  0
   34.3240   31.2300   34.3360 H   0  0  0  0  0  0  0  0  0  0  0  0
   32.8550   31.4670   38.3420 H   0  0  0  0  0  0  0  0  0  0  0  0
   30.5680   29.6500   35.2200 H   0  0  0  0  0  0  0  0  0  0  0  0
   34.9970   32.1140   36.7500 C   0  0  0  0  0  2  0  0  0  0  0  0
   36.0970   31.5460   35.8610 C   0  0  0  0  0  2  0  0  0  0  0  0
   36.2080   30.4800   36.0440 H   0  0  0  0  0  0  0  0  0  0  0  0
  1  2  1  0  0  0  0
  2 10  1  0  0  0  0
  2  3  2  0  0  0  0
  3  8  1  0  0  0  0
  4  3  1  0  0  0  0
  5  4  2  0  0  0  0
  6  1  2  0  0  0  0
  6  5  1  0  0  0  0
  7  1  1  0  0  0  0
  9  5  1  0  0  0  0
 11 12  1  0  0  0  0
 11 10  1  0  0  0  0
M  END
>  <minimizedAffinity>
-2.62342119

$$$$

 OpenBabel03262521033D

 12 12  0  0  0  0  0  0  0  0999 V2000
   36.3420   20.9630   33.2970 C   0  0  0  0  0  0  0  0  0  0  0  0
   35.5300   20.8360   32.1600 C   0  0  0  0  0  0  0  0  0  0  0  0
   35.6070   21.8570   31.1930 C   0  0  0  0  0  0  0  0  0  0  0  0
   36.4550   22.8940   31.4170 N   0  0  0  0  0  0  0  0  0  0  0  0
   37.2190   22.9750   32.5290 C   0  0  0  0  0  0  0  0  0  0  0  0
   37.1640   22.0060   33.4750 N   0  0  0  0  0  0  0  0  0  0  0  0
   36.3100   20.2020   34.0590 H   0  0  0  0  0  0  0  0  0  0  0  0
   34.9860   21.7710   30.3110 H   0  0  0  0  0  0  0  0  0  0  0  0
   37.8920   23.8100   32.6930 H   0  0  0  0  0  0  0  0  0  0  0  0
   34.6620   19.6660   32.0440 C   0  0  0  0  0  2  0  0  0  0  0  0
   35.3670   18.5000   32.7270 C   0  0  0  0  0  2  0  0  0  0  0  0
   36.3090   18.2910   32.2260 H   0  0  0  0  0  0  0  0  0  0  0  0
  1  6  1  0  0  0  0
  1  7  1  0  0  0  0
  2  1  2  0  0  0  0
  3  4  2  0  0  0  0
  3  2  1  0  0  0  0
  4  5  1  0  0  0  0
  5  9  1  0  0  0  0
  5  6  2  0  0  0  0
  8  3  1  0  0  0  0
 10  2  1  0  0  0  0
 10 11  1  0  0  0  0
 12 11  1  0  0  0  0
M  END
>  <minimizedAffinity>
-2.61590338

$$$$
