
 OpenBabel03272505543D

 28 29  0  0  1  0  0  0  0  0999 V2000
   35.5710   30.1140   49.6820 C   0  0  2  0  0  0  0  0  0  0  0  0
   36.3530   31.1860   48.9650 C   0  0  0  0  0  0  0  0  0  0  0  0
   37.8330   30.9890   49.1220 C   0  0  2  0  0  0  0  0  0  0  0  0
   38.2370   30.9720   50.5660 C   0  0  0  0  0  0  0  0  0  0  0  0
   37.4170   30.0220   51.3760 C   0  0  0  0  0  0  0  0  0  0  0  0
   36.3940   29.2510   50.5730 C   0  0  0  0  0  0  0  0  0  0  0  0
   34.7470   30.5700   50.2670 H   0  0  0  0  0  0  0  0  0  0  0  0
   36.0820   31.3170   47.9060 H   0  0  0  0  0  0  0  0  0  0  0  0
   36.1140   32.1540   49.4560 H   0  0  0  0  0  0  0  0  0  0  0  0
   38.0450   29.9680   48.7180 H   0  0  0  0  0  0  0  0  0  0  0  0
   39.3310   30.8040   50.6170 H   0  0  0  0  0  0  0  0  0  0  0  0
   38.0700   32.0190   50.9520 H   0  0  0  0  0  0  0  0  0  0  0  0
   38.1420   29.2500   51.7640 H   0  0  0  0  0  0  0  0  0  0  0  0
   36.9590   30.4730   52.2800 H   0  0  0  0  0  0  0  0  0  0  0  0
   36.8960   28.4070   50.0540 H   0  0  0  0  0  0  0  0  0  0  0  0
   35.7100   28.7770   51.3240 H   0  0  0  0  0  0  0  0  0  0  0  0
   34.9010   29.2150   48.6910 C   0  0  0  0  0  0  0  0  0  0  0  0
   34.7470   29.7430   47.3900 C   0  0  0  0  0  0  0  0  0  0  0  0
   34.1200   28.9350   46.4430 C   0  0  0  0  0  0  0  0  0  0  0  0
   33.6900   27.6800   46.8270 N   0  0  0  0  0  0  0  0  0  0  0  0
   33.8600   27.2170   48.0890 C   0  0  0  0  0  0  0  0  0  0  0  0
   34.4560   27.9750   49.0020 N   0  0  0  0  0  0  0  0  0  0  0  0
   35.0590   30.7070   47.0450 H   0  0  0  0  0  0  0  0  0  0  0  0
   33.9500   29.2400   45.4110 H   0  0  0  0  0  0  0  0  0  0  0  0
   33.5000   26.2220   48.3230 H   0  0  0  0  0  0  0  0  0  0  0  0
   38.6360   31.9690   48.3270 C   0  0  0  0  0  0  0  0  0  0  0  0
   38.7040   33.3010   49.0470 C   0  0  0  0  0  0  0  0  0  0  0  0
   37.6640   33.4660   49.4550 H   0  0  0  0  0  0  0  0  0  0  0  0
  1  7  1  1  0  0  0
  1  6  1  0  0  0  0
  2  3  1  0  0  0  0
  2  9  1  0  0  0  0
  2  1  1  0  0  0  0
  3 10  1  6  0  0  0
  3  4  1  0  0  0  0
  4 11  1  0  0  0  0
  4 12  1  0  0  0  0
  4  5  1  0  0  0  0
  5 13  1  0  0  0  0
  5 14  1  0  0  0  0
  6 16  1  0  0  0  0
  6  5  1  0  0  0  0
  8  2  1  0  0  0  0
 15  6  1  0  0  0  0
 17 22  1  0  0  0  0
 17  1  1  0  0  0  0
 18 17  2  0  0  0  0
 19 20  2  0  0  0  0
 19 18  1  0  0  0  0
 20 21  1  0  0  0  0
 21 25  1  0  0  0  0
 21 22  2  0  0  0  0
 23 18  1  0  0  0  0
 24 19  1  0  0  0  0
 26 27  1  0  0  0  0
 26  3  1  0  0  0  0
 27 28  1  0  0  0  0
M  END
>  <minimizedAffinity>
-5.58587217

>  <minimizedRMSD>
0.703013599

$$$$
