
 OpenBabel03272506123D

 38 40  0  0  1  0  0  0  0  0999 V2000
   34.7900   30.7280   35.1260 C   0  0  0  0  0  0  0  0  0  0  0  0
   35.5930   31.7960   35.5450 C   0  0  0  0  0  0  0  0  0  0  0  0
   35.2360   32.6690   36.5550 C   0  0  0  0  0  0  0  0  0  0  0  0
   34.0090   32.4920   37.2100 C   0  0  0  0  0  0  0  0  0  0  0  0
   33.2350   31.4300   36.7750 C   0  0  0  0  0  0  0  0  0  0  0  0
   33.5720   30.5460   35.7620 C   0  0  0  0  0  0  0  0  0  0  0  0
   36.5600   31.9920   35.0750 H   0  0  0  0  0  0  0  0  0  0  0  0
   35.9130   33.4680   36.8130 H   0  0  0  0  0  0  0  0  0  0  0  0
   33.7820   33.1860   37.9780 H   0  0  0  0  0  0  0  0  0  0  0  0
   32.3300   31.3990   37.3660 H   0  0  0  0  0  0  0  0  0  0  0  0
   32.6600   29.5410   35.2850 C   0  0  1  0  0  0  0  0  0  0  0  0
   32.0530   28.8810   36.5840 C   0  0  0  0  0  0  0  0  0  0  0  0
   31.1770   27.6870   36.2050 C   0  0  0  0  0  0  0  0  0  0  0  0
   30.2740   28.0330   35.0610 C   0  0  0  0  0  0  0  0  0  0  0  0
   30.1630   29.5240   34.9970 C   0  0  0  0  0  0  0  0  0  0  0  0
   31.4920   30.0550   34.5020 C   0  0  2  0  0  0  0  0  0  0  0  0
   32.8920   28.6550   34.7880 H   0  0  0  0  0  0  0  0  0  0  0  0
   32.8840   28.5100   37.1860 H   0  0  0  0  0  0  0  0  0  0  0  0
   31.4920   29.6350   37.1160 H   0  0  0  0  0  0  0  0  0  0  0  0
   31.8660   26.8680   35.8810 H   0  0  0  0  0  0  0  0  0  0  0  0
   30.6590   27.3920   37.1140 H   0  0  0  0  0  0  0  0  0  0  0  0
   30.5680   27.5890   34.1130 H   0  0  0  0  0  0  0  0  0  0  0  0
   29.2350   27.6410   35.2720 H   0  0  0  0  0  0  0  0  0  0  0  0
   29.4030   29.8410   34.2440 H   0  0  0  0  0  0  0  0  0  0  0  0
   29.8600   29.9530   35.9520 H   0  0  0  0  0  0  0  0  0  0  0  0
   31.3730   31.1490   34.4540 H   0  0  0  0  0  0  0  0  0  0  0  0
   31.6240   29.6790   33.0070 C   0  0  0  0  0  2  0  0  0  0  0  0
   31.7000   30.9810   32.2420 C   0  0  0  0  0  2  0  0  0  0  0  0
   30.6880   31.2880   31.8950 H   0  0  0  0  0  0  0  0  0  0  0  0
   35.2980   30.3290   32.7710 C   0  0  0  0  0  0  0  0  0  0  0  0
   35.3720   29.8820   34.1370 C   0  0  0  0  0  0  0  0  0  0  0  0
   36.0050   28.6930   34.3570 C   0  0  0  0  0  0  0  0  0  0  0  0
   36.5250   28.0080   33.3160 N   0  0  0  0  0  0  0  0  0  0  0  0
   36.4400   28.4580   32.0220 C   0  0  0  0  0  0  0  0  0  0  0  0
   35.8110   29.6470   31.7360 N   0  0  0  0  0  0  0  0  0  0  0  0
   34.8300   31.2460   32.4490 H   0  0  0  0  0  0  0  0  0  0  0  0
   36.1310   28.1180   35.2220 H   0  0  0  0  0  0  0  0  0  0  0  0
   36.8630   27.8960   31.1830 H   0  0  0  0  0  0  0  0  0  0  0  0
  1  2  2  0  0  0  0
  1  6  1  0  0  0  0
  2  3  1  0  0  0  0
  3  8  1  0  0  0  0
  3  4  2  0  0  0  0
  4  9  1  0  0  0  0
  5  4  1  0  0  0  0
  5 10  1  0  0  0  0
  6  5  2  0  0  0  0
  7  2  1  0  0  0  0
 11 17  1  6  0  0  0
 11  6  1  0  0  0  0
 11 12  1  0  0  0  0
 12 19  1  0  0  0  0
 12 18  1  0  0  0  0
 13 12  1  0  0  0  0
 13 21  1  0  0  0  0
 14 23  1  0  0  0  0
 14 13  1  0  0  0  0
 15 14  1  0  0  0  0
 15 25  1  0  0  0  0
 16 26  1  1  0  0  0
 16 15  1  0  0  0  0
 16 11  1  0  0  0  0
 20 13  1  0  0  0  0
 22 14  1  0  0  0  0
 24 15  1  0  0  0  0
 27 16  1  0  0  0  0
 28 27  1  0  0  0  0
 29 28  1  0  0  0  0
 30 31  1  0  0  0  0
 31 32  2  0  0  0  0
 31  1  1  0  0  0  0
 32 37  1  0  0  0  0
 33 32  1  0  0  0  0
 34 33  2  0  0  0  0
 35 34  1  0  0  0  0
 35 30  2  0  0  0  0
 36 30  1  0  0  0  0
 38 34  1  0  0  0  0
M  END
>  <minimizedAffinity>
-5.07401037

$$$$

 OpenBabel03272506123D

 38 40  0  0  1  0  0  0  0  0999 V2000
   39.8930   26.4620   34.1720 C   0  0  0  0  0  0  0  0  0  0  0  0
   41.0150   27.2760   33.9670 C   0  0  0  0  0  0  0  0  0  0  0  0
   42.3160   26.8120   34.0300 C   0  0  0  0  0  0  0  0  0  0  0  0
   42.5460   25.4590   34.3120 C   0  0  0  0  0  0  0  0  0  0  0  0
   41.4200   24.6780   34.5110 C   0  0  0  0  0  0  0  0  0  0  0  0
   40.1080   25.1230   34.4560 C   0  0  0  0  0  0  0  0  0  0  0  0
   40.9050   28.3410   33.7460 H   0  0  0  0  0  0  0  0  0  0  0  0
   43.1220   27.5080   33.8620 H   0  0  0  0  0  0  0  0  0  0  0  0
   43.5600   25.1520   34.3480 H   0  0  0  0  0  0  0  0  0  0  0  0
   41.7360   23.6620   34.7050 H   0  0  0  0  0  0  0  0  0  0  0  0
   38.9960   24.2760   34.7950 C   0  0  1  0  0  0  0  0  0  0  0  0
   39.1590   22.9950   33.8900 C   0  0  0  0  0  0  0  0  0  0  0  0
   37.9430   22.0810   34.0510 C   0  0  0  0  0  0  0  0  0  0  0  0
   37.5860   21.9240   35.4970 C   0  0  0  0  0  0  0  0  0  0  0  0
   38.7900   22.2820   36.3110 C   0  0  0  0  0  0  0  0  0  0  0  0
   38.9750   23.7810   36.2090 C   0  0  2  0  0  0  0  0  0  0  0  0
   37.9870   24.4440   34.6000 H   0  0  0  0  0  0  0  0  0  0  0  0
   39.1940   23.3250   32.8510 H   0  0  0  0  0  0  0  0  0  0  0  0
   40.0730   22.4940   34.1720 H   0  0  0  0  0  0  0  0  0  0  0  0
   37.0910   22.5780   33.5240 H   0  0  0  0  0  0  0  0  0  0  0  0
   38.1950   21.1520   33.5460 H   0  0  0  0  0  0  0  0  0  0  0  0
   36.6950   22.4700   35.7960 H   0  0  0  0  0  0  0  0  0  0  0  0
   37.3630   20.8370   35.7120 H   0  0  0  0  0  0  0  0  0  0  0  0
   38.6260   22.0630   37.3930 H   0  0  0  0  0  0  0  0  0  0  0  0
   39.6720   21.7200   36.0040 H   0  0  0  0  0  0  0  0  0  0  0  0
   39.8570   24.0120   36.8250 H   0  0  0  0  0  0  0  0  0  0  0  0
   37.8340   24.4550   37.0090 C   0  0  0  0  0  2  0  0  0  0  0  0
   38.0960   24.1480   38.4660 C   0  0  0  0  0  2  0  0  0  0  0  0
   37.5400   23.2360   38.7790 H   0  0  0  0  0  0  0  0  0  0  0  0
   38.2100   27.2860   32.6070 C   0  0  0  0  0  0  0  0  0  0  0  0
   38.6350   27.1010   33.9690 C   0  0  0  0  0  0  0  0  0  0  0  0
   37.7840   27.5450   34.9400 C   0  0  0  0  0  0  0  0  0  0  0  0
   36.6110   28.1180   34.5930 N   0  0  0  0  0  0  0  0  0  0  0  0
   36.2310   28.2820   33.2840 C   0  0  0  0  0  0  0  0  0  0  0  0
   37.0470   27.8590   32.2610 N   0  0  0  0  0  0  0  0  0  0  0  0
   38.7770   26.9850   31.7390 H   0  0  0  0  0  0  0  0  0  0  0  0
   37.8790   27.5990   35.9800 H   0  0  0  0  0  0  0  0  0  0  0  0
   35.2790   28.7480   33.0110 H   0  0  0  0  0  0  0  0  0  0  0  0
  1  6  1  0  0  0  0
  2  3  1  0  0  0  0
  2  1  2  0  0  0  0
  3  4  2  0  0  0  0
  4  9  1  0  0  0  0
  4  5  1  0  0  0  0
  5 10  1  0  0  0  0
  6  5  2  0  0  0  0
  6 11  1  0  0  0  0
  7  2  1  0  0  0  0
  8  3  1  0  0  0  0
 11 17  1  6  0  0  0
 11 16  1  0  0  0  0
 12 13  1  0  0  0  0
 12 19  1  0  0  0  0
 12 11  1  0  0  0  0
 13 14  1  0  0  0  0
 14 23  1  0  0  0  0
 14 22  1  0  0  0  0
 14 15  1  0  0  0  0
 15 24  1  0  0  0  0
 16 15  1  0  0  0  0
 16 26  1  1  0  0  0
 16 27  1  0  0  0  0
 18 12  1  0  0  0  0
 20 13  1  0  0  0  0
 21 13  1  0  0  0  0
 25 15  1  0  0  0  0
 27 28  1  0  0  0  0
 28 29  1  0  0  0  0
 30 31  1  0  0  0  0
 31  1  1  0  0  0  0
 31 32  2  0  0  0  0
 32 37  1  0  0  0  0
 33 32  1  0  0  0  0
 34 33  2  0  0  0  0
 35 30  2  0  0  0  0
 35 34  1  0  0  0  0
 36 30  1  0  0  0  0
 38 34  1  0  0  0  0
M  END
>  <minimizedAffinity>
-5.03269911

$$$$

 OpenBabel03272506123D

 38 40  0  0  1  0  0  0  0  0999 V2000
   36.1310   26.4090   31.6420 C   0  0  0  0  0  0  0  0  0  0  0  0
   35.2170   25.6400   30.9090 C   0  0  0  0  0  0  0  0  0  0  0  0
   35.1820   24.2590   30.9440 C   0  0  0  0  0  0  0  0  0  0  0  0
   36.1000   23.5720   31.7500 C   0  0  0  0  0  0  0  0  0  0  0  0
   36.9920   24.3560   32.4620 C   0  0  0  0  0  0  0  0  0  0  0  0
   37.0460   25.7410   32.4400 C   0  0  0  0  0  0  0  0  0  0  0  0
   34.4770   26.1130   30.2590 H   0  0  0  0  0  0  0  0  0  0  0  0
   34.4480   23.7440   30.3450 H   0  0  0  0  0  0  0  0  0  0  0  0
   36.0320   22.5140   31.7440 H   0  0  0  0  0  0  0  0  0  0  0  0
   37.6290   23.7070   33.0480 H   0  0  0  0  0  0  0  0  0  0  0  0
   38.0810   26.4790   33.1120 C   0  0  1  0  0  0  0  0  0  0  0  0
   37.8940   26.1530   34.6450 C   0  0  0  0  0  0  0  0  0  0  0  0
   38.8470   27.0050   35.4830 C   0  0  0  0  0  0  0  0  0  0  0  0
   40.2220   27.0030   34.8890 C   0  0  0  0  0  0  0  0  0  0  0  0
   40.3360   25.8080   33.9960 C   0  0  0  0  0  0  0  0  0  0  0  0
   39.4820   26.0740   32.7740 C   0  0  2  0  0  0  0  0  0  0  0  0
   38.1630   27.5130   33.2110 H   0  0  0  0  0  0  0  0  0  0  0  0
   36.8730   26.4230   34.9190 H   0  0  0  0  0  0  0  0  0  0  0  0
   38.0710   25.0970   34.7900 H   0  0  0  0  0  0  0  0  0  0  0  0
   38.4510   28.0510   35.4630 H   0  0  0  0  0  0  0  0  0  0  0  0
   38.7930   26.6120   36.4950 H   0  0  0  0  0  0  0  0  0  0  0  0
   40.4930   27.9310   34.3920 H   0  0  0  0  0  0  0  0  0  0  0  0
   40.9840   26.8650   35.7120 H   0  0  0  0  0  0  0  0  0  0  0  0
   41.3800   25.6800   33.6220 H   0  0  0  0  0  0  0  0  0  0  0  0
   40.0700   24.8850   34.5110 H   0  0  0  0  0  0  0  0  0  0  0  0
   39.5970   25.1850   32.1340 H   0  0  0  0  0  0  0  0  0  0  0  0
   40.1830   27.1690   31.9360 C   0  0  0  0  0  2  0  0  0  0  0  0
   39.9480   26.8140   30.4850 C   0  0  0  0  0  2  0  0  0  0  0  0
   40.7970   26.2130   30.0880 H   0  0  0  0  0  0  0  0  0  0  0  0
   36.5830   28.4900   30.4460 C   0  0  0  0  0  0  0  0  0  0  0  0
   35.9470   27.8200   31.5510 C   0  0  0  0  0  0  0  0  0  0  0  0
   35.2180   28.6000   32.4000 C   0  0  0  0  0  0  0  0  0  0  0  0
   35.1210   29.9280   32.1740 N   0  0  0  0  0  0  0  0  0  0  0  0
   35.7380   30.5410   31.1120 C   0  0  0  0  0  0  0  0  0  0  0  0
   36.4900   29.8090   30.2230 N   0  0  0  0  0  0  0  0  0  0  0  0
   37.1880   28.0030   29.6970 H   0  0  0  0  0  0  0  0  0  0  0  0
   34.7280   28.3850   33.2990 H   0  0  0  0  0  0  0  0  0  0  0  0
   35.6550   31.6180   30.9360 H   0  0  0  0  0  0  0  0  0  0  0  0
  1  6  1  0  0  0  0
  2  3  1  0  0  0  0
  2  1  2  0  0  0  0
  3  4  2  0  0  0  0
  4  5  1  0  0  0  0
  5 10  1  0  0  0  0
  6  5  2  0  0  0  0
  6 11  1  0  0  0  0
  7  2  1  0  0  0  0
  8  3  1  0  0  0  0
  9  4  1  0  0  0  0
 11 17  1  6  0  0  0
 11 12  1  0  0  0  0
 12 19  1  0  0  0  0
 12 18  1  0  0  0  0
 12 13  1  0  0  0  0
 13 21  1  0  0  0  0
 14 13  1  0  0  0  0
 14 23  1  0  0  0  0
 15 25  1  0  0  0  0
 15 14  1  0  0  0  0
 16 26  1  6  0  0  0
 16 11  1  0  0  0  0
 16 15  1  0  0  0  0
 20 13  1  0  0  0  0
 22 14  1  0  0  0  0
 24 15  1  0  0  0  0
 27 16  1  0  0  0  0
 28 27  1  0  0  0  0
 29 28  1  0  0  0  0
 30 31  1  0  0  0  0
 31  1  1  0  0  0  0
 31 32  2  0  0  0  0
 32 37  1  0  0  0  0
 33 32  1  0  0  0  0
 34 33  2  0  0  0  0
 35 30  2  0  0  0  0
 35 34  1  0  0  0  0
 36 30  1  0  0  0  0
 38 34  1  0  0  0  0
M  END
>  <minimizedAffinity>
-4.99443102

$$$$

 OpenBabel03272506123D

 38 40  0  0  1  0  0  0  0  0999 V2000
   39.9890   23.3540   36.5180 C   0  0  0  0  0  0  0  0  0  0  0  0
   39.7810   22.8860   37.8220 C   0  0  0  0  0  0  0  0  0  0  0  0
   38.7580   23.3310   38.6380 C   0  0  0  0  0  0  0  0  0  0  0  0
   37.8690   24.3010   38.1530 C   0  0  0  0  0  0  0  0  0  0  0  0
   38.0990   24.7460   36.8630 C   0  0  0  0  0  0  0  0  0  0  0  0
   39.1200   24.3170   36.0290 C   0  0  0  0  0  0  0  0  0  0  0  0
   40.4390   22.1320   38.2620 H   0  0  0  0  0  0  0  0  0  0  0  0
   38.6710   22.9190   39.6310 H   0  0  0  0  0  0  0  0  0  0  0  0
   37.1010   24.6080   38.8160 H   0  0  0  0  0  0  0  0  0  0  0  0
   37.3410   25.4760   36.6110 H   0  0  0  0  0  0  0  0  0  0  0  0
   39.3670   24.9170   34.7460 C   0  0  1  0  0  0  0  0  0  0  0  0
   38.2630   24.3200   33.7900 C   0  0  0  0  0  0  0  0  0  0  0  0
   38.5170   24.7690   32.3510 C   0  0  0  0  0  0  0  0  0  0  0  0
   38.8250   26.2330   32.2990 C   0  0  0  0  0  0  0  0  0  0  0  0
   38.3050   26.8590   33.5550 C   0  0  0  0  0  0  0  0  0  0  0  0
   39.1990   26.4040   34.6900 C   0  0  2  0  0  0  0  0  0  0  0  0
   40.1810   24.7580   34.1160 H   0  0  0  0  0  0  0  0  0  0  0  0
   38.3490   23.2330   33.8220 H   0  0  0  0  0  0  0  0  0  0  0  0
   37.2960   24.6450   34.1440 H   0  0  0  0  0  0  0  0  0  0  0  0
   39.4090   24.2020   31.9850 H   0  0  0  0  0  0  0  0  0  0  0  0
   37.6370   24.4740   31.7830 H   0  0  0  0  0  0  0  0  0  0  0  0
   39.8730   26.4610   32.1150 H   0  0  0  0  0  0  0  0  0  0  0  0
   38.2570   26.7060   31.4440 H   0  0  0  0  0  0  0  0  0  0  0  0
   38.3920   27.9710   33.5190 H   0  0  0  0  0  0  0  0  0  0  0  0
   37.2520   26.6290   33.7200 H   0  0  0  0  0  0  0  0  0  0  0  0
   38.7980   26.8890   35.5930 H   0  0  0  0  0  0  0  0  0  0  0  0
   40.5680   27.1060   34.5250 C   0  0  0  0  0  2  0  0  0  0  0  0
   41.6060   26.0080   34.4560 C   0  0  0  0  0  2  0  0  0  0  0  0
   42.0280   25.8060   35.4660 H   0  0  0  0  0  0  0  0  0  0  0  0
   42.3800   22.9270   36.2650 C   0  0  0  0  0  0  0  0  0  0  0  0
   41.0360   22.7050   35.8000 C   0  0  0  0  0  0  0  0  0  0  0  0
   40.8920   21.8830   34.7210 C   0  0  0  0  0  0  0  0  0  0  0  0
   41.9820   21.3230   34.1540 N   0  0  0  0  0  0  0  0  0  0  0  0
   43.2540   21.5530   34.6180 C   0  0  0  0  0  0  0  0  0  0  0  0
   43.4640   22.3760   35.7000 N   0  0  0  0  0  0  0  0  0  0  0  0
   42.6450   23.5510   37.1050 H   0  0  0  0  0  0  0  0  0  0  0  0
   40.0550   21.6190   34.1510 H   0  0  0  0  0  0  0  0  0  0  0  0
   44.1330   21.0970   34.1520 H   0  0  0  0  0  0  0  0  0  0  0  0
  1  2  1  0  0  0  0
  2  7  1  0  0  0  0
  2  3  2  0  0  0  0
  3  8  1  0  0  0  0
  4  3  1  0  0  0  0
  4  9  1  0  0  0  0
  5  4  2  0  0  0  0
  6  1  2  0  0  0  0
  6  5  1  0  0  0  0
 10  5  1  0  0  0  0
 11 17  1  6  0  0  0
 11  6  1  0  0  0  0
 12 18  1  0  0  0  0
 12 19  1  0  0  0  0
 12 11  1  0  0  0  0
 13 12  1  0  0  0  0
 14 13  1  0  0  0  0
 14 15  1  0  0  0  0
 15 25  1  0  0  0  0
 15 16  1  0  0  0  0
 16 11  1  0  0  0  0
 16 26  1  1  0  0  0
 20 13  1  0  0  0  0
 21 13  1  0  0  0  0
 22 14  1  0  0  0  0
 23 14  1  0  0  0  0
 24 15  1  0  0  0  0
 27 16  1  0  0  0  0
 28 27  1  0  0  0  0
 28 29  1  0  0  0  0
 30 36  1  0  0  0  0
 31 30  1  0  0  0  0
 31  1  1  0  0  0  0
 32 31  2  0  0  0  0
 33 34  2  0  0  0  0
 33 32  1  0  0  0  0
 34 35  1  0  0  0  0
 35 30  2  0  0  0  0
 37 32  1  0  0  0  0
 38 34  1  0  0  0  0
M  END
>  <minimizedAffinity>
-4.98300219

$$$$

 OpenBabel03272506123D

 38 40  0  0  1  0  0  0  0  0999 V2000
   38.5380   23.2340   34.5860 C   0  0  0  0  0  0  0  0  0  0  0  0
   37.5770   22.3180   34.1390 C   0  0  0  0  0  0  0  0  0  0  0  0
   37.3160   22.0760   32.8030 C   0  0  0  0  0  0  0  0  0  0  0  0
   38.0430   22.7730   31.8280 C   0  0  0  0  0  0  0  0  0  0  0  0
   38.9840   23.6730   32.2970 C   0  0  0  0  0  0  0  0  0  0  0  0
   39.2590   23.9330   33.6300 C   0  0  0  0  0  0  0  0  0  0  0  0
   36.9740   21.7430   34.8470 H   0  0  0  0  0  0  0  0  0  0  0  0
   36.5560   21.3550   32.5460 H   0  0  0  0  0  0  0  0  0  0  0  0
   37.8070   22.5510   30.8180 H   0  0  0  0  0  0  0  0  0  0  0  0
   39.4770   24.1280   31.4490 H   0  0  0  0  0  0  0  0  0  0  0  0
   40.1670   24.9710   34.0380 C   0  0  1  0  0  0  0  0  0  0  0  0
   41.3950   24.8590   33.0550 C   0  0  0  0  0  0  0  0  0  0  0  0
   42.5040   25.8190   33.4880 C   0  0  0  0  0  0  0  0  0  0  0  0
   41.9400   27.1670   33.8140 C   0  0  0  0  0  0  0  0  0  0  0  0
   40.6040   27.2810   33.1500 C   0  0  0  0  0  0  0  0  0  0  0  0
   39.6500   26.3690   33.8930 C   0  0  2  0  0  0  0  0  0  0  0  0
   40.7160   25.0240   34.9230 H   0  0  0  0  0  0  0  0  0  0  0  0
   41.7860   23.8420   33.1260 H   0  0  0  0  0  0  0  0  0  0  0  0
   41.0490   25.0740   32.0540 H   0  0  0  0  0  0  0  0  0  0  0  0
   42.9630   25.3900   34.4130 H   0  0  0  0  0  0  0  0  0  0  0  0
   43.2340   25.8200   32.6820 H   0  0  0  0  0  0  0  0  0  0  0  0
   41.9040   27.3870   34.8780 H   0  0  0  0  0  0  0  0  0  0  0  0
   42.5950   27.9670   33.3600 H   0  0  0  0  0  0  0  0  0  0  0  0
   40.1880   28.3120   33.2510 H   0  0  0  0  0  0  0  0  0  0  0  0
   40.6580   27.0660   32.0830 H   0  0  0  0  0  0  0  0  0  0  0  0
   38.6780   26.4850   33.3890 H   0  0  0  0  0  0  0  0  0  0  0  0
   39.3740   27.0000   35.2780 C   0  0  0  0  0  2  0  0  0  0  0  0
   37.9120   27.3860   35.2900 C   0  0  0  0  0  2  0  0  0  0  0  0
   37.7860   28.4460   34.9760 H   0  0  0  0  0  0  0  0  0  0  0  0
   37.7450   23.9850   36.7700 C   0  0  0  0  0  0  0  0  0  0  0  0
   38.7290   23.2720   35.9980 C   0  0  0  0  0  0  0  0  0  0  0  0
   39.7480   22.6900   36.6960 C   0  0  0  0  0  0  0  0  0  0  0  0
   39.7870   22.7990   38.0410 N   0  0  0  0  0  0  0  0  0  0  0  0
   38.8340   23.4860   38.7520 C   0  0  0  0  0  0  0  0  0  0  0  0
   37.7850   24.0970   38.1050 N   0  0  0  0  0  0  0  0  0  0  0  0
   36.8880   24.4920   36.3550 H   0  0  0  0  0  0  0  0  0  0  0  0
   40.6110   22.1890   36.3830 H   0  0  0  0  0  0  0  0  0  0  0  0
   38.8730   23.5700   39.8430 H   0  0  0  0  0  0  0  0  0  0  0  0
  1 31  1  0  0  0  0
  2  1  1  0  0  0  0
  2  7  1  0  0  0  0
  3  2  2  0  0  0  0
  4  5  2  0  0  0  0
  4  3  1  0  0  0  0
  5  6  1  0  0  0  0
  6 11  1  0  0  0  0
  6  1  2  0  0  0  0
  8  3  1  0  0  0  0
  9  4  1  0  0  0  0
 10  5  1  0  0  0  0
 11 17  1  1  0  0  0
 12 18  1  0  0  0  0
 12 13  1  0  0  0  0
 12 11  1  0  0  0  0
 13 14  1  0  0  0  0
 13 20  1  0  0  0  0
 14 22  1  0  0  0  0
 15 24  1  0  0  0  0
 15 14  1  0  0  0  0
 15 16  1  0  0  0  0
 16 26  1  6  0  0  0
 16 11  1  0  0  0  0
 16 27  1  0  0  0  0
 19 12  1  0  0  0  0
 21 13  1  0  0  0  0
 23 14  1  0  0  0  0
 25 15  1  0  0  0  0
 27 28  1  0  0  0  0
 29 28  1  0  0  0  0
 30 35  1  0  0  0  0
 31 32  1  0  0  0  0
 31 30  2  0  0  0  0
 32 33  2  0  0  0  0
 33 34  1  0  0  0  0
 34 38  1  0  0  0  0
 35 34  2  0  0  0  0
 36 30  1  0  0  0  0
 37 32  1  0  0  0  0
M  END
>  <minimizedAffinity>
-4.95081139

$$$$

 OpenBabel03272506123D

 38 40  0  0  1  0  0  0  0  0999 V2000
   36.3270   28.9810   32.6530 C   0  0  0  0  0  0  0  0  0  0  0  0
   36.7090   28.8340   31.3130 C   0  0  0  0  0  0  0  0  0  0  0  0
   36.4450   29.7760   30.3360 C   0  0  0  0  0  0  0  0  0  0  0  0
   35.7600   30.9480   30.6850 C   0  0  0  0  0  0  0  0  0  0  0  0
   35.3930   31.0670   32.0150 C   0  0  0  0  0  0  0  0  0  0  0  0
   35.6450   30.1340   33.0080 C   0  0  0  0  0  0  0  0  0  0  0  0
   37.2430   27.9420   30.9740 H   0  0  0  0  0  0  0  0  0  0  0  0
   36.7730   29.5810   29.3280 H   0  0  0  0  0  0  0  0  0  0  0  0
   35.5830   31.6400   29.9010 H   0  0  0  0  0  0  0  0  0  0  0  0
   34.8890   32.0140   32.1490 H   0  0  0  0  0  0  0  0  0  0  0  0
   35.1240   30.2740   34.3420 C   0  0  1  0  0  0  0  0  0  0  0  0
   35.8180   31.5650   34.9250 C   0  0  0  0  0  0  0  0  0  0  0  0
   35.4580   31.7320   36.4010 C   0  0  0  0  0  0  0  0  0  0  0  0
   33.9910   31.5210   36.6160 C   0  0  0  0  0  0  0  0  0  0  0  0
   33.3000   31.7120   35.3030 C   0  0  0  0  0  0  0  0  0  0  0  0
   33.6500   30.5240   34.4320 C   0  0  2  0  0  0  0  0  0  0  0  0
   35.2980   29.6540   35.1610 H   0  0  0  0  0  0  0  0  0  0  0  0
   36.8970   31.4200   34.8580 H   0  0  0  0  0  0  0  0  0  0  0  0
   35.5010   32.4150   34.3390 H   0  0  0  0  0  0  0  0  0  0  0  0
   36.0180   30.9450   36.9650 H   0  0  0  0  0  0  0  0  0  0  0  0
   35.8180   32.7170   36.6900 H   0  0  0  0  0  0  0  0  0  0  0  0
   33.7430   30.5750   37.0920 H   0  0  0  0  0  0  0  0  0  0  0  0
   33.5940   32.3220   37.3080 H   0  0  0  0  0  0  0  0  0  0  0  0
   32.1910   31.6930   35.4220 H   0  0  0  0  0  0  0  0  0  0  0  0
   33.5520   32.6680   34.8430 H   0  0  0  0  0  0  0  0  0  0  0  0
   33.1190   30.6880   33.4810 H   0  0  0  0  0  0  0  0  0  0  0  0
   32.9170   29.2860   35.0030 C   0  0  0  0  0  2  0  0  0  0  0  0
   31.7540   29.0120   34.0760 C   0  0  0  0  0  2  0  0  0  0  0  0
   30.8320   29.5120   34.4480 H   0  0  0  0  0  0  0  0  0  0  0  0
   36.9230   26.6330   32.9630 C   0  0  0  0  0  0  0  0  0  0  0  0
   36.7730   27.9490   33.5280 C   0  0  0  0  0  0  0  0  0  0  0  0
   37.0870   28.0840   34.8500 C   0  0  0  0  0  0  0  0  0  0  0  0
   37.5150   27.0120   35.5500 N   0  0  0  0  0  0  0  0  0  0  0  0
   37.6490   25.7680   34.9850 C   0  0  0  0  0  0  0  0  0  0  0  0
   37.3450   25.5680   33.6590 N   0  0  0  0  0  0  0  0  0  0  0  0
   36.7140   26.3790   31.9350 H   0  0  0  0  0  0  0  0  0  0  0  0
   36.9990   28.8910   35.5090 H   0  0  0  0  0  0  0  0  0  0  0  0
   37.9960   24.9040   35.5600 H   0  0  0  0  0  0  0  0  0  0  0  0
  1  6  1  0  0  0  0
  1 31  1  0  0  0  0
  2  1  2  0  0  0  0
  3  4  2  0  0  0  0
  3  2  1  0  0  0  0
  4  5  1  0  0  0  0
  5 10  1  0  0  0  0
  5  6  2  0  0  0  0
  6 11  1  0  0  0  0
  7  2  1  0  0  0  0
  8  3  1  0  0  0  0
  9  4  1  0  0  0  0
 11 16  1  0  0  0  0
 11 12  1  0  0  0  0
 11 17  1  1  0  0  0
 12 13  1  0  0  0  0
 13 14  1  0  0  0  0
 13 21  1  0  0  0  0
 13 20  1  0  0  0  0
 14 22  1  0  0  0  0
 14 23  1  0  0  0  0
 15 24  1  0  0  0  0
 15 14  1  0  0  0  0
 16 26  1  6  0  0  0
 16 27  1  0  0  0  0
 16 15  1  0  0  0  0
 18 12  1  0  0  0  0
 19 12  1  0  0  0  0
 25 15  1  0  0  0  0
 28 29  1  0  0  0  0
 28 27  1  0  0  0  0
 30 31  2  0  0  0  0
 30 35  1  0  0  0  0
 31 32  1  0  0  0  0
 32 37  1  0  0  0  0
 32 33  2  0  0  0  0
 34 33  1  0  0  0  0
 34 38  1  0  0  0  0
 35 34  2  0  0  0  0
 36 30  1  0  0  0  0
M  END
>  <minimizedAffinity>
-4.94926214

$$$$

 OpenBabel03272506123D

 38 40  0  0  1  0  0  0  0  0999 V2000
   36.8640   24.2860   31.9240 C   0  0  0  0  0  0  0  0  0  0  0  0
   35.6630   24.2180   31.2080 C   0  0  0  0  0  0  0  0  0  0  0  0
   34.8990   25.3260   30.8920 C   0  0  0  0  0  0  0  0  0  0  0  0
   35.3340   26.5950   31.3010 C   0  0  0  0  0  0  0  0  0  0  0  0
   36.5230   26.6320   32.0080 C   0  0  0  0  0  0  0  0  0  0  0  0
   37.3020   25.5350   32.3370 C   0  0  0  0  0  0  0  0  0  0  0  0
   35.2660   23.2600   30.8620 H   0  0  0  0  0  0  0  0  0  0  0  0
   33.9840   25.1840   30.3400 H   0  0  0  0  0  0  0  0  0  0  0  0
   34.7140   27.4130   31.0340 H   0  0  0  0  0  0  0  0  0  0  0  0
   36.7480   27.6630   32.2490 H   0  0  0  0  0  0  0  0  0  0  0  0
   38.4630   25.6420   33.1800 C   0  0  1  0  0  0  0  0  0  0  0  0
   39.1900   26.9630   32.7180 C   0  0  0  0  0  0  0  0  0  0  0  0
   40.5290   27.1060   33.4420 C   0  0  0  0  0  0  0  0  0  0  0  0
   40.3740   26.8210   34.9040 C   0  0  0  0  0  0  0  0  0  0  0  0
   38.9280   26.9830   35.2550 C   0  0  0  0  0  0  0  0  0  0  0  0
   38.1810   25.8180   34.6410 C   0  0  2  0  0  0  0  0  0  0  0  0
   39.3040   25.0280   33.1850 H   0  0  0  0  0  0  0  0  0  0  0  0
   39.3950   26.8720   31.6500 H   0  0  0  0  0  0  0  0  0  0  0  0
   38.5360   27.7990   32.9200 H   0  0  0  0  0  0  0  0  0  0  0  0
   41.2200   26.3450   33.0010 H   0  0  0  0  0  0  0  0  0  0  0  0
   40.8900   28.1060   33.2150 H   0  0  0  0  0  0  0  0  0  0  0  0
   40.7800   25.8620   35.2160 H   0  0  0  0  0  0  0  0  0  0  0  0
   40.9390   27.5980   35.4990 H   0  0  0  0  0  0  0  0  0  0  0  0
   38.7670   26.9080   36.3560 H   0  0  0  0  0  0  0  0  0  0  0  0
   38.5380   27.9530   34.9440 H   0  0  0  0  0  0  0  0  0  0  0  0
   37.1270   25.9600   34.9260 H   0  0  0  0  0  0  0  0  0  0  0  0
   38.5610   24.5430   35.4310 C   0  0  0  0  0  2  0  0  0  0  0  0
   37.9370   24.6850   36.8000 C   0  0  0  0  0  2  0  0  0  0  0  0
   38.6630   25.1340   37.5150 H   0  0  0  0  0  0  0  0  0  0  0  0
   38.5880   22.7630   31.1040 C   0  0  0  0  0  0  0  0  0  0  0  0
   37.5570   23.0480   32.0670 C   0  0  0  0  0  0  0  0  0  0  0  0
   37.3480   22.1080   33.0340 C   0  0  0  0  0  0  0  0  0  0  0  0
   38.0980   20.9850   33.0500 N   0  0  0  0  0  0  0  0  0  0  0  0
   39.0760   20.7390   32.1190 C   0  0  0  0  0  0  0  0  0  0  0  0
   39.3310   21.6470   31.1180 N   0  0  0  0  0  0  0  0  0  0  0  0
   38.8630   23.4130   30.2870 H   0  0  0  0  0  0  0  0  0  0  0  0
   36.6310   22.0330   33.7910 H   0  0  0  0  0  0  0  0  0  0  0  0
   39.6800   19.8260   32.1390 H   0  0  0  0  0  0  0  0  0  0  0  0
  1 31  1  0  0  0  0
  1  6  1  0  0  0  0
  2  1  2  0  0  0  0
  3  2  1  0  0  0  0
  3  4  2  0  0  0  0
  4  5  1  0  0  0  0
  5 10  1  0  0  0  0
  5  6  2  0  0  0  0
  6 11  1  0  0  0  0
  7  2  1  0  0  0  0
  8  3  1  0  0  0  0
  9  4  1  0  0  0  0
 11 17  1  6  0  0  0
 11 16  1  0  0  0  0
 12 19  1  0  0  0  0
 12 11  1  0  0  0  0
 12 13  1  0  0  0  0
 13 14  1  0  0  0  0
 14 22  1  0  0  0  0
 14 15  1  0  0  0  0
 14 23  1  0  0  0  0
 15 24  1  0  0  0  0
 16 26  1  1  0  0  0
 16 15  1  0  0  0  0
 16 27  1  0  0  0  0
 18 12  1  0  0  0  0
 20 13  1  0  0  0  0
 21 13  1  0  0  0  0
 25 15  1  0  0  0  0
 27 28  1  0  0  0  0
 28 29  1  0  0  0  0
 30 35  2  0  0  0  0
 30 31  1  0  0  0  0
 31 32  2  0  0  0  0
 32 33  1  0  0  0  0
 32 37  1  0  0  0  0
 34 38  1  0  0  0  0
 34 33  2  0  0  0  0
 35 34  1  0  0  0  0
 36 30  1  0  0  0  0
M  END
>  <minimizedAffinity>
-4.92727375

$$$$

 OpenBabel03272506123D

 38 40  0  0  1  0  0  0  0  0999 V2000
   37.3290   25.9160   32.3460 C   0  0  0  0  0  0  0  0  0  0  0  0
   37.0730   24.5400   32.2840 C   0  0  0  0  0  0  0  0  0  0  0  0
   35.9850   23.9950   31.6280 C   0  0  0  0  0  0  0  0  0  0  0  0
   35.0800   24.8480   30.9810 C   0  0  0  0  0  0  0  0  0  0  0  0
   35.3570   26.2020   31.0590 C   0  0  0  0  0  0  0  0  0  0  0  0
   36.4380   26.7690   31.7140 C   0  0  0  0  0  0  0  0  0  0  0  0
   37.7380   23.8210   32.7690 H   0  0  0  0  0  0  0  0  0  0  0  0
   35.8610   22.9240   31.6320 H   0  0  0  0  0  0  0  0  0  0  0  0
   34.2630   24.3820   30.4910 H   0  0  0  0  0  0  0  0  0  0  0  0
   34.5940   26.7410   30.5130 H   0  0  0  0  0  0  0  0  0  0  0  0
   36.5900   28.1930   31.8550 C   0  0  1  0  0  0  0  0  0  0  0  0
   36.7240   28.7430   30.3820 C   0  0  0  0  0  0  0  0  0  0  0  0
   37.0460   30.2370   30.4070 C   0  0  0  0  0  0  0  0  0  0  0  0
   36.1670   30.9520   31.3860 C   0  0  0  0  0  0  0  0  0  0  0  0
   34.9640   30.0970   31.6360 C   0  0  0  0  0  0  0  0  0  0  0  0
   35.4190   28.9070   32.4560 C   0  0  2  0  0  0  0  0  0  0  0  0
   37.4010   28.7090   32.2580 H   0  0  0  0  0  0  0  0  0  0  0  0
   37.5620   28.2270   29.9110 H   0  0  0  0  0  0  0  0  0  0  0  0
   35.7990   28.5430   29.8600 H   0  0  0  0  0  0  0  0  0  0  0  0
   38.1080   30.3360   30.7430 H   0  0  0  0  0  0  0  0  0  0  0  0
   36.9520   30.5830   29.3810 H   0  0  0  0  0  0  0  0  0  0  0  0
   36.6720   31.2510   32.3010 H   0  0  0  0  0  0  0  0  0  0  0  0
   35.7890   31.9100   30.9200 H   0  0  0  0  0  0  0  0  0  0  0  0
   34.2100   30.6320   32.2610 H   0  0  0  0  0  0  0  0  0  0  0  0
   34.4640   29.8130   30.7100 H   0  0  0  0  0  0  0  0  0  0  0  0
   34.5130   28.3070   32.6320 H   0  0  0  0  0  0  0  0  0  0  0  0
   35.7560   29.4130   33.8790 C   0  0  0  0  0  2  0  0  0  0  0  0
   34.4370   29.7550   34.5340 C   0  0  0  0  0  2  0  0  0  0  0  0
   34.2010   30.8350   34.3960 H   0  0  0  0  0  0  0  0  0  0  0  0
   38.5090   26.4670   34.4120 C   0  0  0  0  0  0  0  0  0  0  0  0
   38.5510   26.2780   32.9850 C   0  0  0  0  0  0  0  0  0  0  0  0
   39.7630   26.4520   32.3820 C   0  0  0  0  0  0  0  0  0  0  0  0
   40.8410   26.7790   33.1260 N   0  0  0  0  0  0  0  0  0  0  0  0
   40.7730   26.9530   34.4860 C   0  0  0  0  0  0  0  0  0  0  0  0
   39.5790   26.7960   35.1500 N   0  0  0  0  0  0  0  0  0  0  0  0
   37.6240   26.3620   35.0200 H   0  0  0  0  0  0  0  0  0  0  0  0
   40.0480   26.4470   31.3760 H   0  0  0  0  0  0  0  0  0  0  0  0
   41.6520   27.2190   35.0810 H   0  0  0  0  0  0  0  0  0  0  0  0
  1 31  1  0  0  0  0
  2  1  1  0  0  0  0
  2  7  1  0  0  0  0
  3  8  1  0  0  0  0
  3  2  2  0  0  0  0
  4  5  2  0  0  0  0
  4  3  1  0  0  0  0
  5  6  1  0  0  0  0
  6 11  1  0  0  0  0
  6  1  2  0  0  0  0
  9  4  1  0  0  0  0
 10  5  1  0  0  0  0
 11 17  1  1  0  0  0
 11 16  1  0  0  0  0
 12 13  1  0  0  0  0
 12 11  1  0  0  0  0
 13 20  1  0  0  0  0
 13 14  1  0  0  0  0
 14 15  1  0  0  0  0
 14 22  1  0  0  0  0
 15 24  1  0  0  0  0
 15 16  1  0  0  0  0
 16 26  1  1  0  0  0
 16 27  1  0  0  0  0
 18 12  1  0  0  0  0
 19 12  1  0  0  0  0
 21 13  1  0  0  0  0
 23 14  1  0  0  0  0
 25 15  1  0  0  0  0
 27 28  1  0  0  0  0
 29 28  1  0  0  0  0
 30 36  1  0  0  0  0
 30 35  1  0  0  0  0
 31 30  2  0  0  0  0
 32 31  1  0  0  0  0
 32 33  2  0  0  0  0
 33 34  1  0  0  0  0
 34 38  1  0  0  0  0
 34 35  2  0  0  0  0
 37 32  1  0  0  0  0
M  END
>  <minimizedAffinity>
-4.8584466

$$$$

 OpenBabel03272506123D

 38 40  0  0  1  0  0  0  0  0999 V2000
   39.4820   25.5290   34.4390 C   0  0  0  0  0  0  0  0  0  0  0  0
   40.6000   26.3410   34.6700 C   0  0  0  0  0  0  0  0  0  0  0  0
   41.1430   27.1820   33.7170 C   0  0  0  0  0  0  0  0  0  0  0  0
   40.5570   27.2400   32.4440 C   0  0  0  0  0  0  0  0  0  0  0  0
   39.4560   26.4270   32.2430 C   0  0  0  0  0  0  0  0  0  0  0  0
   38.8970   25.5750   33.1830 C   0  0  0  0  0  0  0  0  0  0  0  0
   41.1050   26.3410   35.6390 H   0  0  0  0  0  0  0  0  0  0  0  0
   42.0070   27.7710   33.9780 H   0  0  0  0  0  0  0  0  0  0  0  0
   41.0090   27.9010   31.7490 H   0  0  0  0  0  0  0  0  0  0  0  0
   39.0970   26.5770   31.2330 H   0  0  0  0  0  0  0  0  0  0  0  0
   37.8270   24.6700   32.8590 C   0  0  1  0  0  0  0  0  0  0  0  0
   36.9110   25.4580   31.8440 C   0  0  0  0  0  0  0  0  0  0  0  0
   35.6480   24.6510   31.5420 C   0  0  0  0  0  0  0  0  0  0  0  0
   35.9870   23.2170   31.2730 C   0  0  0  0  0  0  0  0  0  0  0  0
   37.4340   23.1480   30.8980 C   0  0  0  0  0  0  0  0  0  0  0  0
   38.2390   23.4150   32.1530 C   0  0  2  0  0  0  0  0  0  0  0  0
   37.0650   24.3370   33.4870 H   0  0  0  0  0  0  0  0  0  0  0  0
   36.6070   26.3880   32.3250 H   0  0  0  0  0  0  0  0  0  0  0  0
   37.4850   25.6500   30.9490 H   0  0  0  0  0  0  0  0  0  0  0  0
   35.0040   24.7000   32.4550 H   0  0  0  0  0  0  0  0  0  0  0  0
   35.1550   25.1590   30.7170 H   0  0  0  0  0  0  0  0  0  0  0  0
   35.7260   22.5390   32.0820 H   0  0  0  0  0  0  0  0  0  0  0  0
   35.4040   22.8570   30.3750 H   0  0  0  0  0  0  0  0  0  0  0  0
   37.7170   22.1220   30.5630 H   0  0  0  0  0  0  0  0  0  0  0  0
   37.6780   23.8260   30.0810 H   0  0  0  0  0  0  0  0  0  0  0  0
   39.2940   23.3460   31.8470 H   0  0  0  0  0  0  0  0  0  0  0  0
   38.0890   22.1880   33.0830 C   0  0  0  0  0  2  0  0  0  0  0  0
   39.4260   21.4820   33.0800 C   0  0  0  0  0  2  0  0  0  0  0  0
   39.4410   20.6780   32.3100 H   0  0  0  0  0  0  0  0  0  0  0  0
   39.8120   23.6930   36.0150 C   0  0  0  0  0  0  0  0  0  0  0  0
   39.0120   24.8060   35.5740 C   0  0  0  0  0  0  0  0  0  0  0  0
   37.8830   25.0690   36.2940 C   0  0  0  0  0  0  0  0  0  0  0  0
   37.5740   24.3010   37.3620 N   0  0  0  0  0  0  0  0  0  0  0  0
   38.3570   23.2460   37.7600 C   0  0  0  0  0  0  0  0  0  0  0  0
   39.5050   22.9290   37.0730 N   0  0  0  0  0  0  0  0  0  0  0  0
   40.7280   23.3710   35.5450 H   0  0  0  0  0  0  0  0  0  0  0  0
   37.1060   25.7540   36.1490 H   0  0  0  0  0  0  0  0  0  0  0  0
   38.0990   22.6280   38.6270 H   0  0  0  0  0  0  0  0  0  0  0  0
  1  2  1  0  0  0  0
  1 31  1  0  0  0  0
  2  7  1  0  0  0  0
  3  8  1  0  0  0  0
  3  2  2  0  0  0  0
  4  3  1  0  0  0  0
  5  4  2  0  0  0  0
  5  6  1  0  0  0  0
  6  1  2  0  0  0  0
  9  4  1  0  0  0  0
 10  5  1  0  0  0  0
 11  6  1  0  0  0  0
 11 17  1  1  0  0  0
 12 18  1  0  0  0  0
 12 11  1  0  0  0  0
 13 12  1  0  0  0  0
 13 20  1  0  0  0  0
 14 13  1  0  0  0  0
 14 22  1  0  0  0  0
 15 14  1  0  0  0  0
 15 16  1  0  0  0  0
 16 26  1  6  0  0  0
 16 11  1  0  0  0  0
 16 27  1  0  0  0  0
 19 12  1  0  0  0  0
 21 13  1  0  0  0  0
 23 14  1  0  0  0  0
 24 15  1  0  0  0  0
 25 15  1  0  0  0  0
 28 27  1  0  0  0  0
 29 28  1  0  0  0  0
 30 35  1  0  0  0  0
 31 30  2  0  0  0  0
 31 32  1  0  0  0  0
 32 33  2  0  0  0  0
 33 34  1  0  0  0  0
 34 38  1  0  0  0  0
 35 34  2  0  0  0  0
 36 30  1  0  0  0  0
 37 32  1  0  0  0  0
M  END
>  <minimizedAffinity>
-4.84617758

$$$$
