
 OpenBabel03272507503D

 22 23  0  0  0  0  0  0  0  0999 V2000
   37.1580   31.4790   48.6760 N   0  0  0  0  0  0  0  0  0  0  0  0
   37.1980   32.4960   49.5410 C   0  0  0  0  0  0  0  0  0  0  0  0
   38.1740   33.4790   49.4530 C   0  0  0  0  0  0  0  0  0  0  0  0
   39.0540   33.2770   48.4050 C   0  0  0  0  0  0  0  0  0  0  0  0
   39.9690   34.1650   48.2930 O   0  0  0  0  0  0  0  0  0  0  0  0
   39.0540   32.2710   47.5100 N   0  0  0  0  0  0  0  0  0  0  0  0
   38.0650   31.3540   47.6710 C   0  0  0  0  0  0  0  0  0  0  0  0
   38.0470   30.4090   46.8490 O   0  0  0  0  0  0  0  0  0  0  0  0
   36.4710   32.6030   50.3440 H   0  0  0  0  0  0  0  0  0  0  0  0
   38.2600   34.3070   50.1050 H   0  0  0  0  0  0  0  0  0  0  0  0
   39.7710   32.2230   46.7580 H   0  0  0  0  0  0  0  0  0  0  0  0
   36.3860   29.3990   49.6840 C   0  0  0  0  0  0  0  0  0  0  0  0
   36.1710   30.4590   48.7540 C   0  0  0  0  0  0  0  0  0  0  0  0
   35.0080   30.4380   47.9730 C   0  0  0  0  0  0  0  0  0  0  0  0
   34.1420   29.4020   48.1440 N   0  0  0  0  0  0  0  0  0  0  0  0
   34.3530   28.4150   49.0170 C   0  0  0  0  0  0  0  0  0  0  0  0
   35.4580   28.4090   49.7800 N   0  0  0  0  0  0  0  0  0  0  0  0
   34.8700   31.2410   47.2860 H   0  0  0  0  0  0  0  0  0  0  0  0
   33.6810   27.5900   49.1660 H   0  0  0  0  0  0  0  0  0  0  0  0
   37.5830   29.3170   50.5600 C   0  0  0  0  0  0  0  0  0  0  0  0
   37.2790   29.8670   51.9210 C   0  0  0  0  0  0  0  0  0  0  0  0
   37.1430   29.0270   52.6370 H   0  0  0  0  0  0  0  0  0  0  0  0
  1 13  1  0  0  0  0
  1  2  1  0  0  0  0
  2  9  1  0  0  0  0
  3  2  2  0  0  0  0
  3 10  1  0  0  0  0
  4  3  1  0  0  0  0
  5  4  2  0  0  0  0
  6  7  1  0  0  0  0
  6  4  1  0  0  0  0
  7  1  1  0  0  0  0
  8  7  2  0  0  0  0
 11  6  1  0  0  0  0
 12 17  1  0  0  0  0
 12 20  1  0  0  0  0
 13 12  2  0  0  0  0
 14 15  2  0  0  0  0
 14 13  1  0  0  0  0
 15 16  1  0  0  0  0
 16 19  1  0  0  0  0
 16 17  2  0  0  0  0
 18 14  1  0  0  0  0
 20 21  1  0  0  0  0
 21 22  1  0  0  0  0
M  END
>  <minimizedAffinity>
-5.49474525

>  <minimizedRMSD>
0.588912606

$$$$
