
 OpenBabel03272509063D

 27 28  0  0  0  0  0  0  0  0999 V2000
   35.9280   29.2260   33.4960 C   0  0  0  0  0  0  0  0  0  0  0  0
   36.8100   29.8110   33.1530 H   0  0  0  0  0  0  0  0  0  0  0  0
   35.2860   29.0570   32.6070 H   0  0  0  0  0  0  0  0  0  0  0  0
   35.2030   30.0130   34.5360 C   0  0  0  0  0  0  0  0  0  0  0  0
   33.8480   29.9470   34.7990 C   0  0  0  0  0  0  0  0  0  0  0  0
   33.3030   30.7310   35.7960 C   0  0  0  0  0  0  0  0  0  0  0  0
   34.0800   31.6010   36.5560 C   0  0  0  0  0  0  0  0  0  0  0  0
   35.4340   31.6740   36.3000 C   0  0  0  0  0  0  0  0  0  0  0  0
   35.9740   30.8850   35.3010 C   0  0  0  0  0  0  0  0  0  0  0  0
   33.2790   29.2590   34.1870 H   0  0  0  0  0  0  0  0  0  0  0  0
   32.2330   30.5960   35.9120 H   0  0  0  0  0  0  0  0  0  0  0  0
   33.5460   32.1560   37.2990 H   0  0  0  0  0  0  0  0  0  0  0  0
   36.0220   32.3550   36.9010 H   0  0  0  0  0  0  0  0  0  0  0  0
   37.0410   31.0030   35.1650 H   0  0  0  0  0  0  0  0  0  0  0  0
   37.5820   27.5590   34.3630 C   0  0  0  0  0  3  0  0  0  0  0  0
   36.4090   27.9240   33.9690 C   0  0  0  0  0  3  0  0  0  0  0  0
   38.1740   23.9510   34.3870 C   0  0  0  0  0  0  0  0  0  0  0  0
   38.1840   23.6680   35.7710 C   0  0  0  0  0  0  0  0  0  0  0  0
   37.9790   24.7520   36.6610 C   0  0  0  0  0  0  0  0  0  0  0  0
   37.7850   25.9940   36.1290 N   0  0  0  0  0  0  0  0  0  0  0  0
   37.7890   26.1940   34.7970 C   0  0  0  0  0  0  0  0  0  0  0  0
   37.9810   25.1870   33.9190 N   0  0  0  0  0  0  0  0  0  0  0  0
   38.3300   23.1330   33.6960 H   0  0  0  0  0  0  0  0  0  0  0  0
   38.3420   22.6600   36.1400 H   0  0  0  0  0  0  0  0  0  0  0  0
   37.9780   24.5120   38.1270 C   0  0  0  0  0  2  0  0  0  0  0  0
   38.8120   23.3000   38.5120 C   0  0  0  0  0  2  0  0  0  0  0  0
   38.1820   22.3800   38.5660 H   0  0  0  0  0  0  0  0  0  0  0  0
  1 16  1  0  0  0  0
  1  4  1  0  0  0  0
  2  1  1  0  0  0  0
  3  1  1  0  0  0  0
  4  5  2  0  0  0  0
  4  9  1  0  0  0  0
  5  6  1  0  0  0  0
  6 11  1  0  0  0  0
  6  7  2  0  0  0  0
  7 12  1  0  0  0  0
  8  7  1  0  0  0  0
  8 13  1  0  0  0  0
  9  8  2  0  0  0  0
 10  5  1  0  0  0  0
 14  9  1  0  0  0  0
 15 21  1  0  0  0  0
 16 15  2  0  0  0  0
 17 18  1  0  0  0  0
 18 24  1  0  0  0  0
 18 19  2  0  0  0  0
 19 25  1  0  0  0  0
 20 19  1  0  0  0  0
 21 20  2  0  0  0  0
 22 17  2  0  0  0  0
 22 21  1  0  0  0  0
 23 17  1  0  0  0  0
 25 26  1  0  0  0  0
 26 27  1  0  0  0  0
M  END
>  <minimizedAffinity>
-4.94994068

$$$$

 OpenBabel03272509063D

 27 28  0  0  0  0  0  0  0  0999 V2000
   36.3180   28.1440   33.3240 C   0  0  0  0  0  0  0  0  0  0  0  0
   35.6290   27.2900   33.1470 H   0  0  0  0  0  0  0  0  0  0  0  0
   36.4330   28.6730   32.3550 H   0  0  0  0  0  0  0  0  0  0  0  0
   37.6280   27.6160   33.8020 C   0  0  0  0  0  0  0  0  0  0  0  0
   38.6720   27.1960   32.9990 C   0  0  0  0  0  0  0  0  0  0  0  0
   39.8370   26.7290   33.5740 C   0  0  0  0  0  0  0  0  0  0  0  0
   40.0010   26.6630   34.9550 C   0  0  0  0  0  0  0  0  0  0  0  0
   38.9640   27.0800   35.7650 C   0  0  0  0  0  0  0  0  0  0  0  0
   37.8010   27.5470   35.1830 C   0  0  0  0  0  0  0  0  0  0  0  0
   38.5050   27.2640   31.9320 H   0  0  0  0  0  0  0  0  0  0  0  0
   40.5840   26.4290   32.8470 H   0  0  0  0  0  0  0  0  0  0  0  0
   40.9470   26.2840   35.2820 H   0  0  0  0  0  0  0  0  0  0  0  0
   39.1100   27.0210   36.8360 H   0  0  0  0  0  0  0  0  0  0  0  0
   37.0390   27.8530   35.8880 H   0  0  0  0  0  0  0  0  0  0  0  0
   35.6950   30.3450   34.3400 C   0  0  0  0  0  3  0  0  0  0  0  0
   35.6680   29.0580   34.2700 C   0  0  0  0  0  3  0  0  0  0  0  0
   34.7260   32.5850   37.0620 C   0  0  0  0  0  0  0  0  0  0  0  0
   33.3910   32.1900   37.3030 C   0  0  0  0  0  0  0  0  0  0  0  0
   32.8670   31.1440   36.5040 C   0  0  0  0  0  0  0  0  0  0  0  0
   33.6780   30.5860   35.5580 N   0  0  0  0  0  0  0  0  0  0  0  0
   34.9430   31.0130   35.3810 C   0  0  0  0  0  0  0  0  0  0  0  0
   35.4770   32.0060   36.1230 N   0  0  0  0  0  0  0  0  0  0  0  0
   35.1400   33.3840   37.6650 H   0  0  0  0  0  0  0  0  0  0  0  0
   32.7910   32.6680   38.0690 H   0  0  0  0  0  0  0  0  0  0  0  0
   31.4690   30.6860   36.7140 C   0  0  0  0  0  2  0  0  0  0  0  0
   31.3930   29.2040   37.0490 C   0  0  0  0  0  2  0  0  0  0  0  0
   31.2400   28.5910   36.1280 H   0  0  0  0  0  0  0  0  0  0  0  0
  1  4  1  0  0  0  0
  1 16  1  0  0  0  0
  2  1  1  0  0  0  0
  3  1  1  0  0  0  0
  4  9  1  0  0  0  0
  5  6  1  0  0  0  0
  5  4  2  0  0  0  0
  6  7  2  0  0  0  0
  7 12  1  0  0  0  0
  7  8  1  0  0  0  0
  8 13  1  0  0  0  0
  9  8  2  0  0  0  0
  9 14  1  0  0  0  0
 10  5  1  0  0  0  0
 11  6  1  0  0  0  0
 15 21  1  0  0  0  0
 16 15  2  0  0  0  0
 17 18  1  0  0  0  0
 17 23  1  0  0  0  0
 18 24  1  0  0  0  0
 19 25  1  0  0  0  0
 19 18  2  0  0  0  0
 20 19  1  0  0  0  0
 21 20  2  0  0  0  0
 21 22  1  0  0  0  0
 22 17  2  0  0  0  0
 25 26  1  0  0  0  0
 27 26  1  0  0  0  0
M  END
>  <minimizedAffinity>
-4.93417883

$$$$

 OpenBabel03272509063D

 27 28  0  0  0  0  0  0  0  0999 V2000
   37.9230   26.4240   32.8250 C   0  0  0  0  0  0  0  0  0  0  0  0
   38.9220   26.6650   32.4010 H   0  0  0  0  0  0  0  0  0  0  0  0
   37.4440   25.7010   32.1320 H   0  0  0  0  0  0  0  0  0  0  0  0
   37.1240   27.6800   32.9210 C   0  0  0  0  0  0  0  0  0  0  0  0
   36.8480   28.5430   31.8770 C   0  0  0  0  0  0  0  0  0  0  0  0
   36.0900   29.6750   32.1030 C   0  0  0  0  0  0  0  0  0  0  0  0
   35.5890   29.9850   33.3650 C   0  0  0  0  0  0  0  0  0  0  0  0
   35.8600   29.1290   34.4130 C   0  0  0  0  0  0  0  0  0  0  0  0
   36.6180   27.9980   34.1790 C   0  0  0  0  0  0  0  0  0  0  0  0
   37.2550   28.2670   30.9130 H   0  0  0  0  0  0  0  0  0  0  0  0
   35.9380   30.2750   31.2120 H   0  0  0  0  0  0  0  0  0  0  0  0
   35.0160   30.8870   33.4160 H   0  0  0  0  0  0  0  0  0  0  0  0
   35.4620   29.3860   35.3860 H   0  0  0  0  0  0  0  0  0  0  0  0
   36.7850   27.3820   35.0530 H   0  0  0  0  0  0  0  0  0  0  0  0
   38.2120   24.5010   34.4000 C   0  0  0  0  0  3  0  0  0  0  0  0
   38.1300   25.7560   34.1140 C   0  0  0  0  0  3  0  0  0  0  0  0
   37.8950   24.1110   38.0210 C   0  0  0  0  0  0  0  0  0  0  0  0
   38.9750   23.2500   38.3170 C   0  0  0  0  0  0  0  0  0  0  0  0
   39.7890   22.8300   37.2350 C   0  0  0  0  0  0  0  0  0  0  0  0
   39.4820   23.2820   35.9850 N   0  0  0  0  0  0  0  0  0  0  0  0
   38.4360   24.1020   35.7740 C   0  0  0  0  0  0  0  0  0  0  0  0
   37.6370   24.5230   36.7780 N   0  0  0  0  0  0  0  0  0  0  0  0
   37.2640   24.4390   38.8370 H   0  0  0  0  0  0  0  0  0  0  0  0
   39.1740   22.9220   39.3310 H   0  0  0  0  0  0  0  0  0  0  0  0
   40.9400   21.9250   37.4880 C   0  0  0  0  0  2  0  0  0  0  0  0
   42.1860   22.3520   36.7260 C   0  0  0  0  0  2  0  0  0  0  0  0
   42.2530   21.8320   35.7410 H   0  0  0  0  0  0  0  0  0  0  0  0
  1  4  1  0  0  0  0
  1 16  1  0  0  0  0
  2  1  1  0  0  0  0
  3  1  1  0  0  0  0
  4  9  1  0  0  0  0
  5  6  1  0  0  0  0
  5  4  2  0  0  0  0
  6  7  2  0  0  0  0
  7 12  1  0  0  0  0
  7  8  1  0  0  0  0
  8 13  1  0  0  0  0
  9  8  2  0  0  0  0
  9 14  1  0  0  0  0
 10  5  1  0  0  0  0
 11  6  1  0  0  0  0
 15 21  1  0  0  0  0
 16 15  2  0  0  0  0
 17 18  1  0  0  0  0
 17 23  1  0  0  0  0
 18 24  1  0  0  0  0
 19 25  1  0  0  0  0
 19 18  2  0  0  0  0
 20 19  1  0  0  0  0
 21 20  2  0  0  0  0
 21 22  1  0  0  0  0
 22 17  2  0  0  0  0
 26 25  1  0  0  0  0
 27 26  1  0  0  0  0
M  END
>  <minimizedAffinity>
-4.87296104

$$$$

 OpenBabel03272509063D

 27 28  0  0  0  0  0  0  0  0999 V2000
   35.5040   30.0830   33.6570 C   0  0  0  0  0  0  0  0  0  0  0  0
   36.2960   30.7450   33.2450 H   0  0  0  0  0  0  0  0  0  0  0  0
   34.7220   29.9870   32.8750 H   0  0  0  0  0  0  0  0  0  0  0  0
   34.9490   30.7060   34.8930 C   0  0  0  0  0  0  0  0  0  0  0  0
   35.6400   31.5280   35.7640 C   0  0  0  0  0  0  0  0  0  0  0  0
   35.0020   32.0430   36.8750 C   0  0  0  0  0  0  0  0  0  0  0  0
   33.6680   31.7590   37.1550 C   0  0  0  0  0  0  0  0  0  0  0  0
   32.9700   30.9400   36.2920 C   0  0  0  0  0  0  0  0  0  0  0  0
   33.6140   30.4280   35.1820 C   0  0  0  0  0  0  0  0  0  0  0  0
   36.6740   31.7240   35.5110 H   0  0  0  0  0  0  0  0  0  0  0  0
   35.6420   32.6730   37.4830 H   0  0  0  0  0  0  0  0  0  0  0  0
   33.2850   32.2160   38.0440 H   0  0  0  0  0  0  0  0  0  0  0  0
   31.9350   30.7310   36.5260 H   0  0  0  0  0  0  0  0  0  0  0  0
   32.9970   29.7950   34.5570 H   0  0  0  0  0  0  0  0  0  0  0  0
   36.4980   27.8720   33.0320 C   0  0  0  0  0  3  0  0  0  0  0  0
   36.0940   28.7580   33.8780 C   0  0  0  0  0  3  0  0  0  0  0  0
   37.8530   24.4820   33.2140 C   0  0  0  0  0  0  0  0  0  0  0  0
   38.1470   24.3600   34.5910 C   0  0  0  0  0  0  0  0  0  0  0  0
   37.8570   25.4720   35.4200 C   0  0  0  0  0  0  0  0  0  0  0  0
   37.3170   26.5840   34.8430 N   0  0  0  0  0  0  0  0  0  0  0  0
   37.0630   26.6330   33.5210 C   0  0  0  0  0  0  0  0  0  0  0  0
   37.3250   25.5940   32.6990 N   0  0  0  0  0  0  0  0  0  0  0  0
   38.0700   23.6410   32.5680 H   0  0  0  0  0  0  0  0  0  0  0  0
   38.5760   23.4510   34.9980 H   0  0  0  0  0  0  0  0  0  0  0  0
   38.1440   25.3990   36.8770 C   0  0  0  0  0  2  0  0  0  0  0  0
   37.7410   24.0600   37.4760 C   0  0  0  0  0  2  0  0  0  0  0  0
   36.7050   24.1000   37.8880 H   0  0  0  0  0  0  0  0  0  0  0  0
  1 16  1  0  0  0  0
  1  4  1  0  0  0  0
  2  1  1  0  0  0  0
  3  1  1  0  0  0  0
  4  9  2  0  0  0  0
  4  5  1  0  0  0  0
  5  6  2  0  0  0  0
  6  7  1  0  0  0  0
  6 11  1  0  0  0  0
  7 12  1  0  0  0  0
  8 13  1  0  0  0  0
  8  7  2  0  0  0  0
  9  8  1  0  0  0  0
 10  5  1  0  0  0  0
 14  9  1  0  0  0  0
 15 21  1  0  0  0  0
 15 16  2  0  0  0  0
 17 18  1  0  0  0  0
 18 24  1  0  0  0  0
 18 19  2  0  0  0  0
 19 25  1  0  0  0  0
 20 19  1  0  0  0  0
 21 20  2  0  0  0  0
 22 17  2  0  0  0  0
 22 21  1  0  0  0  0
 23 17  1  0  0  0  0
 25 26  1  0  0  0  0
 26 27  1  0  0  0  0
M  END
>  <minimizedAffinity>
-4.81358719

$$$$

 OpenBabel03272509063D

 27 28  0  0  0  0  0  0  0  0999 V2000
   36.9450   22.5930   30.9520 C   0  0  0  0  0  0  0  0  0  0  0  0
   36.4520   22.6070   29.9560 H   0  0  0  0  0  0  0  0  0  0  0  0
   38.0320   22.4560   30.7730 H   0  0  0  0  0  0  0  0  0  0  0  0
   36.3900   21.4620   31.7500 C   0  0  0  0  0  0  0  0  0  0  0  0
   36.0850   21.4960   33.0970 C   0  0  0  0  0  0  0  0  0  0  0  0
   35.5710   20.3740   33.7150 C   0  0  0  0  0  0  0  0  0  0  0  0
   35.3490   19.1880   33.0190 C   0  0  0  0  0  0  0  0  0  0  0  0
   35.6500   19.1440   31.6730 C   0  0  0  0  0  0  0  0  0  0  0  0
   36.1630   20.2720   31.0610 C   0  0  0  0  0  0  0  0  0  0  0  0
   36.2720   22.4350   33.6020 H   0  0  0  0  0  0  0  0  0  0  0  0
   35.3700   20.5180   34.7710 H   0  0  0  0  0  0  0  0  0  0  0  0
   34.9480   18.3870   33.6050 H   0  0  0  0  0  0  0  0  0  0  0  0
   35.4700   18.2140   31.1490 H   0  0  0  0  0  0  0  0  0  0  0  0
   36.3730   20.1530   30.0060 H   0  0  0  0  0  0  0  0  0  0  0  0
   37.1460   25.0750   31.2000 C   0  0  0  0  0  3  0  0  0  0  0  0
   36.7450   23.9070   31.5720 C   0  0  0  0  0  3  0  0  0  0  0  0
   35.6360   28.2000   32.3520 C   0  0  0  0  0  0  0  0  0  0  0  0
   36.2180   28.3500   33.6300 C   0  0  0  0  0  0  0  0  0  0  0  0
   37.1300   27.3510   34.0530 C   0  0  0  0  0  0  0  0  0  0  0  0
   37.3870   26.3130   33.2060 N   0  0  0  0  0  0  0  0  0  0  0  0
   36.7950   26.2310   31.9990 C   0  0  0  0  0  0  0  0  0  0  0  0
   35.9220   27.1630   31.5610 N   0  0  0  0  0  0  0  0  0  0  0  0
   34.9380   28.9560   32.0150 H   0  0  0  0  0  0  0  0  0  0  0  0
   35.9790   29.1980   34.2630 H   0  0  0  0  0  0  0  0  0  0  0  0
   37.7730   27.4580   35.3880 C   0  0  0  0  0  2  0  0  0  0  0  0
   39.2360   27.0410   35.3570 C   0  0  0  0  0  2  0  0  0  0  0  0
   39.3510   25.9610   35.6130 H   0  0  0  0  0  0  0  0  0  0  0  0
  1 16  1  0  0  0  0
  1  4  1  0  0  0  0
  2  1  1  0  0  0  0
  3  1  1  0  0  0  0
  4  5  1  0  0  0  0
  5 10  1  0  0  0  0
  5  6  2  0  0  0  0
  6 11  1  0  0  0  0
  7 12  1  0  0  0  0
  7  6  1  0  0  0  0
  8  7  2  0  0  0  0
  9  8  1  0  0  0  0
  9  4  2  0  0  0  0
 13  8  1  0  0  0  0
 14  9  1  0  0  0  0
 15 16  2  0  0  0  0
 15 21  1  0  0  0  0
 17 18  1  0  0  0  0
 18 19  2  0  0  0  0
 18 24  1  0  0  0  0
 19 25  1  0  0  0  0
 20 19  1  0  0  0  0
 21 20  2  0  0  0  0
 22 21  1  0  0  0  0
 22 17  2  0  0  0  0
 23 17  1  0  0  0  0
 26 25  1  0  0  0  0
 26 27  1  0  0  0  0
M  END
>  <minimizedAffinity>
-4.81033182

$$$$

 OpenBabel03272509063D

 27 28  0  0  0  0  0  0  0  0999 V2000
   34.0630   29.6680   33.7520 C   0  0  0  0  0  0  0  0  0  0  0  0
   33.7120   30.2750   32.8890 H   0  0  0  0  0  0  0  0  0  0  0  0
   33.3170   28.8600   33.9040 H   0  0  0  0  0  0  0  0  0  0  0  0
   34.1490   30.5460   34.9550 C   0  0  0  0  0  0  0  0  0  0  0  0
   33.1350   30.7700   35.8660 C   0  0  0  0  0  0  0  0  0  0  0  0
   33.3490   31.6090   36.9420 C   0  0  0  0  0  0  0  0  0  0  0  0
   34.5700   32.2480   37.1440 C   0  0  0  0  0  0  0  0  0  0  0  0
   35.5890   32.0310   36.2390 C   0  0  0  0  0  0  0  0  0  0  0  0
   35.3670   31.1900   35.1650 C   0  0  0  0  0  0  0  0  0  0  0  0
   32.2020   30.2550   35.6740 H   0  0  0  0  0  0  0  0  0  0  0  0
   32.4840   31.7080   37.5880 H   0  0  0  0  0  0  0  0  0  0  0  0
   34.6160   32.8730   38.0120 H   0  0  0  0  0  0  0  0  0  0  0  0
   36.5300   32.5360   36.4130 H   0  0  0  0  0  0  0  0  0  0  0  0
   36.2160   31.0740   34.5040 H   0  0  0  0  0  0  0  0  0  0  0  0
   35.6530   28.3360   32.3510 C   0  0  0  0  0  3  0  0  0  0  0  0
   35.3390   29.0500   33.3790 C   0  0  0  0  0  3  0  0  0  0  0  0
   38.8540   27.2570   30.9520 C   0  0  0  0  0  0  0  0  0  0  0  0
   39.5870   26.9380   32.1170 C   0  0  0  0  0  0  0  0  0  0  0  0
   38.9360   27.1070   33.3640 C   0  0  0  0  0  0  0  0  0  0  0  0
   37.6500   27.5640   33.3640 N   0  0  0  0  0  0  0  0  0  0  0  0
   37.0100   27.8510   32.2140 C   0  0  0  0  0  0  0  0  0  0  0  0
   37.5960   27.7030   31.0070 N   0  0  0  0  0  0  0  0  0  0  0  0
   39.3380   27.1340   29.9920 H   0  0  0  0  0  0  0  0  0  0  0  0
   40.6080   26.5760   32.0590 H   0  0  0  0  0  0  0  0  0  0  0  0
   39.6580   26.7840   34.6220 C   0  0  0  0  0  2  0  0  0  0  0  0
   38.8560   27.1590   35.8590 C   0  0  0  0  0  2  0  0  0  0  0  0
   39.1160   28.1860   36.2110 H   0  0  0  0  0  0  0  0  0  0  0  0
  1  3  1  0  0  0  0
  1  4  1  0  0  0  0
  2  1  1  0  0  0  0
  4  9  2  0  0  0  0
  4  5  1  0  0  0  0
  5  6  2  0  0  0  0
  6  7  1  0  0  0  0
  6 11  1  0  0  0  0
  7 12  1  0  0  0  0
  8 13  1  0  0  0  0
  8  7  2  0  0  0  0
  9  8  1  0  0  0  0
 10  5  1  0  0  0  0
 14  9  1  0  0  0  0
 15 16  2  0  0  0  0
 16  1  1  0  0  0  0
 17 22  2  0  0  0  0
 17 18  1  0  0  0  0
 18 19  2  0  0  0  0
 19 25  1  0  0  0  0
 20 19  1  0  0  0  0
 21 15  1  0  0  0  0
 21 20  2  0  0  0  0
 22 21  1  0  0  0  0
 23 17  1  0  0  0  0
 24 18  1  0  0  0  0
 25 26  1  0  0  0  0
 26 27  1  0  0  0  0
M  END
>  <minimizedAffinity>
-4.69647837

$$$$

 OpenBabel03272509063D

 27 28  0  0  0  0  0  0  0  0999 V2000
   38.9390   24.2660   34.4490 C   0  0  0  0  0  0  0  0  0  0  0  0
   38.5250   23.4040   33.8810 H   0  0  0  0  0  0  0  0  0  0  0  0
   39.9620   24.4490   34.0600 H   0  0  0  0  0  0  0  0  0  0  0  0
   38.9740   23.9170   35.8990 C   0  0  0  0  0  0  0  0  0  0  0  0
   39.9220   23.1240   36.5150 C   0  0  0  0  0  0  0  0  0  0  0  0
   39.8390   22.8800   37.8720 C   0  0  0  0  0  0  0  0  0  0  0  0
   38.8150   23.4120   38.6530 C   0  0  0  0  0  0  0  0  0  0  0  0
   37.8630   24.2050   38.0450 C   0  0  0  0  0  0  0  0  0  0  0  0
   37.9540   24.4450   36.6870 C   0  0  0  0  0  0  0  0  0  0  0  0
   40.7010   22.7300   35.8750 H   0  0  0  0  0  0  0  0  0  0  0  0
   40.6360   22.2470   38.2450 H   0  0  0  0  0  0  0  0  0  0  0  0
   38.8560   23.1540   39.6910 H   0  0  0  0  0  0  0  0  0  0  0  0
   37.0760   24.6090   38.6680 H   0  0  0  0  0  0  0  0  0  0  0  0
   37.1690   25.0750   36.2900 H   0  0  0  0  0  0  0  0  0  0  0  0
   38.4630   26.6430   33.8260 C   0  0  0  0  0  3  0  0  0  0  0  0
   38.1170   25.4420   34.1440 C   0  0  0  0  0  3  0  0  0  0  0  0
   35.7180   29.0260   34.2240 C   0  0  0  0  0  0  0  0  0  0  0  0
   35.5490   29.4970   32.9030 C   0  0  0  0  0  0  0  0  0  0  0  0
   36.4010   28.9630   31.9050 C   0  0  0  0  0  0  0  0  0  0  0  0
   37.3270   28.0320   32.2790 N   0  0  0  0  0  0  0  0  0  0  0  0
   37.4350   27.6280   33.5590 C   0  0  0  0  0  0  0  0  0  0  0  0
   36.6420   28.1140   34.5370 N   0  0  0  0  0  0  0  0  0  0  0  0
   35.0740   29.4260   34.9970 H   0  0  0  0  0  0  0  0  0  0  0  0
   34.7950   30.2380   32.6610 H   0  0  0  0  0  0  0  0  0  0  0  0
   36.2660   29.4210   30.4980 C   0  0  0  0  0  2  0  0  0  0  0  0
   37.4480   28.9960   29.6390 C   0  0  0  0  0  2  0  0  0  0  0  0
   38.2300   29.7910   29.6100 H   0  0  0  0  0  0  0  0  0  0  0  0
  1  4  1  0  0  0  0
  2  1  1  0  0  0  0
  3  1  1  0  0  0  0
  4  5  2  0  0  0  0
  4  9  1  0  0  0  0
  5  6  1  0  0  0  0
  6 11  1  0  0  0  0
  6  7  2  0  0  0  0
  7 12  1  0  0  0  0
  8  7  1  0  0  0  0
  8 13  1  0  0  0  0
  9  8  2  0  0  0  0
 10  5  1  0  0  0  0
 14  9  1  0  0  0  0
 15 16  2  0  0  0  0
 16  1  1  0  0  0  0
 17 22  1  0  0  0  0
 17 23  1  0  0  0  0
 18 17  2  0  0  0  0
 19 20  2  0  0  0  0
 19 18  1  0  0  0  0
 20 21  1  0  0  0  0
 21 15  1  0  0  0  0
 21 22  2  0  0  0  0
 24 18  1  0  0  0  0
 25 19  1  0  0  0  0
 26 25  1  0  0  0  0
 27 26  1  0  0  0  0
M  END
>  <minimizedAffinity>
-4.64182329

$$$$

 OpenBabel03272509063D

 27 28  0  0  0  0  0  0  0  0999 V2000
   39.2860   24.2510   34.4350 C   0  0  0  0  0  0  0  0  0  0  0  0
   39.0060   23.3300   33.8790 H   0  0  0  0  0  0  0  0  0  0  0  0
   40.3630   24.4330   34.2400 H   0  0  0  0  0  0  0  0  0  0  0  0
   39.0370   24.0300   35.8890 C   0  0  0  0  0  0  0  0  0  0  0  0
   38.0420   24.6290   36.6390 C   0  0  0  0  0  0  0  0  0  0  0  0
   37.9190   24.3320   37.9810 C   0  0  0  0  0  0  0  0  0  0  0  0
   38.7770   23.4400   38.6190 C   0  0  0  0  0  0  0  0  0  0  0  0
   39.7740   22.8370   37.8790 C   0  0  0  0  0  0  0  0  0  0  0  0
   39.8900   23.1380   36.5350 C   0  0  0  0  0  0  0  0  0  0  0  0
   37.3950   25.3160   36.1070 H   0  0  0  0  0  0  0  0  0  0  0  0
   37.1050   24.8600   38.4660 H   0  0  0  0  0  0  0  0  0  0  0  0
   38.5840   23.2900   39.6610 H   0  0  0  0  0  0  0  0  0  0  0  0
   40.4310   22.1470   38.3910 H   0  0  0  0  0  0  0  0  0  0  0  0
   40.6970   22.6240   36.0290 H   0  0  0  0  0  0  0  0  0  0  0  0
   37.6650   25.3900   32.9060 C   0  0  0  0  0  3  0  0  0  0  0  0
   38.5230   25.3680   33.8690 C   0  0  0  0  0  3  0  0  0  0  0  0
   36.2040   28.1470   30.9990 C   0  0  0  0  0  0  0  0  0  0  0  0
   35.8260   29.0410   32.0260 C   0  0  0  0  0  0  0  0  0  0  0  0
   36.0990   28.6540   33.3610 C   0  0  0  0  0  0  0  0  0  0  0  0
   36.7040   27.4500   33.5730 N   0  0  0  0  0  0  0  0  0  0  0  0
   37.0360   26.6440   32.5470 C   0  0  0  0  0  0  0  0  0  0  0  0
   36.7940   26.9780   31.2610 N   0  0  0  0  0  0  0  0  0  0  0  0
   36.0010   28.4290   29.9740 H   0  0  0  0  0  0  0  0  0  0  0  0
   35.3480   29.9880   31.8010 H   0  0  0  0  0  0  0  0  0  0  0  0
   35.7250   29.5570   34.4810 C   0  0  0  0  0  2  0  0  0  0  0  0
   34.3620   30.2000   34.2710 C   0  0  0  0  0  2  0  0  0  0  0  0
   34.4600   31.1930   33.7710 H   0  0  0  0  0  0  0  0  0  0  0  0
  1  4  1  0  0  0  0
  2  1  1  0  0  0  0
  3  1  1  0  0  0  0
  4  9  2  0  0  0  0
  4  5  1  0  0  0  0
  5  6  2  0  0  0  0
  6 11  1  0  0  0  0
  6  7  1  0  0  0  0
  7 12  1  0  0  0  0
  8 13  1  0  0  0  0
  8  7  2  0  0  0  0
  9  8  1  0  0  0  0
 10  5  1  0  0  0  0
 14  9  1  0  0  0  0
 15 16  2  0  0  0  0
 16  1  1  0  0  0  0
 17 22  2  0  0  0  0
 17 18  1  0  0  0  0
 18 19  2  0  0  0  0
 19 20  1  0  0  0  0
 19 25  1  0  0  0  0
 21 15  1  0  0  0  0
 21 20  2  0  0  0  0
 22 21  1  0  0  0  0
 23 17  1  0  0  0  0
 24 18  1  0  0  0  0
 26 25  1  0  0  0  0
 27 26  1  0  0  0  0
M  END
>  <minimizedAffinity>
-4.60382175

$$$$

 OpenBabel03272509063D

 27 28  0  0  0  0  0  0  0  0999 V2000
   36.5040   28.1380   34.3900 C   0  0  0  0  0  0  0  0  0  0  0  0
   35.4160   28.1290   34.6200 H   0  0  0  0  0  0  0  0  0  0  0  0
   36.9500   28.9740   34.9690 H   0  0  0  0  0  0  0  0  0  0  0  0
   36.6840   28.3490   32.9240 C   0  0  0  0  0  0  0  0  0  0  0  0
   37.5610   27.6560   32.1110 C   0  0  0  0  0  0  0  0  0  0  0  0
   37.6270   27.9500   30.7630 C   0  0  0  0  0  0  0  0  0  0  0  0
   36.8310   28.9360   30.1860 C   0  0  0  0  0  0  0  0  0  0  0  0
   35.9530   29.6340   30.9900 C   0  0  0  0  0  0  0  0  0  0  0  0
   35.8920   29.3340   32.3380 C   0  0  0  0  0  0  0  0  0  0  0  0
   38.1610   26.8980   32.5970 H   0  0  0  0  0  0  0  0  0  0  0  0
   38.3480   27.3430   30.2260 H   0  0  0  0  0  0  0  0  0  0  0  0
   36.9710   29.0740   29.1340 H   0  0  0  0  0  0  0  0  0  0  0  0
   35.3430   30.3960   30.5240 H   0  0  0  0  0  0  0  0  0  0  0  0
   35.1800   29.9260   32.8970 H   0  0  0  0  0  0  0  0  0  0  0  0
   38.0600   26.6730   35.6920 C   0  0  0  0  0  3  0  0  0  0  0  0
   37.0780   26.8820   34.8820 C   0  0  0  0  0  3  0  0  0  0  0  0
   37.9920   23.2610   37.0030 C   0  0  0  0  0  0  0  0  0  0  0  0
   39.2400   22.7590   36.5720 C   0  0  0  0  0  0  0  0  0  0  0  0
   40.0750   23.6340   35.8340 C   0  0  0  0  0  0  0  0  0  0  0  0
   39.6260   24.8990   35.5870 N   0  0  0  0  0  0  0  0  0  0  0  0
   38.4220   25.3120   36.0280 C   0  0  0  0  0  0  0  0  0  0  0  0
   37.5990   24.5080   36.7340 N   0  0  0  0  0  0  0  0  0  0  0  0
   37.3430   22.6030   37.5670 H   0  0  0  0  0  0  0  0  0  0  0  0
   39.5480   21.7440   36.7970 H   0  0  0  0  0  0  0  0  0  0  0  0
   41.4000   23.1600   35.3560 C   0  0  0  0  0  2  0  0  0  0  0  0
   42.4360   23.1310   36.4690 C   0  0  0  0  0  2  0  0  0  0  0  0
   43.0160   24.0840   36.5040 H   0  0  0  0  0  0  0  0  0  0  0  0
  1  2  1  0  0  0  0
  1 16  1  0  0  0  0
  1  3  1  0  0  0  0
  4  1  1  0  0  0  0
  5 10  1  0  0  0  0
  5  4  2  0  0  0  0
  6  5  1  0  0  0  0
  7  6  2  0  0  0  0
  7  8  1  0  0  0  0
  8  9  2  0  0  0  0
  9 14  1  0  0  0  0
  9  4  1  0  0  0  0
 11  6  1  0  0  0  0
 12  7  1  0  0  0  0
 13  8  1  0  0  0  0
 15 21  1  0  0  0  0
 16 15  2  0  0  0  0
 17 23  1  0  0  0  0
 18 24  1  0  0  0  0
 18 17  2  0  0  0  0
 19 18  1  0  0  0  0
 20 19  2  0  0  0  0
 20 21  1  0  0  0  0
 21 22  2  0  0  0  0
 22 17  1  0  0  0  0
 25 19  1  0  0  0  0
 25 26  1  0  0  0  0
 26 27  1  0  0  0  0
M  END
>  <minimizedAffinity>
-4.58013916

$$$$
