
 OpenBabel03272503363D

 13 13  0  0  0  0  0  0  0  0999 V2000
   37.3620   30.1370   51.0400 C   0  0  0  0  0  0  0  0  0  0  0  0
   38.1950   31.0170   50.3320 C   0  0  0  0  0  0  0  0  0  0  0  0
   37.7400   31.5510   49.1300 C   0  0  0  0  0  0  0  0  0  0  0  0
   36.4860   31.1780   48.7070 N   0  0  0  0  0  0  0  0  0  0  0  0
   35.7020   30.3280   49.4060 C   0  0  0  0  0  0  0  0  0  0  0  0
   36.1490   29.8160   50.5660 N   0  0  0  0  0  0  0  0  0  0  0  0
   39.1850   31.3290   50.6410 H   0  0  0  0  0  0  0  0  0  0  0  0
   34.7300   30.0760   49.0160 H   0  0  0  0  0  0  0  0  0  0  0  0
   37.9420   29.6820   52.2170 O   0  0  0  0  0  0  0  0  0  0  0  0
   38.6120   28.9390   52.1430 H   0  0  0  0  0  0  0  0  0  0  0  0
   38.5750   32.4870   48.3380 C   0  0  0  0  0  0  0  0  0  0  0  0
   38.9630   33.6370   49.2630 C   0  0  0  0  0  0  0  0  0  0  0  0
   38.2020   34.4410   49.2250 H   0  0  0  0  0  0  0  0  0  0  0  0
  1  9  1  0  0  0  0
  2  7  1  0  0  0  0
  2  1  2  0  0  0  0
  3  2  1  0  0  0  0
  4  3  2  0  0  0  0
  4  5  1  0  0  0  0
  5  6  2  0  0  0  0
  6  1  1  0  0  0  0
  8  5  1  0  0  0  0
 10  9  1  0  0  0  0
 11  3  1  0  0  0  0
 11 12  1  0  0  0  0
 13 12  1  0  0  0  0
M  END
>  <minimizedAffinity>
-4.28455544

>  <minimizedRMSD>
0.570919812

$$$$
