
 OpenBabel03272510033D

 15 15  0  0  0  0  0  0  0  0999 V2000
   38.1340   22.7080   34.9050 C   0  0  0  0  0  0  0  0  0  0  0  0
   38.1580   23.9460   34.2610 C   0  0  0  0  0  0  0  0  0  0  0  0
   38.1920   25.1100   35.0500 C   0  0  0  0  0  0  0  0  0  0  0  0
   38.1970   24.9480   36.4000 N   0  0  0  0  0  0  0  0  0  0  0  0
   38.1730   23.7500   36.9830 C   0  0  0  0  0  0  0  0  0  0  0  0
   38.1410   22.6330   36.2350 N   0  0  0  0  0  0  0  0  0  0  0  0
   38.1080   21.8410   34.2830 H   0  0  0  0  0  0  0  0  0  0  0  0
   38.1540   24.1040   33.1910 H   0  0  0  0  0  0  0  0  0  0  0  0
   38.1790   23.6770   38.4650 C   0  0  0  0  0  0  0  0  0  0  0  0
   39.4240   23.4150   38.9970 F   0  0  0  0  0  0  0  0  0  0  0  0
   37.7540   24.8670   39.0290 F   0  0  0  0  0  0  0  0  0  0  0  0
   37.3200   22.7130   38.9560 F   0  0  0  0  0  0  0  0  0  0  0  0
   38.2210   26.4900   34.5530 C   0  0  0  0  0  2  0  0  0  0  0  0
   38.4460   27.5170   35.6260 C   0  0  0  0  0  2  0  0  0  0  0  0
   39.4980   27.5350   35.9730 H   0  0  0  0  0  0  0  0  0  0  0  0
  1  6  1  0  0  0  0
  2  1  2  0  0  0  0
  2  3  1  0  0  0  0
  3  4  2  0  0  0  0
  4  5  1  0  0  0  0
  5  9  1  0  0  0  0
  6  5  2  0  0  0  0
  7  1  1  0  0  0  0
  8  2  1  0  0  0  0
  9 12  1  0  0  0  0
  9 10  1  0  0  0  0
  9 11  1  0  0  0  0
 13  3  1  0  0  0  0
 13 14  1  0  0  0  0
 14 15  1  0  0  0  0
M  END
>  <minimizedAffinity>
-4.28185368

$$$$

 OpenBabel03272510033D

 15 15  0  0  0  0  0  0  0  0999 V2000
   39.1460   22.2770   35.0630 C   0  0  0  0  0  0  0  0  0  0  0  0
   40.5270   22.0810   35.1140 C   0  0  0  0  0  0  0  0  0  0  0  0
   41.2050   22.4070   36.3020 C   0  0  0  0  0  0  0  0  0  0  0  0
   40.4620   22.8950   37.3310 N   0  0  0  0  0  0  0  0  0  0  0  0
   39.1420   23.0690   37.2490 C   0  0  0  0  0  0  0  0  0  0  0  0
   38.4880   22.7600   36.1150 N   0  0  0  0  0  0  0  0  0  0  0  0
   38.6560   22.0220   34.1500 H   0  0  0  0  0  0  0  0  0  0  0  0
   41.1420   21.6960   34.3130 H   0  0  0  0  0  0  0  0  0  0  0  0
   38.4190   23.6100   38.4250 C   0  0  0  0  0  0  0  0  0  0  0  0
   37.3840   22.8050   38.8520 F   0  0  0  0  0  0  0  0  0  0  0  0
   39.2660   23.7670   39.5080 F   0  0  0  0  0  0  0  0  0  0  0  0
   37.8860   24.8640   38.1950 F   0  0  0  0  0  0  0  0  0  0  0  0
   42.6460   22.2690   36.5400 C   0  0  0  0  0  2  0  0  0  0  0  0
   43.3870   23.5760   36.5440 C   0  0  0  0  0  2  0  0  0  0  0  0
   43.2080   24.1550   37.4720 H   0  0  0  0  0  0  0  0  0  0  0  0
  1  2  2  0  0  0  0
  1  6  1  0  0  0  0
  2  3  1  0  0  0  0
  3 13  1  0  0  0  0
  3  4  2  0  0  0  0
  5  4  1  0  0  0  0
  5  9  1  0  0  0  0
  6  5  2  0  0  0  0
  7  1  1  0  0  0  0
  8  2  1  0  0  0  0
  9 10  1  0  0  0  0
  9 11  1  0  0  0  0
 12  9  1  0  0  0  0
 13 14  1  0  0  0  0
 14 15  1  0  0  0  0
M  END
>  <minimizedAffinity>
-3.98948717

$$$$

 OpenBabel03272510033D

 15 15  0  0  0  0  0  0  0  0999 V2000
   40.0780   22.9560   35.0410 C   0  0  0  0  0  0  0  0  0  0  0  0
   39.1090   22.2850   34.2940 C   0  0  0  0  0  0  0  0  0  0  0  0
   37.8560   22.0460   34.8860 C   0  0  0  0  0  0  0  0  0  0  0  0
   37.6720   22.4880   36.1580 N   0  0  0  0  0  0  0  0  0  0  0  0
   38.6200   23.1270   36.8440 C   0  0  0  0  0  0  0  0  0  0  0  0
   39.8210   23.3590   36.2840 N   0  0  0  0  0  0  0  0  0  0  0  0
   41.0200   23.1240   34.5690 H   0  0  0  0  0  0  0  0  0  0  0  0
   39.2270   21.9220   33.2830 H   0  0  0  0  0  0  0  0  0  0  0  0
   38.3250   23.5700   38.2290 C   0  0  0  0  0  0  0  0  0  0  0  0
   39.4100   23.4860   39.0750 F   0  0  0  0  0  0  0  0  0  0  0  0
   37.9060   24.8880   38.2570 F   0  0  0  0  0  0  0  0  0  0  0  0
   37.3000   22.8500   38.8130 F   0  0  0  0  0  0  0  0  0  0  0  0
   36.7210   21.3600   34.2590 C   0  0  0  0  0  2  0  0  0  0  0  0
   35.7360   20.7920   35.2410 C   0  0  0  0  0  2  0  0  0  0  0  0
   35.1070   21.5800   35.7040 H   0  0  0  0  0  0  0  0  0  0  0  0
  1  6  1  0  0  0  0
  2  3  1  0  0  0  0
  2  1  2  0  0  0  0
  3  4  2  0  0  0  0
  4  5  1  0  0  0  0
  5  9  1  0  0  0  0
  6  5  2  0  0  0  0
  7  1  1  0  0  0  0
  8  2  1  0  0  0  0
  9 11  1  0  0  0  0
  9 12  1  0  0  0  0
  9 10  1  0  0  0  0
 13  3  1  0  0  0  0
 13 14  1  0  0  0  0
 14 15  1  0  0  0  0
M  END
>  <minimizedAffinity>
-3.93351078

$$$$

 OpenBabel03272510033D

 15 15  0  0  0  0  0  0  0  0999 V2000
   38.7770   23.2760   34.1250 C   0  0  0  0  0  0  0  0  0  0  0  0
   38.2830   22.7960   35.3380 C   0  0  0  0  0  0  0  0  0  0  0  0
   38.1840   23.6900   36.4200 C   0  0  0  0  0  0  0  0  0  0  0  0
   38.5820   24.9730   36.2070 N   0  0  0  0  0  0  0  0  0  0  0  0
   39.0500   25.3980   35.0340 C   0  0  0  0  0  0  0  0  0  0  0  0
   39.1460   24.5490   33.9960 N   0  0  0  0  0  0  0  0  0  0  0  0
   38.8420   22.5770   33.3200 H   0  0  0  0  0  0  0  0  0  0  0  0
   37.9600   21.7830   35.5360 H   0  0  0  0  0  0  0  0  0  0  0  0
   39.4610   26.8170   34.9010 C   0  0  0  0  0  0  0  0  0  0  0  0
   38.9950   27.4180   33.7500 F   0  0  0  0  0  0  0  0  0  0  0  0
   38.9930   27.5780   35.9570 F   0  0  0  0  0  0  0  0  0  0  0  0
   40.8330   26.9800   34.9140 F   0  0  0  0  0  0  0  0  0  0  0  0
   37.6910   23.3690   37.7640 C   0  0  0  0  0  2  0  0  0  0  0  0
   37.9330   24.4540   38.7740 C   0  0  0  0  0  2  0  0  0  0  0  0
   37.2430   25.3120   38.6390 H   0  0  0  0  0  0  0  0  0  0  0  0
  1  2  1  0  0  0  0
  2  8  1  0  0  0  0
  2  3  2  0  0  0  0
  3 13  1  0  0  0  0
  4  3  1  0  0  0  0
  5  4  2  0  0  0  0
  6  1  2  0  0  0  0
  6  5  1  0  0  0  0
  7  1  1  0  0  0  0
  9 12  1  0  0  0  0
  9  5  1  0  0  0  0
  9 11  1  0  0  0  0
 10  9  1  0  0  0  0
 13 14  1  0  0  0  0
 15 14  1  0  0  0  0
M  END
>  <minimizedAffinity>
-3.78521633

$$$$

 OpenBabel03272510033D

 15 15  0  0  0  0  0  0  0  0999 V2000
   38.3080   27.2180   35.5950 C   0  0  0  0  0  0  0  0  0  0  0  0
   38.1300   26.7330   34.2990 C   0  0  0  0  0  0  0  0  0  0  0  0
   37.9600   25.3480   34.1210 C   0  0  0  0  0  0  0  0  0  0  0  0
   37.9810   24.5690   35.2350 N   0  0  0  0  0  0  0  0  0  0  0  0
   38.1530   25.0660   36.4600 C   0  0  0  0  0  0  0  0  0  0  0  0
   38.3160   26.3890   36.6370 N   0  0  0  0  0  0  0  0  0  0  0  0
   38.4350   28.2730   35.7020 H   0  0  0  0  0  0  0  0  0  0  0  0
   38.1100   27.3280   33.3960 H   0  0  0  0  0  0  0  0  0  0  0  0
   38.1640   24.1330   37.6140 C   0  0  0  0  0  0  0  0  0  0  0  0
   39.3540   23.4510   37.7580 F   0  0  0  0  0  0  0  0  0  0  0  0
   37.9500   24.8040   38.8050 F   0  0  0  0  0  0  0  0  0  0  0  0
   37.1610   23.1850   37.5450 F   0  0  0  0  0  0  0  0  0  0  0  0
   37.7610   24.6590   32.8410 C   0  0  0  0  0  2  0  0  0  0  0  0
   36.5000   25.0560   32.1280 C   0  0  0  0  0  2  0  0  0  0  0  0
   36.5800   26.0610   31.6660 H   0  0  0  0  0  0  0  0  0  0  0  0
  1  7  1  0  0  0  0
  1  6  1  0  0  0  0
  2  1  2  0  0  0  0
  3  2  1  0  0  0  0
  3  4  2  0  0  0  0
  4  5  1  0  0  0  0
  5  6  2  0  0  0  0
  5  9  1  0  0  0  0
  8  2  1  0  0  0  0
  9 10  1  0  0  0  0
  9 11  1  0  0  0  0
 12  9  1  0  0  0  0
 13  3  1  0  0  0  0
 14 13  1  0  0  0  0
 15 14  1  0  0  0  0
M  END
>  <minimizedAffinity>
-3.64909577

$$$$

 OpenBabel03272510033D

 15 15  0  0  0  0  0  0  0  0999 V2000
   37.9900   21.8150   30.6330 C   0  0  0  0  0  0  0  0  0  0  0  0
   37.6670   23.1670   30.7540 C   0  0  0  0  0  0  0  0  0  0  0  0
   36.4860   23.5130   31.4360 C   0  0  0  0  0  0  0  0  0  0  0  0
   35.7330   22.4970   31.9350 N   0  0  0  0  0  0  0  0  0  0  0  0
   36.0720   21.2150   31.8010 C   0  0  0  0  0  0  0  0  0  0  0  0
   37.1990   20.8770   31.1500 N   0  0  0  0  0  0  0  0  0  0  0  0
   38.8910   21.5790   30.1100 H   0  0  0  0  0  0  0  0  0  0  0  0
   38.2450   23.9950   30.3670 H   0  0  0  0  0  0  0  0  0  0  0  0
   35.1830   20.1770   32.3790 C   0  0  0  0  0  0  0  0  0  0  0  0
   35.5510   18.8910   32.0450 F   0  0  0  0  0  0  0  0  0  0  0  0
   35.1740   20.2360   33.7610 F   0  0  0  0  0  0  0  0  0  0  0  0
   33.8640   20.3310   31.9990 F   0  0  0  0  0  0  0  0  0  0  0  0
   35.9860   24.8740   31.6620 C   0  0  0  0  0  2  0  0  0  0  0  0
   34.8060   25.2370   30.8060 C   0  0  0  0  0  2  0  0  0  0  0  0
   33.8730   24.7500   31.1540 H   0  0  0  0  0  0  0  0  0  0  0  0
  1  2  2  0  0  0  0
  1  6  1  0  0  0  0
  2  3  1  0  0  0  0
  3 13  1  0  0  0  0
  3  4  2  0  0  0  0
  5  4  1  0  0  0  0
  5  9  1  0  0  0  0
  6  5  2  0  0  0  0
  7  1  1  0  0  0  0
  8  2  1  0  0  0  0
  9 11  1  0  0  0  0
 10  9  1  0  0  0  0
 12  9  1  0  0  0  0
 14 15  1  0  0  0  0
 14 13  1  0  0  0  0
M  END
>  <minimizedAffinity>
-3.55559373

$$$$

 OpenBabel03272510033D

 15 15  0  0  0  0  0  0  0  0999 V2000
   40.9710   25.1630   34.4740 C   0  0  0  0  0  0  0  0  0  0  0  0
   40.1970   26.3140   34.6300 C   0  0  0  0  0  0  0  0  0  0  0  0
   39.0700   26.2520   35.4690 C   0  0  0  0  0  0  0  0  0  0  0  0
   38.8070   25.0650   36.0760 N   0  0  0  0  0  0  0  0  0  0  0  0
   39.5680   23.9830   35.9050 C   0  0  0  0  0  0  0  0  0  0  0  0
   40.6470   24.0350   35.1040 N   0  0  0  0  0  0  0  0  0  0  0  0
   41.8200   25.2360   33.8320 H   0  0  0  0  0  0  0  0  0  0  0  0
   40.3810   27.2700   34.1600 H   0  0  0  0  0  0  0  0  0  0  0  0
   39.1980   22.7310   36.6090 C   0  0  0  0  0  0  0  0  0  0  0  0
   40.2820   21.9410   36.9300 F   0  0  0  0  0  0  0  0  0  0  0  0
   38.5420   22.9970   37.7970 F   0  0  0  0  0  0  0  0  0  0  0  0
   38.3270   21.9450   35.8800 F   0  0  0  0  0  0  0  0  0  0  0  0
   38.1430   27.3540   35.7530 C   0  0  0  0  0  2  0  0  0  0  0  0
   37.1380   27.5980   34.6630 C   0  0  0  0  0  2  0  0  0  0  0  0
   36.3420   26.8260   34.6500 H   0  0  0  0  0  0  0  0  0  0  0  0
  1  2  2  0  0  0  0
  1  6  1  0  0  0  0
  2  3  1  0  0  0  0
  3 13  1  0  0  0  0
  3  4  2  0  0  0  0
  5  4  1  0  0  0  0
  5  9  1  0  0  0  0
  6  5  2  0  0  0  0
  7  1  1  0  0  0  0
  8  2  1  0  0  0  0
  9 10  1  0  0  0  0
  9 11  1  0  0  0  0
 12  9  1  0  0  0  0
 14 13  1  0  0  0  0
 15 14  1  0  0  0  0
M  END
>  <minimizedAffinity>
-3.55521989

$$$$

 OpenBabel03272510033D

 15 15  0  0  0  0  0  0  0  0999 V2000
   38.6590   23.3500   38.0370 C   0  0  0  0  0  0  0  0  0  0  0  0
   37.8420   23.1690   36.9210 C   0  0  0  0  0  0  0  0  0  0  0  0
   38.3570   22.4550   35.8240 C   0  0  0  0  0  0  0  0  0  0  0  0
   39.6290   21.9860   35.9270 N   0  0  0  0  0  0  0  0  0  0  0  0
   40.3830   22.1760   37.0100 C   0  0  0  0  0  0  0  0  0  0  0  0
   39.8960   22.8580   38.0620 N   0  0  0  0  0  0  0  0  0  0  0  0
   38.2440   23.8950   38.8560 H   0  0  0  0  0  0  0  0  0  0  0  0
   36.8290   23.5310   36.8110 H   0  0  0  0  0  0  0  0  0  0  0  0
   41.7610   21.6260   37.0260 C   0  0  0  0  0  0  0  0  0  0  0  0
   42.0490   20.8340   35.9350 F   0  0  0  0  0  0  0  0  0  0  0  0
   42.7050   22.6370   37.0380 F   0  0  0  0  0  0  0  0  0  0  0  0
   42.0220   20.8710   38.1530 F   0  0  0  0  0  0  0  0  0  0  0  0
   37.6500   22.1670   34.5710 C   0  0  0  0  0  2  0  0  0  0  0  0
   37.9800   23.1180   33.4560 C   0  0  0  0  0  2  0  0  0  0  0  0
   38.9840   22.9260   33.0270 H   0  0  0  0  0  0  0  0  0  0  0  0
  1  6  1  0  0  0  0
  1  7  1  0  0  0  0
  2  1  2  0  0  0  0
  3  4  2  0  0  0  0
  3  2  1  0  0  0  0
  4  5  1  0  0  0  0
  5  9  1  0  0  0  0
  5  6  2  0  0  0  0
  8  2  1  0  0  0  0
  9 11  1  0  0  0  0
  9 12  1  0  0  0  0
 10  9  1  0  0  0  0
 13  3  1  0  0  0  0
 14 13  1  0  0  0  0
 15 14  1  0  0  0  0
M  END
>  <minimizedAffinity>
-3.55387378

$$$$

 OpenBabel03272510033D

 15 15  0  0  0  0  0  0  0  0999 V2000
   39.8540   26.0630   34.3620 C   0  0  0  0  0  0  0  0  0  0  0  0
   38.8950   27.0010   33.9790 C   0  0  0  0  0  0  0  0  0  0  0  0
   37.6750   27.0330   34.6780 C   0  0  0  0  0  0  0  0  0  0  0  0
   37.5110   26.1390   35.6890 N   0  0  0  0  0  0  0  0  0  0  0  0
   38.4490   25.2550   36.0300 C   0  0  0  0  0  0  0  0  0  0  0  0
   39.6180   25.2190   35.3650 N   0  0  0  0  0  0  0  0  0  0  0  0
   40.7710   26.0590   33.8160 H   0  0  0  0  0  0  0  0  0  0  0  0
   38.9970   27.7220   33.1800 H   0  0  0  0  0  0  0  0  0  0  0  0
   38.1760   24.3180   37.1460 C   0  0  0  0  0  0  0  0  0  0  0  0
   37.0250   23.5780   36.9730 F   0  0  0  0  0  0  0  0  0  0  0  0
   39.2060   23.4080   37.3040 F   0  0  0  0  0  0  0  0  0  0  0  0
   38.0640   24.9570   38.3660 F   0  0  0  0  0  0  0  0  0  0  0  0
   36.5540   27.9440   34.4190 C   0  0  0  0  0  2  0  0  0  0  0  0
   36.4640   28.4040   32.9920 C   0  0  0  0  0  2  0  0  0  0  0  0
   36.0770   27.6100   32.3210 H   0  0  0  0  0  0  0  0  0  0  0  0
  1  6  1  0  0  0  0
  2  1  2  0  0  0  0
  2  3  1  0  0  0  0
  3  4  2  0  0  0  0
  4  5  1  0  0  0  0
  5  9  1  0  0  0  0
  6  5  2  0  0  0  0
  7  1  1  0  0  0  0
  8  2  1  0  0  0  0
  9 11  1  0  0  0  0
  9 12  1  0  0  0  0
 10  9  1  0  0  0  0
 13  3  1  0  0  0  0
 14 13  1  0  0  0  0
 15 14  1  0  0  0  0
M  END
>  <minimizedAffinity>
-3.55221987

$$$$
