
 OpenBabel03272510013D

 15 15  0  0  0  0  0  0  0  0999 V2000
   38.2700   31.3180   50.1650 C   0  0  0  0  0  0  0  0  0  0  0  0
   38.4270   31.4380   48.7830 C   0  0  0  0  0  0  0  0  0  0  0  0
   37.4610   30.8480   47.9480 C   0  0  0  0  0  0  0  0  0  0  0  0
   36.4310   30.1960   48.5480 N   0  0  0  0  0  0  0  0  0  0  0  0
   36.3100   30.1010   49.8720 C   0  0  0  0  0  0  0  0  0  0  0  0
   37.2300   30.6620   50.6770 N   0  0  0  0  0  0  0  0  0  0  0  0
   39.0160   31.7740   50.7770 H   0  0  0  0  0  0  0  0  0  0  0  0
   39.2350   31.9490   48.2790 H   0  0  0  0  0  0  0  0  0  0  0  0
   35.1510   29.3660   50.4330 C   0  0  0  0  0  0  0  0  0  0  0  0
   35.2610   29.1160   51.7850 F   0  0  0  0  0  0  0  0  0  0  0  0
   33.9750   30.0730   50.2600 F   0  0  0  0  0  0  0  0  0  0  0  0
   34.9380   28.1490   49.8140 F   0  0  0  0  0  0  0  0  0  0  0  0
   37.4600   30.8700   46.4800 C   0  0  0  0  0  2  0  0  0  0  0  0
   38.8070   30.6160   45.8680 C   0  0  0  0  0  2  0  0  0  0  0  0
   39.1000   29.5470   45.9330 H   0  0  0  0  0  0  0  0  0  0  0  0
  1  6  1  0  0  0  0
  1  7  1  0  0  0  0
  2  1  2  0  0  0  0
  3  4  2  0  0  0  0
  3  2  1  0  0  0  0
  4  5  1  0  0  0  0
  5  9  1  0  0  0  0
  5  6  2  0  0  0  0
  8  2  1  0  0  0  0
  9 10  1  0  0  0  0
 11  9  1  0  0  0  0
 12  9  1  0  0  0  0
 13  3  1  0  0  0  0
 14 15  1  0  0  0  0
 14 13  1  0  0  0  0
M  END
>  <minimizedAffinity>
-4.5953517

>  <minimizedRMSD>
0.404736608

$$$$
