
 OpenBabel03272508383D

 38 40  0  0  1  0  0  0  0  0999 V2000
   37.5280   26.3730   33.1090 C   0  0  0  0  0  0  0  0  0  0  0  0
   38.5310   26.3350   32.6950 H   0  0  0  0  0  0  0  0  0  0  0  0
   37.1140   27.3390   32.6810 H   0  0  0  0  0  0  0  0  0  0  0  0
   36.1770   23.3130   31.8040 C   0  0  0  0  0  0  0  0  0  0  0  0
   35.4450   24.2460   31.0920 C   0  0  0  0  0  0  0  0  0  0  0  0
   35.8850   25.5110   31.5110 C   0  0  0  0  0  0  0  0  0  0  0  0
   36.8280   25.2950   32.4260 N   0  0  0  0  0  0  0  0  0  0  0  0
   37.0060   23.9830   32.6040 N   0  0  0  0  0  0  0  0  0  0  0  0
   34.6650   24.0200   30.3370 H   0  0  0  0  0  0  0  0  0  0  0  0
   35.4230   26.3110   31.0570 H   0  0  0  0  0  0  0  0  0  0  0  0
   34.9160   19.7850   32.0110 C   0  0  0  0  0  0  0  0  0  0  0  0
   35.0010   21.1520   32.2590 C   0  0  0  0  0  0  0  0  0  0  0  0
   35.9920   21.8960   31.6380 C   0  0  0  0  0  0  0  0  0  0  0  0
   36.8140   21.1970   30.8190 N   0  0  0  0  0  0  0  0  0  0  0  0
   36.7210   19.8700   30.5870 C   0  0  0  0  0  0  0  0  0  0  0  0
   35.7700   19.1690   31.1860 N   0  0  0  0  0  0  0  0  0  0  0  0
   34.1080   19.3280   32.5510 H   0  0  0  0  0  0  0  0  0  0  0  0
   34.3410   21.6980   32.9120 H   0  0  0  0  0  0  0  0  0  0  0  0
   37.4160   19.3810   29.9190 H   0  0  0  0  0  0  0  0  0  0  0  0
   37.2480   26.3760   34.5300 C   0  0  0  0  0  0  0  0  0  0  0  0
   36.9540   27.3940   34.8980 H   0  0  0  0  0  0  0  0  0  0  0  0
   36.3030   25.7780   34.6970 H   0  0  0  0  0  0  0  0  0  0  0  0
   38.2210   25.8930   35.4030 N   0  0  0  0  0  0  0  0  0  0  0  0
   39.5560   26.2670   35.1510 C   0  0  0  0  0  0  0  0  0  0  0  0
   40.5120   25.1720   34.8450 C   0  0  0  0  0  0  0  0  0  0  0  0
   40.3030   24.0450   35.6460 O   0  0  0  0  0  0  0  0  0  0  0  0
   39.0130   23.6210   35.5680 C   0  0  0  0  0  0  0  0  0  0  0  0
   38.0710   24.6620   36.0300 C   0  0  1  0  0  0  0  0  0  0  0  0
   39.7840   27.1880   34.6440 H   0  0  0  0  0  0  0  0  0  0  0  0
   39.8230   26.5850   36.2190 H   0  0  0  0  0  0  0  0  0  0  0  0
   41.5050   25.5230   35.3280 H   0  0  0  0  0  0  0  0  0  0  0  0
   40.8890   25.0310   33.8560 H   0  0  0  0  0  0  0  0  0  0  0  0
   38.9660   22.8550   36.4110 H   0  0  0  0  0  0  0  0  0  0  0  0
   38.7230   23.0110   34.7170 H   0  0  0  0  0  0  0  0  0  0  0  0
   37.0390   24.2800   35.7950 H   0  0  0  0  0  0  0  0  0  0  0  0
   38.0790   24.7960   37.5520 C   0  0  0  0  0  2  0  0  0  0  0  0
   37.9630   23.4590   38.2250 C   0  0  0  0  0  2  0  0  0  0  0  0
   36.9500   23.0350   38.2500 H   0  0  0  0  0  0  0  0  0  0  0  0
  1 20  1  0  0  0  0
  2  1  1  0  0  0  0
  3  1  1  0  0  0  0
  4  8  2  0  0  0  0
  5  6  2  0  0  0  0
  5  4  1  0  0  0  0
  6  7  1  0  0  0  0
  7  8  1  0  0  0  0
  7  1  1  0  0  0  0
  9  5  1  0  0  0  0
 10  6  1  0  0  0  0
 11 12  1  0  0  0  0
 11 17  1  0  0  0  0
 12 18  1  0  0  0  0
 13  4  1  0  0  0  0
 13 12  2  0  0  0  0
 14 13  1  0  0  0  0
 15 14  2  0  0  0  0
 15 16  1  0  0  0  0
 16 11  2  0  0  0  0
 19 15  1  0  0  0  0
 20 22  1  0  0  0  0
 20 21  1  0  0  0  0
 20 23  1  0  0  0  0
 23 28  1  0  0  0  0
 24 23  1  0  0  0  0
 24 30  1  0  0  0  0
 25 24  1  0  0  0  0
 25 31  1  0  0  0  0
 25 26  1  0  0  0  0
 27 26  1  0  0  0  0
 27 28  1  0  0  0  0
 27 33  1  0  0  0  0
 28 35  1  6  0  0  0
 28 36  1  0  0  0  0
 29 24  1  0  0  0  0
 32 25  1  0  0  0  0
 34 27  1  0  0  0  0
 36 37  1  0  0  0  0
 37 38  1  0  0  0  0
M  END
>  <minimizedAffinity>
-5.00625467

$$$$

 OpenBabel03272508383D

 38 40  0  0  1  0  0  0  0  0999 V2000
   37.7860   23.6730   33.1950 C   0  0  0  0  0  0  0  0  0  0  0  0
   37.0620   23.1780   33.8350 H   0  0  0  0  0  0  0  0  0  0  0  0
   38.0390   22.8710   32.4330 H   0  0  0  0  0  0  0  0  0  0  0  0
   36.2250   26.5780   31.7760 C   0  0  0  0  0  0  0  0  0  0  0  0
   35.5250   25.5690   31.1410 C   0  0  0  0  0  0  0  0  0  0  0  0
   36.0420   24.3540   31.6180 C   0  0  0  0  0  0  0  0  0  0  0  0
   37.0000   24.6720   32.4870 N   0  0  0  0  0  0  0  0  0  0  0  0
   37.1120   25.9990   32.5850 N   0  0  0  0  0  0  0  0  0  0  0  0
   34.7110   25.7100   30.4020 H   0  0  0  0  0  0  0  0  0  0  0  0
   35.6070   23.5070   31.2280 H   0  0  0  0  0  0  0  0  0  0  0  0
   36.2740   30.0780   30.4250 C   0  0  0  0  0  0  0  0  0  0  0  0
   36.6200   28.7380   30.5790 C   0  0  0  0  0  0  0  0  0  0  0  0
   35.9660   27.9710   31.5300 C   0  0  0  0  0  0  0  0  0  0  0  0
   35.0180   28.6210   32.2470 N   0  0  0  0  0  0  0  0  0  0  0  0
   34.6910   29.9220   32.0890 C   0  0  0  0  0  0  0  0  0  0  0  0
   35.3230   30.6460   31.1760 N   0  0  0  0  0  0  0  0  0  0  0  0
   36.8520   30.5580   29.6580 H   0  0  0  0  0  0  0  0  0  0  0  0
   37.3760   28.2320   30.0030 H   0  0  0  0  0  0  0  0  0  0  0  0
   33.9220   30.3710   32.7000 H   0  0  0  0  0  0  0  0  0  0  0  0
   39.0380   24.2200   33.6780 C   0  0  0  0  0  0  0  0  0  0  0  0
   39.9170   23.6050   33.3540 H   0  0  0  0  0  0  0  0  0  0  0  0
   39.2170   25.1980   33.1390 H   0  0  0  0  0  0  0  0  0  0  0  0
   39.1830   24.4510   35.0440 N   0  0  0  0  0  0  0  0  0  0  0  0
   40.1690   23.7080   35.7230 C   0  0  0  0  0  0  0  0  0  0  0  0
   39.7000   22.7970   36.7980 C   0  0  0  0  0  0  0  0  0  0  0  0
   38.6840   23.3670   37.5710 O   0  0  0  0  0  0  0  0  0  0  0  0
   37.6550   23.7920   36.7900 C   0  0  0  0  0  0  0  0  0  0  0  0
   38.0950   24.8230   35.8250 C   0  0  1  0  0  0  0  0  0  0  0  0
   41.0390   23.3450   35.2050 H   0  0  0  0  0  0  0  0  0  0  0  0
   40.6520   24.5830   36.2830 H   0  0  0  0  0  0  0  0  0  0  0  0
   40.5420   22.8430   37.5920 H   0  0  0  0  0  0  0  0  0  0  0  0
   39.7040   21.7380   36.6640 H   0  0  0  0  0  0  0  0  0  0  0  0
   37.0330   24.3980   37.5290 H   0  0  0  0  0  0  0  0  0  0  0  0
   36.9250   23.0600   36.4570 H   0  0  0  0  0  0  0  0  0  0  0  0
   37.2230   25.0040   35.1380 H   0  0  0  0  0  0  0  0  0  0  0  0
   38.3190   26.1730   36.5040 C   0  0  0  0  0  2  0  0  0  0  0  0
   38.8010   27.2090   35.5290 C   0  0  0  0  0  2  0  0  0  0  0  0
   39.8660   27.1440   35.2690 H   0  0  0  0  0  0  0  0  0  0  0  0
  1 20  1  0  0  0  0
  1  2  1  0  0  0  0
  3  1  1  0  0  0  0
  4  8  2  0  0  0  0
  5  6  2  0  0  0  0
  5  4  1  0  0  0  0
  6  7  1  0  0  0  0
  7  8  1  0  0  0  0
  7  1  1  0  0  0  0
  9  5  1  0  0  0  0
 10  6  1  0  0  0  0
 11 12  2  0  0  0  0
 11 16  1  0  0  0  0
 12 13  1  0  0  0  0
 13  4  1  0  0  0  0
 13 14  2  0  0  0  0
 15 14  1  0  0  0  0
 15 19  1  0  0  0  0
 16 15  2  0  0  0  0
 17 11  1  0  0  0  0
 18 12  1  0  0  0  0
 20 23  1  0  0  0  0
 21 20  1  0  0  0  0
 22 20  1  0  0  0  0
 23 24  1  0  0  0  0
 23 28  1  0  0  0  0
 24 30  1  0  0  0  0
 24 25  1  0  0  0  0
 25 26  1  0  0  0  0
 25 31  1  0  0  0  0
 27 33  1  0  0  0  0
 27 26  1  0  0  0  0
 28 35  1  6  0  0  0
 28 36  1  0  0  0  0
 28 27  1  0  0  0  0
 29 24  1  0  0  0  0
 32 25  1  0  0  0  0
 34 27  1  0  0  0  0
 37 36  1  0  0  0  0
 38 37  1  0  0  0  0
M  END
>  <minimizedAffinity>
-4.88397694

$$$$

 OpenBabel03272508383D

 38 40  0  0  1  0  0  0  0  0999 V2000
   36.3820   27.4150   32.7980 C   0  0  0  0  0  0  0  0  0  0  0  0
   36.7820   26.7530   32.0370 H   0  0  0  0  0  0  0  0  0  0  0  0
   35.3150   27.0480   32.9190 H   0  0  0  0  0  0  0  0  0  0  0  0
   38.0520   25.8210   35.5480 C   0  0  0  0  0  0  0  0  0  0  0  0
   38.1440   27.1490   35.9210 C   0  0  0  0  0  0  0  0  0  0  0  0
   37.5140   27.8980   34.9150 C   0  0  0  0  0  0  0  0  0  0  0  0
   37.0860   27.0200   34.0090 N   0  0  0  0  0  0  0  0  0  0  0  0
   37.4050   25.7780   34.3840 N   0  0  0  0  0  0  0  0  0  0  0  0
   38.6250   27.5320   36.8440 H   0  0  0  0  0  0  0  0  0  0  0  0
   37.5040   28.9160   35.0640 H   0  0  0  0  0  0  0  0  0  0  0  0
   38.7250   23.3190   38.2620 C   0  0  0  0  0  0  0  0  0  0  0  0
   38.1190   24.3760   37.5880 C   0  0  0  0  0  0  0  0  0  0  0  0
   38.5980   24.7560   36.3450 C   0  0  0  0  0  0  0  0  0  0  0  0
   39.6510   24.0370   35.8860 N   0  0  0  0  0  0  0  0  0  0  0  0
   40.2310   23.0140   36.5480 C   0  0  0  0  0  0  0  0  0  0  0  0
   39.7640   22.6580   37.7360 N   0  0  0  0  0  0  0  0  0  0  0  0
   38.2610   23.1260   39.2100 H   0  0  0  0  0  0  0  0  0  0  0  0
   37.2820   24.9400   37.9640 H   0  0  0  0  0  0  0  0  0  0  0  0
   41.0690   22.4860   36.1160 H   0  0  0  0  0  0  0  0  0  0  0  0
   36.3280   28.8560   32.6560 C   0  0  0  0  0  0  0  0  0  0  0  0
   37.2810   29.3460   32.9880 H   0  0  0  0  0  0  0  0  0  0  0  0
   36.3070   29.0930   31.5510 H   0  0  0  0  0  0  0  0  0  0  0  0
   35.2820   29.5490   33.2630 N   0  0  0  0  0  0  0  0  0  0  0  0
   33.9810   29.3050   32.7790 C   0  0  0  0  0  0  0  0  0  0  0  0
   33.2610   30.4580   32.1830 C   0  0  0  0  0  0  0  0  0  0  0  0
   33.4650   31.6410   32.9000 O   0  0  0  0  0  0  0  0  0  0  0  0
   34.7920   31.9010   33.0480 C   0  0  0  0  0  0  0  0  0  0  0  0
   35.4770   30.8200   33.7890 C   0  0  1  0  0  0  0  0  0  0  0  0
   33.7300   28.3620   32.3250 H   0  0  0  0  0  0  0  0  0  0  0  0
   33.4750   29.1490   33.7950 H   0  0  0  0  0  0  0  0  0  0  0  0
   32.1560   30.2840   32.4830 H   0  0  0  0  0  0  0  0  0  0  0  0
   33.1020   30.5230   31.1290 H   0  0  0  0  0  0  0  0  0  0  0  0
   34.7820   32.7510   33.8070 H   0  0  0  0  0  0  0  0  0  0  0  0
   35.3190   32.3670   32.2210 H   0  0  0  0  0  0  0  0  0  0  0  0
   36.5780   31.0500   33.7340 H   0  0  0  0  0  0  0  0  0  0  0  0
   35.1610   30.8710   35.2820 C   0  0  0  0  0  2  0  0  0  0  0  0
   35.8750   32.0050   35.9600 C   0  0  0  0  0  2  0  0  0  0  0  0
   36.9370   31.8260   36.1740 H   0  0  0  0  0  0  0  0  0  0  0  0
  1  3  1  0  0  0  0
  1  7  1  0  0  0  0
  2  1  1  0  0  0  0
  4  5  1  0  0  0  0
  4 13  1  0  0  0  0
  5  9  1  0  0  0  0
  6 10  1  0  0  0  0
  6  5  2  0  0  0  0
  7  8  1  0  0  0  0
  7  6  1  0  0  0  0
  8  4  2  0  0  0  0
 11 17  1  0  0  0  0
 12 18  1  0  0  0  0
 12 11  2  0  0  0  0
 13 12  1  0  0  0  0
 14 13  2  0  0  0  0
 14 15  1  0  0  0  0
 15 16  2  0  0  0  0
 16 11  1  0  0  0  0
 19 15  1  0  0  0  0
 20  1  1  0  0  0  0
 20 21  1  0  0  0  0
 20 23  1  0  0  0  0
 22 20  1  0  0  0  0
 23 28  1  0  0  0  0
 24 23  1  0  0  0  0
 24 30  1  0  0  0  0
 25 31  1  0  0  0  0
 25 24  1  0  0  0  0
 25 26  1  0  0  0  0
 26 27  1  0  0  0  0
 27 28  1  0  0  0  0
 27 33  1  0  0  0  0
 28 35  1  6  0  0  0
 28 36  1  0  0  0  0
 29 24  1  0  0  0  0
 32 25  1  0  0  0  0
 34 27  1  0  0  0  0
 36 37  1  0  0  0  0
 37 38  1  0  0  0  0
M  END
>  <minimizedAffinity>
-4.87850857

$$$$

 OpenBabel03272508383D

 38 40  0  0  1  0  0  0  0  0999 V2000
   37.8330   23.2870   33.4140 C   0  0  0  0  0  0  0  0  0  0  0  0
   37.0640   22.9050   34.0790 H   0  0  0  0  0  0  0  0  0  0  0  0
   38.0500   22.4010   32.7410 H   0  0  0  0  0  0  0  0  0  0  0  0
   36.4880   26.1320   31.6850 C   0  0  0  0  0  0  0  0  0  0  0  0
   35.7560   25.1080   31.1130 C   0  0  0  0  0  0  0  0  0  0  0  0
   36.1870   23.9160   31.7140 C   0  0  0  0  0  0  0  0  0  0  0  0
   37.1290   24.2590   32.5900 N   0  0  0  0  0  0  0  0  0  0  0  0
   37.3120   25.5820   32.5760 N   0  0  0  0  0  0  0  0  0  0  0  0
   34.9780   25.2250   30.3310 H   0  0  0  0  0  0  0  0  0  0  0  0
   35.7200   23.0610   31.3830 H   0  0  0  0  0  0  0  0  0  0  0  0
   35.4440   29.7330   31.5310 C   0  0  0  0  0  0  0  0  0  0  0  0
   35.5240   28.4200   31.9880 C   0  0  0  0  0  0  0  0  0  0  0  0
   36.3160   27.5090   31.3080 C   0  0  0  0  0  0  0  0  0  0  0  0
   36.9610   28.0000   30.2220 N   0  0  0  0  0  0  0  0  0  0  0  0
   36.8760   29.2750   29.7880 C   0  0  0  0  0  0  0  0  0  0  0  0
   36.1160   30.1380   30.4470 N   0  0  0  0  0  0  0  0  0  0  0  0
   34.8010   30.3350   32.1450 H   0  0  0  0  0  0  0  0  0  0  0  0
   35.0060   28.0420   32.8530 H   0  0  0  0  0  0  0  0  0  0  0  0
   37.4210   29.5930   28.9110 H   0  0  0  0  0  0  0  0  0  0  0  0
   39.1070   23.8000   33.8770 C   0  0  0  0  0  0  0  0  0  0  0  0
   39.9490   23.0940   33.6540 H   0  0  0  0  0  0  0  0  0  0  0  0
   39.3690   24.6970   33.2390 H   0  0  0  0  0  0  0  0  0  0  0  0
   39.2310   24.1740   35.2130 N   0  0  0  0  0  0  0  0  0  0  0  0
   40.2200   23.5220   35.9760 C   0  0  0  0  0  0  0  0  0  0  0  0
   39.7530   22.7200   37.1350 C   0  0  0  0  0  0  0  0  0  0  0  0
   38.7170   23.3490   37.8330 O   0  0  0  0  0  0  0  0  0  0  0  0
   37.6910   23.6730   37.0010 C   0  0  0  0  0  0  0  0  0  0  0  0
   38.1270   24.6060   35.9390 C   0  0  1  0  0  0  0  0  0  0  0  0
   41.1030   23.1230   35.5080 H   0  0  0  0  0  0  0  0  0  0  0  0
   40.6820   24.4590   36.4480 H   0  0  0  0  0  0  0  0  0  0  0  0
   40.5830   22.8630   37.9290 H   0  0  0  0  0  0  0  0  0  0  0  0
   39.7750   21.6530   37.1110 H   0  0  0  0  0  0  0  0  0  0  0  0
   37.0510   24.3410   37.6660 H   0  0  0  0  0  0  0  0  0  0  0  0
   36.9780   22.8980   36.7380 H   0  0  0  0  0  0  0  0  0  0  0  0
   37.2610   24.6990   35.2270 H   0  0  0  0  0  0  0  0  0  0  0  0
   38.3200   26.0230   36.4760 C   0  0  0  0  0  2  0  0  0  0  0  0
   38.9190   26.9300   35.4410 C   0  0  0  0  0  2  0  0  0  0  0  0
   40.0020   26.8200   35.2940 H   0  0  0  0  0  0  0  0  0  0  0  0
  1 20  1  0  0  0  0
  1  2  1  0  0  0  0
  3  1  1  0  0  0  0
  4  8  2  0  0  0  0
  5  4  1  0  0  0  0
  5  6  2  0  0  0  0
  6  7  1  0  0  0  0
  7  1  1  0  0  0  0
  8  7  1  0  0  0  0
  9  5  1  0  0  0  0
 10  6  1  0  0  0  0
 11 12  1  0  0  0  0
 11 17  1  0  0  0  0
 12 18  1  0  0  0  0
 13  4  1  0  0  0  0
 13 12  2  0  0  0  0
 14 13  1  0  0  0  0
 15 14  2  0  0  0  0
 15 16  1  0  0  0  0
 16 11  2  0  0  0  0
 19 15  1  0  0  0  0
 20 23  1  0  0  0  0
 21 20  1  0  0  0  0
 22 20  1  0  0  0  0
 23 28  1  0  0  0  0
 23 24  1  0  0  0  0
 24 30  1  0  0  0  0
 24 25  1  0  0  0  0
 25 26  1  0  0  0  0
 25 31  1  0  0  0  0
 27 33  1  0  0  0  0
 27 26  1  0  0  0  0
 28 35  1  6  0  0  0
 28 36  1  0  0  0  0
 28 27  1  0  0  0  0
 29 24  1  0  0  0  0
 32 25  1  0  0  0  0
 34 27  1  0  0  0  0
 37 36  1  0  0  0  0
 38 37  1  0  0  0  0
M  END
>  <minimizedAffinity>
-4.85420704

$$$$

 OpenBabel03272508383D

 38 40  0  0  1  0  0  0  0  0999 V2000
   36.8820   26.9620   32.2300 C   0  0  0  0  0  0  0  0  0  0  0  0
   36.1900   26.2330   32.6380 H   0  0  0  0  0  0  0  0  0  0  0  0
   36.6680   26.9200   31.1170 H   0  0  0  0  0  0  0  0  0  0  0  0
   35.5260   29.7990   33.9630 C   0  0  0  0  0  0  0  0  0  0  0  0
   35.7290   30.3350   32.7050 C   0  0  0  0  0  0  0  0  0  0  0  0
   36.2640   29.3100   31.9100 C   0  0  0  0  0  0  0  0  0  0  0  0
   36.3580   28.2390   32.6950 N   0  0  0  0  0  0  0  0  0  0  0  0
   35.9180   28.5260   33.9230 N   0  0  0  0  0  0  0  0  0  0  0  0
   35.5050   31.3770   32.4000 H   0  0  0  0  0  0  0  0  0  0  0  0
   36.4650   29.5680   30.9350 H   0  0  0  0  0  0  0  0  0  0  0  0
   35.0770   32.1610   36.8450 C   0  0  0  0  0  0  0  0  0  0  0  0
   35.7130   31.4650   35.8200 C   0  0  0  0  0  0  0  0  0  0  0  0
   34.9870   30.5680   35.0530 C   0  0  0  0  0  0  0  0  0  0  0  0
   33.6780   30.4500   35.3840 N   0  0  0  0  0  0  0  0  0  0  0  0
   33.0720   31.1300   36.3800 C   0  0  0  0  0  0  0  0  0  0  0  0
   33.7760   31.9860   37.1070 N   0  0  0  0  0  0  0  0  0  0  0  0
   35.7490   32.8210   37.3600 H   0  0  0  0  0  0  0  0  0  0  0  0
   36.7540   31.5680   35.5660 H   0  0  0  0  0  0  0  0  0  0  0  0
   32.0210   30.9820   36.5850 H   0  0  0  0  0  0  0  0  0  0  0  0
   38.3190   26.8810   32.3960 C   0  0  0  0  0  0  0  0  0  0  0  0
   38.8110   26.3520   31.5390 H   0  0  0  0  0  0  0  0  0  0  0  0
   38.7360   27.9290   32.3040 H   0  0  0  0  0  0  0  0  0  0  0  0
   38.8260   26.3200   33.5670 N   0  0  0  0  0  0  0  0  0  0  0  0
   38.1310   25.2200   34.1080 C   0  0  0  0  0  0  0  0  0  0  0  0
   37.5470   25.3960   35.4620 C   0  0  0  0  0  0  0  0  0  0  0  0
   38.3980   26.1000   36.3200 O   0  0  0  0  0  0  0  0  0  0  0  0
   38.7680   27.2890   35.7750 C   0  0  0  0  0  0  0  0  0  0  0  0
   39.4950   27.1000   34.5020 C   0  0  1  0  0  0  0  0  0  0  0  0
   37.5550   24.5670   33.4760 H   0  0  0  0  0  0  0  0  0  0  0  0
   39.0390   24.5420   34.2770 H   0  0  0  0  0  0  0  0  0  0  0  0
   37.6600   24.3530   35.9540 H   0  0  0  0  0  0  0  0  0  0  0  0
   36.4930   25.4930   35.5990 H   0  0  0  0  0  0  0  0  0  0  0  0
   39.5960   27.6250   36.4830 H   0  0  0  0  0  0  0  0  0  0  0  0
   38.0790   28.1250   35.8500 H   0  0  0  0  0  0  0  0  0  0  0  0
   39.6300   28.1270   34.0610 H   0  0  0  0  0  0  0  0  0  0  0  0
   40.9220   26.6070   34.7340 C   0  0  0  0  0  2  0  0  0  0  0  0
   41.8690   27.1430   33.6990 C   0  0  0  0  0  2  0  0  0  0  0  0
   41.8330   26.6340   32.7260 H   0  0  0  0  0  0  0  0  0  0  0  0
  1 20  1  0  0  0  0
  1  2  1  0  0  0  0
  1  7  1  0  0  0  0
  3  1  1  0  0  0  0
  4 13  1  0  0  0  0
  5  4  1  0  0  0  0
  6  7  1  0  0  0  0
  6  5  2  0  0  0  0
  7  8  1  0  0  0  0
  8  4  2  0  0  0  0
  9  5  1  0  0  0  0
 10  6  1  0  0  0  0
 11 16  1  0  0  0  0
 11 17  1  0  0  0  0
 12 11  2  0  0  0  0
 13 14  2  0  0  0  0
 13 12  1  0  0  0  0
 14 15  1  0  0  0  0
 15 19  1  0  0  0  0
 15 16  2  0  0  0  0
 18 12  1  0  0  0  0
 20 23  1  0  0  0  0
 21 20  1  0  0  0  0
 22 20  1  0  0  0  0
 23 24  1  0  0  0  0
 23 28  1  0  0  0  0
 24 30  1  0  0  0  0
 24 25  1  0  0  0  0
 25 32  1  0  0  0  0
 25 31  1  0  0  0  0
 25 26  1  0  0  0  0
 27 34  1  0  0  0  0
 27 26  1  0  0  0  0
 27 33  1  0  0  0  0
 28 35  1  6  0  0  0
 28 36  1  0  0  0  0
 28 27  1  0  0  0  0
 29 24  1  0  0  0  0
 37 36  1  0  0  0  0
 38 37  1  0  0  0  0
M  END
>  <minimizedAffinity>
-4.81454945

$$$$

 OpenBabel03272508383D

 38 40  0  0  1  0  0  0  0  0999 V2000
   37.7740   25.7110   34.3710 C   0  0  0  0  0  0  0  0  0  0  0  0
   37.3660   24.9730   33.6870 H   0  0  0  0  0  0  0  0  0  0  0  0
   38.8350   25.8470   33.9930 H   0  0  0  0  0  0  0  0  0  0  0  0
   36.0870   28.8740   34.1760 C   0  0  0  0  0  0  0  0  0  0  0  0
   36.0270   28.4640   32.8570 C   0  0  0  0  0  0  0  0  0  0  0  0
   36.6590   27.2130   32.7910 C   0  0  0  0  0  0  0  0  0  0  0  0
   37.0620   26.9340   34.0300 N   0  0  0  0  0  0  0  0  0  0  0  0
   36.7220   27.9230   34.8600 N   0  0  0  0  0  0  0  0  0  0  0  0
   35.5610   29.0280   32.0240 H   0  0  0  0  0  0  0  0  0  0  0  0
   36.6860   26.7810   31.8580 H   0  0  0  0  0  0  0  0  0  0  0  0
   35.4300   32.0860   36.0010 C   0  0  0  0  0  0  0  0  0  0  0  0
   36.0440   30.8820   35.6670 C   0  0  0  0  0  0  0  0  0  0  0  0
   35.5380   30.1260   34.6220 C   0  0  0  0  0  0  0  0  0  0  0  0
   34.4520   30.6490   34.0020 N   0  0  0  0  0  0  0  0  0  0  0  0
   33.8650   31.8190   34.3340 C   0  0  0  0  0  0  0  0  0  0  0  0
   34.3580   32.5340   35.3350 N   0  0  0  0  0  0  0  0  0  0  0  0
   35.9180   32.5730   36.8240 H   0  0  0  0  0  0  0  0  0  0  0  0
   36.9060   30.4770   36.1680 H   0  0  0  0  0  0  0  0  0  0  0  0
   33.0000   32.1710   33.7910 H   0  0  0  0  0  0  0  0  0  0  0  0
   37.8480   25.5170   35.8050 C   0  0  0  0  0  0  0  0  0  0  0  0
   38.6570   26.1390   36.2700 H   0  0  0  0  0  0  0  0  0  0  0  0
   36.9120   25.9590   36.2610 H   0  0  0  0  0  0  0  0  0  0  0  0
   37.9960   24.2220   36.2970 N   0  0  0  0  0  0  0  0  0  0  0  0
   37.6940   24.0120   37.6580 C   0  0  0  0  0  0  0  0  0  0  0  0
   38.8050   23.5500   38.5280 C   0  0  0  0  0  0  0  0  0  0  0  0
   39.6130   22.5980   37.8960 O   0  0  0  0  0  0  0  0  0  0  0  0
   40.0700   23.0590   36.7020 C   0  0  0  0  0  0  0  0  0  0  0  0
   38.9580   23.3650   35.7770 C   0  0  1  0  0  0  0  0  0  0  0  0
   36.9840   24.6380   38.1680 H   0  0  0  0  0  0  0  0  0  0  0  0
   37.0380   23.0820   37.5190 H   0  0  0  0  0  0  0  0  0  0  0  0
   38.2920   22.8390   39.2850 H   0  0  0  0  0  0  0  0  0  0  0  0
   39.2530   24.2030   39.2430 H   0  0  0  0  0  0  0  0  0  0  0  0
   40.5190   22.1180   36.2420 H   0  0  0  0  0  0  0  0  0  0  0  0
   40.9310   23.7210   36.7010 H   0  0  0  0  0  0  0  0  0  0  0  0
   39.4210   23.8690   34.8830 H   0  0  0  0  0  0  0  0  0  0  0  0
   38.3340   22.0940   35.2030 C   0  0  0  0  0  2  0  0  0  0  0  0
   38.4320   22.0570   33.7050 C   0  0  0  0  0  2  0  0  0  0  0  0
   37.6970   22.6780   33.1750 H   0  0  0  0  0  0  0  0  0  0  0  0
  1 20  1  0  0  0  0
  2  1  1  0  0  0  0
  3  1  1  0  0  0  0
  4 13  1  0  0  0  0
  4  8  2  0  0  0  0
  5  4  1  0  0  0  0
  6  5  2  0  0  0  0
  6  7  1  0  0  0  0
  7  1  1  0  0  0  0
  7  8  1  0  0  0  0
  9  5  1  0  0  0  0
 10  6  1  0  0  0  0
 11 17  1  0  0  0  0
 12 11  1  0  0  0  0
 12 18  1  0  0  0  0
 13 12  2  0  0  0  0
 14 15  2  0  0  0  0
 14 13  1  0  0  0  0
 15 16  1  0  0  0  0
 16 11  2  0  0  0  0
 19 15  1  0  0  0  0
 20 22  1  0  0  0  0
 20 21  1  0  0  0  0
 20 23  1  0  0  0  0
 23 24  1  0  0  0  0
 24 29  1  0  0  0  0
 24 25  1  0  0  0  0
 25 32  1  0  0  0  0
 25 31  1  0  0  0  0
 26 25  1  0  0  0  0
 27 26  1  0  0  0  0
 28 35  1  6  0  0  0
 28 23  1  0  0  0  0
 28 27  1  0  0  0  0
 30 24  1  0  0  0  0
 33 27  1  0  0  0  0
 34 27  1  0  0  0  0
 36 28  1  0  0  0  0
 37 36  1  0  0  0  0
 38 37  1  0  0  0  0
M  END
>  <minimizedAffinity>
-4.74486017

$$$$

 OpenBabel03272508383D

 38 40  0  0  1  0  0  0  0  0999 V2000
   37.6360   26.1180   33.9140 C   0  0  0  0  0  0  0  0  0  0  0  0
   36.9160   25.3720   33.5930 H   0  0  0  0  0  0  0  0  0  0  0  0
   38.4140   26.0910   33.0890 H   0  0  0  0  0  0  0  0  0  0  0  0
   35.9340   29.2670   34.1940 C   0  0  0  0  0  0  0  0  0  0  0  0
   35.9110   29.0790   32.8250 C   0  0  0  0  0  0  0  0  0  0  0  0
   36.5540   27.8570   32.5720 C   0  0  0  0  0  0  0  0  0  0  0  0
   36.9250   27.3790   33.7590 N   0  0  0  0  0  0  0  0  0  0  0  0
   36.5560   28.2180   34.7300 N   0  0  0  0  0  0  0  0  0  0  0  0
   35.4650   29.7710   32.0820 H   0  0  0  0  0  0  0  0  0  0  0  0
   36.6090   27.5850   31.5820 H   0  0  0  0  0  0  0  0  0  0  0  0
   35.3450   32.3000   36.3230 C   0  0  0  0  0  0  0  0  0  0  0  0
   35.9960   31.1900   35.7930 C   0  0  0  0  0  0  0  0  0  0  0  0
   35.3630   30.4280   34.8240 C   0  0  0  0  0  0  0  0  0  0  0  0
   34.1250   30.8500   34.4720 N   0  0  0  0  0  0  0  0  0  0  0  0
   33.5040   31.9300   34.9920 C   0  0  0  0  0  0  0  0  0  0  0  0
   34.1180   32.6520   35.9180 N   0  0  0  0  0  0  0  0  0  0  0  0
   35.9410   32.8020   37.0610 H   0  0  0  0  0  0  0  0  0  0  0  0
   36.9800   30.8630   36.0820 H   0  0  0  0  0  0  0  0  0  0  0  0
   32.5130   32.2050   34.6600 H   0  0  0  0  0  0  0  0  0  0  0  0
   38.3430   26.0550   35.1770 C   0  0  0  0  0  0  0  0  0  0  0  0
   39.1440   26.8370   35.2490 H   0  0  0  0  0  0  0  0  0  0  0  0
   37.6240   26.3710   35.9910 H   0  0  0  0  0  0  0  0  0  0  0  0
   38.9190   24.8460   35.5610 N   0  0  0  0  0  0  0  0  0  0  0  0
   40.0240   24.3920   34.8120 C   0  0  0  0  0  0  0  0  0  0  0  0
   39.8620   23.1030   34.0930 C   0  0  0  0  0  0  0  0  0  0  0  0
   39.1710   22.1540   34.8540 O   0  0  0  0  0  0  0  0  0  0  0  0
   37.9760   22.6440   35.2790 C   0  0  0  0  0  0  0  0  0  0  0  0
   38.1520   23.8390   36.1320 C   0  0  1  0  0  0  0  0  0  0  0  0
   40.6670   25.0880   34.3030 H   0  0  0  0  0  0  0  0  0  0  0  0
   40.7060   24.1390   35.6980 H   0  0  0  0  0  0  0  0  0  0  0  0
   40.9110   22.6150   34.1540 H   0  0  0  0  0  0  0  0  0  0  0  0
   39.7640   23.0730   33.0310 H   0  0  0  0  0  0  0  0  0  0  0  0
   37.6510   21.8510   36.0310 H   0  0  0  0  0  0  0  0  0  0  0  0
   37.1390   22.6300   34.5870 H   0  0  0  0  0  0  0  0  0  0  0  0
   37.1200   24.2510   36.3130 H   0  0  0  0  0  0  0  0  0  0  0  0
   38.6510   23.4670   37.5270 C   0  0  0  0  0  2  0  0  0  0  0  0
   38.0100   24.3150   38.5880 C   0  0  0  0  0  2  0  0  0  0  0  0
   38.4250   25.3270   38.6900 H   0  0  0  0  0  0  0  0  0  0  0  0
  1 20  1  0  0  0  0
  2  1  1  0  0  0  0
  3  1  1  0  0  0  0
  4  8  2  0  0  0  0
  4 13  1  0  0  0  0
  5  4  1  0  0  0  0
  6  5  2  0  0  0  0
  6  7  1  0  0  0  0
  7  1  1  0  0  0  0
  7  8  1  0  0  0  0
  9  5  1  0  0  0  0
 10  6  1  0  0  0  0
 11 17  1  0  0  0  0
 12 18  1  0  0  0  0
 12 11  2  0  0  0  0
 13 12  1  0  0  0  0
 14 13  2  0  0  0  0
 14 15  1  0  0  0  0
 15 16  2  0  0  0  0
 16 11  1  0  0  0  0
 19 15  1  0  0  0  0
 20 21  1  0  0  0  0
 20 23  1  0  0  0  0
 20 22  1  0  0  0  0
 23 28  1  0  0  0  0
 24 23  1  0  0  0  0
 24 30  1  0  0  0  0
 25 31  1  0  0  0  0
 25 24  1  0  0  0  0
 25 26  1  0  0  0  0
 26 27  1  0  0  0  0
 27 33  1  0  0  0  0
 27 28  1  0  0  0  0
 28 35  1  1  0  0  0
 28 36  1  0  0  0  0
 29 24  1  0  0  0  0
 32 25  1  0  0  0  0
 34 27  1  0  0  0  0
 36 37  1  0  0  0  0
 37 38  1  0  0  0  0
M  END
>  <minimizedAffinity>
-4.72415733

$$$$

 OpenBabel03272508383D

 38 40  0  0  1  0  0  0  0  0999 V2000
   38.3510   26.9080   35.5240 C   0  0  0  0  0  0  0  0  0  0  0  0
   39.3890   27.2220   35.5600 H   0  0  0  0  0  0  0  0  0  0  0  0
   37.8520   27.5960   36.2750 H   0  0  0  0  0  0  0  0  0  0  0  0
   37.8430   27.7920   32.0810 C   0  0  0  0  0  0  0  0  0  0  0  0
   36.6210   28.1430   32.6240 C   0  0  0  0  0  0  0  0  0  0  0  0
   36.6860   27.8480   33.9940 C   0  0  0  0  0  0  0  0  0  0  0  0
   37.9000   27.3470   34.2110 N   0  0  0  0  0  0  0  0  0  0  0  0
   38.5950   27.3120   33.0710 N   0  0  0  0  0  0  0  0  0  0  0  0
   35.7640   28.5770   32.0680 H   0  0  0  0  0  0  0  0  0  0  0  0
   35.8360   28.0630   34.5320 H   0  0  0  0  0  0  0  0  0  0  0  0
   37.8650   28.8940   28.4940 C   0  0  0  0  0  0  0  0  0  0  0  0
   37.4780   28.8190   29.8290 C   0  0  0  0  0  0  0  0  0  0  0  0
   38.1410   27.9520   30.6830 C   0  0  0  0  0  0  0  0  0  0  0  0
   39.1400   27.2320   30.1170 N   0  0  0  0  0  0  0  0  0  0  0  0
   39.5070   27.3130   28.8200 C   0  0  0  0  0  0  0  0  0  0  0  0
   38.8660   28.1460   28.0130 N   0  0  0  0  0  0  0  0  0  0  0  0
   37.2750   29.6000   27.9430 H   0  0  0  0  0  0  0  0  0  0  0  0
   36.6830   29.3960   30.2680 H   0  0  0  0  0  0  0  0  0  0  0  0
   40.3160   26.7050   28.4410 H   0  0  0  0  0  0  0  0  0  0  0  0
   37.9130   25.5590   35.8160 C   0  0  0  0  0  0  0  0  0  0  0  0
   37.2560   25.5180   36.7240 H   0  0  0  0  0  0  0  0  0  0  0  0
   37.2050   25.2400   34.9930 H   0  0  0  0  0  0  0  0  0  0  0  0
   38.8750   24.5610   35.9650 N   0  0  0  0  0  0  0  0  0  0  0  0
   39.9510   24.5630   35.0550 C   0  0  0  0  0  0  0  0  0  0  0  0
   40.0900   23.3730   34.1790 C   0  0  0  0  0  0  0  0  0  0  0  0
   39.8290   22.1790   34.8590 O   0  0  0  0  0  0  0  0  0  0  0  0
   38.6120   22.2160   35.4650 C   0  0  0  0  0  0  0  0  0  0  0  0
   38.5340   23.3080   36.4590 C   0  0  1  0  0  0  0  0  0  0  0  0
   40.2780   25.4770   34.5900 H   0  0  0  0  0  0  0  0  0  0  0  0
   40.7930   24.4480   35.8240 H   0  0  0  0  0  0  0  0  0  0  0  0
   41.2350   23.2390   34.0660 H   0  0  0  0  0  0  0  0  0  0  0  0
   39.8600   23.4250   33.1380 H   0  0  0  0  0  0  0  0  0  0  0  0
   38.6480   21.2870   36.1230 H   0  0  0  0  0  0  0  0  0  0  0  0
   37.7320   22.0100   34.8630 H   0  0  0  0  0  0  0  0  0  0  0  0
   37.4610   23.3510   36.7960 H   0  0  0  0  0  0  0  0  0  0  0  0
   39.3090   22.9700   37.7310 C   0  0  0  0  0  2  0  0  0  0  0  0
   38.7390   23.6730   38.9290 C   0  0  0  0  0  2  0  0  0  0  0  0
   39.0140   24.7320   39.0230 H   0  0  0  0  0  0  0  0  0  0  0  0
  1  2  1  0  0  0  0
  1 20  1  0  0  0  0
  1  3  1  0  0  0  0
  4  5  1  0  0  0  0
  4  8  2  0  0  0  0
  5  6  2  0  0  0  0
  6  7  1  0  0  0  0
  6 10  1  0  0  0  0
  7  1  1  0  0  0  0
  8  7  1  0  0  0  0
  9  5  1  0  0  0  0
 11 12  1  0  0  0  0
 12 18  1  0  0  0  0
 12 13  2  0  0  0  0
 13  4  1  0  0  0  0
 14 13  1  0  0  0  0
 15 14  2  0  0  0  0
 16 11  2  0  0  0  0
 16 15  1  0  0  0  0
 17 11  1  0  0  0  0
 19 15  1  0  0  0  0
 20 23  1  0  0  0  0
 20 21  1  0  0  0  0
 22 20  1  0  0  0  0
 23 28  1  0  0  0  0
 24 30  1  0  0  0  0
 24 23  1  0  0  0  0
 25 26  1  0  0  0  0
 25 24  1  0  0  0  0
 26 27  1  0  0  0  0
 27 33  1  0  0  0  0
 27 28  1  0  0  0  0
 28 35  1  1  0  0  0
 28 36  1  0  0  0  0
 29 24  1  0  0  0  0
 31 25  1  0  0  0  0
 32 25  1  0  0  0  0
 34 27  1  0  0  0  0
 36 37  1  0  0  0  0
 37 38  1  0  0  0  0
M  END
>  <minimizedAffinity>
-4.55387878

$$$$

 OpenBabel03272508383D

 38 40  0  0  1  0  0  0  0  0999 V2000
   38.6780   22.9000   35.3450 C   0  0  0  0  0  0  0  0  0  0  0  0
   39.6230   22.8270   34.8170 H   0  0  0  0  0  0  0  0  0  0  0  0
   38.9780   22.7310   36.4260 H   0  0  0  0  0  0  0  0  0  0  0  0
   37.6770   26.2280   34.4430 C   0  0  0  0  0  0  0  0  0  0  0  0
   37.9640   26.3970   35.7840 C   0  0  0  0  0  0  0  0  0  0  0  0
   38.3810   25.1480   36.2700 C   0  0  0  0  0  0  0  0  0  0  0  0
   38.3250   24.3090   35.2370 N   0  0  0  0  0  0  0  0  0  0  0  0
   37.9060   24.9500   34.1440 N   0  0  0  0  0  0  0  0  0  0  0  0
   37.8800   27.3460   36.3510 H   0  0  0  0  0  0  0  0  0  0  0  0
   38.6330   25.1240   37.2670 H   0  0  0  0  0  0  0  0  0  0  0  0
   35.9210   29.2640   33.1070 C   0  0  0  0  0  0  0  0  0  0  0  0
   36.2850   28.2590   34.0000 C   0  0  0  0  0  0  0  0  0  0  0  0
   37.2120   27.3060   33.6110 C   0  0  0  0  0  0  0  0  0  0  0  0
   37.6930   27.4460   32.3510 N   0  0  0  0  0  0  0  0  0  0  0  0
   37.3320   28.4240   31.4950 C   0  0  0  0  0  0  0  0  0  0  0  0
   36.4450   29.3310   31.8770 N   0  0  0  0  0  0  0  0  0  0  0  0
   35.1980   29.9350   33.5300 H   0  0  0  0  0  0  0  0  0  0  0  0
   35.8960   28.1580   34.9980 H   0  0  0  0  0  0  0  0  0  0  0  0
   37.7610   28.4700   30.5030 H   0  0  0  0  0  0  0  0  0  0  0  0
   37.5420   22.0430   35.0740 C   0  0  0  0  0  0  0  0  0  0  0  0
   37.4390   21.2280   35.8380 H   0  0  0  0  0  0  0  0  0  0  0  0
   36.6030   22.6510   35.2420 H   0  0  0  0  0  0  0  0  0  0  0  0
   37.4430   21.4410   33.8210 N   0  0  0  0  0  0  0  0  0  0  0  0
   38.5670   21.5260   32.9740 C   0  0  0  0  0  0  0  0  0  0  0  0
   38.3850   22.2500   31.6910 C   0  0  0  0  0  0  0  0  0  0  0  0
   37.1530   21.9690   31.0920 O   0  0  0  0  0  0  0  0  0  0  0  0
   36.1260   22.2060   31.9510 C   0  0  0  0  0  0  0  0  0  0  0  0
   36.2230   21.3610   33.1600 C   0  0  1  0  0  0  0  0  0  0  0  0
   39.5580   21.6210   33.3820 H   0  0  0  0  0  0  0  0  0  0  0  0
   38.6070   20.4210   32.6730 H   0  0  0  0  0  0  0  0  0  0  0  0
   39.0550   21.6700   30.9440 H   0  0  0  0  0  0  0  0  0  0  0  0
   38.8180   23.2130   31.5350 H   0  0  0  0  0  0  0  0  0  0  0  0
   35.2440   21.7420   31.3980 H   0  0  0  0  0  0  0  0  0  0  0  0
   35.7810   23.2290   32.0690 H   0  0  0  0  0  0  0  0  0  0  0  0
   35.4250   21.7270   33.8650 H   0  0  0  0  0  0  0  0  0  0  0  0
   35.8280   19.9140   32.8720 C   0  0  0  0  0  2  0  0  0  0  0  0
   34.5600   19.8370   32.0720 C   0  0  0  0  0  2  0  0  0  0  0  0
   33.6360   19.9930   32.6460 H   0  0  0  0  0  0  0  0  0  0  0  0
  1  3  1  0  0  0  0
  2  1  1  0  0  0  0
  4  5  1  0  0  0  0
  5  6  2  0  0  0  0
  5  9  1  0  0  0  0
  6 10  1  0  0  0  0
  7  1  1  0  0  0  0
  7  6  1  0  0  0  0
  8  4  2  0  0  0  0
  8  7  1  0  0  0  0
 11 17  1  0  0  0  0
 11 12  1  0  0  0  0
 12 18  1  0  0  0  0
 13 12  2  0  0  0  0
 13  4  1  0  0  0  0
 14 13  1  0  0  0  0
 15 16  1  0  0  0  0
 15 14  2  0  0  0  0
 16 11  2  0  0  0  0
 19 15  1  0  0  0  0
 20 22  1  0  0  0  0
 20  1  1  0  0  0  0
 20 21  1  0  0  0  0
 23 20  1  0  0  0  0
 24 29  1  0  0  0  0
 24 23  1  0  0  0  0
 25 24  1  0  0  0  0
 26 25  1  0  0  0  0
 26 27  1  0  0  0  0
 27 34  1  0  0  0  0
 27 28  1  0  0  0  0
 28 23  1  0  0  0  0
 28 35  1  1  0  0  0
 30 24  1  0  0  0  0
 31 25  1  0  0  0  0
 32 25  1  0  0  0  0
 33 27  1  0  0  0  0
 36 28  1  0  0  0  0
 37 38  1  0  0  0  0
 37 36  1  0  0  0  0
M  END
>  <minimizedAffinity>
-4.54486322

$$$$
