
 OpenBabel03272510223D

 25 27  0  0  0  0  0  0  0  0999 V2000
   36.1550   30.1560   46.8790 C   0  0  0  0  0  0  0  0  0  0  0  0
   36.9870   30.6720   47.8640 C   0  0  0  0  0  0  0  0  0  0  0  0
   38.0150   31.5540   47.5470 C   0  0  0  0  0  0  0  0  0  0  0  0
   38.1480   31.8800   46.1880 C   0  0  0  0  0  0  0  0  0  0  0  0
   39.0710   32.7160   45.6520 N   0  0  0  0  0  0  0  0  0  0  0  0
   38.8230   32.7260   44.3370 C   0  0  0  0  0  0  0  0  0  0  0  0
   37.7870   31.9370   44.0240 N   0  0  0  0  0  0  0  0  0  0  0  0
   37.3370   31.3860   45.1800 C   0  0  0  0  0  0  0  0  0  0  0  0
   36.3260   30.5080   45.5410 C   0  0  0  0  0  0  0  0  0  0  0  0
   35.3420   29.4660   47.0780 H   0  0  0  0  0  0  0  0  0  0  0  0
   38.6650   31.9600   48.3040 H   0  0  0  0  0  0  0  0  0  0  0  0
   39.8450   33.2690   46.1080 H   0  0  0  0  0  0  0  0  0  0  0  0
   35.6900   30.1160   44.7820 H   0  0  0  0  0  0  0  0  0  0  0  0
   37.2670   30.0140   51.5610 C   0  0  0  0  0  0  0  0  0  0  0  0
   37.6260   30.4540   50.2910 C   0  0  0  0  0  0  0  0  0  0  0  0
   36.7420   30.2580   49.2440 C   0  0  0  0  0  0  0  0  0  0  0  0
   35.5510   29.6390   49.4970 N   0  0  0  0  0  0  0  0  0  0  0  0
   35.2220   29.2180   50.7410 C   0  0  0  0  0  0  0  0  0  0  0  0
   36.0850   29.4100   51.7620 N   0  0  0  0  0  0  0  0  0  0  0  0
   38.0260   30.2130   52.3200 H   0  0  0  0  0  0  0  0  0  0  0  0
   38.5430   30.9380   50.0610 H   0  0  0  0  0  0  0  0  0  0  0  0
   34.2870   28.7290   50.9570 H   0  0  0  0  0  0  0  0  0  0  0  0
   39.5580   33.4950   43.2760 C   0  0  0  0  0  2  0  0  0  0  0  0
   40.2670   34.7010   43.8750 C   0  0  0  0  0  2  0  0  0  0  0  0
   39.9730   35.6320   43.3420 H   0  0  0  0  0  0  0  0  0  0  0  0
  1 10  1  0  0  0  0
  1  2  1  0  0  0  0
  2 16  1  0  0  0  0
  3  2  2  0  0  0  0
  3 11  1  0  0  0  0
  4  3  1  0  0  0  0
  5 12  1  0  0  0  0
  5  4  1  0  0  0  0
  6  5  1  0  0  0  0
  7  6  2  0  0  0  0
  7  8  1  0  0  0  0
  8  9  1  0  0  0  0
  8  4  2  0  0  0  0
  9  1  2  0  0  0  0
 13  9  1  0  0  0  0
 14 19  1  0  0  0  0
 14 20  1  0  0  0  0
 15 14  2  0  0  0  0
 16 17  2  0  0  0  0
 16 15  1  0  0  0  0
 17 18  1  0  0  0  0
 18 22  1  0  0  0  0
 18 19  2  0  0  0  0
 21 15  1  0  0  0  0
 23 24  1  0  0  0  0
 23  6  1  0  0  0  0
 25 24  1  0  0  0  0
M  END
>  <minimizedAffinity>
-4.58081388

>  <minimizedRMSD>
1.10568404

$$$$
