
 OpenBabel03272503383D

 13 13  0  0  0  0  0  0  0  0999 V2000
   38.9440   23.1870   37.8120 C   0  0  0  0  0  0  0  0  0  0  0  0
   38.1660   24.2550   37.3360 C   0  0  0  0  0  0  0  0  0  0  0  0
   38.5410   24.8840   36.1520 C   0  0  0  0  0  0  0  0  0  0  0  0
   39.6640   24.4130   35.5150 N   0  0  0  0  0  0  0  0  0  0  0  0
   40.3980   23.3830   35.9910 C   0  0  0  0  0  0  0  0  0  0  0  0
   40.0290   22.7810   37.1360 N   0  0  0  0  0  0  0  0  0  0  0  0
   37.2780   24.6460   37.8170 H   0  0  0  0  0  0  0  0  0  0  0  0
   41.2670   23.0650   35.4420 H   0  0  0  0  0  0  0  0  0  0  0  0
   38.4560   22.6570   38.9980 O   0  0  0  0  0  0  0  0  0  0  0  0
   38.6720   23.1500   39.8450 H   0  0  0  0  0  0  0  0  0  0  0  0
   37.7570   26.0170   35.6010 C   0  0  0  0  0  2  0  0  0  0  0  0
   38.6010   27.2760   35.7760 C   0  0  0  0  0  2  0  0  0  0  0  0
   38.4000   27.7450   36.7590 H   0  0  0  0  0  0  0  0  0  0  0  0
  1  9  1  0  0  0  0
  2  1  1  0  0  0  0
  2  7  1  0  0  0  0
  3  2  2  0  0  0  0
  4  5  2  0  0  0  0
  4  3  1  0  0  0  0
  5  6  1  0  0  0  0
  6  1  2  0  0  0  0
  8  5  1  0  0  0  0
  9 10  1  0  0  0  0
 11 12  1  0  0  0  0
 11  3  1  0  0  0  0
 12 13  1  0  0  0  0
M  END
>  <minimizedAffinity>
-3.71460128

$$$$

 OpenBabel03272503383D

 13 13  0  0  0  0  0  0  0  0999 V2000
   39.6770   22.7710   37.7160 C   0  0  0  0  0  0  0  0  0  0  0  0
   39.8610   23.3880   36.4690 C   0  0  0  0  0  0  0  0  0  0  0  0
   39.0540   24.4700   36.1290 C   0  0  0  0  0  0  0  0  0  0  0  0
   38.1160   24.8720   37.0510 N   0  0  0  0  0  0  0  0  0  0  0  0
   37.9570   24.2630   38.2460 C   0  0  0  0  0  0  0  0  0  0  0  0
   38.7400   23.2180   38.5660 N   0  0  0  0  0  0  0  0  0  0  0  0
   40.5910   23.0930   35.7250 H   0  0  0  0  0  0  0  0  0  0  0  0
   37.2020   24.6290   38.9200 H   0  0  0  0  0  0  0  0  0  0  0  0
   40.5470   21.7090   37.9210 O   0  0  0  0  0  0  0  0  0  0  0  0
   40.3140   20.8330   37.4890 H   0  0  0  0  0  0  0  0  0  0  0  0
   39.2030   25.1620   34.8250 C   0  0  0  0  0  2  0  0  0  0  0  0
   39.3090   26.6560   35.1170 C   0  0  0  0  0  2  0  0  0  0  0  0
   38.3040   27.1210   35.1360 H   0  0  0  0  0  0  0  0  0  0  0  0
  1  9  1  0  0  0  0
  1  6  1  0  0  0  0
  2  1  2  0  0  0  0
  3  2  1  0  0  0  0
  3  4  2  0  0  0  0
  4  5  1  0  0  0  0
  5  6  2  0  0  0  0
  5  8  1  0  0  0  0
  7  2  1  0  0  0  0
 10  9  1  0  0  0  0
 11 12  1  0  0  0  0
 11  3  1  0  0  0  0
 12 13  1  0  0  0  0
M  END
>  <minimizedAffinity>
-3.6424129

$$$$

 OpenBabel03272503383D

 13 13  0  0  0  0  0  0  0  0999 V2000
   37.8290   23.2300   37.3420 C   0  0  0  0  0  0  0  0  0  0  0  0
   37.9760   24.6260   37.3650 C   0  0  0  0  0  0  0  0  0  0  0  0
   38.2070   25.2970   36.1680 C   0  0  0  0  0  0  0  0  0  0  0  0
   38.2760   24.5400   35.0230 N   0  0  0  0  0  0  0  0  0  0  0  0
   38.1320   23.1960   35.0240 C   0  0  0  0  0  0  0  0  0  0  0  0
   37.9090   22.5560   36.1850 N   0  0  0  0  0  0  0  0  0  0  0  0
   37.9250   25.2470   38.2510 H   0  0  0  0  0  0  0  0  0  0  0  0
   38.1990   22.6650   34.0900 H   0  0  0  0  0  0  0  0  0  0  0  0
   37.6050   22.6940   38.6030 O   0  0  0  0  0  0  0  0  0  0  0  0
   38.4030   22.5680   39.1980 H   0  0  0  0  0  0  0  0  0  0  0  0
   38.3700   26.7710   36.1310 C   0  0  0  0  0  2  0  0  0  0  0  0
   39.4680   27.0780   35.1170 C   0  0  0  0  0  2  0  0  0  0  0  0
   40.4610   27.0810   35.6070 H   0  0  0  0  0  0  0  0  0  0  0  0
  1  2  1  0  0  0  0
  1  9  1  0  0  0  0
  2  7  1  0  0  0  0
  3  2  2  0  0  0  0
  4  5  2  0  0  0  0
  4  3  1  0  0  0  0
  5  6  1  0  0  0  0
  6  1  2  0  0  0  0
  8  5  1  0  0  0  0
  9 10  1  0  0  0  0
 11  3  1  0  0  0  0
 12 13  1  0  0  0  0
 12 11  1  0  0  0  0
M  END
>  <minimizedAffinity>
-3.58906174

$$$$

 OpenBabel03272503383D

 13 13  0  0  0  0  0  0  0  0999 V2000
   39.2880   22.9970   37.7340 C   0  0  0  0  0  0  0  0  0  0  0  0
   40.5940   22.4860   37.6920 C   0  0  0  0  0  0  0  0  0  0  0  0
   41.4140   22.8240   36.6190 C   0  0  0  0  0  0  0  0  0  0  0  0
   40.8850   23.6500   35.6560 N   0  0  0  0  0  0  0  0  0  0  0  0
   39.6240   24.1310   35.7170 C   0  0  0  0  0  0  0  0  0  0  0  0
   38.8380   23.7990   36.7560 N   0  0  0  0  0  0  0  0  0  0  0  0
   41.0370   21.8350   38.4360 H   0  0  0  0  0  0  0  0  0  0  0  0
   39.2720   24.7720   34.9270 H   0  0  0  0  0  0  0  0  0  0  0  0
   38.5850   22.5790   38.8560 O   0  0  0  0  0  0  0  0  0  0  0  0
   38.1890   21.6570   38.8330 H   0  0  0  0  0  0  0  0  0  0  0  0
   42.8040   22.3140   36.5220 C   0  0  0  0  0  2  0  0  0  0  0  0
   43.7280   23.5280   36.4900 C   0  0  0  0  0  2  0  0  0  0  0  0
   43.8870   23.8690   35.4480 H   0  0  0  0  0  0  0  0  0  0  0  0
  1  9  1  0  0  0  0
  2  1  1  0  0  0  0
  2  7  1  0  0  0  0
  3  2  2  0  0  0  0
  4  5  2  0  0  0  0
  4  3  1  0  0  0  0
  5  6  1  0  0  0  0
  6  1  2  0  0  0  0
  8  5  1  0  0  0  0
 10  9  1  0  0  0  0
 11  3  1  0  0  0  0
 12 11  1  0  0  0  0
 13 12  1  0  0  0  0
M  END
>  <minimizedAffinity>
-3.42355394

$$$$

 OpenBabel03272503383D

 13 13  0  0  0  0  0  0  0  0999 V2000
   40.8630   21.8950   37.0470 C   0  0  0  0  0  0  0  0  0  0  0  0
   39.8370   22.7230   37.5290 C   0  0  0  0  0  0  0  0  0  0  0  0
   39.1940   23.5810   36.6400 C   0  0  0  0  0  0  0  0  0  0  0  0
   39.6100   23.5620   35.3310 N   0  0  0  0  0  0  0  0  0  0  0  0
   40.6010   22.7560   34.8900 C   0  0  0  0  0  0  0  0  0  0  0  0
   41.2170   21.9310   35.7540 N   0  0  0  0  0  0  0  0  0  0  0  0
   39.4880   22.7590   38.5540 H   0  0  0  0  0  0  0  0  0  0  0  0
   40.8780   22.7930   33.8500 H   0  0  0  0  0  0  0  0  0  0  0  0
   41.4150   21.0960   38.0390 O   0  0  0  0  0  0  0  0  0  0  0  0
   42.0870   21.5200   38.6520 H   0  0  0  0  0  0  0  0  0  0  0  0
   38.1010   24.4780   37.0910 C   0  0  0  0  0  2  0  0  0  0  0  0
   37.9950   24.3310   38.6070 C   0  0  0  0  0  2  0  0  0  0  0  0
   37.2970   23.5130   38.8700 H   0  0  0  0  0  0  0  0  0  0  0  0
  1  2  1  0  0  0  0
  1  9  1  0  0  0  0
  2  7  1  0  0  0  0
  3 11  1  0  0  0  0
  3  2  2  0  0  0  0
  4  3  1  0  0  0  0
  5  4  2  0  0  0  0
  5  6  1  0  0  0  0
  6  1  2  0  0  0  0
  8  5  1  0  0  0  0
  9 10  1  0  0  0  0
 11 12  1  0  0  0  0
 12 13  1  0  0  0  0
M  END
>  <minimizedAffinity>
-3.37731504

$$$$

 OpenBabel03272503383D

 13 13  0  0  0  0  0  0  0  0999 V2000
   38.2990   24.0830   35.9740 C   0  0  0  0  0  0  0  0  0  0  0  0
   39.4250   23.2500   36.0660 C   0  0  0  0  0  0  0  0  0  0  0  0
   39.8190   22.7900   37.3200 C   0  0  0  0  0  0  0  0  0  0  0  0
   39.0700   23.1870   38.4020 N   0  0  0  0  0  0  0  0  0  0  0  0
   37.9890   23.9900   38.2890 C   0  0  0  0  0  0  0  0  0  0  0  0
   37.6150   24.4290   37.0750 N   0  0  0  0  0  0  0  0  0  0  0  0
   40.0320   22.9220   35.2320 H   0  0  0  0  0  0  0  0  0  0  0  0
   37.4480   24.2630   39.1790 H   0  0  0  0  0  0  0  0  0  0  0  0
   38.0220   24.4640   34.6680 O   0  0  0  0  0  0  0  0  0  0  0  0
   38.5680   25.2130   34.2820 H   0  0  0  0  0  0  0  0  0  0  0  0
   41.0010   21.9070   37.4790 C   0  0  0  0  0  2  0  0  0  0  0  0
   42.1370   22.5250   36.6690 C   0  0  0  0  0  2  0  0  0  0  0  0
   42.1210   22.1490   35.6280 H   0  0  0  0  0  0  0  0  0  0  0  0
  1  2  2  0  0  0  0
  1  6  1  0  0  0  0
  2  3  1  0  0  0  0
  3 11  1  0  0  0  0
  3  4  2  0  0  0  0
  5  4  1  0  0  0  0
  5  8  1  0  0  0  0
  6  5  2  0  0  0  0
  7  2  1  0  0  0  0
  9  1  1  0  0  0  0
 10  9  1  0  0  0  0
 12 11  1  0  0  0  0
 13 12  1  0  0  0  0
M  END
>  <minimizedAffinity>
-3.2465322

$$$$

 OpenBabel03272503383D

 13 13  0  0  0  0  0  0  0  0999 V2000
   36.6220   26.7490   31.1500 C   0  0  0  0  0  0  0  0  0  0  0  0
   36.6490   27.5810   32.2800 C   0  0  0  0  0  0  0  0  0  0  0  0
   37.0020   27.0320   33.5100 C   0  0  0  0  0  0  0  0  0  0  0  0
   37.3070   25.6920   33.5390 N   0  0  0  0  0  0  0  0  0  0  0  0
   37.2740   24.9100   32.4380 C   0  0  0  0  0  0  0  0  0  0  0  0
   36.9310   25.4480   31.2540 N   0  0  0  0  0  0  0  0  0  0  0  0
   36.4150   28.6390   32.2860 H   0  0  0  0  0  0  0  0  0  0  0  0
   37.5230   23.8670   32.5320 H   0  0  0  0  0  0  0  0  0  0  0  0
   36.2530   27.4270   29.9960 O   0  0  0  0  0  0  0  0  0  0  0  0
   35.2740   27.5970   29.8550 H   0  0  0  0  0  0  0  0  0  0  0  0
   37.0490   27.8630   34.7380 C   0  0  0  0  0  2  0  0  0  0  0  0
   38.2410   27.3820   35.5620 C   0  0  0  0  0  2  0  0  0  0  0  0
   37.9370   26.5660   36.2460 H   0  0  0  0  0  0  0  0  0  0  0  0
  1  6  2  0  0  0  0
  1  2  1  0  0  0  0
  2  7  1  0  0  0  0
  2  3  2  0  0  0  0
  3  4  1  0  0  0  0
  3 11  1  0  0  0  0
  5  8  1  0  0  0  0
  5  4  2  0  0  0  0
  6  5  1  0  0  0  0
  9  1  1  0  0  0  0
 10  9  1  0  0  0  0
 11 12  1  0  0  0  0
 12 13  1  0  0  0  0
M  END
>  <minimizedAffinity>
-3.11618853

$$$$

 OpenBabel03272503383D

 13 13  0  0  0  0  0  0  0  0999 V2000
   36.1370   27.7410   31.4560 C   0  0  0  0  0  0  0  0  0  0  0  0
   36.8400   26.9260   32.3570 C   0  0  0  0  0  0  0  0  0  0  0  0
   36.8950   27.2990   33.6970 C   0  0  0  0  0  0  0  0  0  0  0  0
   36.2500   28.4580   34.0570 N   0  0  0  0  0  0  0  0  0  0  0  0
   35.5800   29.2280   33.1720 C   0  0  0  0  0  0  0  0  0  0  0  0
   35.5310   28.8600   31.8790 N   0  0  0  0  0  0  0  0  0  0  0  0
   37.3560   26.0090   32.1020 H   0  0  0  0  0  0  0  0  0  0  0  0
   35.0970   30.1240   33.5210 H   0  0  0  0  0  0  0  0  0  0  0  0
   36.1650   27.2500   30.1580 O   0  0  0  0  0  0  0  0  0  0  0  0
   36.9930   27.4220   29.6180 H   0  0  0  0  0  0  0  0  0  0  0  0
   37.6220   26.4770   34.6960 C   0  0  0  0  0  2  0  0  0  0  0  0
   38.2730   27.4400   35.6850 C   0  0  0  0  0  2  0  0  0  0  0  0
   39.2830   27.7300   35.3370 H   0  0  0  0  0  0  0  0  0  0  0  0
  1  6  2  0  0  0  0
  1  2  1  0  0  0  0
  2  3  2  0  0  0  0
  3  4  1  0  0  0  0
  3 11  1  0  0  0  0
  5  8  1  0  0  0  0
  5  4  2  0  0  0  0
  6  5  1  0  0  0  0
  7  2  1  0  0  0  0
  9  1  1  0  0  0  0
 10  9  1  0  0  0  0
 11 12  1  0  0  0  0
 13 12  1  0  0  0  0
M  END
>  <minimizedAffinity>
-3.03647637

$$$$

 OpenBabel03272503383D

 13 13  0  0  0  0  0  0  0  0999 V2000
   38.1320   23.1690   35.1960 C   0  0  0  0  0  0  0  0  0  0  0  0
   38.3290   24.5540   35.0730 C   0  0  0  0  0  0  0  0  0  0  0  0
   38.2280   25.3490   36.2110 C   0  0  0  0  0  0  0  0  0  0  0  0
   37.9400   24.7200   37.3990 N   0  0  0  0  0  0  0  0  0  0  0  0
   37.7550   23.3840   37.4930 C   0  0  0  0  0  0  0  0  0  0  0  0
   37.8530   22.6230   36.3890 N   0  0  0  0  0  0  0  0  0  0  0  0
   38.5570   25.0760   34.1520 H   0  0  0  0  0  0  0  0  0  0  0  0
   37.5300   22.9560   38.4540 H   0  0  0  0  0  0  0  0  0  0  0  0
   38.2610   22.5020   33.9850 O   0  0  0  0  0  0  0  0  0  0  0  0
   37.4750   22.5260   33.3610 H   0  0  0  0  0  0  0  0  0  0  0  0
   38.4270   26.8180   36.1430 C   0  0  0  0  0  2  0  0  0  0  0  0
   39.4810   27.0810   35.0720 C   0  0  0  0  0  2  0  0  0  0  0  0
   40.4970   27.0650   35.5130 H   0  0  0  0  0  0  0  0  0  0  0  0
  1  6  1  0  0  0  0
  2  1  2  0  0  0  0
  2  3  1  0  0  0  0
  3  4  2  0  0  0  0
  4  5  1  0  0  0  0
  5  8  1  0  0  0  0
  6  5  2  0  0  0  0
  7  2  1  0  0  0  0
  9  1  1  0  0  0  0
 10  9  1  0  0  0  0
 11  3  1  0  0  0  0
 12 13  1  0  0  0  0
 12 11  1  0  0  0  0
M  END
>  <minimizedAffinity>
-3.03631544

$$$$
