
 OpenBabel03272510233D

 25 27  0  0  0  0  0  0  0  0999 V2000
   36.2230   30.1820   46.9450 C   0  0  0  0  0  0  0  0  0  0  0  0
   37.0580   30.6930   47.9290 C   0  0  0  0  0  0  0  0  0  0  0  0
   38.0900   31.5690   47.6130 C   0  0  0  0  0  0  0  0  0  0  0  0
   38.2250   31.8950   46.2540 C   0  0  0  0  0  0  0  0  0  0  0  0
   39.1530   32.7250   45.7180 N   0  0  0  0  0  0  0  0  0  0  0  0
   38.9050   32.7380   44.4030 C   0  0  0  0  0  0  0  0  0  0  0  0
   37.8650   31.9540   44.0900 N   0  0  0  0  0  0  0  0  0  0  0  0
   37.4110   31.4050   45.2460 C   0  0  0  0  0  0  0  0  0  0  0  0
   36.3950   30.5340   45.6070 C   0  0  0  0  0  0  0  0  0  0  0  0
   35.4050   29.4970   47.1430 H   0  0  0  0  0  0  0  0  0  0  0  0
   38.7430   31.9710   48.3700 H   0  0  0  0  0  0  0  0  0  0  0  0
   39.9300   33.2740   46.1740 H   0  0  0  0  0  0  0  0  0  0  0  0
   35.7580   30.1460   44.8470 H   0  0  0  0  0  0  0  0  0  0  0  0
   37.3250   30.0480   51.6300 C   0  0  0  0  0  0  0  0  0  0  0  0
   37.6870   30.4890   50.3600 C   0  0  0  0  0  0  0  0  0  0  0  0
   36.8100   30.2800   49.3090 C   0  0  0  0  0  0  0  0  0  0  0  0
   35.6240   29.6480   49.5580 N   0  0  0  0  0  0  0  0  0  0  0  0
   35.2940   29.2270   50.8020 C   0  0  0  0  0  0  0  0  0  0  0  0
   36.1490   29.4310   51.8270 N   0  0  0  0  0  0  0  0  0  0  0  0
   38.0780   30.2570   52.3920 H   0  0  0  0  0  0  0  0  0  0  0  0
   38.5990   30.9820   50.1340 H   0  0  0  0  0  0  0  0  0  0  0  0
   34.3630   28.7280   51.0140 H   0  0  0  0  0  0  0  0  0  0  0  0
   39.6450   33.5020   43.3430 C   0  0  0  0  0  2  0  0  0  0  0  0
   40.2770   34.7580   43.9240 C   0  0  0  0  0  2  0  0  0  0  0  0
   39.9640   35.6560   43.3480 H   0  0  0  0  0  0  0  0  0  0  0  0
  1 10  1  0  0  0  0
  1  2  1  0  0  0  0
  2 16  1  0  0  0  0
  3  2  2  0  0  0  0
  3 11  1  0  0  0  0
  4  3  1  0  0  0  0
  5 12  1  0  0  0  0
  5  4  1  0  0  0  0
  6  5  1  0  0  0  0
  7  6  2  0  0  0  0
  7  8  1  0  0  0  0
  8  9  1  0  0  0  0
  8  4  2  0  0  0  0
  9  1  2  0  0  0  0
 13  9  1  0  0  0  0
 14 19  1  0  0  0  0
 14 20  1  0  0  0  0
 15 14  2  0  0  0  0
 16 17  2  0  0  0  0
 16 15  1  0  0  0  0
 17 18  1  0  0  0  0
 18 22  1  0  0  0  0
 18 19  2  0  0  0  0
 21 15  1  0  0  0  0
 23 24  1  0  0  0  0
 23  6  1  0  0  0  0
 25 24  1  0  0  0  0
M  END
>  <minimizedAffinity>
-4.59322357

>  <minimizedRMSD>
1.07370126

$$$$
