
 OpenBabel03272504503D

 36 38  0  0  1  0  0  0  0  0999 V2000
   36.1330   29.1400   49.3190 C   0  0  0  0  0  0  0  0  0  0  0  0
   36.2560   30.2260   48.4660 C   0  0  0  0  0  0  0  0  0  0  0  0
   35.2760   30.3760   47.5020 C   0  0  0  0  0  0  0  0  0  0  0  0
   34.2560   29.4740   47.4320 N   0  0  0  0  0  0  0  0  0  0  0  0
   34.1740   28.4310   48.2820 C   0  0  0  0  0  0  0  0  0  0  0  0
   35.1140   28.2750   49.2180 N   0  0  0  0  0  0  0  0  0  0  0  0
   36.8380   28.9420   50.0930 H   0  0  0  0  0  0  0  0  0  0  0  0
   35.2680   31.1790   46.7850 H   0  0  0  0  0  0  0  0  0  0  0  0
   37.3460   31.1290   48.5830 N   0  0  0  0  0  0  0  0  0  0  0  0
   37.8460   31.3440   49.9410 C   0  0  0  0  0  0  0  0  0  0  0  0
   39.0070   32.2890   49.9630 C   0  0  0  0  0  0  0  0  0  0  0  0
   38.7350   33.4450   48.9950 C   0  0  0  0  0  0  0  0  0  0  0  0
   38.8400   32.8200   47.6220 C   0  0  0  0  0  0  0  0  0  0  0  0
   37.8630   31.7290   47.3920 C   0  0  1  0  0  0  0  0  0  0  0  0
   37.0240   31.7760   50.5390 H   0  0  0  0  0  0  0  0  0  0  0  0
   38.1680   30.3730   50.3750 H   0  0  0  0  0  0  0  0  0  0  0  0
   39.1660   32.6350   50.9980 H   0  0  0  0  0  0  0  0  0  0  0  0
   39.8970   31.7410   49.5940 H   0  0  0  0  0  0  0  0  0  0  0  0
   37.7300   33.8580   49.1240 H   0  0  0  0  0  0  0  0  0  0  0  0
   39.5490   34.1690   49.0900 H   0  0  0  0  0  0  0  0  0  0  0  0
   38.6770   33.6520   46.9030 H   0  0  0  0  0  0  0  0  0  0  0  0
   39.9060   32.5090   47.4850 H   0  0  0  0  0  0  0  0  0  0  0  0
   37.0710   32.0800   46.6970 H   0  0  0  0  0  0  0  0  0  0  0  0
   38.6210   30.6270   46.6370 C   0  0  0  0  0  0  0  0  0  0  0  0
   39.8750   31.1200   45.9970 C   0  0  0  0  0  0  0  0  0  0  0  0
   40.6300   30.3070   45.9430 H   0  0  0  0  0  0  0  0  0  0  0  0
   33.0770   27.4890   48.1790 C   0  0  0  0  0  0  0  0  0  0  0  0
   33.2550   26.2790   47.5400 C   0  0  0  0  0  0  0  0  0  0  0  0
   32.2500   25.3520   47.4160 C   0  0  0  0  0  0  0  0  0  0  0  0
   31.0540   25.7030   47.9660 C   0  0  0  0  0  0  0  0  0  0  0  0
   30.8230   26.9340   48.6310 C   0  0  0  0  0  0  0  0  0  0  0  0
   31.8800   27.8080   48.7140 N   0  0  0  0  0  0  0  0  0  0  0  0
   34.2400   26.0750   47.1290 H   0  0  0  0  0  0  0  0  0  0  0  0
   32.3720   24.4040   46.9210 H   0  0  0  0  0  0  0  0  0  0  0  0
   30.1660   25.0610   47.9410 H   0  0  0  0  0  0  0  0  0  0  0  0
   29.8640   27.1810   49.0560 H   0  0  0  0  0  0  0  0  0  0  0  0
  1  7  1  0  0  0  0
  2  9  1  0  0  0  0
  2  1  2  0  0  0  0
  3  2  1  0  0  0  0
  4  3  2  0  0  0  0
  4  5  1  0  0  0  0
  5  6  2  0  0  0  0
  6  1  1  0  0  0  0
  8  3  1  0  0  0  0
  9 10  1  0  0  0  0
 10 11  1  0  0  0  0
 10 16  1  0  0  0  0
 10 15  1  0  0  0  0
 11 17  1  0  0  0  0
 12 20  1  0  0  0  0
 12 19  1  0  0  0  0
 12 11  1  0  0  0  0
 13 12  1  0  0  0  0
 14 23  1  6  0  0  0
 14 13  1  0  0  0  0
 14  9  1  0  0  0  0
 18 11  1  0  0  0  0
 21 13  1  0  0  0  0
 22 13  1  0  0  0  0
 24 14  1  0  0  0  0
 25 24  1  0  0  0  0
 26 25  1  0  0  0  0
 27  5  1  0  0  0  0
 27 32  1  0  0  0  0
 28 27  2  0  0  0  0
 29 28  1  0  0  0  0
 29 30  2  0  0  0  0
 30 31  1  0  0  0  0
 31 32  2  0  0  0  0
 31 36  1  0  0  0  0
 33 28  1  0  0  0  0
 34 29  1  0  0  0  0
 35 30  1  0  0  0  0
M  END
>  <minimizedAffinity>
-5.50831509

>  <minimizedRMSD>
1.11816001

$$$$
