
 OpenBabel03272509033D

 27 28  0  0  0  0  0  0  0  0999 V2000
   33.2850   27.3620   48.0250 C   0  0  0  0  0  0  0  0  0  0  0  0
   32.8010   26.8630   48.8930 H   0  0  0  0  0  0  0  0  0  0  0  0
   32.5280   28.0410   47.5790 H   0  0  0  0  0  0  0  0  0  0  0  0
   33.7090   26.3200   47.0460 C   0  0  0  0  0  0  0  0  0  0  0  0
   33.9510   24.9910   47.3350 C   0  0  0  0  0  0  0  0  0  0  0  0
   34.3380   24.1270   46.3290 C   0  0  0  0  0  0  0  0  0  0  0  0
   34.4980   24.5550   45.0140 C   0  0  0  0  0  0  0  0  0  0  0  0
   34.2590   25.8810   44.7150 C   0  0  0  0  0  0  0  0  0  0  0  0
   33.8710   26.7390   45.7270 C   0  0  0  0  0  0  0  0  0  0  0  0
   33.8160   24.6970   48.3680 H   0  0  0  0  0  0  0  0  0  0  0  0
   34.4980   23.1110   46.6730 H   0  0  0  0  0  0  0  0  0  0  0  0
   34.8000   23.7950   44.3230 H   0  0  0  0  0  0  0  0  0  0  0  0
   34.3880   26.1950   43.6880 H   0  0  0  0  0  0  0  0  0  0  0  0
   33.7050   27.7600   45.4090 H   0  0  0  0  0  0  0  0  0  0  0  0
   34.8370   28.3250   49.7360 C   0  0  0  0  0  0  0  0  0  0  0  0
   34.3910   28.1790   48.5340 C   0  0  0  0  0  0  0  0  0  0  0  0
   37.4500   30.3010   51.3600 C   0  0  0  0  0  0  0  0  0  0  0  0
   38.1320   30.8480   50.2500 C   0  0  0  0  0  0  0  0  0  0  0  0
   37.6530   30.5120   48.9590 C   0  0  0  0  0  0  0  0  0  0  0  0
   36.5720   29.6850   48.8680 N   0  0  0  0  0  0  0  0  0  0  0  0
   35.9690   29.1970   49.9690 C   0  0  0  0  0  0  0  0  0  0  0  0
   36.3950   29.4950   51.2150 N   0  0  0  0  0  0  0  0  0  0  0  0
   37.8040   30.5480   52.3520 H   0  0  0  0  0  0  0  0  0  0  0  0
   38.9870   31.5020   50.3810 H   0  0  0  0  0  0  0  0  0  0  0  0
   38.3310   31.0600   47.7560 C   0  0  0  0  0  0  0  0  0  0  0  0
   38.7960   32.4940   47.9610 C   0  0  0  0  0  0  0  0  0  0  0  0
   38.0250   33.2210   47.6090 H   0  0  0  0  0  0  0  0  0  0  0  0
  1 16  1  0  0  0  0
  1  2  1  0  0  0  0
  3  1  1  0  0  0  0
  4  5  1  0  0  0  0
  4  1  1  0  0  0  0
  5 10  1  0  0  0  0
  6 11  1  0  0  0  0
  6  5  2  0  0  0  0
  7  6  1  0  0  0  0
  8  7  2  0  0  0  0
  8  9  1  0  0  0  0
  9  4  2  0  0  0  0
 12  7  1  0  0  0  0
 13  8  1  0  0  0  0
 14  9  1  0  0  0  0
 15 21  1  0  0  0  0
 16 15  2  0  0  0  0
 17 23  1  0  0  0  0
 18 24  1  0  0  0  0
 18 17  2  0  0  0  0
 19 18  1  0  0  0  0
 20 19  2  0  0  0  0
 20 21  1  0  0  0  0
 21 22  2  0  0  0  0
 22 17  1  0  0  0  0
 25 26  1  0  0  0  0
 25 19  1  0  0  0  0
 27 26  1  0  0  0  0
M  END
>  <minimizedAffinity>
-5.2313323

>  <minimizedRMSD>
0.399144918

$$$$
