
 OpenBabel03272506353D

 13 13  0  0  0  0  0  0  0  0999 V2000
   38.8180   23.2970   37.8410 C   0  0  0  0  0  0  0  0  0  0  0  0
   39.9620   22.7840   37.2020 C   0  0  0  0  0  0  0  0  0  0  0  0
   40.3670   23.3640   35.9960 C   0  0  0  0  0  0  0  0  0  0  0  0
   39.6280   24.3960   35.5080 N   0  0  0  0  0  0  0  0  0  0  0  0
   38.5230   24.8790   36.1440 C   0  0  0  0  0  0  0  0  0  0  0  0
   38.1390   24.3180   37.3000 N   0  0  0  0  0  0  0  0  0  0  0  0
   40.5920   21.9820   37.5180 H   0  0  0  0  0  0  0  0  0  0  0  0
   41.2360   23.0240   35.4470 H   0  0  0  0  0  0  0  0  0  0  0  0
   38.5420   22.6290   39.0170 O   0  0  0  0  0  0  0  0  0  0  0  0
   37.6880   22.8240   39.4910 H   0  0  0  0  0  0  0  0  0  0  0  0
   37.7880   25.9960   35.5400 C   0  0  0  0  0  2  0  0  0  0  0  0
   38.6130   27.2610   35.8260 C   0  0  0  0  0  2  0  0  0  0  0  0
   38.4810   27.4780   36.8950 H   0  0  0  0  0  0  0  0  0  0  0  0
  1  9  1  0  0  0  0
  2  7  1  0  0  0  0
  2  1  2  0  0  0  0
  3  2  1  0  0  0  0
  4  3  2  0  0  0  0
  4  5  1  0  0  0  0
  5  6  2  0  0  0  0
  6  1  1  0  0  0  0
  8  3  1  0  0  0  0
  9 10  1  0  0  0  0
 11 12  1  0  0  0  0
 11  5  1  0  0  0  0
 12 13  1  0  0  0  0
M  END
>  <minimizedAffinity>
-3.74278474

$$$$

 OpenBabel03272506353D

 13 13  0  0  0  0  0  0  0  0999 V2000
   39.7270   22.8360   37.5250 C   0  0  0  0  0  0  0  0  0  0  0  0
   38.7830   23.2410   38.4870 C   0  0  0  0  0  0  0  0  0  0  0  0
   37.9470   24.3210   38.1850 C   0  0  0  0  0  0  0  0  0  0  0  0
   38.0950   24.9190   36.9740 N   0  0  0  0  0  0  0  0  0  0  0  0
   39.0150   24.5110   36.0560 C   0  0  0  0  0  0  0  0  0  0  0  0
   39.8160   23.4750   36.3500 N   0  0  0  0  0  0  0  0  0  0  0  0
   38.6060   22.8270   39.4550 H   0  0  0  0  0  0  0  0  0  0  0  0
   37.1970   24.6890   38.8750 H   0  0  0  0  0  0  0  0  0  0  0  0
   40.4780   21.7630   37.9610 O   0  0  0  0  0  0  0  0  0  0  0  0
   41.2570   21.4690   37.4150 H   0  0  0  0  0  0  0  0  0  0  0  0
   39.1030   25.2190   34.7740 C   0  0  0  0  0  2  0  0  0  0  0  0
   39.6280   26.6280   35.0920 C   0  0  0  0  0  2  0  0  0  0  0  0
   38.7970   27.1640   35.5700 H   0  0  0  0  0  0  0  0  0  0  0  0
  1  9  1  0  0  0  0
  1  2  1  0  0  0  0
  2  7  1  0  0  0  0
  3  2  2  0  0  0  0
  3  8  1  0  0  0  0
  4  3  1  0  0  0  0
  5  6  1  0  0  0  0
  5  4  2  0  0  0  0
  6  1  2  0  0  0  0
 10  9  1  0  0  0  0
 11 12  1  0  0  0  0
 11  5  1  0  0  0  0
 12 13  1  0  0  0  0
M  END
>  <minimizedAffinity>
-3.73859549

$$$$

 OpenBabel03272506353D

 13 13  0  0  0  0  0  0  0  0999 V2000
   35.6700   21.1990   36.5680 C   0  0  0  0  0  0  0  0  0  0  0  0
   35.6650   20.7480   35.2350 C   0  0  0  0  0  0  0  0  0  0  0  0
   36.6540   21.2240   34.3690 C   0  0  0  0  0  0  0  0  0  0  0  0
   37.5670   22.0980   34.8660 N   0  0  0  0  0  0  0  0  0  0  0  0
   37.5550   22.5220   36.1610 C   0  0  0  0  0  0  0  0  0  0  0  0
   36.6040   22.0630   36.9890 N   0  0  0  0  0  0  0  0  0  0  0  0
   34.9870   20.0670   34.7700 H   0  0  0  0  0  0  0  0  0  0  0  0
   36.7140   20.9230   33.3300 H   0  0  0  0  0  0  0  0  0  0  0  0
   34.6400   20.6460   37.3020 O   0  0  0  0  0  0  0  0  0  0  0  0
   34.4710   20.9850   38.2230 H   0  0  0  0  0  0  0  0  0  0  0  0
   38.5830   23.4690   36.6090 C   0  0  0  0  0  2  0  0  0  0  0  0
   38.5910   23.4040   38.1440 C   0  0  0  0  0  2  0  0  0  0  0  0
   37.6780   23.9160   38.4780 H   0  0  0  0  0  0  0  0  0  0  0  0
  1  6  1  0  0  0  0
  1  9  1  0  0  0  0
  2  1  2  0  0  0  0
  3  4  2  0  0  0  0
  3  2  1  0  0  0  0
  4  5  1  0  0  0  0
  5 11  1  0  0  0  0
  5  6  2  0  0  0  0
  7  2  1  0  0  0  0
  8  3  1  0  0  0  0
  9 10  1  0  0  0  0
 11 12  1  0  0  0  0
 12 13  1  0  0  0  0
M  END
>  <minimizedAffinity>
-3.50871849

$$$$

 OpenBabel03272506353D

 13 13  0  0  0  0  0  0  0  0999 V2000
   39.3930   22.9570   37.8570 C   0  0  0  0  0  0  0  0  0  0  0  0
   38.7760   23.7420   36.8660 C   0  0  0  0  0  0  0  0  0  0  0  0
   39.5190   24.0860   35.7320 C   0  0  0  0  0  0  0  0  0  0  0  0
   40.8010   23.6400   35.6530 N   0  0  0  0  0  0  0  0  0  0  0  0
   41.3790   22.8800   36.6250 C   0  0  0  0  0  0  0  0  0  0  0  0
   40.6620   22.5530   37.7110 N   0  0  0  0  0  0  0  0  0  0  0  0
   37.7810   24.1290   36.8520 H   0  0  0  0  0  0  0  0  0  0  0  0
   39.1130   24.6870   34.9270 H   0  0  0  0  0  0  0  0  0  0  0  0
   38.5410   22.6970   38.9120 O   0  0  0  0  0  0  0  0  0  0  0  0
   38.9060   22.2560   39.7260 H   0  0  0  0  0  0  0  0  0  0  0  0
   42.7700   22.4450   36.4530 C   0  0  0  0  0  2  0  0  0  0  0  0
   43.6410   23.6990   36.6310 C   0  0  0  0  0  2  0  0  0  0  0  0
   43.4980   24.3020   35.7240 H   0  0  0  0  0  0  0  0  0  0  0  0
  1  9  1  0  0  0  0
  2  1  2  0  0  0  0
  3  2  1  0  0  0  0
  4  3  2  0  0  0  0
  4  5  1  0  0  0  0
  5  6  2  0  0  0  0
  6  1  1  0  0  0  0
  7  2  1  0  0  0  0
  8  3  1  0  0  0  0
  9 10  1  0  0  0  0
 11  5  1  0  0  0  0
 11 12  1  0  0  0  0
 13 12  1  0  0  0  0
M  END
>  <minimizedAffinity>
-3.42073369

$$$$

 OpenBabel03272506353D

 13 13  0  0  0  0  0  0  0  0999 V2000
   38.4740   26.5790   35.8600 C   0  0  0  0  0  0  0  0  0  0  0  0
   38.5780   26.4530   34.4620 C   0  0  0  0  0  0  0  0  0  0  0  0
   38.4110   25.1860   33.8940 C   0  0  0  0  0  0  0  0  0  0  0  0
   38.1580   24.1440   34.7300 N   0  0  0  0  0  0  0  0  0  0  0  0
   38.0610   24.2870   36.0810 C   0  0  0  0  0  0  0  0  0  0  0  0
   38.2210   25.5050   36.6210 N   0  0  0  0  0  0  0  0  0  0  0  0
   38.7730   27.2160   33.7420 H   0  0  0  0  0  0  0  0  0  0  0  0
   38.4770   25.0110   32.8270 H   0  0  0  0  0  0  0  0  0  0  0  0
   38.6590   27.8820   36.2750 O   0  0  0  0  0  0  0  0  0  0  0  0
   38.7300   28.0700   37.2500 H   0  0  0  0  0  0  0  0  0  0  0  0
   37.7850   23.1040   36.9030 C   0  0  0  0  0  2  0  0  0  0  0  0
   38.0060   23.5300   38.3630 C   0  0  0  0  0  2  0  0  0  0  0  0
   39.0930   23.6240   38.4930 H   0  0  0  0  0  0  0  0  0  0  0  0
  1  9  1  0  0  0  0
  1  6  1  0  0  0  0
  2  1  2  0  0  0  0
  3  2  1  0  0  0  0
  3  4  2  0  0  0  0
  4  5  1  0  0  0  0
  5  6  2  0  0  0  0
  5 11  1  0  0  0  0
  7  2  1  0  0  0  0
  8  3  1  0  0  0  0
  9 10  1  0  0  0  0
 11 12  1  0  0  0  0
 12 13  1  0  0  0  0
M  END
>  <minimizedAffinity>
-3.30631375

$$$$

 OpenBabel03272506353D

 13 13  0  0  0  0  0  0  0  0999 V2000
   38.5890   24.2070   36.0170 C   0  0  0  0  0  0  0  0  0  0  0  0
   37.8120   24.5640   37.1340 C   0  0  0  0  0  0  0  0  0  0  0  0
   38.1270   23.9970   38.3730 C   0  0  0  0  0  0  0  0  0  0  0  0
   39.1720   23.1280   38.4260 N   0  0  0  0  0  0  0  0  0  0  0  0
   39.9120   22.7960   37.3310 C   0  0  0  0  0  0  0  0  0  0  0  0
   39.6050   23.3430   36.1450 N   0  0  0  0  0  0  0  0  0  0  0  0
   36.9820   25.2340   37.1750 H   0  0  0  0  0  0  0  0  0  0  0  0
   37.5750   24.2230   39.2770 H   0  0  0  0  0  0  0  0  0  0  0  0
   38.1630   24.8440   34.8690 O   0  0  0  0  0  0  0  0  0  0  0  0
   38.5590   24.5750   33.9960 H   0  0  0  0  0  0  0  0  0  0  0  0
   41.0210   21.8480   37.4850 C   0  0  0  0  0  2  0  0  0  0  0  0
   42.1920   22.4150   36.6660 C   0  0  0  0  0  2  0  0  0  0  0  0
   41.9300   22.2590   35.6100 H   0  0  0  0  0  0  0  0  0  0  0  0
  1  6  2  0  0  0  0
  1  2  1  0  0  0  0
  2  7  1  0  0  0  0
  2  3  2  0  0  0  0
  3  4  1  0  0  0  0
  3  8  1  0  0  0  0
  5 11  1  0  0  0  0
  5  4  2  0  0  0  0
  6  5  1  0  0  0  0
  9  1  1  0  0  0  0
 10  9  1  0  0  0  0
 12 11  1  0  0  0  0
 13 12  1  0  0  0  0
M  END
>  <minimizedAffinity>
-3.26204252

$$$$

 OpenBabel03272506353D

 13 13  0  0  0  0  0  0  0  0999 V2000
   40.1510   25.3850   34.8150 C   0  0  0  0  0  0  0  0  0  0  0  0
   39.8950   26.7650   34.9160 C   0  0  0  0  0  0  0  0  0  0  0  0
   38.8430   27.1880   35.7350 C   0  0  0  0  0  0  0  0  0  0  0  0
   38.1240   26.2370   36.3870 N   0  0  0  0  0  0  0  0  0  0  0  0
   38.3880   24.9050   36.2750 C   0  0  0  0  0  0  0  0  0  0  0  0
   39.3990   24.5040   35.4890 N   0  0  0  0  0  0  0  0  0  0  0  0
   40.4100   27.5700   34.4400 H   0  0  0  0  0  0  0  0  0  0  0  0
   38.5860   28.2320   35.8630 H   0  0  0  0  0  0  0  0  0  0  0  0
   41.2140   25.1190   33.9760 O   0  0  0  0  0  0  0  0  0  0  0  0
   41.4090   24.1740   33.7320 H   0  0  0  0  0  0  0  0  0  0  0  0
   37.5580   23.9510   37.0180 C   0  0  0  0  0  2  0  0  0  0  0  0
   38.0930   23.9410   38.4590 C   0  0  0  0  0  2  0  0  0  0  0  0
   39.0500   23.4020   38.4270 H   0  0  0  0  0  0  0  0  0  0  0  0
  1  2  2  0  0  0  0
  1  6  1  0  0  0  0
  2  3  1  0  0  0  0
  3  8  1  0  0  0  0
  3  4  2  0  0  0  0
  5  4  1  0  0  0  0
  5 11  1  0  0  0  0
  6  5  2  0  0  0  0
  7  2  1  0  0  0  0
  9  1  1  0  0  0  0
 10  9  1  0  0  0  0
 11 12  1  0  0  0  0
 13 12  1  0  0  0  0
M  END
>  <minimizedAffinity>
-3.12329102

$$$$

 OpenBabel03272506353D

 13 13  0  0  0  0  0  0  0  0999 V2000
   39.8840   22.6090   37.0670 C   0  0  0  0  0  0  0  0  0  0  0  0
   39.2070   23.2670   38.1100 C   0  0  0  0  0  0  0  0  0  0  0  0
   37.8150   23.3790   38.0330 C   0  0  0  0  0  0  0  0  0  0  0  0
   37.1940   22.8430   36.9500 N   0  0  0  0  0  0  0  0  0  0  0  0
   37.8680   22.2090   35.9500 C   0  0  0  0  0  0  0  0  0  0  0  0
   39.2040   22.1050   36.0280 N   0  0  0  0  0  0  0  0  0  0  0  0
   39.6190   23.7120   38.9890 H   0  0  0  0  0  0  0  0  0  0  0  0
   37.2260   23.8720   38.7970 H   0  0  0  0  0  0  0  0  0  0  0  0
   41.2470   22.5750   37.2790 O   0  0  0  0  0  0  0  0  0  0  0  0
   41.8390   22.2440   36.5500 H   0  0  0  0  0  0  0  0  0  0  0  0
   37.1120   21.6620   34.8190 C   0  0  0  0  0  2  0  0  0  0  0  0
   35.9130   20.9120   35.4220 C   0  0  0  0  0  2  0  0  0  0  0  0
   36.3190   19.9920   35.8650 H   0  0  0  0  0  0  0  0  0  0  0  0
  1  9  1  0  0  0  0
  1  2  1  0  0  0  0
  2  7  1  0  0  0  0
  3  2  2  0  0  0  0
  3  8  1  0  0  0  0
  4  3  1  0  0  0  0
  5  6  1  0  0  0  0
  5  4  2  0  0  0  0
  6  1  2  0  0  0  0
 10  9  1  0  0  0  0
 11 12  1  0  0  0  0
 11  5  1  0  0  0  0
 12 13  1  0  0  0  0
M  END
>  <minimizedAffinity>
-3.1130681

$$$$

 OpenBabel03272506353D

 13 13  0  0  0  0  0  0  0  0999 V2000
   36.5930   26.9480   31.2300 C   0  0  0  0  0  0  0  0  0  0  0  0
   36.8990   25.5750   31.2450 C   0  0  0  0  0  0  0  0  0  0  0  0
   37.2500   24.9850   32.4630 C   0  0  0  0  0  0  0  0  0  0  0  0
   37.2750   25.7760   33.5680 N   0  0  0  0  0  0  0  0  0  0  0  0
   36.9740   27.1050   33.5320 C   0  0  0  0  0  0  0  0  0  0  0  0
   36.6390   27.6660   32.3600 N   0  0  0  0  0  0  0  0  0  0  0  0
   36.9030   24.8890   30.4270 H   0  0  0  0  0  0  0  0  0  0  0  0
   37.4980   23.9350   32.5530 H   0  0  0  0  0  0  0  0  0  0  0  0
   36.2660   27.3890   29.9630 O   0  0  0  0  0  0  0  0  0  0  0  0
   36.1510   28.3660   29.8090 H   0  0  0  0  0  0  0  0  0  0  0  0
   37.0280   27.8800   34.7770 C   0  0  0  0  0  2  0  0  0  0  0  0
   38.2570   27.3720   35.5490 C   0  0  0  0  0  2  0  0  0  0  0  0
   37.9880   26.3790   35.9340 H   0  0  0  0  0  0  0  0  0  0  0  0
  1  2  2  0  0  0  0
  1  6  1  0  0  0  0
  2  3  1  0  0  0  0
  3  8  1  0  0  0  0
  3  4  2  0  0  0  0
  5  4  1  0  0  0  0
  5 11  1  0  0  0  0
  6  5  2  0  0  0  0
  7  2  1  0  0  0  0
  9  1  1  0  0  0  0
 10  9  1  0  0  0  0
 11 12  1  0  0  0  0
 12 13  1  0  0  0  0
M  END
>  <minimizedAffinity>
-3.09526539

$$$$
