
 OpenBabel03272505293D

 34 36  0  0  0  0  0  0  0  0999 V2000
   37.3650   31.0620   47.1450 N   0  0  0  0  0  0  0  0  0  0  0  0
   36.7740   30.7360   45.9660 C   0  0  0  0  0  0  0  0  0  0  0  0
   37.2350   31.2140   44.7470 C   0  0  0  0  0  0  0  0  0  0  0  0
   38.3470   32.0550   44.7790 C   0  0  0  0  0  0  0  0  0  0  0  0
   38.8050   32.5160   43.6940 O   0  0  0  0  0  0  0  0  0  0  0  0
   38.9480   32.3880   45.9610 N   0  0  0  0  0  0  0  0  0  0  0  0
   38.4160   31.8690   47.0560 C   0  0  0  0  0  0  0  0  0  0  0  0
   38.9870   32.1930   48.1240 O   0  0  0  0  0  0  0  0  0  0  0  0
   35.9020   30.0760   45.9350 H   0  0  0  0  0  0  0  0  0  0  0  0
   37.2550   29.4760   50.4980 C   0  0  0  0  0  0  0  0  0  0  0  0
   37.7390   29.9610   49.2750 C   0  0  0  0  0  0  0  0  0  0  0  0
   36.8930   30.5760   48.3660 C   0  0  0  0  0  0  0  0  0  0  0  0
   35.5920   30.6870   48.7050 N   0  0  0  0  0  0  0  0  0  0  0  0
   35.0930   30.2240   49.8860 C   0  0  0  0  0  0  0  0  0  0  0  0
   35.9570   29.6160   50.7740 N   0  0  0  0  0  0  0  0  0  0  0  0
   37.9210   28.9930   51.2120 H   0  0  0  0  0  0  0  0  0  0  0  0
   38.7990   29.8310   49.0830 H   0  0  0  0  0  0  0  0  0  0  0  0
   34.0330   30.3610   50.0650 H   0  0  0  0  0  0  0  0  0  0  0  0
   36.6380   30.8930   43.4740 C   0  0  0  0  0  0  0  0  0  0  0  0
   36.9830   29.7900   42.7300 C   0  0  0  0  0  0  0  0  0  0  0  0
   36.4320   29.4540   41.5130 C   0  0  0  0  0  0  0  0  0  0  0  0
   35.4520   30.2780   40.9770 C   0  0  0  0  0  0  0  0  0  0  0  0
   35.1220   31.3930   41.7590 C   0  0  0  0  0  0  0  0  0  0  0  0
   35.6930   31.6630   42.9310 N   0  0  0  0  0  0  0  0  0  0  0  0
   37.7460   29.1170   43.1110 H   0  0  0  0  0  0  0  0  0  0  0  0
   36.7340   28.5750   40.9600 H   0  0  0  0  0  0  0  0  0  0  0  0
   34.9730   30.0760   40.0210 H   0  0  0  0  0  0  0  0  0  0  0  0
   34.0670   32.2630   41.1610 C   0  0  0  0  0  0  0  0  0  0  0  0
   33.6230   33.3600   42.0650 C   0  0  0  0  0  0  0  0  0  0  0  0
   34.4090   33.8450   42.6410 H   0  0  0  0  0  0  0  0  0  0  0  0
   40.0970   33.2610   45.9640 C   0  0  0  0  0  0  0  0  0  0  0  0
   39.9700   34.2340   45.0290 F   0  0  0  0  0  0  0  0  0  0  0  0
   41.2890   32.6050   45.6960 F   0  0  0  0  0  0  0  0  0  0  0  0
   40.1790   33.8740   47.2260 F   0  0  0  0  0  0  0  0  0  0  0  0
  1 12  1  0  0  0  0
  2  1  1  0  0  0  0
  3  4  1  0  0  0  0
  3  2  2  0  0  0  0
  4  6  1  0  0  0  0
  5  4  2  0  0  0  0
  6 31  1  0  0  0  0
  6  7  1  0  0  0  0
  7  1  1  0  0  0  0
  7  8  2  0  0  0  0
  9  2  1  0  0  0  0
 10 15  1  0  0  0  0
 10 16  1  0  0  0  0
 11 10  2  0  0  0  0
 12 13  2  0  0  0  0
 12 11  1  0  0  0  0
 13 14  1  0  0  0  0
 14 18  1  0  0  0  0
 14 15  2  0  0  0  0
 17 11  1  0  0  0  0
 19  3  1  0  0  0  0
 20 25  1  0  0  0  0
 20 19  2  0  0  0  0
 21 20  1  0  0  0  0
 22 21  2  0  0  0  0
 22 23  1  0  0  0  0
 23 24  2  0  0  0  0
 24 19  1  0  0  0  0
 26 21  1  0  0  0  0
 27 22  1  0  0  0  0
 28 23  1  0  0  0  0
 28 29  1  0  0  0  0
 29 30  1  0  0  0  0
 31 34  1  0  0  0  0
 32 31  1  0  0  0  0
 33 31  1  0  0  0  0
M  END
>  <minimizedAffinity>
-5.98738813

>  <minimizedRMSD>
0.0931940153

$$$$
