
 OpenBabel03272508303D

 26 27  0  0  1  0  0  0  0  0999 V2000
   37.5920   31.0980   47.8490 N   0  0  0  0  0  0  0  0  0  0  0  0
   37.1390   30.8100   46.4940 C   0  0  0  0  0  0  0  0  0  0  0  0
   38.0880   31.2910   45.4580 C   0  0  0  0  0  0  0  0  0  0  0  0
   39.4110   31.4040   45.9900 N   0  0  0  0  0  0  0  0  0  0  0  0
   39.3640   32.5250   46.9260 C   0  0  0  0  0  0  0  0  0  0  0  0
   38.7010   31.9930   48.1680 C   0  0  1  0  0  0  0  0  0  0  0  0
   36.1760   31.3690   46.3660 H   0  0  0  0  0  0  0  0  0  0  0  0
   36.8390   29.7350   46.3840 H   0  0  0  0  0  0  0  0  0  0  0  0
   37.7700   32.2780   45.0450 H   0  0  0  0  0  0  0  0  0  0  0  0
   38.0400   30.5920   44.5860 H   0  0  0  0  0  0  0  0  0  0  0  0
   39.5920   30.5270   46.5500 H   0  0  0  0  0  0  0  0  0  0  0  0
   40.3960   32.8440   47.1630 H   0  0  0  0  0  0  0  0  0  0  0  0
   38.7870   33.3270   46.4350 H   0  0  0  0  0  0  0  0  0  0  0  0
   39.4620   31.3990   48.7100 H   0  0  0  0  0  0  0  0  0  0  0  0
   37.6400   29.8790   50.0100 C   0  0  0  0  0  0  0  0  0  0  0  0
   36.9410   30.4910   48.9610 C   0  0  0  0  0  0  0  0  0  0  0  0
   35.5360   30.5000   49.0230 C   0  0  0  0  0  0  0  0  0  0  0  0
   34.9390   29.9030   50.1150 N   0  0  0  0  0  0  0  0  0  0  0  0
   35.6770   29.3290   51.0950 C   0  0  0  0  0  0  0  0  0  0  0  0
   37.0180   29.3060   51.0610 N   0  0  0  0  0  0  0  0  0  0  0  0
   38.7140   29.8650   49.9750 H   0  0  0  0  0  0  0  0  0  0  0  0
   34.9230   30.9500   48.2580 H   0  0  0  0  0  0  0  0  0  0  0  0
   35.2030   28.8620   51.9500 H   0  0  0  0  0  0  0  0  0  0  0  0
   38.2250   33.0790   49.0880 C   0  0  0  0  0  0  0  0  0  0  0  0
   39.3310   34.0550   49.4310 C   0  0  0  0  0  0  0  0  0  0  0  0
   38.9140   35.0180   49.7900 H   0  0  0  0  0  0  0  0  0  0  0  0
  1  6  1  0  0  0  0
  1 16  1  0  0  0  0
  2  1  1  0  0  0  0
  3  4  1  0  0  0  0
  3  2  1  0  0  0  0
  4 11  1  0  0  0  0
  4  5  1  0  0  0  0
  5 12  1  0  0  0  0
  5  6  1  0  0  0  0
  6 14  1  1  0  0  0
  6 24  1  0  0  0  0
  7  2  1  0  0  0  0
  8  2  1  0  0  0  0
  9  3  1  0  0  0  0
 10  3  1  0  0  0  0
 13  5  1  0  0  0  0
 15 20  1  0  0  0  0
 16 17  1  0  0  0  0
 16 15  2  0  0  0  0
 17 18  2  0  0  0  0
 18 19  1  0  0  0  0
 19 23  1  0  0  0  0
 20 19  2  0  0  0  0
 21 15  1  0  0  0  0
 22 17  1  0  0  0  0
 24 25  1  0  0  0  0
 25 26  1  0  0  0  0
M  END
>  <minimizedAffinity>
-4.82733393

>  <minimizedRMSD>
0.759366572

$$$$
