
 OpenBabel03272508363D

 38 40  0  0  1  0  0  0  0  0999 V2000
   39.8460   32.7500   45.7250 C   0  0  0  0  0  0  0  0  0  0  0  0
   39.3310   33.6450   45.3890 H   0  0  0  0  0  0  0  0  0  0  0  0
   40.5620   33.1490   46.5090 H   0  0  0  0  0  0  0  0  0  0  0  0
   37.7120   31.0290   48.0420 C   0  0  0  0  0  0  0  0  0  0  0  0
   36.9890   30.8930   46.8720 C   0  0  0  0  0  0  0  0  0  0  0  0
   37.7270   31.5310   45.8630 C   0  0  0  0  0  0  0  0  0  0  0  0
   38.8240   32.0090   46.4490 N   0  0  0  0  0  0  0  0  0  0  0  0
   38.8190   31.7110   47.7500 N   0  0  0  0  0  0  0  0  0  0  0  0
   36.0150   30.3740   46.7670 H   0  0  0  0  0  0  0  0  0  0  0  0
   37.3050   31.5060   44.9250 H   0  0  0  0  0  0  0  0  0  0  0  0
   37.3670   30.0990   51.6610 C   0  0  0  0  0  0  0  0  0  0  0  0
   37.9130   30.6540   50.5080 C   0  0  0  0  0  0  0  0  0  0  0  0
   37.2560   30.4960   49.2980 C   0  0  0  0  0  0  0  0  0  0  0  0
   36.1010   29.7890   49.3550 N   0  0  0  0  0  0  0  0  0  0  0  0
   35.5800   29.2560   50.4800 C   0  0  0  0  0  0  0  0  0  0  0  0
   36.2170   29.4130   51.6310 N   0  0  0  0  0  0  0  0  0  0  0  0
   37.9710   30.2930   52.5270 H   0  0  0  0  0  0  0  0  0  0  0  0
   38.8320   31.2140   50.4750 H   0  0  0  0  0  0  0  0  0  0  0  0
   34.6520   28.7030   50.4460 H   0  0  0  0  0  0  0  0  0  0  0  0
   40.6080   31.8890   44.8430 C   0  0  0  0  0  0  0  0  0  0  0  0
   41.7050   32.1170   44.8790 H   0  0  0  0  0  0  0  0  0  0  0  0
   40.5660   30.8400   45.2650 H   0  0  0  0  0  0  0  0  0  0  0  0
   40.2500   31.8250   43.4980 N   0  0  0  0  0  0  0  0  0  0  0  0
   39.5850   32.9420   42.9540 C   0  0  0  0  0  0  0  0  0  0  0  0
   38.2070   32.7210   42.4460 C   0  0  0  0  0  0  0  0  0  0  0  0
   38.0810   31.5060   41.7640 O   0  0  0  0  0  0  0  0  0  0  0  0
   38.5050   30.4670   42.5320 C   0  0  0  0  0  0  0  0  0  0  0  0
   39.9300   30.6110   42.9010 C   0  0  1  0  0  0  0  0  0  0  0  0
   39.7380   33.9260   43.3600 H   0  0  0  0  0  0  0  0  0  0  0  0
   40.2230   33.0440   42.0070 H   0  0  0  0  0  0  0  0  0  0  0  0
   38.1310   33.4220   41.5270 H   0  0  0  0  0  0  0  0  0  0  0  0
   37.3590   33.0990   42.9720 H   0  0  0  0  0  0  0  0  0  0  0  0
   38.5320   29.6130   41.7780 H   0  0  0  0  0  0  0  0  0  0  0  0
   37.8230   30.0660   43.2760 H   0  0  0  0  0  0  0  0  0  0  0  0
   40.1470   29.7940   43.6440 H   0  0  0  0  0  0  0  0  0  0  0  0
   40.8520   30.2970   41.7250 C   0  0  0  0  0  0  0  0  0  0  0  0
   41.5770   28.9970   41.9220 C   0  0  0  0  0  0  0  0  0  0  0  0
   42.4360   29.0400   42.6070 H   0  0  0  0  0  0  0  0  0  0  0  0
  1  7  1  0  0  0  0
  1  3  1  0  0  0  0
  2  1  1  0  0  0  0
  4 13  1  0  0  0  0
  5  4  1  0  0  0  0
  6  7  1  0  0  0  0
  6  5  2  0  0  0  0
  7  8  1  0  0  0  0
  8  4  2  0  0  0  0
  9  5  1  0  0  0  0
 10  6  1  0  0  0  0
 11 17  1  0  0  0  0
 12 11  2  0  0  0  0
 13 14  2  0  0  0  0
 13 12  1  0  0  0  0
 14 15  1  0  0  0  0
 15 16  2  0  0  0  0
 16 11  1  0  0  0  0
 18 12  1  0  0  0  0
 19 15  1  0  0  0  0
 20 21  1  0  0  0  0
 20 22  1  0  0  0  0
 20  1  1  0  0  0  0
 23 20  1  0  0  0  0
 24 29  1  0  0  0  0
 24 23  1  0  0  0  0
 25 24  1  0  0  0  0
 25 32  1  0  0  0  0
 26 25  1  0  0  0  0
 26 27  1  0  0  0  0
 27 28  1  0  0  0  0
 27 34  1  0  0  0  0
 28 23  1  0  0  0  0
 28 35  1  1  0  0  0
 30 24  1  0  0  0  0
 31 25  1  0  0  0  0
 33 27  1  0  0  0  0
 36 37  1  0  0  0  0
 36 28  1  0  0  0  0
 37 38  1  0  0  0  0
M  END
>  <minimizedAffinity>
-5.46189022

>  <minimizedRMSD>
0.643178463

$$$$
