
 OpenBabel03272505203D

 42 44  0  0  1  0  0  0  0  0999 V2000
   40.4790   22.6980   33.4240 C   0  0  0  0  0  0  0  0  0  0  0  0
   39.3830   21.8670   33.0940 C   0  0  0  0  0  0  0  0  0  0  0  0
   38.0830   22.3780   33.0560 C   0  0  0  0  0  0  0  0  0  0  0  0
   38.0260   23.7010   33.3610 N   0  0  0  0  0  0  0  0  0  0  0  0
   39.0500   24.4930   33.6730 C   0  0  0  0  0  0  0  0  0  0  0  0
   40.2830   23.9820   33.7030 N   0  0  0  0  0  0  0  0  0  0  0  0
   38.8060   25.8700   33.9690 N   0  0  0  0  0  0  0  0  0  0  0  0
   39.6730   26.5990   34.8720 C   0  0  0  0  0  0  0  0  0  0  0  0
   38.7560   27.0280   36.0280 C   0  0  0  0  0  0  0  0  0  0  0  0
   37.7350   27.9550   35.4570 C   0  0  0  0  0  0  0  0  0  0  0  0
   36.8820   27.2470   34.4260 C   0  0  0  0  0  0  0  0  0  0  0  0
   37.6780   26.5580   33.3620 C   0  0  1  0  0  0  0  0  0  0  0  0
   41.4620   22.2560   33.4400 H   0  0  0  0  0  0  0  0  0  0  0  0
   39.6080   20.8260   32.8750 H   0  0  0  0  0  0  0  0  0  0  0  0
   40.0920   27.5160   34.4000 H   0  0  0  0  0  0  0  0  0  0  0  0
   40.4650   25.9360   35.2610 H   0  0  0  0  0  0  0  0  0  0  0  0
   38.3310   26.1440   36.5110 H   0  0  0  0  0  0  0  0  0  0  0  0
   39.4270   27.6210   36.7010 H   0  0  0  0  0  0  0  0  0  0  0  0
   38.2670   28.8050   34.9720 H   0  0  0  0  0  0  0  0  0  0  0  0
   37.0650   28.3160   36.2440 H   0  0  0  0  0  0  0  0  0  0  0  0
   36.1700   27.9790   34.0130 H   0  0  0  0  0  0  0  0  0  0  0  0
   36.2940   26.4510   34.9670 H   0  0  0  0  0  0  0  0  0  0  0  0
   36.9880   25.7760   32.9290 H   0  0  0  0  0  0  0  0  0  0  0  0
   36.2690   20.9150   33.6910 C   0  0  0  0  0  0  0  0  0  0  0  0
   37.0350   21.4590   32.7110 C   0  0  0  0  0  0  0  0  0  0  0  0
   36.7510   21.0860   31.4160 C   0  0  0  0  0  0  0  0  0  0  0  0
   35.7780   20.2340   31.0920 C   0  0  0  0  0  0  0  0  0  0  0  0
   34.9730   19.6580   32.0760 C   0  0  0  0  0  0  0  0  0  0  0  0
   35.2490   20.0230   33.3670 C   0  0  0  0  0  0  0  0  0  0  0  0
   37.3690   21.5260   30.6260 H   0  0  0  0  0  0  0  0  0  0  0  0
   35.5990   19.9770   30.0570 H   0  0  0  0  0  0  0  0  0  0  0  0
   34.1960   18.9750   31.8000 H   0  0  0  0  0  0  0  0  0  0  0  0
   34.5970   19.5490   34.0990 H   0  0  0  0  0  0  0  0  0  0  0  0
   35.4560   20.6720   35.9200 N   0  0  0  0  0  0  0  0  0  0  0  0
   36.3790   21.1550   35.1020 C   0  0  0  0  0  0  0  0  0  0  0  0
   37.1530   21.7590   36.0920 N   0  0  0  0  0  0  0  0  0  0  0  0
   35.5530   20.8400   36.9490 H   0  0  0  0  0  0  0  0  0  0  0  0
   36.9640   22.7010   36.5240 H   0  0  0  0  0  0  0  0  0  0  0  0
   37.9780   21.1900   36.3950 H   0  0  0  0  0  0  0  0  0  0  0  0
   38.0460   27.4490   32.2240 C   0  0  0  0  0  2  0  0  0  0  0  0
   36.8330   28.2710   31.8520 C   0  0  0  0  0  2  0  0  0  0  0  0
   36.6640   28.2670   30.7380 H   0  0  0  0  0  0  0  0  0  0  0  0
  1 13  1  0  0  0  0
  1  6  1  0  0  0  0
  2  1  2  0  0  0  0
  3  2  1  0  0  0  0
  3  4  2  0  0  0  0
  4  5  1  0  0  0  0
  5  6  2  0  0  0  0
  5  7  1  0  0  0  0
  7  8  1  0  0  0  0
  8 16  1  0  0  0  0
  8  9  1  0  0  0  0
  9 17  1  0  0  0  0
  9 18  1  0  0  0  0
 10  9  1  0  0  0  0
 10 20  1  0  0  0  0
 11 22  1  0  0  0  0
 11 10  1  0  0  0  0
 12 23  1  6  0  0  0
 12  7  1  0  0  0  0
 12 11  1  0  0  0  0
 14  2  1  0  0  0  0
 15  8  1  0  0  0  0
 19 10  1  0  0  0  0
 21 11  1  0  0  0  0
 24 35  1  0  0  0  0
 25  3  1  0  0  0  0
 25 24  2  0  0  0  0
 26 25  1  0  0  0  0
 27 26  2  0  0  0  0
 27 28  1  0  0  0  0
 28 29  2  0  0  0  0
 29 24  1  0  0  0  0
 29 33  1  0  0  0  0
 30 26  1  0  0  0  0
 31 27  1  0  0  0  0
 32 28  1  0  0  0  0
 34 37  1  0  0  0  0
 35 34  2  0  0  0  0
 35 36  1  0  0  0  0
 36 39  1  0  0  0  0
 36 38  1  0  0  0  0
 40 12  1  0  0  0  0
 41 40  1  0  0  0  0
 42 41  1  0  0  0  0
M  END
>  <minimizedAffinity>
-6.11151695

$$$$

 OpenBabel03272505203D

 42 44  0  0  1  0  0  0  0  0999 V2000
   40.0330   23.2450   34.0940 C   0  0  0  0  0  0  0  0  0  0  0  0
   39.3650   24.4910   34.1120 C   0  0  0  0  0  0  0  0  0  0  0  0
   38.0630   24.6120   33.6180 C   0  0  0  0  0  0  0  0  0  0  0  0
   37.5640   23.4370   33.1500 N   0  0  0  0  0  0  0  0  0  0  0  0
   38.1840   22.2590   33.1280 C   0  0  0  0  0  0  0  0  0  0  0  0
   39.4270   22.1690   33.6050 N   0  0  0  0  0  0  0  0  0  0  0  0
   37.5050   21.1200   32.5950 N   0  0  0  0  0  0  0  0  0  0  0  0
   38.2450   20.0380   31.9780 C   0  0  0  0  0  0  0  0  0  0  0  0
   37.7410   20.0010   30.5270 C   0  0  0  0  0  0  0  0  0  0  0  0
   36.2910   19.6530   30.5750 C   0  0  0  0  0  0  0  0  0  0  0  0
   35.5060   20.7170   31.3120 C   0  0  0  0  0  0  0  0  0  0  0  0
   36.0560   21.0340   32.6680 C   0  0  1  0  0  0  0  0  0  0  0  0
   41.0370   23.2050   34.4860 H   0  0  0  0  0  0  0  0  0  0  0  0
   39.9130   25.3340   34.5240 H   0  0  0  0  0  0  0  0  0  0  0  0
   38.0200   19.0550   32.4510 H   0  0  0  0  0  0  0  0  0  0  0  0
   39.3260   20.2610   31.9840 H   0  0  0  0  0  0  0  0  0  0  0  0
   37.9520   20.9570   30.0390 H   0  0  0  0  0  0  0  0  0  0  0  0
   38.2920   19.1390   30.0700 H   0  0  0  0  0  0  0  0  0  0  0  0
   36.1830   18.6810   31.1080 H   0  0  0  0  0  0  0  0  0  0  0  0
   35.8810   19.5870   29.5620 H   0  0  0  0  0  0  0  0  0  0  0  0
   34.4520   20.3980   31.3490 H   0  0  0  0  0  0  0  0  0  0  0  0
   35.5650   21.6620   30.7010 H   0  0  0  0  0  0  0  0  0  0  0  0
   35.6610   22.0610   32.9200 H   0  0  0  0  0  0  0  0  0  0  0  0
   36.8950   26.4440   32.5650 C   0  0  0  0  0  0  0  0  0  0  0  0
   37.4650   25.9160   33.6780 C   0  0  0  0  0  0  0  0  0  0  0  0
   37.4320   26.6830   34.8210 C   0  0  0  0  0  0  0  0  0  0  0  0
   36.8770   27.8930   34.8800 C   0  0  0  0  0  0  0  0  0  0  0  0
   36.2830   28.4640   33.7530 C   0  0  0  0  0  0  0  0  0  0  0  0
   36.3110   27.7090   32.6120 C   0  0  0  0  0  0  0  0  0  0  0  0
   37.8910   26.2540   35.7180 H   0  0  0  0  0  0  0  0  0  0  0  0
   36.8790   28.4510   35.8060 H   0  0  0  0  0  0  0  0  0  0  0  0
   35.8410   29.4380   33.8160 H   0  0  0  0  0  0  0  0  0  0  0  0
   35.8370   28.1940   31.7600 H   0  0  0  0  0  0  0  0  0  0  0  0
   35.7200   26.0060   30.5360 N   0  0  0  0  0  0  0  0  0  0  0  0
   36.8100   25.8340   31.2690 C   0  0  0  0  0  0  0  0  0  0  0  0
   37.4840   25.0350   30.3450 N   0  0  0  0  0  0  0  0  0  0  0  0
   35.6730   25.5670   29.5860 H   0  0  0  0  0  0  0  0  0  0  0  0
   37.3400   23.9990   30.2140 H   0  0  0  0  0  0  0  0  0  0  0  0
   38.1780   25.5540   29.7590 H   0  0  0  0  0  0  0  0  0  0  0  0
   35.5490   20.1310   33.7410 C   0  0  0  0  0  2  0  0  0  0  0  0
   35.7070   20.8340   35.0700 C   0  0  0  0  0  2  0  0  0  0  0  0
   36.1740   20.1540   35.8380 H   0  0  0  0  0  0  0  0  0  0  0  0
  1  2  1  0  0  0  0
  1 13  1  0  0  0  0
  2 14  1  0  0  0  0
  3 25  1  0  0  0  0
  3  2  2  0  0  0  0
  4  3  1  0  0  0  0
  5  4  2  0  0  0  0
  5  6  1  0  0  0  0
  6  1  2  0  0  0  0
  7 12  1  0  0  0  0
  7  5  1  0  0  0  0
  8 16  1  0  0  0  0
  8 15  1  0  0  0  0
  8  7  1  0  0  0  0
  9 10  1  0  0  0  0
  9  8  1  0  0  0  0
 10 19  1  0  0  0  0
 10 11  1  0  0  0  0
 11 21  1  0  0  0  0
 11 12  1  0  0  0  0
 12 23  1  1  0  0  0
 12 40  1  0  0  0  0
 17  9  1  0  0  0  0
 18  9  1  0  0  0  0
 20 10  1  0  0  0  0
 22 11  1  0  0  0  0
 24 29  2  0  0  0  0
 24 25  1  0  0  0  0
 25 26  2  0  0  0  0
 26 27  1  0  0  0  0
 26 30  1  0  0  0  0
 27 31  1  0  0  0  0
 28 32  1  0  0  0  0
 28 27  2  0  0  0  0
 29 28  1  0  0  0  0
 33 29  1  0  0  0  0
 34 35  2  0  0  0  0
 35 24  1  0  0  0  0
 36 35  1  0  0  0  0
 37 34  1  0  0  0  0
 38 36  1  0  0  0  0
 39 36  1  0  0  0  0
 40 41  1  0  0  0  0
 41 42  1  0  0  0  0
M  END
>  <minimizedAffinity>
-5.93995237

$$$$

 OpenBabel03272505203D

 42 44  0  0  1  0  0  0  0  0999 V2000
   35.5580   25.0280   31.3450 C   0  0  0  0  0  0  0  0  0  0  0  0
   35.5930   23.6200   31.2190 C   0  0  0  0  0  0  0  0  0  0  0  0
   36.5010   22.8580   31.9590 C   0  0  0  0  0  0  0  0  0  0  0  0
   37.2930   23.6140   32.7650 N   0  0  0  0  0  0  0  0  0  0  0  0
   37.2680   24.9390   32.8930 C   0  0  0  0  0  0  0  0  0  0  0  0
   36.3920   25.6460   32.1740 N   0  0  0  0  0  0  0  0  0  0  0  0
   38.1790   25.5740   33.7920 N   0  0  0  0  0  0  0  0  0  0  0  0
   38.6440   26.9240   33.5470 C   0  0  0  0  0  0  0  0  0  0  0  0
   40.1660   26.7870   33.3880 C   0  0  0  0  0  0  0  0  0  0  0  0
   40.7020   26.3030   34.6940 C   0  0  0  0  0  0  0  0  0  0  0  0
   40.1460   24.9350   35.0300 C   0  0  0  0  0  0  0  0  0  0  0  0
   38.6510   24.8670   34.9710 C   0  0  1  0  0  0  0  0  0  0  0  0
   34.8400   25.5710   30.7520 H   0  0  0  0  0  0  0  0  0  0  0  0
   34.8860   23.1740   30.5260 H   0  0  0  0  0  0  0  0  0  0  0  0
   38.4420   27.5980   34.4100 H   0  0  0  0  0  0  0  0  0  0  0  0
   38.2120   27.3130   32.6090 H   0  0  0  0  0  0  0  0  0  0  0  0
   40.3920   26.1290   32.5440 H   0  0  0  0  0  0  0  0  0  0  0  0
   40.5180   27.8400   33.2350 H   0  0  0  0  0  0  0  0  0  0  0  0
   40.4000   27.0260   35.4850 H   0  0  0  0  0  0  0  0  0  0  0  0
   41.7920   26.2100   34.6480 H   0  0  0  0  0  0  0  0  0  0  0  0
   40.5430   24.6380   36.0140 H   0  0  0  0  0  0  0  0  0  0  0  0
   40.5410   24.2130   34.2590 H   0  0  0  0  0  0  0  0  0  0  0  0
   38.4050   23.7720   34.8400 H   0  0  0  0  0  0  0  0  0  0  0  0
   36.4170   20.6130   32.8440 C   0  0  0  0  0  0  0  0  0  0  0  0
   36.4630   21.4350   31.7660 C   0  0  0  0  0  0  0  0  0  0  0  0
   36.4700   20.8390   30.5250 C   0  0  0  0  0  0  0  0  0  0  0  0
   36.4340   19.5190   30.3420 C   0  0  0  0  0  0  0  0  0  0  0  0
   36.3870   18.6460   31.4310 C   0  0  0  0  0  0  0  0  0  0  0  0
   36.3790   19.2300   32.6690 C   0  0  0  0  0  0  0  0  0  0  0  0
   36.5060   21.5040   29.6550 H   0  0  0  0  0  0  0  0  0  0  0  0
   36.4410   19.1050   29.3430 H   0  0  0  0  0  0  0  0  0  0  0  0
   36.3580   17.5880   31.2670 H   0  0  0  0  0  0  0  0  0  0  0  0
   36.3420   18.5120   33.4860 H   0  0  0  0  0  0  0  0  0  0  0  0
   35.4300   20.5700   35.0150 N   0  0  0  0  0  0  0  0  0  0  0  0
   36.4010   21.0040   34.2250 C   0  0  0  0  0  0  0  0  0  0  0  0
   37.0670   21.7440   35.2020 N   0  0  0  0  0  0  0  0  0  0  0  0
   35.4350   20.8500   36.0250 H   0  0  0  0  0  0  0  0  0  0  0  0
   36.8080   22.7170   35.5130 H   0  0  0  0  0  0  0  0  0  0  0  0
   37.8830   21.2480   35.6300 H   0  0  0  0  0  0  0  0  0  0  0  0
   37.9870   25.2820   36.2410 C   0  0  0  0  0  2  0  0  0  0  0  0
   38.3060   24.2550   37.3030 C   0  0  0  0  0  2  0  0  0  0  0  0
   37.3790   23.9490   37.8650 H   0  0  0  0  0  0  0  0  0  0  0  0
  1  6  1  0  0  0  0
  2  1  2  0  0  0  0
  2  3  1  0  0  0  0
  3  4  2  0  0  0  0
  4  5  1  0  0  0  0
  5  7  1  0  0  0  0
  6  5  2  0  0  0  0
  7 12  1  0  0  0  0
  8  7  1  0  0  0  0
  8 15  1  0  0  0  0
  9  8  1  0  0  0  0
  9 10  1  0  0  0  0
 10 11  1  0  0  0  0
 10 19  1  0  0  0  0
 11 21  1  0  0  0  0
 12 23  1  6  0  0  0
 12 11  1  0  0  0  0
 12 40  1  0  0  0  0
 13  1  1  0  0  0  0
 14  2  1  0  0  0  0
 16  8  1  0  0  0  0
 17  9  1  0  0  0  0
 18  9  1  0  0  0  0
 20 10  1  0  0  0  0
 22 11  1  0  0  0  0
 24 35  1  0  0  0  0
 25  3  1  0  0  0  0
 25 24  2  0  0  0  0
 26 25  1  0  0  0  0
 27 26  2  0  0  0  0
 27 28  1  0  0  0  0
 28 29  2  0  0  0  0
 29 24  1  0  0  0  0
 29 33  1  0  0  0  0
 30 26  1  0  0  0  0
 31 27  1  0  0  0  0
 32 28  1  0  0  0  0
 34 37  1  0  0  0  0
 35 34  2  0  0  0  0
 35 36  1  0  0  0  0
 36 38  1  0  0  0  0
 36 39  1  0  0  0  0
 40 41  1  0  0  0  0
 41 42  1  0  0  0  0
M  END
>  <minimizedAffinity>
-5.88595104

$$$$

 OpenBabel03272505203D

 42 44  0  0  1  0  0  0  0  0999 V2000
   35.5940   25.5510   31.2460 C   0  0  0  0  0  0  0  0  0  0  0  0
   35.4930   24.1450   31.1370 C   0  0  0  0  0  0  0  0  0  0  0  0
   36.3180   23.3070   31.8930 C   0  0  0  0  0  0  0  0  0  0  0  0
   37.1720   23.9930   32.6980 N   0  0  0  0  0  0  0  0  0  0  0  0
   37.2750   25.3160   32.8090 C   0  0  0  0  0  0  0  0  0  0  0  0
   36.4770   26.0950   32.0760 N   0  0  0  0  0  0  0  0  0  0  0  0
   38.2370   25.8700   33.7100 N   0  0  0  0  0  0  0  0  0  0  0  0
   38.8310   27.1660   33.4530 C   0  0  0  0  0  0  0  0  0  0  0  0
   40.3340   26.8810   33.3090 C   0  0  0  0  0  0  0  0  0  0  0  0
   40.8110   26.3630   34.6250 C   0  0  0  0  0  0  0  0  0  0  0  0
   40.1220   25.0600   34.9720 C   0  0  0  0  0  0  0  0  0  0  0  0
   38.6290   25.1350   34.9010 C   0  0  1  0  0  0  0  0  0  0  0  0
   34.9360   26.1530   30.6410 H   0  0  0  0  0  0  0  0  0  0  0  0
   34.7520   23.7600   30.4420 H   0  0  0  0  0  0  0  0  0  0  0  0
   38.6890   27.8670   34.3070 H   0  0  0  0  0  0  0  0  0  0  0  0
   38.4460   27.5830   32.5070 H   0  0  0  0  0  0  0  0  0  0  0  0
   40.5020   26.1940   32.4750 H   0  0  0  0  0  0  0  0  0  0  0  0
   40.7880   27.8930   33.1480 H   0  0  0  0  0  0  0  0  0  0  0  0
   40.5740   27.1220   35.4050 H   0  0  0  0  0  0  0  0  0  0  0  0
   41.8870   26.1650   34.5910 H   0  0  0  0  0  0  0  0  0  0  0  0
   40.4820   24.7380   35.9620 H   0  0  0  0  0  0  0  0  0  0  0  0
   40.4520   24.2940   34.2130 H   0  0  0  0  0  0  0  0  0  0  0  0
   38.2790   24.0680   34.7800 H   0  0  0  0  0  0  0  0  0  0  0  0
   37.0800   21.1820   31.0370 C   0  0  0  0  0  0  0  0  0  0  0  0
   36.1440   21.8930   31.7150 C   0  0  0  0  0  0  0  0  0  0  0  0
   35.0610   21.1950   32.2020 C   0  0  0  0  0  0  0  0  0  0  0  0
   34.8970   19.8830   32.0400 C   0  0  0  0  0  0  0  0  0  0  0  0
   35.8410   19.1230   31.3460 C   0  0  0  0  0  0  0  0  0  0  0  0
   36.9210   19.8080   30.8590 C   0  0  0  0  0  0  0  0  0  0  0  0
   34.3070   21.7710   32.7510 H   0  0  0  0  0  0  0  0  0  0  0  0
   34.0260   19.3860   32.4450 H   0  0  0  0  0  0  0  0  0  0  0  0
   35.6950   18.0700   31.2240 H   0  0  0  0  0  0  0  0  0  0  0  0
   37.6300   19.1760   30.3260 H   0  0  0  0  0  0  0  0  0  0  0  0
   38.8780   21.0020   29.4810 N   0  0  0  0  0  0  0  0  0  0  0  0
   38.2840   21.6900   30.4430 C   0  0  0  0  0  0  0  0  0  0  0  0
   39.2010   22.7410   30.4620 N   0  0  0  0  0  0  0  0  0  0  0  0
   39.7490   21.3880   29.0440 H   0  0  0  0  0  0  0  0  0  0  0  0
   40.1270   22.7330   30.9630 H   0  0  0  0  0  0  0  0  0  0  0  0
   38.8960   23.5820   29.9190 H   0  0  0  0  0  0  0  0  0  0  0  0
   37.9980   25.6280   36.1600 C   0  0  0  0  0  2  0  0  0  0  0  0
   38.0320   24.5110   37.1780 C   0  0  0  0  0  2  0  0  0  0  0  0
   37.0310   24.3870   37.6800 H   0  0  0  0  0  0  0  0  0  0  0  0
  1  6  1  0  0  0  0
  2  1  2  0  0  0  0
  2  3  1  0  0  0  0
  3  4  2  0  0  0  0
  4  5  1  0  0  0  0
  5  7  1  0  0  0  0
  6  5  2  0  0  0  0
  7 12  1  0  0  0  0
  8  7  1  0  0  0  0
  8 15  1  0  0  0  0
  9  8  1  0  0  0  0
  9 10  1  0  0  0  0
 10 11  1  0  0  0  0
 10 19  1  0  0  0  0
 11 21  1  0  0  0  0
 12 23  1  6  0  0  0
 12 11  1  0  0  0  0
 12 40  1  0  0  0  0
 13  1  1  0  0  0  0
 14  2  1  0  0  0  0
 16  8  1  0  0  0  0
 17  9  1  0  0  0  0
 18  9  1  0  0  0  0
 20 10  1  0  0  0  0
 22 11  1  0  0  0  0
 24 25  1  0  0  0  0
 25  3  1  0  0  0  0
 25 26  2  0  0  0  0
 26 30  1  0  0  0  0
 27 26  1  0  0  0  0
 27 31  1  0  0  0  0
 28 27  2  0  0  0  0
 29 24  2  0  0  0  0
 29 28  1  0  0  0  0
 32 28  1  0  0  0  0
 33 29  1  0  0  0  0
 34 35  2  0  0  0  0
 35 36  1  0  0  0  0
 35 24  1  0  0  0  0
 36 38  1  0  0  0  0
 37 34  1  0  0  0  0
 39 36  1  0  0  0  0
 40 41  1  0  0  0  0
 41 42  1  0  0  0  0
M  END
>  <minimizedAffinity>
-5.85871124

$$$$

 OpenBabel03272505203D

 42 44  0  0  1  0  0  0  0  0999 V2000
   35.8650   30.4170   31.1980 C   0  0  0  0  0  0  0  0  0  0  0  0
   35.3530   30.9150   32.4180 C   0  0  0  0  0  0  0  0  0  0  0  0
   35.4930   30.1880   33.6030 C   0  0  0  0  0  0  0  0  0  0  0  0
   36.1500   29.0110   33.4270 N   0  0  0  0  0  0  0  0  0  0  0  0
   36.6360   28.5320   32.2840 C   0  0  0  0  0  0  0  0  0  0  0  0
   36.4900   29.2450   31.1650 N   0  0  0  0  0  0  0  0  0  0  0  0
   37.3020   27.2670   32.2810 N   0  0  0  0  0  0  0  0  0  0  0  0
   37.2920   26.4270   31.1010 C   0  0  0  0  0  0  0  0  0  0  0  0
   36.5850   25.1390   31.5480 C   0  0  0  0  0  0  0  0  0  0  0  0
   37.4370   24.5130   32.6010 C   0  0  0  0  0  0  0  0  0  0  0  0
   37.5560   25.4200   33.8070 C   0  0  0  0  0  0  0  0  0  0  0  0
   38.0020   26.8090   33.4700 C   0  0  1  0  0  0  0  0  0  0  0  0
   35.7310   31.0150   30.3110 H   0  0  0  0  0  0  0  0  0  0  0  0
   34.8530   31.8790   32.3810 H   0  0  0  0  0  0  0  0  0  0  0  0
   38.3210   26.1630   30.7680 H   0  0  0  0  0  0  0  0  0  0  0  0
   36.7070   26.9040   30.2960 H   0  0  0  0  0  0  0  0  0  0  0  0
   35.5690   25.3710   31.8800 H   0  0  0  0  0  0  0  0  0  0  0  0
   36.6150   24.4830   30.6400 H   0  0  0  0  0  0  0  0  0  0  0  0
   38.4510   24.3390   32.1720 H   0  0  0  0  0  0  0  0  0  0  0  0
   36.9940   23.5720   32.9420 H   0  0  0  0  0  0  0  0  0  0  0  0
   38.2190   24.9310   34.5390 H   0  0  0  0  0  0  0  0  0  0  0  0
   36.5290   25.5050   34.2660 H   0  0  0  0  0  0  0  0  0  0  0  0
   37.6690   27.4510   34.3370 H   0  0  0  0  0  0  0  0  0  0  0  0
   33.6740   30.4660   35.1670 C   0  0  0  0  0  0  0  0  0  0  0  0
   34.9420   30.7740   34.7930 C   0  0  0  0  0  0  0  0  0  0  0  0
   35.6350   31.6500   35.5970 C   0  0  0  0  0  0  0  0  0  0  0  0
   35.1270   32.1950   36.7020 C   0  0  0  0  0  0  0  0  0  0  0  0
   33.8260   31.8990   37.1140 C   0  0  0  0  0  0  0  0  0  0  0  0
   33.1290   31.0280   36.3200 C   0  0  0  0  0  0  0  0  0  0  0  0
   36.6590   31.8970   35.2940 H   0  0  0  0  0  0  0  0  0  0  0  0
   35.7180   32.8780   37.2970 H   0  0  0  0  0  0  0  0  0  0  0  0
   33.4320   32.3450   38.0040 H   0  0  0  0  0  0  0  0  0  0  0  0
   32.1210   30.8260   36.6800 H   0  0  0  0  0  0  0  0  0  0  0  0
   31.9200   28.8500   35.1970 N   0  0  0  0  0  0  0  0  0  0  0  0
   32.7680   29.5820   34.4900 C   0  0  0  0  0  0  0  0  0  0  0  0
   32.3580   29.1180   33.2400 N   0  0  0  0  0  0  0  0  0  0  0  0
   31.2530   28.2180   34.6930 H   0  0  0  0  0  0  0  0  0  0  0  0
   32.6720   28.2200   32.7900 H   0  0  0  0  0  0  0  0  0  0  0  0
   31.6830   29.7520   32.7510 H   0  0  0  0  0  0  0  0  0  0  0  0
   39.4850   26.9570   33.4030 C   0  0  0  0  0  2  0  0  0  0  0  0
   40.0380   26.8530   34.8050 C   0  0  0  0  0  2  0  0  0  0  0  0
   40.7760   27.6780   35.0140 H   0  0  0  0  0  0  0  0  0  0  0  0
  1  2  1  0  0  0  0
  2  3  2  0  0  0  0
  3 25  1  0  0  0  0
  4  3  1  0  0  0  0
  5  4  2  0  0  0  0
  6  1  2  0  0  0  0
  6  5  1  0  0  0  0
  7  5  1  0  0  0  0
  7 12  1  0  0  0  0
  8  9  1  0  0  0  0
  8  7  1  0  0  0  0
  9 17  1  0  0  0  0
  9 10  1  0  0  0  0
 10 20  1  0  0  0  0
 10 11  1  0  0  0  0
 11 22  1  0  0  0  0
 11 21  1  0  0  0  0
 12 11  1  0  0  0  0
 12 23  1  1  0  0  0
 13  1  1  0  0  0  0
 14  2  1  0  0  0  0
 15  8  1  0  0  0  0
 16  8  1  0  0  0  0
 18  9  1  0  0  0  0
 19 10  1  0  0  0  0
 24 29  1  0  0  0  0
 25 24  2  0  0  0  0
 25 26  1  0  0  0  0
 26 27  2  0  0  0  0
 27 28  1  0  0  0  0
 27 31  1  0  0  0  0
 28 32  1  0  0  0  0
 29 33  1  0  0  0  0
 29 28  2  0  0  0  0
 30 26  1  0  0  0  0
 35 24  1  0  0  0  0
 35 34  2  0  0  0  0
 36 35  1  0  0  0  0
 37 34  1  0  0  0  0
 38 36  1  0  0  0  0
 39 36  1  0  0  0  0
 40 12  1  0  0  0  0
 40 41  1  0  0  0  0
 41 42  1  0  0  0  0
M  END
>  <minimizedAffinity>
-5.787714

$$$$

 OpenBabel03272505203D

 42 44  0  0  1  0  0  0  0  0999 V2000
   37.9940   26.2360   34.4980 C   0  0  0  0  0  0  0  0  0  0  0  0
   39.2190   25.8130   35.0630 C   0  0  0  0  0  0  0  0  0  0  0  0
   39.8570   24.6570   34.6060 C   0  0  0  0  0  0  0  0  0  0  0  0
   39.1770   24.0380   33.6060 N   0  0  0  0  0  0  0  0  0  0  0  0
   38.0230   24.4260   33.0660 C   0  0  0  0  0  0  0  0  0  0  0  0
   37.4320   25.5340   33.5190 N   0  0  0  0  0  0  0  0  0  0  0  0
   37.4440   23.6490   32.0150 N   0  0  0  0  0  0  0  0  0  0  0  0
   36.0090   23.6160   31.8230 C   0  0  0  0  0  0  0  0  0  0  0  0
   35.6250   22.1410   32.0230 C   0  0  0  0  0  0  0  0  0  0  0  0
   36.2940   21.3620   30.9400 C   0  0  0  0  0  0  0  0  0  0  0  0
   37.8000   21.4700   31.0520 C   0  0  0  0  0  0  0  0  0  0  0  0
   38.2960   22.8800   31.1220 C   0  0  1  0  0  0  0  0  0  0  0  0
   37.5410   27.1340   34.8860 H   0  0  0  0  0  0  0  0  0  0  0  0
   39.6280   26.4290   35.8600 H   0  0  0  0  0  0  0  0  0  0  0  0
   35.7190   23.9150   30.7900 H   0  0  0  0  0  0  0  0  0  0  0  0
   35.5050   24.2310   32.5880 H   0  0  0  0  0  0  0  0  0  0  0  0
   35.8990   21.8220   33.0320 H   0  0  0  0  0  0  0  0  0  0  0  0
   34.5210   22.1210   31.8360 H   0  0  0  0  0  0  0  0  0  0  0  0
   35.9680   21.7780   29.9590 H   0  0  0  0  0  0  0  0  0  0  0  0
   36.0350   20.3010   31.0170 H   0  0  0  0  0  0  0  0  0  0  0  0
   38.2450   20.9080   30.2140 H   0  0  0  0  0  0  0  0  0  0  0  0
   38.1020   20.9640   32.0130 H   0  0  0  0  0  0  0  0  0  0  0  0
   39.3210   22.8160   31.5920 H   0  0  0  0  0  0  0  0  0  0  0  0
   41.1160   23.3360   36.1870 C   0  0  0  0  0  0  0  0  0  0  0  0
   41.0980   24.3070   35.2400 C   0  0  0  0  0  0  0  0  0  0  0  0
   42.2990   24.9100   34.9380 C   0  0  0  0  0  0  0  0  0  0  0  0
   43.4510   24.5870   35.5240 C   0  0  0  0  0  0  0  0  0  0  0  0
   43.5040   23.5930   36.5020 C   0  0  0  0  0  0  0  0  0  0  0  0
   42.3150   22.9880   36.8080 C   0  0  0  0  0  0  0  0  0  0  0  0
   42.2820   25.6930   34.1730 H   0  0  0  0  0  0  0  0  0  0  0  0
   44.3660   25.0940   35.2470 H   0  0  0  0  0  0  0  0  0  0  0  0
   44.4380   23.3440   36.9640 H   0  0  0  0  0  0  0  0  0  0  0  0
   42.4040   22.2200   37.5750 H   0  0  0  0  0  0  0  0  0  0  0  0
   39.9060   22.2780   37.9490 N   0  0  0  0  0  0  0  0  0  0  0  0
   39.9960   22.5740   36.6610 C   0  0  0  0  0  0  0  0  0  0  0  0
   38.8140   21.9380   36.2800 N   0  0  0  0  0  0  0  0  0  0  0  0
   39.0770   21.7330   38.2870 H   0  0  0  0  0  0  0  0  0  0  0  0
   38.7100   20.9070   36.0930 H   0  0  0  0  0  0  0  0  0  0  0  0
   37.9950   22.5830   36.1860 H   0  0  0  0  0  0  0  0  0  0  0  0
   38.5020   23.5060   29.7840 C   0  0  0  0  0  2  0  0  0  0  0  0
   39.6050   22.7560   29.0720 C   0  0  0  0  0  2  0  0  0  0  0  0
   40.3550   23.4660   28.6210 H   0  0  0  0  0  0  0  0  0  0  0  0
  1 13  1  0  0  0  0
  1  2  1  0  0  0  0
  2 14  1  0  0  0  0
  3  2  2  0  0  0  0
  3 25  1  0  0  0  0
  4  3  1  0  0  0  0
  5  6  1  0  0  0  0
  5  4  2  0  0  0  0
  6  1  2  0  0  0  0
  7  5  1  0  0  0  0
  8  7  1  0  0  0  0
  8  9  1  0  0  0  0
  8 16  1  0  0  0  0
  9 17  1  0  0  0  0
 10 20  1  0  0  0  0
 10 11  1  0  0  0  0
 10  9  1  0  0  0  0
 11 12  1  0  0  0  0
 11 22  1  0  0  0  0
 12 23  1  1  0  0  0
 12  7  1  0  0  0  0
 15  8  1  0  0  0  0
 18  9  1  0  0  0  0
 19 10  1  0  0  0  0
 21 11  1  0  0  0  0
 24 35  1  0  0  0  0
 24 29  1  0  0  0  0
 25 24  2  0  0  0  0
 26 25  1  0  0  0  0
 26 27  2  0  0  0  0
 27 28  1  0  0  0  0
 28 29  2  0  0  0  0
 28 32  1  0  0  0  0
 29 33  1  0  0  0  0
 30 26  1  0  0  0  0
 31 27  1  0  0  0  0
 34 37  1  0  0  0  0
 35 34  2  0  0  0  0
 36 35  1  0  0  0  0
 38 36  1  0  0  0  0
 39 36  1  0  0  0  0
 40 12  1  0  0  0  0
 41 40  1  0  0  0  0
 42 41  1  0  0  0  0
M  END
>  <minimizedAffinity>
-5.78430414

$$$$

 OpenBabel03272505203D

 42 44  0  0  1  0  0  0  0  0999 V2000
   39.9440   24.7760   32.0980 C   0  0  0  0  0  0  0  0  0  0  0  0
   39.1530   25.9010   32.4250 C   0  0  0  0  0  0  0  0  0  0  0  0
   37.8090   25.7530   32.7790 C   0  0  0  0  0  0  0  0  0  0  0  0
   37.3990   24.4580   32.7660 N   0  0  0  0  0  0  0  0  0  0  0  0
   38.1340   23.3900   32.4610 C   0  0  0  0  0  0  0  0  0  0  0  0
   39.4150   23.5570   32.1250 N   0  0  0  0  0  0  0  0  0  0  0  0
   37.5360   22.0930   32.4980 N   0  0  0  0  0  0  0  0  0  0  0  0
   38.0120   21.0320   31.6350 C   0  0  0  0  0  0  0  0  0  0  0  0
   36.8030   20.6730   30.7580 C   0  0  0  0  0  0  0  0  0  0  0  0
   35.7440   20.1420   31.6660 C   0  0  0  0  0  0  0  0  0  0  0  0
   35.3030   21.2000   32.6550 C   0  0  0  0  0  0  0  0  0  0  0  0
   36.4360   21.8230   33.4100 C   0  0  1  0  0  0  0  0  0  0  0  0
   40.9750   24.9430   31.8310 H   0  0  0  0  0  0  0  0  0  0  0  0
   39.6420   26.8710   32.3850 H   0  0  0  0  0  0  0  0  0  0  0  0
   38.3080   20.1260   32.2110 H   0  0  0  0  0  0  0  0  0  0  0  0
   38.8320   21.3990   30.9930 H   0  0  0  0  0  0  0  0  0  0  0  0
   36.4930   21.5480   30.1800 H   0  0  0  0  0  0  0  0  0  0  0  0
   37.1710   19.8280   30.1200 H   0  0  0  0  0  0  0  0  0  0  0  0
   36.1650   19.2730   32.2220 H   0  0  0  0  0  0  0  0  0  0  0  0
   34.8620   19.8430   31.0910 H   0  0  0  0  0  0  0  0  0  0  0  0
   34.5490   20.7510   33.3210 H   0  0  0  0  0  0  0  0  0  0  0  0
   34.8060   22.0230   32.0660 H   0  0  0  0  0  0  0  0  0  0  0  0
   36.0420   22.8150   33.7800 H   0  0  0  0  0  0  0  0  0  0  0  0
   37.1180   27.4420   34.3600 C   0  0  0  0  0  0  0  0  0  0  0  0
   37.0860   26.9530   33.0950 C   0  0  0  0  0  0  0  0  0  0  0  0
   36.3430   27.6550   32.1720 C   0  0  0  0  0  0  0  0  0  0  0  0
   35.6710   28.7690   32.4620 C   0  0  0  0  0  0  0  0  0  0  0  0
   35.6840   29.2980   33.7540 C   0  0  0  0  0  0  0  0  0  0  0  0
   36.4200   28.6060   34.6780 C   0  0  0  0  0  0  0  0  0  0  0  0
   36.3190   27.2600   31.1510 H   0  0  0  0  0  0  0  0  0  0  0  0
   35.1040   29.2810   31.6960 H   0  0  0  0  0  0  0  0  0  0  0  0
   35.1390   30.1930   33.9720 H   0  0  0  0  0  0  0  0  0  0  0  0
   36.4010   29.0550   35.6700 H   0  0  0  0  0  0  0  0  0  0  0  0
   38.6340   27.6520   36.1890 N   0  0  0  0  0  0  0  0  0  0  0  0
   37.8200   26.8840   35.4810 C   0  0  0  0  0  0  0  0  0  0  0  0
   38.0250   25.7240   36.2270 N   0  0  0  0  0  0  0  0  0  0  0  0
   39.1320   27.2390   37.0140 H   0  0  0  0  0  0  0  0  0  0  0  0
   38.8370   25.0620   36.1150 H   0  0  0  0  0  0  0  0  0  0  0  0
   37.2830   25.5400   36.9420 H   0  0  0  0  0  0  0  0  0  0  0  0
   36.8270   21.0610   34.6310 C   0  0  0  0  0  2  0  0  0  0  0  0
   35.5880   20.8290   35.4650 C   0  0  0  0  0  2  0  0  0  0  0  0
   35.7720   21.0810   36.5470 H   0  0  0  0  0  0  0  0  0  0  0  0
  1  6  2  0  0  0  0
  1  2  1  0  0  0  0
  2  3  2  0  0  0  0
  3 25  1  0  0  0  0
  4  3  1  0  0  0  0
  5  7  1  0  0  0  0
  5  4  2  0  0  0  0
  6  5  1  0  0  0  0
  7 12  1  0  0  0  0
  8 15  1  0  0  0  0
  8  7  1  0  0  0  0
  9  8  1  0  0  0  0
  9 10  1  0  0  0  0
 10 19  1  0  0  0  0
 10 11  1  0  0  0  0
 11 21  1  0  0  0  0
 11 12  1  0  0  0  0
 12 23  1  1  0  0  0
 12 40  1  0  0  0  0
 13  1  1  0  0  0  0
 14  2  1  0  0  0  0
 16  8  1  0  0  0  0
 17  9  1  0  0  0  0
 18  9  1  0  0  0  0
 20 10  1  0  0  0  0
 22 11  1  0  0  0  0
 24 29  1  0  0  0  0
 24 35  1  0  0  0  0
 25 24  2  0  0  0  0
 26 27  2  0  0  0  0
 26 25  1  0  0  0  0
 27 28  1  0  0  0  0
 28 32  1  0  0  0  0
 28 29  2  0  0  0  0
 29 33  1  0  0  0  0
 30 26  1  0  0  0  0
 31 27  1  0  0  0  0
 34 37  1  0  0  0  0
 35 34  2  0  0  0  0
 35 36  1  0  0  0  0
 36 39  1  0  0  0  0
 38 36  1  0  0  0  0
 40 41  1  0  0  0  0
 41 42  1  0  0  0  0
M  END
>  <minimizedAffinity>
-5.58038616

$$$$

 OpenBabel03272505203D

 42 44  0  0  1  0  0  0  0  0999 V2000
   38.3790   21.8720   34.1460 C   0  0  0  0  0  0  0  0  0  0  0  0
   39.6800   22.0890   34.6550 C   0  0  0  0  0  0  0  0  0  0  0  0
   40.2400   23.3690   34.6660 C   0  0  0  0  0  0  0  0  0  0  0  0
   39.4080   24.3150   34.1540 N   0  0  0  0  0  0  0  0  0  0  0  0
   38.1810   24.1220   33.6730 C   0  0  0  0  0  0  0  0  0  0  0  0
   37.6690   22.8900   33.6720 N   0  0  0  0  0  0  0  0  0  0  0  0
   37.4430   25.2380   33.1690 N   0  0  0  0  0  0  0  0  0  0  0  0
   36.4570   25.0620   32.1230 C   0  0  0  0  0  0  0  0  0  0  0  0
   36.9760   25.9140   30.9540 C   0  0  0  0  0  0  0  0  0  0  0  0
   36.9720   27.3350   31.4120 C   0  0  0  0  0  0  0  0  0  0  0  0
   37.9160   27.5260   32.5810 C   0  0  0  0  0  0  0  0  0  0  0  0
   37.6750   26.5680   33.7060 C   0  0  1  0  0  0  0  0  0  0  0  0
   37.9920   20.8650   34.1590 H   0  0  0  0  0  0  0  0  0  0  0  0
   40.2110   21.2170   35.0290 H   0  0  0  0  0  0  0  0  0  0  0  0
   35.4570   25.4500   32.4220 H   0  0  0  0  0  0  0  0  0  0  0  0
   36.4130   24.0040   31.8120 H   0  0  0  0  0  0  0  0  0  0  0  0
   37.9590   25.5520   30.6410 H   0  0  0  0  0  0  0  0  0  0  0  0
   36.1880   25.8010   30.1650 H   0  0  0  0  0  0  0  0  0  0  0  0
   35.9370   27.5970   31.7300 H   0  0  0  0  0  0  0  0  0  0  0  0
   37.3100   27.9960   30.6080 H   0  0  0  0  0  0  0  0  0  0  0  0
   37.8520   28.5780   32.9020 H   0  0  0  0  0  0  0  0  0  0  0  0
   38.9610   27.3370   32.2030 H   0  0  0  0  0  0  0  0  0  0  0  0
   38.6410   26.5420   34.2910 H   0  0  0  0  0  0  0  0  0  0  0  0
   41.8170   23.0870   36.4730 C   0  0  0  0  0  0  0  0  0  0  0  0
   41.5670   23.4930   35.2020 C   0  0  0  0  0  0  0  0  0  0  0  0
   42.6260   24.0090   34.4910 C   0  0  0  0  0  0  0  0  0  0  0  0
   43.8580   24.1240   34.9850 C   0  0  0  0  0  0  0  0  0  0  0  0
   44.1490   23.7170   36.2880 C   0  0  0  0  0  0  0  0  0  0  0  0
   43.1010   23.2020   37.0030 C   0  0  0  0  0  0  0  0  0  0  0  0
   42.4220   24.3350   33.4650 H   0  0  0  0  0  0  0  0  0  0  0  0
   44.6540   24.5380   34.3790 H   0  0  0  0  0  0  0  0  0  0  0  0
   45.1440   23.8160   36.6710 H   0  0  0  0  0  0  0  0  0  0  0  0
   43.3740   22.8970   38.0120 H   0  0  0  0  0  0  0  0  0  0  0  0
   41.0240   21.2650   37.7920 N   0  0  0  0  0  0  0  0  0  0  0  0
   40.8760   22.5210   37.3970 C   0  0  0  0  0  0  0  0  0  0  0  0
   39.7280   22.7770   38.1460 N   0  0  0  0  0  0  0  0  0  0  0  0
   40.3400   20.8650   38.4770 H   0  0  0  0  0  0  0  0  0  0  0  0
   38.7460   22.5150   37.8670 H   0  0  0  0  0  0  0  0  0  0  0  0
   39.9100   23.2730   39.0490 H   0  0  0  0  0  0  0  0  0  0  0  0
   36.6330   27.0310   34.6680 C   0  0  0  0  0  2  0  0  0  0  0  0
   36.6900   28.5390   34.7440 C   0  0  0  0  0  2  0  0  0  0  0  0
   36.6810   28.8940   35.8140 H   0  0  0  0  0  0  0  0  0  0  0  0
  1 13  1  0  0  0  0
  1  2  1  0  0  0  0
  2  3  2  0  0  0  0
  2 14  1  0  0  0  0
  3 25  1  0  0  0  0
  4  3  1  0  0  0  0
  5  4  2  0  0  0  0
  6  5  1  0  0  0  0
  6  1  2  0  0  0  0
  7  5  1  0  0  0  0
  7 12  1  0  0  0  0
  8 15  1  0  0  0  0
  8  7  1  0  0  0  0
  9 10  1  0  0  0  0
  9  8  1  0  0  0  0
 10 19  1  0  0  0  0
 10 11  1  0  0  0  0
 11 21  1  0  0  0  0
 11 12  1  0  0  0  0
 12 23  1  1  0  0  0
 12 40  1  0  0  0  0
 16  8  1  0  0  0  0
 17  9  1  0  0  0  0
 18  9  1  0  0  0  0
 20 10  1  0  0  0  0
 22 11  1  0  0  0  0
 24 29  1  0  0  0  0
 24 35  1  0  0  0  0
 25 24  2  0  0  0  0
 26 27  2  0  0  0  0
 26 25  1  0  0  0  0
 27 28  1  0  0  0  0
 28 32  1  0  0  0  0
 28 29  2  0  0  0  0
 29 33  1  0  0  0  0
 30 26  1  0  0  0  0
 31 27  1  0  0  0  0
 34 37  1  0  0  0  0
 35 34  2  0  0  0  0
 35 36  1  0  0  0  0
 36 39  1  0  0  0  0
 38 36  1  0  0  0  0
 40 41  1  0  0  0  0
 41 42  1  0  0  0  0
M  END
>  <minimizedAffinity>
-5.55627108

$$$$

 OpenBabel03272505203D

 42 44  0  0  1  0  0  0  0  0999 V2000
   38.2590   26.0940   35.7430 C   0  0  0  0  0  0  0  0  0  0  0  0
   37.5600   27.1810   35.1700 C   0  0  0  0  0  0  0  0  0  0  0  0
   37.0640   27.1070   33.8660 C   0  0  0  0  0  0  0  0  0  0  0  0
   37.3310   25.9170   33.2660 N   0  0  0  0  0  0  0  0  0  0  0  0
   37.9870   24.8860   33.7950 C   0  0  0  0  0  0  0  0  0  0  0  0
   38.4520   24.9810   35.0430 N   0  0  0  0  0  0  0  0  0  0  0  0
   38.1800   23.7040   33.0160 N   0  0  0  0  0  0  0  0  0  0  0  0
   39.3330   22.8540   33.2310 C   0  0  0  0  0  0  0  0  0  0  0  0
   40.0890   22.8800   31.8930 C   0  0  0  0  0  0  0  0  0  0  0  0
   39.1940   22.2610   30.8710 C   0  0  0  0  0  0  0  0  0  0  0  0
   37.9260   23.0710   30.7050 C   0  0  0  0  0  0  0  0  0  0  0  0
   37.2130   23.3380   31.9930 C   0  0  1  0  0  0  0  0  0  0  0  0
   38.6220   26.2010   36.7520 H   0  0  0  0  0  0  0  0  0  0  0  0
   37.4340   28.0630   35.7930 H   0  0  0  0  0  0  0  0  0  0  0  0
   39.0420   21.8010   33.4470 H   0  0  0  0  0  0  0  0  0  0  0  0
   39.9770   23.2750   34.0220 H   0  0  0  0  0  0  0  0  0  0  0  0
   40.3880   23.9050   31.6570 H   0  0  0  0  0  0  0  0  0  0  0  0
   40.9570   22.1920   32.0590 H   0  0  0  0  0  0  0  0  0  0  0  0
   38.9310   21.2340   31.2140 H   0  0  0  0  0  0  0  0  0  0  0  0
   39.6920   22.2280   29.8970 H   0  0  0  0  0  0  0  0  0  0  0  0
   37.2880   22.5570   29.9680 H   0  0  0  0  0  0  0  0  0  0  0  0
   38.2210   24.0710   30.2760 H   0  0  0  0  0  0  0  0  0  0  0  0
   36.5620   24.2390   31.7960 H   0  0  0  0  0  0  0  0  0  0  0  0
   36.2320   28.4380   32.0310 C   0  0  0  0  0  0  0  0  0  0  0  0
   36.3670   28.2610   33.3700 C   0  0  0  0  0  0  0  0  0  0  0  0
   35.8140   29.2210   34.1870 C   0  0  0  0  0  0  0  0  0  0  0  0
   35.1660   30.2920   33.7300 C   0  0  0  0  0  0  0  0  0  0  0  0
   35.0100   30.5040   32.3590 C   0  0  0  0  0  0  0  0  0  0  0  0
   35.5570   29.5540   31.5390 C   0  0  0  0  0  0  0  0  0  0  0  0
   35.9230   29.0750   35.2670 H   0  0  0  0  0  0  0  0  0  0  0  0
   34.7500   31.0150   34.4190 H   0  0  0  0  0  0  0  0  0  0  0  0
   34.4870   31.3690   32.0070 H   0  0  0  0  0  0  0  0  0  0  0  0
   35.4110   29.7600   30.4800 H   0  0  0  0  0  0  0  0  0  0  0  0
   35.8980   26.7120   30.4200 N   0  0  0  0  0  0  0  0  0  0  0  0
   36.7220   27.5750   30.9950 C   0  0  0  0  0  0  0  0  0  0  0  0
   37.8470   27.2250   30.2480 N   0  0  0  0  0  0  0  0  0  0  0  0
   36.2620   26.0960   29.6550 H   0  0  0  0  0  0  0  0  0  0  0  0
   38.4790   26.4050   30.4440 H   0  0  0  0  0  0  0  0  0  0  0  0
   38.0350   27.8610   29.4380 H   0  0  0  0  0  0  0  0  0  0  0  0
   36.2810   22.2450   32.3950 C   0  0  0  0  0  2  0  0  0  0  0  0
   35.5230   21.7910   31.1690 C   0  0  0  0  0  2  0  0  0  0  0  0
   34.4190   21.7100   31.3790 H   0  0  0  0  0  0  0  0  0  0  0  0
  1 13  1  0  0  0  0
  2  1  1  0  0  0  0
  2 14  1  0  0  0  0
  3  2  2  0  0  0  0
  4  5  2  0  0  0  0
  4  3  1  0  0  0  0
  5  6  1  0  0  0  0
  6  1  2  0  0  0  0
  7  8  1  0  0  0  0
  7  5  1  0  0  0  0
  8 15  1  0  0  0  0
  8 16  1  0  0  0  0
  9 18  1  0  0  0  0
  9  8  1  0  0  0  0
 10 19  1  0  0  0  0
 10  9  1  0  0  0  0
 11 10  1  0  0  0  0
 11 12  1  0  0  0  0
 12 23  1  6  0  0  0
 12 40  1  0  0  0  0
 12  7  1  0  0  0  0
 17  9  1  0  0  0  0
 20 10  1  0  0  0  0
 21 11  1  0  0  0  0
 22 11  1  0  0  0  0
 24 25  1  0  0  0  0
 25  3  1  0  0  0  0
 25 26  2  0  0  0  0
 26 30  1  0  0  0  0
 27 26  1  0  0  0  0
 27 31  1  0  0  0  0
 28 27  2  0  0  0  0
 29 24  2  0  0  0  0
 29 28  1  0  0  0  0
 32 28  1  0  0  0  0
 33 29  1  0  0  0  0
 34 35  2  0  0  0  0
 35 24  1  0  0  0  0
 36 38  1  0  0  0  0
 36 35  1  0  0  0  0
 37 34  1  0  0  0  0
 39 36  1  0  0  0  0
 41 42  1  0  0  0  0
 41 40  1  0  0  0  0
M  END
>  <minimizedAffinity>
-5.52921772

$$$$
