
 OpenBabel03272502153D

 36 38  0  0  1  0  0  0  0  0999 V2000
   36.7010   27.9240   33.6980 C   0  0  0  0  0  0  0  0  0  0  0  0
   36.5920   28.0380   32.3350 C   0  0  0  0  0  0  0  0  0  0  0  0
   35.9700   29.1240   31.7010 C   0  0  0  0  0  0  0  0  0  0  0  0
   35.4580   30.1030   32.4960 N   0  0  0  0  0  0  0  0  0  0  0  0
   35.5650   29.9920   33.8290 C   0  0  0  0  0  0  0  0  0  0  0  0
   36.1620   28.9440   34.4140 N   0  0  0  0  0  0  0  0  0  0  0  0
   36.9870   27.2810   31.6790 H   0  0  0  0  0  0  0  0  0  0  0  0
   35.8840   29.2150   30.6470 H   0  0  0  0  0  0  0  0  0  0  0  0
   35.0060   31.0560   34.6800 C   0  0  2  0  0  0  0  0  0  0  0  0
   35.8940   31.4700   35.8250 C   0  0  0  0  0  0  0  0  0  0  0  0
   34.8680   32.0270   36.8380 C   0  0  0  0  0  0  0  0  0  0  0  0
   33.5060   31.6910   36.2980 C   0  0  0  0  0  0  0  0  0  0  0  0
   33.8270   30.4840   35.4320 C   0  0  1  0  0  0  0  0  0  0  0  0
   34.6880   31.9340   34.1080 H   0  0  0  0  0  0  0  0  0  0  0  0
   36.4890   30.6620   36.2470 H   0  0  0  0  0  0  0  0  0  0  0  0
   36.4740   32.3470   35.4670 H   0  0  0  0  0  0  0  0  0  0  0  0
   34.9980   31.4120   37.7760 H   0  0  0  0  0  0  0  0  0  0  0  0
   35.0250   33.0900   37.0360 H   0  0  0  0  0  0  0  0  0  0  0  0
   32.7740   31.4560   37.0960 H   0  0  0  0  0  0  0  0  0  0  0  0
   33.1510   32.4870   35.6190 H   0  0  0  0  0  0  0  0  0  0  0  0
   34.1710   29.6570   36.0770 H   0  0  0  0  0  0  0  0  0  0  0  0
   32.6960   30.0460   34.5680 C   0  0  0  0  0  0  0  0  0  0  0  0
   32.2460   30.8880   34.0430 H   0  0  0  0  0  0  0  0  0  0  0  0
   33.0970   29.2720   33.8880 H   0  0  0  0  0  0  0  0  0  0  0  0
   31.9730   29.5310   35.2260 H   0  0  0  0  0  0  0  0  0  0  0  0
   37.5060   25.5460   33.7630 C   0  0  0  0  0  0  0  0  0  0  0  0
   37.3360   26.8130   34.3440 C   0  0  0  0  0  0  0  0  0  0  0  0
   37.8270   26.9640   35.6220 C   0  0  0  0  0  0  0  0  0  0  0  0
   38.4300   25.9150   36.2400 N   0  0  0  0  0  0  0  0  0  0  0  0
   38.5670   24.7180   35.6380 C   0  0  0  0  0  0  0  0  0  0  0  0
   38.0970   24.5400   34.3870 N   0  0  0  0  0  0  0  0  0  0  0  0
   37.1160   25.4250   32.7470 H   0  0  0  0  0  0  0  0  0  0  0  0
   37.7180   27.9250   36.1080 H   0  0  0  0  0  0  0  0  0  0  0  0
   39.2390   23.5960   36.3600 C   0  0  0  0  0  2  0  0  0  0  0  0
   38.6520   23.4440   37.7430 C   0  0  0  0  0  2  0  0  0  0  0  0
   38.7290   22.4320   38.1500 H   0  0  0  0  0  0  0  0  0  0  0  0
  1 27  1  0  0  0  0
  1  6  1  0  0  0  0
  2  1  2  0  0  0  0
  3  2  1  0  0  0  0
  3  4  2  0  0  0  0
  4  5  1  0  0  0  0
  5  6  2  0  0  0  0
  5  9  1  0  0  0  0
  7  2  1  0  0  0  0
  8  3  1  0  0  0  0
  9 14  1  6  0  0  0
  9 13  1  0  0  0  0
  9 10  1  0  0  0  0
 10 15  1  0  0  0  0
 10 11  1  0  0  0  0
 11 18  1  0  0  0  0
 11 17  1  0  0  0  0
 12 11  1  0  0  0  0
 12 19  1  0  0  0  0
 13 21  1  1  0  0  0
 13 12  1  0  0  0  0
 16 10  1  0  0  0  0
 20 12  1  0  0  0  0
 22 25  1  0  0  0  0
 22 13  1  0  0  0  0
 23 22  1  0  0  0  0
 24 22  1  0  0  0  0
 26 27  2  0  0  0  0
 26 31  1  0  0  0  0
 27 28  1  0  0  0  0
 28 33  1  0  0  0  0
 28 29  2  0  0  0  0
 30 29  1  0  0  0  0
 30 34  1  0  0  0  0
 31 30  2  0  0  0  0
 32 26  1  0  0  0  0
 34 35  1  0  0  0  0
 35 36  1  0  0  0  0
M  END
>  <minimizedAffinity>
-5.38739967

$$$$

 OpenBabel03272502153D

 36 38  0  0  1  0  0  0  0  0999 V2000
   38.5570   24.6460   35.9490 C   0  0  0  0  0  0  0  0  0  0  0  0
   38.0600   24.4480   37.2120 C   0  0  0  0  0  0  0  0  0  0  0  0
   38.6440   23.5730   38.1410 C   0  0  0  0  0  0  0  0  0  0  0  0
   39.7590   22.8980   37.7480 N   0  0  0  0  0  0  0  0  0  0  0  0
   40.2450   23.0920   36.5120 C   0  0  0  0  0  0  0  0  0  0  0  0
   39.6690   23.9330   35.6410 N   0  0  0  0  0  0  0  0  0  0  0  0
   37.1800   24.9660   37.5540 H   0  0  0  0  0  0  0  0  0  0  0  0
   38.2620   23.4170   39.1190 H   0  0  0  0  0  0  0  0  0  0  0  0
   41.4510   22.3560   36.0980 C   0  0  2  0  0  0  0  0  0  0  0  0
   41.7270   21.1090   36.8970 C   0  0  0  0  0  0  0  0  0  0  0  0
   43.2560   20.9540   36.7290 C   0  0  0  0  0  0  0  0  0  0  0  0
   43.7430   22.2080   36.0570 C   0  0  0  0  0  0  0  0  0  0  0  0
   42.6570   23.1930   36.4600 C   0  0  1  0  0  0  0  0  0  0  0  0
   41.4660   22.1330   35.0260 H   0  0  0  0  0  0  0  0  0  0  0  0
   41.4350   21.1710   37.9430 H   0  0  0  0  0  0  0  0  0  0  0  0
   41.2730   20.2690   36.3270 H   0  0  0  0  0  0  0  0  0  0  0  0
   43.6820   20.9680   37.7740 H   0  0  0  0  0  0  0  0  0  0  0  0
   43.5180   20.0320   36.2050 H   0  0  0  0  0  0  0  0  0  0  0  0
   44.7470   22.5200   36.4060 H   0  0  0  0  0  0  0  0  0  0  0  0
   43.6900   22.1050   34.9580 H   0  0  0  0  0  0  0  0  0  0  0  0
   42.6870   23.3370   37.5530 H   0  0  0  0  0  0  0  0  0  0  0  0
   42.7380   24.5000   35.7510 C   0  0  0  0  0  0  0  0  0  0  0  0
   42.8680   24.3640   34.6780 H   0  0  0  0  0  0  0  0  0  0  0  0
   41.8220   25.0600   36.0130 H   0  0  0  0  0  0  0  0  0  0  0  0
   43.5780   25.0570   36.2050 H   0  0  0  0  0  0  0  0  0  0  0  0
   37.6670   25.2080   33.6680 C   0  0  0  0  0  0  0  0  0  0  0  0
   37.9580   25.5400   35.0020 C   0  0  0  0  0  0  0  0  0  0  0  0
   37.6300   26.8200   35.3920 C   0  0  0  0  0  0  0  0  0  0  0  0
   37.0630   27.6710   34.4990 N   0  0  0  0  0  0  0  0  0  0  0  0
   36.8050   27.3030   33.2300 C   0  0  0  0  0  0  0  0  0  0  0  0
   37.1140   26.0570   32.8180 N   0  0  0  0  0  0  0  0  0  0  0  0
   37.9270   24.1910   33.3570 H   0  0  0  0  0  0  0  0  0  0  0  0
   37.8370   27.1180   36.4120 H   0  0  0  0  0  0  0  0  0  0  0  0
   36.1790   28.2770   32.2860 C   0  0  0  0  0  2  0  0  0  0  0  0
   36.5120   27.9040   30.8610 C   0  0  0  0  0  2  0  0  0  0  0  0
   35.7720   28.2410   30.1290 H   0  0  0  0  0  0  0  0  0  0  0  0
  1  2  1  0  0  0  0
  2  7  1  0  0  0  0
  2  3  2  0  0  0  0
  3  8  1  0  0  0  0
  4  3  1  0  0  0  0
  5  4  2  0  0  0  0
  6  1  2  0  0  0  0
  6  5  1  0  0  0  0
  9 14  1  6  0  0  0
  9 13  1  0  0  0  0
  9  5  1  0  0  0  0
  9 10  1  0  0  0  0
 10 15  1  0  0  0  0
 11 10  1  0  0  0  0
 11 17  1  0  0  0  0
 12 19  1  0  0  0  0
 12 13  1  0  0  0  0
 12 11  1  0  0  0  0
 13 21  1  1  0  0  0
 16 10  1  0  0  0  0
 18 11  1  0  0  0  0
 20 12  1  0  0  0  0
 22 24  1  0  0  0  0
 22 25  1  0  0  0  0
 22 13  1  0  0  0  0
 23 22  1  0  0  0  0
 26 27  1  0  0  0  0
 27 28  2  0  0  0  0
 27  1  1  0  0  0  0
 28 33  1  0  0  0  0
 29 28  1  0  0  0  0
 30 29  2  0  0  0  0
 31 30  1  0  0  0  0
 31 26  2  0  0  0  0
 32 26  1  0  0  0  0
 34 30  1  0  0  0  0
 35 34  1  0  0  0  0
 36 35  1  0  0  0  0
M  END
>  <minimizedAffinity>
-5.16040516

$$$$

 OpenBabel03272502153D

 36 38  0  0  1  0  0  0  0  0999 V2000
   36.3860   28.4140   33.7120 C   0  0  0  0  0  0  0  0  0  0  0  0
   36.1210   28.5350   32.3710 C   0  0  0  0  0  0  0  0  0  0  0  0
   35.3780   29.5920   31.8260 C   0  0  0  0  0  0  0  0  0  0  0  0
   34.9060   30.5350   32.6860 N   0  0  0  0  0  0  0  0  0  0  0  0
   35.1640   30.4170   33.9980 C   0  0  0  0  0  0  0  0  0  0  0  0
   35.8770   29.3970   34.4970 N   0  0  0  0  0  0  0  0  0  0  0  0
   36.4800   27.8070   31.6640 H   0  0  0  0  0  0  0  0  0  0  0  0
   35.1710   29.6890   30.7880 H   0  0  0  0  0  0  0  0  0  0  0  0
   34.6490   31.4420   34.9210 C   0  0  2  0  0  0  0  0  0  0  0  0
   35.6640   31.9650   35.9040 C   0  0  0  0  0  0  0  0  0  0  0  0
   34.7650   32.4440   37.0670 C   0  0  0  0  0  0  0  0  0  0  0  0
   33.3740   31.9670   36.7570 C   0  0  0  0  0  0  0  0  0  0  0  0
   33.6680   30.7760   35.8590 C   0  0  1  0  0  0  0  0  0  0  0  0
   34.1580   32.2720   34.4020 H   0  0  0  0  0  0  0  0  0  0  0  0
   36.3960   31.2280   36.2290 H   0  0  0  0  0  0  0  0  0  0  0  0
   36.0900   32.8850   35.4500 H   0  0  0  0  0  0  0  0  0  0  0  0
   35.1050   31.8660   37.9740 H   0  0  0  0  0  0  0  0  0  0  0  0
   34.8470   33.5210   37.2290 H   0  0  0  0  0  0  0  0  0  0  0  0
   32.8060   31.6800   37.6650 H   0  0  0  0  0  0  0  0  0  0  0  0
   32.8370   32.7090   36.1390 H   0  0  0  0  0  0  0  0  0  0  0  0
   34.1910   30.0010   36.4450 H   0  0  0  0  0  0  0  0  0  0  0  0
   32.4610   30.2120   35.1930 C   0  0  0  0  0  0  0  0  0  0  0  0
   31.8520   30.9950   34.7430 H   0  0  0  0  0  0  0  0  0  0  0  0
   32.8220   29.4650   34.4630 H   0  0  0  0  0  0  0  0  0  0  0  0
   31.9080   29.6450   35.9640 H   0  0  0  0  0  0  0  0  0  0  0  0
   37.8660   27.4030   35.4720 C   0  0  0  0  0  0  0  0  0  0  0  0
   37.1460   27.3330   34.2670 C   0  0  0  0  0  0  0  0  0  0  0  0
   37.1940   26.1280   33.6030 C   0  0  0  0  0  0  0  0  0  0  0  0
   37.9110   25.0990   34.1240 N   0  0  0  0  0  0  0  0  0  0  0  0
   38.5860   25.2190   35.2840 C   0  0  0  0  0  0  0  0  0  0  0  0
   38.5580   26.3860   35.9580 N   0  0  0  0  0  0  0  0  0  0  0  0
   37.8280   28.3610   36.0000 H   0  0  0  0  0  0  0  0  0  0  0  0
   36.6520   26.0290   32.6710 H   0  0  0  0  0  0  0  0  0  0  0  0
   39.3600   24.0580   35.8160 C   0  0  0  0  0  2  0  0  0  0  0  0
   40.7880   24.1200   35.3290 C   0  0  0  0  0  2  0  0  0  0  0  0
   41.5060   23.6250   35.9900 H   0  0  0  0  0  0  0  0  0  0  0  0
  1 27  1  0  0  0  0
  1  6  1  0  0  0  0
  2  1  2  0  0  0  0
  3  2  1  0  0  0  0
  3  4  2  0  0  0  0
  4  5  1  0  0  0  0
  5  6  2  0  0  0  0
  5  9  1  0  0  0  0
  7  2  1  0  0  0  0
  8  3  1  0  0  0  0
  9 14  1  6  0  0  0
  9 13  1  0  0  0  0
  9 10  1  0  0  0  0
 10 15  1  0  0  0  0
 10 11  1  0  0  0  0
 11 18  1  0  0  0  0
 11 17  1  0  0  0  0
 12 11  1  0  0  0  0
 12 19  1  0  0  0  0
 13 21  1  1  0  0  0
 13 12  1  0  0  0  0
 16 10  1  0  0  0  0
 20 12  1  0  0  0  0
 22 13  1  0  0  0  0
 22 25  1  0  0  0  0
 23 22  1  0  0  0  0
 24 22  1  0  0  0  0
 26 31  1  0  0  0  0
 26 32  1  0  0  0  0
 27 26  2  0  0  0  0
 28 29  2  0  0  0  0
 28 27  1  0  0  0  0
 29 30  1  0  0  0  0
 30 34  1  0  0  0  0
 30 31  2  0  0  0  0
 33 28  1  0  0  0  0
 35 34  1  0  0  0  0
 35 36  1  0  0  0  0
M  END
>  <minimizedAffinity>
-5.14438343

$$$$

 OpenBabel03272502153D

 36 38  0  0  1  0  0  0  0  0999 V2000
   36.6030   24.4960   31.4870 C   0  0  0  0  0  0  0  0  0  0  0  0
   35.5710   25.2980   31.0740 C   0  0  0  0  0  0  0  0  0  0  0  0
   35.5040   26.6720   31.3530 C   0  0  0  0  0  0  0  0  0  0  0  0
   36.5250   27.2140   32.0710 N   0  0  0  0  0  0  0  0  0  0  0  0
   37.5360   26.4290   32.4760 C   0  0  0  0  0  0  0  0  0  0  0  0
   37.5780   25.1180   32.1980 N   0  0  0  0  0  0  0  0  0  0  0  0
   34.7480   24.9010   30.5040 H   0  0  0  0  0  0  0  0  0  0  0  0
   34.7060   27.2960   31.0340 H   0  0  0  0  0  0  0  0  0  0  0  0
   38.6350   27.0260   33.2520 C   0  0  2  0  0  0  0  0  0  0  0  0
   39.9980   26.8620   32.6320 C   0  0  0  0  0  0  0  0  0  0  0  0
   40.9230   26.9480   33.8680 C   0  0  0  0  0  0  0  0  0  0  0  0
   40.0280   26.9300   35.0750 C   0  0  0  0  0  0  0  0  0  0  0  0
   38.8050   26.2190   34.5190 C   0  0  1  0  0  0  0  0  0  0  0  0
   38.4550   28.0760   33.5060 H   0  0  0  0  0  0  0  0  0  0  0  0
   40.1340   25.9320   32.0830 H   0  0  0  0  0  0  0  0  0  0  0  0
   40.1860   27.7880   32.0470 H   0  0  0  0  0  0  0  0  0  0  0  0
   41.5010   25.9790   33.8860 H   0  0  0  0  0  0  0  0  0  0  0  0
   41.5940   27.8080   33.8160 H   0  0  0  0  0  0  0  0  0  0  0  0
   40.4760   26.3910   35.9340 H   0  0  0  0  0  0  0  0  0  0  0  0
   39.7110   27.9550   35.3380 H   0  0  0  0  0  0  0  0  0  0  0  0
   39.0760   25.1820   34.2580 H   0  0  0  0  0  0  0  0  0  0  0  0
   37.6280   26.2450   35.4320 C   0  0  0  0  0  0  0  0  0  0  0  0
   37.4480   27.2470   35.8210 H   0  0  0  0  0  0  0  0  0  0  0  0
   36.7740   25.8380   34.8590 H   0  0  0  0  0  0  0  0  0  0  0  0
   37.8330   25.5170   36.2360 H   0  0  0  0  0  0  0  0  0  0  0  0
   37.8140   22.4310   30.7260 C   0  0  0  0  0  0  0  0  0  0  0  0
   36.6700   23.0930   31.2010 C   0  0  0  0  0  0  0  0  0  0  0  0
   35.5540   22.3080   31.3940 C   0  0  0  0  0  0  0  0  0  0  0  0
   35.6100   20.9790   31.1250 N   0  0  0  0  0  0  0  0  0  0  0  0
   36.7340   20.3920   30.6700 C   0  0  0  0  0  0  0  0  0  0  0  0
   37.8430   21.1330   30.4710 N   0  0  0  0  0  0  0  0  0  0  0  0
   38.7020   23.0530   30.5720 H   0  0  0  0  0  0  0  0  0  0  0  0
   34.6500   22.7780   31.7600 H   0  0  0  0  0  0  0  0  0  0  0  0
   36.7460   18.9250   30.3900 C   0  0  0  0  0  2  0  0  0  0  0  0
   36.7740   18.6830   28.8990 C   0  0  0  0  0  2  0  0  0  0  0  0
   37.2310   17.7310   28.6120 H   0  0  0  0  0  0  0  0  0  0  0  0
  1  6  1  0  0  0  0
  2  3  1  0  0  0  0
  2  1  2  0  0  0  0
  3  4  2  0  0  0  0
  4  5  1  0  0  0  0
  5  9  1  0  0  0  0
  6  5  2  0  0  0  0
  7  2  1  0  0  0  0
  8  3  1  0  0  0  0
  9 14  1  1  0  0  0
  9 13  1  0  0  0  0
 10  9  1  0  0  0  0
 10 11  1  0  0  0  0
 11 17  1  0  0  0  0
 11 12  1  0  0  0  0
 12 20  1  0  0  0  0
 12 19  1  0  0  0  0
 13 21  1  6  0  0  0
 13 12  1  0  0  0  0
 13 22  1  0  0  0  0
 15 10  1  0  0  0  0
 16 10  1  0  0  0  0
 18 11  1  0  0  0  0
 22 23  1  0  0  0  0
 22 25  1  0  0  0  0
 24 22  1  0  0  0  0
 26 27  1  0  0  0  0
 27 28  2  0  0  0  0
 27  1  1  0  0  0  0
 28 33  1  0  0  0  0
 29 28  1  0  0  0  0
 30 29  2  0  0  0  0
 31 30  1  0  0  0  0
 31 26  2  0  0  0  0
 32 26  1  0  0  0  0
 34 30  1  0  0  0  0
 35 34  1  0  0  0  0
 36 35  1  0  0  0  0
M  END
>  <minimizedAffinity>
-5.0252037

$$$$

 OpenBabel03272502153D

 36 38  0  0  1  0  0  0  0  0999 V2000
   36.9190   27.5030   33.7890 C   0  0  0  0  0  0  0  0  0  0  0  0
   37.2270   27.9170   32.5180 C   0  0  0  0  0  0  0  0  0  0  0  0
   36.6280   29.0270   31.9030 C   0  0  0  0  0  0  0  0  0  0  0  0
   35.6970   29.7130   32.6200 N   0  0  0  0  0  0  0  0  0  0  0  0
   35.3950   29.3080   33.8640 C   0  0  0  0  0  0  0  0  0  0  0  0
   35.9800   28.2440   34.4320 N   0  0  0  0  0  0  0  0  0  0  0  0
   37.9590   27.3970   31.9240 H   0  0  0  0  0  0  0  0  0  0  0  0
   36.8650   29.3500   30.9190 H   0  0  0  0  0  0  0  0  0  0  0  0
   34.3860   30.0570   34.6310 C   0  0  2  0  0  0  0  0  0  0  0  0
   33.1530   30.4260   33.8480 C   0  0  0  0  0  0  0  0  0  0  0  0
   32.6500   31.6720   34.6130 C   0  0  0  0  0  0  0  0  0  0  0  0
   33.7250   32.0310   35.6010 C   0  0  0  0  0  0  0  0  0  0  0  0
   34.9490   31.4280   34.9300 C   0  0  1  0  0  0  0  0  0  0  0  0
   34.1080   29.5610   35.5670 H   0  0  0  0  0  0  0  0  0  0  0  0
   33.3350   30.6380   32.7960 H   0  0  0  0  0  0  0  0  0  0  0  0
   32.4080   29.6270   34.0470 H   0  0  0  0  0  0  0  0  0  0  0  0
   32.6240   32.5070   33.8550 H   0  0  0  0  0  0  0  0  0  0  0  0
   31.6660   31.5090   35.0580 H   0  0  0  0  0  0  0  0  0  0  0  0
   33.8220   33.1250   35.7510 H   0  0  0  0  0  0  0  0  0  0  0  0
   33.5780   31.4850   36.5500 H   0  0  0  0  0  0  0  0  0  0  0  0
   35.1410   31.9590   33.9830 H   0  0  0  0  0  0  0  0  0  0  0  0
   36.1640   31.4230   35.7910 C   0  0  0  0  0  0  0  0  0  0  0  0
   35.9450   31.0430   36.7880 H   0  0  0  0  0  0  0  0  0  0  0  0
   36.9290   30.8310   35.2550 H   0  0  0  0  0  0  0  0  0  0  0  0
   36.5420   32.4610   35.8140 H   0  0  0  0  0  0  0  0  0  0  0  0
   37.8030   25.1530   33.7690 C   0  0  0  0  0  0  0  0  0  0  0  0
   37.5310   26.3700   34.4160 C   0  0  0  0  0  0  0  0  0  0  0  0
   37.8950   26.4430   35.7430 C   0  0  0  0  0  0  0  0  0  0  0  0
   38.4760   25.3720   36.3420 N   0  0  0  0  0  0  0  0  0  0  0  0
   38.7140   24.2270   35.6760 C   0  0  0  0  0  0  0  0  0  0  0  0
   38.3700   24.1230   34.3770 N   0  0  0  0  0  0  0  0  0  0  0  0
   37.5140   25.0930   32.7140 H   0  0  0  0  0  0  0  0  0  0  0  0
   37.7040   27.3630   36.2800 H   0  0  0  0  0  0  0  0  0  0  0  0
   39.3560   23.0770   36.3800 C   0  0  0  0  0  2  0  0  0  0  0  0
   39.0990   23.1690   37.8660 C   0  0  0  0  0  2  0  0  0  0  0  0
   39.1140   22.2040   38.3810 H   0  0  0  0  0  0  0  0  0  0  0  0
  1 27  1  0  0  0  0
  1  6  1  0  0  0  0
  2  1  2  0  0  0  0
  3  2  1  0  0  0  0
  3  4  2  0  0  0  0
  4  5  1  0  0  0  0
  5  6  2  0  0  0  0
  5  9  1  0  0  0  0
  7  2  1  0  0  0  0
  8  3  1  0  0  0  0
  9 13  1  0  0  0  0
  9 14  1  1  0  0  0
 10 16  1  0  0  0  0
 10 11  1  0  0  0  0
 10  9  1  0  0  0  0
 11 18  1  0  0  0  0
 11 12  1  0  0  0  0
 12 19  1  0  0  0  0
 12 20  1  0  0  0  0
 13 21  1  6  0  0  0
 13 12  1  0  0  0  0
 13 22  1  0  0  0  0
 15 10  1  0  0  0  0
 17 11  1  0  0  0  0
 22 25  1  0  0  0  0
 22 23  1  0  0  0  0
 24 22  1  0  0  0  0
 26 31  2  0  0  0  0
 26 27  1  0  0  0  0
 27 28  2  0  0  0  0
 28 33  1  0  0  0  0
 28 29  1  0  0  0  0
 30 29  2  0  0  0  0
 30 34  1  0  0  0  0
 31 30  1  0  0  0  0
 32 26  1  0  0  0  0
 34 35  1  0  0  0  0
 35 36  1  0  0  0  0
M  END
>  <minimizedAffinity>
-4.98959732

$$$$

 OpenBabel03272502153D

 36 38  0  0  1  0  0  0  0  0999 V2000
   35.4050   29.3450   32.3870 C   0  0  0  0  0  0  0  0  0  0  0  0
   35.9380   30.1470   31.4100 C   0  0  0  0  0  0  0  0  0  0  0  0
   36.5990   29.6460   30.2790 C   0  0  0  0  0  0  0  0  0  0  0  0
   36.7070   28.2940   30.1640 N   0  0  0  0  0  0  0  0  0  0  0  0
   36.1860   27.5090   31.1200 C   0  0  0  0  0  0  0  0  0  0  0  0
   35.5580   28.0100   32.1940 N   0  0  0  0  0  0  0  0  0  0  0  0
   35.8700   31.2200   31.4700 H   0  0  0  0  0  0  0  0  0  0  0  0
   37.0120   30.2640   29.5210 H   0  0  0  0  0  0  0  0  0  0  0  0
   36.3080   26.0480   30.9870 C   0  0  2  0  0  0  0  0  0  0  0  0
   34.9930   25.3140   30.9320 C   0  0  0  0  0  0  0  0  0  0  0  0
   35.3880   23.9120   31.4500 C   0  0  0  0  0  0  0  0  0  0  0  0
   36.8010   24.0230   31.9520 C   0  0  0  0  0  0  0  0  0  0  0  0
   36.8780   25.5060   32.2780 C   0  0  1  0  0  0  0  0  0  0  0  0
   36.9460   25.7490   30.1480 H   0  0  0  0  0  0  0  0  0  0  0  0
   34.2020   25.7630   31.5310 H   0  0  0  0  0  0  0  0  0  0  0  0
   34.7550   25.1840   29.8550 H   0  0  0  0  0  0  0  0  0  0  0  0
   34.7430   23.7280   32.3570 H   0  0  0  0  0  0  0  0  0  0  0  0
   35.2380   23.1400   30.6930 H   0  0  0  0  0  0  0  0  0  0  0  0
   36.9940   23.3860   32.8370 H   0  0  0  0  0  0  0  0  0  0  0  0
   37.5190   23.8380   31.1320 H   0  0  0  0  0  0  0  0  0  0  0  0
   36.1840   25.7310   33.1060 H   0  0  0  0  0  0  0  0  0  0  0  0
   38.2530   25.9820   32.5940 C   0  0  0  0  0  0  0  0  0  0  0  0
   38.9760   25.6290   31.8590 H   0  0  0  0  0  0  0  0  0  0  0  0
   38.2000   27.0840   32.6610 H   0  0  0  0  0  0  0  0  0  0  0  0
   38.4870   25.6240   33.6130 H   0  0  0  0  0  0  0  0  0  0  0  0
   33.3520   29.7290   33.7820 C   0  0  0  0  0  0  0  0  0  0  0  0
   34.7300   29.8590   33.5420 C   0  0  0  0  0  0  0  0  0  0  0  0
   35.4510   30.5290   34.5060 C   0  0  0  0  0  0  0  0  0  0  0  0
   34.8170   31.0180   35.6030 N   0  0  0  0  0  0  0  0  0  0  0  0
   33.4910   30.8670   35.7840 C   0  0  0  0  0  0  0  0  0  0  0  0
   32.7580   30.2160   34.8590 N   0  0  0  0  0  0  0  0  0  0  0  0
   32.7780   29.1960   33.0160 H   0  0  0  0  0  0  0  0  0  0  0  0
   36.5170   30.6510   34.3620 H   0  0  0  0  0  0  0  0  0  0  0  0
   32.8400   31.4230   37.0090 C   0  0  0  0  0  2  0  0  0  0  0  0
   31.4590   31.9330   36.6750 C   0  0  0  0  0  2  0  0  0  0  0  0
   30.7650   31.9250   37.5210 H   0  0  0  0  0  0  0  0  0  0  0  0
  1 27  1  0  0  0  0
  2  7  1  0  0  0  0
  2  1  2  0  0  0  0
  3  2  1  0  0  0  0
  4  3  2  0  0  0  0
  4  5  1  0  0  0  0
  5  6  2  0  0  0  0
  6  1  1  0  0  0  0
  8  3  1  0  0  0  0
  9 14  1  6  0  0  0
  9  5  1  0  0  0  0
  9 13  1  0  0  0  0
 10  9  1  0  0  0  0
 10 11  1  0  0  0  0
 10 15  1  0  0  0  0
 11 12  1  0  0  0  0
 11 17  1  0  0  0  0
 12 13  1  0  0  0  0
 12 19  1  0  0  0  0
 13 22  1  0  0  0  0
 13 21  1  1  0  0  0
 16 10  1  0  0  0  0
 18 11  1  0  0  0  0
 20 12  1  0  0  0  0
 22 24  1  0  0  0  0
 22 25  1  0  0  0  0
 23 22  1  0  0  0  0
 26 31  1  0  0  0  0
 27 26  2  0  0  0  0
 27 28  1  0  0  0  0
 28 29  2  0  0  0  0
 29 30  1  0  0  0  0
 30 34  1  0  0  0  0
 31 30  2  0  0  0  0
 32 26  1  0  0  0  0
 33 28  1  0  0  0  0
 35 34  1  0  0  0  0
 35 36  1  0  0  0  0
M  END
>  <minimizedAffinity>
-4.98322964

$$$$

 OpenBabel03272502153D

 36 38  0  0  1  0  0  0  0  0999 V2000
   37.4540   24.8550   33.0400 C   0  0  0  0  0  0  0  0  0  0  0  0
   37.1070   23.6610   32.4610 C   0  0  0  0  0  0  0  0  0  0  0  0
   37.5000   22.4150   32.9720 C   0  0  0  0  0  0  0  0  0  0  0  0
   38.2620   22.4130   34.0990 N   0  0  0  0  0  0  0  0  0  0  0  0
   38.6030   23.5810   34.6660 C   0  0  0  0  0  0  0  0  0  0  0  0
   38.2160   24.7610   34.1590 N   0  0  0  0  0  0  0  0  0  0  0  0
   36.5040   23.6280   31.5690 H   0  0  0  0  0  0  0  0  0  0  0  0
   37.2320   21.4890   32.5260 H   0  0  0  0  0  0  0  0  0  0  0  0
   39.4280   23.5680   35.8840 C   0  0  2  0  0  0  0  0  0  0  0  0
   40.5440   22.5550   35.8720 C   0  0  0  0  0  0  0  0  0  0  0  0
   40.7670   22.3080   37.3820 C   0  0  0  0  0  0  0  0  0  0  0  0
   39.6480   23.0090   38.1010 C   0  0  0  0  0  0  0  0  0  0  0  0
   38.5810   23.0380   37.0180 C   0  0  1  0  0  0  0  0  0  0  0  0
   39.8160   24.5590   36.1460 H   0  0  0  0  0  0  0  0  0  0  0  0
   40.3110   21.6360   35.3380 H   0  0  0  0  0  0  0  0  0  0  0  0
   41.4480   23.0930   35.5160 H   0  0  0  0  0  0  0  0  0  0  0  0
   40.6030   21.2030   37.5390 H   0  0  0  0  0  0  0  0  0  0  0  0
   41.7670   22.6100   37.7020 H   0  0  0  0  0  0  0  0  0  0  0  0
   39.3140   22.4660   39.0080 H   0  0  0  0  0  0  0  0  0  0  0  0
   39.9190   24.0590   38.3120 H   0  0  0  0  0  0  0  0  0  0  0  0
   38.2690   22.0050   36.7890 H   0  0  0  0  0  0  0  0  0  0  0  0
   37.4030   23.8840   37.3580 C   0  0  0  0  0  0  0  0  0  0  0  0
   37.7080   24.8590   37.7370 H   0  0  0  0  0  0  0  0  0  0  0  0
   36.7830   23.9450   36.4450 H   0  0  0  0  0  0  0  0  0  0  0  0
   36.8070   23.3180   38.0960 H   0  0  0  0  0  0  0  0  0  0  0  0
   36.6660   26.3540   31.1850 C   0  0  0  0  0  0  0  0  0  0  0  0
   37.0520   26.1270   32.5170 C   0  0  0  0  0  0  0  0  0  0  0  0
   37.0270   27.2250   33.3490 C   0  0  0  0  0  0  0  0  0  0  0  0
   36.6470   28.4330   32.8590 N   0  0  0  0  0  0  0  0  0  0  0  0
   36.2870   28.5970   31.5720 C   0  0  0  0  0  0  0  0  0  0  0  0
   36.3000   27.5420   30.7330 N   0  0  0  0  0  0  0  0  0  0  0  0
   36.6850   25.4820   30.5230 H   0  0  0  0  0  0  0  0  0  0  0  0
   37.3160   27.0950   34.3840 H   0  0  0  0  0  0  0  0  0  0  0  0
   35.8760   29.9470   31.0810 C   0  0  0  0  0  2  0  0  0  0  0  0
   35.8990   30.9410   32.2180 C   0  0  0  0  0  2  0  0  0  0  0  0
   36.0650   31.9750   31.9020 H   0  0  0  0  0  0  0  0  0  0  0  0
  1  6  1  0  0  0  0
  2  3  1  0  0  0  0
  2  1  2  0  0  0  0
  3  4  2  0  0  0  0
  4  5  1  0  0  0  0
  5  9  1  0  0  0  0
  6  5  2  0  0  0  0
  7  2  1  0  0  0  0
  8  3  1  0  0  0  0
  9 14  1  1  0  0  0
  9 13  1  0  0  0  0
 10  9  1  0  0  0  0
 10 11  1  0  0  0  0
 11 17  1  0  0  0  0
 11 18  1  0  0  0  0
 11 12  1  0  0  0  0
 12 20  1  0  0  0  0
 12 19  1  0  0  0  0
 13 21  1  6  0  0  0
 13 22  1  0  0  0  0
 13 12  1  0  0  0  0
 15 10  1  0  0  0  0
 16 10  1  0  0  0  0
 22 23  1  0  0  0  0
 22 25  1  0  0  0  0
 24 22  1  0  0  0  0
 26 27  1  0  0  0  0
 27  1  1  0  0  0  0
 27 28  2  0  0  0  0
 28 33  1  0  0  0  0
 29 28  1  0  0  0  0
 30 29  2  0  0  0  0
 31 26  2  0  0  0  0
 31 30  1  0  0  0  0
 32 26  1  0  0  0  0
 34 30  1  0  0  0  0
 34 35  1  0  0  0  0
 36 35  1  0  0  0  0
M  END
>  <minimizedAffinity>
-4.96089172

$$$$

 OpenBabel03272502153D

 36 38  0  0  1  0  0  0  0  0999 V2000
   36.0700   29.1080   33.4800 C   0  0  0  0  0  0  0  0  0  0  0  0
   36.2440   29.4710   32.1680 C   0  0  0  0  0  0  0  0  0  0  0  0
   37.0730   28.7700   31.2800 C   0  0  0  0  0  0  0  0  0  0  0  0
   37.7280   27.6790   31.7630 N   0  0  0  0  0  0  0  0  0  0  0  0
   37.5580   27.3240   33.0460 C   0  0  0  0  0  0  0  0  0  0  0  0
   36.7600   28.0090   33.8780 N   0  0  0  0  0  0  0  0  0  0  0  0
   35.7410   30.3280   31.7550 H   0  0  0  0  0  0  0  0  0  0  0  0
   37.2100   29.0490   30.2640 H   0  0  0  0  0  0  0  0  0  0  0  0
   38.2710   26.1420   33.5580 C   0  0  2  0  0  0  0  0  0  0  0  0
   37.6150   24.8260   33.2290 C   0  0  0  0  0  0  0  0  0  0  0  0
   38.1350   23.9170   34.3670 C   0  0  0  0  0  0  0  0  0  0  0  0
   38.8420   24.8160   35.3440 C   0  0  0  0  0  0  0  0  0  0  0  0
   38.1560   26.1440   35.0660 C   0  0  1  0  0  0  0  0  0  0  0  0
   39.3270   26.1240   33.2690 H   0  0  0  0  0  0  0  0  0  0  0  0
   36.5280   24.8610   33.1990 H   0  0  0  0  0  0  0  0  0  0  0  0
   38.1030   24.4590   32.3010 H   0  0  0  0  0  0  0  0  0  0  0  0
   37.2160   23.5330   34.8970 H   0  0  0  0  0  0  0  0  0  0  0  0
   38.7460   23.0960   33.9870 H   0  0  0  0  0  0  0  0  0  0  0  0
   38.7180   24.4890   36.3950 H   0  0  0  0  0  0  0  0  0  0  0  0
   39.9030   24.9370   35.0610 H   0  0  0  0  0  0  0  0  0  0  0  0
   37.0930   26.0690   35.3510 H   0  0  0  0  0  0  0  0  0  0  0  0
   38.8040   27.3060   35.7340 C   0  0  0  0  0  0  0  0  0  0  0  0
   39.8840   27.3000   35.5860 H   0  0  0  0  0  0  0  0  0  0  0  0
   38.3140   28.2140   35.3360 H   0  0  0  0  0  0  0  0  0  0  0  0
   38.5290   27.2530   36.8020 H   0  0  0  0  0  0  0  0  0  0  0  0
   35.6690   30.8060   35.2870 C   0  0  0  0  0  0  0  0  0  0  0  0
   35.2220   29.8250   34.3860 C   0  0  0  0  0  0  0  0  0  0  0  0
   33.8700   29.5610   34.4020 C   0  0  0  0  0  0  0  0  0  0  0  0
   33.0620   30.2370   35.2580 N   0  0  0  0  0  0  0  0  0  0  0  0
   33.5420   31.1690   36.1030 C   0  0  0  0  0  0  0  0  0  0  0  0
   34.8600   31.4500   36.1120 N   0  0  0  0  0  0  0  0  0  0  0  0
   36.7440   31.0160   35.2750 H   0  0  0  0  0  0  0  0  0  0  0  0
   33.4820   28.8120   33.7230 H   0  0  0  0  0  0  0  0  0  0  0  0
   32.6110   31.8850   37.0260 C   0  0  0  0  0  2  0  0  0  0  0  0
   31.1790   31.6270   36.6220 C   0  0  0  0  0  2  0  0  0  0  0  0
   30.4640   31.7050   37.4460 H   0  0  0  0  0  0  0  0  0  0  0  0
  1  6  1  0  0  0  0
  1 27  1  0  0  0  0
  2  1  2  0  0  0  0
  3  4  2  0  0  0  0
  3  2  1  0  0  0  0
  4  5  1  0  0  0  0
  5  9  1  0  0  0  0
  5  6  2  0  0  0  0
  7  2  1  0  0  0  0
  8  3  1  0  0  0  0
  9 14  1  6  0  0  0
  9 13  1  0  0  0  0
 10  9  1  0  0  0  0
 10 11  1  0  0  0  0
 11 17  1  0  0  0  0
 11 12  1  0  0  0  0
 12 19  1  0  0  0  0
 13 12  1  0  0  0  0
 13 21  1  1  0  0  0
 13 22  1  0  0  0  0
 15 10  1  0  0  0  0
 16 10  1  0  0  0  0
 18 11  1  0  0  0  0
 20 12  1  0  0  0  0
 22 25  1  0  0  0  0
 23 22  1  0  0  0  0
 24 22  1  0  0  0  0
 26 31  1  0  0  0  0
 27 28  1  0  0  0  0
 27 26  2  0  0  0  0
 28 29  2  0  0  0  0
 29 30  1  0  0  0  0
 30 31  2  0  0  0  0
 30 34  1  0  0  0  0
 32 26  1  0  0  0  0
 33 28  1  0  0  0  0
 35 34  1  0  0  0  0
 35 36  1  0  0  0  0
M  END
>  <minimizedAffinity>
-4.93147898

$$$$

 OpenBabel03272502153D

 36 38  0  0  1  0  0  0  0  0999 V2000
   37.5200   24.7090   33.2520 C   0  0  0  0  0  0  0  0  0  0  0  0
   36.9130   23.9760   32.2650 C   0  0  0  0  0  0  0  0  0  0  0  0
   36.2090   24.5550   31.1980 C   0  0  0  0  0  0  0  0  0  0  0  0
   36.1390   25.9140   31.1590 N   0  0  0  0  0  0  0  0  0  0  0  0
   36.7330   26.6310   32.1260 C   0  0  0  0  0  0  0  0  0  0  0  0
   37.3990   26.0560   33.1370 N   0  0  0  0  0  0  0  0  0  0  0  0
   36.9500   22.9000   32.2650 H   0  0  0  0  0  0  0  0  0  0  0  0
   35.7380   23.9900   30.4320 H   0  0  0  0  0  0  0  0  0  0  0  0
   36.6500   28.1000   32.0750 C   0  0  2  0  0  0  0  0  0  0  0  0
   35.2460   28.6470   32.0940 C   0  0  0  0  0  0  0  0  0  0  0  0
   35.4270   30.0140   31.3930 C   0  0  0  0  0  0  0  0  0  0  0  0
   36.8290   30.0360   30.8520 C   0  0  0  0  0  0  0  0  0  0  0  0
   37.1070   28.5480   30.7060 C   0  0  1  0  0  0  0  0  0  0  0  0
   37.2590   28.5870   32.8450 H   0  0  0  0  0  0  0  0  0  0  0  0
   34.5130   28.0220   31.5880 H   0  0  0  0  0  0  0  0  0  0  0  0
   35.0170   28.8790   33.1560 H   0  0  0  0  0  0  0  0  0  0  0  0
   34.7410   29.9920   30.4980 H   0  0  0  0  0  0  0  0  0  0  0  0
   35.1870   30.8480   32.0570 H   0  0  0  0  0  0  0  0  0  0  0  0
   36.9090   30.5770   29.8880 H   0  0  0  0  0  0  0  0  0  0  0  0
   37.5330   30.4200   31.6120 H   0  0  0  0  0  0  0  0  0  0  0  0
   36.4330   28.1270   29.9400 H   0  0  0  0  0  0  0  0  0  0  0  0
   38.5280   28.2290   30.3930 C   0  0  0  0  0  0  0  0  0  0  0  0
   39.2110   28.7680   31.0500 H   0  0  0  0  0  0  0  0  0  0  0  0
   38.6290   27.1310   30.4640 H   0  0  0  0  0  0  0  0  0  0  0  0
   38.6850   28.4840   29.3300 H   0  0  0  0  0  0  0  0  0  0  0  0
   39.0090   22.9450   34.2430 C   0  0  0  0  0  0  0  0  0  0  0  0
   38.2380   24.1150   34.3410 C   0  0  0  0  0  0  0  0  0  0  0  0
   38.1940   24.7070   35.5840 C   0  0  0  0  0  0  0  0  0  0  0  0
   38.8710   24.1490   36.6200 N   0  0  0  0  0  0  0  0  0  0  0  0
   39.5970   23.0240   36.4730 C   0  0  0  0  0  0  0  0  0  0  0  0
   39.6600   22.4220   35.2690 N   0  0  0  0  0  0  0  0  0  0  0  0
   39.0450   22.4740   33.2550 H   0  0  0  0  0  0  0  0  0  0  0  0
   37.6110   25.6120   35.7050 H   0  0  0  0  0  0  0  0  0  0  0  0
   40.3260   22.4510   37.6430 C   0  0  0  0  0  2  0  0  0  0  0  0
   41.4770   21.5960   37.1690 C   0  0  0  0  0  2  0  0  0  0  0  0
   42.3000   21.5210   37.8860 H   0  0  0  0  0  0  0  0  0  0  0  0
  1 27  1  0  0  0  0
  2  7  1  0  0  0  0
  2  1  2  0  0  0  0
  3  2  1  0  0  0  0
  4  3  2  0  0  0  0
  4  5  1  0  0  0  0
  5  6  2  0  0  0  0
  6  1  1  0  0  0  0
  8  3  1  0  0  0  0
  9 10  1  0  0  0  0
  9  5  1  0  0  0  0
  9 14  1  1  0  0  0
 10 16  1  0  0  0  0
 11 18  1  0  0  0  0
 11 10  1  0  0  0  0
 12 11  1  0  0  0  0
 12 20  1  0  0  0  0
 13 21  1  6  0  0  0
 13 12  1  0  0  0  0
 13  9  1  0  0  0  0
 15 10  1  0  0  0  0
 17 11  1  0  0  0  0
 19 12  1  0  0  0  0
 22 24  1  0  0  0  0
 22 13  1  0  0  0  0
 22 23  1  0  0  0  0
 25 22  1  0  0  0  0
 26 27  2  0  0  0  0
 26 31  1  0  0  0  0
 27 28  1  0  0  0  0
 28 33  1  0  0  0  0
 28 29  2  0  0  0  0
 30 29  1  0  0  0  0
 30 34  1  0  0  0  0
 31 30  2  0  0  0  0
 32 26  1  0  0  0  0
 35 34  1  0  0  0  0
 35 36  1  0  0  0  0
M  END
>  <minimizedAffinity>
-4.92023659

$$$$
