
 OpenBabel03272509273D

 35 36  0  0  1  0  0  0  0  0999 V2000
   36.4660   21.6520   33.1670 C   0  0  2  0  0  0  0  0  0  0  0  0
   35.8760   20.5960   34.0280 C   0  0  0  0  0  0  0  0  0  0  0  0
   35.3230   19.4700   33.1730 C   0  0  0  0  0  0  0  0  0  0  0  0
   34.7500   20.0270   31.9020 C   0  0  0  0  0  0  0  0  0  0  0  0
   36.0140   20.2460   31.0850 C   0  0  0  0  0  0  0  0  0  0  0  0
   36.8240   21.2470   31.8040 C   0  0  1  0  0  0  0  0  0  0  0  0
   35.7520   22.5070   33.1480 H   0  0  0  0  0  0  0  0  0  0  0  0
   36.5980   20.1140   34.7350 H   0  0  0  0  0  0  0  0  0  0  0  0
   35.0490   20.9730   34.6640 H   0  0  0  0  0  0  0  0  0  0  0  0
   34.5560   18.9260   33.7130 H   0  0  0  0  0  0  0  0  0  0  0  0
   36.1640   18.7530   32.9830 H   0  0  0  0  0  0  0  0  0  0  0  0
   34.0250   19.3700   31.4220 H   0  0  0  0  0  0  0  0  0  0  0  0
   34.2620   21.0030   32.1820 H   0  0  0  0  0  0  0  0  0  0  0  0
   36.5460   19.2560   31.0990 H   0  0  0  0  0  0  0  0  0  0  0  0
   35.7750   20.4150   30.0350 H   0  0  0  0  0  0  0  0  0  0  0  0
   37.8710   20.9530   31.7450 H   0  0  0  0  0  0  0  0  0  0  0  0
   37.9700   22.1760   34.0090 S   0  0  0  0  0  0  0  0  0  0  0  0
   37.9190   22.3170   35.7220 C   0  0  0  0  0  0  0  0  0  0  0  0
   38.1190   21.2240   36.0070 H   0  0  0  0  0  0  0  0  0  0  0  0
   36.9610   22.4800   36.2360 H   0  0  0  0  0  0  0  0  0  0  0  0
   39.0950   23.0180   36.3670 C   0  0  0  0  0  0  0  0  0  0  0  0
   40.0650   22.5700   36.1570 H   0  0  0  0  0  0  0  0  0  0  0  0
   38.8390   23.0540   37.4710 H   0  0  0  0  0  0  0  0  0  0  0  0
   38.2790   26.6450   36.0780 C   0  0  0  0  0  0  0  0  0  0  0  0
   38.2020   25.3010   36.4410 C   0  0  0  0  0  0  0  0  0  0  0  0
   39.1590   24.4350   35.9820 C   0  0  0  0  0  0  0  0  0  0  0  0
   40.1560   24.9280   35.1790 N   0  0  0  0  0  0  0  0  0  0  0  0
   40.2020   26.2220   34.8480 C   0  0  0  0  0  0  0  0  0  0  0  0
   39.2880   27.0960   35.2780 N   0  0  0  0  0  0  0  0  0  0  0  0
   37.6040   27.4450   36.3610 H   0  0  0  0  0  0  0  0  0  0  0  0
   37.3280   25.1730   37.0570 H   0  0  0  0  0  0  0  0  0  0  0  0
   41.0540   26.4400   34.2090 H   0  0  0  0  0  0  0  0  0  0  0  0
   36.6840   22.4760   30.9150 C   0  0  0  0  0  2  0  0  0  0  0  0
   35.6480   23.3720   31.5030 C   0  0  0  0  0  2  0  0  0  0  0  0
   35.0020   22.8750   32.2750 H   0  0  0  0  0  0  0  0  0  0  0  0
  1  7  1  6  0  0  0
  1 17  1  0  0  0  0
  1  2  1  0  0  0  0
  2  9  1  0  0  0  0
  2  8  1  0  0  0  0
  3 10  1  0  0  0  0
  3  2  1  0  0  0  0
  4 13  1  0  0  0  0
  4  3  1  0  0  0  0
  5 14  1  0  0  0  0
  5  6  1  0  0  0  0
  5  4  1  0  0  0  0
  6 16  1  6  0  0  0
  6  1  1  0  0  0  0
 11  3  1  0  0  0  0
 12  4  1  0  0  0  0
 15  5  1  0  0  0  0
 17 18  1  0  0  0  0
 18 19  1  0  0  0  0
 18 20  1  0  0  0  0
 18 21  1  0  0  0  0
 21 23  1  0  0  0  0
 22 21  1  0  0  0  0
 24 30  1  0  0  0  0
 24 25  1  0  0  0  0
 25 31  1  0  0  0  0
 26 21  1  0  0  0  0
 26 25  2  0  0  0  0
 27 26  1  0  0  0  0
 28 27  2  0  0  0  0
 28 29  1  0  0  0  0
 29 24  2  0  0  0  0
 32 28  1  0  0  0  0
 33 34  1  0  0  0  0
 33  6  1  0  0  0  0
 34 35  1  0  0  0  0
M  END
>  <minimizedAffinity>
-4.52736092

$$$$

 OpenBabel03272509273D

 35 36  0  0  1  0  0  0  0  0999 V2000
   38.3050   25.0100   34.2690 C   0  0  2  0  0  0  0  0  0  0  0  0
   38.2910   23.5280   34.1790 C   0  0  0  0  0  0  0  0  0  0  0  0
   38.2400   22.9190   35.5680 C   0  0  0  0  0  0  0  0  0  0  0  0
   39.0310   23.7610   36.5260 C   0  0  0  0  0  0  0  0  0  0  0  0
   38.0470   24.8860   36.8060 C   0  0  0  0  0  0  0  0  0  0  0  0
   37.8150   25.5840   35.5270 C   0  0  1  0  0  0  0  0  0  0  0  0
   39.3450   25.3510   34.0600 H   0  0  0  0  0  0  0  0  0  0  0  0
   37.4150   23.1040   33.6270 H   0  0  0  0  0  0  0  0  0  0  0  0
   39.1870   23.1220   33.6660 H   0  0  0  0  0  0  0  0  0  0  0  0
   38.6360   21.9100   35.5540 H   0  0  0  0  0  0  0  0  0  0  0  0
   37.1590   22.8450   35.8580 H   0  0  0  0  0  0  0  0  0  0  0  0
   39.3520   23.2260   37.4200 H   0  0  0  0  0  0  0  0  0  0  0  0
   39.9280   24.1260   35.9510 H   0  0  0  0  0  0  0  0  0  0  0  0
   37.1000   24.3730   37.1270 H   0  0  0  0  0  0  0  0  0  0  0  0
   38.3540   25.4650   37.6760 H   0  0  0  0  0  0  0  0  0  0  0  0
   36.7590   25.8390   35.4570 H   0  0  0  0  0  0  0  0  0  0  0  0
   37.2330   25.5840   32.9390 S   0  0  0  0  0  0  0  0  0  0  0  0
   37.0240   24.5520   31.5800 C   0  0  0  0  0  0  0  0  0  0  0  0
   37.7490   23.7110   31.8690 H   0  0  0  0  0  0  0  0  0  0  0  0
   37.4350   24.8350   30.6000 H   0  0  0  0  0  0  0  0  0  0  0  0
   35.7090   23.8060   31.5070 C   0  0  0  0  0  0  0  0  0  0  0  0
   35.1030   24.0350   30.6320 H   0  0  0  0  0  0  0  0  0  0  0  0
   35.1930   24.0350   32.4910 H   0  0  0  0  0  0  0  0  0  0  0  0
   35.2110   20.1920   32.2740 C   0  0  0  0  0  0  0  0  0  0  0  0
   35.0190   21.5720   32.2460 C   0  0  0  0  0  0  0  0  0  0  0  0
   35.9070   22.3500   31.5520 C   0  0  0  0  0  0  0  0  0  0  0  0
   36.9540   21.7370   30.9120 N   0  0  0  0  0  0  0  0  0  0  0  0
   37.1120   20.4110   30.9580 C   0  0  0  0  0  0  0  0  0  0  0  0
   36.2650   19.6190   31.6230 N   0  0  0  0  0  0  0  0  0  0  0  0
   34.5980   19.4490   32.7740 H   0  0  0  0  0  0  0  0  0  0  0  0
   34.1440   21.7970   32.8320 H   0  0  0  0  0  0  0  0  0  0  0  0
   37.9880   20.0930   30.3990 H   0  0  0  0  0  0  0  0  0  0  0  0
   38.5500   26.9010   35.7400 C   0  0  0  0  0  2  0  0  0  0  0  0
   39.8670   26.8290   35.0450 C   0  0  0  0  0  2  0  0  0  0  0  0
   40.1750   25.7860   34.7610 H   0  0  0  0  0  0  0  0  0  0  0  0
  1  7  1  6  0  0  0
  1  6  1  0  0  0  0
  2  1  1  0  0  0  0
  2  3  1  0  0  0  0
  3 11  1  0  0  0  0
  3  4  1  0  0  0  0
  4  5  1  0  0  0  0
  4 12  1  0  0  0  0
  5 14  1  0  0  0  0
  5 15  1  0  0  0  0
  6 16  1  6  0  0  0
  6 33  1  0  0  0  0
  6  5  1  0  0  0  0
  8  2  1  0  0  0  0
  9  2  1  0  0  0  0
 10  3  1  0  0  0  0
 13  4  1  0  0  0  0
 17  1  1  0  0  0  0
 18 19  1  0  0  0  0
 18 17  1  0  0  0  0
 20 18  1  0  0  0  0
 21 26  1  0  0  0  0
 21 18  1  0  0  0  0
 21 23  1  0  0  0  0
 22 21  1  0  0  0  0
 24 30  1  0  0  0  0
 25 24  1  0  0  0  0
 25 31  1  0  0  0  0
 26 25  2  0  0  0  0
 27 28  2  0  0  0  0
 27 26  1  0  0  0  0
 28 29  1  0  0  0  0
 29 24  2  0  0  0  0
 32 28  1  0  0  0  0
 34 33  1  0  0  0  0
 35 34  1  0  0  0  0
M  END
>  <minimizedAffinity>
-4.40941381

$$$$

 OpenBabel03272509273D

 35 36  0  0  1  0  0  0  0  0999 V2000
   37.2040   22.0820   33.0070 C   0  0  2  0  0  0  0  0  0  0  0  0
   36.6370   21.0800   33.9440 C   0  0  0  0  0  0  0  0  0  0  0  0
   35.5480   20.2760   33.2560 C   0  0  0  0  0  0  0  0  0  0  0  0
   34.7910   21.1530   32.3010 C   0  0  0  0  0  0  0  0  0  0  0  0
   35.7440   21.1810   31.1160 C   0  0  0  0  0  0  0  0  0  0  0  0
   36.9880   21.8240   31.5800 C   0  0  1  0  0  0  0  0  0  0  0  0
   36.7950   23.0780   33.2920 H   0  0  0  0  0  0  0  0  0  0  0  0
   37.3740   20.3290   34.3250 H   0  0  0  0  0  0  0  0  0  0  0  0
   36.1930   21.5420   34.8500 H   0  0  0  0  0  0  0  0  0  0  0  0
   34.8660   19.8580   33.9890 H   0  0  0  0  0  0  0  0  0  0  0  0
   36.0470   19.4140   32.7410 H   0  0  0  0  0  0  0  0  0  0  0  0
   33.7970   20.7790   32.0560 H   0  0  0  0  0  0  0  0  0  0  0  0
   34.7140   22.1610   32.7980 H   0  0  0  0  0  0  0  0  0  0  0  0
   35.9480   20.1010   30.8790 H   0  0  0  0  0  0  0  0  0  0  0  0
   35.2480   21.5690   30.2270 H   0  0  0  0  0  0  0  0  0  0  0  0
   37.8340   21.2950   31.1440 H   0  0  0  0  0  0  0  0  0  0  0  0
   38.9790   22.0790   33.3130 S   0  0  0  0  0  0  0  0  0  0  0  0
   39.7140   23.5660   33.7670 C   0  0  0  0  0  0  0  0  0  0  0  0
   39.6950   24.1030   32.7540 H   0  0  0  0  0  0  0  0  0  0  0  0
   40.7900   23.6070   33.9900 H   0  0  0  0  0  0  0  0  0  0  0  0
   38.8700   24.4920   34.6170 C   0  0  0  0  0  0  0  0  0  0  0  0
   37.8350   24.5910   34.2950 H   0  0  0  0  0  0  0  0  0  0  0  0
   39.4400   25.4730   34.6260 H   0  0  0  0  0  0  0  0  0  0  0  0
   37.8750   24.1250   38.1910 C   0  0  0  0  0  0  0  0  0  0  0  0
   37.8730   24.5290   36.8570 C   0  0  0  0  0  0  0  0  0  0  0  0
   38.8680   24.0830   36.0280 C   0  0  0  0  0  0  0  0  0  0  0  0
   39.8310   23.2560   36.5490 N   0  0  0  0  0  0  0  0  0  0  0  0
   39.8060   22.8880   37.8340 C   0  0  0  0  0  0  0  0  0  0  0  0
   38.8510   23.3010   38.6710 N   0  0  0  0  0  0  0  0  0  0  0  0
   37.1590   24.3910   38.9620 H   0  0  0  0  0  0  0  0  0  0  0  0
   37.0280   25.1790   36.7080 H   0  0  0  0  0  0  0  0  0  0  0  0
   40.6390   22.2340   38.0780 H   0  0  0  0  0  0  0  0  0  0  0  0
   36.9340   23.1750   30.8790 C   0  0  0  0  0  2  0  0  0  0  0  0
   36.3290   24.1700   31.8090 C   0  0  0  0  0  2  0  0  0  0  0  0
   35.7960   23.7090   32.6840 H   0  0  0  0  0  0  0  0  0  0  0  0
  1  7  1  1  0  0  0
  1 17  1  0  0  0  0
  1  2  1  0  0  0  0
  2  8  1  0  0  0  0
  2  9  1  0  0  0  0
  3  2  1  0  0  0  0
  3 10  1  0  0  0  0
  4 13  1  0  0  0  0
  4  3  1  0  0  0  0
  5  6  1  0  0  0  0
  5  4  1  0  0  0  0
  6 16  1  6  0  0  0
  6  1  1  0  0  0  0
 11  3  1  0  0  0  0
 12  4  1  0  0  0  0
 14  5  1  0  0  0  0
 15  5  1  0  0  0  0
 17 18  1  0  0  0  0
 18 20  1  0  0  0  0
 18 21  1  0  0  0  0
 19 18  1  0  0  0  0
 21 23  1  0  0  0  0
 21 26  1  0  0  0  0
 22 21  1  0  0  0  0
 24 29  1  0  0  0  0
 24 30  1  0  0  0  0
 25 24  2  0  0  0  0
 26 27  2  0  0  0  0
 26 25  1  0  0  0  0
 27 28  1  0  0  0  0
 28 32  1  0  0  0  0
 28 29  2  0  0  0  0
 31 25  1  0  0  0  0
 33  6  1  0  0  0  0
 33 34  1  0  0  0  0
 34 35  1  0  0  0  0
M  END
>  <minimizedAffinity>
-4.32518148

$$$$

 OpenBabel03272509273D

 35 36  0  0  1  0  0  0  0  0999 V2000
   36.3840   21.5170   33.2740 C   0  0  2  0  0  0  0  0  0  0  0  0
   35.7180   20.4150   34.0140 C   0  0  0  0  0  0  0  0  0  0  0  0
   35.2710   19.3310   33.0490 C   0  0  0  0  0  0  0  0  0  0  0  0
   34.8290   19.9490   31.7540 C   0  0  0  0  0  0  0  0  0  0  0  0
   36.1700   20.2160   31.0880 C   0  0  0  0  0  0  0  0  0  0  0  0
   36.8890   21.1830   31.9380 C   0  0  1  0  0  0  0  0  0  0  0  0
   35.6670   22.3680   33.2210 H   0  0  0  0  0  0  0  0  0  0  0  0
   36.3670   19.9020   34.7680 H   0  0  0  0  0  0  0  0  0  0  0  0
   34.8250   20.7550   34.5760 H   0  0  0  0  0  0  0  0  0  0  0  0
   34.4570   18.7560   33.4770 H   0  0  0  0  0  0  0  0  0  0  0  0
   36.1350   18.6290   32.9150 H   0  0  0  0  0  0  0  0  0  0  0  0
   34.1660   19.3130   31.1680 H   0  0  0  0  0  0  0  0  0  0  0  0
   34.3030   20.9060   32.0300 H   0  0  0  0  0  0  0  0  0  0  0  0
   36.7080   19.2290   31.1090 H   0  0  0  0  0  0  0  0  0  0  0  0
   36.0410   20.4360   30.0280 H   0  0  0  0  0  0  0  0  0  0  0  0
   37.9390   20.8990   31.9750 H   0  0  0  0  0  0  0  0  0  0  0  0
   37.7850   22.0060   34.2940 S   0  0  0  0  0  0  0  0  0  0  0  0
   38.1440   23.6840   34.4060 C   0  0  0  0  0  0  0  0  0  0  0  0
   37.0770   24.1050   34.4240 H   0  0  0  0  0  0  0  0  0  0  0  0
   38.5510   24.2230   33.5380 H   0  0  0  0  0  0  0  0  0  0  0  0
   38.6810   24.1620   35.7380 C   0  0  0  0  0  0  0  0  0  0  0  0
   37.9770   24.0920   36.5660 H   0  0  0  0  0  0  0  0  0  0  0  0
   39.0470   25.2160   35.5390 H   0  0  0  0  0  0  0  0  0  0  0  0
   42.2230   22.9970   35.8200 C   0  0  0  0  0  0  0  0  0  0  0  0
   41.0680   23.6790   35.4410 C   0  0  0  0  0  0  0  0  0  0  0  0
   39.9030   23.4400   36.1210 C   0  0  0  0  0  0  0  0  0  0  0  0
   39.9210   22.5330   37.1500 N   0  0  0  0  0  0  0  0  0  0  0  0
   41.0450   21.8930   37.4890 C   0  0  0  0  0  0  0  0  0  0  0  0
   42.2000   22.1020   36.8500 N   0  0  0  0  0  0  0  0  0  0  0  0
   43.2120   23.0790   35.3830 H   0  0  0  0  0  0  0  0  0  0  0  0
   41.3160   24.3140   34.6070 H   0  0  0  0  0  0  0  0  0  0  0  0
   40.8820   21.2150   38.3220 H   0  0  0  0  0  0  0  0  0  0  0  0
   36.8290   22.4550   31.1010 C   0  0  0  0  0  2  0  0  0  0  0  0
   35.6560   23.2600   31.5420 C   0  0  0  0  0  2  0  0  0  0  0  0
   34.9170   22.6850   32.1640 H   0  0  0  0  0  0  0  0  0  0  0  0
  1  7  1  6  0  0  0
  1  2  1  0  0  0  0
  1 17  1  0  0  0  0
  2  9  1  0  0  0  0
  2  8  1  0  0  0  0
  3 10  1  0  0  0  0
  3  2  1  0  0  0  0
  4 13  1  0  0  0  0
  4  3  1  0  0  0  0
  5 14  1  0  0  0  0
  5  4  1  0  0  0  0
  5  6  1  0  0  0  0
  6 16  1  1  0  0  0
  6  1  1  0  0  0  0
 11  3  1  0  0  0  0
 12  4  1  0  0  0  0
 15  5  1  0  0  0  0
 17 18  1  0  0  0  0
 18 19  1  0  0  0  0
 18 21  1  0  0  0  0
 20 18  1  0  0  0  0
 21 26  1  0  0  0  0
 21 22  1  0  0  0  0
 23 21  1  0  0  0  0
 24 29  1  0  0  0  0
 25 24  2  0  0  0  0
 25 26  1  0  0  0  0
 26 27  2  0  0  0  0
 27 28  1  0  0  0  0
 28 32  1  0  0  0  0
 29 28  2  0  0  0  0
 30 24  1  0  0  0  0
 31 25  1  0  0  0  0
 33 34  1  0  0  0  0
 33  6  1  0  0  0  0
 34 35  1  0  0  0  0
M  END
>  <minimizedAffinity>
-4.27263212

$$$$

 OpenBabel03272509273D

 35 36  0  0  1  0  0  0  0  0999 V2000
   37.4680   26.7910   33.4460 C   0  0  2  0  0  0  0  0  0  0  0  0
   37.1120   27.2180   34.8220 C   0  0  0  0  0  0  0  0  0  0  0  0
   38.3700   27.4560   35.6390 C   0  0  0  0  0  0  0  0  0  0  0  0
   39.4320   26.4720   35.2420 C   0  0  0  0  0  0  0  0  0  0  0  0
   39.9490   27.1050   33.9590 C   0  0  0  0  0  0  0  0  0  0  0  0
   38.8270   27.1150   33.0010 C   0  0  1  0  0  0  0  0  0  0  0  0
   37.2830   25.6940   33.3760 H   0  0  0  0  0  0  0  0  0  0  0  0
   36.5290   28.1720   34.8780 H   0  0  0  0  0  0  0  0  0  0  0  0
   36.4990   26.4660   35.3600 H   0  0  0  0  0  0  0  0  0  0  0  0
   38.1580   27.3590   36.6980 H   0  0  0  0  0  0  0  0  0  0  0  0
   38.6840   28.5180   35.4620 H   0  0  0  0  0  0  0  0  0  0  0  0
   40.2000   26.3260   36.0000 H   0  0  0  0  0  0  0  0  0  0  0  0
   38.8960   25.5020   35.0410 H   0  0  0  0  0  0  0  0  0  0  0  0
   40.2100   28.1620   34.2390 H   0  0  0  0  0  0  0  0  0  0  0  0
   40.8960   26.6580   33.6590 H   0  0  0  0  0  0  0  0  0  0  0  0
   38.8470   28.0560   32.4540 H   0  0  0  0  0  0  0  0  0  0  0  0
   36.3070   27.6410   32.3620 S   0  0  0  0  0  0  0  0  0  0  0  0
   35.8450   29.2430   32.7860 C   0  0  0  0  0  0  0  0  0  0  0  0
   35.6590   29.6690   31.7370 H   0  0  0  0  0  0  0  0  0  0  0  0
   36.5960   29.9560   33.1560 H   0  0  0  0  0  0  0  0  0  0  0  0
   34.4810   29.3950   33.4220 C   0  0  0  0  0  0  0  0  0  0  0  0
   34.0000   28.4580   33.7020 H   0  0  0  0  0  0  0  0  0  0  0  0
   33.8830   30.0090   32.6790 H   0  0  0  0  0  0  0  0  0  0  0  0
   35.7600   31.6100   36.1350 C   0  0  0  0  0  0  0  0  0  0  0  0
   35.7270   30.7900   35.0080 C   0  0  0  0  0  0  0  0  0  0  0  0
   34.5300   30.2520   34.6150 C   0  0  0  0  0  0  0  0  0  0  0  0
   33.4100   30.5400   35.3520 N   0  0  0  0  0  0  0  0  0  0  0  0
   33.4740   31.3290   36.4290 C   0  0  0  0  0  0  0  0  0  0  0  0
   34.6220   31.8740   36.8410 N   0  0  0  0  0  0  0  0  0  0  0  0
   36.6230   32.1060   36.5660 H   0  0  0  0  0  0  0  0  0  0  0  0
   36.7300   30.7130   34.6240 H   0  0  0  0  0  0  0  0  0  0  0  0
   32.4980   31.4520   36.8920 H   0  0  0  0  0  0  0  0  0  0  0  0
   39.2450   26.0430   32.0030 C   0  0  0  0  0  2  0  0  0  0  0  0
   39.7210   26.7100   30.7590 C   0  0  0  0  0  2  0  0  0  0  0  0
   39.4300   27.7930   30.6840 H   0  0  0  0  0  0  0  0  0  0  0  0
  1  7  1  6  0  0  0
  1  2  1  0  0  0  0
  2  8  1  0  0  0  0
  2  9  1  0  0  0  0
  2  3  1  0  0  0  0
  3 10  1  0  0  0  0
  4  3  1  0  0  0  0
  4 12  1  0  0  0  0
  5 14  1  0  0  0  0
  5  4  1  0  0  0  0
  6 16  1  6  0  0  0
  6  1  1  0  0  0  0
  6  5  1  0  0  0  0
 11  3  1  0  0  0  0
 13  4  1  0  0  0  0
 15  5  1  0  0  0  0
 17 18  1  0  0  0  0
 17  1  1  0  0  0  0
 18 20  1  0  0  0  0
 18 21  1  0  0  0  0
 19 18  1  0  0  0  0
 21 22  1  0  0  0  0
 21 26  1  0  0  0  0
 23 21  1  0  0  0  0
 24 30  1  0  0  0  0
 24 29  1  0  0  0  0
 25 24  2  0  0  0  0
 26 25  1  0  0  0  0
 26 27  2  0  0  0  0
 27 28  1  0  0  0  0
 28 29  2  0  0  0  0
 28 32  1  0  0  0  0
 31 25  1  0  0  0  0
 33  6  1  0  0  0  0
 34 33  1  0  0  0  0
 35 34  1  0  0  0  0
M  END
>  <minimizedAffinity>
-4.25693274

$$$$

 OpenBabel03272509273D

 35 36  0  0  1  0  0  0  0  0999 V2000
   39.3150   26.6480   33.5770 C   0  0  2  0  0  0  0  0  0  0  0  0
   39.9320   26.8230   34.9160 C   0  0  0  0  0  0  0  0  0  0  0  0
   38.8560   27.0560   35.9620 C   0  0  0  0  0  0  0  0  0  0  0  0
   37.7330   27.8570   35.3700 C   0  0  0  0  0  0  0  0  0  0  0  0
   36.9810   26.7810   34.6030 C   0  0  0  0  0  0  0  0  0  0  0  0
   37.8970   26.2730   33.5640 C   0  0  1  0  0  0  0  0  0  0  0  0
   39.4770   27.5900   33.0060 H   0  0  0  0  0  0  0  0  0  0  0  0
   40.5200   25.9410   35.2760 H   0  0  0  0  0  0  0  0  0  0  0  0
   40.6330   27.6810   34.9560 H   0  0  0  0  0  0  0  0  0  0  0  0
   39.2680   27.5800   36.8180 H   0  0  0  0  0  0  0  0  0  0  0  0
   38.5190   26.0490   36.3220 H   0  0  0  0  0  0  0  0  0  0  0  0
   37.1240   28.3740   36.1120 H   0  0  0  0  0  0  0  0  0  0  0  0
   38.2140   28.6040   34.6770 H   0  0  0  0  0  0  0  0  0  0  0  0
   36.7850   25.9690   35.3550 H   0  0  0  0  0  0  0  0  0  0  0  0
   35.9910   27.1300   34.3100 H   0  0  0  0  0  0  0  0  0  0  0  0
   37.7770   25.1940   33.4930 H   0  0  0  0  0  0  0  0  0  0  0  0
   40.2490   25.3260   32.7850 S   0  0  0  0  0  0  0  0  0  0  0  0
   40.6260   23.9390   33.7280 C   0  0  0  0  0  0  0  0  0  0  0  0
   40.9080   24.4520   34.7140 H   0  0  0  0  0  0  0  0  0  0  0  0
   41.5470   23.3700   33.5340 H   0  0  0  0  0  0  0  0  0  0  0  0
   39.4510   23.0860   34.1550 C   0  0  0  0  0  0  0  0  0  0  0  0
   39.5110   22.0410   33.8530 H   0  0  0  0  0  0  0  0  0  0  0  0
   38.5400   23.6260   33.7490 H   0  0  0  0  0  0  0  0  0  0  0  0
   37.8650   23.5450   37.4980 C   0  0  0  0  0  0  0  0  0  0  0  0
   38.0440   23.5230   36.1160 C   0  0  0  0  0  0  0  0  0  0  0  0
   39.2530   23.1240   35.6110 C   0  0  0  0  0  0  0  0  0  0  0  0
   40.2430   22.7650   36.4910 N   0  0  0  0  0  0  0  0  0  0  0  0
   40.0410   22.7980   37.8110 C   0  0  0  0  0  0  0  0  0  0  0  0
   38.8740   23.1790   38.3400 N   0  0  0  0  0  0  0  0  0  0  0  0
   36.9720   23.8320   38.0440 H   0  0  0  0  0  0  0  0  0  0  0  0
   37.1300   23.8600   35.6570 H   0  0  0  0  0  0  0  0  0  0  0  0
   40.9250   22.4830   38.3590 H   0  0  0  0  0  0  0  0  0  0  0  0
   37.2900   26.8460   32.2900 C   0  0  0  0  0  2  0  0  0  0  0  0
   36.2970   25.8710   31.7560 C   0  0  0  0  0  2  0  0  0  0  0  0
   36.3870   24.8420   32.1990 H   0  0  0  0  0  0  0  0  0  0  0  0
  1  7  1  6  0  0  0
  1  2  1  0  0  0  0
  2  9  1  0  0  0  0
  2  8  1  0  0  0  0
  2  3  1  0  0  0  0
  3 11  1  0  0  0  0
  3 10  1  0  0  0  0
  4  3  1  0  0  0  0
  4 12  1  0  0  0  0
  5 14  1  0  0  0  0
  5  4  1  0  0  0  0
  6 16  1  6  0  0  0
  6  1  1  0  0  0  0
  6  5  1  0  0  0  0
 13  4  1  0  0  0  0
 15  5  1  0  0  0  0
 17  1  1  0  0  0  0
 17 18  1  0  0  0  0
 18 21  1  0  0  0  0
 18 19  1  0  0  0  0
 20 18  1  0  0  0  0
 21 26  1  0  0  0  0
 22 21  1  0  0  0  0
 23 21  1  0  0  0  0
 24 30  1  0  0  0  0
 24 29  1  0  0  0  0
 25 24  2  0  0  0  0
 26 25  1  0  0  0  0
 26 27  2  0  0  0  0
 27 28  1  0  0  0  0
 28 29  2  0  0  0  0
 28 32  1  0  0  0  0
 31 25  1  0  0  0  0
 33  6  1  0  0  0  0
 34 35  1  0  0  0  0
 34 33  1  0  0  0  0
M  END
>  <minimizedAffinity>
-4.20380592

$$$$

 OpenBabel03272509273D

 35 36  0  0  1  0  0  0  0  0999 V2000
   38.6540   25.6730   33.8070 C   0  0  2  0  0  0  0  0  0  0  0  0
   38.9410   25.1580   35.1690 C   0  0  0  0  0  0  0  0  0  0  0  0
   38.2870   26.0450   36.2140 C   0  0  0  0  0  0  0  0  0  0  0  0
   38.3170   27.4760   35.7610 C   0  0  0  0  0  0  0  0  0  0  0  0
   37.1550   27.4940   34.7810 C   0  0  0  0  0  0  0  0  0  0  0  0
   37.4980   26.5680   33.6870 C   0  0  1  0  0  0  0  0  0  0  0  0
   39.5780   26.1720   33.4340 H   0  0  0  0  0  0  0  0  0  0  0  0
   38.5600   24.1240   35.3660 H   0  0  0  0  0  0  0  0  0  0  0  0
   40.0270   25.1190   35.3930 H   0  0  0  0  0  0  0  0  0  0  0  0
   38.8000   25.9510   37.1650 H   0  0  0  0  0  0  0  0  0  0  0  0
   37.2420   25.6660   36.3630 H   0  0  0  0  0  0  0  0  0  0  0  0
   38.2180   28.1950   36.5730 H   0  0  0  0  0  0  0  0  0  0  0  0
   39.3050   27.6160   35.2380 H   0  0  0  0  0  0  0  0  0  0  0  0
   36.2800   27.0840   35.3570 H   0  0  0  0  0  0  0  0  0  0  0  0
   36.8670   28.5170   34.5370 H   0  0  0  0  0  0  0  0  0  0  0  0
   36.6030   26.0160   33.4050 H   0  0  0  0  0  0  0  0  0  0  0  0
   38.3390   24.2150   32.7970 S   0  0  0  0  0  0  0  0  0  0  0  0
   36.7350   23.9680   32.2290 C   0  0  0  0  0  0  0  0  0  0  0  0
   36.4990   25.0300   31.8630 H   0  0  0  0  0  0  0  0  0  0  0  0
   35.9110   23.8210   32.9410 H   0  0  0  0  0  0  0  0  0  0  0  0
   36.5970   23.1700   30.9510 C   0  0  0  0  0  0  0  0  0  0  0  0
   37.4920   23.1430   30.3300 H   0  0  0  0  0  0  0  0  0  0  0  0
   35.6950   23.6140   30.4280 H   0  0  0  0  0  0  0  0  0  0  0  0
   34.7790   20.2200   32.3270 C   0  0  0  0  0  0  0  0  0  0  0  0
   35.1620   21.5380   32.0880 C   0  0  0  0  0  0  0  0  0  0  0  0
   36.1910   21.7820   31.2180 C   0  0  0  0  0  0  0  0  0  0  0  0
   36.8060   20.7140   30.6160 N   0  0  0  0  0  0  0  0  0  0  0  0
   36.4170   19.4600   30.8660 C   0  0  0  0  0  0  0  0  0  0  0  0
   35.4160   19.1830   31.7070 N   0  0  0  0  0  0  0  0  0  0  0  0
   33.9880   19.8690   32.9820 H   0  0  0  0  0  0  0  0  0  0  0  0
   34.5380   22.1790   32.6880 H   0  0  0  0  0  0  0  0  0  0  0  0
   37.0080   18.7400   30.3070 H   0  0  0  0  0  0  0  0  0  0  0  0
   37.7830   27.5210   32.5330 C   0  0  0  0  0  2  0  0  0  0  0  0
   36.4910   27.8740   31.8790 C   0  0  0  0  0  2  0  0  0  0  0  0
   35.6410   27.1920   32.1520 H   0  0  0  0  0  0  0  0  0  0  0  0
  1  7  1  6  0  0  0
  1  2  1  0  0  0  0
  2  8  1  0  0  0  0
  2  9  1  0  0  0  0
  2  3  1  0  0  0  0
  3 11  1  0  0  0  0
  3 10  1  0  0  0  0
  4  3  1  0  0  0  0
  4 12  1  0  0  0  0
  5 14  1  0  0  0  0
  5  4  1  0  0  0  0
  6 16  1  6  0  0  0
  6  1  1  0  0  0  0
  6  5  1  0  0  0  0
 13  4  1  0  0  0  0
 15  5  1  0  0  0  0
 17  1  1  0  0  0  0
 18 17  1  0  0  0  0
 18 20  1  0  0  0  0
 19 18  1  0  0  0  0
 21 26  1  0  0  0  0
 21 18  1  0  0  0  0
 22 21  1  0  0  0  0
 23 21  1  0  0  0  0
 24 30  1  0  0  0  0
 25 24  1  0  0  0  0
 25 31  1  0  0  0  0
 26 25  2  0  0  0  0
 27 28  2  0  0  0  0
 27 26  1  0  0  0  0
 28 29  1  0  0  0  0
 29 24  2  0  0  0  0
 32 28  1  0  0  0  0
 33  6  1  0  0  0  0
 34 35  1  0  0  0  0
 34 33  1  0  0  0  0
M  END
>  <minimizedAffinity>
-4.19670153

$$$$

 OpenBabel03272509273D

 35 36  0  0  1  0  0  0  0  0999 V2000
   38.7690   25.2280   33.2540 C   0  0  2  0  0  0  0  0  0  0  0  0
   40.0880   24.6920   33.6760 C   0  0  0  0  0  0  0  0  0  0  0  0
   40.5580   25.3910   34.9400 C   0  0  0  0  0  0  0  0  0  0  0  0
   40.1300   26.8290   34.9180 C   0  0  0  0  0  0  0  0  0  0  0  0
   38.6720   26.7050   35.3340 C   0  0  0  0  0  0  0  0  0  0  0  0
   37.9920   25.9160   34.2890 C   0  0  1  0  0  0  0  0  0  0  0  0
   38.9430   25.8990   32.3820 H   0  0  0  0  0  0  0  0  0  0  0  0
   40.0910   23.5980   33.9150 H   0  0  0  0  0  0  0  0  0  0  0  0
   40.8730   24.8270   32.9050 H   0  0  0  0  0  0  0  0  0  0  0  0
   41.6370   25.3310   35.0260 H   0  0  0  0  0  0  0  0  0  0  0  0
   40.1260   24.8300   35.8090 H   0  0  0  0  0  0  0  0  0  0  0  0
   40.7190   27.4730   35.5710 H   0  0  0  0  0  0  0  0  0  0  0  0
   40.2300   27.1680   33.8480 H   0  0  0  0  0  0  0  0  0  0  0  0
   38.6910   26.1170   36.2920 H   0  0  0  0  0  0  0  0  0  0  0  0
   38.2630   27.6750   35.6140 H   0  0  0  0  0  0  0  0  0  0  0  0
   37.2910   25.2360   34.7700 H   0  0  0  0  0  0  0  0  0  0  0  0
   37.8230   23.7980   32.7020 S   0  0  0  0  0  0  0  0  0  0  0  0
   38.1970   22.2730   33.4030 C   0  0  0  0  0  0  0  0  0  0  0  0
   39.2560   22.4950   33.7820 H   0  0  0  0  0  0  0  0  0  0  0  0
   38.3980   21.4030   32.7620 H   0  0  0  0  0  0  0  0  0  0  0  0
   37.4770   21.9390   34.6910 C   0  0  0  0  0  0  0  0  0  0  0  0
   37.2220   20.8870   34.8120 H   0  0  0  0  0  0  0  0  0  0  0  0
   36.5780   22.6300   34.7060 H   0  0  0  0  0  0  0  0  0  0  0  0
   38.3970   23.5190   37.9400 C   0  0  0  0  0  0  0  0  0  0  0  0
   37.6570   23.1390   36.8220 C   0  0  0  0  0  0  0  0  0  0  0  0
   38.2510   22.3550   35.8690 C   0  0  0  0  0  0  0  0  0  0  0  0
   39.5560   21.9750   36.0550 N   0  0  0  0  0  0  0  0  0  0  0  0
   40.2400   22.3560   37.1380 C   0  0  0  0  0  0  0  0  0  0  0  0
   39.6940   23.1190   38.0890 N   0  0  0  0  0  0  0  0  0  0  0  0
   38.0690   24.1310   38.7740 H   0  0  0  0  0  0  0  0  0  0  0  0
   36.6760   23.5750   36.9100 H   0  0  0  0  0  0  0  0  0  0  0  0
   41.2550   21.9690   37.1250 H   0  0  0  0  0  0  0  0  0  0  0  0
   37.1420   26.9700   33.5910 C   0  0  0  0  0  2  0  0  0  0  0  0
   36.6770   27.9560   34.6080 C   0  0  0  0  0  2  0  0  0  0  0  0
   36.7880   27.6020   35.6680 H   0  0  0  0  0  0  0  0  0  0  0  0
  1  7  1  6  0  0  0
  1  2  1  0  0  0  0
  1  6  1  0  0  0  0
  2  8  1  0  0  0  0
  2  3  1  0  0  0  0
  3 10  1  0  0  0  0
  3 11  1  0  0  0  0
  4  3  1  0  0  0  0
  4  5  1  0  0  0  0
  4 12  1  0  0  0  0
  5 15  1  0  0  0  0
  5 14  1  0  0  0  0
  6 16  1  1  0  0  0
  6  5  1  0  0  0  0
  9  2  1  0  0  0  0
 13  4  1  0  0  0  0
 17  1  1  0  0  0  0
 17 18  1  0  0  0  0
 18 19  1  0  0  0  0
 18 21  1  0  0  0  0
 20 18  1  0  0  0  0
 21 23  1  0  0  0  0
 21 22  1  0  0  0  0
 21 26  1  0  0  0  0
 24 29  1  0  0  0  0
 24 30  1  0  0  0  0
 25 31  1  0  0  0  0
 25 24  2  0  0  0  0
 26 27  2  0  0  0  0
 26 25  1  0  0  0  0
 27 28  1  0  0  0  0
 28 29  2  0  0  0  0
 32 28  1  0  0  0  0
 33  6  1  0  0  0  0
 33 34  1  0  0  0  0
 34 35  1  0  0  0  0
M  END
>  <minimizedAffinity>
-4.19002771

$$$$

 OpenBabel03272509273D

 35 36  0  0  1  0  0  0  0  0999 V2000
   36.7000   27.7320   33.0960 C   0  0  2  0  0  0  0  0  0  0  0  0
   37.9130   27.2270   32.4060 C   0  0  0  0  0  0  0  0  0  0  0  0
   38.0750   27.9140   31.0610 C   0  0  0  0  0  0  0  0  0  0  0  0
   36.7280   28.1710   30.4520 C   0  0  0  0  0  0  0  0  0  0  0  0
   36.2960   29.4120   31.2180 C   0  0  0  0  0  0  0  0  0  0  0  0
   36.1900   29.0280   32.6380 C   0  0  1  0  0  0  0  0  0  0  0  0
   35.9130   26.9480   33.0110 H   0  0  0  0  0  0  0  0  0  0  0  0
   38.8710   27.4060   32.9560 H   0  0  0  0  0  0  0  0  0  0  0  0
   37.8780   26.1330   32.2230 H   0  0  0  0  0  0  0  0  0  0  0  0
   38.6680   27.3000   30.3920 H   0  0  0  0  0  0  0  0  0  0  0  0
   38.6510   28.8590   31.2390 H   0  0  0  0  0  0  0  0  0  0  0  0
   36.7530   28.3090   29.3720 H   0  0  0  0  0  0  0  0  0  0  0  0
   36.0920   27.2790   30.7140 H   0  0  0  0  0  0  0  0  0  0  0  0
   37.1410   30.1430   31.0910 H   0  0  0  0  0  0  0  0  0  0  0  0
   35.4440   29.8920   30.7350 H   0  0  0  0  0  0  0  0  0  0  0  0
   36.5800   29.8410   33.2470 H   0  0  0  0  0  0  0  0  0  0  0  0
   37.1640   27.8960   34.8290 S   0  0  0  0  0  0  0  0  0  0  0  0
   38.1810   26.6820   35.5010 C   0  0  0  0  0  0  0  0  0  0  0  0
   38.2080   27.0410   36.5900 H   0  0  0  0  0  0  0  0  0  0  0  0
   39.2560   26.6710   35.2730 H   0  0  0  0  0  0  0  0  0  0  0  0
   37.5660   25.3080   35.6510 C   0  0  0  0  0  0  0  0  0  0  0  0
   37.3500   24.7990   34.7120 H   0  0  0  0  0  0  0  0  0  0  0  0
   36.6510   25.4700   36.3010 H   0  0  0  0  0  0  0  0  0  0  0  0
   38.8670   23.3120   38.5190 C   0  0  0  0  0  0  0  0  0  0  0  0
   38.0640   24.1630   37.7620 C   0  0  0  0  0  0  0  0  0  0  0  0
   38.4110   24.4200   36.4630 C   0  0  0  0  0  0  0  0  0  0  0  0
   39.5410   23.8280   35.9580 N   0  0  0  0  0  0  0  0  0  0  0  0
   40.2920   23.0170   36.7090 C   0  0  0  0  0  0  0  0  0  0  0  0
   39.9840   22.7410   37.9800 N   0  0  0  0  0  0  0  0  0  0  0  0
   38.7230   23.0130   39.5520 H   0  0  0  0  0  0  0  0  0  0  0  0
   37.2560   24.5020   38.3890 H   0  0  0  0  0  0  0  0  0  0  0  0
   41.1450   22.6360   36.1550 H   0  0  0  0  0  0  0  0  0  0  0  0
   34.6830   29.0260   32.8600 C   0  0  0  0  0  2  0  0  0  0  0  0
   34.3260   30.1960   33.7120 C   0  0  0  0  0  2  0  0  0  0  0  0
   35.2040   30.6610   34.2360 H   0  0  0  0  0  0  0  0  0  0  0  0
  1  7  1  6  0  0  0
  1 17  1  0  0  0  0
  2  8  1  0  0  0  0
  2  1  1  0  0  0  0
  3 11  1  0  0  0  0
  3  2  1  0  0  0  0
  4 13  1  0  0  0  0
  4  3  1  0  0  0  0
  4  5  1  0  0  0  0
  5  6  1  0  0  0  0
  6 33  1  0  0  0  0
  6  1  1  0  0  0  0
  6 16  1  1  0  0  0
  9  2  1  0  0  0  0
 10  3  1  0  0  0  0
 12  4  1  0  0  0  0
 14  5  1  0  0  0  0
 15  5  1  0  0  0  0
 17 18  1  0  0  0  0
 18 21  1  0  0  0  0
 18 19  1  0  0  0  0
 20 18  1  0  0  0  0
 21 23  1  0  0  0  0
 21 26  1  0  0  0  0
 22 21  1  0  0  0  0
 24 30  1  0  0  0  0
 25 31  1  0  0  0  0
 25 24  2  0  0  0  0
 26 25  1  0  0  0  0
 27 26  2  0  0  0  0
 27 28  1  0  0  0  0
 28 29  2  0  0  0  0
 29 24  1  0  0  0  0
 32 28  1  0  0  0  0
 33 34  1  0  0  0  0
 34 35  1  0  0  0  0
M  END
>  <minimizedAffinity>
-4.17550802

$$$$
