
 OpenBabel03272507203D

 24 25  0  0  1  0  0  0  0  0999 V2000
   37.9900   27.1240   33.8860 C   0  0  1  0  0  0  0  0  0  0  0  0
   36.9910   27.4560   32.8720 C   0  0  2  0  0  0  0  0  0  0  0  0
   36.7040   27.8860   34.2780 C   0  0  0  0  0  0  0  0  0  0  0  0
   38.9130   27.7210   33.9980 H   0  0  0  0  0  0  0  0  0  0  0  0
   37.3860   28.2010   32.1160 H   0  0  0  0  0  0  0  0  0  0  0  0
   35.9240   27.3500   34.8400 H   0  0  0  0  0  0  0  0  0  0  0  0
   36.8600   28.9610   34.5370 H   0  0  0  0  0  0  0  0  0  0  0  0
   38.0390   25.7660   34.5300 C   0  0  0  0  0  0  0  0  0  0  0  0
   38.2230   24.6890   33.6690 C   0  0  0  0  0  0  0  0  0  0  0  0
   38.2520   23.4450   34.2920 C   0  0  0  0  0  0  0  0  0  0  0  0
   38.1090   23.3280   35.6470 N   0  0  0  0  0  0  0  0  0  0  0  0
   37.9320   24.4090   36.4540 C   0  0  0  0  0  0  0  0  0  0  0  0
   37.8980   25.6480   35.8740 N   0  0  0  0  0  0  0  0  0  0  0  0
   38.3300   24.8290   32.6030 H   0  0  0  0  0  0  0  0  0  0  0  0
   38.3930   22.5690   33.6690 H   0  0  0  0  0  0  0  0  0  0  0  0
   37.7840   24.2090   37.9070 C   0  0  0  0  0  2  0  0  0  0  0  0
   38.8700   23.3360   38.4860 C   0  0  0  0  0  2  0  0  0  0  0  0
   38.5670   23.0840   39.5260 H   0  0  0  0  0  0  0  0  0  0  0  0
   36.2730   26.4030   32.3240 O   0  0  0  0  0  0  0  0  0  0  0  0
   35.7210   26.2600   31.1000 C   0  0  0  0  0  0  0  0  0  0  0  0
   34.9010   25.3560   30.8310 O   0  0  0  0  0  0  0  0  0  0  0  0
   36.2350   27.2670   30.2790 N   0  0  0  0  0  0  0  0  0  0  0  0
   37.2370   27.2020   29.9610 H   0  0  0  0  0  0  0  0  0  0  0  0
   35.4060   27.8970   30.1800 H   0  0  0  0  0  0  0  0  0  0  0  0
  1  4  1  6  0  0  0
  1  3  1  0  0  0  0
  1  8  1  0  0  0  0
  2  5  1  6  0  0  0
  2  1  1  0  0  0  0
  2  3  1  0  0  0  0
  3  7  1  0  0  0  0
  3  6  1  0  0  0  0
  8 13  1  0  0  0  0
  9 10  1  0  0  0  0
  9  8  2  0  0  0  0
 10 11  2  0  0  0  0
 11 12  1  0  0  0  0
 12 16  1  0  0  0  0
 13 12  2  0  0  0  0
 14  9  1  0  0  0  0
 15 10  1  0  0  0  0
 16 17  1  0  0  0  0
 17 18  1  0  0  0  0
 19  2  1  0  0  0  0
 20 19  1  0  0  0  0
 21 20  2  0  0  0  0
 22 20  1  0  0  0  0
 23 22  1  0  0  0  0
 24 22  1  0  0  0  0
M  END
>  <minimizedAffinity>
-4.38113785

$$$$

 OpenBabel03272507203D

 24 25  0  0  1  0  0  0  0  0999 V2000
   38.0490   23.9470   34.3830 C   0  0  1  0  0  0  0  0  0  0  0  0
   38.2950   25.2570   33.7810 C   0  0  2  0  0  0  0  0  0  0  0  0
   39.2580   24.1590   33.4430 C   0  0  0  0  0  0  0  0  0  0  0  0
   37.2820   23.2650   33.9750 H   0  0  0  0  0  0  0  0  0  0  0  0
   37.4810   25.5470   33.0500 H   0  0  0  0  0  0  0  0  0  0  0  0
   40.2670   24.1940   33.8820 H   0  0  0  0  0  0  0  0  0  0  0  0
   39.1610   23.6710   32.4440 H   0  0  0  0  0  0  0  0  0  0  0  0
   38.4940   23.6260   35.7820 C   0  0  0  0  0  0  0  0  0  0  0  0
   37.6990   24.1320   36.8070 C   0  0  0  0  0  0  0  0  0  0  0  0
   38.1420   23.8280   38.0900 C   0  0  0  0  0  0  0  0  0  0  0  0
   39.2740   23.0880   38.2930 N   0  0  0  0  0  0  0  0  0  0  0  0
   40.0230   22.6120   37.2610 C   0  0  0  0  0  0  0  0  0  0  0  0
   39.6170   22.8920   35.9850 N   0  0  0  0  0  0  0  0  0  0  0  0
   36.8120   24.7140   36.6000 H   0  0  0  0  0  0  0  0  0  0  0  0
   37.5600   24.1970   38.9280 H   0  0  0  0  0  0  0  0  0  0  0  0
   41.2330   21.8210   37.5520 C   0  0  0  0  0  2  0  0  0  0  0  0
   42.2300   21.8480   36.4200 C   0  0  0  0  0  2  0  0  0  0  0  0
   43.0000   21.0780   36.6450 H   0  0  0  0  0  0  0  0  0  0  0  0
   38.7000   26.2760   34.6310 O   0  0  0  0  0  0  0  0  0  0  0  0
   38.0070   27.3120   35.1510 C   0  0  0  0  0  0  0  0  0  0  0  0
   37.0000   27.7970   34.5920 O   0  0  0  0  0  0  0  0  0  0  0  0
   38.6230   27.6810   36.3490 N   0  0  0  0  0  0  0  0  0  0  0  0
   39.5530   28.1750   36.3120 H   0  0  0  0  0  0  0  0  0  0  0  0
   37.9310   27.3360   37.0530 H   0  0  0  0  0  0  0  0  0  0  0  0
  1  4  1  6  0  0  0
  1  8  1  0  0  0  0
  2  5  1  6  0  0  0
  2  1  1  0  0  0  0
  2 19  1  0  0  0  0
  3  2  1  0  0  0  0
  3  6  1  0  0  0  0
  3  1  1  0  0  0  0
  7  3  1  0  0  0  0
  8 13  2  0  0  0  0
  8  9  1  0  0  0  0
  9 10  2  0  0  0  0
 10 11  1  0  0  0  0
 10 15  1  0  0  0  0
 12 16  1  0  0  0  0
 12 11  2  0  0  0  0
 13 12  1  0  0  0  0
 14  9  1  0  0  0  0
 17 18  1  0  0  0  0
 17 16  1  0  0  0  0
 19 20  1  0  0  0  0
 20 22  1  0  0  0  0
 21 20  2  0  0  0  0
 22 24  1  0  0  0  0
 23 22  1  0  0  0  0
M  END
>  <minimizedAffinity>
-4.25720835

$$$$

 OpenBabel03272507203D

 24 25  0  0  1  0  0  0  0  0999 V2000
   38.2860   23.7390   36.9150 C   0  0  1  0  0  0  0  0  0  0  0  0
   37.0130   23.0370   37.0700 C   0  0  2  0  0  0  0  0  0  0  0  0
   37.8610   23.1900   38.2960 C   0  0  0  0  0  0  0  0  0  0  0  0
   38.3310   24.8420   36.8690 H   0  0  0  0  0  0  0  0  0  0  0  0
   36.1280   23.7230   36.9000 H   0  0  0  0  0  0  0  0  0  0  0  0
   38.3750   22.2990   38.6910 H   0  0  0  0  0  0  0  0  0  0  0  0
   37.5690   23.9710   39.0380 H   0  0  0  0  0  0  0  0  0  0  0  0
   39.5140   23.0390   36.4030 C   0  0  0  0  0  0  0  0  0  0  0  0
   39.8020   23.2210   35.0540 C   0  0  0  0  0  0  0  0  0  0  0  0
   40.9380   22.5530   34.6060 C   0  0  0  0  0  0  0  0  0  0  0  0
   41.6880   21.7860   35.4530 N   0  0  0  0  0  0  0  0  0  0  0  0
   41.3710   21.6340   36.7680 C   0  0  0  0  0  0  0  0  0  0  0  0
   40.2600   22.2770   37.2430 N   0  0  0  0  0  0  0  0  0  0  0  0
   39.1790   23.8370   34.4210 H   0  0  0  0  0  0  0  0  0  0  0  0
   41.2110   22.6590   33.5620 H   0  0  0  0  0  0  0  0  0  0  0  0
   42.2250   20.7910   37.6250 C   0  0  0  0  0  2  0  0  0  0  0  0
   43.0070   19.7680   36.8370 C   0  0  0  0  0  2  0  0  0  0  0  0
   43.4560   19.0650   37.5720 H   0  0  0  0  0  0  0  0  0  0  0  0
   36.9010   21.7900   36.4730 O   0  0  0  0  0  0  0  0  0  0  0  0
   35.8090   21.0510   36.1840 C   0  0  0  0  0  0  0  0  0  0  0  0
   35.5270   20.6920   35.0200 O   0  0  0  0  0  0  0  0  0  0  0  0
   35.1300   20.8040   37.3790 N   0  0  0  0  0  0  0  0  0  0  0  0
   34.6110   21.5960   37.8420 H   0  0  0  0  0  0  0  0  0  0  0  0
   35.3310   19.7890   37.5260 H   0  0  0  0  0  0  0  0  0  0  0  0
  1  4  1  6  0  0  0
  1  2  1  0  0  0  0
  1  3  1  0  0  0  0
  2  5  1  6  0  0  0
  2  3  1  0  0  0  0
  3  6  1  0  0  0  0
  3  7  1  0  0  0  0
  8  1  1  0  0  0  0
  8 13  1  0  0  0  0
  9  8  2  0  0  0  0
 10  9  1  0  0  0  0
 10 11  2  0  0  0  0
 11 12  1  0  0  0  0
 12 13  2  0  0  0  0
 12 16  1  0  0  0  0
 14  9  1  0  0  0  0
 15 10  1  0  0  0  0
 17 18  1  0  0  0  0
 17 16  1  0  0  0  0
 19  2  1  0  0  0  0
 20 19  1  0  0  0  0
 20 22  1  0  0  0  0
 21 20  2  0  0  0  0
 22 24  1  0  0  0  0
 22 23  1  0  0  0  0
M  END
>  <minimizedAffinity>
-4.24798203

$$$$

 OpenBabel03272507203D

 24 25  0  0  1  0  0  0  0  0999 V2000
   37.7470   23.3180   37.4930 C   0  0  1  0  0  0  0  0  0  0  0  0
   38.9200   22.9850   38.2990 C   0  0  2  0  0  0  0  0  0  0  0  0
   38.1140   24.1730   38.7270 C   0  0  0  0  0  0  0  0  0  0  0  0
   36.8000   22.7600   37.6030 H   0  0  0  0  0  0  0  0  0  0  0  0
   38.8010   21.9930   38.8320 H   0  0  0  0  0  0  0  0  0  0  0  0
   38.5360   25.1770   38.5660 H   0  0  0  0  0  0  0  0  0  0  0  0
   37.4270   24.0510   39.5990 H   0  0  0  0  0  0  0  0  0  0  0  0
   37.8640   24.1130   36.2220 C   0  0  0  0  0  0  0  0  0  0  0  0
   38.0890   23.3780   35.0610 C   0  0  0  0  0  0  0  0  0  0  0  0
   38.2040   24.1420   33.9040 C   0  0  0  0  0  0  0  0  0  0  0  0
   38.0970   25.5040   33.9400 N   0  0  0  0  0  0  0  0  0  0  0  0
   37.8760   26.1840   35.0980 C   0  0  0  0  0  0  0  0  0  0  0  0
   37.7590   25.4650   36.2570 N   0  0  0  0  0  0  0  0  0  0  0  0
   38.1670   22.3010   35.0800 H   0  0  0  0  0  0  0  0  0  0  0  0
   38.3790   23.6220   32.9690 H   0  0  0  0  0  0  0  0  0  0  0  0
   37.7730   27.6540   35.0650 C   0  0  0  0  0  2  0  0  0  0  0  0
   36.5260   28.1330   34.3620 C   0  0  0  0  0  2  0  0  0  0  0  0
   36.6350   29.2290   34.2140 H   0  0  0  0  0  0  0  0  0  0  0  0
   40.1640   23.1830   37.7170 O   0  0  0  0  0  0  0  0  0  0  0  0
   40.9740   22.3220   37.0650 C   0  0  0  0  0  0  0  0  0  0  0  0
   41.4410   22.5630   35.9300 O   0  0  0  0  0  0  0  0  0  0  0  0
   41.1530   21.2020   37.8790 N   0  0  0  0  0  0  0  0  0  0  0  0
   40.3510   20.5300   38.0040 H   0  0  0  0  0  0  0  0  0  0  0  0
   42.1430   21.3280   38.1920 H   0  0  0  0  0  0  0  0  0  0  0  0
  1  4  1  1  0  0  0
  1  2  1  0  0  0  0
  1  3  1  0  0  0  0
  2  3  1  0  0  0  0
  2  5  1  1  0  0  0
  3  7  1  0  0  0  0
  6  3  1  0  0  0  0
  8 13  1  0  0  0  0
  8  1  1  0  0  0  0
  9 14  1  0  0  0  0
  9  8  2  0  0  0  0
 10 11  2  0  0  0  0
 10  9  1  0  0  0  0
 11 12  1  0  0  0  0
 12 13  2  0  0  0  0
 15 10  1  0  0  0  0
 16 12  1  0  0  0  0
 17 16  1  0  0  0  0
 18 17  1  0  0  0  0
 19  2  1  0  0  0  0
 20 19  1  0  0  0  0
 20 22  1  0  0  0  0
 21 20  2  0  0  0  0
 22 23  1  0  0  0  0
 22 24  1  0  0  0  0
M  END
>  <minimizedAffinity>
-4.23688936

$$$$

 OpenBabel03272507203D

 24 25  0  0  1  0  0  0  0  0999 V2000
   39.8310   24.5380   35.1740 C   0  0  1  0  0  0  0  0  0  0  0  0
   39.5450   23.5400   36.2030 C   0  0  2  0  0  0  0  0  0  0  0  0
   39.3340   23.1300   34.7770 C   0  0  0  0  0  0  0  0  0  0  0  0
   40.8670   24.7520   34.8550 H   0  0  0  0  0  0  0  0  0  0  0  0
   40.4800   23.2220   36.7560 H   0  0  0  0  0  0  0  0  0  0  0  0
   38.3010   23.0180   34.4120 H   0  0  0  0  0  0  0  0  0  0  0  0
   40.1080   22.4800   34.3010 H   0  0  0  0  0  0  0  0  0  0  0  0
   38.8290   25.5960   34.8030 C   0  0  0  0  0  0  0  0  0  0  0  0
   38.7150   26.6660   35.6860 C   0  0  0  0  0  0  0  0  0  0  0  0
   37.7720   27.6220   35.3220 C   0  0  0  0  0  0  0  0  0  0  0  0
   37.0350   27.4910   34.1780 N   0  0  0  0  0  0  0  0  0  0  0  0
   37.1780   26.4280   33.3400 C   0  0  0  0  0  0  0  0  0  0  0  0
   38.0960   25.4670   33.6680 N   0  0  0  0  0  0  0  0  0  0  0  0
   39.3190   26.7280   36.5800 H   0  0  0  0  0  0  0  0  0  0  0  0
   37.6410   28.4790   35.9740 H   0  0  0  0  0  0  0  0  0  0  0  0
   36.3490   26.3490   32.1240 C   0  0  0  0  0  2  0  0  0  0  0  0
   36.1150   24.9280   31.6720 C   0  0  0  0  0  2  0  0  0  0  0  0
   35.6600   24.9790   30.6590 H   0  0  0  0  0  0  0  0  0  0  0  0
   38.4420   23.7660   37.0140 O   0  0  0  0  0  0  0  0  0  0  0  0
   38.3450   23.8480   38.3590 C   0  0  0  0  0  0  0  0  0  0  0  0
   37.8830   24.8530   38.9400 O   0  0  0  0  0  0  0  0  0  0  0  0
   38.8360   22.6570   38.8970 N   0  0  0  0  0  0  0  0  0  0  0  0
   39.8730   22.4760   38.8700 H   0  0  0  0  0  0  0  0  0  0  0  0
   37.9550   22.1980   39.2250 H   0  0  0  0  0  0  0  0  0  0  0  0
  1  4  1  6  0  0  0
  1  2  1  0  0  0  0
  2  5  1  1  0  0  0
  2 19  1  0  0  0  0
  3  1  1  0  0  0  0
  3  2  1  0  0  0  0
  6  3  1  0  0  0  0
  7  3  1  0  0  0  0
  8  1  1  0  0  0  0
  8  9  1  0  0  0  0
  9 14  1  0  0  0  0
 10  9  2  0  0  0  0
 10 15  1  0  0  0  0
 11 10  1  0  0  0  0
 12 13  1  0  0  0  0
 12 11  2  0  0  0  0
 13  8  2  0  0  0  0
 16 12  1  0  0  0  0
 17 16  1  0  0  0  0
 18 17  1  0  0  0  0
 19 20  1  0  0  0  0
 20 22  1  0  0  0  0
 20 21  2  0  0  0  0
 22 24  1  0  0  0  0
 23 22  1  0  0  0  0
M  END
>  <minimizedAffinity>
-4.2299037

$$$$

 OpenBabel03272507203D

 24 25  0  0  1  0  0  0  0  0999 V2000
   37.7430   25.6950   35.6580 C   0  0  1  0  0  0  0  0  0  0  0  0
   38.4740   26.7370   34.9380 C   0  0  2  0  0  0  0  0  0  0  0  0
   38.0310   25.5440   34.1470 C   0  0  0  0  0  0  0  0  0  0  0  0
   36.6710   25.8090   35.8990 H   0  0  0  0  0  0  0  0  0  0  0  0
   37.8890   27.7050   34.8860 H   0  0  0  0  0  0  0  0  0  0  0  0
   38.7930   24.8170   33.8250 H   0  0  0  0  0  0  0  0  0  0  0  0
   37.1360   25.6570   33.4900 H   0  0  0  0  0  0  0  0  0  0  0  0
   38.4580   24.6420   36.4590 C   0  0  0  0  0  0  0  0  0  0  0  0
   37.9980   24.4470   37.7580 C   0  0  0  0  0  0  0  0  0  0  0  0
   38.6860   23.4740   38.4780 C   0  0  0  0  0  0  0  0  0  0  0  0
   39.7250   22.7830   37.9200 N   0  0  0  0  0  0  0  0  0  0  0  0
   40.1430   23.0040   36.6440 C   0  0  0  0  0  0  0  0  0  0  0  0
   39.4890   23.9540   35.9070 N   0  0  0  0  0  0  0  0  0  0  0  0
   37.1730   25.0180   38.1580 H   0  0  0  0  0  0  0  0  0  0  0  0
   38.3700   23.2800   39.4970 H   0  0  0  0  0  0  0  0  0  0  0  0
   41.2710   22.2230   36.1070 C   0  0  0  0  0  2  0  0  0  0  0  0
   41.8980   21.3220   37.1430 C   0  0  0  0  0  2  0  0  0  0  0  0
   42.8450   20.9330   36.7080 H   0  0  0  0  0  0  0  0  0  0  0  0
   39.8190   26.8890   35.2400 O   0  0  0  0  0  0  0  0  0  0  0  0
   40.9060   26.8640   34.4390 C   0  0  0  0  0  0  0  0  0  0  0  0
   40.9720   27.5100   33.3720 O   0  0  0  0  0  0  0  0  0  0  0  0
   41.8530   26.0240   35.0290 N   0  0  0  0  0  0  0  0  0  0  0  0
   41.6840   24.9840   35.0240 H   0  0  0  0  0  0  0  0  0  0  0  0
   42.5640   26.7140   35.3630 H   0  0  0  0  0  0  0  0  0  0  0  0
  1  4  1  1  0  0  0
  1  8  1  0  0  0  0
  2  5  1  6  0  0  0
  2 19  1  0  0  0  0
  2  1  1  0  0  0  0
  3  2  1  0  0  0  0
  3  1  1  0  0  0  0
  6  3  1  0  0  0  0
  7  3  1  0  0  0  0
  8  9  1  0  0  0  0
  9 14  1  0  0  0  0
  9 10  2  0  0  0  0
 10 15  1  0  0  0  0
 11 10  1  0  0  0  0
 12 11  2  0  0  0  0
 13  8  2  0  0  0  0
 13 12  1  0  0  0  0
 16 12  1  0  0  0  0
 16 17  1  0  0  0  0
 18 17  1  0  0  0  0
 20 22  1  0  0  0  0
 20 19  1  0  0  0  0
 21 20  2  0  0  0  0
 22 24  1  0  0  0  0
 23 22  1  0  0  0  0
M  END
>  <minimizedAffinity>
-4.18357277

$$$$

 OpenBabel03272507203D

 24 25  0  0  1  0  0  0  0  0999 V2000
   37.8720   27.6030   35.3560 C   0  0  1  0  0  0  0  0  0  0  0  0
   38.2280   26.5270   36.2790 C   0  0  2  0  0  0  0  0  0  0  0  0
   39.3030   27.0210   35.3600 C   0  0  0  0  0  0  0  0  0  0  0  0
   37.8170   28.6530   35.6950 H   0  0  0  0  0  0  0  0  0  0  0  0
   38.1990   26.8680   37.3590 H   0  0  0  0  0  0  0  0  0  0  0  0
   39.6130   26.3760   34.5230 H   0  0  0  0  0  0  0  0  0  0  0  0
   40.0810   27.7000   35.7850 H   0  0  0  0  0  0  0  0  0  0  0  0
   37.1720   27.3260   34.0550 C   0  0  0  0  0  0  0  0  0  0  0  0
   36.3670   28.3500   33.5650 C   0  0  0  0  0  0  0  0  0  0  0  0
   35.7240   28.0600   32.3650 C   0  0  0  0  0  0  0  0  0  0  0  0
   35.8930   26.8540   31.7440 N   0  0  0  0  0  0  0  0  0  0  0  0
   36.6920   25.8780   32.2580 C   0  0  0  0  0  0  0  0  0  0  0  0
   37.3390   26.1290   33.4370 N   0  0  0  0  0  0  0  0  0  0  0  0
   36.2610   29.2880   34.0910 H   0  0  0  0  0  0  0  0  0  0  0  0
   35.0830   28.8220   31.9360 H   0  0  0  0  0  0  0  0  0  0  0  0
   36.8280   24.6010   31.5350 C   0  0  0  0  0  2  0  0  0  0  0  0
   35.4940   23.9860   31.1870 C   0  0  0  0  0  2  0  0  0  0  0  0
   35.6950   22.9530   30.8300 H   0  0  0  0  0  0  0  0  0  0  0  0
   37.6580   25.2830   36.0510 O   0  0  0  0  0  0  0  0  0  0  0  0
   38.1890   24.0440   36.1440 C   0  0  0  0  0  0  0  0  0  0  0  0
   38.6320   23.5800   37.2160 O   0  0  0  0  0  0  0  0  0  0  0  0
   38.1310   23.4580   34.8780 N   0  0  0  0  0  0  0  0  0  0  0  0
   38.7830   23.8040   34.1260 H   0  0  0  0  0  0  0  0  0  0  0  0
   37.3740   22.7490   35.0120 H   0  0  0  0  0  0  0  0  0  0  0  0
  1  3  1  0  0  0  0
  1  4  1  1  0  0  0
  1  2  1  0  0  0  0
  2  5  1  1  0  0  0
  3  7  1  0  0  0  0
  3  2  1  0  0  0  0
  6  3  1  0  0  0  0
  8  1  1  0  0  0  0
  9  8  1  0  0  0  0
  9 14  1  0  0  0  0
 10  9  2  0  0  0  0
 11 12  2  0  0  0  0
 11 10  1  0  0  0  0
 12 13  1  0  0  0  0
 13  8  2  0  0  0  0
 15 10  1  0  0  0  0
 16 12  1  0  0  0  0
 17 16  1  0  0  0  0
 18 17  1  0  0  0  0
 19 20  1  0  0  0  0
 19  2  1  0  0  0  0
 20 21  2  0  0  0  0
 22 24  1  0  0  0  0
 22 20  1  0  0  0  0
 23 22  1  0  0  0  0
M  END
>  <minimizedAffinity>
-4.15460348

$$$$

 OpenBabel03272507203D

 24 25  0  0  1  0  0  0  0  0999 V2000
   39.2800   23.0510   34.9580 C   0  0  1  0  0  0  0  0  0  0  0  0
   39.1600   22.3550   36.2370 C   0  0  2  0  0  0  0  0  0  0  0  0
   37.9000   22.5620   35.4530 C   0  0  0  0  0  0  0  0  0  0  0  0
   39.6400   22.5290   34.0530 H   0  0  0  0  0  0  0  0  0  0  0  0
   39.6830   21.3500   36.2240 H   0  0  0  0  0  0  0  0  0  0  0  0
   37.1750   23.3070   35.8150 H   0  0  0  0  0  0  0  0  0  0  0  0
   37.4870   21.6900   34.8910 H   0  0  0  0  0  0  0  0  0  0  0  0
   39.3320   24.5520   34.8790 C   0  0  0  0  0  0  0  0  0  0  0  0
   40.6030   25.1170   34.8380 C   0  0  0  0  0  0  0  0  0  0  0  0
   40.6190   26.5070   34.7770 C   0  0  0  0  0  0  0  0  0  0  0  0
   39.4580   27.2290   34.7600 N   0  0  0  0  0  0  0  0  0  0  0  0
   38.2340   26.6360   34.8010 C   0  0  0  0  0  0  0  0  0  0  0  0
   38.1810   25.2700   34.8620 N   0  0  0  0  0  0  0  0  0  0  0  0
   41.4950   24.5060   34.8540 H   0  0  0  0  0  0  0  0  0  0  0  0
   41.5840   27.0020   34.7420 H   0  0  0  0  0  0  0  0  0  0  0  0
   37.0230   27.4760   34.7810 C   0  0  0  0  0  2  0  0  0  0  0  0
   36.6030   27.8540   33.3810 C   0  0  0  0  0  2  0  0  0  0  0  0
   35.8170   28.6340   33.4760 H   0  0  0  0  0  0  0  0  0  0  0  0
   39.3750   23.1020   37.3870 O   0  0  0  0  0  0  0  0  0  0  0  0
   38.5030   23.5570   38.3120 C   0  0  0  0  0  0  0  0  0  0  0  0
   37.9950   24.6970   38.2550 O   0  0  0  0  0  0  0  0  0  0  0  0
   38.3200   22.5490   39.2610 N   0  0  0  0  0  0  0  0  0  0  0  0
   39.1020   22.3370   39.9360 H   0  0  0  0  0  0  0  0  0  0  0  0
   37.3520   22.2260   39.0370 H   0  0  0  0  0  0  0  0  0  0  0  0
  1  4  1  6  0  0  0
  1  3  1  0  0  0  0
  1  2  1  0  0  0  0
  2  5  1  1  0  0  0
  2 19  1  0  0  0  0
  3  6  1  0  0  0  0
  3  2  1  0  0  0  0
  7  3  1  0  0  0  0
  8  1  1  0  0  0  0
  9 14  1  0  0  0  0
  9  8  2  0  0  0  0
 10  9  1  0  0  0  0
 11 10  2  0  0  0  0
 11 12  1  0  0  0  0
 12 13  2  0  0  0  0
 13  8  1  0  0  0  0
 15 10  1  0  0  0  0
 16 12  1  0  0  0  0
 17 18  1  0  0  0  0
 17 16  1  0  0  0  0
 19 20  1  0  0  0  0
 20 22  1  0  0  0  0
 21 20  2  0  0  0  0
 22 23  1  0  0  0  0
 24 22  1  0  0  0  0
M  END
>  <minimizedAffinity>
-4.14677668

$$$$

 OpenBabel03272507203D

 24 25  0  0  1  0  0  0  0  0999 V2000
   38.9570   23.6310   35.4360 C   0  0  1  0  0  0  0  0  0  0  0  0
   38.5990   24.8670   36.1290 C   0  0  2  0  0  0  0  0  0  0  0  0
   38.1460   23.5810   36.7510 C   0  0  0  0  0  0  0  0  0  0  0  0
   39.9700   23.2000   35.5210 H   0  0  0  0  0  0  0  0  0  0  0  0
   39.5090   25.4070   36.5320 H   0  0  0  0  0  0  0  0  0  0  0  0
   37.0770   23.3240   36.7030 H   0  0  0  0  0  0  0  0  0  0  0  0
   38.7140   23.2010   37.6340 H   0  0  0  0  0  0  0  0  0  0  0  0
   38.1500   23.1150   34.2770 C   0  0  0  0  0  0  0  0  0  0  0  0
   38.2790   23.8180   33.0830 C   0  0  0  0  0  0  0  0  0  0  0  0
   37.5120   23.3240   32.0320 C   0  0  0  0  0  0  0  0  0  0  0  0
   36.7070   22.2310   32.1950 N   0  0  0  0  0  0  0  0  0  0  0  0
   36.6110   21.5710   33.3810 C   0  0  0  0  0  0  0  0  0  0  0  0
   37.3510   22.0300   34.4370 N   0  0  0  0  0  0  0  0  0  0  0  0
   38.9280   24.6780   33.0010 H   0  0  0  0  0  0  0  0  0  0  0  0
   37.5740   23.8330   31.0770 H   0  0  0  0  0  0  0  0  0  0  0  0
   35.7220   20.4000   33.4870 C   0  0  0  0  0  2  0  0  0  0  0  0
   34.8360   20.2340   32.2760 C   0  0  0  0  0  2  0  0  0  0  0  0
   34.0790   19.4600   32.5300 H   0  0  0  0  0  0  0  0  0  0  0  0
   37.6650   25.6890   35.5140 O   0  0  0  0  0  0  0  0  0  0  0  0
   37.6360   27.0320   35.3730 C   0  0  0  0  0  0  0  0  0  0  0  0
   36.8030   27.6160   34.6480 O   0  0  0  0  0  0  0  0  0  0  0  0
   38.6610   27.5660   36.1560 N   0  0  0  0  0  0  0  0  0  0  0  0
   39.6600   27.4410   35.8420 H   0  0  0  0  0  0  0  0  0  0  0  0
   38.1210   28.0010   36.9380 H   0  0  0  0  0  0  0  0  0  0  0  0
  1  4  1  1  0  0  0
  1  2  1  0  0  0  0
  1  3  1  0  0  0  0
  2  5  1  1  0  0  0
  2  3  1  0  0  0  0
  3  7  1  0  0  0  0
  6  3  1  0  0  0  0
  8 13  1  0  0  0  0
  8  1  1  0  0  0  0
  9  8  2  0  0  0  0
 10 11  2  0  0  0  0
 10  9  1  0  0  0  0
 11 12  1  0  0  0  0
 12 16  1  0  0  0  0
 12 13  2  0  0  0  0
 14  9  1  0  0  0  0
 15 10  1  0  0  0  0
 17 18  1  0  0  0  0
 17 16  1  0  0  0  0
 19  2  1  0  0  0  0
 20 19  1  0  0  0  0
 20 22  1  0  0  0  0
 21 20  2  0  0  0  0
 22 24  1  0  0  0  0
 23 22  1  0  0  0  0
M  END
>  <minimizedAffinity>
-4.06075144

$$$$
