
 OpenBabel03272509173D

 24 25  0  0  0  0  0  0  0  0999 V2000
   38.0300   31.4210   47.6270 C   0  0  0  0  0  0  0  0  0  0  0  0
   37.1220   31.3600   48.6490 C   0  0  0  0  0  0  0  0  0  0  0  0
   37.2310   32.4030   49.5840 C   0  0  0  0  0  0  0  0  0  0  0  0
   38.1940   33.4020   49.4520 C   0  0  0  0  0  0  0  0  0  0  0  0
   39.0760   33.3740   48.3700 C   0  0  0  0  0  0  0  0  0  0  0  0
   38.9850   32.3650   47.4500 C   0  0  0  0  0  0  0  0  0  0  0  0
   36.5560   32.4650   50.4530 H   0  0  0  0  0  0  0  0  0  0  0  0
   38.2800   34.2090   50.1720 H   0  0  0  0  0  0  0  0  0  0  0  0
   39.8460   34.1390   48.2330 H   0  0  0  0  0  0  0  0  0  0  0  0
   34.9670   30.3820   48.0100 C   0  0  0  0  0  0  0  0  0  0  0  0
   36.1330   30.3380   48.7950 C   0  0  0  0  0  0  0  0  0  0  0  0
   36.2490   29.2840   49.6880 C   0  0  0  0  0  0  0  0  0  0  0  0
   35.2510   28.3590   49.7630 N   0  0  0  0  0  0  0  0  0  0  0  0
   34.1390   28.4470   48.9780 C   0  0  0  0  0  0  0  0  0  0  0  0
   34.0010   29.4730   48.0940 N   0  0  0  0  0  0  0  0  0  0  0  0
   34.8560   31.2060   47.3000 H   0  0  0  0  0  0  0  0  0  0  0  0
   33.4660   27.6230   49.1850 H   0  0  0  0  0  0  0  0  0  0  0  0
   37.4440   29.1420   50.5450 C   0  0  0  0  0  0  0  0  0  0  0  0
   37.2070   29.7330   51.9380 C   0  0  0  0  0  0  0  0  0  0  0  0
   37.4740   30.8180   51.9430 H   0  0  0  0  0  0  0  0  0  0  0  0
   37.9860   30.4060   46.6380 O   0  0  0  0  0  0  0  0  0  0  0  0
   37.8550   30.7770   45.7050 H   0  0  0  0  0  0  0  0  0  0  0  0
   39.8770   32.3590   46.3820 O   0  0  0  0  0  0  0  0  0  0  0  0
   40.8450   32.6160   46.4910 H   0  0  0  0  0  0  0  0  0  0  0  0
  1  2  1  0  0  0  0
  2 11  1  0  0  0  0
  2  3  2  0  0  0  0
  3  7  1  0  0  0  0
  4  3  1  0  0  0  0
  4  8  1  0  0  0  0
  5  4  2  0  0  0  0
  6  1  2  0  0  0  0
  6  5  1  0  0  0  0
  9  5  1  0  0  0  0
 10 15  2  0  0  0  0
 10 11  1  0  0  0  0
 11 12  2  0  0  0  0
 12 13  1  0  0  0  0
 12 18  1  0  0  0  0
 14 17  1  0  0  0  0
 14 13  2  0  0  0  0
 15 14  1  0  0  0  0
 16 10  1  0  0  0  0
 18 19  1  0  0  0  0
 19 20  1  0  0  0  0
 21  1  1  0  0  0  0
 22 21  1  0  0  0  0
 23 24  1  0  0  0  0
 23  6  1  0  0  0  0
M  END
>  <minimizedAffinity>
-6.00408363

>  <minimizedRMSD>
2.03475094

$$$$
