
 OpenBabel03272510063D

 24 25  0  0  0  0  0  0  0  0999 V2000
   38.9290   33.0290   48.1160 C   0  0  0  0  0  0  0  0  0  0  0  0
   39.2660   32.3910   46.9170 C   0  0  0  0  0  0  0  0  0  0  0  0
   38.6470   31.1580   46.6250 C   0  0  0  0  0  0  0  0  0  0  0  0
   37.7590   30.6510   47.5210 N   0  0  0  0  0  0  0  0  0  0  0  0
   37.4680   31.3060   48.6650 C   0  0  0  0  0  0  0  0  0  0  0  0
   38.0390   32.4730   48.9650 N   0  0  0  0  0  0  0  0  0  0  0  0
   36.5150   30.7050   49.5680 N   0  0  0  0  0  0  0  0  0  0  0  0
   35.1290   30.4290   49.1880 C   0  0  0  0  0  0  0  0  0  0  0  0
   34.5960   29.5830   50.2790 C   0  0  0  0  0  0  0  0  0  0  0  0
   35.7780   29.2130   51.1510 C   0  0  0  0  0  0  0  0  0  0  0  0
   36.7820   30.3040   50.9290 C   0  0  0  0  0  0  0  0  0  0  0  0
   39.4310   33.9690   48.2900 H   0  0  0  0  0  0  0  0  0  0  0  0
   38.8580   30.6090   45.7180 H   0  0  0  0  0  0  0  0  0  0  0  0
   35.0600   29.9480   48.1910 H   0  0  0  0  0  0  0  0  0  0  0  0
   34.5420   31.3770   49.0900 H   0  0  0  0  0  0  0  0  0  0  0  0
   34.1860   28.6300   49.8700 H   0  0  0  0  0  0  0  0  0  0  0  0
   33.7720   30.0510   50.8570 H   0  0  0  0  0  0  0  0  0  0  0  0
   35.4410   29.2570   52.2040 H   0  0  0  0  0  0  0  0  0  0  0  0
   36.1430   28.2010   50.9550 H   0  0  0  0  0  0  0  0  0  0  0  0
   37.7890   29.7990   50.9150 H   0  0  0  0  0  0  0  0  0  0  0  0
   36.7540   31.1150   51.6550 H   0  0  0  0  0  0  0  0  0  0  0  0
   40.2110   32.8690   45.9000 C   0  0  0  0  0  0  0  0  0  0  0  0
   40.9270   31.7320   45.1980 C   0  0  0  0  0  0  0  0  0  0  0  0
   41.0230   30.8560   45.8770 H   0  0  0  0  0  0  0  0  0  0  0  0
  1 12  1  0  0  0  0
  1  6  1  0  0  0  0
  2  1  2  0  0  0  0
  3  2  1  0  0  0  0
  3  4  2  0  0  0  0
  4  5  1  0  0  0  0
  5  6  2  0  0  0  0
  5  7  1  0  0  0  0
  7 11  1  0  0  0  0
  8  7  1  0  0  0  0
  8  9  1  0  0  0  0
  9 17  1  0  0  0  0
  9 10  1  0  0  0  0
 10 18  1  0  0  0  0
 11 10  1  0  0  0  0
 11 21  1  0  0  0  0
 13  3  1  0  0  0  0
 14  8  1  0  0  0  0
 15  8  1  0  0  0  0
 16  9  1  0  0  0  0
 19 10  1  0  0  0  0
 20 11  1  0  0  0  0
 22  2  1  0  0  0  0
 23 24  1  0  0  0  0
 23 22  1  0  0  0  0
M  END
>  <minimizedAffinity>
-5.06637144

>  <minimizedRMSD>
1.69032824

$$$$
