
 OpenBabel03272507373D

 13 13  0  0  0  0  0  0  0  0999 V2000
   38.6730   23.3340   37.8340 C   0  0  0  0  0  0  0  0  0  0  0  0
   39.8000   23.0070   37.0800 C   0  0  0  0  0  0  0  0  0  0  0  0
   40.0090   23.6590   35.8720 C   0  0  0  0  0  0  0  0  0  0  0  0
   39.1010   24.5890   35.4810 N   0  0  0  0  0  0  0  0  0  0  0  0
   38.0110   24.8950   36.2260 C   0  0  0  0  0  0  0  0  0  0  0  0
   37.8150   24.2620   37.3900 N   0  0  0  0  0  0  0  0  0  0  0  0
   40.8620   23.4680   35.2230 H   0  0  0  0  0  0  0  0  0  0  0  0
   37.3060   25.6440   35.8890 H   0  0  0  0  0  0  0  0  0  0  0  0
   38.6080   22.5950   39.0150 O   0  0  0  0  0  0  0  0  0  0  0  0
   37.8270   21.9280   39.0450 H   0  0  0  0  0  0  0  0  0  0  0  0
   40.8120   22.0120   37.4610 C   0  0  0  0  0  2  0  0  0  0  0  0
   42.0900   22.3160   36.7070 C   0  0  0  0  0  2  0  0  0  0  0  0
   42.4260   23.3220   37.0370 H   0  0  0  0  0  0  0  0  0  0  0  0
  1  9  1  0  0  0  0
  2 11  1  0  0  0  0
  2  1  2  0  0  0  0
  3  2  1  0  0  0  0
  4  3  2  0  0  0  0
  4  5  1  0  0  0  0
  5  6  2  0  0  0  0
  6  1  1  0  0  0  0
  7  3  1  0  0  0  0
  8  5  1  0  0  0  0
  9 10  1  0  0  0  0
 12 13  1  0  0  0  0
 12 11  1  0  0  0  0
M  END
>  <minimizedAffinity>
-3.62152505

$$$$

 OpenBabel03272507373D

 13 13  0  0  0  0  0  0  0  0999 V2000
   40.3270   22.1730   36.8390 C   0  0  0  0  0  0  0  0  0  0  0  0
   39.3560   23.1030   37.2070 C   0  0  0  0  0  0  0  0  0  0  0  0
   38.7730   23.8890   36.2210 C   0  0  0  0  0  0  0  0  0  0  0  0
   39.1810   23.7120   34.9380 N   0  0  0  0  0  0  0  0  0  0  0  0
   40.1250   22.8020   34.5970 C   0  0  0  0  0  0  0  0  0  0  0  0
   40.6830   22.0480   35.5540 N   0  0  0  0  0  0  0  0  0  0  0  0
   38.0080   24.6370   36.4190 H   0  0  0  0  0  0  0  0  0  0  0  0
   40.4270   22.6820   33.5640 H   0  0  0  0  0  0  0  0  0  0  0  0
   40.8100   21.4660   37.9390 O   0  0  0  0  0  0  0  0  0  0  0  0
   41.7930   21.6670   38.1630 H   0  0  0  0  0  0  0  0  0  0  0  0
   38.8790   23.3300   38.5790 C   0  0  0  0  0  2  0  0  0  0  0  0
   37.8950   24.4810   38.5600 C   0  0  0  0  0  2  0  0  0  0  0  0
   37.0410   24.1620   37.9260 H   0  0  0  0  0  0  0  0  0  0  0  0
  1  2  1  0  0  0  0
  1  9  1  0  0  0  0
  2 11  1  0  0  0  0
  3  7  1  0  0  0  0
  3  2  2  0  0  0  0
  4  3  1  0  0  0  0
  5  4  2  0  0  0  0
  5  6  1  0  0  0  0
  6  1  2  0  0  0  0
  8  5  1  0  0  0  0
  9 10  1  0  0  0  0
 12 11  1  0  0  0  0
 13 12  1  0  0  0  0
M  END
>  <minimizedAffinity>
-3.50964165

$$$$

 OpenBabel03272507373D

 13 13  0  0  0  0  0  0  0  0999 V2000
   39.6260   22.8000   37.7850 C   0  0  0  0  0  0  0  0  0  0  0  0
   39.1580   23.6720   36.8030 C   0  0  0  0  0  0  0  0  0  0  0  0
   39.8980   23.8260   35.6370 C   0  0  0  0  0  0  0  0  0  0  0  0
   41.0470   23.1150   35.5100 N   0  0  0  0  0  0  0  0  0  0  0  0
   41.4870   22.2700   36.4740 C   0  0  0  0  0  0  0  0  0  0  0  0
   40.7690   22.1280   37.5960 N   0  0  0  0  0  0  0  0  0  0  0  0
   39.6060   24.4820   34.8190 H   0  0  0  0  0  0  0  0  0  0  0  0
   42.4070   21.7150   36.3420 H   0  0  0  0  0  0  0  0  0  0  0  0
   38.7740   22.7570   38.8870 O   0  0  0  0  0  0  0  0  0  0  0  0
   39.1810   23.1540   39.7430 H   0  0  0  0  0  0  0  0  0  0  0  0
   37.9210   24.4600   36.8910 C   0  0  0  0  0  2  0  0  0  0  0  0
   38.1020   25.7290   36.0850 C   0  0  0  0  0  2  0  0  0  0  0  0
   38.2620   25.4190   35.0310 H   0  0  0  0  0  0  0  0  0  0  0  0
  1  9  1  0  0  0  0
  2 11  1  0  0  0  0
  2  1  2  0  0  0  0
  3  2  1  0  0  0  0
  4  3  2  0  0  0  0
  4  5  1  0  0  0  0
  5  6  2  0  0  0  0
  6  1  1  0  0  0  0
  7  3  1  0  0  0  0
  8  5  1  0  0  0  0
  9 10  1  0  0  0  0
 12 11  1  0  0  0  0
 13 12  1  0  0  0  0
M  END
>  <minimizedAffinity>
-3.42133617

$$$$

 OpenBabel03272507373D

 13 13  0  0  0  0  0  0  0  0999 V2000
   39.6130   22.7080   37.7540 C   0  0  0  0  0  0  0  0  0  0  0  0
   39.4600   22.9600   36.3910 C   0  0  0  0  0  0  0  0  0  0  0  0
   38.5260   23.9040   35.9850 C   0  0  0  0  0  0  0  0  0  0  0  0
   37.8010   24.5390   36.9410 N   0  0  0  0  0  0  0  0  0  0  0  0
   37.9630   24.2830   38.2620 C   0  0  0  0  0  0  0  0  0  0  0  0
   38.8660   23.3710   38.6460 N   0  0  0  0  0  0  0  0  0  0  0  0
   38.3430   24.1630   34.9440 H   0  0  0  0  0  0  0  0  0  0  0  0
   37.3720   24.8080   39.0010 H   0  0  0  0  0  0  0  0  0  0  0  0
   40.5870   21.7400   37.9960 O   0  0  0  0  0  0  0  0  0  0  0  0
   40.2140   20.8620   38.3780 H   0  0  0  0  0  0  0  0  0  0  0  0
   40.2210   22.3030   35.3190 C   0  0  0  0  0  2  0  0  0  0  0  0
   39.3090   22.1200   34.1250 C   0  0  0  0  0  2  0  0  0  0  0  0
   39.0120   23.1370   33.7900 H   0  0  0  0  0  0  0  0  0  0  0  0
  1  9  1  0  0  0  0
  1  6  1  0  0  0  0
  2  1  2  0  0  0  0
  3  2  1  0  0  0  0
  3  4  2  0  0  0  0
  4  5  1  0  0  0  0
  5  6  2  0  0  0  0
  5  8  1  0  0  0  0
  7  3  1  0  0  0  0
  9 10  1  0  0  0  0
 11  2  1  0  0  0  0
 12 11  1  0  0  0  0
 13 12  1  0  0  0  0
M  END
>  <minimizedAffinity>
-3.39532638

$$$$

 OpenBabel03272507373D

 13 13  0  0  0  0  0  0  0  0999 V2000
   38.1870   27.5280   35.2300 C   0  0  0  0  0  0  0  0  0  0  0  0
   39.1750   27.0330   34.3790 C   0  0  0  0  0  0  0  0  0  0  0  0
   38.8800   26.8720   33.0320 C   0  0  0  0  0  0  0  0  0  0  0  0
   37.6350   27.2070   32.6060 N   0  0  0  0  0  0  0  0  0  0  0  0
   36.6870   27.6870   33.4460 C   0  0  0  0  0  0  0  0  0  0  0  0
   36.9790   27.8390   34.7440 N   0  0  0  0  0  0  0  0  0  0  0  0
   39.5910   26.4960   32.2990 H   0  0  0  0  0  0  0  0  0  0  0  0
   35.7040   27.9480   33.0750 H   0  0  0  0  0  0  0  0  0  0  0  0
   38.6400   27.6310   36.5450 O   0  0  0  0  0  0  0  0  0  0  0  0
   38.1800   26.9810   37.1940 H   0  0  0  0  0  0  0  0  0  0  0  0
   40.5360   26.6610   34.7910 C   0  0  0  0  0  2  0  0  0  0  0  0
   41.5100   27.1820   33.7550 C   0  0  0  0  0  2  0  0  0  0  0  0
   41.4190   28.2890   33.7580 H   0  0  0  0  0  0  0  0  0  0  0  0
  1  9  1  0  0  0  0
  2 11  1  0  0  0  0
  2  1  2  0  0  0  0
  3  2  1  0  0  0  0
  4  3  2  0  0  0  0
  4  5  1  0  0  0  0
  5  6  2  0  0  0  0
  6  1  1  0  0  0  0
  7  3  1  0  0  0  0
  8  5  1  0  0  0  0
  9 10  1  0  0  0  0
 12 13  1  0  0  0  0
 12 11  1  0  0  0  0
M  END
>  <minimizedAffinity>
-3.27043438

$$$$

 OpenBabel03272507373D

 13 13  0  0  0  0  0  0  0  0999 V2000
   37.9790   24.1320   37.0770 C   0  0  0  0  0  0  0  0  0  0  0  0
   38.1640   25.0910   36.0820 C   0  0  0  0  0  0  0  0  0  0  0  0
   38.2050   24.6800   34.7560 C   0  0  0  0  0  0  0  0  0  0  0  0
   38.0630   23.3560   34.4920 N   0  0  0  0  0  0  0  0  0  0  0  0
   37.8830   22.4370   35.4720 C   0  0  0  0  0  0  0  0  0  0  0  0
   37.8440   22.8410   36.7490 N   0  0  0  0  0  0  0  0  0  0  0  0
   38.3430   25.3600   33.9180 H   0  0  0  0  0  0  0  0  0  0  0  0
   37.7690   21.3880   35.2290 H   0  0  0  0  0  0  0  0  0  0  0  0
   37.9590   24.7040   38.3490 O   0  0  0  0  0  0  0  0  0  0  0  0
   38.7620   24.4420   38.9340 H   0  0  0  0  0  0  0  0  0  0  0  0
   38.3200   26.5340   36.3160 C   0  0  0  0  0  2  0  0  0  0  0  0
   39.2380   27.0960   35.2510 C   0  0  0  0  0  2  0  0  0  0  0  0
   38.7320   26.9370   34.2750 H   0  0  0  0  0  0  0  0  0  0  0  0
  1  9  1  0  0  0  0
  2 11  1  0  0  0  0
  2  1  2  0  0  0  0
  3  2  1  0  0  0  0
  4  3  2  0  0  0  0
  4  5  1  0  0  0  0
  5  6  2  0  0  0  0
  6  1  1  0  0  0  0
  7  3  1  0  0  0  0
  8  5  1  0  0  0  0
  9 10  1  0  0  0  0
 12 11  1  0  0  0  0
 13 12  1  0  0  0  0
M  END
>  <minimizedAffinity>
-3.20606279

$$$$

 OpenBabel03272507373D

 13 13  0  0  0  0  0  0  0  0999 V2000
   39.5950   24.0140   35.7630 C   0  0  0  0  0  0  0  0  0  0  0  0
   38.5070   24.7080   36.2910 C   0  0  0  0  0  0  0  0  0  0  0  0
   38.0710   24.3950   37.5720 C   0  0  0  0  0  0  0  0  0  0  0  0
   38.7300   23.4220   38.2520 N   0  0  0  0  0  0  0  0  0  0  0  0
   39.7870   22.7580   37.7240 C   0  0  0  0  0  0  0  0  0  0  0  0
   40.2010   23.0650   36.4880 N   0  0  0  0  0  0  0  0  0  0  0  0
   37.2330   24.8870   38.0620 H   0  0  0  0  0  0  0  0  0  0  0  0
   40.2940   21.9890   38.2930 H   0  0  0  0  0  0  0  0  0  0  0  0
   39.9080   24.4440   34.4740 O   0  0  0  0  0  0  0  0  0  0  0  0
   39.7350   23.7390   33.7480 H   0  0  0  0  0  0  0  0  0  0  0  0
   37.7640   25.7690   35.5980 C   0  0  0  0  0  2  0  0  0  0  0  0
   38.3240   27.1080   36.0300 C   0  0  0  0  0  2  0  0  0  0  0  0
   39.3850   27.1320   35.7020 H   0  0  0  0  0  0  0  0  0  0  0  0
  1  2  2  0  0  0  0
  1  6  1  0  0  0  0
  2  3  1  0  0  0  0
  3  7  1  0  0  0  0
  3  4  2  0  0  0  0
  5  4  1  0  0  0  0
  5  8  1  0  0  0  0
  6  5  2  0  0  0  0
  9  1  1  0  0  0  0
 10  9  1  0  0  0  0
 11 12  1  0  0  0  0
 11  2  1  0  0  0  0
 13 12  1  0  0  0  0
M  END
>  <minimizedAffinity>
-3.14999962

$$$$

 OpenBabel03272507373D

 13 13  0  0  0  0  0  0  0  0999 V2000
   38.6890   26.4490   36.0030 C   0  0  0  0  0  0  0  0  0  0  0  0
   39.5320   26.1440   34.9350 C   0  0  0  0  0  0  0  0  0  0  0  0
   39.7160   24.8130   34.5850 C   0  0  0  0  0  0  0  0  0  0  0  0
   39.0610   23.8660   35.3050 N   0  0  0  0  0  0  0  0  0  0  0  0
   38.2440   24.1790   36.3400 C   0  0  0  0  0  0  0  0  0  0  0  0
   38.0720   25.4660   36.6720 N   0  0  0  0  0  0  0  0  0  0  0  0
   40.3530   24.4870   33.7650 H   0  0  0  0  0  0  0  0  0  0  0  0
   37.7330   23.4010   36.8930 H   0  0  0  0  0  0  0  0  0  0  0  0
   38.6100   27.8230   36.2260 O   0  0  0  0  0  0  0  0  0  0  0  0
   39.0310   28.1240   37.1140 H   0  0  0  0  0  0  0  0  0  0  0  0
   40.2590   27.1310   34.1240 C   0  0  0  0  0  2  0  0  0  0  0  0
   41.7240   26.7480   34.1030 C   0  0  0  0  0  2  0  0  0  0  0  0
   41.7880   25.7540   33.6110 H   0  0  0  0  0  0  0  0  0  0  0  0
  1  9  1  0  0  0  0
  1  6  1  0  0  0  0
  2  1  2  0  0  0  0
  3  2  1  0  0  0  0
  3  4  2  0  0  0  0
  4  5  1  0  0  0  0
  5  6  2  0  0  0  0
  5  8  1  0  0  0  0
  7  3  1  0  0  0  0
  9 10  1  0  0  0  0
 11  2  1  0  0  0  0
 12 11  1  0  0  0  0
 13 12  1  0  0  0  0
M  END
>  <minimizedAffinity>
-3.08930278

$$$$

 OpenBabel03272507373D

 13 13  0  0  0  0  0  0  0  0999 V2000
   38.5400   26.7390   35.4650 C   0  0  0  0  0  0  0  0  0  0  0  0
   37.5060   26.9730   34.5600 C   0  0  0  0  0  0  0  0  0  0  0  0
   37.2510   26.0280   33.5740 C   0  0  0  0  0  0  0  0  0  0  0  0
   38.0270   24.9140   33.5410 N   0  0  0  0  0  0  0  0  0  0  0  0
   39.0280   24.7020   34.4300 C   0  0  0  0  0  0  0  0  0  0  0  0
   39.2680   25.6190   35.3770 N   0  0  0  0  0  0  0  0  0  0  0  0
   36.4640   26.1290   32.8300 H   0  0  0  0  0  0  0  0  0  0  0  0
   39.6270   23.8010   34.3790 H   0  0  0  0  0  0  0  0  0  0  0  0
   38.6660   27.7770   36.3870 O   0  0  0  0  0  0  0  0  0  0  0  0
   39.5350   28.3160   36.2900 H   0  0  0  0  0  0  0  0  0  0  0  0
   36.6370   28.1590   34.5560 C   0  0  0  0  0  2  0  0  0  0  0  0
   36.2470   28.4640   33.1250 C   0  0  0  0  0  2  0  0  0  0  0  0
   35.6700   27.5880   32.7570 H   0  0  0  0  0  0  0  0  0  0  0  0
  1  9  1  0  0  0  0
  2  1  2  0  0  0  0
  3  2  1  0  0  0  0
  4  3  2  0  0  0  0
  4  5  1  0  0  0  0
  5  6  2  0  0  0  0
  6  1  1  0  0  0  0
  7  3  1  0  0  0  0
  8  5  1  0  0  0  0
 10  9  1  0  0  0  0
 11  2  1  0  0  0  0
 12 11  1  0  0  0  0
 13 12  1  0  0  0  0
M  END
>  <minimizedAffinity>
-3.08191943

$$$$
