
 OpenBabel03272508413D

 36 38  0  0  1  0  0  0  0  0999 V2000
   36.3690   28.0300   32.2960 N   0  0  0  0  0  0  0  0  0  0  0  0
   35.8280   28.6540   33.5010 C   0  0  0  0  0  0  0  0  0  0  0  0
   34.9760   29.8140   33.2540 C   0  0  2  0  0  0  0  0  0  0  0  0
   35.5420   30.7250   32.2210 N   0  0  0  0  0  0  0  0  0  0  0  0
   35.8050   29.9110   31.0190 C   0  0  0  0  0  0  0  0  0  0  0  0
   36.9440   29.0160   31.4500 C   0  0  0  0  0  0  0  0  0  0  0  0
   35.3560   27.8930   34.1200 H   0  0  0  0  0  0  0  0  0  0  0  0
   36.7990   29.0570   33.9530 H   0  0  0  0  0  0  0  0  0  0  0  0
   34.0010   29.6060   32.7810 H   0  0  0  0  0  0  0  0  0  0  0  0
   36.4360   31.1450   32.5460 H   0  0  0  0  0  0  0  0  0  0  0  0
   34.9070   29.3760   30.7140 H   0  0  0  0  0  0  0  0  0  0  0  0
   36.2180   30.6180   30.2700 H   0  0  0  0  0  0  0  0  0  0  0  0
   37.3330   28.5230   30.5310 H   0  0  0  0  0  0  0  0  0  0  0  0
   37.7070   29.6520   31.9520 H   0  0  0  0  0  0  0  0  0  0  0  0
   32.2860   29.5460   34.4970 Cl  0  0  0  0  0  0  0  0  0  0  0  0
   33.5940   30.5140   35.1740 C   0  0  0  0  0  0  0  0  0  0  0  0
   34.7770   30.5640   34.4820 C   0  0  0  0  0  0  0  0  0  0  0  0
   35.9040   31.2820   34.9030 C   0  0  0  0  0  0  0  0  0  0  0  0
   35.7610   31.9810   36.1090 C   0  0  0  0  0  0  0  0  0  0  0  0
   34.5610   31.9410   36.8200 C   0  0  0  0  0  0  0  0  0  0  0  0
   33.4860   31.2040   36.3420 C   0  0  0  0  0  0  0  0  0  0  0  0
   36.9000   31.4790   34.5890 H   0  0  0  0  0  0  0  0  0  0  0  0
   36.4700   32.5980   36.6360 H   0  0  0  0  0  0  0  0  0  0  0  0
   34.3510   32.4430   37.7520 H   0  0  0  0  0  0  0  0  0  0  0  0
   32.1760   31.1090   37.0360 C   0  0  0  0  0  2  0  0  0  0  0  0
   31.2290   32.2300   36.6820 C   0  0  0  0  0  2  0  0  0  0  0  0
   31.0360   32.9250   37.5240 H   0  0  0  0  0  0  0  0  0  0  0  0
   36.3130   26.6320   32.0690 C   0  0  0  0  0  0  0  0  0  0  0  0
   37.2180   25.7480   32.6570 C   0  0  0  0  0  0  0  0  0  0  0  0
   37.0900   24.3920   32.3850 C   0  0  0  0  0  0  0  0  0  0  0  0
   36.0700   23.9850   31.5420 N   0  0  0  0  0  0  0  0  0  0  0  0
   35.2180   24.8880   30.9970 C   0  0  0  0  0  0  0  0  0  0  0  0
   35.3280   26.1810   31.2470 N   0  0  0  0  0  0  0  0  0  0  0  0
   37.9670   26.1900   33.2940 H   0  0  0  0  0  0  0  0  0  0  0  0
   37.7980   23.7460   32.8520 H   0  0  0  0  0  0  0  0  0  0  0  0
   34.4550   24.4700   30.3540 H   0  0  0  0  0  0  0  0  0  0  0  0
  1  2  1  0  0  0  0
  2  8  1  0  0  0  0
  2  7  1  0  0  0  0
  3  9  1  6  0  0  0
  3  2  1  0  0  0  0
  3 17  1  0  0  0  0
  4 10  1  0  0  0  0
  4  3  1  0  0  0  0
  5  6  1  0  0  0  0
  5  4  1  0  0  0  0
  6 14  1  0  0  0  0
  6  1  1  0  0  0  0
 11  5  1  0  0  0  0
 12  5  1  0  0  0  0
 13  6  1  0  0  0  0
 15 16  1  0  0  0  0
 16 21  1  0  0  0  0
 17 18  1  0  0  0  0
 17 16  2  0  0  0  0
 18 19  2  0  0  0  0
 19 23  1  0  0  0  0
 19 20  1  0  0  0  0
 20 24  1  0  0  0  0
 21 20  2  0  0  0  0
 21 25  1  0  0  0  0
 22 18  1  0  0  0  0
 26 25  1  0  0  0  0
 26 27  1  0  0  0  0
 28  1  1  0  0  0  0
 28 29  1  0  0  0  0
 29 34  1  0  0  0  0
 30 29  2  0  0  0  0
 30 35  1  0  0  0  0
 31 30  1  0  0  0  0
 32 33  1  0  0  0  0
 32 31  2  0  0  0  0
 33 28  2  0  0  0  0
 36 32  1  0  0  0  0
M  END
>  <minimizedAffinity>
-5.41845179

$$$$

 OpenBabel03272508413D

 36 38  0  0  1  0  0  0  0  0999 V2000
   36.9360   27.5550   33.5950 N   0  0  0  0  0  0  0  0  0  0  0  0
   36.3520   28.4660   34.5760 C   0  0  0  0  0  0  0  0  0  0  0  0
   35.1110   29.1060   34.1470 C   0  0  2  0  0  0  0  0  0  0  0  0
   35.1770   29.5860   32.7380 N   0  0  0  0  0  0  0  0  0  0  0  0
   35.5740   28.4360   31.9040 C   0  0  0  0  0  0  0  0  0  0  0  0
   37.0040   28.1830   32.3220 C   0  0  0  0  0  0  0  0  0  0  0  0
   36.2680   27.9580   35.5350 H   0  0  0  0  0  0  0  0  0  0  0  0
   37.1540   29.2810   34.5710 H   0  0  0  0  0  0  0  0  0  0  0  0
   34.2310   28.4470   34.0600 H   0  0  0  0  0  0  0  0  0  0  0  0
   35.8870   30.3380   32.6350 H   0  0  0  0  0  0  0  0  0  0  0  0
   34.9050   27.5920   32.0700 H   0  0  0  0  0  0  0  0  0  0  0  0
   35.6070   28.8230   30.8650 H   0  0  0  0  0  0  0  0  0  0  0  0
   37.4340   27.4650   31.5870 H   0  0  0  0  0  0  0  0  0  0  0  0
   37.5360   29.1600   32.3310 H   0  0  0  0  0  0  0  0  0  0  0  0
   32.2610   29.3410   34.9670 Cl  0  0  0  0  0  0  0  0  0  0  0  0
   33.5310   30.4480   35.4840 C   0  0  0  0  0  0  0  0  0  0  0  0
   34.8000   30.2320   35.0100 C   0  0  0  0  0  0  0  0  0  0  0  0
   35.9080   31.0220   35.3440 C   0  0  0  0  0  0  0  0  0  0  0  0
   35.6510   32.0900   36.2130 C   0  0  0  0  0  0  0  0  0  0  0  0
   34.3640   32.3220   36.6990 C   0  0  0  0  0  0  0  0  0  0  0  0
   33.3140   31.4940   36.3270 C   0  0  0  0  0  0  0  0  0  0  0  0
   36.9510   31.0760   35.1440 H   0  0  0  0  0  0  0  0  0  0  0  0
   36.3250   32.8310   36.6120 H   0  0  0  0  0  0  0  0  0  0  0  0
   34.0650   33.1150   37.3670 H   0  0  0  0  0  0  0  0  0  0  0  0
   31.9160   31.6720   36.7970 C   0  0  0  0  0  2  0  0  0  0  0  0
   31.4700   33.1140   36.8160 C   0  0  0  0  0  2  0  0  0  0  0  0
   31.3130   33.5130   37.8380 H   0  0  0  0  0  0  0  0  0  0  0  0
   37.3680   26.2460   33.9300 C   0  0  0  0  0  0  0  0  0  0  0  0
   37.7350   25.8970   35.2300 C   0  0  0  0  0  0  0  0  0  0  0  0
   38.1420   24.5920   35.4750 C   0  0  0  0  0  0  0  0  0  0  0  0
   38.1650   23.7020   34.4140 N   0  0  0  0  0  0  0  0  0  0  0  0
   37.7970   24.0960   33.1690 C   0  0  0  0  0  0  0  0  0  0  0  0
   37.4070   25.3340   32.9230 N   0  0  0  0  0  0  0  0  0  0  0  0
   37.6750   26.6810   35.9670 H   0  0  0  0  0  0  0  0  0  0  0  0
   38.4150   24.3610   36.4790 H   0  0  0  0  0  0  0  0  0  0  0  0
   37.8470   23.3260   32.4110 H   0  0  0  0  0  0  0  0  0  0  0  0
  1 28  1  0  0  0  0
  1  2  1  0  0  0  0
  2  7  1  0  0  0  0
  3  9  1  1  0  0  0
  3  2  1  0  0  0  0
  3 17  1  0  0  0  0
  4  3  1  0  0  0  0
  5 11  1  0  0  0  0
  5  6  1  0  0  0  0
  5  4  1  0  0  0  0
  6 14  1  0  0  0  0
  6  1  1  0  0  0  0
  8  2  1  0  0  0  0
 10  4  1  0  0  0  0
 12  5  1  0  0  0  0
 13  6  1  0  0  0  0
 15 16  1  0  0  0  0
 16 21  1  0  0  0  0
 17 18  1  0  0  0  0
 17 16  2  0  0  0  0
 18 19  2  0  0  0  0
 19 23  1  0  0  0  0
 19 20  1  0  0  0  0
 20 24  1  0  0  0  0
 21 20  2  0  0  0  0
 21 25  1  0  0  0  0
 22 18  1  0  0  0  0
 25 26  1  0  0  0  0
 26 27  1  0  0  0  0
 28 29  1  0  0  0  0
 29 30  2  0  0  0  0
 29 34  1  0  0  0  0
 30 35  1  0  0  0  0
 31 30  1  0  0  0  0
 32 31  2  0  0  0  0
 33 32  1  0  0  0  0
 33 28  2  0  0  0  0
 36 32  1  0  0  0  0
M  END
>  <minimizedAffinity>
-5.27504396

$$$$

 OpenBabel03272508413D

 36 38  0  0  1  0  0  0  0  0999 V2000
   40.4910   22.8010   36.4250 N   0  0  0  0  0  0  0  0  0  0  0  0
   39.5440   22.3200   35.4220 C   0  0  0  0  0  0  0  0  0  0  0  0
   38.1780   22.8110   35.5920 C   0  0  2  0  0  0  0  0  0  0  0  0
   37.7330   22.7710   37.0120 N   0  0  0  0  0  0  0  0  0  0  0  0
   38.7340   23.5090   37.8050 C   0  0  0  0  0  0  0  0  0  0  0  0
   39.9560   22.6220   37.7300 C   0  0  0  0  0  0  0  0  0  0  0  0
   39.9490   22.5010   34.4290 H   0  0  0  0  0  0  0  0  0  0  0  0
   39.5250   21.2110   35.7020 H   0  0  0  0  0  0  0  0  0  0  0  0
   38.0230   23.8860   35.3950 H   0  0  0  0  0  0  0  0  0  0  0  0
   37.6830   21.7920   37.3580 H   0  0  0  0  0  0  0  0  0  0  0  0
   38.8830   24.5090   37.3990 H   0  0  0  0  0  0  0  0  0  0  0  0
   38.3700   23.4670   38.8520 H   0  0  0  0  0  0  0  0  0  0  0  0
   40.6840   23.0110   38.4760 H   0  0  0  0  0  0  0  0  0  0  0  0
   39.6350   21.5790   37.9460 H   0  0  0  0  0  0  0  0  0  0  0  0
   38.3460   23.2480   32.6540 Cl  0  0  0  0  0  0  0  0  0  0  0  0
   37.2410   22.1090   33.4200 C   0  0  0  0  0  0  0  0  0  0  0  0
   37.2570   22.0260   34.7890 C   0  0  0  0  0  0  0  0  0  0  0  0
   36.4450   21.1590   35.5330 C   0  0  0  0  0  0  0  0  0  0  0  0
   35.5760   20.3530   34.7860 C   0  0  0  0  0  0  0  0  0  0  0  0
   35.5490   20.4320   33.3930 C   0  0  0  0  0  0  0  0  0  0  0  0
   36.3860   21.3130   32.7230 C   0  0  0  0  0  0  0  0  0  0  0  0
   36.2640   20.8910   36.5450 H   0  0  0  0  0  0  0  0  0  0  0  0
   34.8610   19.6180   35.1180 H   0  0  0  0  0  0  0  0  0  0  0  0
   34.9170   19.8580   32.7310 H   0  0  0  0  0  0  0  0  0  0  0  0
   36.4190   21.4580   31.2450 C   0  0  0  0  0  2  0  0  0  0  0  0
   36.2850   20.1450   30.5130 C   0  0  0  0  0  2  0  0  0  0  0  0
   37.2100   19.8420   29.9810 H   0  0  0  0  0  0  0  0  0  0  0  0
   41.7550   23.3430   36.0840 C   0  0  0  0  0  0  0  0  0  0  0  0
   42.9490   22.7860   36.5430 C   0  0  0  0  0  0  0  0  0  0  0  0
   44.1460   23.3770   36.1580 C   0  0  0  0  0  0  0  0  0  0  0  0
   44.0940   24.4910   35.3380 N   0  0  0  0  0  0  0  0  0  0  0  0
   42.9040   24.9910   34.9210 C   0  0  0  0  0  0  0  0  0  0  0  0
   41.7580   24.4390   35.2790 N   0  0  0  0  0  0  0  0  0  0  0  0
   42.8560   21.9190   37.1770 H   0  0  0  0  0  0  0  0  0  0  0  0
   45.0380   22.9250   36.5270 H   0  0  0  0  0  0  0  0  0  0  0  0
   42.9700   25.8610   34.2820 H   0  0  0  0  0  0  0  0  0  0  0  0
  1  6  1  0  0  0  0
  2  3  1  0  0  0  0
  2  8  1  0  0  0  0
  2  1  1  0  0  0  0
  3  9  1  6  0  0  0
  3  4  1  0  0  0  0
  4 10  1  0  0  0  0
  4  5  1  0  0  0  0
  5 12  1  0  0  0  0
  6  5  1  0  0  0  0
  6 14  1  0  0  0  0
  6 13  1  0  0  0  0
  7  2  1  0  0  0  0
 11  5  1  0  0  0  0
 15 16  1  0  0  0  0
 16 17  1  0  0  0  0
 17 18  2  0  0  0  0
 17  3  1  0  0  0  0
 18 22  1  0  0  0  0
 19 23  1  0  0  0  0
 19 18  1  0  0  0  0
 20 19  2  0  0  0  0
 21 20  1  0  0  0  0
 21 16  2  0  0  0  0
 24 20  1  0  0  0  0
 25 21  1  0  0  0  0
 26 25  1  0  0  0  0
 27 26  1  0  0  0  0
 28  1  1  0  0  0  0
 28 29  1  0  0  0  0
 29 34  1  0  0  0  0
 30 35  1  0  0  0  0
 30 29  2  0  0  0  0
 31 30  1  0  0  0  0
 32 33  1  0  0  0  0
 32 31  2  0  0  0  0
 33 28  2  0  0  0  0
 36 32  1  0  0  0  0
M  END
>  <minimizedAffinity>
-5.19382858

$$$$

 OpenBabel03272508413D

 36 38  0  0  1  0  0  0  0  0999 V2000
   36.8500   26.5310   33.2720 N   0  0  0  0  0  0  0  0  0  0  0  0
   37.4690   25.9730   34.4710 C   0  0  0  0  0  0  0  0  0  0  0  0
   38.6650   25.1720   34.2200 C   0  0  2  0  0  0  0  0  0  0  0  0
   38.5010   24.2550   33.0580 N   0  0  0  0  0  0  0  0  0  0  0  0
   38.0820   25.0780   31.9080 C   0  0  0  0  0  0  0  0  0  0  0  0
   36.6870   25.5190   32.2870 C   0  0  0  0  0  0  0  0  0  0  0  0
   37.6250   26.7660   35.1990 H   0  0  0  0  0  0  0  0  0  0  0  0
   36.6480   25.2380   34.7790 H   0  0  0  0  0  0  0  0  0  0  0  0
   39.5550   25.7250   33.8740 H   0  0  0  0  0  0  0  0  0  0  0  0
   37.7670   23.5430   33.2470 H   0  0  0  0  0  0  0  0  0  0  0  0
   38.7820   25.8980   31.7490 H   0  0  0  0  0  0  0  0  0  0  0  0
   37.9760   24.3690   31.0610 H   0  0  0  0  0  0  0  0  0  0  0  0
   36.2310   25.9690   31.3770 H   0  0  0  0  0  0  0  0  0  0  0  0
   36.1330   24.6250   32.6480 H   0  0  0  0  0  0  0  0  0  0  0  0
   41.4390   24.1010   34.2940 Cl  0  0  0  0  0  0  0  0  0  0  0  0
   40.2510   23.8500   35.5700 C   0  0  0  0  0  0  0  0  0  0  0  0
   39.0000   24.3850   35.3930 C   0  0  0  0  0  0  0  0  0  0  0  0
   37.9600   24.2760   36.3260 C   0  0  0  0  0  0  0  0  0  0  0  0
   38.2650   23.5610   37.4920 C   0  0  0  0  0  0  0  0  0  0  0  0
   39.5330   23.0090   37.6810 C   0  0  0  0  0  0  0  0  0  0  0  0
   40.5150   23.1610   36.7130 C   0  0  0  0  0  0  0  0  0  0  0  0
   36.9500   24.5820   36.4490 H   0  0  0  0  0  0  0  0  0  0  0  0
   37.6450   23.3400   38.3460 H   0  0  0  0  0  0  0  0  0  0  0  0
   39.8630   22.4430   38.5390 H   0  0  0  0  0  0  0  0  0  0  0  0
   41.8880   22.6060   36.8370 C   0  0  0  0  0  2  0  0  0  0  0  0
   41.9090   21.1340   37.1690 C   0  0  0  0  0  2  0  0  0  0  0  0
   42.2930   20.9180   38.1870 H   0  0  0  0  0  0  0  0  0  0  0  0
   36.4720   27.8940   33.1710 C   0  0  0  0  0  0  0  0  0  0  0  0
   36.0300   28.6240   34.2740 C   0  0  0  0  0  0  0  0  0  0  0  0
   35.6830   29.9560   34.0900 C   0  0  0  0  0  0  0  0  0  0  0  0
   35.7930   30.4940   32.8190 N   0  0  0  0  0  0  0  0  0  0  0  0
   36.2290   29.7370   31.7810 C   0  0  0  0  0  0  0  0  0  0  0  0
   36.5630   28.4690   31.9420 N   0  0  0  0  0  0  0  0  0  0  0  0
   35.9870   28.0910   35.2100 H   0  0  0  0  0  0  0  0  0  0  0  0
   35.3490   30.4830   34.9550 H   0  0  0  0  0  0  0  0  0  0  0  0
   36.2820   30.2490   30.8300 H   0  0  0  0  0  0  0  0  0  0  0  0
  1  2  1  0  0  0  0
  2  8  1  0  0  0  0
  2  7  1  0  0  0  0
  3  9  1  6  0  0  0
  3  2  1  0  0  0  0
  3 17  1  0  0  0  0
  4 10  1  0  0  0  0
  4  3  1  0  0  0  0
  5  6  1  0  0  0  0
  5  4  1  0  0  0  0
  6 14  1  0  0  0  0
  6  1  1  0  0  0  0
 11  5  1  0  0  0  0
 12  5  1  0  0  0  0
 13  6  1  0  0  0  0
 15 16  1  0  0  0  0
 16 21  1  0  0  0  0
 17 16  2  0  0  0  0
 17 18  1  0  0  0  0
 18 22  1  0  0  0  0
 18 19  2  0  0  0  0
 19 20  1  0  0  0  0
 19 23  1  0  0  0  0
 20 24  1  0  0  0  0
 21 25  1  0  0  0  0
 21 20  2  0  0  0  0
 25 26  1  0  0  0  0
 26 27  1  0  0  0  0
 28  1  1  0  0  0  0
 28 29  1  0  0  0  0
 29 34  1  0  0  0  0
 30 29  2  0  0  0  0
 30 35  1  0  0  0  0
 31 30  1  0  0  0  0
 32 33  1  0  0  0  0
 32 31  2  0  0  0  0
 33 28  2  0  0  0  0
 36 32  1  0  0  0  0
M  END
>  <minimizedAffinity>
-5.13702631

$$$$

 OpenBabel03272508413D

 36 38  0  0  1  0  0  0  0  0999 V2000
   35.9730   29.2920   31.7020 N   0  0  0  0  0  0  0  0  0  0  0  0
   35.4800   30.2250   32.7120 C   0  0  0  0  0  0  0  0  0  0  0  0
   35.9310   29.9420   34.0720 C   0  0  2  0  0  0  0  0  0  0  0  0
   35.8590   28.4920   34.4030 N   0  0  0  0  0  0  0  0  0  0  0  0
   36.6130   27.7680   33.3620 C   0  0  0  0  0  0  0  0  0  0  0  0
   35.7620   27.9520   32.1270 C   0  0  0  0  0  0  0  0  0  0  0  0
   35.6850   31.2450   32.3910 H   0  0  0  0  0  0  0  0  0  0  0  0
   34.3670   29.9620   32.6800 H   0  0  0  0  0  0  0  0  0  0  0  0
   37.0040   30.1080   34.2710 H   0  0  0  0  0  0  0  0  0  0  0  0
   34.8750   28.1580   34.3990 H   0  0  0  0  0  0  0  0  0  0  0  0
   37.6230   28.1680   33.2720 H   0  0  0  0  0  0  0  0  0  0  0  0
   36.5470   26.6960   33.6410 H   0  0  0  0  0  0  0  0  0  0  0  0
   36.1600   27.2600   31.3530 H   0  0  0  0  0  0  0  0  0  0  0  0
   34.7070   27.7290   32.4030 H   0  0  0  0  0  0  0  0  0  0  0  0
   33.0140   29.3590   34.0300 Cl  0  0  0  0  0  0  0  0  0  0  0  0
   33.7770   30.4960   35.1400 C   0  0  0  0  0  0  0  0  0  0  0  0
   35.1320   30.6820   35.0330 C   0  0  0  0  0  0  0  0  0  0  0  0
   35.8740   31.5430   35.8520 C   0  0  0  0  0  0  0  0  0  0  0  0
   35.1390   32.2390   36.8210 C   0  0  0  0  0  0  0  0  0  0  0  0
   33.7600   32.0600   36.9370 C   0  0  0  0  0  0  0  0  0  0  0  0
   33.0920   31.1860   36.0910 C   0  0  0  0  0  0  0  0  0  0  0  0
   36.8790   31.8590   35.9920 H   0  0  0  0  0  0  0  0  0  0  0  0
   35.4720   32.9500   37.5600 H   0  0  0  0  0  0  0  0  0  0  0  0
   33.1080   32.5490   37.6460 H   0  0  0  0  0  0  0  0  0  0  0  0
   31.6280   30.9390   36.1480 C   0  0  0  0  0  2  0  0  0  0  0  0
   30.8310   32.1600   36.5360 C   0  0  0  0  0  2  0  0  0  0  0  0
   30.3560   32.0770   37.5350 H   0  0  0  0  0  0  0  0  0  0  0  0
   36.5550   29.7230   30.4830 C   0  0  0  0  0  0  0  0  0  0  0  0
   36.5490   31.0620   30.0910 C   0  0  0  0  0  0  0  0  0  0  0  0
   37.1460   31.4010   28.8830 C   0  0  0  0  0  0  0  0  0  0  0  0
   37.7160   30.3910   28.1270 N   0  0  0  0  0  0  0  0  0  0  0  0
   37.6930   29.1040   28.5570 C   0  0  0  0  0  0  0  0  0  0  0  0
   37.1290   28.7680   29.7030 N   0  0  0  0  0  0  0  0  0  0  0  0
   36.0720   31.7520   30.7680 H   0  0  0  0  0  0  0  0  0  0  0  0
   37.1220   32.4320   28.6160 H   0  0  0  0  0  0  0  0  0  0  0  0
   38.1660   28.3910   27.8960 H   0  0  0  0  0  0  0  0  0  0  0  0
  1  6  1  0  0  0  0
  1  2  1  0  0  0  0
  2  3  1  0  0  0  0
  3  9  1  1  0  0  0
  3  4  1  0  0  0  0
  3 17  1  0  0  0  0
  5 12  1  0  0  0  0
  5  4  1  0  0  0  0
  6 14  1  0  0  0  0
  6  5  1  0  0  0  0
  7  2  1  0  0  0  0
  8  2  1  0  0  0  0
 10  4  1  0  0  0  0
 11  5  1  0  0  0  0
 13  6  1  0  0  0  0
 15 16  1  0  0  0  0
 16 21  1  0  0  0  0
 17 16  2  0  0  0  0
 17 18  1  0  0  0  0
 18 22  1  0  0  0  0
 18 19  2  0  0  0  0
 19 20  1  0  0  0  0
 19 23  1  0  0  0  0
 20 24  1  0  0  0  0
 21 25  1  0  0  0  0
 21 20  2  0  0  0  0
 25 26  1  0  0  0  0
 26 27  1  0  0  0  0
 28  1  1  0  0  0  0
 29 28  1  0  0  0  0
 29 34  1  0  0  0  0
 30 29  2  0  0  0  0
 31 32  2  0  0  0  0
 31 30  1  0  0  0  0
 32 33  1  0  0  0  0
 33 28  2  0  0  0  0
 35 30  1  0  0  0  0
 36 32  1  0  0  0  0
M  END
>  <minimizedAffinity>
-5.1354785

$$$$

 OpenBabel03272508413D

 36 38  0  0  1  0  0  0  0  0999 V2000
   37.4260   24.8990   32.4390 N   0  0  0  0  0  0  0  0  0  0  0  0
   37.4200   26.3490   32.2630 C   0  0  0  0  0  0  0  0  0  0  0  0
   36.1820   26.8870   31.7040 C   0  0  2  0  0  0  0  0  0  0  0  0
   35.6670   26.0690   30.5720 N   0  0  0  0  0  0  0  0  0  0  0  0
   35.5480   24.6800   31.0550 C   0  0  0  0  0  0  0  0  0  0  0  0
   36.9860   24.2580   31.2490 C   0  0  0  0  0  0  0  0  0  0  0  0
   37.7190   26.8260   33.1930 H   0  0  0  0  0  0  0  0  0  0  0  0
   38.2100   26.4380   31.4400 H   0  0  0  0  0  0  0  0  0  0  0  0
   35.2960   26.8450   32.3610 H   0  0  0  0  0  0  0  0  0  0  0  0
   36.3250   26.0900   29.7680 H   0  0  0  0  0  0  0  0  0  0  0  0
   34.9450   24.6400   31.9610 H   0  0  0  0  0  0  0  0  0  0  0  0
   35.1570   24.1010   30.1940 H   0  0  0  0  0  0  0  0  0  0  0  0
   36.9810   23.1570   31.4120 H   0  0  0  0  0  0  0  0  0  0  0  0
   37.5550   24.5560   30.3410 H   0  0  0  0  0  0  0  0  0  0  0  0
   35.3710   29.0220   33.6110 Cl  0  0  0  0  0  0  0  0  0  0  0  0
   36.0810   29.3300   32.0280 C   0  0  0  0  0  0  0  0  0  0  0  0
   36.3880   28.2490   31.2430 C   0  0  0  0  0  0  0  0  0  0  0  0
   36.9650   28.3410   29.9690 C   0  0  0  0  0  0  0  0  0  0  0  0
   37.2190   29.6410   29.5120 C   0  0  0  0  0  0  0  0  0  0  0  0
   36.9080   30.7490   30.3010 C   0  0  0  0  0  0  0  0  0  0  0  0
   36.3400   30.5800   31.5560 C   0  0  0  0  0  0  0  0  0  0  0  0
   37.3000   27.7050   29.1860 H   0  0  0  0  0  0  0  0  0  0  0  0
   37.6500   29.9720   28.5810 H   0  0  0  0  0  0  0  0  0  0  0  0
   37.0620   31.7850   30.0390 H   0  0  0  0  0  0  0  0  0  0  0  0
   35.9790   31.7050   32.4570 C   0  0  0  0  0  2  0  0  0  0  0  0
   36.7970   32.9500   32.2150 C   0  0  0  0  0  2  0  0  0  0  0  0
   37.4880   33.1910   33.0490 H   0  0  0  0  0  0  0  0  0  0  0  0
   37.8380   24.2780   33.6450 C   0  0  0  0  0  0  0  0  0  0  0  0
   38.2060   25.0150   34.7710 C   0  0  0  0  0  0  0  0  0  0  0  0
   38.5930   24.3290   35.9150 C   0  0  0  0  0  0  0  0  0  0  0  0
   38.5960   22.9450   35.8800 N   0  0  0  0  0  0  0  0  0  0  0  0
   38.2280   22.2780   34.7580 C   0  0  0  0  0  0  0  0  0  0  0  0
   37.8580   22.9180   33.6630 N   0  0  0  0  0  0  0  0  0  0  0  0
   38.1620   26.0880   34.6710 H   0  0  0  0  0  0  0  0  0  0  0  0
   38.8670   24.9250   36.7550 H   0  0  0  0  0  0  0  0  0  0  0  0
   38.2620   21.1990   34.8330 H   0  0  0  0  0  0  0  0  0  0  0  0
  1 28  1  0  0  0  0
  2  1  1  0  0  0  0
  2  7  1  0  0  0  0
  3  2  1  0  0  0  0
  3  9  1  1  0  0  0
  4  5  1  0  0  0  0
  4  3  1  0  0  0  0
  5  6  1  0  0  0  0
  5 11  1  0  0  0  0
  6 13  1  0  0  0  0
  6  1  1  0  0  0  0
  8  2  1  0  0  0  0
 10  4  1  0  0  0  0
 12  5  1  0  0  0  0
 14  6  1  0  0  0  0
 16 15  1  0  0  0  0
 17  3  1  0  0  0  0
 17 16  2  0  0  0  0
 18 17  1  0  0  0  0
 19 18  2  0  0  0  0
 19 20  1  0  0  0  0
 20 21  2  0  0  0  0
 21 16  1  0  0  0  0
 21 25  1  0  0  0  0
 22 18  1  0  0  0  0
 23 19  1  0  0  0  0
 24 20  1  0  0  0  0
 26 25  1  0  0  0  0
 26 27  1  0  0  0  0
 28 33  2  0  0  0  0
 28 29  1  0  0  0  0
 29 30  2  0  0  0  0
 30 35  1  0  0  0  0
 31 30  1  0  0  0  0
 32 36  1  0  0  0  0
 32 31  2  0  0  0  0
 33 32  1  0  0  0  0
 34 29  1  0  0  0  0
M  END
>  <minimizedAffinity>
-5.12244749

$$$$

 OpenBabel03272508413D

 36 38  0  0  1  0  0  0  0  0999 V2000
   36.9440   27.5970   31.7580 N   0  0  0  0  0  0  0  0  0  0  0  0
   36.9490   26.6850   32.8990 C   0  0  0  0  0  0  0  0  0  0  0  0
   38.2780   26.3680   33.4170 C   0  0  2  0  0  0  0  0  0  0  0  0
   39.2600   26.0940   32.3310 N   0  0  0  0  0  0  0  0  0  0  0  0
   39.2360   27.2520   31.4180 C   0  0  0  0  0  0  0  0  0  0  0  0
   37.8720   27.1580   30.7750 C   0  0  0  0  0  0  0  0  0  0  0  0
   36.2650   27.0550   33.6600 H   0  0  0  0  0  0  0  0  0  0  0  0
   36.5710   25.7380   32.3810 H   0  0  0  0  0  0  0  0  0  0  0  0
   38.8100   27.1920   33.9220 H   0  0  0  0  0  0  0  0  0  0  0  0
   38.9970   25.2410   31.7990 H   0  0  0  0  0  0  0  0  0  0  0  0
   39.4080   28.1770   31.9690 H   0  0  0  0  0  0  0  0  0  0  0  0
   39.9810   27.0210   30.6290 H   0  0  0  0  0  0  0  0  0  0  0  0
   37.8650   27.8760   29.9250 H   0  0  0  0  0  0  0  0  0  0  0  0
   37.7200   26.1050   30.4500 H   0  0  0  0  0  0  0  0  0  0  0  0
   38.2890   26.9690   36.3300 Cl  0  0  0  0  0  0  0  0  0  0  0  0
   38.1890   25.3430   35.6590 C   0  0  0  0  0  0  0  0  0  0  0  0
   38.2150   25.2120   34.2940 C   0  0  0  0  0  0  0  0  0  0  0  0
   38.1320   23.9860   33.6210 C   0  0  0  0  0  0  0  0  0  0  0  0
   38.0240   22.8530   34.4380 C   0  0  0  0  0  0  0  0  0  0  0  0
   37.9990   22.9730   35.8280 C   0  0  0  0  0  0  0  0  0  0  0  0
   38.0820   24.2230   36.4250 C   0  0  0  0  0  0  0  0  0  0  0  0
   38.1190   23.6090   32.6270 H   0  0  0  0  0  0  0  0  0  0  0  0
   37.9480   21.8120   34.1660 H   0  0  0  0  0  0  0  0  0  0  0  0
   37.9210   22.1650   36.5390 H   0  0  0  0  0  0  0  0  0  0  0  0
   38.0640   24.4390   37.8950 C   0  0  0  0  0  2  0  0  0  0  0  0
   38.7800   23.3570   38.6660 C   0  0  0  0  0  2  0  0  0  0  0  0
   38.1000   22.7270   39.2750 H   0  0  0  0  0  0  0  0  0  0  0  0
   36.0980   28.7330   31.6920 C   0  0  0  0  0  0  0  0  0  0  0  0
   36.3900   29.8280   30.8780 C   0  0  0  0  0  0  0  0  0  0  0  0
   35.5060   30.8990   30.8680 C   0  0  0  0  0  0  0  0  0  0  0  0
   34.3780   30.8270   31.6680 N   0  0  0  0  0  0  0  0  0  0  0  0
   34.1440   29.7370   32.4410 C   0  0  0  0  0  0  0  0  0  0  0  0
   34.9760   28.7110   32.4600 N   0  0  0  0  0  0  0  0  0  0  0  0
   37.2990   29.7630   30.3030 H   0  0  0  0  0  0  0  0  0  0  0  0
   35.7610   31.7170   30.2350 H   0  0  0  0  0  0  0  0  0  0  0  0
   33.2360   29.7770   33.0270 H   0  0  0  0  0  0  0  0  0  0  0  0
  1  2  1  0  0  0  0
  2  3  1  0  0  0  0
  2  7  1  0  0  0  0
  3  9  1  1  0  0  0
  3 17  1  0  0  0  0
  4  3  1  0  0  0  0
  5 11  1  0  0  0  0
  5  4  1  0  0  0  0
  6  5  1  0  0  0  0
  6  1  1  0  0  0  0
  8  2  1  0  0  0  0
 10  4  1  0  0  0  0
 12  5  1  0  0  0  0
 13  6  1  0  0  0  0
 14  6  1  0  0  0  0
 16 15  1  0  0  0  0
 16 21  1  0  0  0  0
 17 16  2  0  0  0  0
 18 17  1  0  0  0  0
 18 19  2  0  0  0  0
 19 20  1  0  0  0  0
 20 21  2  0  0  0  0
 20 24  1  0  0  0  0
 21 25  1  0  0  0  0
 22 18  1  0  0  0  0
 23 19  1  0  0  0  0
 25 26  1  0  0  0  0
 26 27  1  0  0  0  0
 28  1  1  0  0  0  0
 28 33  1  0  0  0  0
 29 28  2  0  0  0  0
 30 29  1  0  0  0  0
 30 31  2  0  0  0  0
 31 32  1  0  0  0  0
 32 33  2  0  0  0  0
 32 36  1  0  0  0  0
 34 29  1  0  0  0  0
 35 30  1  0  0  0  0
M  END
>  <minimizedAffinity>
-5.10185194

$$$$

 OpenBabel03272508413D

 36 38  0  0  1  0  0  0  0  0999 V2000
   36.1760   28.7540   32.5860 N   0  0  0  0  0  0  0  0  0  0  0  0
   35.4670   29.0170   33.8360 C   0  0  0  0  0  0  0  0  0  0  0  0
   34.1910   29.7100   33.6770 C   0  0  2  0  0  0  0  0  0  0  0  0
   34.2720   30.8310   32.7000 N   0  0  0  0  0  0  0  0  0  0  0  0
   34.8120   30.2780   31.4430 C   0  0  0  0  0  0  0  0  0  0  0  0
   36.2400   29.9370   31.8000 C   0  0  0  0  0  0  0  0  0  0  0  0
   35.3900   28.0940   34.4080 H   0  0  0  0  0  0  0  0  0  0  0  0
   36.1880   29.7720   34.3020 H   0  0  0  0  0  0  0  0  0  0  0  0
   33.3810   29.1300   33.2020 H   0  0  0  0  0  0  0  0  0  0  0  0
   34.9120   31.5760   33.0420 H   0  0  0  0  0  0  0  0  0  0  0  0
   34.2180   29.4260   31.1140 H   0  0  0  0  0  0  0  0  0  0  0  0
   34.8520   31.1340   30.7390 H   0  0  0  0  0  0  0  0  0  0  0  0
   36.7660   29.7100   30.8470 H   0  0  0  0  0  0  0  0  0  0  0  0
   36.6760   30.8090   32.3360 H   0  0  0  0  0  0  0  0  0  0  0  0
   35.7920   31.9620   34.7790 Cl  0  0  0  0  0  0  0  0  0  0  0  0
   34.3680   31.2850   35.5660 C   0  0  0  0  0  0  0  0  0  0  0  0
   33.7380   30.2320   34.9540 C   0  0  0  0  0  0  0  0  0  0  0  0
   32.5920   29.6020   35.4560 C   0  0  0  0  0  0  0  0  0  0  0  0
   32.1020   30.1120   36.6660 C   0  0  0  0  0  0  0  0  0  0  0  0
   32.7360   31.1810   37.3000 C   0  0  0  0  0  0  0  0  0  0  0  0
   33.8680   31.7580   36.7400 C   0  0  0  0  0  0  0  0  0  0  0  0
   31.9250   28.8150   35.2010 H   0  0  0  0  0  0  0  0  0  0  0  0
   31.2480   29.8050   37.2480 H   0  0  0  0  0  0  0  0  0  0  0  0
   32.4390   31.6420   38.2300 H   0  0  0  0  0  0  0  0  0  0  0  0
   34.6020   32.8970   37.3500 C   0  0  0  0  0  2  0  0  0  0  0  0
   33.7050   34.0480   37.7340 C   0  0  0  0  0  2  0  0  0  0  0  0
   33.8640   34.9550   37.1160 H   0  0  0  0  0  0  0  0  0  0  0  0
   36.7140   27.4820   32.2660 C   0  0  0  0  0  0  0  0  0  0  0  0
   38.0050   27.1080   32.6410 C   0  0  0  0  0  0  0  0  0  0  0  0
   38.4550   25.8410   32.2920 C   0  0  0  0  0  0  0  0  0  0  0  0
   37.5990   25.0120   31.5870 N   0  0  0  0  0  0  0  0  0  0  0  0
   36.3530   25.4270   31.2480 C   0  0  0  0  0  0  0  0  0  0  0  0
   35.9120   26.6300   31.5740 N   0  0  0  0  0  0  0  0  0  0  0  0
   38.5730   27.8440   33.1860 H   0  0  0  0  0  0  0  0  0  0  0  0
   39.4450   25.5900   32.5940 H   0  0  0  0  0  0  0  0  0  0  0  0
   35.7610   24.7060   30.7010 H   0  0  0  0  0  0  0  0  0  0  0  0
  1  2  1  0  0  0  0
  2  8  1  0  0  0  0
  2  7  1  0  0  0  0
  3  9  1  6  0  0  0
  3  2  1  0  0  0  0
  3 17  1  0  0  0  0
  4 10  1  0  0  0  0
  4  3  1  0  0  0  0
  5  6  1  0  0  0  0
  5  4  1  0  0  0  0
  6 14  1  0  0  0  0
  6  1  1  0  0  0  0
 11  5  1  0  0  0  0
 12  5  1  0  0  0  0
 13  6  1  0  0  0  0
 15 16  1  0  0  0  0
 16 21  1  0  0  0  0
 17 18  1  0  0  0  0
 17 16  2  0  0  0  0
 18 19  2  0  0  0  0
 19 23  1  0  0  0  0
 19 20  1  0  0  0  0
 20 24  1  0  0  0  0
 21 20  2  0  0  0  0
 21 25  1  0  0  0  0
 22 18  1  0  0  0  0
 25 26  1  0  0  0  0
 27 26  1  0  0  0  0
 28  1  1  0  0  0  0
 28 29  1  0  0  0  0
 29 34  1  0  0  0  0
 30 35  1  0  0  0  0
 30 29  2  0  0  0  0
 31 30  1  0  0  0  0
 32 33  1  0  0  0  0
 32 31  2  0  0  0  0
 33 28  2  0  0  0  0
 36 32  1  0  0  0  0
M  END
>  <minimizedAffinity>
-5.09675121

$$$$

 OpenBabel03272508413D

 36 38  0  0  1  0  0  0  0  0999 V2000
   36.0900   28.9400   31.6990 N   0  0  0  0  0  0  0  0  0  0  0  0
   35.2580   29.7340   32.5990 C   0  0  0  0  0  0  0  0  0  0  0  0
   35.6490   29.6680   34.0050 C   0  0  2  0  0  0  0  0  0  0  0  0
   35.9760   28.2810   34.4380 N   0  0  0  0  0  0  0  0  0  0  0  0
   36.9980   27.7620   33.5090 C   0  0  0  0  0  0  0  0  0  0  0  0
   36.2430   27.6220   32.2080 C   0  0  0  0  0  0  0  0  0  0  0  0
   35.1830   30.7510   32.2180 H   0  0  0  0  0  0  0  0  0  0  0  0
   34.2780   29.1500   32.5090 H   0  0  0  0  0  0  0  0  0  0  0  0
   36.6040   30.1560   34.2650 H   0  0  0  0  0  0  0  0  0  0  0  0
   35.1370   27.6690   34.3900 H   0  0  0  0  0  0  0  0  0  0  0  0
   37.8500   28.4400   33.4600 H   0  0  0  0  0  0  0  0  0  0  0  0
   37.2230   26.7350   33.8630 H   0  0  0  0  0  0  0  0  0  0  0  0
   36.8940   27.0400   31.5170 H   0  0  0  0  0  0  0  0  0  0  0  0
   35.2800   27.1080   32.4250 H   0  0  0  0  0  0  0  0  0  0  0  0
   36.4000   31.9530   35.7550 Cl  0  0  0  0  0  0  0  0  0  0  0  0
   34.7850   31.2500   35.6880 C   0  0  0  0  0  0  0  0  0  0  0  0
   34.5860   30.1840   34.8490 C   0  0  0  0  0  0  0  0  0  0  0  0
   33.3560   29.5330   34.6840 C   0  0  0  0  0  0  0  0  0  0  0  0
   32.2970   30.0360   35.4510 C   0  0  0  0  0  0  0  0  0  0  0  0
   32.4880   31.1190   36.3110 C   0  0  0  0  0  0  0  0  0  0  0  0
   33.7360   31.7160   36.4190 C   0  0  0  0  0  0  0  0  0  0  0  0
   32.9340   28.7320   34.1270 H   0  0  0  0  0  0  0  0  0  0  0  0
   31.2700   29.7130   35.5030 H   0  0  0  0  0  0  0  0  0  0  0  0
   31.7410   31.5760   36.9410 H   0  0  0  0  0  0  0  0  0  0  0  0
   34.0240   32.8700   37.3090 C   0  0  0  0  0  2  0  0  0  0  0  0
   32.9370   33.9170   37.3000 C   0  0  0  0  0  2  0  0  0  0  0  0
   33.2490   34.8720   36.8290 H   0  0  0  0  0  0  0  0  0  0  0  0
   36.6260   29.4610   30.4950 C   0  0  0  0  0  0  0  0  0  0  0  0
   36.5660   30.8200   30.1840 C   0  0  0  0  0  0  0  0  0  0  0  0
   37.1200   31.2500   28.9850 C   0  0  0  0  0  0  0  0  0  0  0  0
   37.7040   30.3070   28.1560 N   0  0  0  0  0  0  0  0  0  0  0  0
   37.7350   28.9970   28.5090 C   0  0  0  0  0  0  0  0  0  0  0  0
   37.2120   28.5750   29.6460 N   0  0  0  0  0  0  0  0  0  0  0  0
   36.0840   31.4520   30.9110 H   0  0  0  0  0  0  0  0  0  0  0  0
   37.0560   32.2940   28.7800 H   0  0  0  0  0  0  0  0  0  0  0  0
   38.2150   28.3410   27.7960 H   0  0  0  0  0  0  0  0  0  0  0  0
  1  6  1  0  0  0  0
  1  2  1  0  0  0  0
  2  3  1  0  0  0  0
  3  9  1  1  0  0  0
  3  4  1  0  0  0  0
  3 17  1  0  0  0  0
  5 12  1  0  0  0  0
  5  4  1  0  0  0  0
  6 14  1  0  0  0  0
  6  5  1  0  0  0  0
  7  2  1  0  0  0  0
  8  2  1  0  0  0  0
 10  4  1  0  0  0  0
 11  5  1  0  0  0  0
 13  6  1  0  0  0  0
 16 15  1  0  0  0  0
 16 21  1  0  0  0  0
 17 16  2  0  0  0  0
 18 17  1  0  0  0  0
 18 19  2  0  0  0  0
 19 23  1  0  0  0  0
 19 20  1  0  0  0  0
 20 21  2  0  0  0  0
 20 24  1  0  0  0  0
 21 25  1  0  0  0  0
 22 18  1  0  0  0  0
 26 25  1  0  0  0  0
 27 26  1  0  0  0  0
 28  1  1  0  0  0  0
 29 28  1  0  0  0  0
 29 34  1  0  0  0  0
 30 29  2  0  0  0  0
 31 32  2  0  0  0  0
 31 30  1  0  0  0  0
 32 33  1  0  0  0  0
 33 28  2  0  0  0  0
 35 30  1  0  0  0  0
 36 32  1  0  0  0  0
M  END
>  <minimizedAffinity>
-5.04099131

$$$$
