
 OpenBabel03272508393D

 26 27  0  0  1  0  0  0  0  0999 V2000
   38.6720   24.5690   36.2430 N   0  0  0  0  0  0  0  0  0  0  0  0
   39.8330   23.7130   36.1880 C   0  0  0  0  0  0  0  0  0  0  0  0
   39.7340   22.4920   37.0260 C   0  0  2  0  0  0  0  0  0  0  0  0
   39.0080   22.6050   38.2390 N   0  0  0  0  0  0  0  0  0  0  0  0
   37.7840   23.3790   38.0770 C   0  0  0  0  0  0  0  0  0  0  0  0
   38.2360   24.7350   37.5950 C   0  0  0  0  0  0  0  0  0  0  0  0
   40.7240   24.3230   36.5010 H   0  0  0  0  0  0  0  0  0  0  0  0
   40.0350   23.4450   35.1340 H   0  0  0  0  0  0  0  0  0  0  0  0
   39.2460   21.6970   36.4040 H   0  0  0  0  0  0  0  0  0  0  0  0
   38.8090   21.6440   38.5890 H   0  0  0  0  0  0  0  0  0  0  0  0
   37.2670   23.4600   39.0470 H   0  0  0  0  0  0  0  0  0  0  0  0
   37.1800   22.8430   37.3070 H   0  0  0  0  0  0  0  0  0  0  0  0
   37.4270   25.4890   37.6250 H   0  0  0  0  0  0  0  0  0  0  0  0
   39.0640   25.0580   38.2630 H   0  0  0  0  0  0  0  0  0  0  0  0
   38.0640   25.1580   35.0990 C   0  0  0  0  0  0  0  0  0  0  0  0
   37.5550   26.4570   35.0830 C   0  0  0  0  0  0  0  0  0  0  0  0
   36.9750   26.9610   33.9280 C   0  0  0  0  0  0  0  0  0  0  0  0
   36.9260   26.1460   32.8390 N   0  0  0  0  0  0  0  0  0  0  0  0
   37.4340   24.8750   32.8860 C   0  0  0  0  0  0  0  0  0  0  0  0
   38.0020   24.3650   33.9970 N   0  0  0  0  0  0  0  0  0  0  0  0
   37.6280   27.0470   35.9870 H   0  0  0  0  0  0  0  0  0  0  0  0
   36.5930   27.9540   33.9330 H   0  0  0  0  0  0  0  0  0  0  0  0
   37.3530   24.2900   31.9680 H   0  0  0  0  0  0  0  0  0  0  0  0
   41.1190   21.9840   37.3640 C   0  0  0  0  0  2  0  0  0  0  0  0
   42.2070   22.6820   36.6070 C   0  0  0  0  0  2  0  0  0  0  0  0
   43.0260   21.9550   36.4280 H   0  0  0  0  0  0  0  0  0  0  0  0
  1  6  1  0  0  0  0
  2  1  1  0  0  0  0
  2  7  1  0  0  0  0
  2  3  1  0  0  0  0
  3  9  1  6  0  0  0
  3 24  1  0  0  0  0
  3  4  1  0  0  0  0
  4 10  1  0  0  0  0
  5  4  1  0  0  0  0
  5 11  1  0  0  0  0
  6 13  1  0  0  0  0
  6  5  1  0  0  0  0
  6 14  1  0  0  0  0
  8  2  1  0  0  0  0
 12  5  1  0  0  0  0
 15  1  1  0  0  0  0
 16 15  1  0  0  0  0
 16 21  1  0  0  0  0
 17 22  1  0  0  0  0
 17 16  2  0  0  0  0
 18 19  2  0  0  0  0
 18 17  1  0  0  0  0
 19 20  1  0  0  0  0
 20 15  2  0  0  0  0
 23 19  1  0  0  0  0
 25 24  1  0  0  0  0
 26 25  1  0  0  0  0
M  END
>  <minimizedAffinity>
-4.33535051

$$$$

 OpenBabel03272508393D

 26 27  0  0  1  0  0  0  0  0999 V2000
   38.7140   24.3560   35.9920 N   0  0  0  0  0  0  0  0  0  0  0  0
   39.8880   23.5190   36.0490 C   0  0  0  0  0  0  0  0  0  0  0  0
   39.8050   22.4100   37.0320 C   0  0  2  0  0  0  0  0  0  0  0  0
   39.0710   22.6630   38.2190 N   0  0  0  0  0  0  0  0  0  0  0  0
   37.8350   23.3900   37.9590 C   0  0  0  0  0  0  0  0  0  0  0  0
   38.2680   24.6820   37.3120 C   0  0  0  0  0  0  0  0  0  0  0  0
   40.7680   24.1770   36.2850 H   0  0  0  0  0  0  0  0  0  0  0  0
   40.0990   23.1240   35.0360 H   0  0  0  0  0  0  0  0  0  0  0  0
   39.3310   21.5360   36.5130 H   0  0  0  0  0  0  0  0  0  0  0  0
   38.8840   21.7490   38.6860 H   0  0  0  0  0  0  0  0  0  0  0  0
   37.3130   23.5840   38.9090 H   0  0  0  0  0  0  0  0  0  0  0  0
   37.2430   22.7530   37.2600 H   0  0  0  0  0  0  0  0  0  0  0  0
   37.4480   25.4220   37.2460 H   0  0  0  0  0  0  0  0  0  0  0  0
   39.0890   25.1000   37.9360 H   0  0  0  0  0  0  0  0  0  0  0  0
   38.1020   24.7870   34.7820 C   0  0  0  0  0  0  0  0  0  0  0  0
   37.9800   23.9760   33.6520 C   0  0  0  0  0  0  0  0  0  0  0  0
   37.3700   24.4680   32.5080 C   0  0  0  0  0  0  0  0  0  0  0  0
   36.9090   25.7490   32.5400 N   0  0  0  0  0  0  0  0  0  0  0  0
   37.0430   26.5190   33.6640 C   0  0  0  0  0  0  0  0  0  0  0  0
   37.6320   26.0620   34.7860 N   0  0  0  0  0  0  0  0  0  0  0  0
   38.3710   22.9690   33.7010 H   0  0  0  0  0  0  0  0  0  0  0  0
   37.2850   23.8370   31.6560 H   0  0  0  0  0  0  0  0  0  0  0  0
   36.6460   27.5350   33.6020 H   0  0  0  0  0  0  0  0  0  0  0  0
   41.1950   21.9710   37.4350 C   0  0  0  0  0  2  0  0  0  0  0  0
   42.2800   22.6550   36.6610 C   0  0  0  0  0  2  0  0  0  0  0  0
   43.1260   21.9460   36.5480 H   0  0  0  0  0  0  0  0  0  0  0  0
  1  2  1  0  0  0  0
  1  6  1  0  0  0  0
  2  7  1  0  0  0  0
  2  3  1  0  0  0  0
  3  9  1  6  0  0  0
  3 24  1  0  0  0  0
  3  4  1  0  0  0  0
  4 10  1  0  0  0  0
  5  4  1  0  0  0  0
  5 11  1  0  0  0  0
  6 14  1  0  0  0  0
  6  5  1  0  0  0  0
  8  2  1  0  0  0  0
 12  5  1  0  0  0  0
 13  6  1  0  0  0  0
 15 20  1  0  0  0  0
 15  1  1  0  0  0  0
 16 21  1  0  0  0  0
 16 15  2  0  0  0  0
 17 18  2  0  0  0  0
 17 16  1  0  0  0  0
 18 19  1  0  0  0  0
 19 20  2  0  0  0  0
 22 17  1  0  0  0  0
 23 19  1  0  0  0  0
 25 24  1  0  0  0  0
 26 25  1  0  0  0  0
M  END
>  <minimizedAffinity>
-4.21672964

$$$$

 OpenBabel03272508393D

 26 27  0  0  1  0  0  0  0  0999 V2000
   38.2000   24.2760   34.7830 N   0  0  0  0  0  0  0  0  0  0  0  0
   38.3220   24.4440   36.2110 C   0  0  0  0  0  0  0  0  0  0  0  0
   39.1610   23.4190   36.8800 C   0  0  2  0  0  0  0  0  0  0  0  0
   39.1320   22.1110   36.3320 N   0  0  0  0  0  0  0  0  0  0  0  0
   39.1660   22.1240   34.8760 C   0  0  0  0  0  0  0  0  0  0  0  0
   37.9440   22.9060   34.4600 C   0  0  0  0  0  0  0  0  0  0  0  0
   37.2850   24.4370   36.6470 H   0  0  0  0  0  0  0  0  0  0  0  0
   38.7070   25.4600   36.4240 H   0  0  0  0  0  0  0  0  0  0  0  0
   40.2210   23.7820   36.8500 H   0  0  0  0  0  0  0  0  0  0  0  0
   39.9340   21.5750   36.7280 H   0  0  0  0  0  0  0  0  0  0  0  0
   39.1170   21.0910   34.4960 H   0  0  0  0  0  0  0  0  0  0  0  0
   40.1100   22.6460   34.5930 H   0  0  0  0  0  0  0  0  0  0  0  0
   37.7320   22.8210   33.3780 H   0  0  0  0  0  0  0  0  0  0  0  0
   37.0850   22.4970   35.0350 H   0  0  0  0  0  0  0  0  0  0  0  0
   38.3200   25.3380   33.8430 C   0  0  0  0  0  0  0  0  0  0  0  0
   39.4830   26.0940   33.6850 C   0  0  0  0  0  0  0  0  0  0  0  0
   39.5230   27.1160   32.7470 C   0  0  0  0  0  0  0  0  0  0  0  0
   38.4010   27.3400   32.0090 N   0  0  0  0  0  0  0  0  0  0  0  0
   37.2760   26.5800   32.1890 C   0  0  0  0  0  0  0  0  0  0  0  0
   37.2140   25.5830   33.0940 N   0  0  0  0  0  0  0  0  0  0  0  0
   40.3360   25.8590   34.3070 H   0  0  0  0  0  0  0  0  0  0  0  0
   40.4170   27.6820   32.6380 H   0  0  0  0  0  0  0  0  0  0  0  0
   36.4210   26.8280   31.5550 H   0  0  0  0  0  0  0  0  0  0  0  0
   38.7830   23.3150   38.3410 C   0  0  0  0  0  2  0  0  0  0  0  0
   37.9440   24.4610   38.8190 C   0  0  0  0  0  2  0  0  0  0  0  0
   38.1910   24.6510   39.8840 H   0  0  0  0  0  0  0  0  0  0  0  0
  1  2  1  0  0  0  0
  2  8  1  0  0  0  0
  2  7  1  0  0  0  0
  2  3  1  0  0  0  0
  3  9  1  6  0  0  0
  3 24  1  0  0  0  0
  4 10  1  0  0  0  0
  4  3  1  0  0  0  0
  5  4  1  0  0  0  0
  6  1  1  0  0  0  0
  6  5  1  0  0  0  0
  6 14  1  0  0  0  0
 11  5  1  0  0  0  0
 12  5  1  0  0  0  0
 13  6  1  0  0  0  0
 15  1  1  0  0  0  0
 16 15  1  0  0  0  0
 16 21  1  0  0  0  0
 17 16  2  0  0  0  0
 18 19  2  0  0  0  0
 18 17  1  0  0  0  0
 19 20  1  0  0  0  0
 20 15  2  0  0  0  0
 22 17  1  0  0  0  0
 23 19  1  0  0  0  0
 24 25  1  0  0  0  0
 25 26  1  0  0  0  0
M  END
>  <minimizedAffinity>
-3.95746446

$$$$

 OpenBabel03272508393D

 26 27  0  0  1  0  0  0  0  0999 V2000
   38.5710   25.0150   34.8680 N   0  0  0  0  0  0  0  0  0  0  0  0
   37.9820   26.3220   34.6980 C   0  0  0  0  0  0  0  0  0  0  0  0
   37.0010   26.4130   33.5880 C   0  0  2  0  0  0  0  0  0  0  0  0
   37.2490   25.6070   32.4480 N   0  0  0  0  0  0  0  0  0  0  0  0
   37.6950   24.2670   32.8080 C   0  0  0  0  0  0  0  0  0  0  0  0
   38.9600   24.4730   33.6030 C   0  0  0  0  0  0  0  0  0  0  0  0
   38.8180   27.0560   34.5350 H   0  0  0  0  0  0  0  0  0  0  0  0
   37.5180   26.6350   35.6530 H   0  0  0  0  0  0  0  0  0  0  0  0
   35.9990   26.1280   34.0010 H   0  0  0  0  0  0  0  0  0  0  0  0
   36.3780   25.5780   31.8750 H   0  0  0  0  0  0  0  0  0  0  0  0
   37.8970   23.6870   31.8930 H   0  0  0  0  0  0  0  0  0  0  0  0
   36.8800   23.8270   33.4300 H   0  0  0  0  0  0  0  0  0  0  0  0
   39.5190   23.5330   33.7670 H   0  0  0  0  0  0  0  0  0  0  0  0
   39.5960   25.1810   33.0250 H   0  0  0  0  0  0  0  0  0  0  0  0
   38.7330   24.3730   36.1280 C   0  0  0  0  0  0  0  0  0  0  0  0
   37.9330   24.6480   37.2380 C   0  0  0  0  0  0  0  0  0  0  0  0
   38.1540   23.9810   38.4340 C   0  0  0  0  0  0  0  0  0  0  0  0
   39.1630   23.0690   38.4710 N   0  0  0  0  0  0  0  0  0  0  0  0
   39.9310   22.8210   37.3640 C   0  0  0  0  0  0  0  0  0  0  0  0
   39.7350   23.4580   36.1920 N   0  0  0  0  0  0  0  0  0  0  0  0
   37.1490   25.3860   37.1340 H   0  0  0  0  0  0  0  0  0  0  0  0
   37.5350   24.2020   39.2700 H   0  0  0  0  0  0  0  0  0  0  0  0
   40.7200   22.0750   37.4820 H   0  0  0  0  0  0  0  0  0  0  0  0
   36.8820   27.8470   33.1210 C   0  0  0  0  0  2  0  0  0  0  0  0
   36.0540   28.7000   34.0320 C   0  0  0  0  0  2  0  0  0  0  0  0
   35.5330   29.4620   33.4150 H   0  0  0  0  0  0  0  0  0  0  0  0
  1 15  1  0  0  0  0
  2  1  1  0  0  0  0
  2  8  1  0  0  0  0
  3  9  1  1  0  0  0
  3  2  1  0  0  0  0
  4  5  1  0  0  0  0
  4  3  1  0  0  0  0
  5 12  1  0  0  0  0
  5  6  1  0  0  0  0
  6 13  1  0  0  0  0
  6  1  1  0  0  0  0
  7  2  1  0  0  0  0
 10  4  1  0  0  0  0
 11  5  1  0  0  0  0
 14  6  1  0  0  0  0
 15 20  2  0  0  0  0
 15 16  1  0  0  0  0
 16 17  2  0  0  0  0
 17 18  1  0  0  0  0
 17 22  1  0  0  0  0
 19 23  1  0  0  0  0
 19 18  2  0  0  0  0
 20 19  1  0  0  0  0
 21 16  1  0  0  0  0
 24  3  1  0  0  0  0
 24 25  1  0  0  0  0
 26 25  1  0  0  0  0
M  END
>  <minimizedAffinity>
-3.92200065

$$$$

 OpenBabel03272508393D

 26 27  0  0  1  0  0  0  0  0999 V2000
   37.7570   22.4530   34.3310 N   0  0  0  0  0  0  0  0  0  0  0  0
   37.7760   22.2830   35.7650 C   0  0  0  0  0  0  0  0  0  0  0  0
   37.8190   23.5520   36.5330 C   0  0  2  0  0  0  0  0  0  0  0  0
   38.5340   24.6290   35.9500 N   0  0  0  0  0  0  0  0  0  0  0  0
   38.2810   24.7470   34.5200 C   0  0  0  0  0  0  0  0  0  0  0  0
   38.7220   23.4300   33.9310 C   0  0  0  0  0  0  0  0  0  0  0  0
   38.6670   21.6460   36.0230 H   0  0  0  0  0  0  0  0  0  0  0  0
   36.9020   21.6750   36.0680 H   0  0  0  0  0  0  0  0  0  0  0  0
   36.7600   23.8850   36.6900 H   0  0  0  0  0  0  0  0  0  0  0  0
   38.2760   25.5020   36.4570 H   0  0  0  0  0  0  0  0  0  0  0  0
   38.8740   25.5790   34.1070 H   0  0  0  0  0  0  0  0  0  0  0  0
   37.1810   24.9030   34.4130 H   0  0  0  0  0  0  0  0  0  0  0  0
   38.7780   23.4540   32.8270 H   0  0  0  0  0  0  0  0  0  0  0  0
   39.7320   23.2110   34.3440 H   0  0  0  0  0  0  0  0  0  0  0  0
   36.8920   21.7380   33.4570 C   0  0  0  0  0  0  0  0  0  0  0  0
   35.9870   20.7700   33.8950 C   0  0  0  0  0  0  0  0  0  0  0  0
   35.1750   20.1150   32.9800 C   0  0  0  0  0  0  0  0  0  0  0  0
   35.3030   20.4530   31.6680 N   0  0  0  0  0  0  0  0  0  0  0  0
   36.2010   21.4070   31.2700 C   0  0  0  0  0  0  0  0  0  0  0  0
   36.9990   22.0560   32.1400 N   0  0  0  0  0  0  0  0  0  0  0  0
   35.9410   20.5540   34.9540 H   0  0  0  0  0  0  0  0  0  0  0  0
   34.4910   19.3800   33.3310 H   0  0  0  0  0  0  0  0  0  0  0  0
   36.2390   21.6160   30.1980 H   0  0  0  0  0  0  0  0  0  0  0  0
   38.4000   23.3030   37.9080 C   0  0  0  0  0  2  0  0  0  0  0  0
   39.8400   22.8910   37.8770 C   0  0  0  0  0  2  0  0  0  0  0  0
   40.0200   22.1980   38.7250 H   0  0  0  0  0  0  0  0  0  0  0  0
  1  2  1  0  0  0  0
  2  7  1  0  0  0  0
  2  8  1  0  0  0  0
  2  3  1  0  0  0  0
  3  9  1  1  0  0  0
  3 24  1  0  0  0  0
  4 10  1  0  0  0  0
  4  3  1  0  0  0  0
  5  4  1  0  0  0  0
  6  1  1  0  0  0  0
  6 14  1  0  0  0  0
  6  5  1  0  0  0  0
 11  5  1  0  0  0  0
 12  5  1  0  0  0  0
 13  6  1  0  0  0  0
 15 16  1  0  0  0  0
 15  1  1  0  0  0  0
 16 21  1  0  0  0  0
 17 22  1  0  0  0  0
 17 16  2  0  0  0  0
 18 17  1  0  0  0  0
 19 18  2  0  0  0  0
 19 20  1  0  0  0  0
 20 15  2  0  0  0  0
 23 19  1  0  0  0  0
 25 24  1  0  0  0  0
 25 26  1  0  0  0  0
M  END
>  <minimizedAffinity>
-3.88735247

$$$$

 OpenBabel03272508393D

 26 27  0  0  1  0  0  0  0  0999 V2000
   36.6930   23.2970   32.1620 N   0  0  0  0  0  0  0  0  0  0  0  0
   35.6270   22.4120   31.7570 C   0  0  0  0  0  0  0  0  0  0  0  0
   35.3750   21.2860   32.6910 C   0  0  2  0  0  0  0  0  0  0  0  0
   36.5010   20.7560   33.3710 N   0  0  0  0  0  0  0  0  0  0  0  0
   37.4010   21.8000   33.8450 C   0  0  0  0  0  0  0  0  0  0  0  0
   37.8260   22.5450   32.6040 C   0  0  0  0  0  0  0  0  0  0  0  0
   35.8800   22.0150   30.7360 H   0  0  0  0  0  0  0  0  0  0  0  0
   34.7040   23.0040   31.6050 H   0  0  0  0  0  0  0  0  0  0  0  0
   34.6450   21.6470   33.4620 H   0  0  0  0  0  0  0  0  0  0  0  0
   36.1560   20.1640   34.1570 H   0  0  0  0  0  0  0  0  0  0  0  0
   38.2690   21.3410   34.3440 H   0  0  0  0  0  0  0  0  0  0  0  0
   36.7960   22.4420   34.5280 H   0  0  0  0  0  0  0  0  0  0  0  0
   38.6700   23.2360   32.7900 H   0  0  0  0  0  0  0  0  0  0  0  0
   38.1360   21.7820   31.8560 H   0  0  0  0  0  0  0  0  0  0  0  0
   36.6070   24.7170   32.1200 C   0  0  0  0  0  0  0  0  0  0  0  0
   37.2630   25.5530   33.0250 C   0  0  0  0  0  0  0  0  0  0  0  0
   37.1300   26.9300   32.9190 C   0  0  0  0  0  0  0  0  0  0  0  0
   36.3480   27.4130   31.9150 N   0  0  0  0  0  0  0  0  0  0  0  0
   35.7170   26.5660   31.0430 C   0  0  0  0  0  0  0  0  0  0  0  0
   35.8320   25.2260   31.1270 N   0  0  0  0  0  0  0  0  0  0  0  0
   37.8680   25.0970   33.7970 H   0  0  0  0  0  0  0  0  0  0  0  0
   37.6370   27.5530   33.6160 H   0  0  0  0  0  0  0  0  0  0  0  0
   35.1090   27.0380   30.2680 H   0  0  0  0  0  0  0  0  0  0  0  0
   34.7010   20.1480   31.9580 C   0  0  0  0  0  2  0  0  0  0  0  0
   35.1200   18.7960   32.4490 C   0  0  0  0  0  2  0  0  0  0  0  0
   35.1010   18.0940   31.5900 H   0  0  0  0  0  0  0  0  0  0  0  0
  1  6  1  0  0  0  0
  2  1  1  0  0  0  0
  2  3  1  0  0  0  0
  3  4  1  0  0  0  0
  3  9  1  1  0  0  0
  4  5  1  0  0  0  0
  4 10  1  0  0  0  0
  5 11  1  0  0  0  0
  5 12  1  0  0  0  0
  6 13  1  0  0  0  0
  6  5  1  0  0  0  0
  7  2  1  0  0  0  0
  8  2  1  0  0  0  0
 14  6  1  0  0  0  0
 15  1  1  0  0  0  0
 15 16  1  0  0  0  0
 16 21  1  0  0  0  0
 17 16  2  0  0  0  0
 17 22  1  0  0  0  0
 18 17  1  0  0  0  0
 19 20  1  0  0  0  0
 19 18  2  0  0  0  0
 20 15  2  0  0  0  0
 23 19  1  0  0  0  0
 24 25  1  0  0  0  0
 24  3  1  0  0  0  0
 26 25  1  0  0  0  0
M  END
>  <minimizedAffinity>
-3.82048941

$$$$

 OpenBabel03272508393D

 26 27  0  0  1  0  0  0  0  0999 V2000
   37.5510   26.2310   32.4720 N   0  0  0  0  0  0  0  0  0  0  0  0
   37.7420   27.4450   31.7140 C   0  0  0  0  0  0  0  0  0  0  0  0
   36.6180   27.7850   30.8070 C   0  0  2  0  0  0  0  0  0  0  0  0
   35.9190   26.6990   30.2200 N   0  0  0  0  0  0  0  0  0  0  0  0
   35.6790   25.6210   31.1700 C   0  0  0  0  0  0  0  0  0  0  0  0
   37.0490   25.1890   31.6300 C   0  0  0  0  0  0  0  0  0  0  0  0
   38.6930   27.3340   31.1240 H   0  0  0  0  0  0  0  0  0  0  0  0
   37.9420   28.2790   32.4130 H   0  0  0  0  0  0  0  0  0  0  0  0
   35.8820   28.3910   31.3970 H   0  0  0  0  0  0  0  0  0  0  0  0
   35.0260   27.0640   29.8230 H   0  0  0  0  0  0  0  0  0  0  0  0
   35.1560   24.7930   30.6640 H   0  0  0  0  0  0  0  0  0  0  0  0
   35.0830   26.0680   32.0000 H   0  0  0  0  0  0  0  0  0  0  0  0
   37.0280   24.2410   32.1980 H   0  0  0  0  0  0  0  0  0  0  0  0
   37.6720   25.0560   30.7180 H   0  0  0  0  0  0  0  0  0  0  0  0
   37.8300   26.1090   33.8620 C   0  0  0  0  0  0  0  0  0  0  0  0
   38.0460   27.2040   34.7000 C   0  0  0  0  0  0  0  0  0  0  0  0
   38.3140   27.0040   36.0470 C   0  0  0  0  0  0  0  0  0  0  0  0
   38.3540   25.7200   36.4980 N   0  0  0  0  0  0  0  0  0  0  0  0
   38.1380   24.6670   35.6500 C   0  0  0  0  0  0  0  0  0  0  0  0
   37.8760   24.8370   34.3390 N   0  0  0  0  0  0  0  0  0  0  0  0
   37.9980   28.1950   34.2710 H   0  0  0  0  0  0  0  0  0  0  0  0
   38.4750   27.8490   36.6720 H   0  0  0  0  0  0  0  0  0  0  0  0
   38.1900   23.6710   36.0960 H   0  0  0  0  0  0  0  0  0  0  0  0
   37.1100   28.6760   29.6870 C   0  0  0  0  0  2  0  0  0  0  0  0
   38.5620   28.4880   29.3750 C   0  0  0  0  0  2  0  0  0  0  0  0
   38.9750   29.4640   29.0450 H   0  0  0  0  0  0  0  0  0  0  0  0
  1 15  1  0  0  0  0
  2  8  1  0  0  0  0
  2  1  1  0  0  0  0
  3  9  1  1  0  0  0
  3  2  1  0  0  0  0
  4  3  1  0  0  0  0
  4  5  1  0  0  0  0
  5  6  1  0  0  0  0
  5 12  1  0  0  0  0
  6 13  1  0  0  0  0
  6  1  1  0  0  0  0
  7  2  1  0  0  0  0
 10  4  1  0  0  0  0
 11  5  1  0  0  0  0
 14  6  1  0  0  0  0
 15 20  2  0  0  0  0
 15 16  1  0  0  0  0
 16 17  2  0  0  0  0
 17 18  1  0  0  0  0
 17 22  1  0  0  0  0
 19 23  1  0  0  0  0
 19 18  2  0  0  0  0
 20 19  1  0  0  0  0
 21 16  1  0  0  0  0
 24  3  1  0  0  0  0
 25 24  1  0  0  0  0
 26 25  1  0  0  0  0
M  END
>  <minimizedAffinity>
-3.79702926

$$$$

 OpenBabel03272508393D

 26 27  0  0  1  0  0  0  0  0999 V2000
   37.4360   25.4030   32.5950 N   0  0  0  0  0  0  0  0  0  0  0  0
   37.5180   26.7220   32.0130 C   0  0  0  0  0  0  0  0  0  0  0  0
   36.3370   27.1080   31.2020 C   0  0  2  0  0  0  0  0  0  0  0  0
   35.6840   26.0710   30.4880 N   0  0  0  0  0  0  0  0  0  0  0  0
   35.5530   24.8550   31.2810 C   0  0  0  0  0  0  0  0  0  0  0  0
   36.9660   24.4580   31.6290 C   0  0  0  0  0  0  0  0  0  0  0  0
   38.4480   26.7610   31.3820 H   0  0  0  0  0  0  0  0  0  0  0  0
   37.6940   27.4610   32.8180 H   0  0  0  0  0  0  0  0  0  0  0  0
   35.5900   27.5730   31.8960 H   0  0  0  0  0  0  0  0  0  0  0  0
   34.7540   26.4260   30.1780 H   0  0  0  0  0  0  0  0  0  0  0  0
   35.0630   24.0730   30.6800 H   0  0  0  0  0  0  0  0  0  0  0  0
   34.9660   25.1390   32.1870 H   0  0  0  0  0  0  0  0  0  0  0  0
   37.0300   23.4400   32.0560 H   0  0  0  0  0  0  0  0  0  0  0  0
   37.5570   24.4980   30.6870 H   0  0  0  0  0  0  0  0  0  0  0  0
   37.7810   25.1060   33.9430 C   0  0  0  0  0  0  0  0  0  0  0  0
   37.8110   26.0650   34.9570 C   0  0  0  0  0  0  0  0  0  0  0  0
   38.1580   25.6980   36.2490 C   0  0  0  0  0  0  0  0  0  0  0  0
   38.4620   24.3900   36.4730 N   0  0  0  0  0  0  0  0  0  0  0  0
   38.4240   23.4730   35.4560 C   0  0  0  0  0  0  0  0  0  0  0  0
   38.0900   23.8070   34.1940 N   0  0  0  0  0  0  0  0  0  0  0  0
   37.5570   27.0850   34.7040 H   0  0  0  0  0  0  0  0  0  0  0  0
   38.1740   26.4400   37.0100 H   0  0  0  0  0  0  0  0  0  0  0  0
   38.6830   22.4460   35.7240 H   0  0  0  0  0  0  0  0  0  0  0  0
   36.7230   28.1800   30.2060 C   0  0  0  0  0  2  0  0  0  0  0  0
   36.3990   29.5660   30.6710 C   0  0  0  0  0  2  0  0  0  0  0  0
   36.1420   30.1790   29.7820 H   0  0  0  0  0  0  0  0  0  0  0  0
  1 15  1  0  0  0  0
  2  1  1  0  0  0  0
  2  8  1  0  0  0  0
  3  9  1  1  0  0  0
  3  2  1  0  0  0  0
  4  3  1  0  0  0  0
  4  5  1  0  0  0  0
  5  6  1  0  0  0  0
  5 12  1  0  0  0  0
  6 13  1  0  0  0  0
  6  1  1  0  0  0  0
  7  2  1  0  0  0  0
 10  4  1  0  0  0  0
 11  5  1  0  0  0  0
 14  6  1  0  0  0  0
 15 20  2  0  0  0  0
 15 16  1  0  0  0  0
 16 17  2  0  0  0  0
 17 18  1  0  0  0  0
 17 22  1  0  0  0  0
 19 23  1  0  0  0  0
 19 18  2  0  0  0  0
 20 19  1  0  0  0  0
 21 16  1  0  0  0  0
 24 25  1  0  0  0  0
 24  3  1  0  0  0  0
 26 25  1  0  0  0  0
M  END
>  <minimizedAffinity>
-3.78784561

$$$$

 OpenBabel03272508393D

 26 27  0  0  1  0  0  0  0  0999 V2000
   38.4310   22.7230   34.1520 N   0  0  0  0  0  0  0  0  0  0  0  0
   37.9120   23.7830   33.3200 C   0  0  0  0  0  0  0  0  0  0  0  0
   36.8230   23.3660   32.4020 C   0  0  2  0  0  0  0  0  0  0  0  0
   36.8910   22.0460   31.8880 N   0  0  0  0  0  0  0  0  0  0  0  0
   37.2860   21.0790   32.9040 C   0  0  0  0  0  0  0  0  0  0  0  0
   38.6420   21.5390   33.3790 C   0  0  0  0  0  0  0  0  0  0  0  0
   38.7710   24.2080   32.7300 H   0  0  0  0  0  0  0  0  0  0  0  0
   37.5780   24.6180   33.9650 H   0  0  0  0  0  0  0  0  0  0  0  0
   35.8560   23.4700   32.9600 H   0  0  0  0  0  0  0  0  0  0  0  0
   35.9620   21.8090   31.4770 H   0  0  0  0  0  0  0  0  0  0  0  0
   37.3480   20.0750   32.4540 H   0  0  0  0  0  0  0  0  0  0  0  0
   36.5180   21.1470   33.7100 H   0  0  0  0  0  0  0  0  0  0  0  0
   39.1540   20.7830   34.0050 H   0  0  0  0  0  0  0  0  0  0  0  0
   39.2550   21.7380   32.4720 H   0  0  0  0  0  0  0  0  0  0  0  0
   38.6890   22.8600   35.5450 C   0  0  0  0  0  0  0  0  0  0  0  0
   39.8780   22.4470   36.1480 C   0  0  0  0  0  0  0  0  0  0  0  0
   40.0570   22.6130   37.5140 C   0  0  0  0  0  0  0  0  0  0  0  0
   39.0400   23.1830   38.2180 N   0  0  0  0  0  0  0  0  0  0  0  0
   37.8860   23.5770   37.5960 C   0  0  0  0  0  0  0  0  0  0  0  0
   37.6910   23.4250   36.2720 N   0  0  0  0  0  0  0  0  0  0  0  0
   40.6420   22.0020   35.5250 H   0  0  0  0  0  0  0  0  0  0  0  0
   40.9690   22.2940   37.9580 H   0  0  0  0  0  0  0  0  0  0  0  0
   37.1220   24.0240   38.2370 H   0  0  0  0  0  0  0  0  0  0  0  0
   36.7460   24.3150   31.2270 C   0  0  0  0  0  2  0  0  0  0  0  0
   35.3770   24.8830   31.0120 C   0  0  0  0  0  2  0  0  0  0  0  0
   35.2350   25.0420   29.9230 H   0  0  0  0  0  0  0  0  0  0  0  0
  1 15  1  0  0  0  0
  2  8  1  0  0  0  0
  2  1  1  0  0  0  0
  3  9  1  1  0  0  0
  3  2  1  0  0  0  0
  4  3  1  0  0  0  0
  4  5  1  0  0  0  0
  5  6  1  0  0  0  0
  5 12  1  0  0  0  0
  6 13  1  0  0  0  0
  6  1  1  0  0  0  0
  7  2  1  0  0  0  0
 10  4  1  0  0  0  0
 11  5  1  0  0  0  0
 14  6  1  0  0  0  0
 15 16  2  0  0  0  0
 15 20  1  0  0  0  0
 16 17  1  0  0  0  0
 17 22  1  0  0  0  0
 17 18  2  0  0  0  0
 19 18  1  0  0  0  0
 19 23  1  0  0  0  0
 20 19  2  0  0  0  0
 21 16  1  0  0  0  0
 24  3  1  0  0  0  0
 25 24  1  0  0  0  0
 26 25  1  0  0  0  0
M  END
>  <minimizedAffinity>
-3.78506804

$$$$
