
 OpenBabel03272502333D

 30 31  0  0  1  0  0  0  0  0999 V2000
   37.7590   30.6830   48.7120 C   0  0  2  0  0  0  0  0  0  0  0  0
   38.3720   29.7630   48.7810 H   0  0  0  0  0  0  0  0  0  0  0  0
   38.5440   31.8670   48.3160 C   0  0  0  0  0  0  0  0  0  0  0  0
   38.6350   32.8380   49.3470 C   0  0  0  0  0  0  0  0  0  0  0  0
   39.3170   34.0290   49.2090 C   0  0  0  0  0  0  0  0  0  0  0  0
   39.9690   34.3370   48.0030 C   0  0  0  0  0  0  0  0  0  0  0  0
   39.8270   33.3320   47.0540 C   0  0  0  0  0  0  0  0  0  0  0  0
   39.1730   32.1750   47.1670 N   0  0  0  0  0  0  0  0  0  0  0  0
   38.2180   32.8300   50.3640 H   0  0  0  0  0  0  0  0  0  0  0  0
   39.4250   34.8080   49.9490 H   0  0  0  0  0  0  0  0  0  0  0  0
   40.5330   35.2260   47.7670 H   0  0  0  0  0  0  0  0  0  0  0  0
   40.2840   33.4370   46.0670 H   0  0  0  0  0  0  0  0  0  0  0  0
   35.6130   29.8030   48.1110 C   0  0  0  0  0  0  0  0  0  0  0  0
   36.6540   30.4610   47.7180 C   0  0  0  0  0  0  0  0  0  0  0  0
   33.4990   29.7180   45.0440 C   0  0  0  0  0  0  0  0  0  0  0  0
   34.5410   29.9310   45.9250 C   0  0  0  0  0  0  0  0  0  0  0  0
   34.5000   29.5480   47.2400 C   0  0  0  0  0  0  0  0  0  0  0  0
   33.3580   28.9340   47.6440 N   0  0  0  0  0  0  0  0  0  0  0  0
   32.3430   28.7190   46.8130 C   0  0  0  0  0  0  0  0  0  0  0  0
   32.4010   29.1050   45.5160 N   0  0  0  0  0  0  0  0  0  0  0  0
   33.5050   30.0110   44.0040 H   0  0  0  0  0  0  0  0  0  0  0  0
   35.3700   30.4280   45.4430 H   0  0  0  0  0  0  0  0  0  0  0  0
   31.0880   28.0490   47.2400 C   0  0  0  0  0  0  0  0  0  0  0  0
   31.1880   27.6000   48.6780 C   0  0  0  0  0  0  0  0  0  0  0  0
   30.8060   26.5440   48.7630 H   0  0  0  0  0  0  0  0  0  0  0  0
   36.9670   31.1070   50.3020 S   0  0  0  0  0  0  0  0  0  0  0  0
   36.9640   29.7100   51.4090 C   0  0  0  0  0  0  0  0  0  0  0  0
   37.6280   29.9520   52.6010 F   0  0  0  0  0  0  0  0  0  0  0  0
   35.6760   29.2440   51.6290 F   0  0  0  0  0  0  0  0  0  0  0  0
   37.6500   28.6720   50.7460 F   0  0  0  0  0  0  0  0  0  0  0  0
  1  2  1  1  0  0  0
  1 26  1  0  0  0  0
  3  1  1  0  0  0  0
  3  4  1  0  0  0  0
  4  9  1  0  0  0  0
  5  4  2  0  0  0  0
  5 10  1  0  0  0  0
  6  5  1  0  0  0  0
  7  8  1  0  0  0  0
  7  6  2  0  0  0  0
  8  3  2  0  0  0  0
 11  6  1  0  0  0  0
 12  7  1  0  0  0  0
 14 13  2  0  0  0  0
 14  1  1  0  0  0  0
 15 20  2  0  0  0  0
 15 16  1  0  0  0  0
 16 17  2  0  0  0  0
 17 18  1  0  0  0  0
 17 13  1  0  0  0  0
 19 23  1  0  0  0  0
 19 18  2  0  0  0  0
 20 19  1  0  0  0  0
 21 15  1  0  0  0  0
 22 16  1  0  0  0  0
 23 24  1  0  0  0  0
 24 25  1  0  0  0  0
 26 27  1  0  0  0  0
 27 29  1  0  0  0  0
 27 28  1  0  0  0  0
 30 27  1  0  0  0  0
M  END
>  <minimizedAffinity>
-6.01703596

>  <minimizedRMSD>
0.41872412

$$$$
