
 OpenBabel03272510333D

 22 23  0  0  0  0  0  0  0  0999 V2000
   35.9940   30.2940   48.7380 C   0  0  0  0  0  0  0  0  0  0  0  0
   35.1960   30.0810   47.6370 C   0  0  0  0  0  0  0  0  0  0  0  0
   34.1610   29.1640   47.6740 C   0  0  0  0  0  0  0  0  0  0  0  0
   33.9520   28.4660   48.8490 C   0  0  0  0  0  0  0  0  0  0  0  0
   34.7410   28.6670   49.9580 C   0  0  0  0  0  0  0  0  0  0  0  0
   35.7830   29.5910   49.9220 C   0  0  0  0  0  0  0  0  0  0  0  0
   35.3130   30.5970   46.6890 H   0  0  0  0  0  0  0  0  0  0  0  0
   33.5130   28.9670   46.8340 H   0  0  0  0  0  0  0  0  0  0  0  0
   33.1690   27.7200   48.9930 H   0  0  0  0  0  0  0  0  0  0  0  0
   34.6190   28.1480   50.9010 H   0  0  0  0  0  0  0  0  0  0  0  0
   38.0160   33.2440   49.4170 C   0  0  0  0  0  0  0  0  0  0  0  0
   39.0380   33.2020   48.4520 C   0  0  0  0  0  0  0  0  0  0  0  0
   39.0130   32.1170   47.5470 C   0  0  0  0  0  0  0  0  0  0  0  0
   38.0250   31.2010   47.6650 N   0  0  0  0  0  0  0  0  0  0  0  0
   37.0590   31.2790   48.6100 C   0  0  0  0  0  0  0  0  0  0  0  0
   37.0670   32.3050   49.4780 N   0  0  0  0  0  0  0  0  0  0  0  0
   37.9610   34.0480   50.1540 H   0  0  0  0  0  0  0  0  0  0  0  0
   39.7850   33.9590   48.4170 H   0  0  0  0  0  0  0  0  0  0  0  0
   39.7800   32.0440   46.7890 H   0  0  0  0  0  0  0  0  0  0  0  0
   36.6430   29.8200   51.1090 C   0  0  0  0  0  2  0  0  0  0  0  0
   37.7970   28.8790   51.2140 C   0  0  0  0  0  2  0  0  0  0  0  0
   37.7090   28.0600   50.4490 H   0  0  0  0  0  0  0  0  0  0  0  0
  1  6  1  0  0  0  0
  2  3  1  0  0  0  0
  2  1  2  0  0  0  0
  3  4  2  0  0  0  0
  4  9  1  0  0  0  0
  4  5  1  0  0  0  0
  5 10  1  0  0  0  0
  6  5  2  0  0  0  0
  6 20  1  0  0  0  0
  7  2  1  0  0  0  0
  8  3  1  0  0  0  0
 11 16  1  0  0  0  0
 11 17  1  0  0  0  0
 12 11  2  0  0  0  0
 13 14  2  0  0  0  0
 13 12  1  0  0  0  0
 14 15  1  0  0  0  0
 15  1  1  0  0  0  0
 15 16  2  0  0  0  0
 18 12  1  0  0  0  0
 19 13  1  0  0  0  0
 20 21  1  0  0  0  0
 22 21  1  0  0  0  0
M  END
>  <minimizedAffinity>
-5.38094759

>  <minimizedRMSD>
0.339288324

$$$$
