
 OpenBabel03272510333D

 22 23  0  0  0  0  0  0  0  0999 V2000
   36.1250   30.2020   48.6360 C   0  0  0  0  0  0  0  0  0  0  0  0
   35.0390   30.2660   47.7930 C   0  0  0  0  0  0  0  0  0  0  0  0
   33.9910   29.3720   47.9120 C   0  0  0  0  0  0  0  0  0  0  0  0
   34.0670   28.4090   48.9020 C   0  0  0  0  0  0  0  0  0  0  0  0
   35.1460   28.3320   49.7520 C   0  0  0  0  0  0  0  0  0  0  0  0
   36.2020   29.2330   49.6330 C   0  0  0  0  0  0  0  0  0  0  0  0
   34.9250   30.9970   46.9980 H   0  0  0  0  0  0  0  0  0  0  0  0
   33.1220   29.3880   47.2730 H   0  0  0  0  0  0  0  0  0  0  0  0
   33.3020   27.6540   49.0880 H   0  0  0  0  0  0  0  0  0  0  0  0
   35.2530   27.5990   50.5430 H   0  0  0  0  0  0  0  0  0  0  0  0
   38.1700   33.1690   49.1570 C   0  0  0  0  0  0  0  0  0  0  0  0
   39.1490   33.1060   48.1500 C   0  0  0  0  0  0  0  0  0  0  0  0
   39.0870   31.9990   47.2730 C   0  0  0  0  0  0  0  0  0  0  0  0
   38.1070   31.0860   47.4540 N   0  0  0  0  0  0  0  0  0  0  0  0
   37.1820   31.1850   48.4390 C   0  0  0  0  0  0  0  0  0  0  0  0
   37.2260   32.2300   49.2820 N   0  0  0  0  0  0  0  0  0  0  0  0
   38.1450   33.9900   49.8770 H   0  0  0  0  0  0  0  0  0  0  0  0
   39.8930   33.8610   48.0650 H   0  0  0  0  0  0  0  0  0  0  0  0
   39.8200   31.9090   46.4830 H   0  0  0  0  0  0  0  0  0  0  0  0
   37.3720   29.1630   50.5420 C   0  0  0  0  0  2  0  0  0  0  0  0
   37.1600   29.8380   51.8570 C   0  0  0  0  0  2  0  0  0  0  0  0
   36.1970   30.4170   51.8530 H   0  0  0  0  0  0  0  0  0  0  0  0
  1  6  1  0  0  0  0
  2  3  1  0  0  0  0
  2  1  2  0  0  0  0
  3  4  2  0  0  0  0
  4  9  1  0  0  0  0
  4  5  1  0  0  0  0
  5 10  1  0  0  0  0
  6  5  2  0  0  0  0
  6 20  1  0  0  0  0
  7  2  1  0  0  0  0
  8  3  1  0  0  0  0
 11 16  1  0  0  0  0
 11 17  1  0  0  0  0
 12 11  2  0  0  0  0
 13 14  2  0  0  0  0
 13 12  1  0  0  0  0
 14 15  1  0  0  0  0
 15  1  1  0  0  0  0
 15 16  2  0  0  0  0
 18 12  1  0  0  0  0
 19 13  1  0  0  0  0
 20 21  1  0  0  0  0
 22 21  1  0  0  0  0
M  END
>  <minimizedAffinity>
-5.70046043

>  <minimizedRMSD>
0.494160801

$$$$
