
 OpenBabel03272510333D

 22 23  0  0  0  0  0  0  0  0999 V2000
   36.1210   30.2610   48.6360 C   0  0  0  0  0  0  0  0  0  0  0  0
   35.0550   30.3430   47.7690 C   0  0  0  0  0  0  0  0  0  0  0  0
   34.0270   29.4200   47.8150 C   0  0  0  0  0  0  0  0  0  0  0  0
   34.1010   28.4090   48.7560 C   0  0  0  0  0  0  0  0  0  0  0  0
   35.1600   28.3130   49.6280 C   0  0  0  0  0  0  0  0  0  0  0  0
   36.1960   29.2430   49.5840 C   0  0  0  0  0  0  0  0  0  0  0  0
   34.9430   31.1110   47.0100 H   0  0  0  0  0  0  0  0  0  0  0  0
   33.1730   29.4490   47.1550 H   0  0  0  0  0  0  0  0  0  0  0  0
   33.3500   27.6280   48.8830 H   0  0  0  0  0  0  0  0  0  0  0  0
   35.2650   27.5420   50.3830 H   0  0  0  0  0  0  0  0  0  0  0  0
   38.0700   33.2500   49.3530 C   0  0  0  0  0  0  0  0  0  0  0  0
   39.0830   33.2550   48.3780 C   0  0  0  0  0  0  0  0  0  0  0  0
   39.0790   32.1860   47.4530 C   0  0  0  0  0  0  0  0  0  0  0  0
   38.1170   31.2420   47.5620 N   0  0  0  0  0  0  0  0  0  0  0  0
   37.1580   31.2760   48.5170 C   0  0  0  0  0  0  0  0  0  0  0  0
   37.1470   32.2850   49.4050 N   0  0  0  0  0  0  0  0  0  0  0  0
   38.0010   34.0390   50.1060 H   0  0  0  0  0  0  0  0  0  0  0  0
   39.8100   34.0310   48.3510 H   0  0  0  0  0  0  0  0  0  0  0  0
   39.8400   32.1480   46.6860 H   0  0  0  0  0  0  0  0  0  0  0  0
   37.3450   29.1530   50.5180 C   0  0  0  0  0  2  0  0  0  0  0  0
   37.0950   29.7840   51.8480 C   0  0  0  0  0  2  0  0  0  0  0  0
   36.1280   30.3560   51.8390 H   0  0  0  0  0  0  0  0  0  0  0  0
  1  6  1  0  0  0  0
  2  3  1  0  0  0  0
  2  1  2  0  0  0  0
  3  4  2  0  0  0  0
  4  9  1  0  0  0  0
  4  5  1  0  0  0  0
  5 10  1  0  0  0  0
  6  5  2  0  0  0  0
  6 20  1  0  0  0  0
  7  2  1  0  0  0  0
  8  3  1  0  0  0  0
 11 16  1  0  0  0  0
 11 17  1  0  0  0  0
 12 11  2  0  0  0  0
 13 14  2  0  0  0  0
 13 12  1  0  0  0  0
 14 15  1  0  0  0  0
 15  1  1  0  0  0  0
 15 16  2  0  0  0  0
 18 12  1  0  0  0  0
 19 13  1  0  0  0  0
 20 21  1  0  0  0  0
 22 21  1  0  0  0  0
M  END
>  <minimizedAffinity>
-5.70452785

>  <minimizedRMSD>
0.48491466

$$$$
