
 OpenBabel03272509293D

 28 29  0  0  1  0  0  0  0  0999 V2000
   35.5630   30.7130   48.3810 C   0  0  2  0  0  0  0  0  0  0  0  0
   36.5800   30.7830   47.2580 C   0  0  0  0  0  0  0  0  0  0  0  0
   37.9770   30.5410   47.7660 C   0  0  0  0  0  0  0  0  0  0  0  0
   38.3330   31.5650   48.8210 C   0  0  0  0  0  0  0  0  0  0  0  0
   37.2470   31.7800   49.8440 C   0  0  0  0  0  0  0  0  0  0  0  0
   36.1620   30.7200   49.7370 C   0  0  2  0  0  0  0  0  0  0  0  0
   34.9140   31.6290   48.2330 H   0  0  0  0  0  0  0  0  0  0  0  0
   36.5980   31.7910   46.7960 H   0  0  0  0  0  0  0  0  0  0  0  0
   36.3700   30.0870   46.4220 H   0  0  0  0  0  0  0  0  0  0  0  0
   38.6540   30.7920   46.8850 H   0  0  0  0  0  0  0  0  0  0  0  0
   38.2320   29.5160   48.0030 H   0  0  0  0  0  0  0  0  0  0  0  0
   39.3170   31.3640   49.2760 H   0  0  0  0  0  0  0  0  0  0  0  0
   38.4690   32.5300   48.2880 H   0  0  0  0  0  0  0  0  0  0  0  0
   37.6870   31.7800   50.8310 H   0  0  0  0  0  0  0  0  0  0  0  0
   36.7640   32.7970   49.7290 H   0  0  0  0  0  0  0  0  0  0  0  0
   35.3420   31.1850   50.3910 H   0  0  0  0  0  0  0  0  0  0  0  0
   34.6830   29.5640   48.1990 C   0  0  0  0  0  0  0  0  0  0  0  0
   34.6730   28.8420   47.0010 C   0  0  0  0  0  0  0  0  0  0  0  0
   33.8450   27.7390   46.8730 C   0  0  0  0  0  0  0  0  0  0  0  0
   33.0670   27.4080   47.9390 N   0  0  0  0  0  0  0  0  0  0  0  0
   33.0780   28.1170   49.1050 C   0  0  0  0  0  0  0  0  0  0  0  0
   33.8870   29.1550   49.1660 N   0  0  0  0  0  0  0  0  0  0  0  0
   35.2540   29.0580   46.1220 H   0  0  0  0  0  0  0  0  0  0  0  0
   33.7930   27.1470   45.9830 H   0  0  0  0  0  0  0  0  0  0  0  0
   32.4480   27.8330   49.9400 H   0  0  0  0  0  0  0  0  0  0  0  0
   36.5270   29.4800   50.4410 C   0  0  0  0  0  0  0  0  0  0  0  0
   37.2350   29.7840   51.7950 C   0  0  0  0  0  0  0  0  0  0  0  0
   37.1910   28.8270   52.3560 H   0  0  0  0  0  0  0  0  0  0  0  0
  1  7  1  6  0  0  0
  1  6  1  0  0  0  0
  2  3  1  0  0  0  0
  2  1  1  0  0  0  0
  3 11  1  0  0  0  0
  3  4  1  0  0  0  0
  4 12  1  0  0  0  0
  4  5  1  0  0  0  0
  5 14  1  0  0  0  0
  6  5  1  0  0  0  0
  6 16  1  1  0  0  0
  6 26  1  0  0  0  0
  8  2  1  0  0  0  0
  9  2  1  0  0  0  0
 10  3  1  0  0  0  0
 13  4  1  0  0  0  0
 15  5  1  0  0  0  0
 17  1  1  0  0  0  0
 17 22  1  0  0  0  0
 18 17  2  0  0  0  0
 19 18  1  0  0  0  0
 19 20  2  0  0  0  0
 20 21  1  0  0  0  0
 21 22  2  0  0  0  0
 21 25  1  0  0  0  0
 23 18  1  0  0  0  0
 24 19  1  0  0  0  0
 26 27  1  0  0  0  0
 27 28  1  0  0  0  0
M  END
>  <minimizedAffinity>
-4.94030333

>  <minimizedRMSD>
1.73094487

$$$$
