
 OpenBabel03272510333D

 22 23  0  0  0  0  0  0  0  0999 V2000
   35.9950   30.1750   48.6670 C   0  0  0  0  0  0  0  0  0  0  0  0
   35.2560   29.9390   47.5310 C   0  0  0  0  0  0  0  0  0  0  0  0
   34.2440   28.9950   47.5220 C   0  0  0  0  0  0  0  0  0  0  0  0
   33.9980   28.2950   48.6890 C   0  0  0  0  0  0  0  0  0  0  0  0
   34.7290   28.5190   49.8330 C   0  0  0  0  0  0  0  0  0  0  0  0
   35.7480   29.4700   49.8420 C   0  0  0  0  0  0  0  0  0  0  0  0
   35.4030   30.4550   46.5870 H   0  0  0  0  0  0  0  0  0  0  0  0
   33.6410   28.7790   46.6540 H   0  0  0  0  0  0  0  0  0  0  0  0
   33.2290   27.5290   48.7990 H   0  0  0  0  0  0  0  0  0  0  0  0
   34.5760   27.9990   50.7710 H   0  0  0  0  0  0  0  0  0  0  0  0
   37.9220   33.1630   49.4470 C   0  0  0  0  0  0  0  0  0  0  0  0
   38.9740   33.1600   48.5150 C   0  0  0  0  0  0  0  0  0  0  0  0
   39.0040   32.0860   47.5960 C   0  0  0  0  0  0  0  0  0  0  0  0
   38.0360   31.1460   47.6700 N   0  0  0  0  0  0  0  0  0  0  0  0
   37.0390   31.1870   48.5860 C   0  0  0  0  0  0  0  0  0  0  0  0
   36.9950   32.2010   49.4660 N   0  0  0  0  0  0  0  0  0  0  0  0
   37.8240   33.9560   50.1930 H   0  0  0  0  0  0  0  0  0  0  0  0
   39.7030   33.9340   48.5130 H   0  0  0  0  0  0  0  0  0  0  0  0
   39.7960   32.0420   46.8610 H   0  0  0  0  0  0  0  0  0  0  0  0
   36.5440   29.7240   51.0680 C   0  0  0  0  0  2  0  0  0  0  0  0
   37.7730   28.8840   51.1780 C   0  0  0  0  0  2  0  0  0  0  0  0
   37.7840   28.0930   50.3780 H   0  0  0  0  0  0  0  0  0  0  0  0
  1  6  1  0  0  0  0
  2  1  2  0  0  0  0
  3  2  1  0  0  0  0
  3  4  2  0  0  0  0
  4  9  1  0  0  0  0
  4  5  1  0  0  0  0
  5  6  2  0  0  0  0
  5 10  1  0  0  0  0
  6 20  1  0  0  0  0
  7  2  1  0  0  0  0
  8  3  1  0  0  0  0
 11 16  1  0  0  0  0
 11 17  1  0  0  0  0
 12 11  2  0  0  0  0
 13 14  2  0  0  0  0
 13 12  1  0  0  0  0
 14 15  1  0  0  0  0
 15  1  1  0  0  0  0
 15 16  2  0  0  0  0
 18 12  1  0  0  0  0
 19 13  1  0  0  0  0
 20 21  1  0  0  0  0
 22 21  1  0  0  0  0
M  END
>  <minimizedAffinity>
-5.42618465

>  <minimizedRMSD>
0.215563312

$$$$
