
 OpenBabel03272505013D

 22 23  0  0  0  0  0  0  0  0999 V2000
   35.8500   20.8300   35.7580 Cl  0  0  0  0  0  0  0  0  0  0  0  0
   36.7720   21.4520   34.4000 C   0  0  0  0  0  0  0  0  0  0  0  0
   37.8420   22.2520   34.6490 C   0  0  0  0  0  0  0  0  0  0  0  0
   38.5310   22.7200   33.5240 C   0  0  0  0  0  0  0  0  0  0  0  0
   38.1020   22.3550   32.2490 C   0  0  0  0  0  0  0  0  0  0  0  0
   37.0210   21.5490   32.0510 C   0  0  0  0  0  0  0  0  0  0  0  0
   36.3440   21.0890   33.1580 C   0  0  0  0  0  0  0  0  0  0  0  0
   39.4000   23.3660   33.6580 H   0  0  0  0  0  0  0  0  0  0  0  0
   38.6720   22.7470   31.4170 H   0  0  0  0  0  0  0  0  0  0  0  0
   36.6970   21.2710   31.0520 H   0  0  0  0  0  0  0  0  0  0  0  0
   39.5540   22.2260   36.4620 C   0  0  0  0  0  0  0  0  0  0  0  0
   38.3010   22.6370   35.9910 C   0  0  0  0  0  0  0  0  0  0  0  0
   37.5020   23.4140   36.8170 C   0  0  0  0  0  0  0  0  0  0  0  0
   37.9650   23.7460   38.0500 N   0  0  0  0  0  0  0  0  0  0  0  0
   39.1730   23.3390   38.4800 C   0  0  0  0  0  0  0  0  0  0  0  0
   39.9800   22.5760   37.6930 N   0  0  0  0  0  0  0  0  0  0  0  0
   40.1150   21.6290   35.7650 H   0  0  0  0  0  0  0  0  0  0  0  0
   36.5240   23.7480   36.4800 H   0  0  0  0  0  0  0  0  0  0  0  0
   39.5340   23.6080   39.4630 H   0  0  0  0  0  0  0  0  0  0  0  0
   35.1530   20.2040   32.9690 C   0  0  0  0  0  2  0  0  0  0  0  0
   35.5250   18.7600   32.7630 C   0  0  0  0  0  2  0  0  0  0  0  0
   34.8680   18.0840   33.3470 H   0  0  0  0  0  0  0  0  0  0  0  0
  2  3  1  0  0  0  0
  2  1  1  0  0  0  0
  3 12  1  0  0  0  0
  4  8  1  0  0  0  0
  4  3  2  0  0  0  0
  5  4  1  0  0  0  0
  6  5  2  0  0  0  0
  6  7  1  0  0  0  0
  7  2  2  0  0  0  0
  9  5  1  0  0  0  0
 10  6  1  0  0  0  0
 11 16  1  0  0  0  0
 12 11  2  0  0  0  0
 12 13  1  0  0  0  0
 13 14  2  0  0  0  0
 14 15  1  0  0  0  0
 15 19  1  0  0  0  0
 16 15  2  0  0  0  0
 17 11  1  0  0  0  0
 18 13  1  0  0  0  0
 20  7  1  0  0  0  0
 21 20  1  0  0  0  0
 21 22  1  0  0  0  0
M  END
>  <minimizedAffinity>
-4.4501152

$$$$

 OpenBabel03272505013D

 22 23  0  0  0  0  0  0  0  0999 V2000
   32.5980   29.3990   34.4720 Cl  0  0  0  0  0  0  0  0  0  0  0  0
   33.5940   30.5090   35.4000 C   0  0  0  0  0  0  0  0  0  0  0  0
   34.9130   30.6170   35.0900 C   0  0  0  0  0  0  0  0  0  0  0  0
   35.6520   31.5140   35.8710 C   0  0  0  0  0  0  0  0  0  0  0  0
   35.0230   32.2260   36.8900 C   0  0  0  0  0  0  0  0  0  0  0  0
   33.6940   32.0820   37.1610 C   0  0  0  0  0  0  0  0  0  0  0  0
   32.9680   31.2010   36.3940 C   0  0  0  0  0  0  0  0  0  0  0  0
   36.7170   31.6460   35.6720 H   0  0  0  0  0  0  0  0  0  0  0  0
   35.6430   32.9040   37.4610 H   0  0  0  0  0  0  0  0  0  0  0  0
   33.2150   32.6450   37.9570 H   0  0  0  0  0  0  0  0  0  0  0  0
   36.1230   28.6030   34.2590 C   0  0  0  0  0  0  0  0  0  0  0  0
   35.5810   29.8710   34.0160 C   0  0  0  0  0  0  0  0  0  0  0  0
   35.6900   30.4070   32.7420 C   0  0  0  0  0  0  0  0  0  0  0  0
   36.3170   29.6830   31.7790 N   0  0  0  0  0  0  0  0  0  0  0  0
   36.8290   28.4670   32.0360 C   0  0  0  0  0  0  0  0  0  0  0  0
   36.7390   27.9130   33.2760 N   0  0  0  0  0  0  0  0  0  0  0  0
   35.9990   28.2530   35.2690 H   0  0  0  0  0  0  0  0  0  0  0  0
   35.2790   31.3900   32.5230 H   0  0  0  0  0  0  0  0  0  0  0  0
   37.3270   27.8960   31.2640 H   0  0  0  0  0  0  0  0  0  0  0  0
   31.5090   31.0220   36.6710 C   0  0  0  0  0  2  0  0  0  0  0  0
   30.7170   32.2870   36.4730 C   0  0  0  0  0  2  0  0  0  0  0  0
   29.7670   32.0910   35.9340 H   0  0  0  0  0  0  0  0  0  0  0  0
  1  2  1  0  0  0  0
  2  7  1  0  0  0  0
  3  2  2  0  0  0  0
  3  4  1  0  0  0  0
  4  5  2  0  0  0  0
  5  6  1  0  0  0  0
  5  9  1  0  0  0  0
  6 10  1  0  0  0  0
  7 20  1  0  0  0  0
  7  6  2  0  0  0  0
  8  4  1  0  0  0  0
 11 17  1  0  0  0  0
 12 11  1  0  0  0  0
 12  3  1  0  0  0  0
 13 12  2  0  0  0  0
 14 15  2  0  0  0  0
 14 13  1  0  0  0  0
 15 16  1  0  0  0  0
 16 11  2  0  0  0  0
 18 13  1  0  0  0  0
 19 15  1  0  0  0  0
 21 20  1  0  0  0  0
 22 21  1  0  0  0  0
M  END
>  <minimizedAffinity>
-4.38474751

$$$$

 OpenBabel03272505013D

 22 23  0  0  0  0  0  0  0  0999 V2000
   37.7970   23.6800   32.8680 Cl  0  0  0  0  0  0  0  0  0  0  0  0
   37.4840   25.2990   33.4710 C   0  0  0  0  0  0  0  0  0  0  0  0
   37.8190   25.5940   34.7550 C   0  0  0  0  0  0  0  0  0  0  0  0
   37.5380   26.8990   35.1750 C   0  0  0  0  0  0  0  0  0  0  0  0
   36.9510   27.8000   34.2890 C   0  0  0  0  0  0  0  0  0  0  0  0
   36.6340   27.4550   33.0090 C   0  0  0  0  0  0  0  0  0  0  0  0
   36.9100   26.1720   32.5960 C   0  0  0  0  0  0  0  0  0  0  0  0
   37.7840   27.1980   36.1960 H   0  0  0  0  0  0  0  0  0  0  0  0
   36.7560   28.7940   34.6690 H   0  0  0  0  0  0  0  0  0  0  0  0
   36.1780   28.1670   32.3270 H   0  0  0  0  0  0  0  0  0  0  0  0
   39.7630   24.2270   35.5090 C   0  0  0  0  0  0  0  0  0  0  0  0
   38.4400   24.6490   35.6930 C   0  0  0  0  0  0  0  0  0  0  0  0
   37.7300   24.1550   36.7770 C   0  0  0  0  0  0  0  0  0  0  0  0
   38.3430   23.2830   37.6180 N   0  0  0  0  0  0  0  0  0  0  0  0
   39.6150   22.8920   37.4210 C   0  0  0  0  0  0  0  0  0  0  0  0
   40.3390   23.3590   36.3660 N   0  0  0  0  0  0  0  0  0  0  0  0
   40.2490   24.6530   34.6480 H   0  0  0  0  0  0  0  0  0  0  0  0
   36.7020   24.4640   36.9460 H   0  0  0  0  0  0  0  0  0  0  0  0
   40.0970   22.1980   38.0950 H   0  0  0  0  0  0  0  0  0  0  0  0
   36.5720   25.7670   31.1970 C   0  0  0  0  0  2  0  0  0  0  0  0
   35.1290   25.3710   31.0350 C   0  0  0  0  0  2  0  0  0  0  0  0
   34.6920   25.7970   30.1080 H   0  0  0  0  0  0  0  0  0  0  0  0
  1  2  1  0  0  0  0
  2  3  1  0  0  0  0
  3  4  2  0  0  0  0
  3 12  1  0  0  0  0
  4  8  1  0  0  0  0
  5  9  1  0  0  0  0
  5  4  1  0  0  0  0
  6  5  2  0  0  0  0
  7  6  1  0  0  0  0
  7  2  2  0  0  0  0
 10  6  1  0  0  0  0
 11 12  2  0  0  0  0
 11 16  1  0  0  0  0
 12 13  1  0  0  0  0
 13 18  1  0  0  0  0
 13 14  2  0  0  0  0
 15 14  1  0  0  0  0
 15 19  1  0  0  0  0
 16 15  2  0  0  0  0
 17 11  1  0  0  0  0
 20  7  1  0  0  0  0
 21 20  1  0  0  0  0
 22 21  1  0  0  0  0
M  END
>  <minimizedAffinity>
-4.37649727

$$$$

 OpenBabel03272505013D

 22 23  0  0  0  0  0  0  0  0999 V2000
   41.0430   24.5870   34.2740 Cl  0  0  0  0  0  0  0  0  0  0  0  0
   40.2820   23.9800   35.7350 C   0  0  0  0  0  0  0  0  0  0  0  0
   39.0760   24.4880   36.1030 C   0  0  0  0  0  0  0  0  0  0  0  0
   38.5270   23.9670   37.2800 C   0  0  0  0  0  0  0  0  0  0  0  0
   39.2170   22.9870   37.9910 C   0  0  0  0  0  0  0  0  0  0  0  0
   40.4260   22.5090   37.5800 C   0  0  0  0  0  0  0  0  0  0  0  0
   40.9660   23.0220   36.4230 C   0  0  0  0  0  0  0  0  0  0  0  0
   37.5600   24.3340   37.6290 H   0  0  0  0  0  0  0  0  0  0  0  0
   38.7450   22.6220   38.8940 H   0  0  0  0  0  0  0  0  0  0  0  0
   40.9530   21.7440   38.1420 H   0  0  0  0  0  0  0  0  0  0  0  0
   37.7400   25.2170   34.1280 C   0  0  0  0  0  0  0  0  0  0  0  0
   38.3430   25.5190   35.3560 C   0  0  0  0  0  0  0  0  0  0  0  0
   38.2340   26.8100   35.8500 C   0  0  0  0  0  0  0  0  0  0  0  0
   37.5480   27.7320   35.1260 N   0  0  0  0  0  0  0  0  0  0  0  0
   36.9770   27.4180   33.9500 C   0  0  0  0  0  0  0  0  0  0  0  0
   37.0660   26.1600   33.4370 N   0  0  0  0  0  0  0  0  0  0  0  0
   37.8660   24.1960   33.8120 H   0  0  0  0  0  0  0  0  0  0  0  0
   38.6920   27.0750   36.8000 H   0  0  0  0  0  0  0  0  0  0  0  0
   36.4320   28.1570   33.3790 H   0  0  0  0  0  0  0  0  0  0  0  0
   42.2910   22.5160   35.9490 C   0  0  0  0  0  2  0  0  0  0  0  0
   43.4510   23.2660   36.5470 C   0  0  0  0  0  2  0  0  0  0  0  0
   44.2600   22.5760   36.8640 H   0  0  0  0  0  0  0  0  0  0  0  0
  1  2  1  0  0  0  0
  2  3  2  0  0  0  0
  2  7  1  0  0  0  0
  3  4  1  0  0  0  0
  4  8  1  0  0  0  0
  4  5  2  0  0  0  0
  5  9  1  0  0  0  0
  6  5  1  0  0  0  0
  6 10  1  0  0  0  0
  7  6  2  0  0  0  0
 11 12  1  0  0  0  0
 12 13  2  0  0  0  0
 12  3  1  0  0  0  0
 13 18  1  0  0  0  0
 14 13  1  0  0  0  0
 15 14  2  0  0  0  0
 16 15  1  0  0  0  0
 16 11  2  0  0  0  0
 17 11  1  0  0  0  0
 19 15  1  0  0  0  0
 20  7  1  0  0  0  0
 20 21  1  0  0  0  0
 21 22  1  0  0  0  0
M  END
>  <minimizedAffinity>
-4.35817957

$$$$

 OpenBabel03272505013D

 22 23  0  0  0  0  0  0  0  0999 V2000
   38.4170   23.9440   33.2250 Cl  0  0  0  0  0  0  0  0  0  0  0  0
   37.2930   22.6160   33.4640 C   0  0  0  0  0  0  0  0  0  0  0  0
   37.2890   21.9720   34.6610 C   0  0  0  0  0  0  0  0  0  0  0  0
   36.3750   20.9190   34.7850 C   0  0  0  0  0  0  0  0  0  0  0  0
   35.5440   20.5940   33.7150 C   0  0  0  0  0  0  0  0  0  0  0  0
   35.5870   21.2710   32.5320 C   0  0  0  0  0  0  0  0  0  0  0  0
   36.4860   22.3060   32.4110 C   0  0  0  0  0  0  0  0  0  0  0  0
   36.3230   20.3630   35.7230 H   0  0  0  0  0  0  0  0  0  0  0  0
   34.8590   19.7710   33.8680 H   0  0  0  0  0  0  0  0  0  0  0  0
   34.9330   21.0090   31.7060 H   0  0  0  0  0  0  0  0  0  0  0  0
   37.6640   23.0390   36.8830 C   0  0  0  0  0  0  0  0  0  0  0  0
   38.1600   22.3120   35.7940 C   0  0  0  0  0  0  0  0  0  0  0  0
   39.4910   21.9220   35.8070 C   0  0  0  0  0  0  0  0  0  0  0  0
   40.2610   22.2580   36.8740 N   0  0  0  0  0  0  0  0  0  0  0  0
   39.7620   22.9570   37.9090 C   0  0  0  0  0  0  0  0  0  0  0  0
   38.4600   23.3550   37.9260 N   0  0  0  0  0  0  0  0  0  0  0  0
   36.6240   23.3050   36.8020 H   0  0  0  0  0  0  0  0  0  0  0  0
   39.9060   21.3560   34.9760 H   0  0  0  0  0  0  0  0  0  0  0  0
   40.3810   23.2210   38.7540 H   0  0  0  0  0  0  0  0  0  0  0  0
   36.5540   23.0650   31.1240 C   0  0  0  0  0  2  0  0  0  0  0  0
   35.5650   24.1980   31.0600 C   0  0  0  0  0  2  0  0  0  0  0  0
   36.0260   25.1150   30.6370 H   0  0  0  0  0  0  0  0  0  0  0  0
  1  2  1  0  0  0  0
  2  3  1  0  0  0  0
  3  4  2  0  0  0  0
  3 12  1  0  0  0  0
  4  8  1  0  0  0  0
  5  9  1  0  0  0  0
  5  4  1  0  0  0  0
  6  5  2  0  0  0  0
  7  6  1  0  0  0  0
  7  2  2  0  0  0  0
 10  6  1  0  0  0  0
 11 16  1  0  0  0  0
 12 13  1  0  0  0  0
 12 11  2  0  0  0  0
 13 14  2  0  0  0  0
 14 15  1  0  0  0  0
 15 16  2  0  0  0  0
 15 19  1  0  0  0  0
 17 11  1  0  0  0  0
 18 13  1  0  0  0  0
 20  7  1  0  0  0  0
 21 20  1  0  0  0  0
 22 21  1  0  0  0  0
M  END
>  <minimizedAffinity>
-4.2656188

$$$$

 OpenBabel03272505013D

 22 23  0  0  0  0  0  0  0  0999 V2000
   38.3110   26.8740   36.1600 Cl  0  0  0  0  0  0  0  0  0  0  0  0
   37.9010   25.9260   34.7400 C   0  0  0  0  0  0  0  0  0  0  0  0
   38.3040   24.6290   34.6830 C   0  0  0  0  0  0  0  0  0  0  0  0
   37.9510   23.9310   33.5220 C   0  0  0  0  0  0  0  0  0  0  0  0
   37.2290   24.5750   32.5200 C   0  0  0  0  0  0  0  0  0  0  0  0
   36.8470   25.8800   32.6250 C   0  0  0  0  0  0  0  0  0  0  0  0
   37.1950   26.5670   33.7660 C   0  0  0  0  0  0  0  0  0  0  0  0
   38.2440   22.8850   33.4160 H   0  0  0  0  0  0  0  0  0  0  0  0
   36.9840   23.9870   31.6450 H   0  0  0  0  0  0  0  0  0  0  0  0
   36.2830   26.3710   31.8370 H   0  0  0  0  0  0  0  0  0  0  0  0
   40.4320   23.6910   35.5820 C   0  0  0  0  0  0  0  0  0  0  0  0
   39.0630   23.9440   35.7370 C   0  0  0  0  0  0  0  0  0  0  0  0
   38.4400   23.5330   36.9060 C   0  0  0  0  0  0  0  0  0  0  0  0
   39.1790   22.9020   37.8550 N   0  0  0  0  0  0  0  0  0  0  0  0
   40.4920   22.6710   37.6830 C   0  0  0  0  0  0  0  0  0  0  0  0
   41.1330   23.0620   36.5480 N   0  0  0  0  0  0  0  0  0  0  0  0
   40.8440   24.0400   34.6520 H   0  0  0  0  0  0  0  0  0  0  0  0
   37.3780   23.7150   37.0550 H   0  0  0  0  0  0  0  0  0  0  0  0
   41.0740   22.1680   38.4430 H   0  0  0  0  0  0  0  0  0  0  0  0
   36.7900   27.9990   33.9080 C   0  0  0  0  0  2  0  0  0  0  0  0
   36.4360   28.6400   32.5930 C   0  0  0  0  0  2  0  0  0  0  0  0
   35.5200   29.2600   32.6770 H   0  0  0  0  0  0  0  0  0  0  0  0
  2  1  1  0  0  0  0
  3  2  1  0  0  0  0
  3 12  1  0  0  0  0
  4  3  2  0  0  0  0
  5  6  2  0  0  0  0
  5  4  1  0  0  0  0
  6  7  1  0  0  0  0
  7 20  1  0  0  0  0
  7  2  2  0  0  0  0
  8  4  1  0  0  0  0
  9  5  1  0  0  0  0
 10  6  1  0  0  0  0
 11 12  2  0  0  0  0
 11 16  1  0  0  0  0
 12 13  1  0  0  0  0
 13 18  1  0  0  0  0
 13 14  2  0  0  0  0
 15 14  1  0  0  0  0
 15 19  1  0  0  0  0
 16 15  2  0  0  0  0
 17 11  1  0  0  0  0
 21 22  1  0  0  0  0
 21 20  1  0  0  0  0
M  END
>  <minimizedAffinity>
-4.25508213

$$$$

 OpenBabel03272505013D

 22 23  0  0  0  0  0  0  0  0999 V2000
   35.9700   29.8320   34.9320 Cl  0  0  0  0  0  0  0  0  0  0  0  0
   36.2020   28.5020   33.8100 C   0  0  0  0  0  0  0  0  0  0  0  0
   35.4860   28.4900   32.6540 C   0  0  0  0  0  0  0  0  0  0  0  0
   35.7130   27.4000   31.8070 C   0  0  0  0  0  0  0  0  0  0  0  0
   36.6280   26.4160   32.1740 C   0  0  0  0  0  0  0  0  0  0  0  0
   37.3230   26.4730   33.3460 C   0  0  0  0  0  0  0  0  0  0  0  0
   37.1000   27.5450   34.1790 C   0  0  0  0  0  0  0  0  0  0  0  0
   35.1690   27.3330   30.8620 H   0  0  0  0  0  0  0  0  0  0  0  0
   36.7620   25.5970   31.4800 H   0  0  0  0  0  0  0  0  0  0  0  0
   38.0350   25.7000   33.6200 H   0  0  0  0  0  0  0  0  0  0  0  0
   34.9140   30.5890   31.4360 C   0  0  0  0  0  0  0  0  0  0  0  0
   34.5220   29.5260   32.2600 C   0  0  0  0  0  0  0  0  0  0  0  0
   33.2070   29.4740   32.6970 C   0  0  0  0  0  0  0  0  0  0  0  0
   32.3500   30.4530   32.3100 N   0  0  0  0  0  0  0  0  0  0  0  0
   32.7490   31.4640   31.5170 C   0  0  0  0  0  0  0  0  0  0  0  0
   34.0330   31.5440   31.0710 N   0  0  0  0  0  0  0  0  0  0  0  0
   35.9470   30.5600   31.1370 H   0  0  0  0  0  0  0  0  0  0  0  0
   32.8730   28.6620   33.3390 H   0  0  0  0  0  0  0  0  0  0  0  0
   32.0610   32.2400   31.2130 H   0  0  0  0  0  0  0  0  0  0  0  0
   37.8470   27.6320   35.4710 C   0  0  0  0  0  2  0  0  0  0  0  0
   39.2480   27.0910   35.3740 C   0  0  0  0  0  2  0  0  0  0  0  0
   39.9750   27.7490   35.8940 H   0  0  0  0  0  0  0  0  0  0  0  0
  2  7  1  0  0  0  0
  2  1  1  0  0  0  0
  3  2  2  0  0  0  0
  4  5  2  0  0  0  0
  4  3  1  0  0  0  0
  5  6  1  0  0  0  0
  6 10  1  0  0  0  0
  6  7  2  0  0  0  0
  7 20  1  0  0  0  0
  8  4  1  0  0  0  0
  9  5  1  0  0  0  0
 11 12  1  0  0  0  0
 12  3  1  0  0  0  0
 12 13  2  0  0  0  0
 13 18  1  0  0  0  0
 14 13  1  0  0  0  0
 15 14  2  0  0  0  0
 16 11  2  0  0  0  0
 16 15  1  0  0  0  0
 17 11  1  0  0  0  0
 19 15  1  0  0  0  0
 21 20  1  0  0  0  0
 21 22  1  0  0  0  0
M  END
>  <minimizedAffinity>
-4.12763309

$$$$

 OpenBabel03272505013D

 22 23  0  0  0  0  0  0  0  0999 V2000
   38.2880   23.5030   36.5800 Cl  0  0  0  0  0  0  0  0  0  0  0  0
   39.8610   23.9390   35.9350 C   0  0  0  0  0  0  0  0  0  0  0  0
   39.9750   25.0840   35.2100 C   0  0  0  0  0  0  0  0  0  0  0  0
   41.2540   25.3710   34.7190 C   0  0  0  0  0  0  0  0  0  0  0  0
   42.3100   24.5020   34.9870 C   0  0  0  0  0  0  0  0  0  0  0  0
   42.1440   23.3650   35.7210 C   0  0  0  0  0  0  0  0  0  0  0  0
   40.8870   23.0820   36.2030 C   0  0  0  0  0  0  0  0  0  0  0  0
   41.4110   26.2760   34.1300 H   0  0  0  0  0  0  0  0  0  0  0  0
   43.2750   24.7740   34.5820 H   0  0  0  0  0  0  0  0  0  0  0  0
   42.9750   22.6960   35.9240 H   0  0  0  0  0  0  0  0  0  0  0  0
   38.0210   25.7870   33.8310 C   0  0  0  0  0  0  0  0  0  0  0  0
   38.8670   26.0050   34.9260 C   0  0  0  0  0  0  0  0  0  0  0  0
   38.6360   27.1080   35.7340 C   0  0  0  0  0  0  0  0  0  0  0  0
   37.6010   27.9330   35.4350 N   0  0  0  0  0  0  0  0  0  0  0  0
   36.8020   27.7040   34.3780 C   0  0  0  0  0  0  0  0  0  0  0  0
   37.0020   26.6310   33.5650 N   0  0  0  0  0  0  0  0  0  0  0  0
   38.2610   24.9130   33.2520 H   0  0  0  0  0  0  0  0  0  0  0  0
   39.2760   27.3030   36.5920 H   0  0  0  0  0  0  0  0  0  0  0  0
   35.9790   28.3660   34.1450 H   0  0  0  0  0  0  0  0  0  0  0  0
   40.6760   21.8410   37.0100 C   0  0  0  0  0  2  0  0  0  0  0  0
   41.9650   21.1540   37.3730 C   0  0  0  0  0  2  0  0  0  0  0  0
   41.9620   20.8170   38.4310 H   0  0  0  0  0  0  0  0  0  0  0  0
  2  7  1  0  0  0  0
  2  1  1  0  0  0  0
  3  2  2  0  0  0  0
  4  5  2  0  0  0  0
  4  3  1  0  0  0  0
  5  6  1  0  0  0  0
  6 10  1  0  0  0  0
  6  7  2  0  0  0  0
  7 20  1  0  0  0  0
  8  4  1  0  0  0  0
  9  5  1  0  0  0  0
 11 12  1  0  0  0  0
 12  3  1  0  0  0  0
 12 13  2  0  0  0  0
 13 18  1  0  0  0  0
 14 13  1  0  0  0  0
 15 14  2  0  0  0  0
 16 11  2  0  0  0  0
 16 15  1  0  0  0  0
 17 11  1  0  0  0  0
 19 15  1  0  0  0  0
 20 21  1  0  0  0  0
 21 22  1  0  0  0  0
M  END
>  <minimizedAffinity>
-4.11814594

$$$$

 OpenBabel03272505013D

 22 23  0  0  0  0  0  0  0  0999 V2000
   38.3370   22.0950   30.1410 Cl  0  0  0  0  0  0  0  0  0  0  0  0
   36.9450   21.3750   30.9340 C   0  0  0  0  0  0  0  0  0  0  0  0
   36.1250   22.1750   31.6660 C   0  0  0  0  0  0  0  0  0  0  0  0
   35.0390   21.5390   32.2770 C   0  0  0  0  0  0  0  0  0  0  0  0
   34.8570   20.1680   32.1120 C   0  0  0  0  0  0  0  0  0  0  0  0
   35.7090   19.4080   31.3670 C   0  0  0  0  0  0  0  0  0  0  0  0
   36.7780   20.0330   30.7660 C   0  0  0  0  0  0  0  0  0  0  0  0
   34.3420   22.1270   32.8780 H   0  0  0  0  0  0  0  0  0  0  0  0
   34.0010   19.7300   32.6080 H   0  0  0  0  0  0  0  0  0  0  0  0
   35.5560   18.3400   31.2440 H   0  0  0  0  0  0  0  0  0  0  0  0
   37.2580   24.1150   32.7470 C   0  0  0  0  0  0  0  0  0  0  0  0
   36.3100   23.6220   31.8420 C   0  0  0  0  0  0  0  0  0  0  0  0
   35.5490   24.5270   31.1170 C   0  0  0  0  0  0  0  0  0  0  0  0
   35.7530   25.8560   31.3110 N   0  0  0  0  0  0  0  0  0  0  0  0
   36.6700   26.3060   32.1860 C   0  0  0  0  0  0  0  0  0  0  0  0
   37.4320   25.4430   32.9130 N   0  0  0  0  0  0  0  0  0  0  0  0
   37.8100   23.3540   33.2700 H   0  0  0  0  0  0  0  0  0  0  0  0
   34.8050   24.1740   30.4070 H   0  0  0  0  0  0  0  0  0  0  0  0
   36.8260   27.3650   32.3350 H   0  0  0  0  0  0  0  0  0  0  0  0
   37.7290   19.2240   29.9440 C   0  0  0  0  0  2  0  0  0  0  0  0
   37.0900   18.6480   28.7080 C   0  0  0  0  0  2  0  0  0  0  0  0
   37.7510   18.7530   27.8230 H   0  0  0  0  0  0  0  0  0  0  0  0
  1  2  1  0  0  0  0
  2  3  1  0  0  0  0
  3 12  1  0  0  0  0
  3  4  2  0  0  0  0
  4  8  1  0  0  0  0
  5  4  1  0  0  0  0
  5  9  1  0  0  0  0
  6  5  2  0  0  0  0
  7  2  2  0  0  0  0
  7  6  1  0  0  0  0
 10  6  1  0  0  0  0
 11 16  1  0  0  0  0
 11 17  1  0  0  0  0
 12 11  2  0  0  0  0
 13 14  2  0  0  0  0
 13 12  1  0  0  0  0
 14 15  1  0  0  0  0
 15 19  1  0  0  0  0
 15 16  2  0  0  0  0
 18 13  1  0  0  0  0
 20  7  1  0  0  0  0
 21 20  1  0  0  0  0
 22 21  1  0  0  0  0
M  END
>  <minimizedAffinity>
-4.10898161

$$$$
