
 OpenBabel03272509213D

 40 43  0  0  0  0  0  0  0  0999 V2000
   38.0310   31.3560   48.1830 C   0  0  0  0  0  0  0  0  0  0  0  0
   37.1980   31.6180   49.2600 C   0  0  0  0  0  0  0  0  0  0  0  0
   37.4220   32.8650   49.8480 C   0  0  0  0  0  0  0  0  0  0  0  0
   38.4010   33.7520   49.3760 C   0  0  0  0  0  0  0  0  0  0  0  0
   39.1850   33.3820   48.2790 C   0  0  0  0  0  0  0  0  0  0  0  0
   38.9840   32.1410   47.6720 C   0  0  0  0  0  0  0  0  0  0  0  0
   36.8270   33.1770   50.7020 H   0  0  0  0  0  0  0  0  0  0  0  0
   38.5700   34.7020   49.8280 H   0  0  0  0  0  0  0  0  0  0  0  0
   39.9400   34.0650   47.9150 H   0  0  0  0  0  0  0  0  0  0  0  0
   34.9880   30.6090   49.0630 C   0  0  0  0  0  0  0  0  0  0  0  0
   36.2030   30.7200   49.7420 C   0  0  0  0  0  0  0  0  0  0  0  0
   36.3790   29.9310   50.8780 C   0  0  0  0  0  0  0  0  0  0  0  0
   35.3840   29.1050   51.2700 N   0  0  0  0  0  0  0  0  0  0  0  0
   34.2130   29.0290   50.5750 C   0  0  0  0  0  0  0  0  0  0  0  0
   34.0140   29.7720   49.4820 N   0  0  0  0  0  0  0  0  0  0  0  0
   34.8120   31.2020   48.1790 H   0  0  0  0  0  0  0  0  0  0  0  0
   33.4080   28.3720   50.8750 H   0  0  0  0  0  0  0  0  0  0  0  0
   37.6650   30.0170   51.6380 C   0  0  0  0  0  0  0  0  0  0  0  0
   38.5170   29.9760   50.9080 H   0  0  0  0  0  0  0  0  0  0  0  0
   37.7610   29.1120   52.2760 H   0  0  0  0  0  0  0  0  0  0  0  0
   37.7220   30.8980   52.2900 H   0  0  0  0  0  0  0  0  0  0  0  0
   37.8850   30.1240   47.5220 O   0  0  0  0  0  0  0  0  0  0  0  0
   37.0970   29.9000   46.9650 H   0  0  0  0  0  0  0  0  0  0  0  0
   39.7990   31.8540   46.5950 O   0  0  0  0  0  0  0  0  0  0  0  0
   40.1390   31.4270   44.1760 C   0  0  0  0  0  0  0  0  0  0  0  0
   39.4540   31.8590   45.2870 C   0  0  0  0  0  0  0  0  0  0  0  0
   38.1840   32.4050   45.1000 C   0  0  0  0  0  0  0  0  0  0  0  0
   37.6170   32.5110   43.8220 C   0  0  0  0  0  0  0  0  0  0  0  0
   36.4560   32.9710   43.3310 N   0  0  0  0  0  0  0  0  0  0  0  0
   36.4170   32.8350   42.0020 C   0  0  0  0  0  0  0  0  0  0  0  0
   37.5980   32.2670   41.6350 N   0  0  0  0  0  0  0  0  0  0  0  0
   38.3580   32.0560   42.7450 C   0  0  0  0  0  0  0  0  0  0  0  0
   39.6150   31.5160   42.9110 C   0  0  0  0  0  0  0  0  0  0  0  0
   41.1300   31.0130   44.4060 H   0  0  0  0  0  0  0  0  0  0  0  0
   37.5210   32.7900   45.8710 H   0  0  0  0  0  0  0  0  0  0  0  0
   35.6830   33.3750   43.8680 H   0  0  0  0  0  0  0  0  0  0  0  0
   35.6180   33.1080   41.3050 H   0  0  0  0  0  0  0  0  0  0  0  0
   40.3860   31.0240   41.7470 C   0  0  0  0  0  0  0  0  0  0  0  0
   41.0390   29.7130   42.1820 C   0  0  0  0  0  0  0  0  0  0  0  0
   40.7280   28.8990   41.5170 H   0  0  0  0  0  0  0  0  0  0  0  0
  1  2  1  0  0  0  0
  2 11  1  0  0  0  0
  2  3  2  0  0  0  0
  3  7  1  0  0  0  0
  4  8  1  0  0  0  0
  4  3  1  0  0  0  0
  5  4  2  0  0  0  0
  6  1  2  0  0  0  0
  6  5  1  0  0  0  0
  9  5  1  0  0  0  0
 10 15  2  0  0  0  0
 10 11  1  0  0  0  0
 11 12  2  0  0  0  0
 12 13  1  0  0  0  0
 12 18  1  0  0  0  0
 14 17  1  0  0  0  0
 14 13  2  0  0  0  0
 15 14  1  0  0  0  0
 16 10  1  0  0  0  0
 18 20  1  0  0  0  0
 18 21  1  0  0  0  0
 19 18  1  0  0  0  0
 22  1  1  0  0  0  0
 23 22  1  0  0  0  0
 24  6  1  0  0  0  0
 25 34  1  0  0  0  0
 25 26  1  0  0  0  0
 26 24  1  0  0  0  0
 27 26  2  0  0  0  0
 27 35  1  0  0  0  0
 28 27  1  0  0  0  0
 29 28  1  0  0  0  0
 29 36  1  0  0  0  0
 30 29  1  0  0  0  0
 31 30  2  0  0  0  0
 31 32  1  0  0  0  0
 32 33  1  0  0  0  0
 32 28  2  0  0  0  0
 33 25  2  0  0  0  0
 37 30  1  0  0  0  0
 38 39  1  0  0  0  0
 38 33  1  0  0  0  0
 40 39  1  0  0  0  0
M  END
>  <minimizedAffinity>
-7.22475624

>  <minimizedRMSD>
0.998919189

$$$$
