
 OpenBabel03272509493D

 27 28  0  0  0  0  0  0  0  0999 V2000
   33.7970   28.6630   48.7480 C   0  0  0  0  0  0  0  0  0  0  0  0
   34.3050   29.0680   47.8310 H   0  0  0  0  0  0  0  0  0  0  0  0
   33.1690   29.4280   49.2550 H   0  0  0  0  0  0  0  0  0  0  0  0
   32.9090   27.5080   48.3640 C   0  0  0  0  0  0  0  0  0  0  0  0
   33.2580   27.0870   47.3800 H   0  0  0  0  0  0  0  0  0  0  0  0
   33.0180   26.6900   49.1150 H   0  0  0  0  0  0  0  0  0  0  0  0
   31.4830   27.8970   48.2820 C   0  0  0  0  0  0  0  0  0  0  0  0
   30.7160   27.7250   49.4190 C   0  0  0  0  0  0  0  0  0  0  0  0
   29.3820   28.0560   49.4440 C   0  0  0  0  0  0  0  0  0  0  0  0
   28.7880   28.5580   48.3530 N   0  0  0  0  0  0  0  0  0  0  0  0
   29.5530   28.7240   47.2380 C   0  0  0  0  0  0  0  0  0  0  0  0
   30.8540   28.4080   47.1930 N   0  0  0  0  0  0  0  0  0  0  0  0
   31.0780   27.3280   50.3620 H   0  0  0  0  0  0  0  0  0  0  0  0
   28.7390   27.9400   50.3050 H   0  0  0  0  0  0  0  0  0  0  0  0
   29.2390   29.1160   46.2710 H   0  0  0  0  0  0  0  0  0  0  0  0
   34.7580   28.2310   49.7040 O   0  0  0  0  0  0  0  0  0  0  0  0
   37.2820   30.1570   51.4550 C   0  0  0  0  0  0  0  0  0  0  0  0
   37.7650   30.9480   50.3870 C   0  0  0  0  0  0  0  0  0  0  0  0
   37.1860   30.7620   49.1370 C   0  0  0  0  0  0  0  0  0  0  0  0
   36.1940   29.8350   49.0120 N   0  0  0  0  0  0  0  0  0  0  0  0
   35.7600   29.1000   50.0540 C   0  0  0  0  0  0  0  0  0  0  0  0
   36.3150   29.2750   51.2640 N   0  0  0  0  0  0  0  0  0  0  0  0
   37.7530   30.3250   52.4150 H   0  0  0  0  0  0  0  0  0  0  0  0
   38.5540   31.6940   50.4560 H   0  0  0  0  0  0  0  0  0  0  0  0
   37.6360   31.5590   47.9420 C   0  0  0  0  0  2  0  0  0  0  0  0
   38.3690   30.7090   46.9370 C   0  0  0  0  0  2  0  0  0  0  0  0
   39.4640   30.7210   47.0800 H   0  0  0  0  0  0  0  0  0  0  0  0
  1  3  1  0  0  0  0
  1 16  1  0  0  0  0
  2  1  1  0  0  0  0
  4  1  1  0  0  0  0
  4  6  1  0  0  0  0
  5  4  1  0  0  0  0
  7  4  1  0  0  0  0
  7  8  1  0  0  0  0
  8  9  2  0  0  0  0
  8 13  1  0  0  0  0
  9 14  1  0  0  0  0
 10  9  1  0  0  0  0
 11 10  2  0  0  0  0
 12 11  1  0  0  0  0
 12  7  2  0  0  0  0
 15 11  1  0  0  0  0
 16 21  1  0  0  0  0
 17 23  1  0  0  0  0
 18 24  1  0  0  0  0
 18 17  2  0  0  0  0
 19 18  1  0  0  0  0
 20 19  2  0  0  0  0
 20 21  1  0  0  0  0
 21 22  2  0  0  0  0
 22 17  1  0  0  0  0
 25 19  1  0  0  0  0
 26 27  1  0  0  0  0
 26 25  1  0  0  0  0
M  END
>  <minimizedAffinity>
-4.68990564

>  <minimizedRMSD>
0.461023629

$$$$
