
 OpenBabel03272500323D

 38 40  0  0  1  0  0  0  0  0999 V2000
   36.9100   30.4460   46.4710 Cl  0  0  0  0  0  0  0  0  0  0  0  0
   37.5580   31.5420   47.6630 C   0  0  0  0  0  0  0  0  0  0  0  0
   38.6400   32.2570   47.2310 C   0  0  0  0  0  0  0  0  0  0  0  0
   39.1760   33.1980   48.1090 C   0  0  0  0  0  0  0  0  0  0  0  0
   38.5860   33.3530   49.3490 C   0  0  0  0  0  0  0  0  0  0  0  0
   37.4890   32.5800   49.6950 C   0  0  0  0  0  0  0  0  0  0  0  0
   36.9360   31.6530   48.8770 C   0  0  0  0  0  0  0  0  0  0  0  0
   40.0330   33.7940   47.8230 H   0  0  0  0  0  0  0  0  0  0  0  0
   38.9940   34.0870   50.0460 H   0  0  0  0  0  0  0  0  0  0  0  0
   37.0890   32.7690   50.6840 H   0  0  0  0  0  0  0  0  0  0  0  0
   35.8100   30.7590   49.2790 C   0  0  1  0  0  0  0  0  0  0  0  0
   34.8740   30.5990   48.1770 C   0  0  0  0  0  0  0  0  0  0  0  0
   33.8230   29.6490   48.7570 C   0  0  0  0  0  0  0  0  0  0  0  0
   34.5310   28.2970   48.6810 C   0  0  0  0  0  0  0  0  0  0  0  0
   35.8070   28.2450   49.4030 C   0  0  0  0  0  0  0  0  0  0  0  0
   36.3400   29.5030   49.9460 C   0  0  2  0  0  0  0  0  0  0  0  0
   35.3650   31.2720   50.1570 H   0  0  0  0  0  0  0  0  0  0  0  0
   35.0000   29.9250   47.3460 H   0  0  0  0  0  0  0  0  0  0  0  0
   34.3460   31.5420   47.9390 H   0  0  0  0  0  0  0  0  0  0  0  0
   32.9560   29.5870   48.0590 H   0  0  0  0  0  0  0  0  0  0  0  0
   33.4980   29.9400   49.7410 H   0  0  0  0  0  0  0  0  0  0  0  0
   33.7830   27.5620   48.9600 H   0  0  0  0  0  0  0  0  0  0  0  0
   34.6660   28.1500   47.5660 H   0  0  0  0  0  0  0  0  0  0  0  0
   36.5310   27.6910   48.7310 H   0  0  0  0  0  0  0  0  0  0  0  0
   35.6620   27.4850   50.2280 H   0  0  0  0  0  0  0  0  0  0  0  0
   37.4460   29.4920   49.6740 H   0  0  0  0  0  0  0  0  0  0  0  0
   36.3330   29.4980   51.4300 C   0  0  0  0  0  0  0  0  0  0  0  0
   37.5860   29.8370   52.1430 C   0  0  0  0  0  0  0  0  0  0  0  0
   37.3100   29.9610   53.2140 H   0  0  0  0  0  0  0  0  0  0  0  0
   39.1670   32.6620   43.6370 C   0  0  0  0  0  0  0  0  0  0  0  0
   40.1910   31.7620   43.3250 C   0  0  0  0  0  0  0  0  0  0  0  0
   40.7000   31.0160   44.3870 C   0  0  0  0  0  0  0  0  0  0  0  0
   40.1880   31.1970   45.6420 N   0  0  0  0  0  0  0  0  0  0  0  0
   39.2060   32.0750   45.8830 C   0  0  0  0  0  0  0  0  0  0  0  0
   38.6860   32.8170   44.8760 N   0  0  0  0  0  0  0  0  0  0  0  0
   38.7440   33.2600   42.8460 H   0  0  0  0  0  0  0  0  0  0  0  0
   40.5780   31.6340   42.3360 H   0  0  0  0  0  0  0  0  0  0  0  0
   41.4950   30.2900   44.2530 H   0  0  0  0  0  0  0  0  0  0  0  0
  1  2  1  0  0  0  0
  2  7  1  0  0  0  0
  3  2  2  0  0  0  0
  3  4  1  0  0  0  0
  4  5  2  0  0  0  0
  5  6  1  0  0  0  0
  5  9  1  0  0  0  0
  6 10  1  0  0  0  0
  7 11  1  0  0  0  0
  7  6  2  0  0  0  0
  8  4  1  0  0  0  0
 11 16  1  0  0  0  0
 11 17  1  1  0  0  0
 12 13  1  0  0  0  0
 12 11  1  0  0  0  0
 13 21  1  0  0  0  0
 14 13  1  0  0  0  0
 14 22  1  0  0  0  0
 14 15  1  0  0  0  0
 15 16  1  0  0  0  0
 15 25  1  0  0  0  0
 16 26  1  6  0  0  0
 16 27  1  0  0  0  0
 18 12  1  0  0  0  0
 19 12  1  0  0  0  0
 20 13  1  0  0  0  0
 23 14  1  0  0  0  0
 24 15  1  0  0  0  0
 27 28  1  0  0  0  0
 28 29  1  0  0  0  0
 30 35  1  0  0  0  0
 31 30  2  0  0  0  0
 31 32  1  0  0  0  0
 32 33  2  0  0  0  0
 33 34  1  0  0  0  0
 34  3  1  0  0  0  0
 35 34  2  0  0  0  0
 36 30  1  0  0  0  0
 37 31  1  0  0  0  0
 38 32  1  0  0  0  0
M  END
>  <minimizedAffinity>
-6.78783226

>  <minimizedRMSD>
2.29363203

$$$$
