
 OpenBabel03262521053D

 22 23  0  0  0  0  0  0  0  0999 V2000
   41.0040   24.4690   34.3100 Br  0  0  0  0  0  0  0  0  0  0  0  0
   40.1150   23.9500   35.9050 C   0  0  0  0  0  0  0  0  0  0  0  0
   38.9050   24.5460   36.1470 C   0  0  0  0  0  0  0  0  0  0  0  0
   38.1880   24.2060   37.3010 C   0  0  0  0  0  0  0  0  0  0  0  0
   38.7150   23.2720   38.1820 C   0  0  0  0  0  0  0  0  0  0  0  0
   39.9190   22.7130   37.8910 C   0  0  0  0  0  0  0  0  0  0  0  0
   40.6400   23.0290   36.7670 C   0  0  0  0  0  0  0  0  0  0  0  0
   37.2430   24.6230   37.5560 H   0  0  0  0  0  0  0  0  0  0  0  0
   38.2000   22.9720   39.0900 H   0  0  0  0  0  0  0  0  0  0  0  0
   40.3390   21.9860   38.5690 H   0  0  0  0  0  0  0  0  0  0  0  0
   37.6320   25.2670   34.0740 C   0  0  0  0  0  0  0  0  0  0  0  0
   38.2230   25.5430   35.3240 C   0  0  0  0  0  0  0  0  0  0  0  0
   38.1480   26.8610   35.7950 C   0  0  0  0  0  0  0  0  0  0  0  0
   37.5060   27.7950   35.0110 N   0  0  0  0  0  0  0  0  0  0  0  0
   36.9620   27.4800   33.8320 C   0  0  0  0  0  0  0  0  0  0  0  0
   37.0220   26.2160   33.3580 N   0  0  0  0  0  0  0  0  0  0  0  0
   37.7560   24.2210   33.8220 H   0  0  0  0  0  0  0  0  0  0  0  0
   38.5840   27.1510   36.7610 H   0  0  0  0  0  0  0  0  0  0  0  0
   36.4610   28.1730   33.2030 H   0  0  0  0  0  0  0  0  0  0  0  0
   41.9680   22.3900   36.5000 C   0  0  0  0  0  2  0  0  0  0  0  0
   42.0300   21.0880   37.2790 C   0  0  0  0  0  2  0  0  0  0  0  0
   41.5310   20.2560   36.7090 H   0  0  0  0  0  0  0  0  0  0  0  0
  1  2  1  0  0  0  0
  2  3  2  0  0  0  0
  2  7  1  0  0  0  0
  3  4  1  0  0  0  0
  4  8  1  0  0  0  0
  4  5  2  0  0  0  0
  5  9  1  0  0  0  0
  6  5  1  0  0  0  0
  6 10  1  0  0  0  0
  7  6  2  0  0  0  0
 11 12  1  0  0  0  0
 12 13  2  0  0  0  0
 12  3  1  0  0  0  0
 13 18  1  0  0  0  0
 14 13  1  0  0  0  0
 15 14  2  0  0  0  0
 16 15  1  0  0  0  0
 16 11  2  0  0  0  0
 17 11  1  0  0  0  0
 19 15  1  0  0  0  0
 20  7  1  0  0  0  0
 20 21  1  0  0  0  0
 22 21  1  0  0  0  0
M  END
>  <minimizedAffinity>
-4.4813962

$$$$

 OpenBabel03262521053D

 22 23  0  0  0  0  0  0  0  0999 V2000
   37.9420   23.5840   33.2340 Br  0  0  0  0  0  0  0  0  0  0  0  0
   37.8400   25.2870   34.0670 C   0  0  0  0  0  0  0  0  0  0  0  0
   38.4660   25.4070   35.2790 C   0  0  0  0  0  0  0  0  0  0  0  0
   38.4400   26.6360   35.9500 C   0  0  0  0  0  0  0  0  0  0  0  0
   37.7790   27.7130   35.3750 C   0  0  0  0  0  0  0  0  0  0  0  0
   37.1750   27.5360   34.1710 C   0  0  0  0  0  0  0  0  0  0  0  0
   37.1880   26.3420   33.4950 C   0  0  0  0  0  0  0  0  0  0  0  0
   38.9040   26.8080   36.8920 H   0  0  0  0  0  0  0  0  0  0  0  0
   37.7290   28.6880   35.8520 H   0  0  0  0  0  0  0  0  0  0  0  0
   36.6580   28.3660   33.7150 H   0  0  0  0  0  0  0  0  0  0  0  0
   40.4730   23.8990   35.6490 C   0  0  0  0  0  0  0  0  0  0  0  0
   39.1970   24.3730   36.0110 C   0  0  0  0  0  0  0  0  0  0  0  0
   38.5980   23.8080   37.1460 C   0  0  0  0  0  0  0  0  0  0  0  0
   39.2910   22.8320   37.8280 N   0  0  0  0  0  0  0  0  0  0  0  0
   40.5010   22.4180   37.4410 C   0  0  0  0  0  0  0  0  0  0  0  0
   41.0980   22.9480   36.3500 N   0  0  0  0  0  0  0  0  0  0  0  0
   40.8260   24.4100   34.7620 H   0  0  0  0  0  0  0  0  0  0  0  0
   37.6040   24.1280   37.4900 H   0  0  0  0  0  0  0  0  0  0  0  0
   41.0620   21.6690   37.9420 H   0  0  0  0  0  0  0  0  0  0  0  0
   36.4970   26.2000   32.1740 C   0  0  0  0  0  2  0  0  0  0  0  0
   35.8630   27.5350   31.8260 C   0  0  0  0  0  2  0  0  0  0  0  0
   36.6130   28.2200   31.3430 H   0  0  0  0  0  0  0  0  0  0  0  0
  1  2  1  0  0  0  0
  2  3  1  0  0  0  0
  3  4  2  0  0  0  0
  3 12  1  0  0  0  0
  4  8  1  0  0  0  0
  5  9  1  0  0  0  0
  5  4  1  0  0  0  0
  6  5  2  0  0  0  0
  7  2  2  0  0  0  0
  7  6  1  0  0  0  0
 10  6  1  0  0  0  0
 11 12  2  0  0  0  0
 11 16  1  0  0  0  0
 12 13  1  0  0  0  0
 13 18  1  0  0  0  0
 13 14  2  0  0  0  0
 15 14  1  0  0  0  0
 15 19  1  0  0  0  0
 16 15  2  0  0  0  0
 17 11  1  0  0  0  0
 20  7  1  0  0  0  0
 21 20  1  0  0  0  0
 22 21  1  0  0  0  0
M  END
>  <minimizedAffinity>
-4.4147315

$$$$

 OpenBabel03262521053D

 22 23  0  0  0  0  0  0  0  0999 V2000
   32.4270   29.4330   34.2280 Br  0  0  0  0  0  0  0  0  0  0  0  0
   33.4900   30.5500   35.3360 C   0  0  0  0  0  0  0  0  0  0  0  0
   34.8210   30.6290   35.0200 C   0  0  0  0  0  0  0  0  0  0  0  0
   35.6650   31.4400   35.7890 C   0  0  0  0  0  0  0  0  0  0  0  0
   35.1400   32.1500   36.8600 C   0  0  0  0  0  0  0  0  0  0  0  0
   33.8130   32.0330   37.1270 C   0  0  0  0  0  0  0  0  0  0  0  0
   32.9660   31.2470   36.3890 C   0  0  0  0  0  0  0  0  0  0  0  0
   36.7070   31.5540   35.6040 H   0  0  0  0  0  0  0  0  0  0  0  0
   35.7500   32.7930   37.4870 H   0  0  0  0  0  0  0  0  0  0  0  0
   33.3950   32.5800   37.9580 H   0  0  0  0  0  0  0  0  0  0  0  0
   35.6950   30.4830   32.6420 C   0  0  0  0  0  0  0  0  0  0  0  0
   35.5200   29.9450   33.9330 C   0  0  0  0  0  0  0  0  0  0  0  0
   36.0510   28.6710   34.1770 C   0  0  0  0  0  0  0  0  0  0  0  0
   36.7060   28.0320   33.1460 N   0  0  0  0  0  0  0  0  0  0  0  0
   36.8440   28.5880   31.9400 C   0  0  0  0  0  0  0  0  0  0  0  0
   36.3400   29.8160   31.6810 N   0  0  0  0  0  0  0  0  0  0  0  0
   35.2420   31.4650   32.5800 H   0  0  0  0  0  0  0  0  0  0  0  0
   35.9550   28.1880   35.1590 H   0  0  0  0  0  0  0  0  0  0  0  0
   37.3410   28.1250   31.1240 H   0  0  0  0  0  0  0  0  0  0  0  0
   31.5120   31.1470   36.7340 C   0  0  0  0  0  2  0  0  0  0  0  0
   30.8730   32.5020   36.4840 C   0  0  0  0  0  2  0  0  0  0  0  0
   30.5940   32.6180   35.4010 H   0  0  0  0  0  0  0  0  0  0  0  0
  1  2  1  0  0  0  0
  2  7  1  0  0  0  0
  3  2  2  0  0  0  0
  3  4  1  0  0  0  0
  4  5  2  0  0  0  0
  5  6  1  0  0  0  0
  5  9  1  0  0  0  0
  6 10  1  0  0  0  0
  7 20  1  0  0  0  0
  7  6  2  0  0  0  0
  8  4  1  0  0  0  0
 11 12  1  0  0  0  0
 12 13  2  0  0  0  0
 12  3  1  0  0  0  0
 13 18  1  0  0  0  0
 14 13  1  0  0  0  0
 15 14  2  0  0  0  0
 16 15  1  0  0  0  0
 16 11  2  0  0  0  0
 17 11  1  0  0  0  0
 19 15  1  0  0  0  0
 21 20  1  0  0  0  0
 22 21  1  0  0  0  0
M  END
>  <minimizedAffinity>
-4.33132744

$$$$

 OpenBabel03262521053D

 22 23  0  0  0  0  0  0  0  0999 V2000
   38.5340   27.0200   35.8330 Br  0  0  0  0  0  0  0  0  0  0  0  0
   37.9510   25.8960   34.4180 C   0  0  0  0  0  0  0  0  0  0  0  0
   38.2830   24.5710   34.5200 C   0  0  0  0  0  0  0  0  0  0  0  0
   37.8800   23.6800   33.5160 C   0  0  0  0  0  0  0  0  0  0  0  0
   37.1520   24.1560   32.4340 C   0  0  0  0  0  0  0  0  0  0  0  0
   36.8520   25.4800   32.3860 C   0  0  0  0  0  0  0  0  0  0  0  0
   37.2340   26.3710   33.3560 C   0  0  0  0  0  0  0  0  0  0  0  0
   38.0960   22.6390   33.5260 H   0  0  0  0  0  0  0  0  0  0  0  0
   36.8140   23.5080   31.6310 H   0  0  0  0  0  0  0  0  0  0  0  0
   36.2870   25.8610   31.5490 H   0  0  0  0  0  0  0  0  0  0  0  0
   38.4880   23.5190   36.8200 C   0  0  0  0  0  0  0  0  0  0  0  0
   39.0420   23.9220   35.5880 C   0  0  0  0  0  0  0  0  0  0  0  0
   40.4080   23.6830   35.3870 C   0  0  0  0  0  0  0  0  0  0  0  0
   41.1170   23.0740   36.3990 N   0  0  0  0  0  0  0  0  0  0  0  0
   40.5430   22.7110   37.5500 C   0  0  0  0  0  0  0  0  0  0  0  0
   39.2270   22.9320   37.7660 N   0  0  0  0  0  0  0  0  0  0  0  0
   37.4320   23.7570   36.8530 H   0  0  0  0  0  0  0  0  0  0  0  0
   40.9090   23.9680   34.4510 H   0  0  0  0  0  0  0  0  0  0  0  0
   41.0580   22.2410   38.3500 H   0  0  0  0  0  0  0  0  0  0  0  0
   36.8850   27.8240   33.2470 C   0  0  0  0  0  2  0  0  0  0  0  0
   37.2370   28.2900   31.8460 C   0  0  0  0  0  2  0  0  0  0  0  0
   36.4070   28.0510   31.1240 H   0  0  0  0  0  0  0  0  0  0  0  0
  2  3  1  0  0  0  0
  2  1  1  0  0  0  0
  3 12  1  0  0  0  0
  4  8  1  0  0  0  0
  4  3  2  0  0  0  0
  5  4  1  0  0  0  0
  6  5  2  0  0  0  0
  6  7  1  0  0  0  0
  7  2  2  0  0  0  0
  9  5  1  0  0  0  0
 10  6  1  0  0  0  0
 11 17  1  0  0  0  0
 11 16  1  0  0  0  0
 12 11  2  0  0  0  0
 13 12  1  0  0  0  0
 13 14  2  0  0  0  0
 14 15  1  0  0  0  0
 15 16  2  0  0  0  0
 15 19  1  0  0  0  0
 18 13  1  0  0  0  0
 20  7  1  0  0  0  0
 21 20  1  0  0  0  0
 22 21  1  0  0  0  0
M  END
>  <minimizedAffinity>
-4.2610898

$$$$

 OpenBabel03262521053D

 22 23  0  0  0  0  0  0  0  0999 V2000
   35.0130   32.1260   32.2830 Br  0  0  0  0  0  0  0  0  0  0  0  0
   35.7320   30.4120   32.6670 C   0  0  0  0  0  0  0  0  0  0  0  0
   35.5660   29.9570   33.9490 C   0  0  0  0  0  0  0  0  0  0  0  0
   36.0630   28.6970   34.3040 C   0  0  0  0  0  0  0  0  0  0  0  0
   36.7190   27.9300   33.3510 C   0  0  0  0  0  0  0  0  0  0  0  0
   36.8550   28.4310   32.0950 C   0  0  0  0  0  0  0  0  0  0  0  0
   36.3760   29.6610   31.7240 C   0  0  0  0  0  0  0  0  0  0  0  0
   35.9710   28.2750   35.2760 H   0  0  0  0  0  0  0  0  0  0  0  0
   37.1230   26.9460   33.5730 H   0  0  0  0  0  0  0  0  0  0  0  0
   37.3640   27.8430   31.3470 H   0  0  0  0  0  0  0  0  0  0  0  0
   33.5280   30.5460   35.3430 C   0  0  0  0  0  0  0  0  0  0  0  0
   34.9050   30.6430   35.0580 C   0  0  0  0  0  0  0  0  0  0  0  0
   35.6800   31.4550   35.8990 C   0  0  0  0  0  0  0  0  0  0  0  0
   35.0500   32.1010   36.9400 N   0  0  0  0  0  0  0  0  0  0  0  0
   33.7400   31.9740   37.1650 C   0  0  0  0  0  0  0  0  0  0  0  0
   32.9720   31.1970   36.3680 N   0  0  0  0  0  0  0  0  0  0  0  0
   33.0420   29.8950   34.6270 H   0  0  0  0  0  0  0  0  0  0  0  0
   36.7610   31.5790   35.7400 H   0  0  0  0  0  0  0  0  0  0  0  0
   33.2220   32.4570   37.9560 H   0  0  0  0  0  0  0  0  0  0  0  0
   36.5630   30.1700   30.3270 C   0  0  0  0  0  2  0  0  0  0  0  0
   37.1900   29.0610   29.5010 C   0  0  0  0  0  2  0  0  0  0  0  0
   36.4020   28.3520   29.1220 H   0  0  0  0  0  0  0  0  0  0  0  0
  1  2  1  0  0  0  0
  2  3  1  0  0  0  0
  3  4  2  0  0  0  0
  3 12  1  0  0  0  0
  4  8  1  0  0  0  0
  5  9  1  0  0  0  0
  5  4  1  0  0  0  0
  6  5  2  0  0  0  0
  7  6  1  0  0  0  0
  7  2  2  0  0  0  0
 10  6  1  0  0  0  0
 11 16  1  0  0  0  0
 12 11  2  0  0  0  0
 12 13  1  0  0  0  0
 13 14  2  0  0  0  0
 14 15  1  0  0  0  0
 15 19  1  0  0  0  0
 16 15  2  0  0  0  0
 17 11  1  0  0  0  0
 18 13  1  0  0  0  0
 20  7  1  0  0  0  0
 21 20  1  0  0  0  0
 22 21  1  0  0  0  0
M  END
>  <minimizedAffinity>
-4.23477459

$$$$

 OpenBabel03262521053D

 22 23  0  0  0  0  0  0  0  0999 V2000
   40.4800   24.8150   34.0880 Br  0  0  0  0  0  0  0  0  0  0  0  0
   39.6870   24.2690   35.7250 C   0  0  0  0  0  0  0  0  0  0  0  0
   40.3630   23.3140   36.4380 C   0  0  0  0  0  0  0  0  0  0  0  0
   39.8420   22.8680   37.6590 C   0  0  0  0  0  0  0  0  0  0  0  0
   38.6480   23.3990   38.1260 C   0  0  0  0  0  0  0  0  0  0  0  0
   38.0210   24.3430   37.3770 C   0  0  0  0  0  0  0  0  0  0  0  0
   38.5110   24.7970   36.1790 C   0  0  0  0  0  0  0  0  0  0  0  0
   40.3100   22.1330   38.2690 H   0  0  0  0  0  0  0  0  0  0  0  0
   38.2020   23.0890   39.0660 H   0  0  0  0  0  0  0  0  0  0  0  0
   37.0920   24.7620   37.7300 H   0  0  0  0  0  0  0  0  0  0  0  0
   41.7100   21.4740   35.3250 C   0  0  0  0  0  0  0  0  0  0  0  0
   41.6210   22.6610   36.0800 C   0  0  0  0  0  0  0  0  0  0  0  0
   42.8220   23.2400   36.5130 C   0  0  0  0  0  0  0  0  0  0  0  0
   44.0030   22.6150   36.1750 N   0  0  0  0  0  0  0  0  0  0  0  0
   44.0310   21.4900   35.4560 C   0  0  0  0  0  0  0  0  0  0  0  0
   42.8860   20.9130   35.0280 N   0  0  0  0  0  0  0  0  0  0  0  0
   40.7210   21.1270   35.0530 H   0  0  0  0  0  0  0  0  0  0  0  0
   42.8330   24.1660   37.1040 H   0  0  0  0  0  0  0  0  0  0  0  0
   44.9210   20.9820   35.1790 H   0  0  0  0  0  0  0  0  0  0  0  0
   37.7730   25.8330   35.3880 C   0  0  0  0  0  2  0  0  0  0  0  0
   38.1990   27.2010   35.8890 C   0  0  0  0  0  2  0  0  0  0  0  0
   39.1560   27.5270   35.3950 H   0  0  0  0  0  0  0  0  0  0  0  0
  1  2  1  0  0  0  0
  2  7  2  0  0  0  0
  2  3  1  0  0  0  0
  3  4  2  0  0  0  0
  4  5  1  0  0  0  0
  4  8  1  0  0  0  0
  5  9  1  0  0  0  0
  6 10  1  0  0  0  0
  6  5  2  0  0  0  0
  7  6  1  0  0  0  0
 11 12  1  0  0  0  0
 12  3  1  0  0  0  0
 12 13  2  0  0  0  0
 13 18  1  0  0  0  0
 14 13  1  0  0  0  0
 15 14  2  0  0  0  0
 16 11  2  0  0  0  0
 16 15  1  0  0  0  0
 17 11  1  0  0  0  0
 19 15  1  0  0  0  0
 20 21  1  0  0  0  0
 20  7  1  0  0  0  0
 22 21  1  0  0  0  0
M  END
>  <minimizedAffinity>
-4.19202757

$$$$

 OpenBabel03262521053D

 22 23  0  0  0  0  0  0  0  0999 V2000
   39.8190   26.0340   31.5200 Br  0  0  0  0  0  0  0  0  0  0  0  0
   39.1960   26.4100   33.2740 C   0  0  0  0  0  0  0  0  0  0  0  0
   37.8560   26.2300   33.4930 C   0  0  0  0  0  0  0  0  0  0  0  0
   37.3260   26.4810   34.7660 C   0  0  0  0  0  0  0  0  0  0  0  0
   38.1680   26.9080   35.7830 C   0  0  0  0  0  0  0  0  0  0  0  0
   39.4890   27.0690   35.5080 C   0  0  0  0  0  0  0  0  0  0  0  0
   40.0310   26.8290   34.2710 C   0  0  0  0  0  0  0  0  0  0  0  0
   36.2980   26.3620   35.0130 H   0  0  0  0  0  0  0  0  0  0  0  0
   37.8090   27.1150   36.7870 H   0  0  0  0  0  0  0  0  0  0  0  0
   40.1520   27.4010   36.2920 H   0  0  0  0  0  0  0  0  0  0  0  0
   36.5760   24.4420   32.2280 C   0  0  0  0  0  0  0  0  0  0  0  0
   36.8470   25.7910   32.5310 C   0  0  0  0  0  0  0  0  0  0  0  0
   36.0970   26.7650   31.8580 C   0  0  0  0  0  0  0  0  0  0  0  0
   35.1500   26.3440   30.9500 N   0  0  0  0  0  0  0  0  0  0  0  0
   34.9330   25.0500   30.6990 C   0  0  0  0  0  0  0  0  0  0  0  0
   35.6440   24.0920   31.3360 N   0  0  0  0  0  0  0  0  0  0  0  0
   37.2170   23.7900   32.8090 H   0  0  0  0  0  0  0  0  0  0  0  0
   36.2510   27.8380   32.0420 H   0  0  0  0  0  0  0  0  0  0  0  0
   34.2130   24.6890   30.0070 H   0  0  0  0  0  0  0  0  0  0  0  0
   41.4940   27.0330   34.0200 C   0  0  0  0  0  2  0  0  0  0  0  0
   42.2470   25.8810   34.6600 C   0  0  0  0  0  2  0  0  0  0  0  0
   42.2690   24.9880   33.9750 H   0  0  0  0  0  0  0  0  0  0  0  0
  1  2  1  0  0  0  0
  2  3  2  0  0  0  0
  2  7  1  0  0  0  0
  3  4  1  0  0  0  0
  4  8  1  0  0  0  0
  4  5  2  0  0  0  0
  5  9  1  0  0  0  0
  6  5  1  0  0  0  0
  6 10  1  0  0  0  0
  7  6  2  0  0  0  0
 11 12  1  0  0  0  0
 11 17  1  0  0  0  0
 12  3  1  0  0  0  0
 13 18  1  0  0  0  0
 13 12  2  0  0  0  0
 14 13  1  0  0  0  0
 15 14  2  0  0  0  0
 15 16  1  0  0  0  0
 16 11  2  0  0  0  0
 19 15  1  0  0  0  0
 20  7  1  0  0  0  0
 20 21  1  0  0  0  0
 22 21  1  0  0  0  0
M  END
>  <minimizedAffinity>
-4.18064356

$$$$

 OpenBabel03262521053D

 22 23  0  0  0  0  0  0  0  0999 V2000
   38.1160   22.7720   32.9650 Br  0  0  0  0  0  0  0  0  0  0  0  0
   37.7530   24.5850   33.3960 C   0  0  0  0  0  0  0  0  0  0  0  0
   38.1570   25.0070   34.6350 C   0  0  0  0  0  0  0  0  0  0  0  0
   37.9290   26.3340   35.0190 C   0  0  0  0  0  0  0  0  0  0  0  0
   37.2970   27.2010   34.1380 C   0  0  0  0  0  0  0  0  0  0  0  0
   36.9190   26.7270   32.9220 C   0  0  0  0  0  0  0  0  0  0  0  0
   37.1310   25.4330   32.5230 C   0  0  0  0  0  0  0  0  0  0  0  0
   38.2150   26.7360   35.9620 H   0  0  0  0  0  0  0  0  0  0  0  0
   37.0980   28.2390   34.3860 H   0  0  0  0  0  0  0  0  0  0  0  0
   36.4260   27.3920   32.2300 H   0  0  0  0  0  0  0  0  0  0  0  0
   38.1930   23.7360   36.8310 C   0  0  0  0  0  0  0  0  0  0  0  0
   38.8270   24.2200   35.6690 C   0  0  0  0  0  0  0  0  0  0  0  0
   40.1880   23.9240   35.5070 C   0  0  0  0  0  0  0  0  0  0  0  0
   40.8130   23.1850   36.4880 N   0  0  0  0  0  0  0  0  0  0  0  0
   40.1640   22.7510   37.5720 C   0  0  0  0  0  0  0  0  0  0  0  0
   38.8520   23.0230   37.7490 N   0  0  0  0  0  0  0  0  0  0  0  0
   37.1510   24.0290   36.8400 H   0  0  0  0  0  0  0  0  0  0  0  0
   40.7490   24.2670   34.6260 H   0  0  0  0  0  0  0  0  0  0  0  0
   40.6140   22.1800   38.3460 H   0  0  0  0  0  0  0  0  0  0  0  0
   36.6840   24.9600   31.1730 C   0  0  0  0  0  2  0  0  0  0  0  0
   35.1780   25.1380   31.0870 C   0  0  0  0  0  2  0  0  0  0  0  0
   34.9160   26.1910   30.7900 H   0  0  0  0  0  0  0  0  0  0  0  0
  1  2  1  0  0  0  0
  2  3  1  0  0  0  0
  3  4  2  0  0  0  0
  3 12  1  0  0  0  0
  4  8  1  0  0  0  0
  5  9  1  0  0  0  0
  5  4  1  0  0  0  0
  6  5  2  0  0  0  0
  7  6  1  0  0  0  0
  7  2  2  0  0  0  0
 10  6  1  0  0  0  0
 11 17  1  0  0  0  0
 11 16  1  0  0  0  0
 12 11  2  0  0  0  0
 13 12  1  0  0  0  0
 13 14  2  0  0  0  0
 14 15  1  0  0  0  0
 15 16  2  0  0  0  0
 15 19  1  0  0  0  0
 18 13  1  0  0  0  0
 20  7  1  0  0  0  0
 21 20  1  0  0  0  0
 22 21  1  0  0  0  0
M  END
>  <minimizedAffinity>
-4.1533165

$$$$

 OpenBabel03262521053D

 22 23  0  0  0  0  0  0  0  0999 V2000
   38.3200   27.0420   35.9920 Br  0  0  0  0  0  0  0  0  0  0  0  0
   38.1740   25.2200   35.4760 C   0  0  0  0  0  0  0  0  0  0  0  0
   38.2000   24.9670   34.1310 C   0  0  0  0  0  0  0  0  0  0  0  0
   38.1040   23.6450   33.6760 C   0  0  0  0  0  0  0  0  0  0  0  0
   37.9830   22.6140   34.5970 C   0  0  0  0  0  0  0  0  0  0  0  0
   37.9620   22.9250   35.9200 C   0  0  0  0  0  0  0  0  0  0  0  0
   38.0550   24.2100   36.3890 C   0  0  0  0  0  0  0  0  0  0  0  0
   38.1200   23.3690   32.6490 H   0  0  0  0  0  0  0  0  0  0  0  0
   37.9060   21.5730   34.2980 H   0  0  0  0  0  0  0  0  0  0  0  0
   37.8670   22.1310   36.6440 H   0  0  0  0  0  0  0  0  0  0  0  0
   39.5460   26.4210   32.5460 C   0  0  0  0  0  0  0  0  0  0  0  0
   38.3200   25.9370   33.0430 C   0  0  0  0  0  0  0  0  0  0  0  0
   37.1470   26.4270   32.4520 C   0  0  0  0  0  0  0  0  0  0  0  0
   37.2680   27.3430   31.4300 N   0  0  0  0  0  0  0  0  0  0  0  0
   38.4570   27.7700   30.9960 C   0  0  0  0  0  0  0  0  0  0  0  0
   39.6020   27.3120   31.5510 N   0  0  0  0  0  0  0  0  0  0  0  0
   40.3730   25.9710   33.0810 H   0  0  0  0  0  0  0  0  0  0  0  0
   36.1540   26.0940   32.7860 H   0  0  0  0  0  0  0  0  0  0  0  0
   38.5880   28.4740   30.2130 H   0  0  0  0  0  0  0  0  0  0  0  0
   38.0160   24.4970   37.8590 C   0  0  0  0  0  2  0  0  0  0  0  0
   38.7600   23.3850   38.5770 C   0  0  0  0  0  2  0  0  0  0  0  0
   39.8680   23.5840   38.5810 H   0  0  0  0  0  0  0  0  0  0  0  0
  2  1  1  0  0  0  0
  2  7  1  0  0  0  0
  3  2  2  0  0  0  0
  4  3  1  0  0  0  0
  4  5  2  0  0  0  0
  5  6  1  0  0  0  0
  6  7  2  0  0  0  0
  6 10  1  0  0  0  0
  7 20  1  0  0  0  0
  8  4  1  0  0  0  0
  9  5  1  0  0  0  0
 11 12  1  0  0  0  0
 11 17  1  0  0  0  0
 12  3  1  0  0  0  0
 13 18  1  0  0  0  0
 13 12  2  0  0  0  0
 14 13  1  0  0  0  0
 15 14  2  0  0  0  0
 15 16  1  0  0  0  0
 16 11  2  0  0  0  0
 19 15  1  0  0  0  0
 20 21  1  0  0  0  0
 21 22  1  0  0  0  0
M  END
>  <minimizedAffinity>
-4.13830185

$$$$
