
 OpenBabel03272504363D

 37 39  0  0  0  0  0  0  0  0999 V2000
   36.5620   22.2060   32.0850 C   0  0  0  0  0  0  0  0  0  0  0  0
   36.3990   23.4550   31.5120 C   0  0  0  0  0  0  0  0  0  0  0  0
   36.9880   24.5640   32.1120 C   0  0  0  0  0  0  0  0  0  0  0  0
   37.7060   24.3530   33.2530 N   0  0  0  0  0  0  0  0  0  0  0  0
   37.8440   23.0990   33.7900 C   0  0  0  0  0  0  0  0  0  0  0  0
   37.2770   22.0410   33.2100 N   0  0  0  0  0  0  0  0  0  0  0  0
   35.8230   23.5640   30.6140 H   0  0  0  0  0  0  0  0  0  0  0  0
   36.8890   25.5560   31.7020 H   0  0  0  0  0  0  0  0  0  0  0  0
   35.9760   21.0330   31.5100 N   0  0  0  0  0  0  0  0  0  0  0  0
   34.8100   20.3880   32.0940 C   0  0  0  0  0  0  0  0  0  0  0  0
   34.8820   18.9030   32.1640 C   0  0  0  0  0  0  0  0  0  0  0  0
   35.6770   18.2330   31.2190 N   0  0  0  0  0  0  0  0  0  0  0  0
   36.8730   18.9650   30.8430 C   0  0  0  0  0  0  0  0  0  0  0  0
   36.3780   20.3290   30.3620 C   0  0  0  0  0  0  0  0  0  0  0  0
   33.9260   20.7860   31.5290 H   0  0  0  0  0  0  0  0  0  0  0  0
   34.7140   20.7950   33.1270 H   0  0  0  0  0  0  0  0  0  0  0  0
   33.8270   18.5240   32.0420 H   0  0  0  0  0  0  0  0  0  0  0  0
   35.1910   18.5810   33.1800 H   0  0  0  0  0  0  0  0  0  0  0  0
   36.0230   17.3230   31.6160 H   0  0  0  0  0  0  0  0  0  0  0  0
   37.3670   18.4690   29.9920 H   0  0  0  0  0  0  0  0  0  0  0  0
   37.5580   19.1110   31.7080 H   0  0  0  0  0  0  0  0  0  0  0  0
   35.5790   20.1190   29.6240 H   0  0  0  0  0  0  0  0  0  0  0  0
   37.2530   20.7930   29.8280 H   0  0  0  0  0  0  0  0  0  0  0  0
   38.6220   22.9410   35.0070 C   0  0  0  0  0  0  0  0  0  0  0  0
   39.8440   22.3290   34.9720 C   0  0  0  0  0  0  0  0  0  0  0  0
   40.6270   22.1510   36.0950 C   0  0  0  0  0  0  0  0  0  0  0  0
   40.0980   22.6290   37.2610 N   0  0  0  0  0  0  0  0  0  0  0  0
   38.9080   23.2240   37.2930 C   0  0  0  0  0  0  0  0  0  0  0  0
   38.1510   23.3910   36.1750 N   0  0  0  0  0  0  0  0  0  0  0  0
   40.2150   21.9720   34.0410 H   0  0  0  0  0  0  0  0  0  0  0  0
   38.3850   23.7230   38.5830 C   0  0  0  0  0  0  0  0  0  0  0  0
   39.3730   23.7520   39.5490 F   0  0  0  0  0  0  0  0  0  0  0  0
   37.3730   22.8630   39.0090 F   0  0  0  0  0  0  0  0  0  0  0  0
   37.8060   24.9600   38.3990 F   0  0  0  0  0  0  0  0  0  0  0  0
   41.9420   21.5050   36.1230 C   0  0  0  0  0  2  0  0  0  0  0  0
   42.2890   20.9070   37.4520 C   0  0  0  0  0  2  0  0  0  0  0  0
   43.1740   20.2220   37.2980 H   0  0  0  0  0  0  0  0  0  0  0  0
  1  6  1  0  0  0  0
  2  1  2  0  0  0  0
  2  3  1  0  0  0  0
  3  4  2  0  0  0  0
  4  5  1  0  0  0  0
  5 24  1  0  0  0  0
  6  5  2  0  0  0  0
  7  2  1  0  0  0  0
  8  3  1  0  0  0  0
  9  1  1  0  0  0  0
  9 10  1  0  0  0  0
 10 11  1  0  0  0  0
 10 16  1  0  0  0  0
 11 18  1  0  0  0  0
 12 19  1  0  0  0  0
 12 11  1  0  0  0  0
 13 12  1  0  0  0  0
 13 21  1  0  0  0  0
 14 13  1  0  0  0  0
 14  9  1  0  0  0  0
 15 10  1  0  0  0  0
 17 11  1  0  0  0  0
 20 13  1  0  0  0  0
 22 14  1  0  0  0  0
 23 14  1  0  0  0  0
 24 29  1  0  0  0  0
 25 24  2  0  0  0  0
 25 26  1  0  0  0  0
 26 35  1  0  0  0  0
 26 27  2  0  0  0  0
 27 28  1  0  0  0  0
 28 31  1  0  0  0  0
 29 28  2  0  0  0  0
 30 25  1  0  0  0  0
 31 33  1  0  0  0  0
 31 32  1  0  0  0  0
 34 31  1  0  0  0  0
 35 36  1  0  0  0  0
 37 36  1  0  0  0  0
M  END
>  <minimizedAffinity>
-6.14386272

$$$$

 OpenBabel03272504363D

 37 39  0  0  0  0  0  0  0  0999 V2000
   37.7620   21.4950   31.8580 C   0  0  0  0  0  0  0  0  0  0  0  0
   38.9700   21.4650   31.1830 C   0  0  0  0  0  0  0  0  0  0  0  0
   40.0170   22.2700   31.6210 C   0  0  0  0  0  0  0  0  0  0  0  0
   39.7890   23.0580   32.7110 N   0  0  0  0  0  0  0  0  0  0  0  0
   38.5780   23.0590   33.3530 C   0  0  0  0  0  0  0  0  0  0  0  0
   37.5780   22.2860   32.9280 N   0  0  0  0  0  0  0  0  0  0  0  0
   39.0940   20.8260   30.3310 H   0  0  0  0  0  0  0  0  0  0  0  0
   40.9750   22.2800   31.1280 H   0  0  0  0  0  0  0  0  0  0  0  0
   36.6520   20.6880   31.4490 N   0  0  0  0  0  0  0  0  0  0  0  0
   35.2760   21.1380   31.5970 C   0  0  0  0  0  0  0  0  0  0  0  0
   34.3330   20.1130   32.1210 C   0  0  0  0  0  0  0  0  0  0  0  0
   34.6250   18.7590   31.8850 N   0  0  0  0  0  0  0  0  0  0  0  0
   36.0460   18.4610   31.9000 C   0  0  0  0  0  0  0  0  0  0  0  0
   36.6690   19.4060   30.8720 C   0  0  0  0  0  0  0  0  0  0  0  0
   34.9880   21.5710   30.6030 H   0  0  0  0  0  0  0  0  0  0  0  0
   35.3050   21.9990   32.3030 H   0  0  0  0  0  0  0  0  0  0  0  0
   33.3320   20.3260   31.6480 H   0  0  0  0  0  0  0  0  0  0  0  0
   34.1760   20.2570   33.2110 H   0  0  0  0  0  0  0  0  0  0  0  0
   34.2080   18.1600   32.6410 H   0  0  0  0  0  0  0  0  0  0  0  0
   36.2190   17.4300   31.5540 H   0  0  0  0  0  0  0  0  0  0  0  0
   36.4990   18.6590   32.8970 H   0  0  0  0  0  0  0  0  0  0  0  0
   36.0690   19.2890   29.9480 H   0  0  0  0  0  0  0  0  0  0  0  0
   37.7040   19.0060   30.6870 H   0  0  0  0  0  0  0  0  0  0  0  0
   38.3990   23.9220   34.5090 C   0  0  0  0  0  0  0  0  0  0  0  0
   38.1870   25.2620   34.3460 C   0  0  0  0  0  0  0  0  0  0  0  0
   38.0100   26.1290   35.4060 C   0  0  0  0  0  0  0  0  0  0  0  0
   38.0630   25.5580   36.6460 N   0  0  0  0  0  0  0  0  0  0  0  0
   38.2710   24.2520   36.8030 C   0  0  0  0  0  0  0  0  0  0  0  0
   38.4420   23.4140   35.7450 N   0  0  0  0  0  0  0  0  0  0  0  0
   38.1540   25.6620   33.3600 H   0  0  0  0  0  0  0  0  0  0  0  0
   38.3180   23.6880   38.1690 C   0  0  0  0  0  0  0  0  0  0  0  0
   37.2560   22.8330   38.3970 F   0  0  0  0  0  0  0  0  0  0  0  0
   38.2460   24.7390   39.0820 F   0  0  0  0  0  0  0  0  0  0  0  0
   39.5320   23.0670   38.3690 F   0  0  0  0  0  0  0  0  0  0  0  0
   37.7790   27.5720   35.2970 C   0  0  0  0  0  2  0  0  0  0  0  0
   36.6670   27.9320   34.3600 C   0  0  0  0  0  2  0  0  0  0  0  0
   36.3990   29.0140   34.5470 H   0  0  0  0  0  0  0  0  0  0  0  0
  1  6  1  0  0  0  0
  2  3  1  0  0  0  0
  2  1  2  0  0  0  0
  3  4  2  0  0  0  0
  4  5  1  0  0  0  0
  5 24  1  0  0  0  0
  6  5  2  0  0  0  0
  7  2  1  0  0  0  0
  8  3  1  0  0  0  0
  9 10  1  0  0  0  0
  9  1  1  0  0  0  0
 10 11  1  0  0  0  0
 10 16  1  0  0  0  0
 11 18  1  0  0  0  0
 12 13  1  0  0  0  0
 12 11  1  0  0  0  0
 12 19  1  0  0  0  0
 13 21  1  0  0  0  0
 14  9  1  0  0  0  0
 14 13  1  0  0  0  0
 15 10  1  0  0  0  0
 17 11  1  0  0  0  0
 20 13  1  0  0  0  0
 22 14  1  0  0  0  0
 23 14  1  0  0  0  0
 24 29  1  0  0  0  0
 25 24  2  0  0  0  0
 25 26  1  0  0  0  0
 26 27  2  0  0  0  0
 27 28  1  0  0  0  0
 28 31  1  0  0  0  0
 29 28  2  0  0  0  0
 30 25  1  0  0  0  0
 31 34  1  0  0  0  0
 31 32  1  0  0  0  0
 31 33  1  0  0  0  0
 35 26  1  0  0  0  0
 36 37  1  0  0  0  0
 36 35  1  0  0  0  0
M  END
>  <minimizedAffinity>
-6.05406046

$$$$

 OpenBabel03272504363D

 37 39  0  0  0  0  0  0  0  0999 V2000
   36.9830   24.3160   31.9930 C   0  0  0  0  0  0  0  0  0  0  0  0
   36.3020   23.2320   31.4670 C   0  0  0  0  0  0  0  0  0  0  0  0
   36.3790   22.0000   32.1100 C   0  0  0  0  0  0  0  0  0  0  0  0
   37.1350   21.9310   33.2440 N   0  0  0  0  0  0  0  0  0  0  0  0
   37.7940   23.0280   33.7340 C   0  0  0  0  0  0  0  0  0  0  0  0
   37.7170   24.2050   33.1120 N   0  0  0  0  0  0  0  0  0  0  0  0
   35.7220   23.3430   30.5720 H   0  0  0  0  0  0  0  0  0  0  0  0
   35.8660   21.1280   31.7390 H   0  0  0  0  0  0  0  0  0  0  0  0
   36.9380   25.6050   31.3700 N   0  0  0  0  0  0  0  0  0  0  0  0
   38.1440   26.2840   30.9190 C   0  0  0  0  0  0  0  0  0  0  0  0
   38.2090   27.7330   31.2490 C   0  0  0  0  0  0  0  0  0  0  0  0
   37.0010   28.4350   31.3980 N   0  0  0  0  0  0  0  0  0  0  0  0
   35.9370   27.6410   31.9860 C   0  0  0  0  0  0  0  0  0  0  0  0
   35.8160   26.4050   31.0950 C   0  0  0  0  0  0  0  0  0  0  0  0
   38.2340   26.0510   29.8250 H   0  0  0  0  0  0  0  0  0  0  0  0
   38.9970   25.7620   31.4080 H   0  0  0  0  0  0  0  0  0  0  0  0
   38.7820   28.2280   30.4130 H   0  0  0  0  0  0  0  0  0  0  0  0
   38.8260   27.8930   32.1580 H   0  0  0  0  0  0  0  0  0  0  0  0
   37.1320   29.2490   32.0510 H   0  0  0  0  0  0  0  0  0  0  0  0
   34.9820   28.1880   31.9300 H   0  0  0  0  0  0  0  0  0  0  0  0
   36.1860   27.3200   33.0220 H   0  0  0  0  0  0  0  0  0  0  0  0
   35.7410   26.7840   30.0560 H   0  0  0  0  0  0  0  0  0  0  0  0
   34.8380   25.9260   31.3780 H   0  0  0  0  0  0  0  0  0  0  0  0
   38.5830   22.8880   34.9460 C   0  0  0  0  0  0  0  0  0  0  0  0
   39.8220   22.3130   34.9030 C   0  0  0  0  0  0  0  0  0  0  0  0
   40.6160   22.1530   36.0210 C   0  0  0  0  0  0  0  0  0  0  0  0
   40.0780   22.6100   37.1920 N   0  0  0  0  0  0  0  0  0  0  0  0
   38.8710   23.1690   37.2320 C   0  0  0  0  0  0  0  0  0  0  0  0
   38.1040   23.3170   36.1180 N   0  0  0  0  0  0  0  0  0  0  0  0
   40.1990   21.9710   33.9680 H   0  0  0  0  0  0  0  0  0  0  0  0
   38.3390   23.6450   38.5270 C   0  0  0  0  0  0  0  0  0  0  0  0
   37.3040   22.8440   38.9720 F   0  0  0  0  0  0  0  0  0  0  0  0
   37.8540   24.9410   38.3530 F   0  0  0  0  0  0  0  0  0  0  0  0
   39.3630   23.7230   39.4450 F   0  0  0  0  0  0  0  0  0  0  0  0
   41.9500   21.5470   36.0400 C   0  0  0  0  0  2  0  0  0  0  0  0
   42.2750   20.8520   37.3260 C   0  0  0  0  0  2  0  0  0  0  0  0
   43.1870   20.2100   37.1470 H   0  0  0  0  0  0  0  0  0  0  0  0
  1  6  1  0  0  0  0
  2  1  2  0  0  0  0
  2  3  1  0  0  0  0
  3  4  2  0  0  0  0
  4  5  1  0  0  0  0
  5 24  1  0  0  0  0
  6  5  2  0  0  0  0
  7  2  1  0  0  0  0
  8  3  1  0  0  0  0
  9  1  1  0  0  0  0
 10 11  1  0  0  0  0
 10  9  1  0  0  0  0
 10 16  1  0  0  0  0
 11 12  1  0  0  0  0
 11 18  1  0  0  0  0
 12 13  1  0  0  0  0
 12 19  1  0  0  0  0
 13 21  1  0  0  0  0
 14  9  1  0  0  0  0
 14 23  1  0  0  0  0
 14 13  1  0  0  0  0
 15 10  1  0  0  0  0
 17 11  1  0  0  0  0
 20 13  1  0  0  0  0
 22 14  1  0  0  0  0
 24 29  1  0  0  0  0
 25 24  2  0  0  0  0
 25 26  1  0  0  0  0
 26 35  1  0  0  0  0
 26 27  2  0  0  0  0
 27 28  1  0  0  0  0
 28 31  1  0  0  0  0
 29 28  2  0  0  0  0
 30 25  1  0  0  0  0
 31 32  1  0  0  0  0
 31 34  1  0  0  0  0
 33 31  1  0  0  0  0
 35 36  1  0  0  0  0
 37 36  1  0  0  0  0
M  END
>  <minimizedAffinity>
-5.97072887

$$$$

 OpenBabel03272504363D

 37 39  0  0  0  0  0  0  0  0999 V2000
   38.1410   24.5000   34.7910 C   0  0  0  0  0  0  0  0  0  0  0  0
   37.9860   23.4740   33.8750 C   0  0  0  0  0  0  0  0  0  0  0  0
   37.4320   23.7500   32.6280 C   0  0  0  0  0  0  0  0  0  0  0  0
   37.0670   25.0400   32.3750 N   0  0  0  0  0  0  0  0  0  0  0  0
   37.2370   26.0280   33.3090 C   0  0  0  0  0  0  0  0  0  0  0  0
   37.7670   25.7580   34.5020 N   0  0  0  0  0  0  0  0  0  0  0  0
   38.2900   22.4770   34.1260 H   0  0  0  0  0  0  0  0  0  0  0  0
   37.2930   22.9840   31.8820 H   0  0  0  0  0  0  0  0  0  0  0  0
   38.7030   24.2710   36.0870 N   0  0  0  0  0  0  0  0  0  0  0  0
   39.9720   23.5800   36.2650 C   0  0  0  0  0  0  0  0  0  0  0  0
   39.9900   22.5710   37.3590 C   0  0  0  0  0  0  0  0  0  0  0  0
   39.1090   22.7480   38.4400 N   0  0  0  0  0  0  0  0  0  0  0  0
   37.8350   23.3320   38.0610 C   0  0  0  0  0  0  0  0  0  0  0  0
   38.1860   24.6350   37.3420 C   0  0  0  0  0  0  0  0  0  0  0  0
   40.7470   24.3850   36.3610 H   0  0  0  0  0  0  0  0  0  0  0  0
   40.1870   23.0700   35.2990 H   0  0  0  0  0  0  0  0  0  0  0  0
   41.0370   22.5690   37.7780 H   0  0  0  0  0  0  0  0  0  0  0  0
   39.8410   21.5520   36.9450 H   0  0  0  0  0  0  0  0  0  0  0  0
   38.8710   21.8190   38.8700 H   0  0  0  0  0  0  0  0  0  0  0  0
   37.2560   23.5930   38.9610 H   0  0  0  0  0  0  0  0  0  0  0  0
   37.2700   22.6740   37.3640 H   0  0  0  0  0  0  0  0  0  0  0  0
   38.8860   25.1740   38.0110 H   0  0  0  0  0  0  0  0  0  0  0  0
   37.2220   25.2130   37.2840 H   0  0  0  0  0  0  0  0  0  0  0  0
   36.8270   27.3830   32.9780 C   0  0  0  0  0  0  0  0  0  0  0  0
   36.9870   27.8630   31.7080 C   0  0  0  0  0  0  0  0  0  0  0  0
   36.6180   29.1390   31.3350 C   0  0  0  0  0  0  0  0  0  0  0  0
   36.0750   29.9060   32.3270 N   0  0  0  0  0  0  0  0  0  0  0  0
   35.9200   29.4370   33.5630 C   0  0  0  0  0  0  0  0  0  0  0  0
   36.2910   28.1750   33.9110 N   0  0  0  0  0  0  0  0  0  0  0  0
   37.4160   27.2280   30.9680 H   0  0  0  0  0  0  0  0  0  0  0  0
   35.3270   30.3110   34.5980 C   0  0  0  0  0  0  0  0  0  0  0  0
   36.1890   30.4860   35.6640 F   0  0  0  0  0  0  0  0  0  0  0  0
   34.1590   29.7100   35.0650 F   0  0  0  0  0  0  0  0  0  0  0  0
   34.9580   31.5110   34.0310 F   0  0  0  0  0  0  0  0  0  0  0  0
   36.7620   29.7110   29.9930 C   0  0  0  0  0  2  0  0  0  0  0  0
   37.5100   28.8270   29.0420 C   0  0  0  0  0  2  0  0  0  0  0  0
   37.3390   29.2250   27.9990 H   0  0  0  0  0  0  0  0  0  0  0  0
  1  9  1  0  0  0  0
  2  7  1  0  0  0  0
  2  1  2  0  0  0  0
  3  2  1  0  0  0  0
  4  3  2  0  0  0  0
  4  5  1  0  0  0  0
  5  6  2  0  0  0  0
  6  1  1  0  0  0  0
  8  3  1  0  0  0  0
  9 10  1  0  0  0  0
  9 14  1  0  0  0  0
 10 15  1  0  0  0  0
 10 11  1  0  0  0  0
 11 17  1  0  0  0  0
 11 12  1  0  0  0  0
 12 19  1  0  0  0  0
 13 12  1  0  0  0  0
 13 20  1  0  0  0  0
 14 22  1  0  0  0  0
 14 13  1  0  0  0  0
 16 10  1  0  0  0  0
 18 11  1  0  0  0  0
 21 13  1  0  0  0  0
 23 14  1  0  0  0  0
 24  5  1  0  0  0  0
 24 29  1  0  0  0  0
 25 24  2  0  0  0  0
 26 25  1  0  0  0  0
 26 27  2  0  0  0  0
 27 28  1  0  0  0  0
 28 29  2  0  0  0  0
 28 31  1  0  0  0  0
 30 25  1  0  0  0  0
 31 33  1  0  0  0  0
 31 32  1  0  0  0  0
 34 31  1  0  0  0  0
 35 26  1  0  0  0  0
 36 35  1  0  0  0  0
 37 36  1  0  0  0  0
M  END
>  <minimizedAffinity>
-5.94691515

$$$$

 OpenBabel03272504363D

 37 39  0  0  0  0  0  0  0  0999 V2000
   38.1230   24.6920   34.8220 C   0  0  0  0  0  0  0  0  0  0  0  0
   37.9960   23.7300   33.8350 C   0  0  0  0  0  0  0  0  0  0  0  0
   37.4310   24.0770   32.6120 C   0  0  0  0  0  0  0  0  0  0  0  0
   37.0250   25.3690   32.4530 N   0  0  0  0  0  0  0  0  0  0  0  0
   37.1680   26.2940   33.4550 C   0  0  0  0  0  0  0  0  0  0  0  0
   37.7100   25.9550   34.6250 N   0  0  0  0  0  0  0  0  0  0  0  0
   38.3320   22.7280   34.0150 H   0  0  0  0  0  0  0  0  0  0  0  0
   37.3120   23.3620   31.8140 H   0  0  0  0  0  0  0  0  0  0  0  0
   38.6970   24.3880   36.0980 N   0  0  0  0  0  0  0  0  0  0  0  0
   39.9490   23.6580   36.2260 C   0  0  0  0  0  0  0  0  0  0  0  0
   39.9550   22.5990   37.2710 C   0  0  0  0  0  0  0  0  0  0  0  0
   39.0940   22.7490   38.3720 N   0  0  0  0  0  0  0  0  0  0  0  0
   37.8310   23.3830   38.0390 C   0  0  0  0  0  0  0  0  0  0  0  0
   38.2070   24.7080   37.3760 C   0  0  0  0  0  0  0  0  0  0  0  0
   40.7470   24.4370   36.3470 H   0  0  0  0  0  0  0  0  0  0  0  0
   40.1380   23.1880   35.2330 H   0  0  0  0  0  0  0  0  0  0  0  0
   41.0070   22.5510   37.6750 H   0  0  0  0  0  0  0  0  0  0  0  0
   39.7740   21.6040   36.8130 H   0  0  0  0  0  0  0  0  0  0  0  0
   38.8370   21.8070   38.7630 H   0  0  0  0  0  0  0  0  0  0  0  0
   37.2720   23.6160   38.9590 H   0  0  0  0  0  0  0  0  0  0  0  0
   37.2390   22.7720   37.3220 H   0  0  0  0  0  0  0  0  0  0  0  0
   38.9300   25.1960   38.0590 H   0  0  0  0  0  0  0  0  0  0  0  0
   37.2580   25.3130   37.3590 H   0  0  0  0  0  0  0  0  0  0  0  0
   36.7160   27.6550   33.2210 C   0  0  0  0  0  0  0  0  0  0  0  0
   36.1400   28.3760   34.2300 C   0  0  0  0  0  0  0  0  0  0  0  0
   35.6920   29.6710   34.0680 C   0  0  0  0  0  0  0  0  0  0  0  0
   35.8610   30.1970   32.8170 N   0  0  0  0  0  0  0  0  0  0  0  0
   36.4210   29.4940   31.8360 C   0  0  0  0  0  0  0  0  0  0  0  0
   36.8560   28.2170   32.0170 N   0  0  0  0  0  0  0  0  0  0  0  0
   36.0290   27.9230   35.1880 H   0  0  0  0  0  0  0  0  0  0  0  0
   36.5780   30.1130   30.5030 C   0  0  0  0  0  0  0  0  0  0  0  0
   37.7210   30.8880   30.4390 F   0  0  0  0  0  0  0  0  0  0  0  0
   35.4740   30.9310   30.2650 F   0  0  0  0  0  0  0  0  0  0  0  0
   36.5650   29.1340   29.5340 F   0  0  0  0  0  0  0  0  0  0  0  0
   35.0690   30.4940   35.1080 C   0  0  0  0  0  2  0  0  0  0  0  0
   36.0330   31.3930   35.8190 C   0  0  0  0  0  2  0  0  0  0  0  0
   35.4300   32.1540   36.3960 H   0  0  0  0  0  0  0  0  0  0  0  0
  1  9  1  0  0  0  0
  2  7  1  0  0  0  0
  2  1  2  0  0  0  0
  3  2  1  0  0  0  0
  4  3  2  0  0  0  0
  4  5  1  0  0  0  0
  5  6  2  0  0  0  0
  6  1  1  0  0  0  0
  8  3  1  0  0  0  0
  9 10  1  0  0  0  0
  9 14  1  0  0  0  0
 10 15  1  0  0  0  0
 10 11  1  0  0  0  0
 11 17  1  0  0  0  0
 11 12  1  0  0  0  0
 12 19  1  0  0  0  0
 13 12  1  0  0  0  0
 13 20  1  0  0  0  0
 14 13  1  0  0  0  0
 14 22  1  0  0  0  0
 16 10  1  0  0  0  0
 18 11  1  0  0  0  0
 21 13  1  0  0  0  0
 23 14  1  0  0  0  0
 24  5  1  0  0  0  0
 24 25  1  0  0  0  0
 25 30  1  0  0  0  0
 26 25  2  0  0  0  0
 26 35  1  0  0  0  0
 27 26  1  0  0  0  0
 28 29  1  0  0  0  0
 28 27  2  0  0  0  0
 29 24  2  0  0  0  0
 31 28  1  0  0  0  0
 32 31  1  0  0  0  0
 33 31  1  0  0  0  0
 34 31  1  0  0  0  0
 35 36  1  0  0  0  0
 36 37  1  0  0  0  0
M  END
>  <minimizedAffinity>
-5.90945721

$$$$

 OpenBabel03272504363D

 37 39  0  0  0  0  0  0  0  0999 V2000
   37.2200   25.7310   32.3190 C   0  0  0  0  0  0  0  0  0  0  0  0
   36.6580   24.7920   31.4720 C   0  0  0  0  0  0  0  0  0  0  0  0
   36.7710   23.4400   31.7800 C   0  0  0  0  0  0  0  0  0  0  0  0
   37.4420   23.1110   32.9210 N   0  0  0  0  0  0  0  0  0  0  0  0
   37.9860   24.0710   33.7350 C   0  0  0  0  0  0  0  0  0  0  0  0
   37.8740   25.3650   33.4330 N   0  0  0  0  0  0  0  0  0  0  0  0
   36.1400   25.1070   30.5870 H   0  0  0  0  0  0  0  0  0  0  0  0
   36.3490   22.6730   31.1520 H   0  0  0  0  0  0  0  0  0  0  0  0
   37.1340   27.1340   32.0480 N   0  0  0  0  0  0  0  0  0  0  0  0
   36.2130   28.0020   32.7660 C   0  0  0  0  0  0  0  0  0  0  0  0
   35.4740   28.9750   31.9170 C   0  0  0  0  0  0  0  0  0  0  0  0
   36.0720   29.3970   30.7170 N   0  0  0  0  0  0  0  0  0  0  0  0
   36.8520   28.3630   30.0630 C   0  0  0  0  0  0  0  0  0  0  0  0
   37.8590   27.8910   31.1120 C   0  0  0  0  0  0  0  0  0  0  0  0
   36.8130   28.4670   33.5930 H   0  0  0  0  0  0  0  0  0  0  0  0
   35.4800   27.3310   33.2690 H   0  0  0  0  0  0  0  0  0  0  0  0
   35.3090   29.8950   32.5490 H   0  0  0  0  0  0  0  0  0  0  0  0
   34.4570   28.5930   31.6900 H   0  0  0  0  0  0  0  0  0  0  0  0
   35.3350   29.6710   30.0200 H   0  0  0  0  0  0  0  0  0  0  0  0
   37.4210   28.7930   29.2230 H   0  0  0  0  0  0  0  0  0  0  0  0
   36.2190   27.5010   29.7530 H   0  0  0  0  0  0  0  0  0  0  0  0
   38.3410   28.8070   31.5060 H   0  0  0  0  0  0  0  0  0  0  0  0
   38.6260   27.2940   30.5430 H   0  0  0  0  0  0  0  0  0  0  0  0
   38.6890   23.6550   34.9370 C   0  0  0  0  0  0  0  0  0  0  0  0
   39.8790   22.9880   34.8460 C   0  0  0  0  0  0  0  0  0  0  0  0
   40.5910   22.5680   35.9520 C   0  0  0  0  0  0  0  0  0  0  0  0
   40.0250   22.8630   37.1600 N   0  0  0  0  0  0  0  0  0  0  0  0
   38.8660   23.5110   37.2460 C   0  0  0  0  0  0  0  0  0  0  0  0
   38.1790   23.9170   36.1440 N   0  0  0  0  0  0  0  0  0  0  0  0
   40.2800   22.7800   33.8820 H   0  0  0  0  0  0  0  0  0  0  0  0
   38.3000   23.8040   38.5810 C   0  0  0  0  0  0  0  0  0  0  0  0
   37.7730   25.0800   38.6350 F   0  0  0  0  0  0  0  0  0  0  0  0
   39.3230   23.7060   39.5230 F   0  0  0  0  0  0  0  0  0  0  0  0
   37.3650   22.8450   38.9050 F   0  0  0  0  0  0  0  0  0  0  0  0
   41.8690   21.8520   35.9200 C   0  0  0  0  0  2  0  0  0  0  0  0
   42.1110   21.0040   37.1320 C   0  0  0  0  0  2  0  0  0  0  0  0
   42.9690   20.3080   36.8960 H   0  0  0  0  0  0  0  0  0  0  0  0
  1  6  1  0  0  0  0
  2  3  1  0  0  0  0
  2  1  2  0  0  0  0
  3  4  2  0  0  0  0
  4  5  1  0  0  0  0
  5 24  1  0  0  0  0
  6  5  2  0  0  0  0
  7  2  1  0  0  0  0
  8  3  1  0  0  0  0
  9  1  1  0  0  0  0
  9 10  1  0  0  0  0
 10 16  1  0  0  0  0
 10 15  1  0  0  0  0
 11 17  1  0  0  0  0
 11 10  1  0  0  0  0
 12 11  1  0  0  0  0
 13 12  1  0  0  0  0
 13 14  1  0  0  0  0
 14 22  1  0  0  0  0
 14  9  1  0  0  0  0
 18 11  1  0  0  0  0
 19 12  1  0  0  0  0
 20 13  1  0  0  0  0
 21 13  1  0  0  0  0
 23 14  1  0  0  0  0
 24 29  1  0  0  0  0
 25 24  2  0  0  0  0
 25 26  1  0  0  0  0
 26 27  2  0  0  0  0
 27 28  1  0  0  0  0
 28 31  1  0  0  0  0
 29 28  2  0  0  0  0
 30 25  1  0  0  0  0
 31 32  1  0  0  0  0
 31 34  1  0  0  0  0
 31 33  1  0  0  0  0
 35 26  1  0  0  0  0
 35 36  1  0  0  0  0
 37 36  1  0  0  0  0
M  END
>  <minimizedAffinity>
-5.90437222

$$$$

 OpenBabel03272504363D

 37 39  0  0  0  0  0  0  0  0999 V2000
   39.5570   24.6600   35.0370 C   0  0  0  0  0  0  0  0  0  0  0  0
   40.8550   25.1300   34.9330 C   0  0  0  0  0  0  0  0  0  0  0  0
   41.1710   26.0480   33.9360 C   0  0  0  0  0  0  0  0  0  0  0  0
   40.1640   26.4400   33.1030 N   0  0  0  0  0  0  0  0  0  0  0  0
   38.8910   25.9520   33.2380 C   0  0  0  0  0  0  0  0  0  0  0  0
   38.5950   25.0710   34.1950 N   0  0  0  0  0  0  0  0  0  0  0  0
   41.6080   24.7880   35.6150 H   0  0  0  0  0  0  0  0  0  0  0  0
   42.1670   26.4420   33.8160 H   0  0  0  0  0  0  0  0  0  0  0  0
   39.1790   23.7140   36.0430 N   0  0  0  0  0  0  0  0  0  0  0  0
   38.0330   23.9320   36.9130 C   0  0  0  0  0  0  0  0  0  0  0  0
   38.2630   23.6120   38.3480 C   0  0  0  0  0  0  0  0  0  0  0  0
   39.2330   22.6470   38.6650 N   0  0  0  0  0  0  0  0  0  0  0  0
   40.3750   22.6550   37.7680 C   0  0  0  0  0  0  0  0  0  0  0  0
   39.7890   22.4900   36.3660 C   0  0  0  0  0  0  0  0  0  0  0  0
   37.1810   23.3730   36.4410 H   0  0  0  0  0  0  0  0  0  0  0  0
   37.7710   25.0110   36.8190 H   0  0  0  0  0  0  0  0  0  0  0  0
   37.2790   23.2430   38.7570 H   0  0  0  0  0  0  0  0  0  0  0  0
   38.4850   24.5390   38.9170 H   0  0  0  0  0  0  0  0  0  0  0  0
   39.6310   22.8310   39.6210 H   0  0  0  0  0  0  0  0  0  0  0  0
   41.0180   21.7830   37.9670 H   0  0  0  0  0  0  0  0  0  0  0  0
   40.9330   23.6170   37.8180 H   0  0  0  0  0  0  0  0  0  0  0  0
   39.1100   21.6160   36.4210 H   0  0  0  0  0  0  0  0  0  0  0  0
   40.6620   22.2300   35.7060 H   0  0  0  0  0  0  0  0  0  0  0  0
   37.8630   26.4100   32.3180 C   0  0  0  0  0  0  0  0  0  0  0  0
   38.0130   27.5910   31.6460 C   0  0  0  0  0  0  0  0  0  0  0  0
   37.0720   28.0760   30.7610 C   0  0  0  0  0  0  0  0  0  0  0  0
   35.9640   27.2930   30.5950 N   0  0  0  0  0  0  0  0  0  0  0  0
   35.8200   26.1430   31.2500 C   0  0  0  0  0  0  0  0  0  0  0  0
   36.7600   25.6820   32.1190 N   0  0  0  0  0  0  0  0  0  0  0  0
   38.8930   28.1680   31.8090 H   0  0  0  0  0  0  0  0  0  0  0  0
   34.6010   25.3360   31.0310 C   0  0  0  0  0  0  0  0  0  0  0  0
   34.3620   25.1390   29.6840 F   0  0  0  0  0  0  0  0  0  0  0  0
   33.5160   26.0200   31.5790 F   0  0  0  0  0  0  0  0  0  0  0  0
   34.7080   24.1450   31.7160 F   0  0  0  0  0  0  0  0  0  0  0  0
   37.1730   29.3320   30.0120 C   0  0  0  0  0  2  0  0  0  0  0  0
   36.3180   30.4310   30.5650 C   0  0  0  0  0  2  0  0  0  0  0  0
   36.6610   31.4000   30.0960 H   0  0  0  0  0  0  0  0  0  0  0  0
  1  9  1  0  0  0  0
  2  1  1  0  0  0  0
  2  7  1  0  0  0  0
  3  2  2  0  0  0  0
  4  5  2  0  0  0  0
  4  3  1  0  0  0  0
  5  6  1  0  0  0  0
  6  1  2  0  0  0  0
  8  3  1  0  0  0  0
  9 14  1  0  0  0  0
  9 10  1  0  0  0  0
 10 11  1  0  0  0  0
 11 12  1  0  0  0  0
 11 17  1  0  0  0  0
 11 18  1  0  0  0  0
 12 19  1  0  0  0  0
 13 21  1  0  0  0  0
 13 20  1  0  0  0  0
 13 12  1  0  0  0  0
 14 22  1  0  0  0  0
 14 13  1  0  0  0  0
 15 10  1  0  0  0  0
 16 10  1  0  0  0  0
 23 14  1  0  0  0  0
 24  5  1  0  0  0  0
 25 30  1  0  0  0  0
 25 24  2  0  0  0  0
 26 25  1  0  0  0  0
 27 26  2  0  0  0  0
 27 28  1  0  0  0  0
 28 29  2  0  0  0  0
 29 24  1  0  0  0  0
 31 28  1  0  0  0  0
 31 33  1  0  0  0  0
 31 34  1  0  0  0  0
 32 31  1  0  0  0  0
 35 36  1  0  0  0  0
 35 26  1  0  0  0  0
 37 36  1  0  0  0  0
M  END
>  <minimizedAffinity>
-5.7422266

$$$$

 OpenBabel03272504363D

 37 39  0  0  0  0  0  0  0  0999 V2000
   39.9030   27.0720   32.5110 C   0  0  0  0  0  0  0  0  0  0  0  0
   41.2130   27.3620   32.8510 C   0  0  0  0  0  0  0  0  0  0  0  0
   41.8110   26.6820   33.9080 C   0  0  0  0  0  0  0  0  0  0  0  0
   41.0580   25.7520   34.5610 N   0  0  0  0  0  0  0  0  0  0  0  0
   39.7630   25.4920   34.1950 C   0  0  0  0  0  0  0  0  0  0  0  0
   39.1950   26.1470   33.1820 N   0  0  0  0  0  0  0  0  0  0  0  0
   41.7590   28.1040   32.3030 H   0  0  0  0  0  0  0  0  0  0  0  0
   42.8280   26.8740   34.2080 H   0  0  0  0  0  0  0  0  0  0  0  0
   39.2400   27.7420   31.4340 N   0  0  0  0  0  0  0  0  0  0  0  0
   37.8310   28.1010   31.5010 C   0  0  0  0  0  0  0  0  0  0  0  0
   37.0510   27.8190   30.2650 C   0  0  0  0  0  0  0  0  0  0  0  0
   37.7340   27.8100   29.0370 N   0  0  0  0  0  0  0  0  0  0  0  0
   39.0890   27.2970   29.1300 C   0  0  0  0  0  0  0  0  0  0  0  0
   39.7720   28.1510   30.1990 C   0  0  0  0  0  0  0  0  0  0  0  0
   37.8050   29.1730   31.8340 H   0  0  0  0  0  0  0  0  0  0  0  0
   37.4000   27.5150   32.3440 H   0  0  0  0  0  0  0  0  0  0  0  0
   36.2550   28.6140   30.1990 H   0  0  0  0  0  0  0  0  0  0  0  0
   36.4980   26.8620   30.3700 H   0  0  0  0  0  0  0  0  0  0  0  0
   37.2450   27.1780   28.3540 H   0  0  0  0  0  0  0  0  0  0  0  0
   39.6210   27.4630   28.1800 H   0  0  0  0  0  0  0  0  0  0  0  0
   39.1060   26.2320   29.4500 H   0  0  0  0  0  0  0  0  0  0  0  0
   39.5770   29.2040   29.9180 H   0  0  0  0  0  0  0  0  0  0  0  0
   40.8720   27.9440   30.0890 H   0  0  0  0  0  0  0  0  0  0  0  0
   39.0140   24.4880   34.9320 C   0  0  0  0  0  0  0  0  0  0  0  0
   38.3760   23.4760   34.2690 C   0  0  0  0  0  0  0  0  0  0  0  0
   37.6510   22.4960   34.9150 C   0  0  0  0  0  0  0  0  0  0  0  0
   37.6080   22.5990   36.2780 N   0  0  0  0  0  0  0  0  0  0  0  0
   38.2290   23.5850   36.9200 C   0  0  0  0  0  0  0  0  0  0  0  0
   38.9390   24.5430   36.2650 N   0  0  0  0  0  0  0  0  0  0  0  0
   38.4380   23.4370   33.2070 H   0  0  0  0  0  0  0  0  0  0  0  0
   38.1480   23.6480   38.3960 C   0  0  0  0  0  0  0  0  0  0  0  0
   37.8350   24.9230   38.8290 F   0  0  0  0  0  0  0  0  0  0  0  0
   39.3910   23.2940   38.9200 F   0  0  0  0  0  0  0  0  0  0  0  0
   37.2430   22.7130   38.8480 F   0  0  0  0  0  0  0  0  0  0  0  0
   36.9470   21.3880   34.2640 C   0  0  0  0  0  2  0  0  0  0  0  0
   35.8450   20.8060   35.0940 C   0  0  0  0  0  2  0  0  0  0  0  0
   35.2110   20.1600   34.4180 H   0  0  0  0  0  0  0  0  0  0  0  0
  1  2  2  0  0  0  0
  1  6  1  0  0  0  0
  2  3  1  0  0  0  0
  3  8  1  0  0  0  0
  3  4  2  0  0  0  0
  5  4  1  0  0  0  0
  5 24  1  0  0  0  0
  6  5  2  0  0  0  0
  7  2  1  0  0  0  0
  9 10  1  0  0  0  0
  9  1  1  0  0  0  0
 10 15  1  0  0  0  0
 10 16  1  0  0  0  0
 11 18  1  0  0  0  0
 11 10  1  0  0  0  0
 12 13  1  0  0  0  0
 12 11  1  0  0  0  0
 13 21  1  0  0  0  0
 13 14  1  0  0  0  0
 14  9  1  0  0  0  0
 17 11  1  0  0  0  0
 19 12  1  0  0  0  0
 20 13  1  0  0  0  0
 22 14  1  0  0  0  0
 23 14  1  0  0  0  0
 24 29  1  0  0  0  0
 25 26  1  0  0  0  0
 25 24  2  0  0  0  0
 26 27  2  0  0  0  0
 27 28  1  0  0  0  0
 28 31  1  0  0  0  0
 29 28  2  0  0  0  0
 30 25  1  0  0  0  0
 31 32  1  0  0  0  0
 31 34  1  0  0  0  0
 31 33  1  0  0  0  0
 35 26  1  0  0  0  0
 35 36  1  0  0  0  0
 37 36  1  0  0  0  0
M  END
>  <minimizedAffinity>
-5.56137419

$$$$

 OpenBabel03272504363D

 37 39  0  0  0  0  0  0  0  0999 V2000
   34.6940   31.1560   33.5040 C   0  0  0  0  0  0  0  0  0  0  0  0
   34.6790   31.7860   32.2720 C   0  0  0  0  0  0  0  0  0  0  0  0
   35.1560   31.1100   31.1540 C   0  0  0  0  0  0  0  0  0  0  0  0
   35.6200   29.8400   31.3380 N   0  0  0  0  0  0  0  0  0  0  0  0
   35.6180   29.2500   32.5750 C   0  0  0  0  0  0  0  0  0  0  0  0
   35.1600   29.9030   33.6440 N   0  0  0  0  0  0  0  0  0  0  0  0
   34.3040   32.7860   32.1840 H   0  0  0  0  0  0  0  0  0  0  0  0
   35.1640   31.5590   30.1740 H   0  0  0  0  0  0  0  0  0  0  0  0
   34.2170   31.8060   34.6870 N   0  0  0  0  0  0  0  0  0  0  0  0
   35.0850   32.6250   35.5200 C   0  0  0  0  0  0  0  0  0  0  0  0
   34.9400   32.4060   36.9850 C   0  0  0  0  0  0  0  0  0  0  0  0
   33.7010   31.9490   37.4680 N   0  0  0  0  0  0  0  0  0  0  0  0
   33.0270   31.0350   36.5630 C   0  0  0  0  0  0  0  0  0  0  0  0
   32.9220   31.7850   35.2350 C   0  0  0  0  0  0  0  0  0  0  0  0
   34.9170   33.6840   35.1880 H   0  0  0  0  0  0  0  0  0  0  0  0
   36.1290   32.3780   35.2190 H   0  0  0  0  0  0  0  0  0  0  0  0
   35.1460   33.3970   37.4800 H   0  0  0  0  0  0  0  0  0  0  0  0
   35.7360   31.7260   37.3530 H   0  0  0  0  0  0  0  0  0  0  0  0
   33.8360   31.4070   38.3580 H   0  0  0  0  0  0  0  0  0  0  0  0
   32.0030   30.8400   36.9180 H   0  0  0  0  0  0  0  0  0  0  0  0
   33.6110   30.1010   36.4080 H   0  0  0  0  0  0  0  0  0  0  0  0
   32.4880   32.7750   35.4770 H   0  0  0  0  0  0  0  0  0  0  0  0
   32.1800   31.2040   34.6210 H   0  0  0  0  0  0  0  0  0  0  0  0
   36.1250   27.8940   32.7050 C   0  0  0  0  0  0  0  0  0  0  0  0
   37.0300   27.5850   33.6820 C   0  0  0  0  0  0  0  0  0  0  0  0
   37.5460   26.3160   33.8530 C   0  0  0  0  0  0  0  0  0  0  0  0
   37.0920   25.3740   32.9730 N   0  0  0  0  0  0  0  0  0  0  0  0
   36.2110   25.6780   32.0220 C   0  0  0  0  0  0  0  0  0  0  0  0
   35.7130   26.9350   31.8700 N   0  0  0  0  0  0  0  0  0  0  0  0
   37.3560   28.3520   34.3440 H   0  0  0  0  0  0  0  0  0  0  0  0
   35.7530   24.6180   31.0980 C   0  0  0  0  0  0  0  0  0  0  0  0
   36.7980   24.1300   30.3360 F   0  0  0  0  0  0  0  0  0  0  0  0
   34.7970   25.1640   30.2420 F   0  0  0  0  0  0  0  0  0  0  0  0
   35.1260   23.6220   31.8130 F   0  0  0  0  0  0  0  0  0  0  0  0
   38.5160   25.9220   34.8780 C   0  0  0  0  0  2  0  0  0  0  0  0
   39.6060   26.9270   35.0920 C   0  0  0  0  0  2  0  0  0  0  0  0
   40.1300   26.6640   36.0570 H   0  0  0  0  0  0  0  0  0  0  0  0
  1  6  1  0  0  0  0
  1  9  1  0  0  0  0
  2  1  2  0  0  0  0
  3  4  2  0  0  0  0
  3  2  1  0  0  0  0
  4  5  1  0  0  0  0
  5 24  1  0  0  0  0
  5  6  2  0  0  0  0
  7  2  1  0  0  0  0
  8  3  1  0  0  0  0
  9 14  1  0  0  0  0
  9 10  1  0  0  0  0
 10 11  1  0  0  0  0
 11 18  1  0  0  0  0
 11 12  1  0  0  0  0
 11 17  1  0  0  0  0
 12 19  1  0  0  0  0
 13 20  1  0  0  0  0
 13 12  1  0  0  0  0
 14 22  1  0  0  0  0
 14 13  1  0  0  0  0
 15 10  1  0  0  0  0
 16 10  1  0  0  0  0
 21 13  1  0  0  0  0
 23 14  1  0  0  0  0
 24 25  1  0  0  0  0
 25 26  2  0  0  0  0
 25 30  1  0  0  0  0
 26 35  1  0  0  0  0
 27 26  1  0  0  0  0
 28 27  2  0  0  0  0
 29 28  1  0  0  0  0
 29 24  2  0  0  0  0
 31 34  1  0  0  0  0
 31 28  1  0  0  0  0
 32 31  1  0  0  0  0
 33 31  1  0  0  0  0
 35 36  1  0  0  0  0
 36 37  1  0  0  0  0
M  END
>  <minimizedAffinity>
-5.55556345

$$$$
