
 OpenBabel03272507023D

 40 42  0  0  1  0  0  0  0  0999 V2000
   38.5160   26.1030   35.4610 C   0  0  2  0  0  0  0  0  0  0  0  0
   37.4060   25.8520   34.4960 C   0  0  0  0  0  0  0  0  0  0  0  0
   37.9110   25.5740   33.1080 C   0  0  2  0  0  0  0  0  0  0  0  0
   38.7590   26.6790   32.5810 C   0  0  0  0  0  0  0  0  0  0  0  0
   39.7860   27.1450   33.5730 C   0  0  0  0  0  0  0  0  0  0  0  0
   39.8580   26.2730   34.7990 C   0  0  0  0  0  0  0  0  0  0  0  0
   38.3940   27.0320   36.0860 H   0  0  0  0  0  0  0  0  0  0  0  0
   36.7610   26.7330   34.5800 H   0  0  0  0  0  0  0  0  0  0  0  0
   36.7580   24.9900   34.7080 H   0  0  0  0  0  0  0  0  0  0  0  0
   38.5210   24.6490   33.1600 H   0  0  0  0  0  0  0  0  0  0  0  0
   39.1840   26.3760   31.6020 H   0  0  0  0  0  0  0  0  0  0  0  0
   38.1040   27.5470   32.3570 H   0  0  0  0  0  0  0  0  0  0  0  0
   40.7820   27.0200   33.0560 H   0  0  0  0  0  0  0  0  0  0  0  0
   39.7310   28.2050   33.8280 H   0  0  0  0  0  0  0  0  0  0  0  0
   40.3260   25.2810   34.5650 H   0  0  0  0  0  0  0  0  0  0  0  0
   40.5480   26.7510   35.5160 H   0  0  0  0  0  0  0  0  0  0  0  0
   36.7720   25.3330   32.3070 N   0  0  1  0  0  0  0  0  0  0  0  0
   36.4990   26.3000   31.2890 C   0  0  0  0  0  0  0  0  0  0  0  0
   35.0740   25.8930   30.8950 C   0  0  0  0  0  0  0  0  0  0  0  0
   35.2450   24.3890   30.8960 C   0  0  0  0  0  0  0  0  0  0  0  0
   36.3210   24.1360   31.9840 C   0  0  1  0  0  0  0  0  0  0  0  0
   36.5070   27.3030   31.7740 H   0  0  0  0  0  0  0  0  0  0  0  0
   37.1930   26.2010   30.4400 H   0  0  0  0  0  0  0  0  0  0  0  0
   34.7880   26.2950   29.9140 H   0  0  0  0  0  0  0  0  0  0  0  0
   34.4100   26.2390   31.7120 H   0  0  0  0  0  0  0  0  0  0  0  0
   35.7220   24.1900   29.8890 H   0  0  0  0  0  0  0  0  0  0  0  0
   34.3420   23.8150   31.0500 H   0  0  0  0  0  0  0  0  0  0  0  0
   35.6640   23.8010   32.8610 H   0  0  0  0  0  0  0  0  0  0  0  0
   36.9540   22.8890   31.5740 C   0  0  0  0  0  2  0  0  0  0  0  0
   35.7670   21.9560   31.2210 C   0  0  0  0  0  2  0  0  0  0  0  0
   35.3740   22.1640   30.2130 H   0  0  0  0  0  0  0  0  0  0  0  0
   38.6430   25.0080   36.4500 C   0  0  0  0  0  0  0  0  0  0  0  0
   39.5170   23.9870   36.0750 C   0  0  0  0  0  0  0  0  0  0  0  0
   39.6820   22.9300   36.9840 C   0  0  0  0  0  0  0  0  0  0  0  0
   38.9840   22.9550   38.1820 N   0  0  0  0  0  0  0  0  0  0  0  0
   38.1420   23.9790   38.4970 C   0  0  0  0  0  0  0  0  0  0  0  0
   37.9930   24.9690   37.6360 N   0  0  0  0  0  0  0  0  0  0  0  0
   40.1460   23.7020   35.2570 H   0  0  0  0  0  0  0  0  0  0  0  0
   40.2740   22.0440   36.9550 H   0  0  0  0  0  0  0  0  0  0  0  0
   37.6060   24.0000   39.4150 H   0  0  0  0  0  0  0  0  0  0  0  0
  1  7  1  1  0  0  0
  1 32  1  0  0  0  0
  2  8  1  0  0  0  0
  2  9  1  0  0  0  0
  2  1  1  0  0  0  0
  3 10  1  1  0  0  0
  3  2  1  0  0  0  0
  4  3  1  0  0  0  0
  4  5  1  0  0  0  0
  5 14  1  0  0  0  0
  5  6  1  0  0  0  0
  6  1  1  0  0  0  0
  6 16  1  0  0  0  0
 11  4  1  0  0  0  0
 12  4  1  0  0  0  0
 13  5  1  0  0  0  0
 15  6  1  0  0  0  0
 17 18  1  6  0  0  0
 17  3  1  0  0  0  0
 18 22  1  0  0  0  0
 19 20  1  0  0  0  0
 19 18  1  0  0  0  0
 19 25  1  0  0  0  0
 20 27  1  0  0  0  0
 20 21  1  0  0  0  0
 21 17  1  0  0  0  0
 21 28  1  1  0  0  0
 23 18  1  0  0  0  0
 24 19  1  0  0  0  0
 26 20  1  0  0  0  0
 29 21  1  0  0  0  0
 30 29  1  0  0  0  0
 31 30  1  0  0  0  0
 32 37  1  0  0  0  0
 33 32  2  0  0  0  0
 33 34  1  0  0  0  0
 34 35  2  0  0  0  0
 35 36  1  0  0  0  0
 36 40  1  0  0  0  0
 37 36  2  0  0  0  0
 38 33  1  0  0  0  0
 39 34  1  0  0  0  0
M  END
>  <minimizedAffinity>
-5.08785486

$$$$

 OpenBabel03272507023D

 40 42  0  0  1  0  0  0  0  0999 V2000
   36.6920   23.8320   30.9250 C   0  0  2  0  0  0  0  0  0  0  0  0
   37.8210   24.4590   31.6720 C   0  0  0  0  0  0  0  0  0  0  0  0
   37.3450   25.4550   32.6900 C   0  0  2  0  0  0  0  0  0  0  0  0
   36.5180   26.5350   32.0850 C   0  0  0  0  0  0  0  0  0  0  0  0
   35.4720   26.0050   31.1450 C   0  0  0  0  0  0  0  0  0  0  0  0
   35.3660   24.5030   31.1690 C   0  0  0  0  0  0  0  0  0  0  0  0
   36.8060   23.8410   29.8040 H   0  0  0  0  0  0  0  0  0  0  0  0
   38.4700   24.8750   30.8930 H   0  0  0  0  0  0  0  0  0  0  0  0
   38.4580   23.7810   32.2570 H   0  0  0  0  0  0  0  0  0  0  0  0
   36.7280   24.9020   33.4270 H   0  0  0  0  0  0  0  0  0  0  0  0
   36.1120   27.1790   32.8920 H   0  0  0  0  0  0  0  0  0  0  0  0
   37.1840   27.1970   31.4920 H   0  0  0  0  0  0  0  0  0  0  0  0
   34.4860   26.3830   31.5490 H   0  0  0  0  0  0  0  0  0  0  0  0
   35.5280   26.3950   30.1280 H   0  0  0  0  0  0  0  0  0  0  0  0
   34.8960   24.1440   32.1220 H   0  0  0  0  0  0  0  0  0  0  0  0
   34.6630   24.1990   30.3740 H   0  0  0  0  0  0  0  0  0  0  0  0
   38.5000   25.9530   33.3350 N   0  0  1  0  0  0  0  0  0  0  0  0
   39.1090   27.1050   32.7440 C   0  0  0  0  0  0  0  0  0  0  0  0
   40.4510   27.1220   33.4860 C   0  0  0  0  0  0  0  0  0  0  0  0
   39.9580   26.7930   34.8790 C   0  0  0  0  0  0  0  0  0  0  0  0
   38.7190   25.8920   34.6350 C   0  0  1  0  0  0  0  0  0  0  0  0
   39.2550   26.8840   31.6620 H   0  0  0  0  0  0  0  0  0  0  0  0
   38.5270   28.0180   32.9460 H   0  0  0  0  0  0  0  0  0  0  0  0
   40.9430   28.1010   33.4210 H   0  0  0  0  0  0  0  0  0  0  0  0
   41.0600   26.3040   33.0530 H   0  0  0  0  0  0  0  0  0  0  0  0
   39.5860   27.7930   35.2560 H   0  0  0  0  0  0  0  0  0  0  0  0
   40.6870   26.3430   35.5390 H   0  0  0  0  0  0  0  0  0  0  0  0
   39.1660   24.8550   34.8290 H   0  0  0  0  0  0  0  0  0  0  0  0
   37.8910   26.1010   35.8150 C   0  0  0  0  0  2  0  0  0  0  0  0
   38.0480   24.7920   36.6300 C   0  0  0  0  0  2  0  0  0  0  0  0
   38.9850   24.7850   37.2100 H   0  0  0  0  0  0  0  0  0  0  0  0
   36.5350   22.3990   31.2670 C   0  0  0  0  0  0  0  0  0  0  0  0
   35.3910   22.1030   32.0090 C   0  0  0  0  0  0  0  0  0  0  0  0
   35.1880   20.7560   32.3490 C   0  0  0  0  0  0  0  0  0  0  0  0
   36.1160   19.8100   31.9390 N   0  0  0  0  0  0  0  0  0  0  0  0
   37.2170   20.1560   31.2150 C   0  0  0  0  0  0  0  0  0  0  0  0
   37.3990   21.4250   30.8990 N   0  0  0  0  0  0  0  0  0  0  0  0
   34.5520   22.5940   32.4580 H   0  0  0  0  0  0  0  0  0  0  0  0
   34.4190   20.2610   32.8950 H   0  0  0  0  0  0  0  0  0  0  0  0
   37.9300   19.4330   30.8990 H   0  0  0  0  0  0  0  0  0  0  0  0
  1  7  1  6  0  0  0
  1  6  1  0  0  0  0
  1 32  1  0  0  0  0
  1  2  1  0  0  0  0
  2  9  1  0  0  0  0
  2  3  1  0  0  0  0
  3 17  1  0  0  0  0
  3 10  1  1  0  0  0
  4  3  1  0  0  0  0
  4 11  1  0  0  0  0
  5  6  1  0  0  0  0
  5 13  1  0  0  0  0
  5  4  1  0  0  0  0
  6 15  1  0  0  0  0
  8  2  1  0  0  0  0
 12  4  1  0  0  0  0
 14  5  1  0  0  0  0
 16  6  1  0  0  0  0
 17 18  1  1  0  0  0
 17 21  1  0  0  0  0
 18 23  1  0  0  0  0
 18 19  1  0  0  0  0
 19 20  1  0  0  0  0
 20 26  1  0  0  0  0
 20 27  1  0  0  0  0
 21 28  1  1  0  0  0
 21 20  1  0  0  0  0
 21 29  1  0  0  0  0
 22 18  1  0  0  0  0
 24 19  1  0  0  0  0
 25 19  1  0  0  0  0
 29 30  1  0  0  0  0
 30 31  1  0  0  0  0
 32 33  1  0  0  0  0
 33 34  2  0  0  0  0
 33 38  1  0  0  0  0
 34 39  1  0  0  0  0
 35 34  1  0  0  0  0
 36 35  2  0  0  0  0
 37 36  1  0  0  0  0
 37 32  2  0  0  0  0
 40 36  1  0  0  0  0
M  END
>  <minimizedAffinity>
-5.06015396

$$$$

 OpenBabel03272507023D

 40 42  0  0  1  0  0  0  0  0999 V2000
   37.9890   26.1430   33.4030 C   0  0  2  0  0  0  0  0  0  0  0  0
   38.8720   25.0930   33.9900 C   0  0  0  0  0  0  0  0  0  0  0  0
   38.6250   24.8980   35.4590 C   0  0  2  0  0  0  0  0  0  0  0  0
   38.8000   26.1560   36.2360 C   0  0  0  0  0  0  0  0  0  0  0  0
   38.1060   27.3290   35.6040 C   0  0  0  0  0  0  0  0  0  0  0  0
   37.2370   26.9400   34.4370 C   0  0  0  0  0  0  0  0  0  0  0  0
   38.5250   26.9200   32.7890 H   0  0  0  0  0  0  0  0  0  0  0  0
   39.8880   25.4140   33.7360 H   0  0  0  0  0  0  0  0  0  0  0  0
   38.7700   24.0800   33.5770 H   0  0  0  0  0  0  0  0  0  0  0  0
   37.5780   24.5500   35.5720 H   0  0  0  0  0  0  0  0  0  0  0  0
   38.5070   25.9760   37.2910 H   0  0  0  0  0  0  0  0  0  0  0  0
   39.8820   26.3980   36.2730 H   0  0  0  0  0  0  0  0  0  0  0  0
   37.3960   27.7190   36.3910 H   0  0  0  0  0  0  0  0  0  0  0  0
   38.7560   28.1730   35.3650 H   0  0  0  0  0  0  0  0  0  0  0  0
   36.3160   26.3980   34.7790 H   0  0  0  0  0  0  0  0  0  0  0  0
   36.8630   27.8660   33.9670 H   0  0  0  0  0  0  0  0  0  0  0  0
   39.5020   23.8730   35.8810 N   0  0  1  0  0  0  0  0  0  0  0  0
   40.8770   24.0300   35.5240 C   0  0  0  0  0  0  0  0  0  0  0  0
   41.4080   22.6250   35.8370 C   0  0  0  0  0  0  0  0  0  0  0  0
   40.6820   22.3810   37.1430 C   0  0  0  0  0  0  0  0  0  0  0  0
   39.3550   23.1690   36.9880 C   0  0  1  0  0  0  0  0  0  0  0  0
   40.9150   24.2350   34.4300 H   0  0  0  0  0  0  0  0  0  0  0  0
   41.3720   24.7930   36.1460 H   0  0  0  0  0  0  0  0  0  0  0  0
   42.5010   22.6120   35.9410 H   0  0  0  0  0  0  0  0  0  0  0  0
   41.0430   21.9630   35.0270 H   0  0  0  0  0  0  0  0  0  0  0  0
   41.3230   22.9340   37.8940 H   0  0  0  0  0  0  0  0  0  0  0  0
   40.5310   21.3440   37.4090 H   0  0  0  0  0  0  0  0  0  0  0  0
   38.6310   22.3210   36.7270 H   0  0  0  0  0  0  0  0  0  0  0  0
   38.9750   23.4960   38.3560 C   0  0  0  0  0  2  0  0  0  0  0  0
   37.4650   23.1490   38.4260 C   0  0  0  0  0  2  0  0  0  0  0  0
   37.3040   22.0680   38.5710 H   0  0  0  0  0  0  0  0  0  0  0  0
   36.9900   25.5650   32.4740 C   0  0  0  0  0  0  0  0  0  0  0  0
   37.0560   24.1770   32.3430 C   0  0  0  0  0  0  0  0  0  0  0  0
   36.1220   23.5780   31.4820 C   0  0  0  0  0  0  0  0  0  0  0  0
   35.2030   24.3790   30.8220 N   0  0  0  0  0  0  0  0  0  0  0  0
   35.1840   25.7320   30.9880 C   0  0  0  0  0  0  0  0  0  0  0  0
   36.0650   26.2860   31.7990 N   0  0  0  0  0  0  0  0  0  0  0  0
   37.6320   23.3450   32.6910 H   0  0  0  0  0  0  0  0  0  0  0  0
   35.9500   22.5640   31.2040 H   0  0  0  0  0  0  0  0  0  0  0  0
   34.4790   26.3480   30.4830 H   0  0  0  0  0  0  0  0  0  0  0  0
  1  7  1  6  0  0  0
  1  2  1  0  0  0  0
  1  6  1  0  0  0  0
  2  3  1  0  0  0  0
  3 10  1  1  0  0  0
  3 17  1  0  0  0  0
  3  4  1  0  0  0  0
  4 12  1  0  0  0  0
  4 11  1  0  0  0  0
  5  4  1  0  0  0  0
  5 13  1  0  0  0  0
  6 15  1  0  0  0  0
  6  5  1  0  0  0  0
  8  2  1  0  0  0  0
  9  2  1  0  0  0  0
 14  5  1  0  0  0  0
 16  6  1  0  0  0  0
 17 18  1  1  0  0  0
 17 21  1  0  0  0  0
 18 19  1  0  0  0  0
 18 23  1  0  0  0  0
 19 24  1  0  0  0  0
 19 20  1  0  0  0  0
 20 27  1  0  0  0  0
 20 26  1  0  0  0  0
 21 28  1  6  0  0  0
 21 20  1  0  0  0  0
 21 29  1  0  0  0  0
 22 18  1  0  0  0  0
 25 19  1  0  0  0  0
 29 30  1  0  0  0  0
 30 31  1  0  0  0  0
 32  1  1  0  0  0  0
 33 32  1  0  0  0  0
 33 38  1  0  0  0  0
 34 33  2  0  0  0  0
 35 36  2  0  0  0  0
 35 34  1  0  0  0  0
 36 37  1  0  0  0  0
 37 32  2  0  0  0  0
 39 34  1  0  0  0  0
 40 36  1  0  0  0  0
M  END
>  <minimizedAffinity>
-5.04372406

$$$$

 OpenBabel03272507023D

 40 42  0  0  1  0  0  0  0  0999 V2000
   37.8680   26.3060   33.4910 C   0  0  2  0  0  0  0  0  0  0  0  0
   38.6170   25.2350   34.2090 C   0  0  0  0  0  0  0  0  0  0  0  0
   38.2380   25.1510   35.6600 C   0  0  2  0  0  0  0  0  0  0  0  0
   38.4460   26.4380   36.3780 C   0  0  0  0  0  0  0  0  0  0  0  0
   37.8980   27.6170   35.6230 C   0  0  0  0  0  0  0  0  0  0  0  0
   37.0990   27.2180   34.4100 C   0  0  0  0  0  0  0  0  0  0  0  0
   38.5100   27.0020   32.8810 H   0  0  0  0  0  0  0  0  0  0  0  0
   39.6720   25.4640   34.0250 H   0  0  0  0  0  0  0  0  0  0  0  0
   38.4700   24.2070   33.8470 H   0  0  0  0  0  0  0  0  0  0  0  0
   37.1620   24.8870   35.7040 H   0  0  0  0  0  0  0  0  0  0  0  0
   38.0560   26.3470   37.4120 H   0  0  0  0  0  0  0  0  0  0  0  0
   39.5380   26.6040   36.4920 H   0  0  0  0  0  0  0  0  0  0  0  0
   37.1600   28.1060   36.3230 H   0  0  0  0  0  0  0  0  0  0  0  0
   38.6280   28.3950   35.3930 H   0  0  0  0  0  0  0  0  0  0  0  0
   36.1140   26.7670   34.7030 H   0  0  0  0  0  0  0  0  0  0  0  0
   36.8370   28.1380   33.8590 H   0  0  0  0  0  0  0  0  0  0  0  0
   38.9960   24.0930   36.2130 N   0  0  1  0  0  0  0  0  0  0  0  0
   38.7280   23.7690   37.5800 C   0  0  0  0  0  0  0  0  0  0  0  0
   39.9260   22.8640   37.8910 C   0  0  0  0  0  0  0  0  0  0  0  0
   39.9590   22.0610   36.6090 C   0  0  0  0  0  0  0  0  0  0  0  0
   39.4330   23.0480   35.5350 C   0  0  1  0  0  0  0  0  0  0  0  0
   38.7830   24.7180   38.1620 H   0  0  0  0  0  0  0  0  0  0  0  0
   37.7760   23.2250   37.6880 H   0  0  0  0  0  0  0  0  0  0  0  0
   39.7540   22.2480   38.7840 H   0  0  0  0  0  0  0  0  0  0  0  0
   40.8060   23.5300   37.9900 H   0  0  0  0  0  0  0  0  0  0  0  0
   39.1570   21.2810   36.7800 H   0  0  0  0  0  0  0  0  0  0  0  0
   40.9150   21.6260   36.3530 H   0  0  0  0  0  0  0  0  0  0  0  0
   40.4150   23.3790   35.0470 H   0  0  0  0  0  0  0  0  0  0  0  0
   38.8520   22.1860   34.5140 C   0  0  0  0  0  2  0  0  0  0  0  0
   40.0320   21.8770   33.5570 C   0  0  0  0  0  2  0  0  0  0  0  0
   40.6790   21.0790   33.9560 H   0  0  0  0  0  0  0  0  0  0  0  0
   36.9050   25.7440   32.5150 C   0  0  0  0  0  0  0  0  0  0  0  0
   36.0980   26.6930   31.8860 C   0  0  0  0  0  0  0  0  0  0  0  0
   35.1760   26.2130   30.9420 C   0  0  0  0  0  0  0  0  0  0  0  0
   35.1170   24.8500   30.6890 N   0  0  0  0  0  0  0  0  0  0  0  0
   35.9310   23.9680   31.3340 C   0  0  0  0  0  0  0  0  0  0  0  0
   36.7950   24.4290   32.2190 N   0  0  0  0  0  0  0  0  0  0  0  0
   35.9150   27.7480   31.8880 H   0  0  0  0  0  0  0  0  0  0  0  0
   34.4560   26.7030   30.3280 H   0  0  0  0  0  0  0  0  0  0  0  0
   35.8870   22.9230   31.1420 H   0  0  0  0  0  0  0  0  0  0  0  0
  1  7  1  6  0  0  0
  1  2  1  0  0  0  0
  1  6  1  0  0  0  0
  2  3  1  0  0  0  0
  3 10  1  1  0  0  0
  3 17  1  0  0  0  0
  3  4  1  0  0  0  0
  4 12  1  0  0  0  0
  4 11  1  0  0  0  0
  5 13  1  0  0  0  0
  5  4  1  0  0  0  0
  6 15  1  0  0  0  0
  6  5  1  0  0  0  0
  8  2  1  0  0  0  0
  9  2  1  0  0  0  0
 14  5  1  0  0  0  0
 16  6  1  0  0  0  0
 17 18  1  1  0  0  0
 18 23  1  0  0  0  0
 18 19  1  0  0  0  0
 18 22  1  0  0  0  0
 19 25  1  0  0  0  0
 19 24  1  0  0  0  0
 20 26  1  0  0  0  0
 20 19  1  0  0  0  0
 21 28  1  6  0  0  0
 21 17  1  0  0  0  0
 21 20  1  0  0  0  0
 27 20  1  0  0  0  0
 29 21  1  0  0  0  0
 30 31  1  0  0  0  0
 30 29  1  0  0  0  0
 32  1  1  0  0  0  0
 33 38  1  0  0  0  0
 33 32  2  0  0  0  0
 34 33  1  0  0  0  0
 35 34  2  0  0  0  0
 35 36  1  0  0  0  0
 36 37  2  0  0  0  0
 37 32  1  0  0  0  0
 39 34  1  0  0  0  0
 40 36  1  0  0  0  0
M  END
>  <minimizedAffinity>
-4.92691183

$$$$

 OpenBabel03272507023D

 40 42  0  0  1  0  0  0  0  0999 V2000
   39.3360   22.4660   36.4740 C   0  0  2  0  0  0  0  0  0  0  0  0
   38.9290   23.4400   35.4190 C   0  0  0  0  0  0  0  0  0  0  0  0
   38.8670   24.8480   35.9380 C   0  0  2  0  0  0  0  0  0  0  0  0
   37.9410   24.9870   37.0950 C   0  0  0  0  0  0  0  0  0  0  0  0
   38.1400   23.9140   38.1280 C   0  0  0  0  0  0  0  0  0  0  0  0
   39.3480   23.0560   37.8600 C   0  0  0  0  0  0  0  0  0  0  0  0
   38.6700   21.5620   36.5610 H   0  0  0  0  0  0  0  0  0  0  0  0
   37.9800   23.0520   35.0350 H   0  0  0  0  0  0  0  0  0  0  0  0
   39.5910   23.5200   34.5440 H   0  0  0  0  0  0  0  0  0  0  0  0
   39.8910   25.1230   36.2650 H   0  0  0  0  0  0  0  0  0  0  0  0
   38.0130   26.0170   37.4980 H   0  0  0  0  0  0  0  0  0  0  0  0
   36.8990   24.8920   36.7230 H   0  0  0  0  0  0  0  0  0  0  0  0
   38.3660   24.4600   39.0900 H   0  0  0  0  0  0  0  0  0  0  0  0
   37.2530   23.3150   38.3450 H   0  0  0  0  0  0  0  0  0  0  0  0
   40.2980   23.6190   38.0550 H   0  0  0  0  0  0  0  0  0  0  0  0
   39.3500   22.2320   38.5950 H   0  0  0  0  0  0  0  0  0  0  0  0
   38.4960   25.6640   34.8450 N   0  0  1  0  0  0  0  0  0  0  0  0
   37.2950   26.4220   35.0000 C   0  0  0  0  0  0  0  0  0  0  0  0
   37.0620   26.8760   33.5530 C   0  0  0  0  0  0  0  0  0  0  0  0
   38.4870   27.2280   33.1820 C   0  0  0  0  0  0  0  0  0  0  0  0
   39.3470   26.2490   34.0220 C   0  0  1  0  0  0  0  0  0  0  0  0
   36.4970   25.7170   35.3290 H   0  0  0  0  0  0  0  0  0  0  0  0
   37.4440   27.2840   35.6710 H   0  0  0  0  0  0  0  0  0  0  0  0
   36.3760   27.7300   33.4960 H   0  0  0  0  0  0  0  0  0  0  0  0
   36.6940   25.9880   33.0010 H   0  0  0  0  0  0  0  0  0  0  0  0
   38.6130   28.2620   33.6250 H   0  0  0  0  0  0  0  0  0  0  0  0
   38.7170   27.1970   32.1260 H   0  0  0  0  0  0  0  0  0  0  0  0
   39.6110   25.4630   33.2320 H   0  0  0  0  0  0  0  0  0  0  0  0
   40.6110   26.9500   34.2000 C   0  0  0  0  0  2  0  0  0  0  0  0
   41.0670   27.2880   32.7570 C   0  0  0  0  0  2  0  0  0  0  0  0
   40.5530   28.1810   32.3680 H   0  0  0  0  0  0  0  0  0  0  0  0
   40.6840   21.9070   36.2170 C   0  0  0  0  0  0  0  0  0  0  0  0
   41.3500   21.4550   37.3560 C   0  0  0  0  0  0  0  0  0  0  0  0
   42.6280   20.9050   37.1650 C   0  0  0  0  0  0  0  0  0  0  0  0
   43.1490   20.8410   35.8810 N   0  0  0  0  0  0  0  0  0  0  0  0
   42.4530   21.2990   34.8030 C   0  0  0  0  0  0  0  0  0  0  0  0
   41.2530   21.8140   34.9930 N   0  0  0  0  0  0  0  0  0  0  0  0
   41.2160   21.3920   38.4160 H   0  0  0  0  0  0  0  0  0  0  0  0
   43.3400   20.4920   37.8410 H   0  0  0  0  0  0  0  0  0  0  0  0
   42.8510   21.2510   33.8190 H   0  0  0  0  0  0  0  0  0  0  0  0
  1  7  1  6  0  0  0
  1  6  1  0  0  0  0
  2  3  1  0  0  0  0
  2  1  1  0  0  0  0
  3 10  1  1  0  0  0
  3  4  1  0  0  0  0
  4 11  1  0  0  0  0
  4  5  1  0  0  0  0
  5 14  1  0  0  0  0
  5 13  1  0  0  0  0
  6 15  1  0  0  0  0
  6  5  1  0  0  0  0
  6 16  1  0  0  0  0
  8  2  1  0  0  0  0
  9  2  1  0  0  0  0
 12  4  1  0  0  0  0
 17 18  1  1  0  0  0
 17  3  1  0  0  0  0
 18 22  1  0  0  0  0
 18 23  1  0  0  0  0
 19 18  1  0  0  0  0
 20 19  1  0  0  0  0
 20 26  1  0  0  0  0
 20 21  1  0  0  0  0
 21 28  1  6  0  0  0
 21 29  1  0  0  0  0
 21 17  1  0  0  0  0
 24 19  1  0  0  0  0
 25 19  1  0  0  0  0
 27 20  1  0  0  0  0
 30 29  1  0  0  0  0
 31 30  1  0  0  0  0
 32  1  1  0  0  0  0
 32 33  1  0  0  0  0
 33 38  1  0  0  0  0
 34 33  2  0  0  0  0
 34 39  1  0  0  0  0
 35 34  1  0  0  0  0
 36 37  1  0  0  0  0
 36 35  2  0  0  0  0
 37 32  2  0  0  0  0
 40 36  1  0  0  0  0
M  END
>  <minimizedAffinity>
-4.88361549

$$$$

 OpenBabel03272507023D

 40 42  0  0  1  0  0  0  0  0999 V2000
   38.8060   22.7660   34.3150 C   0  0  2  0  0  0  0  0  0  0  0  0
   38.8010   24.0990   33.6450 C   0  0  0  0  0  0  0  0  0  0  0  0
   37.4470   24.4580   33.1040 C   0  0  2  0  0  0  0  0  0  0  0  0
   36.9310   23.4430   32.1450 C   0  0  0  0  0  0  0  0  0  0  0  0
   37.0840   22.0360   32.6520 C   0  0  0  0  0  0  0  0  0  0  0  0
   37.5450   21.9750   34.0840 C   0  0  0  0  0  0  0  0  0  0  0  0
   39.6330   22.0760   33.9830 H   0  0  0  0  0  0  0  0  0  0  0  0
   39.5920   24.0330   32.8910 H   0  0  0  0  0  0  0  0  0  0  0  0
   39.0620   24.9630   34.2730 H   0  0  0  0  0  0  0  0  0  0  0  0
   36.7540   24.5190   33.9670 H   0  0  0  0  0  0  0  0  0  0  0  0
   35.8930   23.7060   31.8580 H   0  0  0  0  0  0  0  0  0  0  0  0
   37.5190   23.5160   31.2060 H   0  0  0  0  0  0  0  0  0  0  0  0
   36.0420   21.6020   32.6530 H   0  0  0  0  0  0  0  0  0  0  0  0
   37.6660   21.3760   32.0070 H   0  0  0  0  0  0  0  0  0  0  0  0
   36.7310   22.2920   34.7880 H   0  0  0  0  0  0  0  0  0  0  0  0
   37.7400   20.9170   34.3340 H   0  0  0  0  0  0  0  0  0  0  0  0
   37.5740   25.7400   32.5210 N   0  0  1  0  0  0  0  0  0  0  0  0
   36.8900   25.9420   31.2820 C   0  0  0  0  0  0  0  0  0  0  0  0
   37.5250   27.2620   30.8260 C   0  0  0  0  0  0  0  0  0  0  0  0
   37.5350   27.9920   32.1520 C   0  0  0  0  0  0  0  0  0  0  0  0
   37.7070   26.8630   33.2010 C   0  0  1  0  0  0  0  0  0  0  0  0
   37.1790   25.1060   30.6040 H   0  0  0  0  0  0  0  0  0  0  0  0
   35.8040   26.0500   31.4320 H   0  0  0  0  0  0  0  0  0  0  0  0
   36.9210   27.7650   30.0600 H   0  0  0  0  0  0  0  0  0  0  0  0
   38.5470   27.0150   30.4770 H   0  0  0  0  0  0  0  0  0  0  0  0
   36.4740   28.3780   32.2340 H   0  0  0  0  0  0  0  0  0  0  0  0
   38.2720   28.7770   32.2490 H   0  0  0  0  0  0  0  0  0  0  0  0
   38.8240   26.9570   33.4360 H   0  0  0  0  0  0  0  0  0  0  0  0
   37.0870   27.4000   34.4050 C   0  0  0  0  0  2  0  0  0  0  0  0
   38.2090   27.3360   35.4740 C   0  0  0  0  0  2  0  0  0  0  0  0
   38.9090   28.1820   35.3790 H   0  0  0  0  0  0  0  0  0  0  0  0
   38.9940   22.8860   35.7800 C   0  0  0  0  0  0  0  0  0  0  0  0
   37.8870   23.3860   36.4660 C   0  0  0  0  0  0  0  0  0  0  0  0
   38.0100   23.5090   37.8600 C   0  0  0  0  0  0  0  0  0  0  0  0
   39.1990   23.1350   38.4680 N   0  0  0  0  0  0  0  0  0  0  0  0
   40.2500   22.6530   37.7460 C   0  0  0  0  0  0  0  0  0  0  0  0
   40.1250   22.5400   36.4370 N   0  0  0  0  0  0  0  0  0  0  0  0
   36.8990   23.7520   36.2780 H   0  0  0  0  0  0  0  0  0  0  0  0
   37.3380   23.8510   38.6120 H   0  0  0  0  0  0  0  0  0  0  0  0
   41.1620   22.3660   38.2110 H   0  0  0  0  0  0  0  0  0  0  0  0
  1  7  1  6  0  0  0
  1 32  1  0  0  0  0
  2  9  1  0  0  0  0
  2  1  1  0  0  0  0
  3  2  1  0  0  0  0
  3 10  1  1  0  0  0
  4  5  1  0  0  0  0
  4  3  1  0  0  0  0
  5 13  1  0  0  0  0
  5  6  1  0  0  0  0
  6  1  1  0  0  0  0
  6 16  1  0  0  0  0
  6 15  1  0  0  0  0
  8  2  1  0  0  0  0
 11  4  1  0  0  0  0
 12  4  1  0  0  0  0
 14  5  1  0  0  0  0
 17 18  1  1  0  0  0
 17  3  1  0  0  0  0
 17 21  1  0  0  0  0
 18 23  1  0  0  0  0
 19 18  1  0  0  0  0
 19 20  1  0  0  0  0
 20 26  1  0  0  0  0
 20 27  1  0  0  0  0
 20 21  1  0  0  0  0
 21 28  1  1  0  0  0
 21 29  1  0  0  0  0
 22 18  1  0  0  0  0
 24 19  1  0  0  0  0
 25 19  1  0  0  0  0
 29 30  1  0  0  0  0
 31 30  1  0  0  0  0
 32 37  2  0  0  0  0
 32 33  1  0  0  0  0
 33 34  2  0  0  0  0
 34 35  1  0  0  0  0
 34 39  1  0  0  0  0
 36 40  1  0  0  0  0
 36 35  2  0  0  0  0
 37 36  1  0  0  0  0
 38 33  1  0  0  0  0
M  END
>  <minimizedAffinity>
-4.86297464

$$$$

 OpenBabel03272507023D

 40 42  0  0  1  0  0  0  0  0999 V2000
   38.6910   25.3370   32.6810 C   0  0  2  0  0  0  0  0  0  0  0  0
   38.7410   24.5960   33.9750 C   0  0  0  0  0  0  0  0  0  0  0  0
   38.8870   25.5170   35.1530 C   0  0  2  0  0  0  0  0  0  0  0  0
   40.0960   26.3800   35.0530 C   0  0  0  0  0  0  0  0  0  0  0  0
   40.2430   27.0160   33.6990 C   0  0  0  0  0  0  0  0  0  0  0  0
   39.0460   26.7950   32.8120 C   0  0  0  0  0  0  0  0  0  0  0  0
   39.3930   24.9500   31.8890 H   0  0  0  0  0  0  0  0  0  0  0  0
   39.5600   23.8790   33.8510 H   0  0  0  0  0  0  0  0  0  0  0  0
   37.8570   23.9950   34.2300 H   0  0  0  0  0  0  0  0  0  0  0  0
   37.9870   26.1640   35.1770 H   0  0  0  0  0  0  0  0  0  0  0  0
   40.0970   27.1050   35.8920 H   0  0  0  0  0  0  0  0  0  0  0  0
   40.9930   25.7470   35.2150 H   0  0  0  0  0  0  0  0  0  0  0  0
   40.2750   28.1280   33.8910 H   0  0  0  0  0  0  0  0  0  0  0  0
   41.1790   26.7910   33.1850 H   0  0  0  0  0  0  0  0  0  0  0  0
   38.1670   27.4000   33.1580 H   0  0  0  0  0  0  0  0  0  0  0  0
   39.2880   27.1920   31.8110 H   0  0  0  0  0  0  0  0  0  0  0  0
   38.8990   24.6970   36.3040 N   0  0  1  0  0  0  0  0  0  0  0  0
   37.6240   24.2700   36.7900 C   0  0  0  0  0  0  0  0  0  0  0  0
   38.0190   23.7280   38.1690 C   0  0  0  0  0  0  0  0  0  0  0  0
   39.2920   23.0050   37.7860 C   0  0  0  0  0  0  0  0  0  0  0  0
   39.8550   23.8380   36.6040 C   0  0  1  0  0  0  0  0  0  0  0  0
   36.9850   25.1780   36.8870 H   0  0  0  0  0  0  0  0  0  0  0  0
   37.1930   23.4790   36.1560 H   0  0  0  0  0  0  0  0  0  0  0  0
   37.2510   23.0610   38.5840 H   0  0  0  0  0  0  0  0  0  0  0  0
   38.2150   24.6110   38.8100 H   0  0  0  0  0  0  0  0  0  0  0  0
   38.9090   22.0270   37.3640 H   0  0  0  0  0  0  0  0  0  0  0  0
   40.0080   22.8630   38.5830 H   0  0  0  0  0  0  0  0  0  0  0  0
   40.6670   24.4450   37.1370 H   0  0  0  0  0  0  0  0  0  0  0  0
   40.6350   22.8790   35.8340 C   0  0  0  0  0  2  0  0  0  0  0  0
   42.1070   23.3030   36.0750 C   0  0  0  0  0  2  0  0  0  0  0  0
   42.4830   22.9310   37.0410 H   0  0  0  0  0  0  0  0  0  0  0  0
   37.3510   25.2610   32.0540 C   0  0  0  0  0  0  0  0  0  0  0  0
   36.7710   26.4990   31.7760 C   0  0  0  0  0  0  0  0  0  0  0  0
   35.5040   26.4810   31.1700 C   0  0  0  0  0  0  0  0  0  0  0  0
   34.9090   25.2610   30.8860 N   0  0  0  0  0  0  0  0  0  0  0  0
   35.5230   24.0800   31.1810 C   0  0  0  0  0  0  0  0  0  0  0  0
   36.7130   24.1070   31.7500 N   0  0  0  0  0  0  0  0  0  0  0  0
   36.9700   27.5440   31.8880 H   0  0  0  0  0  0  0  0  0  0  0  0
   34.8480   27.2590   30.8540 H   0  0  0  0  0  0  0  0  0  0  0  0
   35.0680   23.1440   30.9640 H   0  0  0  0  0  0  0  0  0  0  0  0
  1  7  1  6  0  0  0
  1  6  1  0  0  0  0
  1  2  1  0  0  0  0
  2  9  1  0  0  0  0
  2  3  1  0  0  0  0
  3 10  1  1  0  0  0
  3 17  1  0  0  0  0
  4  3  1  0  0  0  0
  4 12  1  0  0  0  0
  4 11  1  0  0  0  0
  5 13  1  0  0  0  0
  5  4  1  0  0  0  0
  6 15  1  0  0  0  0
  6  5  1  0  0  0  0
  8  2  1  0  0  0  0
 14  5  1  0  0  0  0
 16  6  1  0  0  0  0
 17 21  1  0  0  0  0
 17 18  1  6  0  0  0
 18 22  1  0  0  0  0
 18 19  1  0  0  0  0
 19 24  1  0  0  0  0
 19 25  1  0  0  0  0
 20 19  1  0  0  0  0
 20 27  1  0  0  0  0
 21 28  1  1  0  0  0
 21 20  1  0  0  0  0
 23 18  1  0  0  0  0
 26 20  1  0  0  0  0
 29 30  1  0  0  0  0
 29 21  1  0  0  0  0
 30 31  1  0  0  0  0
 32  1  1  0  0  0  0
 33 38  1  0  0  0  0
 33 32  1  0  0  0  0
 34 33  2  0  0  0  0
 35 34  1  0  0  0  0
 35 36  2  0  0  0  0
 36 37  1  0  0  0  0
 37 32  2  0  0  0  0
 39 34  1  0  0  0  0
 40 36  1  0  0  0  0
M  END
>  <minimizedAffinity>
-4.85628796

$$$$

 OpenBabel03272507023D

 40 42  0  0  1  0  0  0  0  0999 V2000
   36.3060   28.2410   31.4790 C   0  0  2  0  0  0  0  0  0  0  0  0
   35.2720   29.0080   32.2340 C   0  0  0  0  0  0  0  0  0  0  0  0
   35.7620   29.4420   33.5860 C   0  0  2  0  0  0  0  0  0  0  0  0
   36.2090   28.2950   34.4240 C   0  0  0  0  0  0  0  0  0  0  0  0
   37.1020   27.3450   33.6760 C   0  0  0  0  0  0  0  0  0  0  0  0
   37.4980   27.8580   32.3170 C   0  0  0  0  0  0  0  0  0  0  0  0
   35.9460   27.2660   31.0450 H   0  0  0  0  0  0  0  0  0  0  0  0
   34.3990   28.3470   32.2540 H   0  0  0  0  0  0  0  0  0  0  0  0
   34.9250   29.9440   31.7760 H   0  0  0  0  0  0  0  0  0  0  0  0
   36.6220   30.1210   33.4220 H   0  0  0  0  0  0  0  0  0  0  0  0
   36.6520   28.6810   35.3640 H   0  0  0  0  0  0  0  0  0  0  0  0
   35.3130   27.7200   34.7390 H   0  0  0  0  0  0  0  0  0  0  0  0
   38.0600   27.3010   34.2720 H   0  0  0  0  0  0  0  0  0  0  0  0
   36.7460   26.3150   33.6360 H   0  0  0  0  0  0  0  0  0  0  0  0
   38.2280   28.7050   32.3980 H   0  0  0  0  0  0  0  0  0  0  0  0
   38.0510   27.0550   31.7980 H   0  0  0  0  0  0  0  0  0  0  0  0
   34.7050   30.1690   34.1810 N   0  0  1  0  0  0  0  0  0  0  0  0
   33.5600   29.4110   34.5780 C   0  0  0  0  0  0  0  0  0  0  0  0
   32.5560   30.5400   34.8400 C   0  0  0  0  0  0  0  0  0  0  0  0
   33.4700   31.5120   35.5540 C   0  0  0  0  0  0  0  0  0  0  0  0
   34.8620   31.2500   34.9220 C   0  0  1  0  0  0  0  0  0  0  0  0
   33.2490   28.7970   33.7010 H   0  0  0  0  0  0  0  0  0  0  0  0
   33.7560   28.8280   35.4920 H   0  0  0  0  0  0  0  0  0  0  0  0
   31.7130   30.2040   35.4580 H   0  0  0  0  0  0  0  0  0  0  0  0
   32.2390   30.9160   33.8470 H   0  0  0  0  0  0  0  0  0  0  0  0
   33.4910   31.1070   36.6100 H   0  0  0  0  0  0  0  0  0  0  0  0
   33.1740   32.5510   35.5120 H   0  0  0  0  0  0  0  0  0  0  0  0
   34.9330   32.1260   34.1880 H   0  0  0  0  0  0  0  0  0  0  0  0
   35.8030   31.6380   35.9640 C   0  0  0  0  0  2  0  0  0  0  0  0
   34.9440   32.4410   36.9750 C   0  0  0  0  0  2  0  0  0  0  0  0
   34.3780   31.7740   37.6450 H   0  0  0  0  0  0  0  0  0  0  0  0
   36.8090   29.0000   30.3100 C   0  0  0  0  0  0  0  0  0  0  0  0
   36.5130   30.3640   30.3350 C   0  0  0  0  0  0  0  0  0  0  0  0
   36.9790   31.1310   29.2550 C   0  0  0  0  0  0  0  0  0  0  0  0
   37.6930   30.5070   28.2420 N   0  0  0  0  0  0  0  0  0  0  0  0
   37.9530   29.1700   28.2700 C   0  0  0  0  0  0  0  0  0  0  0  0
   37.5120   28.4570   29.2900 N   0  0  0  0  0  0  0  0  0  0  0  0
   35.9970   31.0830   30.9370 H   0  0  0  0  0  0  0  0  0  0  0  0
   36.8990   32.1680   29.0240 H   0  0  0  0  0  0  0  0  0  0  0  0
   38.5000   28.6900   27.4950 H   0  0  0  0  0  0  0  0  0  0  0  0
  1  7  1  6  0  0  0
  1  2  1  0  0  0  0
  1  6  1  0  0  0  0
  2  8  1  0  0  0  0
  2  3  1  0  0  0  0
  3 10  1  6  0  0  0
  3 17  1  0  0  0  0
  3  4  1  0  0  0  0
  4 12  1  0  0  0  0
  4 11  1  0  0  0  0
  5 13  1  0  0  0  0
  5  4  1  0  0  0  0
  6 15  1  0  0  0  0
  6  5  1  0  0  0  0
  9  2  1  0  0  0  0
 14  5  1  0  0  0  0
 16  6  1  0  0  0  0
 17 18  1  1  0  0  0
 17 21  1  0  0  0  0
 18 19  1  0  0  0  0
 18 23  1  0  0  0  0
 19 24  1  0  0  0  0
 19 20  1  0  0  0  0
 20 26  1  0  0  0  0
 21 28  1  6  0  0  0
 21 20  1  0  0  0  0
 21 29  1  0  0  0  0
 22 18  1  0  0  0  0
 25 19  1  0  0  0  0
 27 20  1  0  0  0  0
 29 30  1  0  0  0  0
 30 31  1  0  0  0  0
 32 33  1  0  0  0  0
 32  1  1  0  0  0  0
 33 38  1  0  0  0  0
 34 33  2  0  0  0  0
 35 36  2  0  0  0  0
 35 34  1  0  0  0  0
 36 37  1  0  0  0  0
 37 32  2  0  0  0  0
 39 34  1  0  0  0  0
 40 36  1  0  0  0  0
M  END
>  <minimizedAffinity>
-4.83527327

$$$$

 OpenBabel03272507023D

 40 42  0  0  1  0  0  0  0  0999 V2000
   36.8750   24.0190   31.2450 C   0  0  2  0  0  0  0  0  0  0  0  0
   37.6500   24.6780   32.3370 C   0  0  0  0  0  0  0  0  0  0  0  0
   36.8580   25.7490   33.0300 C   0  0  2  0  0  0  0  0  0  0  0  0
   36.3780   26.7990   32.0890 C   0  0  0  0  0  0  0  0  0  0  0  0
   35.7580   26.2230   30.8470 C   0  0  0  0  0  0  0  0  0  0  0  0
   35.5880   24.7280   30.9130 C   0  0  0  0  0  0  0  0  0  0  0  0
   37.4170   23.9490   30.2600 H   0  0  0  0  0  0  0  0  0  0  0  0
   38.5680   25.0280   31.8530 H   0  0  0  0  0  0  0  0  0  0  0  0
   37.9800   24.0310   33.1630 H   0  0  0  0  0  0  0  0  0  0  0  0
   35.9800   25.2590   33.4970 H   0  0  0  0  0  0  0  0  0  0  0  0
   35.7180   27.5030   32.6350 H   0  0  0  0  0  0  0  0  0  0  0  0
   37.2490   27.4070   31.7680 H   0  0  0  0  0  0  0  0  0  0  0  0
   34.7110   26.6440   30.8110 H   0  0  0  0  0  0  0  0  0  0  0  0
   36.2230   26.5410   29.9120 H   0  0  0  0  0  0  0  0  0  0  0  0
   34.7700   24.4430   31.6250 H   0  0  0  0  0  0  0  0  0  0  0  0
   35.2390   24.3820   29.9250 H   0  0  0  0  0  0  0  0  0  0  0  0
   37.6910   26.2710   34.0460 N   0  0  1  0  0  0  0  0  0  0  0  0
   37.8310   25.4710   35.2230 C   0  0  0  0  0  0  0  0  0  0  0  0
   38.4880   26.4820   36.1710 C   0  0  0  0  0  0  0  0  0  0  0  0
   39.4690   27.1120   35.2060 C   0  0  0  0  0  0  0  0  0  0  0  0
   38.7530   27.0250   33.8320 C   0  0  1  0  0  0  0  0  0  0  0  0
   36.8050   25.2090   35.5690 H   0  0  0  0  0  0  0  0  0  0  0  0
   38.4860   24.6030   35.0460 H   0  0  0  0  0  0  0  0  0  0  0  0
   38.9740   25.9900   37.0230 H   0  0  0  0  0  0  0  0  0  0  0  0
   37.6910   27.1890   36.4770 H   0  0  0  0  0  0  0  0  0  0  0  0
   40.3220   26.3680   35.1950 H   0  0  0  0  0  0  0  0  0  0  0  0
   39.7930   28.1130   35.4530 H   0  0  0  0  0  0  0  0  0  0  0  0
   38.3610   28.0960   33.7270 H   0  0  0  0  0  0  0  0  0  0  0  0
   39.8420   26.9940   32.8650 C   0  0  0  0  0  2  0  0  0  0  0  0
   41.1220   27.1590   33.7260 C   0  0  0  0  0  2  0  0  0  0  0  0
   41.4220   26.2070   34.1930 H   0  0  0  0  0  0  0  0  0  0  0  0
   36.5370   22.6160   31.5790 C   0  0  0  0  0  0  0  0  0  0  0  0
   37.5630   21.7010   31.3430 C   0  0  0  0  0  0  0  0  0  0  0  0
   37.2970   20.3580   31.6550 C   0  0  0  0  0  0  0  0  0  0  0  0
   36.0540   20.0190   32.1690 N   0  0  0  0  0  0  0  0  0  0  0  0
   35.0880   20.9550   32.3800 C   0  0  0  0  0  0  0  0  0  0  0  0
   35.3470   22.2160   32.0840 N   0  0  0  0  0  0  0  0  0  0  0  0
   38.5620   21.6660   30.9600 H   0  0  0  0  0  0  0  0  0  0  0  0
   37.8850   19.4730   31.5780 H   0  0  0  0  0  0  0  0  0  0  0  0
   34.1340   20.6970   32.7740 H   0  0  0  0  0  0  0  0  0  0  0  0
  1  7  1  6  0  0  0
  1 32  1  0  0  0  0
  1  2  1  0  0  0  0
  2  3  1  0  0  0  0
  2  9  1  0  0  0  0
  3 10  1  1  0  0  0
  3 17  1  0  0  0  0
  4 11  1  0  0  0  0
  4  3  1  0  0  0  0
  5  6  1  0  0  0  0
  5  4  1  0  0  0  0
  6  1  1  0  0  0  0
  6 15  1  0  0  0  0
  8  2  1  0  0  0  0
 12  4  1  0  0  0  0
 13  5  1  0  0  0  0
 14  5  1  0  0  0  0
 16  6  1  0  0  0  0
 17 18  1  6  0  0  0
 18 22  1  0  0  0  0
 18 19  1  0  0  0  0
 19 25  1  0  0  0  0
 19 24  1  0  0  0  0
 20 27  1  0  0  0  0
 20 19  1  0  0  0  0
 21 28  1  6  0  0  0
 21 17  1  0  0  0  0
 21 20  1  0  0  0  0
 23 18  1  0  0  0  0
 26 20  1  0  0  0  0
 29 30  1  0  0  0  0
 29 21  1  0  0  0  0
 30 31  1  0  0  0  0
 32 37  1  0  0  0  0
 33 32  2  0  0  0  0
 33 34  1  0  0  0  0
 34 35  2  0  0  0  0
 35 36  1  0  0  0  0
 36 40  1  0  0  0  0
 37 36  2  0  0  0  0
 38 33  1  0  0  0  0
 39 34  1  0  0  0  0
M  END
>  <minimizedAffinity>
-4.78584242

$$$$
