
 OpenBabel03272508323D

 39 42  0  0  1  0  0  0  0  0999 V2000
   40.4510   24.5830   34.5820 N   0  0  0  0  0  0  0  0  0  0  0  0
   41.6460   24.0120   33.9980 C   0  0  0  0  0  0  0  0  0  0  0  0
   42.7670   24.9830   33.9030 C   0  0  0  0  0  0  0  0  0  0  0  0
   42.6050   26.0230   34.8950 N   0  0  0  0  0  0  0  0  0  0  0  0
   41.4520   26.8200   34.4830 C   0  0  0  0  0  0  0  0  0  0  0  0
   40.2460   26.0160   34.8640 C   0  0  1  0  0  0  0  0  0  0  0  0
   41.9520   23.1690   34.6650 H   0  0  0  0  0  0  0  0  0  0  0  0
   41.4440   23.5850   33.0080 H   0  0  0  0  0  0  0  0  0  0  0  0
   43.7460   24.4830   33.9500 H   0  0  0  0  0  0  0  0  0  0  0  0
   42.6810   25.4900   32.9050 H   0  0  0  0  0  0  0  0  0  0  0  0
   43.4450   26.6050   35.0350 H   0  0  0  0  0  0  0  0  0  0  0  0
   41.5470   26.9410   33.3820 H   0  0  0  0  0  0  0  0  0  0  0  0
   41.4540   27.7860   35.0180 H   0  0  0  0  0  0  0  0  0  0  0  0
   40.0990   26.0420   35.9600 H   0  0  0  0  0  0  0  0  0  0  0  0
   37.9200   27.0380   34.9740 C   0  0  0  0  0  0  0  0  0  0  0  0
   39.0020   26.5330   34.2440 C   0  0  0  0  0  0  0  0  0  0  0  0
   38.9740   26.5210   32.8620 C   0  0  0  0  0  0  0  0  0  0  0  0
   37.8520   27.0310   32.2450 C   0  0  0  0  0  0  0  0  0  0  0  0
   36.7620   27.5390   32.9910 C   0  0  0  0  0  0  0  0  0  0  0  0
   36.7820   27.5500   34.3950 C   0  0  0  0  0  0  0  0  0  0  0  0
   35.7510   27.9860   32.1190 O   0  0  0  0  0  0  0  0  0  0  0  0
   36.3570   28.1150   30.8600 C   0  0  0  0  0  0  0  0  0  0  0  0
   37.4550   27.2030   30.9170 O   0  0  0  0  0  0  0  0  0  0  0  0
   37.9710   27.0300   36.0510 H   0  0  0  0  0  0  0  0  0  0  0  0
   39.6020   26.1360   32.0990 H   0  0  0  0  0  0  0  0  0  0  0  0
   35.9550   27.9350   34.9650 H   0  0  0  0  0  0  0  0  0  0  0  0
   36.8290   29.1220   30.7350 H   0  0  0  0  0  0  0  0  0  0  0  0
   35.7020   27.9520   30.0050 H   0  0  0  0  0  0  0  0  0  0  0  0
   38.8970   23.6500   36.2500 C   0  0  0  0  0  0  0  0  0  0  0  0
   39.3790   23.7010   34.9220 C   0  0  0  0  0  0  0  0  0  0  0  0
   38.7680   22.8880   33.9920 C   0  0  0  0  0  0  0  0  0  0  0  0
   37.7310   22.0810   34.3930 N   0  0  0  0  0  0  0  0  0  0  0  0
   37.3110   22.0720   35.6620 C   0  0  0  0  0  0  0  0  0  0  0  0
   37.8730   22.8420   36.6030 N   0  0  0  0  0  0  0  0  0  0  0  0
   39.3790   24.2880   36.9830 H   0  0  0  0  0  0  0  0  0  0  0  0
   39.1170   22.9040   32.9740 H   0  0  0  0  0  0  0  0  0  0  0  0
   36.1730   21.1340   35.9140 C   0  0  0  0  0  2  0  0  0  0  0  0
   35.6500   20.6450   34.5620 C   0  0  0  0  0  2  0  0  0  0  0  0
   34.6890   20.1160   34.6820 H   0  0  0  0  0  0  0  0  0  0  0  0
  1  6  1  0  0  0  0
  1 30  1  0  0  0  0
  2  1  1  0  0  0  0
  2  7  1  0  0  0  0
  3  9  1  0  0  0  0
  3  2  1  0  0  0  0
  3  4  1  0  0  0  0
  4 11  1  0  0  0  0
  5  6  1  0  0  0  0
  5  4  1  0  0  0  0
  5 13  1  0  0  0  0
  6 14  1  1  0  0  0
  8  2  1  0  0  0  0
 10  3  1  0  0  0  0
 12  5  1  0  0  0  0
 15 24  1  0  0  0  0
 16  6  1  0  0  0  0
 16 15  2  0  0  0  0
 17 16  1  0  0  0  0
 18 17  2  0  0  0  0
 18 19  1  0  0  0  0
 19 20  2  0  0  0  0
 20 26  1  0  0  0  0
 20 15  1  0  0  0  0
 21 19  1  0  0  0  0
 22 23  1  0  0  0  0
 22 21  1  0  0  0  0
 23 18  1  0  0  0  0
 25 17  1  0  0  0  0
 27 22  1  0  0  0  0
 28 22  1  0  0  0  0
 29 34  1  0  0  0  0
 29 35  1  0  0  0  0
 30 29  2  0  0  0  0
 31 32  2  0  0  0  0
 31 30  1  0  0  0  0
 32 33  1  0  0  0  0
 33 37  1  0  0  0  0
 33 34  2  0  0  0  0
 36 31  1  0  0  0  0
 38 39  1  0  0  0  0
 38 37  1  0  0  0  0
M  END
>  <minimizedAffinity>
-5.39140987

$$$$

 OpenBabel03272508323D

 39 42  0  0  1  0  0  0  0  0999 V2000
   36.8190   20.7900   32.7150 N   0  0  0  0  0  0  0  0  0  0  0  0
   35.8950   19.8180   33.2580 C   0  0  0  0  0  0  0  0  0  0  0  0
   35.1060   19.1180   32.2120 C   0  0  0  0  0  0  0  0  0  0  0  0
   35.8240   19.1390   30.9560 N   0  0  0  0  0  0  0  0  0  0  0  0
   35.8180   20.5240   30.4920 C   0  0  0  0  0  0  0  0  0  0  0  0
   36.8580   21.2300   31.3070 C   0  0  1  0  0  0  0  0  0  0  0  0
   36.5130   19.0680   33.8100 H   0  0  0  0  0  0  0  0  0  0  0  0
   35.2140   20.2760   33.9880 H   0  0  0  0  0  0  0  0  0  0  0  0
   34.8110   18.1070   32.5300 H   0  0  0  0  0  0  0  0  0  0  0  0
   34.1720   19.7180   32.0450 H   0  0  0  0  0  0  0  0  0  0  0  0
   35.4460   18.4930   30.2460 H   0  0  0  0  0  0  0  0  0  0  0  0
   34.7930   20.9050   30.6950 H   0  0  0  0  0  0  0  0  0  0  0  0
   36.0790   20.5600   29.4200 H   0  0  0  0  0  0  0  0  0  0  0  0
   37.8700   20.9350   30.9750 H   0  0  0  0  0  0  0  0  0  0  0  0
   35.6470   23.4520   31.5560 C   0  0  0  0  0  0  0  0  0  0  0  0
   36.7700   22.7050   31.1840 C   0  0  0  0  0  0  0  0  0  0  0  0
   37.9020   23.3310   30.6980 C   0  0  0  0  0  0  0  0  0  0  0  0
   37.8780   24.7060   30.6070 C   0  0  0  0  0  0  0  0  0  0  0  0
   36.7370   25.4540   30.9850 C   0  0  0  0  0  0  0  0  0  0  0  0
   35.5820   24.8230   31.4740 C   0  0  0  0  0  0  0  0  0  0  0  0
   36.9750   26.8270   30.7850 O   0  0  0  0  0  0  0  0  0  0  0  0
   38.3670   26.9620   30.6560 C   0  0  0  0  0  0  0  0  0  0  0  0
   38.7900   25.6800   30.1920 O   0  0  0  0  0  0  0  0  0  0  0  0
   34.7780   22.9330   31.9280 H   0  0  0  0  0  0  0  0  0  0  0  0
   38.8240   23.0080   30.2860 H   0  0  0  0  0  0  0  0  0  0  0  0
   34.7130   25.3890   31.7620 H   0  0  0  0  0  0  0  0  0  0  0  0
   38.8590   27.0810   31.6550 H   0  0  0  0  0  0  0  0  0  0  0  0
   38.7020   27.7840   30.0250 H   0  0  0  0  0  0  0  0  0  0  0  0
   37.3630   21.9570   34.8150 C   0  0  0  0  0  0  0  0  0  0  0  0
   37.7810   21.3730   33.5980 C   0  0  0  0  0  0  0  0  0  0  0  0
   39.1300   21.3790   33.3200 C   0  0  0  0  0  0  0  0  0  0  0  0
   39.9940   21.9430   34.2280 N   0  0  0  0  0  0  0  0  0  0  0  0
   39.5470   22.4810   35.3670 C   0  0  0  0  0  0  0  0  0  0  0  0
   38.2450   22.5010   35.6820 N   0  0  0  0  0  0  0  0  0  0  0  0
   36.2990   21.9550   35.0330 H   0  0  0  0  0  0  0  0  0  0  0  0
   39.4770   20.9440   32.3990 H   0  0  0  0  0  0  0  0  0  0  0  0
   40.6290   23.0440   36.2340 C   0  0  0  0  0  2  0  0  0  0  0  0
   40.6990   22.2060   37.5120 C   0  0  0  0  0  2  0  0  0  0  0  0
   41.3350   22.6980   38.2670 H   0  0  0  0  0  0  0  0  0  0  0  0
  1  2  1  0  0  0  0
  1 30  1  0  0  0  0
  2  7  1  0  0  0  0
  2  8  1  0  0  0  0
  3  9  1  0  0  0  0
  3  2  1  0  0  0  0
  4  3  1  0  0  0  0
  5 12  1  0  0  0  0
  5  4  1  0  0  0  0
  5  6  1  0  0  0  0
  6 14  1  6  0  0  0
  6  1  1  0  0  0  0
 10  3  1  0  0  0  0
 11  4  1  0  0  0  0
 13  5  1  0  0  0  0
 15 24  1  0  0  0  0
 16  6  1  0  0  0  0
 16 15  2  0  0  0  0
 17 16  1  0  0  0  0
 18 17  2  0  0  0  0
 18 19  1  0  0  0  0
 19 20  2  0  0  0  0
 20 15  1  0  0  0  0
 20 26  1  0  0  0  0
 21 19  1  0  0  0  0
 22 21  1  0  0  0  0
 22 27  1  0  0  0  0
 23 18  1  0  0  0  0
 23 22  1  0  0  0  0
 25 17  1  0  0  0  0
 28 22  1  0  0  0  0
 29 35  1  0  0  0  0
 29 34  1  0  0  0  0
 30 29  2  0  0  0  0
 31 30  1  0  0  0  0
 31 32  2  0  0  0  0
 32 33  1  0  0  0  0
 33 34  2  0  0  0  0
 33 37  1  0  0  0  0
 36 31  1  0  0  0  0
 37 38  1  0  0  0  0
 38 39  1  0  0  0  0
M  END
>  <minimizedAffinity>
-5.12898922

$$$$

 OpenBabel03272508323D

 39 42  0  0  1  0  0  0  0  0999 V2000
   38.5950   25.8500   31.3960 N   0  0  0  0  0  0  0  0  0  0  0  0
   38.3110   26.8840   30.4230 C   0  0  0  0  0  0  0  0  0  0  0  0
   39.3720   27.9210   30.3520 C   0  0  0  0  0  0  0  0  0  0  0  0
   40.6310   27.3720   30.8050 N   0  0  0  0  0  0  0  0  0  0  0  0
   40.4970   27.1470   32.2430 C   0  0  0  0  0  0  0  0  0  0  0  0
   39.6910   25.8920   32.3830 C   0  0  1  0  0  0  0  0  0  0  0  0
   38.2350   26.3720   29.4330 H   0  0  0  0  0  0  0  0  0  0  0  0
   37.3420   27.3610   30.6170 H   0  0  0  0  0  0  0  0  0  0  0  0
   39.4290   28.3780   29.3520 H   0  0  0  0  0  0  0  0  0  0  0  0
   39.1000   28.7240   31.0880 H   0  0  0  0  0  0  0  0  0  0  0  0
   41.4500   27.9580   30.5820 H   0  0  0  0  0  0  0  0  0  0  0  0
   39.9630   28.0380   32.6380 H   0  0  0  0  0  0  0  0  0  0  0  0
   41.4950   27.0150   32.6940 H   0  0  0  0  0  0  0  0  0  0  0  0
   40.3050   25.0100   32.1210 H   0  0  0  0  0  0  0  0  0  0  0  0
   38.2680   26.5190   34.3940 C   0  0  0  0  0  0  0  0  0  0  0  0
   39.2000   25.6860   33.7670 C   0  0  0  0  0  0  0  0  0  0  0  0
   39.6990   24.5730   34.4180 C   0  0  0  0  0  0  0  0  0  0  0  0
   39.2360   24.3220   35.6910 C   0  0  0  0  0  0  0  0  0  0  0  0
   38.2940   25.1710   36.3190 C   0  0  0  0  0  0  0  0  0  0  0  0
   37.7870   26.3060   35.6650 C   0  0  0  0  0  0  0  0  0  0  0  0
   38.0010   24.6920   37.6100 O   0  0  0  0  0  0  0  0  0  0  0  0
   38.4520   23.3630   37.6390 C   0  0  0  0  0  0  0  0  0  0  0  0
   39.4770   23.3300   36.6460 O   0  0  0  0  0  0  0  0  0  0  0  0
   37.9000   27.3810   33.8610 H   0  0  0  0  0  0  0  0  0  0  0  0
   40.4450   23.8500   34.2080 H   0  0  0  0  0  0  0  0  0  0  0  0
   37.0700   26.9530   36.1390 H   0  0  0  0  0  0  0  0  0  0  0  0
   37.6670   22.6580   37.2630 H   0  0  0  0  0  0  0  0  0  0  0  0
   38.7780   22.9990   38.6120 H   0  0  0  0  0  0  0  0  0  0  0  0
   36.3690   24.8180   31.6200 C   0  0  0  0  0  0  0  0  0  0  0  0
   37.7610   24.6890   31.4090 C   0  0  0  0  0  0  0  0  0  0  0  0
   38.2580   23.4200   31.2060 C   0  0  0  0  0  0  0  0  0  0  0  0
   37.3890   22.3560   31.2150 N   0  0  0  0  0  0  0  0  0  0  0  0
   36.0800   22.5320   31.4160 C   0  0  0  0  0  0  0  0  0  0  0  0
   35.5480   23.7460   31.6200 N   0  0  0  0  0  0  0  0  0  0  0  0
   35.9770   25.8180   31.7830 H   0  0  0  0  0  0  0  0  0  0  0  0
   39.3150   23.2920   31.0460 H   0  0  0  0  0  0  0  0  0  0  0  0
   35.2880   21.2630   31.3900 C   0  0  0  0  0  2  0  0  0  0  0  0
   35.2740   20.6820   32.8060 C   0  0  0  0  0  2  0  0  0  0  0  0
   34.8810   19.6510   32.8010 H   0  0  0  0  0  0  0  0  0  0  0  0
  1 30  1  0  0  0  0
  1  6  1  0  0  0  0
  2  8  1  0  0  0  0
  2  1  1  0  0  0  0
  3  2  1  0  0  0  0
  3  4  1  0  0  0  0
  3 10  1  0  0  0  0
  4  5  1  0  0  0  0
  5  6  1  0  0  0  0
  5 12  1  0  0  0  0
  5 13  1  0  0  0  0
  6 14  1  6  0  0  0
  6 16  1  0  0  0  0
  7  2  1  0  0  0  0
  9  3  1  0  0  0  0
 11  4  1  0  0  0  0
 15 20  1  0  0  0  0
 16 15  2  0  0  0  0
 16 17  1  0  0  0  0
 17 18  2  0  0  0  0
 18 19  1  0  0  0  0
 18 23  1  0  0  0  0
 19 21  1  0  0  0  0
 20 26  1  0  0  0  0
 20 19  2  0  0  0  0
 21 22  1  0  0  0  0
 22 28  1  0  0  0  0
 23 22  1  0  0  0  0
 24 15  1  0  0  0  0
 25 17  1  0  0  0  0
 27 22  1  0  0  0  0
 29 34  1  0  0  0  0
 29 35  1  0  0  0  0
 30 29  2  0  0  0  0
 31 32  2  0  0  0  0
 31 30  1  0  0  0  0
 32 33  1  0  0  0  0
 33 34  2  0  0  0  0
 36 31  1  0  0  0  0
 37 33  1  0  0  0  0
 37 38  1  0  0  0  0
 39 38  1  0  0  0  0
M  END
>  <minimizedAffinity>
-5.08311462

$$$$

 OpenBabel03272508323D

 39 42  0  0  1  0  0  0  0  0999 V2000
   37.7010   25.2630   31.7600 N   0  0  0  0  0  0  0  0  0  0  0  0
   36.8380   26.3380   31.3180 C   0  0  0  0  0  0  0  0  0  0  0  0
   37.4870   27.6720   31.3940 C   0  0  0  0  0  0  0  0  0  0  0  0
   38.9250   27.5270   31.3240 N   0  0  0  0  0  0  0  0  0  0  0  0
   39.3440   26.8930   32.5720 C   0  0  0  0  0  0  0  0  0  0  0  0
   39.0060   25.4410   32.4230 C   0  0  1  0  0  0  0  0  0  0  0  0
   36.5800   26.1190   30.2530 H   0  0  0  0  0  0  0  0  0  0  0  0
   35.8970   26.3540   31.8830 H   0  0  0  0  0  0  0  0  0  0  0  0
   37.0810   28.3670   30.6430 H   0  0  0  0  0  0  0  0  0  0  0  0
   37.2660   28.0900   32.4120 H   0  0  0  0  0  0  0  0  0  0  0  0
   39.4280   28.4100   31.1530 H   0  0  0  0  0  0  0  0  0  0  0  0
   38.7480   27.3840   33.3730 H   0  0  0  0  0  0  0  0  0  0  0  0
   40.4310   27.0240   32.7110 H   0  0  0  0  0  0  0  0  0  0  0  0
   39.7150   24.9530   31.7290 H   0  0  0  0  0  0  0  0  0  0  0  0
   40.0470   23.7390   33.9990 C   0  0  0  0  0  0  0  0  0  0  0  0
   39.0800   24.7070   33.7100 C   0  0  0  0  0  0  0  0  0  0  0  0
   38.1360   25.0630   34.6550 C   0  0  0  0  0  0  0  0  0  0  0  0
   38.1960   24.4340   35.8800 C   0  0  0  0  0  0  0  0  0  0  0  0
   39.1770   23.4540   36.1630 C   0  0  0  0  0  0  0  0  0  0  0  0
   40.1360   23.0850   35.2060 C   0  0  0  0  0  0  0  0  0  0  0  0
   39.0070   22.9700   37.4740 O   0  0  0  0  0  0  0  0  0  0  0  0
   38.1870   23.9050   38.1270 C   0  0  0  0  0  0  0  0  0  0  0  0
   37.4570   24.5170   37.0630 O   0  0  0  0  0  0  0  0  0  0  0  0
   40.7680   23.4810   33.2390 H   0  0  0  0  0  0  0  0  0  0  0  0
   37.2780   25.6850   34.6650 H   0  0  0  0  0  0  0  0  0  0  0  0
   40.8830   22.3410   35.4190 H   0  0  0  0  0  0  0  0  0  0  0  0
   38.7910   24.7350   38.5730 H   0  0  0  0  0  0  0  0  0  0  0  0
   37.5520   23.5020   38.9140 H   0  0  0  0  0  0  0  0  0  0  0  0
   38.1270   22.9990   30.8870 C   0  0  0  0  0  0  0  0  0  0  0  0
   37.2710   23.9180   31.5360 C   0  0  0  0  0  0  0  0  0  0  0  0
   36.0390   23.4590   31.9460 C   0  0  0  0  0  0  0  0  0  0  0  0
   35.7060   22.1470   31.7110 N   0  0  0  0  0  0  0  0  0  0  0  0
   36.5530   21.3170   31.0950 C   0  0  0  0  0  0  0  0  0  0  0  0
   37.7620   21.7160   30.6760 N   0  0  0  0  0  0  0  0  0  0  0  0
   39.0970   23.3610   30.5610 H   0  0  0  0  0  0  0  0  0  0  0  0
   35.3660   24.1370   32.4400 H   0  0  0  0  0  0  0  0  0  0  0  0
   36.0230   19.9280   30.9270 C   0  0  0  0  0  2  0  0  0  0  0  0
   34.9130   19.7140   31.9580 C   0  0  0  0  0  2  0  0  0  0  0  0
   34.6300   18.6490   32.0130 H   0  0  0  0  0  0  0  0  0  0  0  0
  1  6  1  0  0  0  0
  2  3  1  0  0  0  0
  2  1  1  0  0  0  0
  2  8  1  0  0  0  0
  3 10  1  0  0  0  0
  4  3  1  0  0  0  0
  4  5  1  0  0  0  0
  5 13  1  0  0  0  0
  5 12  1  0  0  0  0
  6 14  1  6  0  0  0
  6  5  1  0  0  0  0
  6 16  1  0  0  0  0
  7  2  1  0  0  0  0
  9  3  1  0  0  0  0
 11  4  1  0  0  0  0
 15 20  1  0  0  0  0
 16 15  2  0  0  0  0
 16 17  1  0  0  0  0
 17 25  1  0  0  0  0
 17 18  2  0  0  0  0
 18 19  1  0  0  0  0
 18 23  1  0  0  0  0
 19 21  1  0  0  0  0
 20 26  1  0  0  0  0
 20 19  2  0  0  0  0
 21 22  1  0  0  0  0
 22 27  1  0  0  0  0
 22 28  1  0  0  0  0
 23 22  1  0  0  0  0
 24 15  1  0  0  0  0
 29 30  1  0  0  0  0
 30  1  1  0  0  0  0
 30 31  2  0  0  0  0
 31 36  1  0  0  0  0
 32 31  1  0  0  0  0
 33 32  2  0  0  0  0
 34 29  2  0  0  0  0
 34 33  1  0  0  0  0
 35 29  1  0  0  0  0
 37 33  1  0  0  0  0
 37 38  1  0  0  0  0
 38 39  1  0  0  0  0
M  END
>  <minimizedAffinity>
-5.05132389

$$$$

 OpenBabel03272508323D

 39 42  0  0  1  0  0  0  0  0999 V2000
   38.1120   24.3590   32.5270 N   0  0  0  0  0  0  0  0  0  0  0  0
   38.9880   25.1760   31.7150 C   0  0  0  0  0  0  0  0  0  0  0  0
   38.3100   25.7440   30.5210 C   0  0  0  0  0  0  0  0  0  0  0  0
   36.8860   25.8330   30.7580 N   0  0  0  0  0  0  0  0  0  0  0  0
   36.3790   24.4630   30.7950 C   0  0  0  0  0  0  0  0  0  0  0  0
   36.7550   23.9280   32.1430 C   0  0  1  0  0  0  0  0  0  0  0  0
   39.3350   26.0140   32.3680 H   0  0  0  0  0  0  0  0  0  0  0  0
   39.8800   24.6190   31.4010 H   0  0  0  0  0  0  0  0  0  0  0  0
   38.7620   26.6980   30.2100 H   0  0  0  0  0  0  0  0  0  0  0  0
   38.4400   25.0060   29.6850 H   0  0  0  0  0  0  0  0  0  0  0  0
   36.3810   26.4110   30.0690 H   0  0  0  0  0  0  0  0  0  0  0  0
   36.8990   23.9280   29.9700 H   0  0  0  0  0  0  0  0  0  0  0  0
   35.2830   24.4660   30.6750 H   0  0  0  0  0  0  0  0  0  0  0  0
   36.1140   24.3760   32.9250 H   0  0  0  0  0  0  0  0  0  0  0  0
   35.8750   21.8160   33.2520 C   0  0  0  0  0  0  0  0  0  0  0  0
   36.5920   22.4570   32.2350 C   0  0  0  0  0  0  0  0  0  0  0  0
   37.1720   21.7270   31.2160 C   0  0  0  0  0  0  0  0  0  0  0  0
   37.0080   20.3590   31.2410 C   0  0  0  0  0  0  0  0  0  0  0  0
   36.2830   19.7180   32.2740 C   0  0  0  0  0  0  0  0  0  0  0  0
   35.6940   20.4540   33.3150 C   0  0  0  0  0  0  0  0  0  0  0  0
   36.2770   18.3260   32.0630 O   0  0  0  0  0  0  0  0  0  0  0  0
   36.6540   18.1370   30.7240 C   0  0  0  0  0  0  0  0  0  0  0  0
   37.4150   19.3060   30.4180 O   0  0  0  0  0  0  0  0  0  0  0  0
   35.4370   22.4130   34.0350 H   0  0  0  0  0  0  0  0  0  0  0  0
   37.8110   21.9500   30.3990 H   0  0  0  0  0  0  0  0  0  0  0  0
   35.1430   19.9700   34.1010 H   0  0  0  0  0  0  0  0  0  0  0  0
   35.7680   18.1860   30.0410 H   0  0  0  0  0  0  0  0  0  0  0  0
   37.1800   17.2080   30.5120 H   0  0  0  0  0  0  0  0  0  0  0  0
   38.1030   24.5530   34.9830 C   0  0  0  0  0  0  0  0  0  0  0  0
   38.5850   23.9330   33.8080 C   0  0  0  0  0  0  0  0  0  0  0  0
   39.4970   22.9110   33.9560 C   0  0  0  0  0  0  0  0  0  0  0  0
   39.8870   22.5470   35.2220 N   0  0  0  0  0  0  0  0  0  0  0  0
   39.4000   23.1640   36.3020 C   0  0  0  0  0  0  0  0  0  0  0  0
   38.5120   24.1650   36.2100 N   0  0  0  0  0  0  0  0  0  0  0  0
   37.3870   25.3600   34.8670 H   0  0  0  0  0  0  0  0  0  0  0  0
   39.8820   22.4220   33.0780 H   0  0  0  0  0  0  0  0  0  0  0  0
   39.9360   22.6340   37.5950 C   0  0  0  0  0  2  0  0  0  0  0  0
   41.1990   21.8260   37.2900 C   0  0  0  0  0  2  0  0  0  0  0  0
   41.5170   21.2490   38.1750 H   0  0  0  0  0  0  0  0  0  0  0  0
  1 30  1  0  0  0  0
  2  7  1  0  0  0  0
  2  1  1  0  0  0  0
  3  4  1  0  0  0  0
  3  2  1  0  0  0  0
  4  5  1  0  0  0  0
  5  6  1  0  0  0  0
  6 16  1  0  0  0  0
  6  1  1  0  0  0  0
  6 14  1  1  0  0  0
  8  2  1  0  0  0  0
  9  3  1  0  0  0  0
 10  3  1  0  0  0  0
 11  4  1  0  0  0  0
 12  5  1  0  0  0  0
 13  5  1  0  0  0  0
 15 20  1  0  0  0  0
 15 24  1  0  0  0  0
 16 15  2  0  0  0  0
 17 18  2  0  0  0  0
 17 16  1  0  0  0  0
 18 19  1  0  0  0  0
 19 20  2  0  0  0  0
 20 26  1  0  0  0  0
 21 19  1  0  0  0  0
 22 21  1  0  0  0  0
 23 22  1  0  0  0  0
 23 18  1  0  0  0  0
 25 17  1  0  0  0  0
 27 22  1  0  0  0  0
 28 22  1  0  0  0  0
 29 34  1  0  0  0  0
 30 31  1  0  0  0  0
 30 29  2  0  0  0  0
 31 32  2  0  0  0  0
 32 33  1  0  0  0  0
 33 37  1  0  0  0  0
 34 33  2  0  0  0  0
 35 29  1  0  0  0  0
 36 31  1  0  0  0  0
 38 37  1  0  0  0  0
 38 39  1  0  0  0  0
M  END
>  <minimizedAffinity>
-4.97859955

$$$$

 OpenBabel03272508323D

 39 42  0  0  1  0  0  0  0  0999 V2000
   39.6260   25.2940   32.5510 N   0  0  0  0  0  0  0  0  0  0  0  0
   41.0510   25.4420   32.3420 C   0  0  0  0  0  0  0  0  0  0  0  0
   41.3890   25.9510   30.9880 C   0  0  0  0  0  0  0  0  0  0  0  0
   40.2730   26.6960   30.4470 N   0  0  0  0  0  0  0  0  0  0  0  0
   39.2160   25.7270   30.1720 C   0  0  0  0  0  0  0  0  0  0  0  0
   38.5980   25.4120   31.5000 C   0  0  1  0  0  0  0  0  0  0  0  0
   41.4070   26.1760   33.1060 H   0  0  0  0  0  0  0  0  0  0  0  0
   41.5830   24.4990   32.5250 H   0  0  0  0  0  0  0  0  0  0  0  0
   42.3330   26.5170   30.9890 H   0  0  0  0  0  0  0  0  0  0  0  0
   41.5180   25.0580   30.3210 H   0  0  0  0  0  0  0  0  0  0  0  0
   40.5070   27.2580   29.6150 H   0  0  0  0  0  0  0  0  0  0  0  0
   39.7250   24.8450   29.7250 H   0  0  0  0  0  0  0  0  0  0  0  0
   38.4670   26.1730   29.4950 H   0  0  0  0  0  0  0  0  0  0  0  0
   37.9770   26.2600   31.8440 H   0  0  0  0  0  0  0  0  0  0  0  0
   36.3460   24.2530   31.7220 C   0  0  0  0  0  0  0  0  0  0  0  0
   37.7170   24.2200   31.4470 C   0  0  0  0  0  0  0  0  0  0  0  0
   38.3300   23.0410   31.0670 C   0  0  0  0  0  0  0  0  0  0  0  0
   37.5390   21.9180   30.9650 C   0  0  0  0  0  0  0  0  0  0  0  0
   36.1520   21.9590   31.2470 C   0  0  0  0  0  0  0  0  0  0  0  0
   35.5240   23.1530   31.6380 C   0  0  0  0  0  0  0  0  0  0  0  0
   35.5890   20.6810   31.0740 O   0  0  0  0  0  0  0  0  0  0  0  0
   36.5220   19.9470   30.3240 C   0  0  0  0  0  0  0  0  0  0  0  0
   37.7660   20.5850   30.6130 O   0  0  0  0  0  0  0  0  0  0  0  0
   35.8970   25.1870   32.0200 H   0  0  0  0  0  0  0  0  0  0  0  0
   39.3300   22.7360   30.8860 H   0  0  0  0  0  0  0  0  0  0  0  0
   34.4710   23.1880   31.8530 H   0  0  0  0  0  0  0  0  0  0  0  0
   36.3710   20.0980   29.2250 H   0  0  0  0  0  0  0  0  0  0  0  0
   36.5310   18.8740   30.5090 H   0  0  0  0  0  0  0  0  0  0  0  0
   38.2600   25.8990   34.5100 C   0  0  0  0  0  0  0  0  0  0  0  0
   39.1640   25.0170   33.8750 C   0  0  0  0  0  0  0  0  0  0  0  0
   39.5540   23.8950   34.5740 C   0  0  0  0  0  0  0  0  0  0  0  0
   39.0510   23.6890   35.8360 N   0  0  0  0  0  0  0  0  0  0  0  0
   38.1970   24.5540   36.3910 C   0  0  0  0  0  0  0  0  0  0  0  0
   37.7880   25.6600   35.7520 N   0  0  0  0  0  0  0  0  0  0  0  0
   37.9540   26.7840   33.9600 H   0  0  0  0  0  0  0  0  0  0  0  0
   40.2440   23.2070   34.1160 H   0  0  0  0  0  0  0  0  0  0  0  0
   37.7530   24.1670   37.7660 C   0  0  0  0  0  2  0  0  0  0  0  0
   38.8620   23.3280   38.4050 C   0  0  0  0  0  2  0  0  0  0  0  0
   38.5050   22.8500   39.3330 H   0  0  0  0  0  0  0  0  0  0  0  0
  1 30  1  0  0  0  0
  2  8  1  0  0  0  0
  2  1  1  0  0  0  0
  2  7  1  0  0  0  0
  3  9  1  0  0  0  0
  3  2  1  0  0  0  0
  4  3  1  0  0  0  0
  5  4  1  0  0  0  0
  5  6  1  0  0  0  0
  6 14  1  1  0  0  0
  6  1  1  0  0  0  0
 10  3  1  0  0  0  0
 11  4  1  0  0  0  0
 12  5  1  0  0  0  0
 13  5  1  0  0  0  0
 15 24  1  0  0  0  0
 16  6  1  0  0  0  0
 16 15  2  0  0  0  0
 17 16  1  0  0  0  0
 18 17  2  0  0  0  0
 18 19  1  0  0  0  0
 19 20  2  0  0  0  0
 20 15  1  0  0  0  0
 20 26  1  0  0  0  0
 21 19  1  0  0  0  0
 22 28  1  0  0  0  0
 22 23  1  0  0  0  0
 22 21  1  0  0  0  0
 23 18  1  0  0  0  0
 25 17  1  0  0  0  0
 27 22  1  0  0  0  0
 29 34  1  0  0  0  0
 30 29  2  0  0  0  0
 30 31  1  0  0  0  0
 31 32  2  0  0  0  0
 32 33  1  0  0  0  0
 33 37  1  0  0  0  0
 34 33  2  0  0  0  0
 35 29  1  0  0  0  0
 36 31  1  0  0  0  0
 37 38  1  0  0  0  0
 38 39  1  0  0  0  0
M  END
>  <minimizedAffinity>
-4.9367857

$$$$

 OpenBabel03272508323D

 39 42  0  0  1  0  0  0  0  0999 V2000
   39.0130   25.2960   31.0050 N   0  0  0  0  0  0  0  0  0  0  0  0
   39.4550   25.3390   29.6270 C   0  0  0  0  0  0  0  0  0  0  0  0
   40.6130   26.2460   29.4170 C   0  0  0  0  0  0  0  0  0  0  0  0
   41.3520   26.3970   30.6510 N   0  0  0  0  0  0  0  0  0  0  0  0
   40.5020   27.1640   31.5590 C   0  0  0  0  0  0  0  0  0  0  0  0
   39.4820   26.1950   32.0750 C   0  0  1  0  0  0  0  0  0  0  0  0
   39.7570   24.2970   29.3590 H   0  0  0  0  0  0  0  0  0  0  0  0
   38.6370   25.6230   28.9520 H   0  0  0  0  0  0  0  0  0  0  0  0
   41.2370   25.9230   28.5700 H   0  0  0  0  0  0  0  0  0  0  0  0
   40.1980   27.2620   29.1780 H   0  0  0  0  0  0  0  0  0  0  0  0
   42.2810   26.8310   30.5340 H   0  0  0  0  0  0  0  0  0  0  0  0
   40.0460   27.9650   30.9380 H   0  0  0  0  0  0  0  0  0  0  0  0
   41.1080   27.5630   32.3900 H   0  0  0  0  0  0  0  0  0  0  0  0
   39.9450   25.5040   32.8040 H   0  0  0  0  0  0  0  0  0  0  0  0
   38.0340   26.6640   34.1120 C   0  0  0  0  0  0  0  0  0  0  0  0
   38.3580   26.8710   32.7660 C   0  0  0  0  0  0  0  0  0  0  0  0
   37.6410   27.7710   32.0010 C   0  0  0  0  0  0  0  0  0  0  0  0
   36.6140   28.4520   32.6170 C   0  0  0  0  0  0  0  0  0  0  0  0
   36.2920   28.2350   33.9790 C   0  0  0  0  0  0  0  0  0  0  0  0
   37.0130   27.3190   34.7600 C   0  0  0  0  0  0  0  0  0  0  0  0
   35.2030   29.0480   34.3490 O   0  0  0  0  0  0  0  0  0  0  0  0
   35.1000   30.0320   33.3540 C   0  0  0  0  0  0  0  0  0  0  0  0
   35.6910   29.4190   32.2070 O   0  0  0  0  0  0  0  0  0  0  0  0
   38.6100   25.9520   34.6810 H   0  0  0  0  0  0  0  0  0  0  0  0
   37.6280   28.0460   30.9770 H   0  0  0  0  0  0  0  0  0  0  0  0
   36.7710   27.1520   35.7950 H   0  0  0  0  0  0  0  0  0  0  0  0
   35.7570   30.9100   33.5790 H   0  0  0  0  0  0  0  0  0  0  0  0
   34.0960   30.4120   33.1730 H   0  0  0  0  0  0  0  0  0  0  0  0
   38.3860   23.3060   32.3150 C   0  0  0  0  0  0  0  0  0  0  0  0
   38.0500   24.3050   31.3730 C   0  0  0  0  0  0  0  0  0  0  0  0
   36.7750   24.2850   30.8520 C   0  0  0  0  0  0  0  0  0  0  0  0
   35.9010   23.3110   31.2700 N   0  0  0  0  0  0  0  0  0  0  0  0
   36.2670   22.3900   32.1660 C   0  0  0  0  0  0  0  0  0  0  0  0
   37.4960   22.3660   32.7010 N   0  0  0  0  0  0  0  0  0  0  0  0
   39.3910   23.3200   32.7240 H   0  0  0  0  0  0  0  0  0  0  0  0
   36.4930   25.0320   30.1300 H   0  0  0  0  0  0  0  0  0  0  0  0
   35.1860   21.4120   32.5030 C   0  0  0  0  0  2  0  0  0  0  0  0
   35.6240   20.6270   33.7420 C   0  0  0  0  0  2  0  0  0  0  0  0
   34.9620   19.7610   33.9110 H   0  0  0  0  0  0  0  0  0  0  0  0
  1 30  1  0  0  0  0
  1  6  1  0  0  0  0
  2  1  1  0  0  0  0
  3  2  1  0  0  0  0
  3  4  1  0  0  0  0
  4  5  1  0  0  0  0
  5  6  1  0  0  0  0
  5 13  1  0  0  0  0
  6 16  1  0  0  0  0
  6 14  1  1  0  0  0
  7  2  1  0  0  0  0
  8  2  1  0  0  0  0
  9  3  1  0  0  0  0
 10  3  1  0  0  0  0
 11  4  1  0  0  0  0
 12  5  1  0  0  0  0
 15 24  1  0  0  0  0
 15 20  1  0  0  0  0
 16 15  2  0  0  0  0
 17 18  2  0  0  0  0
 17 16  1  0  0  0  0
 18 19  1  0  0  0  0
 19 21  1  0  0  0  0
 19 20  2  0  0  0  0
 20 26  1  0  0  0  0
 22 27  1  0  0  0  0
 22 21  1  0  0  0  0
 23 18  1  0  0  0  0
 23 22  1  0  0  0  0
 25 17  1  0  0  0  0
 28 22  1  0  0  0  0
 29 34  1  0  0  0  0
 29 35  1  0  0  0  0
 30 29  2  0  0  0  0
 31 32  2  0  0  0  0
 31 30  1  0  0  0  0
 32 33  1  0  0  0  0
 33 37  1  0  0  0  0
 33 34  2  0  0  0  0
 36 31  1  0  0  0  0
 37 38  1  0  0  0  0
 38 39  1  0  0  0  0
M  END
>  <minimizedAffinity>
-4.93594027

$$$$

 OpenBabel03272508323D

 39 42  0  0  1  0  0  0  0  0999 V2000
   37.8990   25.9790   32.7600 N   0  0  0  0  0  0  0  0  0  0  0  0
   38.7090   27.1220   32.3950 C   0  0  0  0  0  0  0  0  0  0  0  0
   38.0820   27.9650   31.3450 C   0  0  0  0  0  0  0  0  0  0  0  0
   36.6460   27.7930   31.3640 N   0  0  0  0  0  0  0  0  0  0  0  0
   36.3800   26.4370   30.8900 C   0  0  0  0  0  0  0  0  0  0  0  0
   36.6870   25.5350   32.0470 C   0  0  1  0  0  0  0  0  0  0  0  0
   38.8320   27.7310   33.3240 H   0  0  0  0  0  0  0  0  0  0  0  0
   39.7120   26.8160   32.0720 H   0  0  0  0  0  0  0  0  0  0  0  0
   38.3970   29.0170   31.4230 H   0  0  0  0  0  0  0  0  0  0  0  0
   38.4290   27.5700   30.3530 H   0  0  0  0  0  0  0  0  0  0  0  0
   36.1310   28.5000   30.8170 H   0  0  0  0  0  0  0  0  0  0  0  0
   37.0720   26.2750   30.0350 H   0  0  0  0  0  0  0  0  0  0  0  0
   35.3190   26.3440   30.6010 H   0  0  0  0  0  0  0  0  0  0  0  0
   35.8950   25.6150   32.8150 H   0  0  0  0  0  0  0  0  0  0  0  0
   37.8600   23.5490   30.9790 C   0  0  0  0  0  0  0  0  0  0  0  0
   36.7670   24.1090   31.6480 C   0  0  0  0  0  0  0  0  0  0  0  0
   35.6880   23.3260   32.0130 C   0  0  0  0  0  0  0  0  0  0  0  0
   35.7420   21.9860   31.6980 C   0  0  0  0  0  0  0  0  0  0  0  0
   36.8510   21.4270   31.0190 C   0  0  0  0  0  0  0  0  0  0  0  0
   37.9480   22.2180   30.6420 C   0  0  0  0  0  0  0  0  0  0  0  0
   36.6450   20.0490   30.8170 O   0  0  0  0  0  0  0  0  0  0  0  0
   35.6120   19.6800   31.6930 C   0  0  0  0  0  0  0  0  0  0  0  0
   34.8900   20.8960   31.8960 O   0  0  0  0  0  0  0  0  0  0  0  0
   38.6850   24.1870   30.7050 H   0  0  0  0  0  0  0  0  0  0  0  0
   34.7350   23.5090   32.4400 H   0  0  0  0  0  0  0  0  0  0  0  0
   38.7920   21.7960   30.1260 H   0  0  0  0  0  0  0  0  0  0  0  0
   36.0110   19.4130   32.7050 H   0  0  0  0  0  0  0  0  0  0  0  0
   34.9860   18.8540   31.3590 H   0  0  0  0  0  0  0  0  0  0  0  0
   39.4850   24.4600   33.8760 C   0  0  0  0  0  0  0  0  0  0  0  0
   38.2900   25.2140   33.9030 C   0  0  0  0  0  0  0  0  0  0  0  0
   37.5470   25.1870   35.0630 C   0  0  0  0  0  0  0  0  0  0  0  0
   37.9990   24.4420   36.1250 N   0  0  0  0  0  0  0  0  0  0  0  0
   39.1390   23.7480   36.0500 C   0  0  0  0  0  0  0  0  0  0  0  0
   39.8950   23.7410   34.9440 N   0  0  0  0  0  0  0  0  0  0  0  0
   40.0700   24.4780   32.9620 H   0  0  0  0  0  0  0  0  0  0  0  0
   36.6310   25.7500   35.1110 H   0  0  0  0  0  0  0  0  0  0  0  0
   39.4740   22.9990   37.3010 C   0  0  0  0  0  2  0  0  0  0  0  0
   40.7250   22.1610   37.0330 C   0  0  0  0  0  2  0  0  0  0  0  0
   40.8950   21.4400   37.8500 H   0  0  0  0  0  0  0  0  0  0  0  0
  1 30  1  0  0  0  0
  2  1  1  0  0  0  0
  2  7  1  0  0  0  0
  3  4  1  0  0  0  0
  3  9  1  0  0  0  0
  3  2  1  0  0  0  0
  5  4  1  0  0  0  0
  5  6  1  0  0  0  0
  6  1  1  0  0  0  0
  6 14  1  1  0  0  0
  8  2  1  0  0  0  0
 10  3  1  0  0  0  0
 11  4  1  0  0  0  0
 12  5  1  0  0  0  0
 13  5  1  0  0  0  0
 15 16  1  0  0  0  0
 16 17  2  0  0  0  0
 16  6  1  0  0  0  0
 17 25  1  0  0  0  0
 18 23  1  0  0  0  0
 18 17  1  0  0  0  0
 19 18  2  0  0  0  0
 20 15  2  0  0  0  0
 20 19  1  0  0  0  0
 21 19  1  0  0  0  0
 21 22  1  0  0  0  0
 22 23  1  0  0  0  0
 22 27  1  0  0  0  0
 24 15  1  0  0  0  0
 26 20  1  0  0  0  0
 28 22  1  0  0  0  0
 29 30  2  0  0  0  0
 29 34  1  0  0  0  0
 30 31  1  0  0  0  0
 31 36  1  0  0  0  0
 31 32  2  0  0  0  0
 33 32  1  0  0  0  0
 33 37  1  0  0  0  0
 34 33  2  0  0  0  0
 35 29  1  0  0  0  0
 38 37  1  0  0  0  0
 38 39  1  0  0  0  0
M  END
>  <minimizedAffinity>
-4.92692137

$$$$

 OpenBabel03272508323D

 39 42  0  0  1  0  0  0  0  0999 V2000
   37.4410   25.6200   31.4400 N   0  0  0  0  0  0  0  0  0  0  0  0
   36.5520   26.5990   30.8510 C   0  0  0  0  0  0  0  0  0  0  0  0
   37.1400   27.9620   30.8010 C   0  0  0  0  0  0  0  0  0  0  0  0
   38.5840   27.8770   30.7990 N   0  0  0  0  0  0  0  0  0  0  0  0
   38.9780   27.4040   32.1250 C   0  0  0  0  0  0  0  0  0  0  0  0
   38.7090   25.9300   32.1260 C   0  0  1  0  0  0  0  0  0  0  0  0
   36.3470   26.2530   29.8080 H   0  0  0  0  0  0  0  0  0  0  0  0
   35.5880   26.6330   31.3760 H   0  0  0  0  0  0  0  0  0  0  0  0
   36.7360   28.5500   29.9630 H   0  0  0  0  0  0  0  0  0  0  0  0
   36.8610   28.4780   31.7570 H   0  0  0  0  0  0  0  0  0  0  0  0
   39.0570   28.7590   30.5490 H   0  0  0  0  0  0  0  0  0  0  0  0
   38.3300   27.9520   32.8440 H   0  0  0  0  0  0  0  0  0  0  0  0
   40.0520   27.5990   32.2870 H   0  0  0  0  0  0  0  0  0  0  0  0
   39.4650   25.4020   31.5170 H   0  0  0  0  0  0  0  0  0  0  0  0
   37.8630   25.6730   34.5100 C   0  0  0  0  0  0  0  0  0  0  0  0
   38.7610   25.3460   33.4890 C   0  0  0  0  0  0  0  0  0  0  0  0
   39.7520   24.4060   33.6970 C   0  0  0  0  0  0  0  0  0  0  0  0
   39.8090   23.8080   34.9380 C   0  0  0  0  0  0  0  0  0  0  0  0
   38.8970   24.1460   35.9670 C   0  0  0  0  0  0  0  0  0  0  0  0
   37.8900   25.1040   35.7620 C   0  0  0  0  0  0  0  0  0  0  0  0
   39.1820   23.3990   37.1250 O   0  0  0  0  0  0  0  0  0  0  0  0
   40.0020   22.3380   36.7080 C   0  0  0  0  0  0  0  0  0  0  0  0
   40.6250   22.8370   35.5230 O   0  0  0  0  0  0  0  0  0  0  0  0
   37.1020   26.4130   34.3170 H   0  0  0  0  0  0  0  0  0  0  0  0
   40.5790   24.0470   33.1400 H   0  0  0  0  0  0  0  0  0  0  0  0
   37.1960   25.3630   36.5410 H   0  0  0  0  0  0  0  0  0  0  0  0
   39.3930   21.4640   36.3630 H   0  0  0  0  0  0  0  0  0  0  0  0
   40.7090   21.9720   37.4500 H   0  0  0  0  0  0  0  0  0  0  0  0
   35.8320   23.8010   31.8570 C   0  0  0  0  0  0  0  0  0  0  0  0
   37.0770   24.2400   31.3520 C   0  0  0  0  0  0  0  0  0  0  0  0
   37.8960   23.2970   30.7700 C   0  0  0  0  0  0  0  0  0  0  0  0
   37.4670   21.9930   30.7070 N   0  0  0  0  0  0  0  0  0  0  0  0
   36.2790   21.6290   31.1980 C   0  0  0  0  0  0  0  0  0  0  0  0
   35.4480   22.5090   31.7740 N   0  0  0  0  0  0  0  0  0  0  0  0
   35.1880   24.5440   32.3180 H   0  0  0  0  0  0  0  0  0  0  0  0
   38.8510   23.6020   30.3790 H   0  0  0  0  0  0  0  0  0  0  0  0
   35.9790   20.1720   31.0390 C   0  0  0  0  0  2  0  0  0  0  0  0
   34.9790   19.7710   32.1260 C   0  0  0  0  0  2  0  0  0  0  0  0
   34.8820   18.6730   32.1810 H   0  0  0  0  0  0  0  0  0  0  0  0
  1  6  1  0  0  0  0
  2  8  1  0  0  0  0
  2  1  1  0  0  0  0
  3  2  1  0  0  0  0
  3 10  1  0  0  0  0
  4  3  1  0  0  0  0
  4  5  1  0  0  0  0
  5  6  1  0  0  0  0
  5 13  1  0  0  0  0
  5 12  1  0  0  0  0
  6 14  1  6  0  0  0
  6 16  1  0  0  0  0
  7  2  1  0  0  0  0
  9  3  1  0  0  0  0
 11  4  1  0  0  0  0
 15 20  1  0  0  0  0
 16 17  1  0  0  0  0
 16 15  2  0  0  0  0
 17 18  2  0  0  0  0
 18 23  1  0  0  0  0
 18 19  1  0  0  0  0
 19 21  1  0  0  0  0
 20 19  2  0  0  0  0
 20 26  1  0  0  0  0
 22 21  1  0  0  0  0
 22 28  1  0  0  0  0
 23 22  1  0  0  0  0
 24 15  1  0  0  0  0
 25 17  1  0  0  0  0
 27 22  1  0  0  0  0
 29 35  1  0  0  0  0
 30  1  1  0  0  0  0
 30 29  2  0  0  0  0
 31 30  1  0  0  0  0
 32 31  2  0  0  0  0
 32 33  1  0  0  0  0
 33 34  2  0  0  0  0
 34 29  1  0  0  0  0
 36 31  1  0  0  0  0
 37 33  1  0  0  0  0
 37 38  1  0  0  0  0
 38 39  1  0  0  0  0
M  END
>  <minimizedAffinity>
-4.89862585

$$$$
