
 OpenBabel03272509493D

 27 28  0  0  0  0  0  0  0  0999 V2000
   33.8280   28.6480   48.6930 C   0  0  0  0  0  0  0  0  0  0  0  0
   34.4350   28.9690   47.8040 H   0  0  0  0  0  0  0  0  0  0  0  0
   33.1720   29.4630   49.0720 H   0  0  0  0  0  0  0  0  0  0  0  0
   32.9530   27.4820   48.3110 C   0  0  0  0  0  0  0  0  0  0  0  0
   33.3240   27.0460   47.3430 H   0  0  0  0  0  0  0  0  0  0  0  0
   33.0490   26.6790   49.0790 H   0  0  0  0  0  0  0  0  0  0  0  0
   31.5280   27.8630   48.1930 C   0  0  0  0  0  0  0  0  0  0  0  0
   30.7210   27.6380   49.2920 C   0  0  0  0  0  0  0  0  0  0  0  0
   29.3830   27.9570   49.2810 C   0  0  0  0  0  0  0  0  0  0  0  0
   28.8260   28.5000   48.1900 N   0  0  0  0  0  0  0  0  0  0  0  0
   29.6290   28.7190   47.1130 C   0  0  0  0  0  0  0  0  0  0  0  0
   30.9350   28.4150   47.1040 N   0  0  0  0  0  0  0  0  0  0  0  0
   31.0510   27.2050   50.2300 H   0  0  0  0  0  0  0  0  0  0  0  0
   28.7100   27.8000   50.1120 H   0  0  0  0  0  0  0  0  0  0  0  0
   29.3480   29.1490   46.1520 H   0  0  0  0  0  0  0  0  0  0  0  0
   34.6760   28.2770   49.7730 O   0  0  0  0  0  0  0  0  0  0  0  0
   37.3210   30.1950   51.3460 C   0  0  0  0  0  0  0  0  0  0  0  0
   37.9950   30.6640   50.1950 C   0  0  0  0  0  0  0  0  0  0  0  0
   37.4900   30.2870   48.9560 C   0  0  0  0  0  0  0  0  0  0  0  0
   36.3830   29.4920   48.9200 N   0  0  0  0  0  0  0  0  0  0  0  0
   35.7680   29.0640   50.0400 C   0  0  0  0  0  0  0  0  0  0  0  0
   36.2510   29.4250   51.2390 N   0  0  0  0  0  0  0  0  0  0  0  0
   37.7390   30.5050   52.2940 H   0  0  0  0  0  0  0  0  0  0  0  0
   38.8790   31.2990   50.1910 H   0  0  0  0  0  0  0  0  0  0  0  0
   38.1410   30.7400   47.6770 C   0  0  0  0  0  2  0  0  0  0  0  0
   37.1550   30.8370   46.5420 C   0  0  0  0  0  2  0  0  0  0  0  0
   37.1080   29.9150   45.9340 H   0  0  0  0  0  0  0  0  0  0  0  0
  1  3  1  0  0  0  0
  1 16  1  0  0  0  0
  2  1  1  0  0  0  0
  4  1  1  0  0  0  0
  4  6  1  0  0  0  0
  5  4  1  0  0  0  0
  7  4  1  0  0  0  0
  7  8  1  0  0  0  0
  8 13  1  0  0  0  0
  9  8  2  0  0  0  0
  9 14  1  0  0  0  0
 10  9  1  0  0  0  0
 11 10  2  0  0  0  0
 12 11  1  0  0  0  0
 12  7  2  0  0  0  0
 15 11  1  0  0  0  0
 16 21  1  0  0  0  0
 17 23  1  0  0  0  0
 18 17  2  0  0  0  0
 19 18  1  0  0  0  0
 20 19  2  0  0  0  0
 20 21  1  0  0  0  0
 21 22  2  0  0  0  0
 22 17  1  0  0  0  0
 24 18  1  0  0  0  0
 25 19  1  0  0  0  0
 26 25  1  0  0  0  0
 27 26  1  0  0  0  0
M  END
>  <minimizedAffinity>
-4.86386538

>  <minimizedRMSD>
0.398214966

$$$$
