
 OpenBabel03272501013D

 22 23  0  0  0  0  0  0  0  0999 V2000
   40.4590   24.1550   34.6200 F   0  0  0  0  0  0  0  0  0  0  0  0
   39.8440   23.9360   35.8070 C   0  0  0  0  0  0  0  0  0  0  0  0
   38.6660   24.5600   36.1860 C   0  0  0  0  0  0  0  0  0  0  0  0
   38.1080   24.2620   37.4180 C   0  0  0  0  0  0  0  0  0  0  0  0
   38.6640   23.3670   38.2970 C   0  0  0  0  0  0  0  0  0  0  0  0
   39.8590   22.7440   37.8970 C   0  0  0  0  0  0  0  0  0  0  0  0
   40.4420   23.0260   36.6620 C   0  0  0  0  0  0  0  0  0  0  0  0
   37.1900   24.7890   37.6410 H   0  0  0  0  0  0  0  0  0  0  0  0
   38.1800   23.1810   39.2340 H   0  0  0  0  0  0  0  0  0  0  0  0
   40.3120   22.0320   38.5840 H   0  0  0  0  0  0  0  0  0  0  0  0
   37.3310   27.7120   34.9080 C   0  0  0  0  0  0  0  0  0  0  0  0
   36.9150   27.4120   33.6100 C   0  0  0  0  0  0  0  0  0  0  0  0
   37.1000   26.1070   33.1780 C   0  0  0  0  0  0  0  0  0  0  0  0
   37.6610   25.2060   34.0160 N   0  0  0  0  0  0  0  0  0  0  0  0
   38.0520   25.5220   35.2610 C   0  0  0  0  0  0  0  0  0  0  0  0
   37.8860   26.7820   35.7080 N   0  0  0  0  0  0  0  0  0  0  0  0
   37.1610   28.7370   35.1850 H   0  0  0  0  0  0  0  0  0  0  0  0
   36.4660   28.0260   32.8660 H   0  0  0  0  0  0  0  0  0  0  0  0
   36.8700   25.6160   32.2290 H   0  0  0  0  0  0  0  0  0  0  0  0
   41.7140   22.3030   36.3500 C   0  0  0  0  0  2  0  0  0  0  0  0
   41.9870   21.1720   37.3210 C   0  0  0  0  0  2  0  0  0  0  0  0
   42.9270   21.3200   37.8490 H   0  0  0  0  0  0  0  0  0  0  0  0
  1  2  1  0  0  0  0
  2  3  2  0  0  0  0
  2  7  1  0  0  0  0
  3  4  1  0  0  0  0
  4  8  1  0  0  0  0
  4  5  2  0  0  0  0
  5  9  1  0  0  0  0
  6  5  1  0  0  0  0
  6 10  1  0  0  0  0
  7  6  2  0  0  0  0
 11 17  1  0  0  0  0
 11 16  1  0  0  0  0
 12 11  2  0  0  0  0
 13 12  1  0  0  0  0
 13 14  2  0  0  0  0
 14 15  1  0  0  0  0
 15 16  2  0  0  0  0
 15  3  1  0  0  0  0
 18 12  1  0  0  0  0
 19 13  1  0  0  0  0
 20  7  1  0  0  0  0
 20 21  1  0  0  0  0
 21 22  1  0  0  0  0
M  END
>  <minimizedAffinity>
-4.6308651

$$$$

 OpenBabel03272501013D

 22 23  0  0  0  0  0  0  0  0999 V2000
   37.8890   23.8800   33.2640 F   0  0  0  0  0  0  0  0  0  0  0  0
   37.6150   25.1390   33.6830 C   0  0  0  0  0  0  0  0  0  0  0  0
   37.8830   25.5940   34.9650 C   0  0  0  0  0  0  0  0  0  0  0  0
   37.5760   26.9040   35.2970 C   0  0  0  0  0  0  0  0  0  0  0  0
   37.0150   27.7890   34.4130 C   0  0  0  0  0  0  0  0  0  0  0  0
   36.7490   27.3120   33.1170 C   0  0  0  0  0  0  0  0  0  0  0  0
   37.0490   25.9970   32.7570 C   0  0  0  0  0  0  0  0  0  0  0  0
   37.8140   27.1820   36.3140 H   0  0  0  0  0  0  0  0  0  0  0  0
   36.8040   28.7890   34.7330 H   0  0  0  0  0  0  0  0  0  0  0  0
   36.3040   28.0030   32.4050 H   0  0  0  0  0  0  0  0  0  0  0  0
   38.3180   23.6220   38.0100 C   0  0  0  0  0  0  0  0  0  0  0  0
   39.5160   22.9340   37.8100 C   0  0  0  0  0  0  0  0  0  0  0  0
   40.1740   23.1580   36.6100 C   0  0  0  0  0  0  0  0  0  0  0  0
   39.6380   24.0140   35.7100 N   0  0  0  0  0  0  0  0  0  0  0  0
   38.4840   24.6620   35.9290 C   0  0  0  0  0  0  0  0  0  0  0  0
   37.8210   24.4650   37.0850 N   0  0  0  0  0  0  0  0  0  0  0  0
   37.8550   23.4080   38.9570 H   0  0  0  0  0  0  0  0  0  0  0  0
   40.0320   22.2430   38.4340 H   0  0  0  0  0  0  0  0  0  0  0  0
   41.1080   22.7560   36.2070 H   0  0  0  0  0  0  0  0  0  0  0  0
   36.7170   25.6050   31.3520 C   0  0  0  0  0  2  0  0  0  0  0  0
   35.2940   25.1040   31.2140 C   0  0  0  0  0  2  0  0  0  0  0  0
   35.2670   24.0790   30.8490 H   0  0  0  0  0  0  0  0  0  0  0  0
  1  2  1  0  0  0  0
  2  3  1  0  0  0  0
  3  4  2  0  0  0  0
  3 15  1  0  0  0  0
  4  8  1  0  0  0  0
  5  9  1  0  0  0  0
  5  4  1  0  0  0  0
  6  5  2  0  0  0  0
  7  6  1  0  0  0  0
  7  2  2  0  0  0  0
 10  6  1  0  0  0  0
 11 17  1  0  0  0  0
 12 11  1  0  0  0  0
 12 18  1  0  0  0  0
 13 12  2  0  0  0  0
 14 15  2  0  0  0  0
 14 13  1  0  0  0  0
 15 16  1  0  0  0  0
 16 11  2  0  0  0  0
 19 13  1  0  0  0  0
 20  7  1  0  0  0  0
 21 20  1  0  0  0  0
 22 21  1  0  0  0  0
M  END
>  <minimizedAffinity>
-4.50132513

$$$$

 OpenBabel03272501013D

 22 23  0  0  0  0  0  0  0  0999 V2000
   36.0460   20.7940   35.5320 F   0  0  0  0  0  0  0  0  0  0  0  0
   36.7030   21.3150   34.4680 C   0  0  0  0  0  0  0  0  0  0  0  0
   37.7780   22.1810   34.5820 C   0  0  0  0  0  0  0  0  0  0  0  0
   38.3930   22.6530   33.4340 C   0  0  0  0  0  0  0  0  0  0  0  0
   37.9900   22.3040   32.1710 C   0  0  0  0  0  0  0  0  0  0  0  0
   36.8970   21.4250   32.0730 C   0  0  0  0  0  0  0  0  0  0  0  0
   36.2610   20.9350   33.2130 C   0  0  0  0  0  0  0  0  0  0  0  0
   39.2240   23.3240   33.6060 H   0  0  0  0  0  0  0  0  0  0  0  0
   38.5090   22.7040   31.3230 H   0  0  0  0  0  0  0  0  0  0  0  0
   36.5660   21.1380   31.0770 H   0  0  0  0  0  0  0  0  0  0  0  0
   39.9670   22.5860   37.4810 C   0  0  0  0  0  0  0  0  0  0  0  0
   39.1790   23.2540   38.4200 C   0  0  0  0  0  0  0  0  0  0  0  0
   37.8810   23.5630   38.0420 C   0  0  0  0  0  0  0  0  0  0  0  0
   37.4480   23.2120   36.8100 N   0  0  0  0  0  0  0  0  0  0  0  0
   38.2280   22.5700   35.9260 C   0  0  0  0  0  0  0  0  0  0  0  0
   39.4930   22.2560   36.2640 N   0  0  0  0  0  0  0  0  0  0  0  0
   40.9610   22.3730   37.8310 H   0  0  0  0  0  0  0  0  0  0  0  0
   39.4030   23.5800   39.4080 H   0  0  0  0  0  0  0  0  0  0  0  0
   37.0710   24.0720   38.5730 H   0  0  0  0  0  0  0  0  0  0  0  0
   35.1080   20.0090   32.9820 C   0  0  0  0  0  2  0  0  0  0  0  0
   35.5550   18.5880   32.7090 C   0  0  0  0  0  2  0  0  0  0  0  0
   35.2230   18.2480   31.7290 H   0  0  0  0  0  0  0  0  0  0  0  0
  2  3  1  0  0  0  0
  2  1  1  0  0  0  0
  3 15  1  0  0  0  0
  4  8  1  0  0  0  0
  4  3  2  0  0  0  0
  5  4  1  0  0  0  0
  6  5  2  0  0  0  0
  6  7  1  0  0  0  0
  7  2  2  0  0  0  0
  9  5  1  0  0  0  0
 10  6  1  0  0  0  0
 11 17  1  0  0  0  0
 11 12  1  0  0  0  0
 12 18  1  0  0  0  0
 13 12  2  0  0  0  0
 13 19  1  0  0  0  0
 14 13  1  0  0  0  0
 15 16  1  0  0  0  0
 15 14  2  0  0  0  0
 16 11  2  0  0  0  0
 20  7  1  0  0  0  0
 21 20  1  0  0  0  0
 22 21  1  0  0  0  0
M  END
>  <minimizedAffinity>
-4.48757744

$$$$

 OpenBabel03272501013D

 22 23  0  0  0  0  0  0  0  0999 V2000
   38.1980   23.6800   33.3420 F   0  0  0  0  0  0  0  0  0  0  0  0
   37.3470   22.6390   33.5080 C   0  0  0  0  0  0  0  0  0  0  0  0
   37.2300   21.9270   34.6910 C   0  0  0  0  0  0  0  0  0  0  0  0
   36.3220   20.8830   34.7670 C   0  0  0  0  0  0  0  0  0  0  0  0
   35.5190   20.5110   33.7200 C   0  0  0  0  0  0  0  0  0  0  0  0
   35.6510   21.2430   32.5270 C   0  0  0  0  0  0  0  0  0  0  0  0
   36.5570   22.2990   32.4240 C   0  0  0  0  0  0  0  0  0  0  0  0
   36.2900   20.3770   35.7220 H   0  0  0  0  0  0  0  0  0  0  0  0
   34.8370   19.6950   33.8450 H   0  0  0  0  0  0  0  0  0  0  0  0
   35.0200   20.9590   31.6870 H   0  0  0  0  0  0  0  0  0  0  0  0
   38.2160   23.3530   37.9080 C   0  0  0  0  0  0  0  0  0  0  0  0
   39.5790   23.0700   38.0100 C   0  0  0  0  0  0  0  0  0  0  0  0
   40.1570   22.3800   36.9540 C   0  0  0  0  0  0  0  0  0  0  0  0
   39.3900   22.0230   35.8990 N   0  0  0  0  0  0  0  0  0  0  0  0
   38.0810   22.3080   35.8270 C   0  0  0  0  0  0  0  0  0  0  0  0
   37.4920   22.9770   36.8370 N   0  0  0  0  0  0  0  0  0  0  0  0
   37.8260   23.8890   38.7540 H   0  0  0  0  0  0  0  0  0  0  0  0
   40.2790   23.2960   38.7790 H   0  0  0  0  0  0  0  0  0  0  0  0
   41.1810   22.0380   36.7830 H   0  0  0  0  0  0  0  0  0  0  0  0
   36.6090   22.9990   31.1030 C   0  0  0  0  0  2  0  0  0  0  0  0
   35.7660   24.2580   31.0840 C   0  0  0  0  0  2  0  0  0  0  0  0
   34.9880   24.2040   30.3250 H   0  0  0  0  0  0  0  0  0  0  0  0
  1  2  1  0  0  0  0
  2  3  1  0  0  0  0
  3  4  2  0  0  0  0
  3 15  1  0  0  0  0
  4  8  1  0  0  0  0
  5  9  1  0  0  0  0
  5  4  1  0  0  0  0
  6  5  2  0  0  0  0
  7  6  1  0  0  0  0
  7  2  2  0  0  0  0
 10  6  1  0  0  0  0
 11 12  1  0  0  0  0
 11 17  1  0  0  0  0
 12 18  1  0  0  0  0
 13 12  2  0  0  0  0
 14 13  1  0  0  0  0
 15 14  2  0  0  0  0
 15 16  1  0  0  0  0
 16 11  2  0  0  0  0
 19 13  1  0  0  0  0
 20  7  1  0  0  0  0
 21 20  1  0  0  0  0
 22 21  1  0  0  0  0
M  END
>  <minimizedAffinity>
-4.48550224

$$$$

 OpenBabel03272501013D

 22 23  0  0  0  0  0  0  0  0999 V2000
   32.9330   29.4010   34.4290 F   0  0  0  0  0  0  0  0  0  0  0  0
   33.6620   30.2670   35.1720 C   0  0  0  0  0  0  0  0  0  0  0  0
   34.9740   30.6070   34.8840 C   0  0  0  0  0  0  0  0  0  0  0  0
   35.6350   31.5120   35.6990 C   0  0  0  0  0  0  0  0  0  0  0  0
   35.0520   32.1010   36.7910 C   0  0  0  0  0  0  0  0  0  0  0  0
   33.7210   31.7450   37.0700 C   0  0  0  0  0  0  0  0  0  0  0  0
   33.0330   30.8370   36.2660 C   0  0  0  0  0  0  0  0  0  0  0  0
   36.6550   31.7250   35.4090 H   0  0  0  0  0  0  0  0  0  0  0  0
   35.6180   32.7950   37.3800 H   0  0  0  0  0  0  0  0  0  0  0  0
   33.2450   32.2050   37.9340 H   0  0  0  0  0  0  0  0  0  0  0  0
   36.3240   30.2370   31.5080 C   0  0  0  0  0  0  0  0  0  0  0  0
   36.8180   28.9320   31.4730 C   0  0  0  0  0  0  0  0  0  0  0  0
   36.6800   28.1780   32.6290 C   0  0  0  0  0  0  0  0  0  0  0  0
   36.0860   28.7300   33.7120 N   0  0  0  0  0  0  0  0  0  0  0  0
   35.6200   29.9880   33.7180 C   0  0  0  0  0  0  0  0  0  0  0  0
   35.7400   30.7450   32.6100 N   0  0  0  0  0  0  0  0  0  0  0  0
   36.4590   30.7700   30.5850 H   0  0  0  0  0  0  0  0  0  0  0  0
   37.2990   28.3930   30.6910 H   0  0  0  0  0  0  0  0  0  0  0  0
   36.9740   27.1530   32.8670 H   0  0  0  0  0  0  0  0  0  0  0  0
   31.6230   30.5340   36.6650 C   0  0  0  0  0  2  0  0  0  0  0  0
   31.4840   29.1670   37.3020 C   0  0  0  0  0  2  0  0  0  0  0  0
   30.8050   28.5320   36.7360 H   0  0  0  0  0  0  0  0  0  0  0  0
  1  2  1  0  0  0  0
  2  7  1  0  0  0  0
  3  2  2  0  0  0  0
  3  4  1  0  0  0  0
  4  5  2  0  0  0  0
  5  6  1  0  0  0  0
  5  9  1  0  0  0  0
  6 10  1  0  0  0  0
  7 20  1  0  0  0  0
  7  6  2  0  0  0  0
  8  4  1  0  0  0  0
 11 16  1  0  0  0  0
 12 11  2  0  0  0  0
 12 13  1  0  0  0  0
 13 19  1  0  0  0  0
 13 14  2  0  0  0  0
 14 15  1  0  0  0  0
 15  3  1  0  0  0  0
 16 15  2  0  0  0  0
 17 11  1  0  0  0  0
 18 12  1  0  0  0  0
 20 21  1  0  0  0  0
 22 21  1  0  0  0  0
M  END
>  <minimizedAffinity>
-4.32010603

$$$$

 OpenBabel03272501013D

 22 23  0  0  0  0  0  0  0  0999 V2000
   34.6050   22.3300   32.5190 F   0  0  0  0  0  0  0  0  0  0  0  0
   35.6950   21.8940   31.8420 C   0  0  0  0  0  0  0  0  0  0  0  0
   36.7160   22.7290   31.4160 C   0  0  0  0  0  0  0  0  0  0  0  0
   37.7960   22.1870   30.7390 C   0  0  0  0  0  0  0  0  0  0  0  0
   37.9140   20.8480   30.4660 C   0  0  0  0  0  0  0  0  0  0  0  0
   36.8700   20.0160   30.9040 C   0  0  0  0  0  0  0  0  0  0  0  0
   35.7710   20.5360   31.5880 C   0  0  0  0  0  0  0  0  0  0  0  0
   38.5500   22.9020   30.4400 H   0  0  0  0  0  0  0  0  0  0  0  0
   38.7770   20.4930   29.9390 H   0  0  0  0  0  0  0  0  0  0  0  0
   36.9500   18.9510   30.6940 H   0  0  0  0  0  0  0  0  0  0  0  0
   35.6720   26.2160   31.0980 C   0  0  0  0  0  0  0  0  0  0  0  0
   36.3350   26.8730   32.1360 C   0  0  0  0  0  0  0  0  0  0  0  0
   37.1490   26.0990   32.9490 C   0  0  0  0  0  0  0  0  0  0  0  0
   37.2600   24.7730   32.7040 N   0  0  0  0  0  0  0  0  0  0  0  0
   36.6110   24.1670   31.6980 C   0  0  0  0  0  0  0  0  0  0  0  0
   35.8130   24.8930   30.8910 N   0  0  0  0  0  0  0  0  0  0  0  0
   35.0590   26.8680   30.5020 H   0  0  0  0  0  0  0  0  0  0  0  0
   36.3270   27.8970   32.4260 H   0  0  0  0  0  0  0  0  0  0  0  0
   37.7660   26.3540   33.8140 H   0  0  0  0  0  0  0  0  0  0  0  0
   34.7220   19.5520   32.0010 C   0  0  0  0  0  2  0  0  0  0  0  0
   35.3120   18.3300   32.6760 C   0  0  0  0  0  2  0  0  0  0  0  0
   35.0710   17.4190   32.1310 H   0  0  0  0  0  0  0  0  0  0  0  0
  2  1  1  0  0  0  0
  3 15  1  0  0  0  0
  3  2  2  0  0  0  0
  4  3  1  0  0  0  0
  5  4  2  0  0  0  0
  5  6  1  0  0  0  0
  6  7  2  0  0  0  0
  7  2  1  0  0  0  0
  7 20  1  0  0  0  0
  8  4  1  0  0  0  0
  9  5  1  0  0  0  0
 10  6  1  0  0  0  0
 11 12  1  0  0  0  0
 12 18  1  0  0  0  0
 12 13  2  0  0  0  0
 13 19  1  0  0  0  0
 14 13  1  0  0  0  0
 15 14  2  0  0  0  0
 16 11  2  0  0  0  0
 16 15  1  0  0  0  0
 17 11  1  0  0  0  0
 20 21  1  0  0  0  0
 22 21  1  0  0  0  0
M  END
>  <minimizedAffinity>
-4.2727561

$$$$

 OpenBabel03272501013D

 22 23  0  0  0  0  0  0  0  0999 V2000
   40.3510   24.6030   34.8360 F   0  0  0  0  0  0  0  0  0  0  0  0
   39.7600   24.1710   35.9750 C   0  0  0  0  0  0  0  0  0  0  0  0
   40.3250   23.2300   36.8210 C   0  0  0  0  0  0  0  0  0  0  0  0
   39.6470   22.8590   37.9710 C   0  0  0  0  0  0  0  0  0  0  0  0
   38.4300   23.3810   38.3250 C   0  0  0  0  0  0  0  0  0  0  0  0
   37.8700   24.3340   37.4560 C   0  0  0  0  0  0  0  0  0  0  0  0
   38.5320   24.7250   36.2920 C   0  0  0  0  0  0  0  0  0  0  0  0
   40.1530   22.1200   38.5790 H   0  0  0  0  0  0  0  0  0  0  0  0
   37.9590   23.0520   39.2300 H   0  0  0  0  0  0  0  0  0  0  0  0
   36.9050   24.7580   37.7240 H   0  0  0  0  0  0  0  0  0  0  0  0
   42.8050   20.7890   35.7060 C   0  0  0  0  0  0  0  0  0  0  0  0
   44.0180   21.4770   35.7590 C   0  0  0  0  0  0  0  0  0  0  0  0
   43.9720   22.7970   36.1850 C   0  0  0  0  0  0  0  0  0  0  0  0
   42.7810   23.3420   36.5220 N   0  0  0  0  0  0  0  0  0  0  0  0
   41.6290   22.6560   36.4620 C   0  0  0  0  0  0  0  0  0  0  0  0
   41.6420   21.3730   36.0520 N   0  0  0  0  0  0  0  0  0  0  0  0
   42.9050   19.7720   35.3700 H   0  0  0  0  0  0  0  0  0  0  0  0
   45.0060   21.1610   35.5220 H   0  0  0  0  0  0  0  0  0  0  0  0
   44.7570   23.5460   36.3150 H   0  0  0  0  0  0  0  0  0  0  0  0
   37.8350   25.7440   35.4460 C   0  0  0  0  0  2  0  0  0  0  0  0
   38.2650   27.1590   35.7760 C   0  0  0  0  0  2  0  0  0  0  0  0
   37.4220   27.7640   36.1060 H   0  0  0  0  0  0  0  0  0  0  0  0
  1  2  1  0  0  0  0
  2  7  2  0  0  0  0
  2  3  1  0  0  0  0
  3  4  2  0  0  0  0
  4  5  1  0  0  0  0
  4  8  1  0  0  0  0
  5  9  1  0  0  0  0
  6 10  1  0  0  0  0
  6  5  2  0  0  0  0
  7  6  1  0  0  0  0
 11 12  2  0  0  0  0
 11 16  1  0  0  0  0
 12 13  1  0  0  0  0
 13 19  1  0  0  0  0
 13 14  2  0  0  0  0
 15 14  1  0  0  0  0
 15  3  1  0  0  0  0
 16 15  2  0  0  0  0
 17 11  1  0  0  0  0
 18 12  1  0  0  0  0
 20 21  1  0  0  0  0
 20  7  1  0  0  0  0
 21 22  1  0  0  0  0
M  END
>  <minimizedAffinity>
-4.25582695

$$$$

 OpenBabel03272501013D

 22 23  0  0  0  0  0  0  0  0999 V2000
   35.3330   28.4640   34.5900 F   0  0  0  0  0  0  0  0  0  0  0  0
   35.6680   29.2240   33.5200 C   0  0  0  0  0  0  0  0  0  0  0  0
   36.1500   28.7010   32.3310 C   0  0  0  0  0  0  0  0  0  0  0  0
   36.4570   29.5600   31.2880 C   0  0  0  0  0  0  0  0  0  0  0  0
   36.3050   30.9210   31.3680 C   0  0  0  0  0  0  0  0  0  0  0  0
   35.8160   31.4350   32.5820 C   0  0  0  0  0  0  0  0  0  0  0  0
   35.5000   30.5920   33.6470 C   0  0  0  0  0  0  0  0  0  0  0  0
   36.8270   29.0760   30.3940 H   0  0  0  0  0  0  0  0  0  0  0  0
   36.5600   31.5290   30.5240 H   0  0  0  0  0  0  0  0  0  0  0  0
   35.6910   32.5130   32.6600 H   0  0  0  0  0  0  0  0  0  0  0  0
   35.6370   25.2660   31.1950 C   0  0  0  0  0  0  0  0  0  0  0  0
   36.5570   24.5160   31.9300 C   0  0  0  0  0  0  0  0  0  0  0  0
   37.3580   25.2100   32.8250 C   0  0  0  0  0  0  0  0  0  0  0  0
   37.2140   26.5500   32.9420 N   0  0  0  0  0  0  0  0  0  0  0  0
   36.3210   27.2460   32.2210 C   0  0  0  0  0  0  0  0  0  0  0  0
   35.5290   26.6000   31.3440 N   0  0  0  0  0  0  0  0  0  0  0  0
   35.0450   24.6740   30.5200 H   0  0  0  0  0  0  0  0  0  0  0  0
   36.7610   23.4720   31.9270 H   0  0  0  0  0  0  0  0  0  0  0  0
   38.1420   24.8750   33.5090 H   0  0  0  0  0  0  0  0  0  0  0  0
   34.9910   31.2560   34.8880 C   0  0  0  0  0  2  0  0  0  0  0  0
   36.0950   31.5310   35.8880 C   0  0  0  0  0  2  0  0  0  0  0  0
   35.9120   31.0200   36.8320 H   0  0  0  0  0  0  0  0  0  0  0  0
  2  7  1  0  0  0  0
  2  1  1  0  0  0  0
  3  2  2  0  0  0  0
  4  5  2  0  0  0  0
  4  3  1  0  0  0  0
  5  6  1  0  0  0  0
  6 10  1  0  0  0  0
  6  7  2  0  0  0  0
  7 20  1  0  0  0  0
  8  4  1  0  0  0  0
  9  5  1  0  0  0  0
 11 16  2  0  0  0  0
 11 12  1  0  0  0  0
 12 13  2  0  0  0  0
 13 14  1  0  0  0  0
 13 19  1  0  0  0  0
 15  3  1  0  0  0  0
 15 14  2  0  0  0  0
 16 15  1  0  0  0  0
 17 11  1  0  0  0  0
 18 12  1  0  0  0  0
 20 21  1  0  0  0  0
 21 22  1  0  0  0  0
M  END
>  <minimizedAffinity>
-4.24418592

$$$$

 OpenBabel03272501013D

 22 23  0  0  0  0  0  0  0  0999 V2000
   35.0420   31.4320   32.4270 F   0  0  0  0  0  0  0  0  0  0  0  0
   35.6230   30.2640   32.7900 C   0  0  0  0  0  0  0  0  0  0  0  0
   35.5810   29.7550   34.0780 C   0  0  0  0  0  0  0  0  0  0  0  0
   36.1980   28.5450   34.3490 C   0  0  0  0  0  0  0  0  0  0  0  0
   36.8580   27.8100   33.3980 C   0  0  0  0  0  0  0  0  0  0  0  0
   36.8930   28.3410   32.0970 C   0  0  0  0  0  0  0  0  0  0  0  0
   36.2790   29.5570   31.7970 C   0  0  0  0  0  0  0  0  0  0  0  0
   36.1210   28.2150   35.3770 H   0  0  0  0  0  0  0  0  0  0  0  0
   37.3140   26.8810   33.6740 H   0  0  0  0  0  0  0  0  0  0  0  0
   37.4130   27.7690   31.3310 H   0  0  0  0  0  0  0  0  0  0  0  0
   35.0390   32.0940   36.8330 C   0  0  0  0  0  0  0  0  0  0  0  0
   33.6680   32.0230   37.0840 C   0  0  0  0  0  0  0  0  0  0  0  0
   32.9300   31.1560   36.2920 C   0  0  0  0  0  0  0  0  0  0  0  0
   33.5580   30.4370   35.3340 N   0  0  0  0  0  0  0  0  0  0  0  0
   34.8790   30.5250   35.1140 C   0  0  0  0  0  0  0  0  0  0  0  0
   35.6220   31.3580   35.8680 N   0  0  0  0  0  0  0  0  0  0  0  0
   35.5570   32.7800   37.4780 H   0  0  0  0  0  0  0  0  0  0  0  0
   33.0670   32.5320   37.8000 H   0  0  0  0  0  0  0  0  0  0  0  0
   31.8640   30.9150   36.2780 H   0  0  0  0  0  0  0  0  0  0  0  0
   36.3860   30.0200   30.3780 C   0  0  0  0  0  2  0  0  0  0  0  0
   37.2860   29.1280   29.5470 C   0  0  0  0  0  2  0  0  0  0  0  0
   38.1300   29.6830   29.1410 H   0  0  0  0  0  0  0  0  0  0  0  0
  1  2  1  0  0  0  0
  2  3  1  0  0  0  0
  3  4  2  0  0  0  0
  3 15  1  0  0  0  0
  4  8  1  0  0  0  0
  5  9  1  0  0  0  0
  5  4  1  0  0  0  0
  6  5  2  0  0  0  0
  7  6  1  0  0  0  0
  7  2  2  0  0  0  0
 10  6  1  0  0  0  0
 11 12  1  0  0  0  0
 11 17  1  0  0  0  0
 12 18  1  0  0  0  0
 13 12  2  0  0  0  0
 14 13  1  0  0  0  0
 15 14  2  0  0  0  0
 15 16  1  0  0  0  0
 16 11  2  0  0  0  0
 19 13  1  0  0  0  0
 20  7  1  0  0  0  0
 21 20  1  0  0  0  0
 22 21  1  0  0  0  0
M  END
>  <minimizedAffinity>
-4.2171073

$$$$
