
 OpenBabel03272508323D

 39 42  0  0  1  0  0  0  0  0999 V2000
   33.7520   29.6260   46.2140 N   0  0  0  0  0  0  0  0  0  0  0  0
   32.3360   29.8890   46.0720 C   0  0  0  0  0  0  0  0  0  0  0  0
   31.8420   29.6740   44.6870 C   0  0  0  0  0  0  0  0  0  0  0  0
   32.7040   28.7410   43.9940 N   0  0  0  0  0  0  0  0  0  0  0  0
   33.9770   29.4250   43.7800 C   0  0  0  0  0  0  0  0  0  0  0  0
   34.6860   29.3830   45.0990 C   0  0  1  0  0  0  0  0  0  0  0  0
   31.8120   29.1790   46.7580 H   0  0  0  0  0  0  0  0  0  0  0  0
   32.0810   30.9050   46.4000 H   0  0  0  0  0  0  0  0  0  0  0  0
   30.7810   29.3830   44.6720 H   0  0  0  0  0  0  0  0  0  0  0  0
   31.9440   30.6520   44.1440 H   0  0  0  0  0  0  0  0  0  0  0  0
   32.3080   28.3790   43.1130 H   0  0  0  0  0  0  0  0  0  0  0  0
   33.7140   30.4620   43.4760 H   0  0  0  0  0  0  0  0  0  0  0  0
   34.5620   28.8920   43.0110 H   0  0  0  0  0  0  0  0  0  0  0  0
   35.0630   28.3630   45.2990 H   0  0  0  0  0  0  0  0  0  0  0  0
   36.1410   31.2410   44.1520 C   0  0  0  0  0  0  0  0  0  0  0  0
   35.8540   30.2960   45.1440 C   0  0  0  0  0  0  0  0  0  0  0  0
   36.6530   30.1880   46.2660 C   0  0  0  0  0  0  0  0  0  0  0  0
   37.7260   31.0480   46.3660 C   0  0  0  0  0  0  0  0  0  0  0  0
   38.0100   32.0010   45.3580 C   0  0  0  0  0  0  0  0  0  0  0  0
   37.2040   32.1120   44.2130 C   0  0  0  0  0  0  0  0  0  0  0  0
   39.1570   32.7390   45.7050 O   0  0  0  0  0  0  0  0  0  0  0  0
   39.3560   32.5210   47.0780 C   0  0  0  0  0  0  0  0  0  0  0  0
   38.7310   31.2580   47.3140 O   0  0  0  0  0  0  0  0  0  0  0  0
   35.5000   31.2980   43.2870 H   0  0  0  0  0  0  0  0  0  0  0  0
   36.7030   29.5290   47.0950 H   0  0  0  0  0  0  0  0  0  0  0  0
   37.4180   32.8340   43.4460 H   0  0  0  0  0  0  0  0  0  0  0  0
   38.7710   33.2490   47.6950 H   0  0  0  0  0  0  0  0  0  0  0  0
   40.3900   32.5620   47.4150 H   0  0  0  0  0  0  0  0  0  0  0  0
   34.6710   28.3550   48.1140 C   0  0  0  0  0  0  0  0  0  0  0  0
   34.3020   29.5890   47.5340 C   0  0  0  0  0  0  0  0  0  0  0  0
   34.5070   30.7290   48.2790 C   0  0  0  0  0  0  0  0  0  0  0  0
   35.0580   30.6130   49.5330 N   0  0  0  0  0  0  0  0  0  0  0  0
   35.3930   29.4210   50.0350 C   0  0  0  0  0  0  0  0  0  0  0  0
   35.2110   28.2840   49.3500 N   0  0  0  0  0  0  0  0  0  0  0  0
   34.5070   27.4560   47.5280 H   0  0  0  0  0  0  0  0  0  0  0  0
   34.2330   31.6830   47.8640 H   0  0  0  0  0  0  0  0  0  0  0  0
   35.9790   29.4880   51.4100 C   0  0  0  0  0  0  0  0  0  0  0  0
   37.3380   30.1850   51.3140 C   0  0  0  0  0  0  0  0  0  0  0  0
   37.8990   30.0790   52.2580 H   0  0  0  0  0  0  0  0  0  0  0  0
  1 30  1  0  0  0  0
  2  1  1  0  0  0  0
  2  8  1  0  0  0  0
  2  7  1  0  0  0  0
  3  2  1  0  0  0  0
  4  3  1  0  0  0  0
  5  4  1  0  0  0  0
  5  6  1  0  0  0  0
  6 16  1  0  0  0  0
  6 14  1  1  0  0  0
  6  1  1  0  0  0  0
  9  3  1  0  0  0  0
 10  3  1  0  0  0  0
 11  4  1  0  0  0  0
 12  5  1  0  0  0  0
 13  5  1  0  0  0  0
 15 20  2  0  0  0  0
 15 16  1  0  0  0  0
 16 17  2  0  0  0  0
 17 18  1  0  0  0  0
 17 25  1  0  0  0  0
 18 23  1  0  0  0  0
 19 21  1  0  0  0  0
 19 18  2  0  0  0  0
 20 19  1  0  0  0  0
 21 22  1  0  0  0  0
 22 23  1  0  0  0  0
 22 28  1  0  0  0  0
 22 27  1  0  0  0  0
 24 15  1  0  0  0  0
 26 20  1  0  0  0  0
 29 34  1  0  0  0  0
 30 29  2  0  0  0  0
 30 31  1  0  0  0  0
 31 32  2  0  0  0  0
 32 33  1  0  0  0  0
 33 37  1  0  0  0  0
 34 33  2  0  0  0  0
 35 29  1  0  0  0  0
 36 31  1  0  0  0  0
 38 37  1  0  0  0  0
 38 39  1  0  0  0  0
M  END
>  <minimizedAffinity>
-4.91942978

>  <minimizedRMSD>
1.62128043

$$$$
