
 OpenBabel03272507453D

 27 28  0  0  0  0  0  0  0  0999 V2000
   38.3270   25.5460   35.2050 N   0  0  0  0  0  0  0  0  0  0  0  0
   39.4440   24.7000   34.8770 C   0  0  0  0  0  0  0  0  0  0  0  0
   39.4740   23.3480   35.4330 C   0  0  0  0  0  0  0  0  0  0  0  0
   38.7650   23.0900   36.7120 C   0  0  0  0  0  0  0  0  0  0  0  0
   37.6800   24.0890   37.0360 C   0  0  0  0  0  0  0  0  0  0  0  0
   38.1420   25.4890   36.6220 C   0  0  0  0  0  0  0  0  0  0  0  0
   40.3540   25.2640   35.2330 H   0  0  0  0  0  0  0  0  0  0  0  0
   39.5740   24.6740   33.7700 H   0  0  0  0  0  0  0  0  0  0  0  0
   40.5520   23.0440   35.5770 H   0  0  0  0  0  0  0  0  0  0  0  0
   39.1300   22.6390   34.6310 H   0  0  0  0  0  0  0  0  0  0  0  0
   38.2180   22.1060   36.6240 H   0  0  0  0  0  0  0  0  0  0  0  0
   37.5120   24.1320   38.1190 H   0  0  0  0  0  0  0  0  0  0  0  0
   36.7280   23.8860   36.5360 H   0  0  0  0  0  0  0  0  0  0  0  0
   39.0460   25.7770   37.1970 H   0  0  0  0  0  0  0  0  0  0  0  0
   37.3440   26.2110   36.8970 H   0  0  0  0  0  0  0  0  0  0  0  0
   37.5580   26.2940   34.2830 C   0  0  0  0  0  0  0  0  0  0  0  0
   37.0820   27.5860   34.5060 C   0  0  0  0  0  0  0  0  0  0  0  0
   36.3370   28.2270   33.5310 C   0  0  0  0  0  0  0  0  0  0  0  0
   36.1010   27.5380   32.3670 N   0  0  0  0  0  0  0  0  0  0  0  0
   36.5760   26.2900   32.1830 C   0  0  0  0  0  0  0  0  0  0  0  0
   37.2920   25.6860   33.1320 N   0  0  0  0  0  0  0  0  0  0  0  0
   37.3180   28.0470   35.4530 H   0  0  0  0  0  0  0  0  0  0  0  0
   35.9620   29.2150   33.6810 H   0  0  0  0  0  0  0  0  0  0  0  0
   36.3560   25.7970   31.2420 H   0  0  0  0  0  0  0  0  0  0  0  0
   39.7290   22.8730   37.8620 C   0  0  0  0  0  2  0  0  0  0  0  0
   40.8800   21.9820   37.4500 C   0  0  0  0  0  2  0  0  0  0  0  0
   40.6350   20.9270   37.5620 H   0  0  0  0  0  0  0  0  0  0  0  0
  1  6  1  0  0  0  0
  2  1  1  0  0  0  0
  2  7  1  0  0  0  0
  2  3  1  0  0  0  0
  3  9  1  0  0  0  0
  3  4  1  0  0  0  0
  4  5  1  0  0  0  0
  4 25  1  0  0  0  0
  5 12  1  0  0  0  0
  6 15  1  0  0  0  0
  6  5  1  0  0  0  0
  6 14  1  0  0  0  0
  8  2  1  0  0  0  0
 10  3  1  0  0  0  0
 11  4  1  0  0  0  0
 13  5  1  0  0  0  0
 16 17  1  0  0  0  0
 16  1  1  0  0  0  0
 17 22  1  0  0  0  0
 18 23  1  0  0  0  0
 18 17  2  0  0  0  0
 19 18  1  0  0  0  0
 20 19  2  0  0  0  0
 20 21  1  0  0  0  0
 21 16  2  0  0  0  0
 24 20  1  0  0  0  0
 26 27  1  0  0  0  0
 26 25  1  0  0  0  0
M  END
>  <minimizedAffinity>
-4.15383863

$$$$

 OpenBabel03272507453D

 27 28  0  0  0  0  0  0  0  0999 V2000
   38.8310   24.6730   35.6180 N   0  0  0  0  0  0  0  0  0  0  0  0
   38.3190   24.7800   34.2780 C   0  0  0  0  0  0  0  0  0  0  0  0
   38.2370   26.1080   33.6730 C   0  0  0  0  0  0  0  0  0  0  0  0
   38.0890   27.2860   34.5650 C   0  0  0  0  0  0  0  0  0  0  0  0
   38.5480   27.0560   35.9850 C   0  0  0  0  0  0  0  0  0  0  0  0
   38.1510   25.6420   36.4210 C   0  0  0  0  0  0  0  0  0  0  0  0
   37.2850   24.3320   34.3220 H   0  0  0  0  0  0  0  0  0  0  0  0
   38.8760   24.0780   33.6140 H   0  0  0  0  0  0  0  0  0  0  0  0
   37.3690   26.1200   32.9510 H   0  0  0  0  0  0  0  0  0  0  0  0
   39.1210   26.2300   32.9880 H   0  0  0  0  0  0  0  0  0  0  0  0
   38.7650   28.1070   34.1850 H   0  0  0  0  0  0  0  0  0  0  0  0
   38.0320   27.7410   36.6690 H   0  0  0  0  0  0  0  0  0  0  0  0
   39.6280   27.1610   36.1230 H   0  0  0  0  0  0  0  0  0  0  0  0
   37.0480   25.5340   36.4020 H   0  0  0  0  0  0  0  0  0  0  0  0
   38.4690   25.5040   37.4760 H   0  0  0  0  0  0  0  0  0  0  0  0
   39.8270   23.7670   36.0520 C   0  0  0  0  0  0  0  0  0  0  0  0
   39.6970   22.9010   37.1380 C   0  0  0  0  0  0  0  0  0  0  0  0
   40.7400   22.0540   37.4760 C   0  0  0  0  0  0  0  0  0  0  0  0
   41.8730   22.1150   36.7040 N   0  0  0  0  0  0  0  0  0  0  0  0
   41.9660   22.9640   35.6610 C   0  0  0  0  0  0  0  0  0  0  0  0
   40.9540   23.7740   35.3480 N   0  0  0  0  0  0  0  0  0  0  0  0
   38.7680   22.9240   37.6850 H   0  0  0  0  0  0  0  0  0  0  0  0
   40.6620   21.3830   38.3020 H   0  0  0  0  0  0  0  0  0  0  0  0
   42.8890   22.9660   35.0890 H   0  0  0  0  0  0  0  0  0  0  0  0
   36.6990   27.8880   34.4850 C   0  0  0  0  0  2  0  0  0  0  0  0
   36.3700   28.3160   33.0710 C   0  0  0  0  0  2  0  0  0  0  0  0
   36.7300   29.3220   32.8590 H   0  0  0  0  0  0  0  0  0  0  0  0
  1 16  1  0  0  0  0
  1  6  1  0  0  0  0
  2  7  1  0  0  0  0
  2  1  1  0  0  0  0
  3  2  1  0  0  0  0
  3  4  1  0  0  0  0
  4  5  1  0  0  0  0
  5 13  1  0  0  0  0
  5  6  1  0  0  0  0
  5 12  1  0  0  0  0
  6 15  1  0  0  0  0
  8  2  1  0  0  0  0
  9  3  1  0  0  0  0
 10  3  1  0  0  0  0
 11  4  1  0  0  0  0
 14  6  1  0  0  0  0
 16 17  1  0  0  0  0
 17 18  2  0  0  0  0
 17 22  1  0  0  0  0
 18 23  1  0  0  0  0
 19 18  1  0  0  0  0
 20 19  2  0  0  0  0
 21 20  1  0  0  0  0
 21 16  2  0  0  0  0
 24 20  1  0  0  0  0
 25  4  1  0  0  0  0
 26 25  1  0  0  0  0
 27 26  1  0  0  0  0
M  END
>  <minimizedAffinity>
-4.07520533

$$$$

 OpenBabel03272507453D

 27 28  0  0  0  0  0  0  0  0999 V2000
   38.4960   25.8690   35.1060 N   0  0  0  0  0  0  0  0  0  0  0  0
   38.1350   27.2340   35.3830 C   0  0  0  0  0  0  0  0  0  0  0  0
   37.0110   27.8140   34.6510 C   0  0  0  0  0  0  0  0  0  0  0  0
   36.6830   27.2720   33.3080 C   0  0  0  0  0  0  0  0  0  0  0  0
   37.1940   25.8730   33.0570 C   0  0  0  0  0  0  0  0  0  0  0  0
   38.5820   25.7230   33.6860 C   0  0  0  0  0  0  0  0  0  0  0  0
   39.0650   27.8340   35.1640 H   0  0  0  0  0  0  0  0  0  0  0  0
   37.9990   27.3620   36.4820 H   0  0  0  0  0  0  0  0  0  0  0  0
   37.1930   28.9210   34.5330 H   0  0  0  0  0  0  0  0  0  0  0  0
   36.1110   27.7890   35.3260 H   0  0  0  0  0  0  0  0  0  0  0  0
   35.5600   27.1750   33.2270 H   0  0  0  0  0  0  0  0  0  0  0  0
   37.3270   25.7030   31.9820 H   0  0  0  0  0  0  0  0  0  0  0  0
   36.5510   25.0870   33.4660 H   0  0  0  0  0  0  0  0  0  0  0  0
   39.2930   26.4300   33.2120 H   0  0  0  0  0  0  0  0  0  0  0  0
   38.9520   24.7000   33.4640 H   0  0  0  0  0  0  0  0  0  0  0  0
   38.7220   24.8610   36.0730 C   0  0  0  0  0  0  0  0  0  0  0  0
   39.6440   23.8220   35.9390 C   0  0  0  0  0  0  0  0  0  0  0  0
   39.7840   22.8870   36.9520 C   0  0  0  0  0  0  0  0  0  0  0  0
   38.9880   23.0390   38.0600 N   0  0  0  0  0  0  0  0  0  0  0  0
   38.1080   24.0550   38.1570 C   0  0  0  0  0  0  0  0  0  0  0  0
   37.9840   24.9470   37.1740 N   0  0  0  0  0  0  0  0  0  0  0  0
   40.2250   23.7850   35.0310 H   0  0  0  0  0  0  0  0  0  0  0  0
   40.4820   22.0840   36.8700 H   0  0  0  0  0  0  0  0  0  0  0  0
   37.5070   24.1210   39.0590 H   0  0  0  0  0  0  0  0  0  0  0  0
   37.0480   28.2400   32.2000 C   0  0  0  0  0  2  0  0  0  0  0  0
   36.6700   27.6860   30.8430 C   0  0  0  0  0  2  0  0  0  0  0  0
   37.4540   27.0490   30.4350 H   0  0  0  0  0  0  0  0  0  0  0  0
  1  2  1  0  0  0  0
  1 16  1  0  0  0  0
  2  8  1  0  0  0  0
  3 10  1  0  0  0  0
  3  2  1  0  0  0  0
  4  3  1  0  0  0  0
  5  4  1  0  0  0  0
  5 13  1  0  0  0  0
  5  6  1  0  0  0  0
  6  1  1  0  0  0  0
  7  2  1  0  0  0  0
  9  3  1  0  0  0  0
 11  4  1  0  0  0  0
 12  5  1  0  0  0  0
 14  6  1  0  0  0  0
 15  6  1  0  0  0  0
 16 21  1  0  0  0  0
 17 16  2  0  0  0  0
 17 18  1  0  0  0  0
 18 19  2  0  0  0  0
 19 20  1  0  0  0  0
 20 24  1  0  0  0  0
 21 20  2  0  0  0  0
 22 17  1  0  0  0  0
 23 18  1  0  0  0  0
 25  4  1  0  0  0  0
 26 25  1  0  0  0  0
 27 26  1  0  0  0  0
M  END
>  <minimizedAffinity>
-4.03503275

$$$$

 OpenBabel03272507453D

 27 28  0  0  0  0  0  0  0  0999 V2000
   38.2930   25.0800   34.7260 N   0  0  0  0  0  0  0  0  0  0  0  0
   39.2060   23.9840   34.5390 C   0  0  0  0  0  0  0  0  0  0  0  0
   39.1080   22.8410   35.4440 C   0  0  0  0  0  0  0  0  0  0  0  0
   38.5630   23.0590   36.8080 C   0  0  0  0  0  0  0  0  0  0  0  0
   37.7040   24.2930   36.9460 C   0  0  0  0  0  0  0  0  0  0  0  0
   38.3110   25.4270   36.1140 C   0  0  0  0  0  0  0  0  0  0  0  0
   40.2340   24.4390   34.6320 H   0  0  0  0  0  0  0  0  0  0  0  0
   39.1670   23.6500   33.4760 H   0  0  0  0  0  0  0  0  0  0  0  0
   40.1360   22.3870   35.5610 H   0  0  0  0  0  0  0  0  0  0  0  0
   38.5460   22.0260   34.9110 H   0  0  0  0  0  0  0  0  0  0  0  0
   37.8640   22.2070   37.0530 H   0  0  0  0  0  0  0  0  0  0  0  0
   37.7040   24.6450   37.9850 H   0  0  0  0  0  0  0  0  0  0  0  0
   36.6690   24.1510   36.6190 H   0  0  0  0  0  0  0  0  0  0  0  0
   39.3220   25.6780   36.4930 H   0  0  0  0  0  0  0  0  0  0  0  0
   37.6820   26.3320   36.2530 H   0  0  0  0  0  0  0  0  0  0  0  0
   37.5220   25.6960   33.7130 C   0  0  0  0  0  0  0  0  0  0  0  0
   37.0440   25.0490   32.5730 C   0  0  0  0  0  0  0  0  0  0  0  0
   36.2960   25.7510   31.6410 C   0  0  0  0  0  0  0  0  0  0  0  0
   36.0620   27.0790   31.8980 N   0  0  0  0  0  0  0  0  0  0  0  0
   36.5380   27.6730   33.0090 C   0  0  0  0  0  0  0  0  0  0  0  0
   37.2570   26.9840   33.8970 N   0  0  0  0  0  0  0  0  0  0  0  0
   37.2800   24.0030   32.4580 H   0  0  0  0  0  0  0  0  0  0  0  0
   35.9210   25.2760   30.7620 H   0  0  0  0  0  0  0  0  0  0  0  0
   36.3190   28.7260   33.1550 H   0  0  0  0  0  0  0  0  0  0  0  0
   39.6390   22.9680   37.8720 C   0  0  0  0  0  2  0  0  0  0  0  0
   40.7610   22.0490   37.4390 C   0  0  0  0  0  2  0  0  0  0  0  0
   40.5460   21.0090   37.6810 H   0  0  0  0  0  0  0  0  0  0  0  0
  1  6  1  0  0  0  0
  2  7  1  0  0  0  0
  2  1  1  0  0  0  0
  2  3  1  0  0  0  0
  3  9  1  0  0  0  0
  3  4  1  0  0  0  0
  4  5  1  0  0  0  0
  4 11  1  0  0  0  0
  4 25  1  0  0  0  0
  5 12  1  0  0  0  0
  6 15  1  0  0  0  0
  6 14  1  0  0  0  0
  6  5  1  0  0  0  0
  8  2  1  0  0  0  0
 10  3  1  0  0  0  0
 13  5  1  0  0  0  0
 16 21  1  0  0  0  0
 16  1  1  0  0  0  0
 17 16  2  0  0  0  0
 18 19  2  0  0  0  0
 18 17  1  0  0  0  0
 19 20  1  0  0  0  0
 20 24  1  0  0  0  0
 20 21  2  0  0  0  0
 22 17  1  0  0  0  0
 23 18  1  0  0  0  0
 26 27  1  0  0  0  0
 26 25  1  0  0  0  0
M  END
>  <minimizedAffinity>
-4.02043152

$$$$

 OpenBabel03272507453D

 27 28  0  0  0  0  0  0  0  0999 V2000
   38.9470   23.8520   35.5990 N   0  0  0  0  0  0  0  0  0  0  0  0
   38.6120   23.1950   36.8350 C   0  0  0  0  0  0  0  0  0  0  0  0
   39.6890   22.9160   37.7830 C   0  0  0  0  0  0  0  0  0  0  0  0
   41.0680   22.7410   37.2610 C   0  0  0  0  0  0  0  0  0  0  0  0
   41.3060   23.3660   35.9070 C   0  0  0  0  0  0  0  0  0  0  0  0
   40.0650   23.1630   35.0320 C   0  0  0  0  0  0  0  0  0  0  0  0
   38.1300   22.2220   36.5290 H   0  0  0  0  0  0  0  0  0  0  0  0
   37.7820   23.7490   37.3320 H   0  0  0  0  0  0  0  0  0  0  0  0
   39.4250   21.9810   38.3590 H   0  0  0  0  0  0  0  0  0  0  0  0
   39.6580   23.7060   38.5820 H   0  0  0  0  0  0  0  0  0  0  0  0
   41.7800   23.2870   37.9460 H   0  0  0  0  0  0  0  0  0  0  0  0
   42.1290   22.8560   35.3910 H   0  0  0  0  0  0  0  0  0  0  0  0
   41.5200   24.4390   35.9460 H   0  0  0  0  0  0  0  0  0  0  0  0
   39.8830   22.0810   34.8750 H   0  0  0  0  0  0  0  0  0  0  0  0
   40.2730   23.6020   34.0330 H   0  0  0  0  0  0  0  0  0  0  0  0
   38.2830   24.9750   35.0540 C   0  0  0  0  0  0  0  0  0  0  0  0
   38.0580   26.1740   35.7310 C   0  0  0  0  0  0  0  0  0  0  0  0
   37.3940   27.2120   35.0990 C   0  0  0  0  0  0  0  0  0  0  0  0
   36.9840   27.0000   33.8060 N   0  0  0  0  0  0  0  0  0  0  0  0
   37.2180   25.8300   33.1800 C   0  0  0  0  0  0  0  0  0  0  0  0
   37.8580   24.8390   33.8020 N   0  0  0  0  0  0  0  0  0  0  0  0
   38.4170   26.2470   36.7460 H   0  0  0  0  0  0  0  0  0  0  0  0
   37.2110   28.1370   35.5990 H   0  0  0  0  0  0  0  0  0  0  0  0
   36.8690   25.7220   32.1580 H   0  0  0  0  0  0  0  0  0  0  0  0
   41.5240   21.2970   37.3320 C   0  0  0  0  0  2  0  0  0  0  0  0
   42.8650   21.1130   36.6550 C   0  0  0  0  0  2  0  0  0  0  0  0
   42.7570   20.9420   35.5850 H   0  0  0  0  0  0  0  0  0  0  0  0
  1  2  1  0  0  0  0
  2  8  1  0  0  0  0
  2  3  1  0  0  0  0
  3  9  1  0  0  0  0
  3 10  1  0  0  0  0
  4 25  1  0  0  0  0
  4  3  1  0  0  0  0
  4 11  1  0  0  0  0
  5 13  1  0  0  0  0
  5  4  1  0  0  0  0
  6  1  1  0  0  0  0
  6  5  1  0  0  0  0
  7  2  1  0  0  0  0
 12  5  1  0  0  0  0
 14  6  1  0  0  0  0
 15  6  1  0  0  0  0
 16  1  1  0  0  0  0
 16 17  1  0  0  0  0
 17 22  1  0  0  0  0
 18 23  1  0  0  0  0
 18 17  2  0  0  0  0
 19 18  1  0  0  0  0
 20 21  1  0  0  0  0
 20 19  2  0  0  0  0
 21 16  2  0  0  0  0
 24 20  1  0  0  0  0
 26 25  1  0  0  0  0
 27 26  1  0  0  0  0
M  END
>  <minimizedAffinity>
-4.00653696

$$$$

 OpenBabel03272507453D

 27 28  0  0  0  0  0  0  0  0999 V2000
   36.6270   22.5980   31.9790 N   0  0  0  0  0  0  0  0  0  0  0  0
   37.5900   21.8370   31.2300 C   0  0  0  0  0  0  0  0  0  0  0  0
   37.1320   20.6360   30.5330 C   0  0  0  0  0  0  0  0  0  0  0  0
   35.9450   19.9170   31.0630 C   0  0  0  0  0  0  0  0  0  0  0  0
   35.0420   20.7600   31.9310 C   0  0  0  0  0  0  0  0  0  0  0  0
   35.8980   21.6840   32.8030 C   0  0  0  0  0  0  0  0  0  0  0  0
   38.3820   21.5470   31.9790 H   0  0  0  0  0  0  0  0  0  0  0  0
   38.1330   22.5160   30.5310 H   0  0  0  0  0  0  0  0  0  0  0  0
   37.9850   19.8970   30.4950 H   0  0  0  0  0  0  0  0  0  0  0  0
   36.9930   20.8990   29.4490 H   0  0  0  0  0  0  0  0  0  0  0  0
   35.2920   19.6190   30.1920 H   0  0  0  0  0  0  0  0  0  0  0  0
   34.4780   20.1240   32.6250 H   0  0  0  0  0  0  0  0  0  0  0  0
   34.3400   21.3820   31.3680 H   0  0  0  0  0  0  0  0  0  0  0  0
   36.5440   21.0830   33.4740 H   0  0  0  0  0  0  0  0  0  0  0  0
   35.2170   22.2710   33.4550 H   0  0  0  0  0  0  0  0  0  0  0  0
   36.4430   23.9990   31.9060 C   0  0  0  0  0  0  0  0  0  0  0  0
   35.5100   24.6380   31.0900 C   0  0  0  0  0  0  0  0  0  0  0  0
   35.4150   26.0200   31.0980 C   0  0  0  0  0  0  0  0  0  0  0  0
   36.2680   26.7020   31.9300 N   0  0  0  0  0  0  0  0  0  0  0  0
   37.1570   26.0540   32.7060 C   0  0  0  0  0  0  0  0  0  0  0  0
   37.2370   24.7230   32.6880 N   0  0  0  0  0  0  0  0  0  0  0  0
   34.8830   24.0170   30.4690 H   0  0  0  0  0  0  0  0  0  0  0  0
   34.7090   26.5300   30.4810 H   0  0  0  0  0  0  0  0  0  0  0  0
   37.8040   26.6490   33.3430 H   0  0  0  0  0  0  0  0  0  0  0  0
   36.3210   18.5980   31.7080 C   0  0  0  0  0  2  0  0  0  0  0  0
   35.2490   18.1360   32.6720 C   0  0  0  0  0  2  0  0  0  0  0  0
   35.3840   18.5670   33.6630 H   0  0  0  0  0  0  0  0  0  0  0  0
  1  6  1  0  0  0  0
  2  1  1  0  0  0  0
  2  7  1  0  0  0  0
  3  4  1  0  0  0  0
  3  2  1  0  0  0  0
  4 25  1  0  0  0  0
  4  5  1  0  0  0  0
  5 12  1  0  0  0  0
  5  6  1  0  0  0  0
  6 15  1  0  0  0  0
  6 14  1  0  0  0  0
  8  2  1  0  0  0  0
  9  3  1  0  0  0  0
 10  3  1  0  0  0  0
 11  4  1  0  0  0  0
 13  5  1  0  0  0  0
 16  1  1  0  0  0  0
 16 21  1  0  0  0  0
 17 18  1  0  0  0  0
 17 16  2  0  0  0  0
 18 19  2  0  0  0  0
 19 20  1  0  0  0  0
 20 24  1  0  0  0  0
 21 20  2  0  0  0  0
 22 17  1  0  0  0  0
 23 18  1  0  0  0  0
 25 26  1  0  0  0  0
 26 27  1  0  0  0  0
M  END
>  <minimizedAffinity>
-3.99295497

$$$$

 OpenBabel03272507453D

 27 28  0  0  0  0  0  0  0  0999 V2000
   38.9490   24.9330   34.8540 N   0  0  0  0  0  0  0  0  0  0  0  0
   40.0680   25.6500   34.3020 C   0  0  0  0  0  0  0  0  0  0  0  0
   39.8130   26.9360   33.6550 C   0  0  0  0  0  0  0  0  0  0  0  0
   38.4750   27.1790   33.0590 C   0  0  0  0  0  0  0  0  0  0  0  0
   37.3760   26.3070   33.6180 C   0  0  0  0  0  0  0  0  0  0  0  0
   37.9230   24.8970   33.8590 C   0  0  0  0  0  0  0  0  0  0  0  0
   40.5250   24.9450   33.5490 H   0  0  0  0  0  0  0  0  0  0  0  0
   40.8620   25.7490   35.0780 H   0  0  0  0  0  0  0  0  0  0  0  0
   40.5790   27.0840   32.8380 H   0  0  0  0  0  0  0  0  0  0  0  0
   40.0820   27.7480   34.3850 H   0  0  0  0  0  0  0  0  0  0  0  0
   38.1540   28.2300   33.3200 H   0  0  0  0  0  0  0  0  0  0  0  0
   36.5660   26.1980   32.8860 H   0  0  0  0  0  0  0  0  0  0  0  0
   36.9570   26.6730   34.5600 H   0  0  0  0  0  0  0  0  0  0  0  0
   38.2530   24.4480   32.9010 H   0  0  0  0  0  0  0  0  0  0  0  0
   37.0920   24.2660   34.2400 H   0  0  0  0  0  0  0  0  0  0  0  0
   38.8880   24.3700   36.1510 C   0  0  0  0  0  0  0  0  0  0  0  0
   37.9600   24.7240   37.1300 C   0  0  0  0  0  0  0  0  0  0  0  0
   37.9910   24.1070   38.3690 C   0  0  0  0  0  0  0  0  0  0  0  0
   38.9590   23.1540   38.5710 N   0  0  0  0  0  0  0  0  0  0  0  0
   39.8400   22.8350   37.6030 C   0  0  0  0  0  0  0  0  0  0  0  0
   39.7980   23.4390   36.4150 N   0  0  0  0  0  0  0  0  0  0  0  0
   37.2370   25.4850   36.8790 H   0  0  0  0  0  0  0  0  0  0  0  0
   37.2910   24.3630   39.1330 H   0  0  0  0  0  0  0  0  0  0  0  0
   40.5820   22.0740   37.8230 H   0  0  0  0  0  0  0  0  0  0  0  0
   38.5180   27.1740   31.5430 C   0  0  0  0  0  2  0  0  0  0  0  0
   39.9130   27.4700   31.0350 C   0  0  0  0  0  2  0  0  0  0  0  0
   40.0950   28.5410   30.9570 H   0  0  0  0  0  0  0  0  0  0  0  0
  1 16  1  0  0  0  0
  2  1  1  0  0  0  0
  2  8  1  0  0  0  0
  3  2  1  0  0  0  0
  3 10  1  0  0  0  0
  4 11  1  0  0  0  0
  4  5  1  0  0  0  0
  4  3  1  0  0  0  0
  5  6  1  0  0  0  0
  5 13  1  0  0  0  0
  6 15  1  0  0  0  0
  6  1  1  0  0  0  0
  7  2  1  0  0  0  0
  9  3  1  0  0  0  0
 12  5  1  0  0  0  0
 14  6  1  0  0  0  0
 16 21  2  0  0  0  0
 16 17  1  0  0  0  0
 17 18  2  0  0  0  0
 18 19  1  0  0  0  0
 18 23  1  0  0  0  0
 20 24  1  0  0  0  0
 20 19  2  0  0  0  0
 21 20  1  0  0  0  0
 22 17  1  0  0  0  0
 25  4  1  0  0  0  0
 26 25  1  0  0  0  0
 27 26  1  0  0  0  0
M  END
>  <minimizedAffinity>
-3.95056033

$$$$

 OpenBabel03272507453D

 27 28  0  0  0  0  0  0  0  0999 V2000
   33.0080   30.6240   35.6780 N   0  0  0  0  0  0  0  0  0  0  0  0
   34.2570   30.5620   34.9660 C   0  0  0  0  0  0  0  0  0  0  0  0
   35.4360   31.1640   35.5860 C   0  0  0  0  0  0  0  0  0  0  0  0
   35.2420   32.2820   36.5440 C   0  0  0  0  0  0  0  0  0  0  0  0
   33.8670   32.3400   37.1640 C   0  0  0  0  0  0  0  0  0  0  0  0
   32.8210   31.9760   36.1070 C   0  0  0  0  0  0  0  0  0  0  0  0
   34.0590   31.0730   33.9800 H   0  0  0  0  0  0  0  0  0  0  0  0
   34.4610   29.5060   34.6730 H   0  0  0  0  0  0  0  0  0  0  0  0
   36.1210   31.5350   34.7680 H   0  0  0  0  0  0  0  0  0  0  0  0
   36.0420   30.3370   36.0490 H   0  0  0  0  0  0  0  0  0  0  0  0
   35.9350   32.1220   37.4220 H   0  0  0  0  0  0  0  0  0  0  0  0
   33.6340   33.3640   37.4810 H   0  0  0  0  0  0  0  0  0  0  0  0
   33.7360   31.6660   38.0160 H   0  0  0  0  0  0  0  0  0  0  0  0
   32.8460   32.7100   35.2770 H   0  0  0  0  0  0  0  0  0  0  0  0
   31.8160   32.0550   36.5740 H   0  0  0  0  0  0  0  0  0  0  0  0
   32.1320   29.5370   35.9050 C   0  0  0  0  0  0  0  0  0  0  0  0
   31.5150   28.7890   34.9020 C   0  0  0  0  0  0  0  0  0  0  0  0
   30.6720   27.7420   35.2390 C   0  0  0  0  0  0  0  0  0  0  0  0
   30.4860   27.4920   36.5760 N   0  0  0  0  0  0  0  0  0  0  0  0
   31.0980   28.2340   37.5190 C   0  0  0  0  0  0  0  0  0  0  0  0
   31.9060   29.2390   37.1800 N   0  0  0  0  0  0  0  0  0  0  0  0
   31.7220   29.0600   33.8790 H   0  0  0  0  0  0  0  0  0  0  0  0
   30.1900   27.1570   34.4880 H   0  0  0  0  0  0  0  0  0  0  0  0
   30.9100   27.9880   38.5600 H   0  0  0  0  0  0  0  0  0  0  0  0
   35.6850   33.6110   35.9640 C   0  0  0  0  0  2  0  0  0  0  0  0
   36.9670   33.4630   35.1730 C   0  0  0  0  0  2  0  0  0  0  0  0
   37.8460   33.5400   35.8110 H   0  0  0  0  0  0  0  0  0  0  0  0
  1 16  1  0  0  0  0
  1  6  1  0  0  0  0
  2  3  1  0  0  0  0
  2  1  1  0  0  0  0
  3 10  1  0  0  0  0
  3  4  1  0  0  0  0
  4  5  1  0  0  0  0
  4 11  1  0  0  0  0
  5 12  1  0  0  0  0
  5 13  1  0  0  0  0
  6 15  1  0  0  0  0
  6  5  1  0  0  0  0
  7  2  1  0  0  0  0
  8  2  1  0  0  0  0
  9  3  1  0  0  0  0
 14  6  1  0  0  0  0
 16 21  1  0  0  0  0
 17 18  1  0  0  0  0
 17 16  2  0  0  0  0
 18 19  2  0  0  0  0
 19 20  1  0  0  0  0
 20 24  1  0  0  0  0
 21 20  2  0  0  0  0
 22 17  1  0  0  0  0
 23 18  1  0  0  0  0
 25  4  1  0  0  0  0
 26 27  1  0  0  0  0
 26 25  1  0  0  0  0
M  END
>  <minimizedAffinity>
-3.9134779

$$$$

 OpenBabel03272507453D

 27 28  0  0  0  0  0  0  0  0999 V2000
   34.8940   30.5340   34.6410 N   0  0  0  0  0  0  0  0  0  0  0  0
   35.6240   31.5350   35.3730 C   0  0  0  0  0  0  0  0  0  0  0  0
   35.1510   31.8960   36.7090 C   0  0  0  0  0  0  0  0  0  0  0  0
   33.7100   31.7240   37.0230 C   0  0  0  0  0  0  0  0  0  0  0  0
   32.9920   30.7360   36.1360 C   0  0  0  0  0  0  0  0  0  0  0  0
   33.5070   30.8780   34.7010 C   0  0  0  0  0  0  0  0  0  0  0  0
   35.6040   32.4520   34.7170 H   0  0  0  0  0  0  0  0  0  0  0  0
   36.7040   31.2590   35.3980 H   0  0  0  0  0  0  0  0  0  0  0  0
   35.4120   32.9780   36.9010 H   0  0  0  0  0  0  0  0  0  0  0  0
   35.7940   31.3580   37.4580 H   0  0  0  0  0  0  0  0  0  0  0  0
   33.6220   31.2820   38.0580 H   0  0  0  0  0  0  0  0  0  0  0  0
   31.9200   30.9660   36.0980 H   0  0  0  0  0  0  0  0  0  0  0  0
   33.1220   29.6920   36.4390 H   0  0  0  0  0  0  0  0  0  0  0  0
   33.2890   31.8950   34.3170 H   0  0  0  0  0  0  0  0  0  0  0  0
   32.9450   30.1650   34.0600 H   0  0  0  0  0  0  0  0  0  0  0  0
   35.4590   29.4150   33.9850 C   0  0  0  0  0  0  0  0  0  0  0  0
   36.3750   28.5340   34.5600 C   0  0  0  0  0  0  0  0  0  0  0  0
   36.8660   27.4680   33.8230 C   0  0  0  0  0  0  0  0  0  0  0  0
   36.4100   27.3330   32.5350 N   0  0  0  0  0  0  0  0  0  0  0  0
   35.5230   28.2020   32.0110 C   0  0  0  0  0  0  0  0  0  0  0  0
   35.0610   29.2240   32.7320 N   0  0  0  0  0  0  0  0  0  0  0  0
   36.6750   28.7210   35.5790 H   0  0  0  0  0  0  0  0  0  0  0  0
   37.5680   26.7820   34.2430 H   0  0  0  0  0  0  0  0  0  0  0  0
   35.2020   28.0420   30.9870 H   0  0  0  0  0  0  0  0  0  0  0  0
   32.9890   33.0540   37.1290 C   0  0  0  0  0  2  0  0  0  0  0  0
   33.8580   34.0950   37.8020 C   0  0  0  0  0  2  0  0  0  0  0  0
   33.7710   34.0520   38.8870 H   0  0  0  0  0  0  0  0  0  0  0  0
  1  6  1  0  0  0  0
  1  2  1  0  0  0  0
  2  8  1  0  0  0  0
  2  3  1  0  0  0  0
  3  9  1  0  0  0  0
  3  4  1  0  0  0  0
  3 10  1  0  0  0  0
  4 25  1  0  0  0  0
  4 11  1  0  0  0  0
  5 13  1  0  0  0  0
  5  4  1  0  0  0  0
  6  5  1  0  0  0  0
  7  2  1  0  0  0  0
 12  5  1  0  0  0  0
 14  6  1  0  0  0  0
 15  6  1  0  0  0  0
 16 17  1  0  0  0  0
 16  1  1  0  0  0  0
 17 22  1  0  0  0  0
 18 23  1  0  0  0  0
 18 17  2  0  0  0  0
 19 18  1  0  0  0  0
 20 19  2  0  0  0  0
 20 21  1  0  0  0  0
 21 16  2  0  0  0  0
 24 20  1  0  0  0  0
 25 26  1  0  0  0  0
 26 27  1  0  0  0  0
M  END
>  <minimizedAffinity>
-3.9025209

$$$$
