
 OpenBabel03272501003D

 22 23  0  0  0  0  0  0  0  0999 V2000
   38.9090   31.7100   48.9390 F   0  0  0  0  0  0  0  0  0  0  0  0
   37.7680   31.1730   48.4440 C   0  0  0  0  0  0  0  0  0  0  0  0
   37.5200   31.0170   47.0900 C   0  0  0  0  0  0  0  0  0  0  0  0
   36.3250   30.4470   46.6800 C   0  0  0  0  0  0  0  0  0  0  0  0
   35.3600   30.0200   47.5560 C   0  0  0  0  0  0  0  0  0  0  0  0
   35.6270   30.1860   48.9260 C   0  0  0  0  0  0  0  0  0  0  0  0
   36.8220   30.7570   49.3640 C   0  0  0  0  0  0  0  0  0  0  0  0
   36.2070   30.3600   45.6090 H   0  0  0  0  0  0  0  0  0  0  0  0
   34.4590   29.5860   47.1730 H   0  0  0  0  0  0  0  0  0  0  0  0
   34.8700   29.8520   49.6330 H   0  0  0  0  0  0  0  0  0  0  0  0
   39.0850   32.9190   44.3900 C   0  0  0  0  0  0  0  0  0  0  0  0
   40.3750   32.3950   44.2990 C   0  0  0  0  0  0  0  0  0  0  0  0
   40.7010   31.3750   45.1800 C   0  0  0  0  0  0  0  0  0  0  0  0
   39.7750   30.9450   46.0670 N   0  0  0  0  0  0  0  0  0  0  0  0
   38.5410   31.4680   46.1330 C   0  0  0  0  0  0  0  0  0  0  0  0
   38.1950   32.4600   45.2900 N   0  0  0  0  0  0  0  0  0  0  0  0
   38.8920   33.7050   43.6820 H   0  0  0  0  0  0  0  0  0  0  0  0
   41.1820   32.6470   43.6520 H   0  0  0  0  0  0  0  0  0  0  0  0
   41.6210   30.8020   45.3200 H   0  0  0  0  0  0  0  0  0  0  0  0
   36.9890   30.8840   50.8460 C   0  0  0  0  0  0  0  0  0  0  0  0
   37.2690   29.5520   51.5110 C   0  0  0  0  0  0  0  0  0  0  0  0
   36.5020   29.3040   52.2430 H   0  0  0  0  0  0  0  0  0  0  0  0
  2  1  1  0  0  0  0
  2  7  1  0  0  0  0
  3  2  2  0  0  0  0
  4  3  1  0  0  0  0
  4  5  2  0  0  0  0
  5  6  1  0  0  0  0
  6  7  2  0  0  0  0
  6 10  1  0  0  0  0
  7 20  1  0  0  0  0
  8  4  1  0  0  0  0
  9  5  1  0  0  0  0
 11 16  1  0  0  0  0
 12 11  2  0  0  0  0
 12 13  1  0  0  0  0
 13 19  1  0  0  0  0
 13 14  2  0  0  0  0
 14 15  1  0  0  0  0
 15  3  1  0  0  0  0
 16 15  2  0  0  0  0
 17 11  1  0  0  0  0
 18 12  1  0  0  0  0
 20 21  1  0  0  0  0
 21 22  1  0  0  0  0
M  END
>  <minimizedAffinity>
-5.66909456

>  <minimizedRMSD>
3.26493025

$$$$
