
 OpenBabel03272509493D

 27 28  0  0  0  0  0  0  0  0999 V2000
   33.7920   28.5170   49.1710 C   0  0  0  0  0  0  0  0  0  0  0  0
   33.6440   29.5370   48.7250 H   0  0  0  0  0  0  0  0  0  0  0  0
   33.4510   28.4650   50.2290 H   0  0  0  0  0  0  0  0  0  0  0  0
   33.0090   27.5010   48.3780 C   0  0  0  0  0  0  0  0  0  0  0  0
   33.5050   27.3560   47.3790 H   0  0  0  0  0  0  0  0  0  0  0  0
   33.0470   26.5150   48.8980 H   0  0  0  0  0  0  0  0  0  0  0  0
   31.5940   27.8950   48.2000 C   0  0  0  0  0  0  0  0  0  0  0  0
   30.7350   27.6580   49.2570 C   0  0  0  0  0  0  0  0  0  0  0  0
   29.4020   27.9880   49.1890 C   0  0  0  0  0  0  0  0  0  0  0  0
   28.9000   28.5530   48.0830 N   0  0  0  0  0  0  0  0  0  0  0  0
   29.7540   28.7830   47.0480 C   0  0  0  0  0  0  0  0  0  0  0  0
   31.0560   28.4700   47.0940 N   0  0  0  0  0  0  0  0  0  0  0  0
   31.0180   27.2060   50.2020 H   0  0  0  0  0  0  0  0  0  0  0  0
   28.6900   27.8220   49.9850 H   0  0  0  0  0  0  0  0  0  0  0  0
   29.5210   29.2310   46.0830 H   0  0  0  0  0  0  0  0  0  0  0  0
   35.1700   28.1640   49.1740 O   0  0  0  0  0  0  0  0  0  0  0  0
   37.2280   30.1970   51.3600 C   0  0  0  0  0  0  0  0  0  0  0  0
   37.9480   30.9360   50.3930 C   0  0  0  0  0  0  0  0  0  0  0  0
   37.6740   30.6820   49.0540 C   0  0  0  0  0  0  0  0  0  0  0  0
   36.7330   29.7420   48.7510 N   0  0  0  0  0  0  0  0  0  0  0  0
   36.0670   29.0570   49.7010 C   0  0  0  0  0  0  0  0  0  0  0  0
   36.3280   29.2980   50.9950 N   0  0  0  0  0  0  0  0  0  0  0  0
   37.4640   30.4170   52.3920 H   0  0  0  0  0  0  0  0  0  0  0  0
   38.7030   31.6910   50.6040 H   0  0  0  0  0  0  0  0  0  0  0  0
   38.3900   31.4200   47.9570 C   0  0  0  0  0  2  0  0  0  0  0  0
   38.3290   30.6850   46.6440 C   0  0  0  0  0  2  0  0  0  0  0  0
   39.2060   30.0320   46.4760 H   0  0  0  0  0  0  0  0  0  0  0  0
  1 16  1  0  0  0  0
  1  3  1  0  0  0  0
  2  1  1  0  0  0  0
  4  6  1  0  0  0  0
  4  1  1  0  0  0  0
  5  4  1  0  0  0  0
  7  4  1  0  0  0  0
  7  8  1  0  0  0  0
  8 13  1  0  0  0  0
  9  8  2  0  0  0  0
  9 14  1  0  0  0  0
 10  9  1  0  0  0  0
 11 12  1  0  0  0  0
 11 10  2  0  0  0  0
 12  7  2  0  0  0  0
 15 11  1  0  0  0  0
 16 21  1  0  0  0  0
 17 23  1  0  0  0  0
 18 24  1  0  0  0  0
 18 17  2  0  0  0  0
 19 18  1  0  0  0  0
 20 19  2  0  0  0  0
 20 21  1  0  0  0  0
 21 22  2  0  0  0  0
 22 17  1  0  0  0  0
 25 19  1  0  0  0  0
 26 25  1  0  0  0  0
 27 26  1  0  0  0  0
M  END
>  <minimizedAffinity>
-4.81272459

>  <minimizedRMSD>
0.545029938

$$$$
