
 OpenBabel03262522233D

 25 26  0  0  0  0  0  0  0  0999 V2000
   39.0070   24.5120   36.0540 C   0  0  0  0  0  0  0  0  0  0  0  0
   38.0980   24.7640   37.0420 C   0  0  0  0  0  0  0  0  0  0  0  0
   38.1360   24.0560   38.2020 C   0  0  0  0  0  0  0  0  0  0  0  0
   39.1120   23.0880   38.3450 C   0  0  0  0  0  0  0  0  0  0  0  0
   40.0330   22.8370   37.3390 C   0  0  0  0  0  0  0  0  0  0  0  0
   39.9420   23.5760   36.2070 N   0  0  0  0  0  0  0  0  0  0  0  0
   37.3890   25.5600   36.7790 H   0  0  0  0  0  0  0  0  0  0  0  0
   37.3810   24.3160   38.9320 H   0  0  0  0  0  0  0  0  0  0  0  0
   39.1090   22.5440   39.2880 H   0  0  0  0  0  0  0  0  0  0  0  0
   41.0660   21.7830   37.5420 C   0  0  0  0  0  0  0  0  0  0  0  0
   41.8580   22.1190   38.2460 H   0  0  0  0  0  0  0  0  0  0  0  0
   40.5380   20.9400   38.0680 H   0  0  0  0  0  0  0  0  0  0  0  0
   41.4650   21.4290   36.5660 H   0  0  0  0  0  0  0  0  0  0  0  0
   39.1200   25.1370   34.8010 O   0  0  0  0  0  0  0  0  0  0  0  0
   37.5020   25.8370   33.2900 C   0  0  0  0  0  0  0  0  0  0  0  0
   38.2350   24.7590   33.8390 C   0  0  0  0  0  0  0  0  0  0  0  0
   37.9710   23.5040   33.3490 C   0  0  0  0  0  0  0  0  0  0  0  0
   37.0390   23.3670   32.3820 N   0  0  0  0  0  0  0  0  0  0  0  0
   36.3710   24.3910   31.8900 C   0  0  0  0  0  0  0  0  0  0  0  0
   36.5740   25.6630   32.3210 N   0  0  0  0  0  0  0  0  0  0  0  0
   37.6330   26.8770   33.6080 H   0  0  0  0  0  0  0  0  0  0  0  0
   38.5620   22.7030   33.8040 H   0  0  0  0  0  0  0  0  0  0  0  0
   35.3480   24.1680   30.8170 C   0  0  0  0  0  2  0  0  0  0  0  0
   34.5030   25.4230   30.6910 C   0  0  0  0  0  2  0  0  0  0  0  0
   35.1860   26.2090   30.2970 H   0  0  0  0  0  0  0  0  0  0  0  0
  1  6  2  0  0  0  0
  1  2  1  0  0  0  0
  2  3  2  0  0  0  0
  3  4  1  0  0  0  0
  3  8  1  0  0  0  0
  4  9  1  0  0  0  0
  5 10  1  0  0  0  0
  5  4  2  0  0  0  0
  6  5  1  0  0  0  0
  7  2  1  0  0  0  0
 10 12  1  0  0  0  0
 10 11  1  0  0  0  0
 13 10  1  0  0  0  0
 14  1  1  0  0  0  0
 15 21  1  0  0  0  0
 15 16  1  0  0  0  0
 16 14  1  0  0  0  0
 17 22  1  0  0  0  0
 17 16  2  0  0  0  0
 18 17  1  0  0  0  0
 19 20  1  0  0  0  0
 19 18  2  0  0  0  0
 20 15  2  0  0  0  0
 23 19  1  0  0  0  0
 24 23  1  0  0  0  0
 25 24  1  0  0  0  0
M  END
>  <minimizedAffinity>
-4.61480331

$$$$

 OpenBabel03262522233D

 25 26  0  0  0  0  0  0  0  0999 V2000
   38.5920   23.8680   35.8320 C   0  0  0  0  0  0  0  0  0  0  0  0
   37.8300   24.3440   36.8610 C   0  0  0  0  0  0  0  0  0  0  0  0
   38.1360   24.0190   38.1440 C   0  0  0  0  0  0  0  0  0  0  0  0
   39.2290   23.2020   38.3690 C   0  0  0  0  0  0  0  0  0  0  0  0
   39.9980   22.7210   37.3200 C   0  0  0  0  0  0  0  0  0  0  0  0
   39.6410   23.0820   36.0640 N   0  0  0  0  0  0  0  0  0  0  0  0
   37.0010   24.9790   36.5230 H   0  0  0  0  0  0  0  0  0  0  0  0
   37.4840   24.4360   38.9000 H   0  0  0  0  0  0  0  0  0  0  0  0
   39.4400   22.9650   39.4100 H   0  0  0  0  0  0  0  0  0  0  0  0
   41.1650   21.8440   37.6150 C   0  0  0  0  0  0  0  0  0  0  0  0
   42.0160   22.4240   38.0330 H   0  0  0  0  0  0  0  0  0  0  0  0
   40.8300   21.1640   38.4470 H   0  0  0  0  0  0  0  0  0  0  0  0
   41.4400   21.2410   36.7210 H   0  0  0  0  0  0  0  0  0  0  0  0
   38.4280   24.0970   34.4550 O   0  0  0  0  0  0  0  0  0  0  0  0
   37.3060   23.6100   32.4810 C   0  0  0  0  0  0  0  0  0  0  0  0
   37.7400   23.1590   33.7500 C   0  0  0  0  0  0  0  0  0  0  0  0
   37.4230   21.8700   34.1010 C   0  0  0  0  0  0  0  0  0  0  0  0
   36.7240   21.1120   33.2310 N   0  0  0  0  0  0  0  0  0  0  0  0
   36.3320   21.5610   32.0550 C   0  0  0  0  0  0  0  0  0  0  0  0
   36.6060   22.8230   31.6320 N   0  0  0  0  0  0  0  0  0  0  0  0
   37.5050   24.6180   32.1020 H   0  0  0  0  0  0  0  0  0  0  0  0
   37.7790   21.5660   35.0910 H   0  0  0  0  0  0  0  0  0  0  0  0
   35.5580   20.6660   31.1350 C   0  0  0  0  0  2  0  0  0  0  0  0
   34.7810   19.6690   31.9750 C   0  0  0  0  0  2  0  0  0  0  0  0
   34.0180   20.2670   32.5240 H   0  0  0  0  0  0  0  0  0  0  0  0
  1  6  2  0  0  0  0
  1  2  1  0  0  0  0
  2  3  2  0  0  0  0
  3  4  1  0  0  0  0
  3  8  1  0  0  0  0
  4  9  1  0  0  0  0
  5 10  1  0  0  0  0
  5  4  2  0  0  0  0
  6  5  1  0  0  0  0
  7  2  1  0  0  0  0
 10 11  1  0  0  0  0
 10 12  1  0  0  0  0
 13 10  1  0  0  0  0
 14  1  1  0  0  0  0
 15 16  1  0  0  0  0
 16 17  2  0  0  0  0
 16 14  1  0  0  0  0
 17 22  1  0  0  0  0
 18 17  1  0  0  0  0
 19 18  2  0  0  0  0
 20 19  1  0  0  0  0
 20 15  2  0  0  0  0
 21 15  1  0  0  0  0
 23 24  1  0  0  0  0
 23 19  1  0  0  0  0
 24 25  1  0  0  0  0
M  END
>  <minimizedAffinity>
-4.61131048

$$$$

 OpenBabel03262522233D

 25 26  0  0  0  0  0  0  0  0999 V2000
   38.8570   24.4920   35.4680 C   0  0  0  0  0  0  0  0  0  0  0  0
   37.9110   25.3190   36.0040 C   0  0  0  0  0  0  0  0  0  0  0  0
   38.0710   26.6670   35.9460 C   0  0  0  0  0  0  0  0  0  0  0  0
   39.2070   27.1650   35.3360 C   0  0  0  0  0  0  0  0  0  0  0  0
   40.1640   26.3210   34.7940 C   0  0  0  0  0  0  0  0  0  0  0  0
   39.9460   24.9870   34.8830 N   0  0  0  0  0  0  0  0  0  0  0  0
   37.0700   24.7740   36.4510 H   0  0  0  0  0  0  0  0  0  0  0  0
   37.2770   27.2510   36.3940 H   0  0  0  0  0  0  0  0  0  0  0  0
   39.2970   28.2500   35.3110 H   0  0  0  0  0  0  0  0  0  0  0  0
   41.3710   26.9070   34.1470 C   0  0  0  0  0  0  0  0  0  0  0  0
   41.1290   27.3450   33.1540 H   0  0  0  0  0  0  0  0  0  0  0  0
   41.6670   27.7800   34.7930 H   0  0  0  0  0  0  0  0  0  0  0  0
   42.1980   26.1650   34.1110 H   0  0  0  0  0  0  0  0  0  0  0  0
   38.8610   23.0880   35.4350 O   0  0  0  0  0  0  0  0  0  0  0  0
   37.0620   21.6300   35.2570 C   0  0  0  0  0  0  0  0  0  0  0  0
   37.9740   22.4860   34.5960 C   0  0  0  0  0  0  0  0  0  0  0  0
   37.8540   22.6020   33.2340 C   0  0  0  0  0  0  0  0  0  0  0  0
   36.8870   21.9020   32.6040 N   0  0  0  0  0  0  0  0  0  0  0  0
   36.0520   21.1110   33.2470 C   0  0  0  0  0  0  0  0  0  0  0  0
   36.1030   20.9430   34.5940 N   0  0  0  0  0  0  0  0  0  0  0  0
   37.0690   21.4650   36.3390 H   0  0  0  0  0  0  0  0  0  0  0  0
   38.5810   23.2750   32.7680 H   0  0  0  0  0  0  0  0  0  0  0  0
   34.9990   20.3620   32.4860 C   0  0  0  0  0  2  0  0  0  0  0  0
   35.2330   18.8740   32.6800 C   0  0  0  0  0  2  0  0  0  0  0  0
   35.0270   18.6740   33.7560 H   0  0  0  0  0  0  0  0  0  0  0  0
  1  2  1  0  0  0  0
  2  7  1  0  0  0  0
  3  2  2  0  0  0  0
  3  8  1  0  0  0  0
  4  3  1  0  0  0  0
  5  6  1  0  0  0  0
  5  4  2  0  0  0  0
  6  1  2  0  0  0  0
  9  4  1  0  0  0  0
 10 12  1  0  0  0  0
 10  5  1  0  0  0  0
 11 10  1  0  0  0  0
 13 10  1  0  0  0  0
 14  1  1  0  0  0  0
 15 21  1  0  0  0  0
 16 15  1  0  0  0  0
 16 14  1  0  0  0  0
 17 16  2  0  0  0  0
 18 17  1  0  0  0  0
 18 19  2  0  0  0  0
 19 20  1  0  0  0  0
 20 15  2  0  0  0  0
 22 17  1  0  0  0  0
 23 24  1  0  0  0  0
 23 19  1  0  0  0  0
 24 25  1  0  0  0  0
M  END
>  <minimizedAffinity>
-4.43398952

$$$$

 OpenBabel03262522233D

 25 26  0  0  0  0  0  0  0  0999 V2000
   38.3490   25.9050   33.4980 C   0  0  0  0  0  0  0  0  0  0  0  0
   39.1300   25.8830   34.6180 C   0  0  0  0  0  0  0  0  0  0  0  0
   38.8950   26.7570   35.6320 C   0  0  0  0  0  0  0  0  0  0  0  0
   37.8550   27.6550   35.4930 C   0  0  0  0  0  0  0  0  0  0  0  0
   37.0650   27.6740   34.3530 C   0  0  0  0  0  0  0  0  0  0  0  0
   37.3490   26.7770   33.3780 N   0  0  0  0  0  0  0  0  0  0  0  0
   39.9130   25.1140   34.5790 H   0  0  0  0  0  0  0  0  0  0  0  0
   39.5590   26.6740   36.4830 H   0  0  0  0  0  0  0  0  0  0  0  0
   37.7000   28.3380   36.3270 H   0  0  0  0  0  0  0  0  0  0  0  0
   35.9550   28.6620   34.2520 C   0  0  0  0  0  0  0  0  0  0  0  0
   35.0960   28.3780   34.8980 H   0  0  0  0  0  0  0  0  0  0  0  0
   36.3570   29.6160   34.6930 H   0  0  0  0  0  0  0  0  0  0  0  0
   35.6710   28.8270   33.1890 H   0  0  0  0  0  0  0  0  0  0  0  0
   38.4420   25.0860   32.3600 O   0  0  0  0  0  0  0  0  0  0  0  0
   37.6960   23.0130   33.0940 C   0  0  0  0  0  0  0  0  0  0  0  0
   37.5030   24.1100   32.2220 C   0  0  0  0  0  0  0  0  0  0  0  0
   36.4270   24.0580   31.3720 C   0  0  0  0  0  0  0  0  0  0  0  0
   35.6200   22.9760   31.4110 N   0  0  0  0  0  0  0  0  0  0  0  0
   35.8250   21.9670   32.2340 C   0  0  0  0  0  0  0  0  0  0  0  0
   36.8660   21.9440   33.1060 N   0  0  0  0  0  0  0  0  0  0  0  0
   38.5200   22.9530   33.8110 H   0  0  0  0  0  0  0  0  0  0  0  0
   36.3200   24.9280   30.7170 H   0  0  0  0  0  0  0  0  0  0  0  0
   34.8900   20.7960   32.2260 C   0  0  0  0  0  2  0  0  0  0  0  0
   35.5100   19.6800   33.0470 C   0  0  0  0  0  2  0  0  0  0  0  0
   35.5210   20.0490   34.0990 H   0  0  0  0  0  0  0  0  0  0  0  0
  1  2  1  0  0  0  0
  2  3  2  0  0  0  0
  3  8  1  0  0  0  0
  4  3  1  0  0  0  0
  4  9  1  0  0  0  0
  5  4  2  0  0  0  0
  6  1  2  0  0  0  0
  6  5  1  0  0  0  0
  7  2  1  0  0  0  0
 10  5  1  0  0  0  0
 10 12  1  0  0  0  0
 10 11  1  0  0  0  0
 13 10  1  0  0  0  0
 14  1  1  0  0  0  0
 15 20  1  0  0  0  0
 15 21  1  0  0  0  0
 16 14  1  0  0  0  0
 16 15  2  0  0  0  0
 17 18  2  0  0  0  0
 17 16  1  0  0  0  0
 18 19  1  0  0  0  0
 19 20  2  0  0  0  0
 22 17  1  0  0  0  0
 23 19  1  0  0  0  0
 23 24  1  0  0  0  0
 24 25  1  0  0  0  0
M  END
>  <minimizedAffinity>
-4.37415457

$$$$

 OpenBabel03262522233D

 25 26  0  0  0  0  0  0  0  0999 V2000
   37.3030   25.7990   32.4540 C   0  0  0  0  0  0  0  0  0  0  0  0
   36.4480   26.7450   31.9640 C   0  0  0  0  0  0  0  0  0  0  0  0
   35.3440   26.3710   31.2650 C   0  0  0  0  0  0  0  0  0  0  0  0
   35.1200   25.0210   31.0710 C   0  0  0  0  0  0  0  0  0  0  0  0
   35.9910   24.0650   31.5700 C   0  0  0  0  0  0  0  0  0  0  0  0
   37.0740   24.5020   32.2590 N   0  0  0  0  0  0  0  0  0  0  0  0
   36.7620   27.7700   32.2020 H   0  0  0  0  0  0  0  0  0  0  0  0
   34.7190   27.1810   30.9110 H   0  0  0  0  0  0  0  0  0  0  0  0
   34.2250   24.7640   30.5060 H   0  0  0  0  0  0  0  0  0  0  0  0
   35.7050   22.6230   31.3330 C   0  0  0  0  0  0  0  0  0  0  0  0
   34.8700   22.2630   31.9730 H   0  0  0  0  0  0  0  0  0  0  0  0
   35.3200   22.5600   30.2780 H   0  0  0  0  0  0  0  0  0  0  0  0
   36.6310   22.0160   31.4350 H   0  0  0  0  0  0  0  0  0  0  0  0
   38.4820   25.9960   33.1930 O   0  0  0  0  0  0  0  0  0  0  0  0
   39.6440   24.4050   34.4220 C   0  0  0  0  0  0  0  0  0  0  0  0
   38.5840   25.3410   34.3810 C   0  0  0  0  0  0  0  0  0  0  0  0
   37.8150   25.4700   35.5110 C   0  0  0  0  0  0  0  0  0  0  0  0
   38.1050   24.7070   36.5850 N   0  0  0  0  0  0  0  0  0  0  0  0
   39.0990   23.8410   36.5940 C   0  0  0  0  0  0  0  0  0  0  0  0
   39.9070   23.6550   35.5170 N   0  0  0  0  0  0  0  0  0  0  0  0
   40.3180   24.2230   33.5790 H   0  0  0  0  0  0  0  0  0  0  0  0
   37.0080   26.2050   35.4310 H   0  0  0  0  0  0  0  0  0  0  0  0
   39.3680   23.0250   37.8210 C   0  0  0  0  0  2  0  0  0  0  0  0
   40.6420   22.2300   37.6010 C   0  0  0  0  0  2  0  0  0  0  0  0
   41.4630   22.9820   37.5550 H   0  0  0  0  0  0  0  0  0  0  0  0
  1 14  1  0  0  0  0
  2  7  1  0  0  0  0
  2  1  2  0  0  0  0
  3  2  1  0  0  0  0
  4  3  2  0  0  0  0
  4  5  1  0  0  0  0
  5  6  2  0  0  0  0
  6  1  1  0  0  0  0
  8  3  1  0  0  0  0
  9  4  1  0  0  0  0
 10 13  1  0  0  0  0
 10  5  1  0  0  0  0
 10 11  1  0  0  0  0
 12 10  1  0  0  0  0
 14 16  1  0  0  0  0
 15 20  1  0  0  0  0
 16 15  2  0  0  0  0
 16 17  1  0  0  0  0
 17 18  2  0  0  0  0
 18 19  1  0  0  0  0
 19 23  1  0  0  0  0
 20 19  2  0  0  0  0
 21 15  1  0  0  0  0
 22 17  1  0  0  0  0
 24 23  1  0  0  0  0
 25 24  1  0  0  0  0
M  END
>  <minimizedAffinity>
-4.35977602

$$$$

 OpenBabel03262522233D

 25 26  0  0  0  0  0  0  0  0999 V2000
   36.8080   27.2060   32.2220 C   0  0  0  0  0  0  0  0  0  0  0  0
   35.8980   28.2230   32.2850 C   0  0  0  0  0  0  0  0  0  0  0  0
   35.7140   28.9040   33.4470 C   0  0  0  0  0  0  0  0  0  0  0  0
   36.4690   28.5380   34.5450 C   0  0  0  0  0  0  0  0  0  0  0  0
   37.3920   27.5040   34.4750 C   0  0  0  0  0  0  0  0  0  0  0  0
   37.5280   26.8650   33.2890 N   0  0  0  0  0  0  0  0  0  0  0  0
   35.3800   28.3940   31.3330 H   0  0  0  0  0  0  0  0  0  0  0  0
   34.9750   29.6930   33.4130 H   0  0  0  0  0  0  0  0  0  0  0  0
   36.2920   29.1070   35.4560 H   0  0  0  0  0  0  0  0  0  0  0  0
   38.1810   27.1490   35.6880 C   0  0  0  0  0  0  0  0  0  0  0  0
   38.9710   27.9020   35.8950 H   0  0  0  0  0  0  0  0  0  0  0  0
   37.4610   27.2260   36.5500 H   0  0  0  0  0  0  0  0  0  0  0  0
   38.5710   26.1100   35.6120 H   0  0  0  0  0  0  0  0  0  0  0  0
   37.1300   26.3990   31.1180 O   0  0  0  0  0  0  0  0  0  0  0  0
   37.7790   24.1870   30.8400 C   0  0  0  0  0  0  0  0  0  0  0  0
   36.7470   25.0950   31.1720 C   0  0  0  0  0  0  0  0  0  0  0  0
   35.5230   24.5650   31.4980 C   0  0  0  0  0  0  0  0  0  0  0  0
   35.3710   23.2240   31.4850 N   0  0  0  0  0  0  0  0  0  0  0  0
   36.3520   22.4020   31.1700 C   0  0  0  0  0  0  0  0  0  0  0  0
   37.5920   22.8470   30.8370 N   0  0  0  0  0  0  0  0  0  0  0  0
   38.7910   24.5020   30.5660 H   0  0  0  0  0  0  0  0  0  0  0  0
   34.7570   25.3060   31.7470 H   0  0  0  0  0  0  0  0  0  0  0  0
   36.1160   20.9220   31.1750 C   0  0  0  0  0  2  0  0  0  0  0  0
   34.8700   20.6360   31.9930 C   0  0  0  0  0  2  0  0  0  0  0  0
   34.0230   21.0730   31.4160 H   0  0  0  0  0  0  0  0  0  0  0  0
  1  2  2  0  0  0  0
  1  6  1  0  0  0  0
  2  3  1  0  0  0  0
  3  4  2  0  0  0  0
  4  9  1  0  0  0  0
  5  4  1  0  0  0  0
  5 10  1  0  0  0  0
  6  5  2  0  0  0  0
  7  2  1  0  0  0  0
  8  3  1  0  0  0  0
 10 11  1  0  0  0  0
 10 12  1  0  0  0  0
 13 10  1  0  0  0  0
 14 16  1  0  0  0  0
 14  1  1  0  0  0  0
 15 16  1  0  0  0  0
 16 17  2  0  0  0  0
 17 22  1  0  0  0  0
 18 17  1  0  0  0  0
 19 23  1  0  0  0  0
 19 18  2  0  0  0  0
 20 15  2  0  0  0  0
 20 19  1  0  0  0  0
 21 15  1  0  0  0  0
 23 24  1  0  0  0  0
 25 24  1  0  0  0  0
M  END
>  <minimizedAffinity>
-4.30867004

$$$$

 OpenBabel03262522233D

 25 26  0  0  0  0  0  0  0  0999 V2000
   36.5930   21.7650   31.7760 C   0  0  0  0  0  0  0  0  0  0  0  0
   35.9360   20.8090   31.0540 C   0  0  0  0  0  0  0  0  0  0  0  0
   35.2290   19.8390   31.6900 C   0  0  0  0  0  0  0  0  0  0  0  0
   35.1980   19.8510   33.0720 C   0  0  0  0  0  0  0  0  0  0  0  0
   35.8680   20.8230   33.8000 C   0  0  0  0  0  0  0  0  0  0  0  0
   36.5540   21.7640   33.1070 N   0  0  0  0  0  0  0  0  0  0  0  0
   36.0550   20.9340   29.9700 H   0  0  0  0  0  0  0  0  0  0  0  0
   34.7390   19.1200   31.0460 H   0  0  0  0  0  0  0  0  0  0  0  0
   34.6220   19.0570   33.5430 H   0  0  0  0  0  0  0  0  0  0  0  0
   35.8030   20.7930   35.2880 C   0  0  0  0  0  0  0  0  0  0  0  0
   34.8120   21.1320   35.6590 H   0  0  0  0  0  0  0  0  0  0  0  0
   35.8730   19.7060   35.5720 H   0  0  0  0  0  0  0  0  0  0  0  0
   36.6550   21.3550   35.7300 H   0  0  0  0  0  0  0  0  0  0  0  0
   37.3660   22.8350   31.2960 O   0  0  0  0  0  0  0  0  0  0  0  0
   37.6950   25.0420   31.9410 C   0  0  0  0  0  0  0  0  0  0  0  0
   36.8210   24.0800   31.3830 C   0  0  0  0  0  0  0  0  0  0  0  0
   35.5710   24.5060   31.0090 C   0  0  0  0  0  0  0  0  0  0  0  0
   35.2450   25.8030   31.1910 N   0  0  0  0  0  0  0  0  0  0  0  0
   36.0810   26.6770   31.7150 C   0  0  0  0  0  0  0  0  0  0  0  0
   37.3350   26.3350   32.1090 N   0  0  0  0  0  0  0  0  0  0  0  0
   38.7120   24.8090   32.2720 H   0  0  0  0  0  0  0  0  0  0  0  0
   34.9310   23.7260   30.5830 H   0  0  0  0  0  0  0  0  0  0  0  0
   35.6560   28.1040   31.8900 C   0  0  0  0  0  2  0  0  0  0  0  0
   36.1490   28.5910   33.2400 C   0  0  0  0  0  2  0  0  0  0  0  0
   37.2600   28.6160   33.1650 H   0  0  0  0  0  0  0  0  0  0  0  0
  1  6  1  0  0  0  0
  2  3  1  0  0  0  0
  2  1  2  0  0  0  0
  3  4  2  0  0  0  0
  4  9  1  0  0  0  0
  4  5  1  0  0  0  0
  5 10  1  0  0  0  0
  6  5  2  0  0  0  0
  7  2  1  0  0  0  0
  8  3  1  0  0  0  0
 10 12  1  0  0  0  0
 10 11  1  0  0  0  0
 10 13  1  0  0  0  0
 14 16  1  0  0  0  0
 14  1  1  0  0  0  0
 15 20  1  0  0  0  0
 15 21  1  0  0  0  0
 16 15  2  0  0  0  0
 17 18  2  0  0  0  0
 17 16  1  0  0  0  0
 18 19  1  0  0  0  0
 19 23  1  0  0  0  0
 19 20  2  0  0  0  0
 22 17  1  0  0  0  0
 23 24  1  0  0  0  0
 25 24  1  0  0  0  0
M  END
>  <minimizedAffinity>
-4.2637229

$$$$

 OpenBabel03262522233D

 25 26  0  0  0  0  0  0  0  0999 V2000
   37.7480   23.8710   32.2070 C   0  0  0  0  0  0  0  0  0  0  0  0
   37.1260   24.9620   31.6690 C   0  0  0  0  0  0  0  0  0  0  0  0
   35.8910   24.8400   31.1150 C   0  0  0  0  0  0  0  0  0  0  0  0
   35.2940   23.5930   31.1160 C   0  0  0  0  0  0  0  0  0  0  0  0
   35.9310   22.4890   31.6640 C   0  0  0  0  0  0  0  0  0  0  0  0
   37.1600   22.6770   32.2010 N   0  0  0  0  0  0  0  0  0  0  0  0
   37.7260   25.8780   31.7450 H   0  0  0  0  0  0  0  0  0  0  0  0
   35.4680   25.7500   30.7100 H   0  0  0  0  0  0  0  0  0  0  0  0
   34.3060   23.5370   30.6630 H   0  0  0  0  0  0  0  0  0  0  0  0
   35.2450   21.1670   31.6410 C   0  0  0  0  0  0  0  0  0  0  0  0
   34.4230   21.1210   32.3870 H   0  0  0  0  0  0  0  0  0  0  0  0
   34.7410   21.1060   30.6360 H   0  0  0  0  0  0  0  0  0  0  0  0
   35.9820   20.3400   31.7450 H   0  0  0  0  0  0  0  0  0  0  0  0
   39.0120   23.8080   32.8170 O   0  0  0  0  0  0  0  0  0  0  0  0
   38.4960   24.6020   34.9370 C   0  0  0  0  0  0  0  0  0  0  0  0
   39.0420   23.5590   34.1540 C   0  0  0  0  0  0  0  0  0  0  0  0
   39.5200   22.4570   34.8190 C   0  0  0  0  0  0  0  0  0  0  0  0
   39.4460   22.4280   36.1660 N   0  0  0  0  0  0  0  0  0  0  0  0
   38.9310   23.4170   36.8700 C   0  0  0  0  0  0  0  0  0  0  0  0
   38.4360   24.5400   36.2870 N   0  0  0  0  0  0  0  0  0  0  0  0
   38.0870   25.5230   34.5090 H   0  0  0  0  0  0  0  0  0  0  0  0
   39.9330   21.6770   34.1710 H   0  0  0  0  0  0  0  0  0  0  0  0
   38.8780   23.3200   38.3650 C   0  0  0  0  0  2  0  0  0  0  0  0
   38.0100   24.4500   38.8890 C   0  0  0  0  0  2  0  0  0  0  0  0
   36.9780   24.2260   38.5360 H   0  0  0  0  0  0  0  0  0  0  0  0
  1 14  1  0  0  0  0
  2  7  1  0  0  0  0
  2  1  2  0  0  0  0
  3  4  2  0  0  0  0
  3  2  1  0  0  0  0
  4  5  1  0  0  0  0
  5  6  2  0  0  0  0
  6  1  1  0  0  0  0
  8  3  1  0  0  0  0
  9  4  1  0  0  0  0
 10  5  1  0  0  0  0
 10 13  1  0  0  0  0
 10 11  1  0  0  0  0
 12 10  1  0  0  0  0
 14 16  1  0  0  0  0
 15 20  1  0  0  0  0
 16 17  1  0  0  0  0
 16 15  2  0  0  0  0
 17 18  2  0  0  0  0
 18 19  1  0  0  0  0
 19 23  1  0  0  0  0
 20 19  2  0  0  0  0
 21 15  1  0  0  0  0
 22 17  1  0  0  0  0
 23 24  1  0  0  0  0
 25 24  1  0  0  0  0
M  END
>  <minimizedAffinity>
-4.23024178

$$$$

 OpenBabel03262522233D

 25 26  0  0  0  0  0  0  0  0999 V2000
   38.1980   23.4640   35.9490 C   0  0  0  0  0  0  0  0  0  0  0  0
   37.5930   24.0670   37.0150 C   0  0  0  0  0  0  0  0  0  0  0  0
   38.1330   23.9590   38.2570 C   0  0  0  0  0  0  0  0  0  0  0  0
   39.2980   23.2300   38.4030 C   0  0  0  0  0  0  0  0  0  0  0  0
   39.9070   22.6200   37.3170 C   0  0  0  0  0  0  0  0  0  0  0  0
   39.3200   22.7650   36.1040 N   0  0  0  0  0  0  0  0  0  0  0  0
   36.6780   24.6080   36.7390 H   0  0  0  0  0  0  0  0  0  0  0  0
   37.5920   24.4650   39.0470 H   0  0  0  0  0  0  0  0  0  0  0  0
   39.6980   23.1670   39.4130 H   0  0  0  0  0  0  0  0  0  0  0  0
   41.1620   21.8450   37.5260 C   0  0  0  0  0  0  0  0  0  0  0  0
   42.0320   22.5160   37.6960 H   0  0  0  0  0  0  0  0  0  0  0  0
   41.0180   21.2920   38.4960 H   0  0  0  0  0  0  0  0  0  0  0  0
   41.3200   21.1200   36.6970 H   0  0  0  0  0  0  0  0  0  0  0  0
   37.7890   23.4680   34.6050 O   0  0  0  0  0  0  0  0  0  0  0  0
   37.3620   24.6250   32.6370 C   0  0  0  0  0  0  0  0  0  0  0  0
   38.0140   24.6050   33.8920 C   0  0  0  0  0  0  0  0  0  0  0  0
   38.7700   25.7010   34.2270 C   0  0  0  0  0  0  0  0  0  0  0  0
   38.8500   26.7260   33.3530 N   0  0  0  0  0  0  0  0  0  0  0  0
   38.2320   26.7160   32.1890 C   0  0  0  0  0  0  0  0  0  0  0  0
   37.4650   25.6700   31.7840 N   0  0  0  0  0  0  0  0  0  0  0  0
   36.7360   23.8050   32.2720 H   0  0  0  0  0  0  0  0  0  0  0  0
   39.2540   25.6400   35.2060 H   0  0  0  0  0  0  0  0  0  0  0  0
   38.3630   27.8880   31.2640 C   0  0  0  0  0  2  0  0  0  0  0  0
   38.8880   27.3910   29.9290 C   0  0  0  0  0  2  0  0  0  0  0  0
   38.0760   26.7600   29.5010 H   0  0  0  0  0  0  0  0  0  0  0  0
  1  6  2  0  0  0  0
  1  2  1  0  0  0  0
  2  3  2  0  0  0  0
  3  4  1  0  0  0  0
  3  8  1  0  0  0  0
  4  9  1  0  0  0  0
  5 10  1  0  0  0  0
  5  4  2  0  0  0  0
  6  5  1  0  0  0  0
  7  2  1  0  0  0  0
 10 11  1  0  0  0  0
 10 12  1  0  0  0  0
 13 10  1  0  0  0  0
 14  1  1  0  0  0  0
 15 16  1  0  0  0  0
 16 17  2  0  0  0  0
 16 14  1  0  0  0  0
 17 22  1  0  0  0  0
 18 17  1  0  0  0  0
 19 18  2  0  0  0  0
 20 19  1  0  0  0  0
 20 15  2  0  0  0  0
 21 15  1  0  0  0  0
 23 19  1  0  0  0  0
 24 23  1  0  0  0  0
 25 24  1  0  0  0  0
M  END
>  <minimizedAffinity>
-4.21180773

$$$$
