
 OpenBabel03272510153D

 22 23  0  0  0  0  0  0  0  0999 V2000
   37.2830   29.3660   51.0690 Br  0  0  0  0  0  0  0  0  0  0  0  0
   35.9610   29.3190   49.6860 C   0  0  0  0  0  0  0  0  0  0  0  0
   35.9950   30.2200   48.6310 C   0  0  0  0  0  0  0  0  0  0  0  0
   35.0130   30.1210   47.6820 C   0  0  0  0  0  0  0  0  0  0  0  0
   34.0020   29.1810   47.7190 C   0  0  0  0  0  0  0  0  0  0  0  0
   33.9930   28.3010   48.7750 C   0  0  0  0  0  0  0  0  0  0  0  0
   34.9730   28.3780   49.7500 C   0  0  0  0  0  0  0  0  0  0  0  0
   35.0390   30.8210   46.8620 H   0  0  0  0  0  0  0  0  0  0  0  0
   33.2090   27.5530   48.8270 H   0  0  0  0  0  0  0  0  0  0  0  0
   34.9720   27.6800   50.5940 H   0  0  0  0  0  0  0  0  0  0  0  0
   37.9830   33.1730   49.4350 C   0  0  0  0  0  0  0  0  0  0  0  0
   39.0180   33.1680   48.4720 C   0  0  0  0  0  0  0  0  0  0  0  0
   39.0100   32.1300   47.5520 C   0  0  0  0  0  0  0  0  0  0  0  0
   38.0250   31.1710   47.6050 N   0  0  0  0  0  0  0  0  0  0  0  0
   37.0440   31.2240   48.5580 C   0  0  0  0  0  0  0  0  0  0  0  0
   37.0290   32.2320   49.4740 N   0  0  0  0  0  0  0  0  0  0  0  0
   37.9790   33.9820   50.1620 H   0  0  0  0  0  0  0  0  0  0  0  0
   39.7880   33.9020   48.4170 H   0  0  0  0  0  0  0  0  0  0  0  0
   39.7470   32.0070   46.7590 H   0  0  0  0  0  0  0  0  0  0  0  0
   32.9980   29.1780   46.6290 C   0  0  0  0  0  2  0  0  0  0  0  0
   33.6190   29.0450   45.2570 C   0  0  0  0  0  2  0  0  0  0  0  0
   33.9180   28.0110   45.0790 H   0  0  0  0  0  0  0  0  0  0  0  0
  2  7  1  0  0  0  0
  2  1  1  0  0  0  0
  3  2  2  0  0  0  0
  4  5  2  0  0  0  0
  4  3  1  0  0  0  0
  5  6  1  0  0  0  0
  6  9  1  0  0  0  0
  6  7  2  0  0  0  0
  7 10  1  0  0  0  0
  8  4  1  0  0  0  0
 11 16  1  0  0  0  0
 11 17  1  0  0  0  0
 12 11  2  0  0  0  0
 13 14  2  0  0  0  0
 13 12  1  0  0  0  0
 14 15  1  0  0  0  0
 15  3  1  0  0  0  0
 15 16  2  0  0  0  0
 18 12  1  0  0  0  0
 19 13  1  0  0  0  0
 20  5  1  0  0  0  0
 21 20  1  0  0  0  0
 22 21  1  0  0  0  0
M  END
>  <minimizedAffinity>
-5.4228406

>  <minimizedRMSD>
0.0761805922

$$$$
