
 OpenBabel03272510183D

 22 23  0  0  0  0  0  0  0  0999 V2000
   39.0240   24.8210   33.8890 Br  0  0  0  0  0  0  0  0  0  0  0  0
   37.9330   23.2620   33.6910 C   0  0  0  0  0  0  0  0  0  0  0  0
   37.6690   22.4300   34.7710 C   0  0  0  0  0  0  0  0  0  0  0  0
   36.8790   21.3340   34.5480 C   0  0  0  0  0  0  0  0  0  0  0  0
   36.3380   21.0160   33.3180 C   0  0  0  0  0  0  0  0  0  0  0  0
   36.6150   21.8570   32.2660 C   0  0  0  0  0  0  0  0  0  0  0  0
   37.4110   22.9730   32.4630 C   0  0  0  0  0  0  0  0  0  0  0  0
   36.6730   20.6880   35.3860 H   0  0  0  0  0  0  0  0  0  0  0  0
   36.2020   21.6290   31.2890 H   0  0  0  0  0  0  0  0  0  0  0  0
   37.6370   23.6470   31.6290 H   0  0  0  0  0  0  0  0  0  0  0  0
   37.9080   23.6870   38.1880 C   0  0  0  0  0  0  0  0  0  0  0  0
   39.2160   23.3390   38.5960 C   0  0  0  0  0  0  0  0  0  0  0  0
   40.0010   22.6680   37.6710 C   0  0  0  0  0  0  0  0  0  0  0  0
   39.4960   22.3720   36.4260 N   0  0  0  0  0  0  0  0  0  0  0  0
   38.2210   22.7330   36.0810 C   0  0  0  0  0  0  0  0  0  0  0  0
   37.4300   23.3930   36.9720 N   0  0  0  0  0  0  0  0  0  0  0  0
   37.2840   24.2140   38.9060 H   0  0  0  0  0  0  0  0  0  0  0  0
   39.6230   23.5600   39.5560 H   0  0  0  0  0  0  0  0  0  0  0  0
   41.0240   22.3420   37.8550 H   0  0  0  0  0  0  0  0  0  0  0  0
   35.4980   19.7990   33.2070 C   0  0  0  0  0  2  0  0  0  0  0  0
   34.6570   19.7780   31.9520 C   0  0  0  0  0  2  0  0  0  0  0  0
   35.2730   19.5150   31.0910 H   0  0  0  0  0  0  0  0  0  0  0  0
  2  1  1  0  0  0  0
  2  3  1  0  0  0  0
  3 15  1  0  0  0  0
  4  3  2  0  0  0  0
  4  8  1  0  0  0  0
  5  4  1  0  0  0  0
  6  7  1  0  0  0  0
  6  5  2  0  0  0  0
  7  2  2  0  0  0  0
  9  6  1  0  0  0  0
 10  7  1  0  0  0  0
 11 12  1  0  0  0  0
 11 17  1  0  0  0  0
 12 18  1  0  0  0  0
 13 19  1  0  0  0  0
 13 12  2  0  0  0  0
 14 13  1  0  0  0  0
 15 14  2  0  0  0  0
 15 16  1  0  0  0  0
 16 11  2  0  0  0  0
 20  5  1  0  0  0  0
 21 20  1  0  0  0  0
 22 21  1  0  0  0  0
M  END
>  <minimizedAffinity>
-4.48277092

$$$$

 OpenBabel03272510183D

 22 23  0  0  0  0  0  0  0  0999 V2000
   38.5740   27.2710   35.6670 Br  0  0  0  0  0  0  0  0  0  0  0  0
   38.0860   26.1040   34.2300 C   0  0  0  0  0  0  0  0  0  0  0  0
   38.1150   24.7250   34.3870 C   0  0  0  0  0  0  0  0  0  0  0  0
   37.7520   23.9590   33.3120 C   0  0  0  0  0  0  0  0  0  0  0  0
   37.3630   24.4800   32.0930 C   0  0  0  0  0  0  0  0  0  0  0  0
   37.3440   25.8490   31.9670 C   0  0  0  0  0  0  0  0  0  0  0  0
   37.7070   26.6490   33.0380 C   0  0  0  0  0  0  0  0  0  0  0  0
   37.7730   22.8870   33.4320 H   0  0  0  0  0  0  0  0  0  0  0  0
   37.0430   26.2840   31.0200 H   0  0  0  0  0  0  0  0  0  0  0  0
   37.6940   27.7400   32.9430 H   0  0  0  0  0  0  0  0  0  0  0  0
   40.1740   23.0660   36.9010 C   0  0  0  0  0  0  0  0  0  0  0  0
   39.3470   23.0080   38.0460 C   0  0  0  0  0  0  0  0  0  0  0  0
   38.0760   23.5510   37.9260 C   0  0  0  0  0  0  0  0  0  0  0  0
   37.6760   24.1100   36.7340 N   0  0  0  0  0  0  0  0  0  0  0  0
   38.5180   24.1390   35.6550 C   0  0  0  0  0  0  0  0  0  0  0  0
   39.7710   23.6120   35.7460 N   0  0  0  0  0  0  0  0  0  0  0  0
   41.1720   22.6430   36.9840 H   0  0  0  0  0  0  0  0  0  0  0  0
   39.6400   22.5790   38.9760 H   0  0  0  0  0  0  0  0  0  0  0  0
   37.3390   23.5720   38.7280 H   0  0  0  0  0  0  0  0  0  0  0  0
   36.9940   23.5420   31.0070 C   0  0  0  0  0  2  0  0  0  0  0  0
   35.6540   22.8800   31.2330 C   0  0  0  0  0  2  0  0  0  0  0  0
   34.8470   23.5760   31.0010 H   0  0  0  0  0  0  0  0  0  0  0  0
  2  3  1  0  0  0  0
  2  1  1  0  0  0  0
  3 15  1  0  0  0  0
  4  8  1  0  0  0  0
  4  3  2  0  0  0  0
  5  4  1  0  0  0  0
  6  5  2  0  0  0  0
  6  7  1  0  0  0  0
  7  2  2  0  0  0  0
  9  6  1  0  0  0  0
 10  7  1  0  0  0  0
 11 17  1  0  0  0  0
 11 12  1  0  0  0  0
 12 18  1  0  0  0  0
 13 12  2  0  0  0  0
 13 19  1  0  0  0  0
 14 13  1  0  0  0  0
 15 16  1  0  0  0  0
 15 14  2  0  0  0  0
 16 11  2  0  0  0  0
 20 21  1  0  0  0  0
 20  5  1  0  0  0  0
 22 21  1  0  0  0  0
M  END
>  <minimizedAffinity>
-4.38426971

$$$$

 OpenBabel03272510183D

 22 23  0  0  0  0  0  0  0  0999 V2000
   34.5610   31.7810   32.3410 Br  0  0  0  0  0  0  0  0  0  0  0  0
   35.4940   30.2120   32.9150 C   0  0  0  0  0  0  0  0  0  0  0  0
   35.5190   29.8440   34.2530 C   0  0  0  0  0  0  0  0  0  0  0  0
   36.2080   28.7080   34.5830 C   0  0  0  0  0  0  0  0  0  0  0  0
   36.8720   27.9180   33.6650 C   0  0  0  0  0  0  0  0  0  0  0  0
   36.8300   28.3060   32.3470 C   0  0  0  0  0  0  0  0  0  0  0  0
   36.1400   29.4520   31.9840 C   0  0  0  0  0  0  0  0  0  0  0  0
   36.2290   28.4210   35.6230 H   0  0  0  0  0  0  0  0  0  0  0  0
   37.3430   27.7040   31.6060 H   0  0  0  0  0  0  0  0  0  0  0  0
   36.1030   29.7670   30.9360 H   0  0  0  0  0  0  0  0  0  0  0  0
   34.9590   32.3210   36.8730 C   0  0  0  0  0  0  0  0  0  0  0  0
   33.5790   32.2180   37.1610 C   0  0  0  0  0  0  0  0  0  0  0  0
   32.8590   31.2820   36.4340 C   0  0  0  0  0  0  0  0  0  0  0  0
   33.4910   30.5100   35.4880 N   0  0  0  0  0  0  0  0  0  0  0  0
   34.8320   30.6500   35.2490 C   0  0  0  0  0  0  0  0  0  0  0  0
   35.5630   31.5620   35.9490 N   0  0  0  0  0  0  0  0  0  0  0  0
   35.5350   33.0520   37.4370 H   0  0  0  0  0  0  0  0  0  0  0  0
   33.0740   32.8070   37.8900 H   0  0  0  0  0  0  0  0  0  0  0  0
   31.7910   31.1010   36.5560 H   0  0  0  0  0  0  0  0  0  0  0  0
   37.5820   26.7110   34.1510 C   0  0  0  0  0  2  0  0  0  0  0  0
   38.4450   26.9840   35.3620 C   0  0  0  0  0  2  0  0  0  0  0  0
   37.8240   27.0640   36.2560 H   0  0  0  0  0  0  0  0  0  0  0  0
  1  2  1  0  0  0  0
  2  3  1  0  0  0  0
  3  4  2  0  0  0  0
  3 15  1  0  0  0  0
  4  8  1  0  0  0  0
  5 20  1  0  0  0  0
  5  4  1  0  0  0  0
  6  5  2  0  0  0  0
  7  6  1  0  0  0  0
  7  2  2  0  0  0  0
  9  6  1  0  0  0  0
 10  7  1  0  0  0  0
 11 12  1  0  0  0  0
 11 17  1  0  0  0  0
 12 18  1  0  0  0  0
 13 19  1  0  0  0  0
 13 12  2  0  0  0  0
 14 13  1  0  0  0  0
 15 14  2  0  0  0  0
 15 16  1  0  0  0  0
 16 11  2  0  0  0  0
 20 21  1  0  0  0  0
 21 22  1  0  0  0  0
M  END
>  <minimizedAffinity>
-4.30000162

$$$$

 OpenBabel03272510183D

 22 23  0  0  0  0  0  0  0  0999 V2000
   36.5070   28.3000   32.1630 Br  0  0  0  0  0  0  0  0  0  0  0  0
   36.3020   26.4190   31.8810 C   0  0  0  0  0  0  0  0  0  0  0  0
   37.1830   25.5090   32.4490 C   0  0  0  0  0  0  0  0  0  0  0  0
   36.9680   24.1800   32.1990 C   0  0  0  0  0  0  0  0  0  0  0  0
   35.9330   23.7020   31.4200 C   0  0  0  0  0  0  0  0  0  0  0  0
   35.0750   24.6260   30.8700 C   0  0  0  0  0  0  0  0  0  0  0  0
   35.2680   25.9770   31.1060 C   0  0  0  0  0  0  0  0  0  0  0  0
   37.6520   23.4720   32.6400 H   0  0  0  0  0  0  0  0  0  0  0  0
   34.2530   24.2770   30.2540 H   0  0  0  0  0  0  0  0  0  0  0  0
   34.5890   26.7180   30.6700 H   0  0  0  0  0  0  0  0  0  0  0  0
   40.5280   26.6040   33.4100 C   0  0  0  0  0  0  0  0  0  0  0  0
   40.4260   26.8600   34.7970 C   0  0  0  0  0  0  0  0  0  0  0  0
   39.1860   26.6460   35.3810 C   0  0  0  0  0  0  0  0  0  0  0  0
   38.1310   26.2070   34.6160 N   0  0  0  0  0  0  0  0  0  0  0  0
   38.2850   25.9740   33.2750 C   0  0  0  0  0  0  0  0  0  0  0  0
   39.4920   26.1750   32.6770 N   0  0  0  0  0  0  0  0  0  0  0  0
   41.4950   26.7680   32.9410 H   0  0  0  0  0  0  0  0  0  0  0  0
   41.2320   27.2000   35.4040 H   0  0  0  0  0  0  0  0  0  0  0  0
   38.9700   26.8040   36.4370 H   0  0  0  0  0  0  0  0  0  0  0  0
   35.8090   22.2380   31.2260 C   0  0  0  0  0  2  0  0  0  0  0  0
   35.1510   21.5440   32.3970 C   0  0  0  0  0  2  0  0  0  0  0  0
   34.0730   21.7080   32.3740 H   0  0  0  0  0  0  0  0  0  0  0  0
  2  1  1  0  0  0  0
  2  3  1  0  0  0  0
  3 15  1  0  0  0  0
  4  3  2  0  0  0  0
  4  8  1  0  0  0  0
  5  4  1  0  0  0  0
  6  7  1  0  0  0  0
  6  5  2  0  0  0  0
  7  2  2  0  0  0  0
  9  6  1  0  0  0  0
 10  7  1  0  0  0  0
 11 12  1  0  0  0  0
 12 13  2  0  0  0  0
 12 18  1  0  0  0  0
 13 19  1  0  0  0  0
 14 13  1  0  0  0  0
 15 14  2  0  0  0  0
 16 15  1  0  0  0  0
 16 11  2  0  0  0  0
 17 11  1  0  0  0  0
 20  5  1  0  0  0  0
 20 21  1  0  0  0  0
 22 21  1  0  0  0  0
M  END
>  <minimizedAffinity>
-4.26796103

$$$$

 OpenBabel03272510183D

 22 23  0  0  0  0  0  0  0  0999 V2000
   39.1580   24.0680   30.2600 Br  0  0  0  0  0  0  0  0  0  0  0  0
   37.7420   22.9130   30.8280 C   0  0  0  0  0  0  0  0  0  0  0  0
   36.6520   23.4080   31.5310 C   0  0  0  0  0  0  0  0  0  0  0  0
   35.6800   22.5170   31.9010 C   0  0  0  0  0  0  0  0  0  0  0  0
   35.7280   21.1670   31.6170 C   0  0  0  0  0  0  0  0  0  0  0  0
   36.8190   20.7040   30.9200 C   0  0  0  0  0  0  0  0  0  0  0  0
   37.8170   21.5830   30.5320 C   0  0  0  0  0  0  0  0  0  0  0  0
   34.8330   22.9010   32.4470 H   0  0  0  0  0  0  0  0  0  0  0  0
   36.8810   19.6470   30.6830 H   0  0  0  0  0  0  0  0  0  0  0  0
   38.6890   21.2210   29.9770 H   0  0  0  0  0  0  0  0  0  0  0  0
   37.1020   26.5590   33.3160 C   0  0  0  0  0  0  0  0  0  0  0  0
   36.4390   27.5130   32.5110 C   0  0  0  0  0  0  0  0  0  0  0  0
   35.8410   27.0430   31.3510 C   0  0  0  0  0  0  0  0  0  0  0  0
   35.9110   25.7070   31.0330 N   0  0  0  0  0  0  0  0  0  0  0  0
   36.5660   24.8240   31.8490 C   0  0  0  0  0  0  0  0  0  0  0  0
   37.1620   25.2590   32.9940 N   0  0  0  0  0  0  0  0  0  0  0  0
   37.5750   26.9150   34.2280 H   0  0  0  0  0  0  0  0  0  0  0  0
   36.3750   28.5510   32.7420 H   0  0  0  0  0  0  0  0  0  0  0  0
   35.2990   27.6700   30.6430 H   0  0  0  0  0  0  0  0  0  0  0  0
   34.6110   20.3070   32.0740 C   0  0  0  0  0  2  0  0  0  0  0  0
   35.0560   18.9090   32.4380 C   0  0  0  0  0  2  0  0  0  0  0  0
   35.5450   18.9120   33.4130 H   0  0  0  0  0  0  0  0  0  0  0  0
  1  2  1  0  0  0  0
  2  3  1  0  0  0  0
  3 15  1  0  0  0  0
  3  4  2  0  0  0  0
  4  8  1  0  0  0  0
  5  4  1  0  0  0  0
  5 20  1  0  0  0  0
  6  5  2  0  0  0  0
  7  2  2  0  0  0  0
  7  6  1  0  0  0  0
  9  6  1  0  0  0  0
 10  7  1  0  0  0  0
 11 17  1  0  0  0  0
 12 18  1  0  0  0  0
 12 11  2  0  0  0  0
 13 12  1  0  0  0  0
 14 13  2  0  0  0  0
 14 15  1  0  0  0  0
 15 16  2  0  0  0  0
 16 11  1  0  0  0  0
 19 13  1  0  0  0  0
 20 21  1  0  0  0  0
 21 22  1  0  0  0  0
M  END
>  <minimizedAffinity>
-4.25748587

$$$$

 OpenBabel03272510183D

 22 23  0  0  0  0  0  0  0  0999 V2000
   40.6910   21.7380   33.1140 Br  0  0  0  0  0  0  0  0  0  0  0  0
   40.0650   22.2580   34.8460 C   0  0  0  0  0  0  0  0  0  0  0  0
   38.7440   22.6370   35.0460 C   0  0  0  0  0  0  0  0  0  0  0  0
   38.3740   22.9950   36.3140 C   0  0  0  0  0  0  0  0  0  0  0  0
   39.2360   22.9990   37.3940 C   0  0  0  0  0  0  0  0  0  0  0  0
   40.5370   22.6180   37.1670 C   0  0  0  0  0  0  0  0  0  0  0  0
   40.9400   22.2510   35.8930 C   0  0  0  0  0  0  0  0  0  0  0  0
   37.3480   23.2890   36.4710 H   0  0  0  0  0  0  0  0  0  0  0  0
   41.2350   22.6120   37.9970 H   0  0  0  0  0  0  0  0  0  0  0  0
   41.9760   21.9480   35.7050 H   0  0  0  0  0  0  0  0  0  0  0  0
   36.1660   21.5140   32.7210 C   0  0  0  0  0  0  0  0  0  0  0  0
   36.0020   22.6000   31.8310 C   0  0  0  0  0  0  0  0  0  0  0  0
   36.7960   23.7150   32.0550 C   0  0  0  0  0  0  0  0  0  0  0  0
   37.6880   23.7260   33.1020 N   0  0  0  0  0  0  0  0  0  0  0  0
   37.8080   22.6450   33.9340 C   0  0  0  0  0  0  0  0  0  0  0  0
   37.0400   21.5380   33.7360 N   0  0  0  0  0  0  0  0  0  0  0  0
   35.5490   20.6330   32.5550 H   0  0  0  0  0  0  0  0  0  0  0  0
   35.3170   22.6080   31.0160 H   0  0  0  0  0  0  0  0  0  0  0  0
   36.7700   24.6180   31.4460 H   0  0  0  0  0  0  0  0  0  0  0  0
   38.7110   23.4070   38.7180 C   0  0  0  0  0  2  0  0  0  0  0  0
   37.9120   24.6890   38.6640 C   0  0  0  0  0  2  0  0  0  0  0  0
   36.9210   24.4980   38.2520 H   0  0  0  0  0  0  0  0  0  0  0  0
  1  2  1  0  0  0  0
  2  3  2  0  0  0  0
  2  7  1  0  0  0  0
  3  4  1  0  0  0  0
  4  8  1  0  0  0  0
  4  5  2  0  0  0  0
  5 20  1  0  0  0  0
  6  5  1  0  0  0  0
  6  9  1  0  0  0  0
  7  6  2  0  0  0  0
 10  7  1  0  0  0  0
 11 16  1  0  0  0  0
 12 13  1  0  0  0  0
 12 11  2  0  0  0  0
 13 14  2  0  0  0  0
 14 15  1  0  0  0  0
 15  3  1  0  0  0  0
 16 15  2  0  0  0  0
 17 11  1  0  0  0  0
 18 12  1  0  0  0  0
 19 13  1  0  0  0  0
 21 20  1  0  0  0  0
 22 21  1  0  0  0  0
M  END
>  <minimizedAffinity>
-4.22759628

$$$$

 OpenBabel03272510183D

 22 23  0  0  0  0  0  0  0  0999 V2000
   35.9840   32.4050   35.3660 Br  0  0  0  0  0  0  0  0  0  0  0  0
   34.4200   31.4020   35.8250 C   0  0  0  0  0  0  0  0  0  0  0  0
   33.9710   30.3650   35.0190 C   0  0  0  0  0  0  0  0  0  0  0  0
   32.8450   29.6950   35.4170 C   0  0  0  0  0  0  0  0  0  0  0  0
   32.1400   29.9940   36.5660 C   0  0  0  0  0  0  0  0  0  0  0  0
   32.6070   31.0250   37.3460 C   0  0  0  0  0  0  0  0  0  0  0  0
   33.7440   31.7200   36.9680 C   0  0  0  0  0  0  0  0  0  0  0  0
   32.4960   28.8900   34.7900 H   0  0  0  0  0  0  0  0  0  0  0  0
   32.0720   31.2810   38.2540 H   0  0  0  0  0  0  0  0  0  0  0  0
   34.1210   32.5430   37.5840 H   0  0  0  0  0  0  0  0  0  0  0  0
   36.3060   28.6970   32.7650 C   0  0  0  0  0  0  0  0  0  0  0  0
   36.0870   29.3180   31.5140 C   0  0  0  0  0  0  0  0  0  0  0  0
   35.1240   30.3150   31.4730 C   0  0  0  0  0  0  0  0  0  0  0  0
   34.4350   30.6550   32.6140 N   0  0  0  0  0  0  0  0  0  0  0  0
   34.6870   30.0210   33.8010 C   0  0  0  0  0  0  0  0  0  0  0  0
   35.6290   29.0390   33.8690 N   0  0  0  0  0  0  0  0  0  0  0  0
   37.0600   27.9140   32.8090 H   0  0  0  0  0  0  0  0  0  0  0  0
   36.6110   29.0680   30.6210 H   0  0  0  0  0  0  0  0  0  0  0  0
   34.8560   30.8730   30.5760 H   0  0  0  0  0  0  0  0  0  0  0  0
   30.9350   29.1930   36.8860 C   0  0  0  0  0  2  0  0  0  0  0  0
   31.1340   27.7130   36.6550 C   0  0  0  0  0  2  0  0  0  0  0  0
   31.7220   27.2820   37.4670 H   0  0  0  0  0  0  0  0  0  0  0  0
  1  2  1  0  0  0  0
  2  7  1  0  0  0  0
  3  4  1  0  0  0  0
  3  2  2  0  0  0  0
  4  5  2  0  0  0  0
  5 20  1  0  0  0  0
  5  6  1  0  0  0  0
  6  9  1  0  0  0  0
  7  6  2  0  0  0  0
  7 10  1  0  0  0  0
  8  4  1  0  0  0  0
 11 17  1  0  0  0  0
 11 16  1  0  0  0  0
 12 11  2  0  0  0  0
 13 12  1  0  0  0  0
 13 14  2  0  0  0  0
 14 15  1  0  0  0  0
 15 16  2  0  0  0  0
 15  3  1  0  0  0  0
 18 12  1  0  0  0  0
 19 13  1  0  0  0  0
 21 20  1  0  0  0  0
 21 22  1  0  0  0  0
M  END
>  <minimizedAffinity>
-4.17747974

$$$$

 OpenBabel03272510183D

 22 23  0  0  0  0  0  0  0  0999 V2000
   41.0650   26.0630   34.5480 Br  0  0  0  0  0  0  0  0  0  0  0  0
   39.4560   26.2910   33.5360 C   0  0  0  0  0  0  0  0  0  0  0  0
   38.2850   25.6370   33.8950 C   0  0  0  0  0  0  0  0  0  0  0  0
   37.1770   25.8530   33.1210 C   0  0  0  0  0  0  0  0  0  0  0  0
   37.1630   26.6770   32.0130 C   0  0  0  0  0  0  0  0  0  0  0  0
   38.3370   27.3120   31.6800 C   0  0  0  0  0  0  0  0  0  0  0  0
   39.4730   27.1120   32.4460 C   0  0  0  0  0  0  0  0  0  0  0  0
   36.2670   25.3450   33.3990 H   0  0  0  0  0  0  0  0  0  0  0  0
   38.3530   27.9650   30.8140 H   0  0  0  0  0  0  0  0  0  0  0  0
   40.4120   27.6140   32.1860 H   0  0  0  0  0  0  0  0  0  0  0  0
   38.5580   22.6140   35.9210 C   0  0  0  0  0  0  0  0  0  0  0  0
   38.2330   23.0410   37.2290 C   0  0  0  0  0  0  0  0  0  0  0  0
   37.9220   24.3830   37.3880 C   0  0  0  0  0  0  0  0  0  0  0  0
   37.9400   25.2280   36.3030 N   0  0  0  0  0  0  0  0  0  0  0  0
   38.2610   24.7620   35.0560 C   0  0  0  0  0  0  0  0  0  0  0  0
   38.5700   23.4480   34.8720 N   0  0  0  0  0  0  0  0  0  0  0  0
   38.8030   21.5640   35.7840 H   0  0  0  0  0  0  0  0  0  0  0  0
   38.2140   22.4010   38.0800 H   0  0  0  0  0  0  0  0  0  0  0  0
   37.6550   24.8420   38.3400 H   0  0  0  0  0  0  0  0  0  0  0  0
   35.8970   26.8260   31.2570 C   0  0  0  0  0  2  0  0  0  0  0  0
   35.2170   25.5050   30.9820 C   0  0  0  0  0  2  0  0  0  0  0  0
   34.7180   25.1450   31.8830 H   0  0  0  0  0  0  0  0  0  0  0  0
  2  3  1  0  0  0  0
  2  1  1  0  0  0  0
  3 15  1  0  0  0  0
  4  8  1  0  0  0  0
  4  3  2  0  0  0  0
  5  4  1  0  0  0  0
  6  5  2  0  0  0  0
  6  7  1  0  0  0  0
  7  2  2  0  0  0  0
  9  6  1  0  0  0  0
 10  7  1  0  0  0  0
 11 12  1  0  0  0  0
 12 13  2  0  0  0  0
 12 18  1  0  0  0  0
 13 19  1  0  0  0  0
 14 13  1  0  0  0  0
 15 14  2  0  0  0  0
 16 15  1  0  0  0  0
 16 11  2  0  0  0  0
 17 11  1  0  0  0  0
 20  5  1  0  0  0  0
 21 20  1  0  0  0  0
 21 22  1  0  0  0  0
M  END
>  <minimizedAffinity>
-4.07394934

$$$$

 OpenBabel03272510183D

 22 23  0  0  0  0  0  0  0  0999 V2000
   37.8430   25.1910   33.0520 Br  0  0  0  0  0  0  0  0  0  0  0  0
   37.0800   23.4850   32.6420 C   0  0  0  0  0  0  0  0  0  0  0  0
   37.3750   22.3650   33.4080 C   0  0  0  0  0  0  0  0  0  0  0  0
   36.7890   21.1810   33.0490 C   0  0  0  0  0  0  0  0  0  0  0  0
   35.9300   21.0430   31.9770 C   0  0  0  0  0  0  0  0  0  0  0  0
   35.6550   22.1690   31.2360 C   0  0  0  0  0  0  0  0  0  0  0  0
   36.2340   23.3800   31.5760 C   0  0  0  0  0  0  0  0  0  0  0  0
   37.0170   20.3110   33.6440 H   0  0  0  0  0  0  0  0  0  0  0  0
   34.9830   22.0880   30.3880 H   0  0  0  0  0  0  0  0  0  0  0  0
   36.0200   24.2800   30.9890 H   0  0  0  0  0  0  0  0  0  0  0  0
   40.4420   22.2430   35.3800 C   0  0  0  0  0  0  0  0  0  0  0  0
   40.0430   22.6530   36.6720 C   0  0  0  0  0  0  0  0  0  0  0  0
   38.7020   22.9690   36.8400 C   0  0  0  0  0  0  0  0  0  0  0  0
   37.8350   22.8750   35.7760 N   0  0  0  0  0  0  0  0  0  0  0  0
   38.2750   22.4710   34.5440 C   0  0  0  0  0  0  0  0  0  0  0  0
   39.5870   22.1550   34.3530 N   0  0  0  0  0  0  0  0  0  0  0  0
   41.4910   21.9930   35.2370 H   0  0  0  0  0  0  0  0  0  0  0  0
   40.7000   22.7310   37.5070 H   0  0  0  0  0  0  0  0  0  0  0  0
   38.2620   23.2980   37.7810 H   0  0  0  0  0  0  0  0  0  0  0  0
   35.3600   19.7050   31.6930 C   0  0  0  0  0  2  0  0  0  0  0  0
   35.4150   18.7780   32.8850 C   0  0  0  0  0  2  0  0  0  0  0  0
   34.6320   19.0360   33.5990 H   0  0  0  0  0  0  0  0  0  0  0  0
  2  1  1  0  0  0  0
  2  3  1  0  0  0  0
  3 15  1  0  0  0  0
  4  3  2  0  0  0  0
  4  8  1  0  0  0  0
  5  4  1  0  0  0  0
  6  7  1  0  0  0  0
  6  5  2  0  0  0  0
  7  2  2  0  0  0  0
  9  6  1  0  0  0  0
 10  7  1  0  0  0  0
 11 12  1  0  0  0  0
 12 13  2  0  0  0  0
 12 18  1  0  0  0  0
 13 19  1  0  0  0  0
 14 13  1  0  0  0  0
 15 14  2  0  0  0  0
 16 15  1  0  0  0  0
 16 11  2  0  0  0  0
 17 11  1  0  0  0  0
 20  5  1  0  0  0  0
 20 21  1  0  0  0  0
 21 22  1  0  0  0  0
M  END
>  <minimizedAffinity>
-4.07089472

$$$$
