
 OpenBabel03272510163D

 22 23  0  0  0  0  0  0  0  0999 V2000
   37.2770   29.3470   51.0510 Br  0  0  0  0  0  0  0  0  0  0  0  0
   35.9510   29.3140   49.6720 C   0  0  0  0  0  0  0  0  0  0  0  0
   35.9840   30.2250   48.6240 C   0  0  0  0  0  0  0  0  0  0  0  0
   35.0000   30.1360   47.6770 C   0  0  0  0  0  0  0  0  0  0  0  0
   33.9860   29.1980   47.7080 C   0  0  0  0  0  0  0  0  0  0  0  0
   33.9780   28.3090   48.7570 C   0  0  0  0  0  0  0  0  0  0  0  0
   34.9610   28.3760   49.7300 C   0  0  0  0  0  0  0  0  0  0  0  0
   35.0250   30.8430   46.8620 H   0  0  0  0  0  0  0  0  0  0  0  0
   33.1930   27.5620   48.8050 H   0  0  0  0  0  0  0  0  0  0  0  0
   34.9600   27.6700   50.5680 H   0  0  0  0  0  0  0  0  0  0  0  0
   37.9780   33.1690   49.4430 C   0  0  0  0  0  0  0  0  0  0  0  0
   39.0140   33.1670   48.4820 C   0  0  0  0  0  0  0  0  0  0  0  0
   39.0040   32.1340   47.5560 C   0  0  0  0  0  0  0  0  0  0  0  0
   38.0180   31.1760   47.6040 N   0  0  0  0  0  0  0  0  0  0  0  0
   37.0360   31.2260   48.5570 C   0  0  0  0  0  0  0  0  0  0  0  0
   37.0220   32.2310   49.4770 N   0  0  0  0  0  0  0  0  0  0  0  0
   37.9750   33.9740   50.1740 H   0  0  0  0  0  0  0  0  0  0  0  0
   39.7850   33.9000   48.4300 H   0  0  0  0  0  0  0  0  0  0  0  0
   39.7420   32.0130   46.7640 H   0  0  0  0  0  0  0  0  0  0  0  0
   32.9800   29.2070   46.6210 C   0  0  0  0  0  2  0  0  0  0  0  0
   31.7550   28.3830   46.9470 C   0  0  0  0  0  2  0  0  0  0  0  0
   31.1120   28.9240   47.6420 H   0  0  0  0  0  0  0  0  0  0  0  0
  2  7  1  0  0  0  0
  2  1  1  0  0  0  0
  3  2  2  0  0  0  0
  4  5  2  0  0  0  0
  4  3  1  0  0  0  0
  5  6  1  0  0  0  0
  6  9  1  0  0  0  0
  6  7  2  0  0  0  0
  7 10  1  0  0  0  0
  8  4  1  0  0  0  0
 11 16  1  0  0  0  0
 11 17  1  0  0  0  0
 12 11  2  0  0  0  0
 13 14  2  0  0  0  0
 13 12  1  0  0  0  0
 14 15  1  0  0  0  0
 15  3  1  0  0  0  0
 15 16  2  0  0  0  0
 18 12  1  0  0  0  0
 19 13  1  0  0  0  0
 20 21  1  0  0  0  0
 20  5  1  0  0  0  0
 21 22  1  0  0  0  0
M  END
>  <minimizedAffinity>
-5.4601059

>  <minimizedRMSD>
0.019996563

$$$$
