
 OpenBabel03272510163D

 22 23  0  0  0  0  0  0  0  0999 V2000
   37.2860   29.3570   51.0600 Br  0  0  0  0  0  0  0  0  0  0  0  0
   35.9580   29.3180   49.6830 C   0  0  0  0  0  0  0  0  0  0  0  0
   35.9890   30.2250   48.6320 C   0  0  0  0  0  0  0  0  0  0  0  0
   35.0040   30.1320   47.6870 C   0  0  0  0  0  0  0  0  0  0  0  0
   33.9910   29.1930   47.7230 C   0  0  0  0  0  0  0  0  0  0  0  0
   33.9850   28.3080   48.7740 C   0  0  0  0  0  0  0  0  0  0  0  0
   34.9700   28.3790   49.7460 C   0  0  0  0  0  0  0  0  0  0  0  0
   35.0270   30.8360   46.8700 H   0  0  0  0  0  0  0  0  0  0  0  0
   33.2010   27.5600   48.8260 H   0  0  0  0  0  0  0  0  0  0  0  0
   34.9710   27.6760   50.5870 H   0  0  0  0  0  0  0  0  0  0  0  0
   37.9820   33.1730   49.4390 C   0  0  0  0  0  0  0  0  0  0  0  0
   39.0160   33.1700   48.4750 C   0  0  0  0  0  0  0  0  0  0  0  0
   39.0060   32.1340   47.5530 C   0  0  0  0  0  0  0  0  0  0  0  0
   38.0200   31.1750   47.6050 N   0  0  0  0  0  0  0  0  0  0  0  0
   37.0400   31.2270   48.5600 C   0  0  0  0  0  0  0  0  0  0  0  0
   37.0270   32.2340   49.4770 N   0  0  0  0  0  0  0  0  0  0  0  0
   37.9800   33.9810   50.1670 H   0  0  0  0  0  0  0  0  0  0  0  0
   39.7870   33.9030   48.4200 H   0  0  0  0  0  0  0  0  0  0  0  0
   39.7420   32.0110   46.7590 H   0  0  0  0  0  0  0  0  0  0  0  0
   32.9830   29.1970   46.6370 C   0  0  0  0  0  2  0  0  0  0  0  0
   32.5790   27.8060   46.2050 C   0  0  0  0  0  2  0  0  0  0  0  0
   31.8950   27.3690   46.9340 H   0  0  0  0  0  0  0  0  0  0  0  0
  2  7  1  0  0  0  0
  2  1  1  0  0  0  0
  3  2  2  0  0  0  0
  4  5  2  0  0  0  0
  4  3  1  0  0  0  0
  5  6  1  0  0  0  0
  6  9  1  0  0  0  0
  6  7  2  0  0  0  0
  7 10  1  0  0  0  0
  8  4  1  0  0  0  0
 11 16  1  0  0  0  0
 11 17  1  0  0  0  0
 12 11  2  0  0  0  0
 13 14  2  0  0  0  0
 13 12  1  0  0  0  0
 14 15  1  0  0  0  0
 15  3  1  0  0  0  0
 15 16  2  0  0  0  0
 18 12  1  0  0  0  0
 19 13  1  0  0  0  0
 20  5  1  0  0  0  0
 21 20  1  0  0  0  0
 21 22  1  0  0  0  0
M  END
>  <minimizedAffinity>
-5.41057873

>  <minimizedRMSD>
0.05246545

$$$$
