
 OpenBabel03272501083D

 34 36  0  0  1  0  0  0  0  0999 V2000
   39.0160   32.4490   47.7050 C   0  0  2  0  0  0  0  0  0  0  0  0
   37.9650   32.6370   48.8470 C   0  0  2  0  0  0  0  0  0  0  0  0
   38.7550   33.3770   49.8180 C   0  0  0  0  0  0  0  0  0  0  0  0
   39.6020   34.2330   49.1300 O   0  0  0  0  0  0  0  0  0  0  0  0
   39.6080   33.8820   47.8170 C   0  0  0  0  0  0  0  0  0  0  0  0
   39.7880   31.7440   48.0120 H   0  0  0  0  0  0  0  0  0  0  0  0
   37.1850   33.2580   48.3590 H   0  0  0  0  0  0  0  0  0  0  0  0
   38.0950   34.0350   50.4460 H   0  0  0  0  0  0  0  0  0  0  0  0
   39.3470   32.7900   50.5120 H   0  0  0  0  0  0  0  0  0  0  0  0
   40.6840   33.7710   47.5100 H   0  0  0  0  0  0  0  0  0  0  0  0
   39.0690   34.5870   47.1690 H   0  0  0  0  0  0  0  0  0  0  0  0
   37.3280   29.3730   50.6150 C   0  0  0  0  0  0  0  0  0  0  0  0
   37.9570   30.6030   50.2830 C   0  0  0  0  0  0  0  0  0  0  0  0
   37.3790   31.3870   49.2450 C   0  0  0  0  0  0  0  0  0  0  0  0
   36.2370   30.9130   48.6140 N   0  0  0  0  0  0  0  0  0  0  0  0
   35.6950   29.7460   48.9760 C   0  0  0  0  0  0  0  0  0  0  0  0
   36.2140   28.9730   49.9560 N   0  0  0  0  0  0  0  0  0  0  0  0
   37.6920   28.7250   51.3780 H   0  0  0  0  0  0  0  0  0  0  0  0
   38.8320   30.9060   50.8110 H   0  0  0  0  0  0  0  0  0  0  0  0
   34.8100   29.4890   48.4060 H   0  0  0  0  0  0  0  0  0  0  0  0
   38.4370   32.3130   46.4900 O   0  0  0  0  0  0  0  0  0  0  0  0
   41.0890   31.9570   44.9650 Cl  0  0  0  0  0  0  0  0  0  0  0  0
   39.5720   31.1730   44.5720 C   0  0  0  0  0  0  0  0  0  0  0  0
   38.5230   31.4990   45.4200 C   0  0  0  0  0  0  0  0  0  0  0  0
   37.3240   30.8770   45.1270 C   0  0  0  0  0  0  0  0  0  0  0  0
   37.1890   29.9980   44.0670 C   0  0  0  0  0  0  0  0  0  0  0  0
   38.2700   29.7270   43.2740 C   0  0  0  0  0  0  0  0  0  0  0  0
   39.4840   30.3130   43.5160 C   0  0  0  0  0  0  0  0  0  0  0  0
   36.4100   31.0120   45.6790 H   0  0  0  0  0  0  0  0  0  0  0  0
   36.2570   29.4950   43.8150 H   0  0  0  0  0  0  0  0  0  0  0  0
   38.1920   29.0470   42.4430 H   0  0  0  0  0  0  0  0  0  0  0  0
   40.6320   29.9980   42.6320 C   0  0  0  0  0  0  0  0  0  0  0  0
   40.5470   28.5640   42.1320 C   0  0  0  0  0  0  0  0  0  0  0  0
   40.2760   28.4790   41.0700 H   0  0  0  0  0  0  0  0  0  0  0  0
  1  5  1  0  0  0  0
  1  6  1  1  0  0  0
  1  2  1  0  0  0  0
  2  7  1  6  0  0  0
  2 14  1  0  0  0  0
  2  3  1  0  0  0  0
  3  8  1  0  0  0  0
  3  9  1  0  0  0  0
  4  3  1  0  0  0  0
  5  4  1  0  0  0  0
 10  5  1  0  0  0  0
 11  5  1  0  0  0  0
 12 18  1  0  0  0  0
 13 12  1  0  0  0  0
 13 19  1  0  0  0  0
 14 13  2  0  0  0  0
 15 16  2  0  0  0  0
 15 14  1  0  0  0  0
 16 17  1  0  0  0  0
 17 12  2  0  0  0  0
 20 16  1  0  0  0  0
 21  1  1  0  0  0  0
 23 22  1  0  0  0  0
 23 24  1  0  0  0  0
 24 21  1  0  0  0  0
 25 24  2  0  0  0  0
 25 29  1  0  0  0  0
 26 25  1  0  0  0  0
 27 28  1  0  0  0  0
 27 26  2  0  0  0  0
 28 23  2  0  0  0  0
 30 26  1  0  0  0  0
 31 27  1  0  0  0  0
 32 28  1  0  0  0  0
 33 32  1  0  0  0  0
 34 33  1  0  0  0  0
M  END
>  <minimizedAffinity>
-5.66716242

>  <minimizedRMSD>
0.564744115

$$$$
