
 OpenBabel03272506463D

 36 38  0  0  1  0  0  0  0  0999 V2000
   32.1960   28.4600   47.5140 C   0  0  2  0  0  0  0  0  0  0  0  0
   33.4650   28.3610   48.3150 C   0  0  1  0  0  0  0  0  0  0  0  0
   33.9100   27.0770   48.2400 O   0  0  0  0  0  0  0  0  0  0  0  0
   33.2180   26.4040   47.2370 C   0  0  0  0  0  0  0  0  0  0  0  0
   32.5480   27.4490   46.3790 C   0  0  1  0  0  0  0  0  0  0  0  0
   31.2980   28.1130   48.0110 H   0  0  0  0  0  0  0  0  0  0  0  0
   33.3030   28.7080   49.3670 H   0  0  0  0  0  0  0  0  0  0  0  0
   32.5690   25.6890   47.7150 H   0  0  0  0  0  0  0  0  0  0  0  0
   34.0200   25.9040   46.6220 H   0  0  0  0  0  0  0  0  0  0  0  0
   33.1990   27.9610   45.6790 H   0  0  0  0  0  0  0  0  0  0  0  0
   32.0620   29.7440   46.9470 O   0  0  0  0  0  0  0  0  0  0  0  0
   32.3640   29.7310   46.0080 H   0  0  0  0  0  0  0  0  0  0  0  0
   34.7140   29.4410   47.4980 S   0  0  0  0  0  0  0  0  0  0  0  0
   37.2310   29.3500   50.5540 C   0  0  0  0  0  0  0  0  0  0  0  0
   37.7840   30.6340   50.6230 C   0  0  0  0  0  0  0  0  0  0  0  0
   37.3470   31.5560   49.6750 C   0  0  0  0  0  0  0  0  0  0  0  0
   36.4290   31.1770   48.7500 N   0  0  0  0  0  0  0  0  0  0  0  0
   35.9260   29.9200   48.7310 C   0  0  0  0  0  0  0  0  0  0  0  0
   36.3230   28.9930   49.6330 N   0  0  0  0  0  0  0  0  0  0  0  0
   37.5930   28.6490   51.3100 H   0  0  0  0  0  0  0  0  0  0  0  0
   38.5160   30.9370   51.3590 H   0  0  0  0  0  0  0  0  0  0  0  0
   37.6970   32.5740   49.6240 H   0  0  0  0  0  0  0  0  0  0  0  0
   31.4110   26.9070   45.8280 O   0  0  0  0  0  0  0  0  0  0  0  0
   29.8670   28.6510   44.0280 Cl  0  0  0  0  0  0  0  0  0  0  0  0
   29.3520   27.8870   45.5100 C   0  0  0  0  0  0  0  0  0  0  0  0
   30.1690   27.0770   46.2670 C   0  0  0  0  0  0  0  0  0  0  0  0
   29.6330   26.5010   47.4220 C   0  0  0  0  0  0  0  0  0  0  0  0
   28.3270   26.7400   47.7880 C   0  0  0  0  0  0  0  0  0  0  0  0
   27.4980   27.5530   47.0360 C   0  0  0  0  0  0  0  0  0  0  0  0
   28.0240   28.1310   45.8800 C   0  0  0  0  0  0  0  0  0  0  0  0
   30.1960   25.8520   48.0710 H   0  0  0  0  0  0  0  0  0  0  0  0
   27.8740   26.3230   48.6620 H   0  0  0  0  0  0  0  0  0  0  0  0
   26.4780   27.7520   47.3020 H   0  0  0  0  0  0  0  0  0  0  0  0
   27.1480   28.9980   45.0710 C   0  0  0  0  0  2  0  0  0  0  0  0
   25.9930   28.1650   44.5070 C   0  0  0  0  0  2  0  0  0  0  0  0
   26.1770   27.9610   43.4280 H   0  0  0  0  0  0  0  0  0  0  0  0
  1  6  1  1  0  0  0
  1  2  1  0  0  0  0
  2  7  1  1  0  0  0
  3  2  1  0  0  0  0
  4  8  1  0  0  0  0
  4  3  1  0  0  0  0
  5 10  1  6  0  0  0
  5  4  1  0  0  0  0
  5  1  1  0  0  0  0
  9  4  1  0  0  0  0
 11  1  1  0  0  0  0
 12 11  1  0  0  0  0
 13  2  1  0  0  0  0
 13 18  1  0  0  0  0
 14 15  1  0  0  0  0
 14 20  1  0  0  0  0
 15 21  1  0  0  0  0
 16 15  2  0  0  0  0
 17 16  1  0  0  0  0
 18 17  2  0  0  0  0
 18 19  1  0  0  0  0
 19 14  2  0  0  0  0
 22 16  1  0  0  0  0
 23 26  1  0  0  0  0
 23  5  1  0  0  0  0
 24 25  1  0  0  0  0
 25 30  2  0  0  0  0
 25 26  1  0  0  0  0
 26 27  2  0  0  0  0
 27 28  1  0  0  0  0
 27 31  1  0  0  0  0
 28 32  1  0  0  0  0
 29 33  1  0  0  0  0
 29 28  2  0  0  0  0
 30 29  1  0  0  0  0
 34 30  1  0  0  0  0
 35 34  1  0  0  0  0
 36 35  1  0  0  0  0
M  END
>  <minimizedAffinity>
-4.68473816

>  <minimizedRMSD>
0.438637793

$$$$
