
 OpenBabel03272506463D

 36 38  0  0  1  0  0  0  0  0999 V2000
   32.1620   28.4340   47.4520 C   0  0  2  0  0  0  0  0  0  0  0  0
   33.4180   28.3080   48.2680 C   0  0  1  0  0  0  0  0  0  0  0  0
   33.8710   27.0300   48.1480 O   0  0  0  0  0  0  0  0  0  0  0  0
   33.1970   26.3950   47.1080 C   0  0  0  0  0  0  0  0  0  0  0  0
   32.5360   27.4710   46.2820 C   0  0  1  0  0  0  0  0  0  0  0  0
   31.2580   28.0640   47.9200 H   0  0  0  0  0  0  0  0  0  0  0  0
   33.2390   28.6110   49.3290 H   0  0  0  0  0  0  0  0  0  0  0  0
   32.5450   25.6590   47.5470 H   0  0  0  0  0  0  0  0  0  0  0  0
   34.0110   25.9230   46.4860 H   0  0  0  0  0  0  0  0  0  0  0  0
   33.1950   28.0140   45.6130 H   0  0  0  0  0  0  0  0  0  0  0  0
   32.0300   29.7390   46.9340 O   0  0  0  0  0  0  0  0  0  0  0  0
   32.3470   29.7650   46.0000 H   0  0  0  0  0  0  0  0  0  0  0  0
   34.6750   29.4260   47.5140 S   0  0  0  0  0  0  0  0  0  0  0  0
   37.1360   29.2870   50.6140 C   0  0  0  0  0  0  0  0  0  0  0  0
   37.6320   30.5880   50.7570 C   0  0  0  0  0  0  0  0  0  0  0  0
   37.1730   31.5370   49.8470 C   0  0  0  0  0  0  0  0  0  0  0  0
   36.2900   31.1670   48.8860 N   0  0  0  0  0  0  0  0  0  0  0  0
   35.8420   29.8930   48.7940 C   0  0  0  0  0  0  0  0  0  0  0  0
   36.2610   28.9390   49.6570 N   0  0  0  0  0  0  0  0  0  0  0  0
   37.5140   28.5650   51.3420 H   0  0  0  0  0  0  0  0  0  0  0  0
   38.3360   30.8840   51.5220 H   0  0  0  0  0  0  0  0  0  0  0  0
   37.4810   32.5710   49.8530 H   0  0  0  0  0  0  0  0  0  0  0  0
   31.4110   26.9470   45.6920 O   0  0  0  0  0  0  0  0  0  0  0  0
   29.8660   28.8180   44.0230 Cl  0  0  0  0  0  0  0  0  0  0  0  0
   29.3460   27.9330   45.4360 C   0  0  0  0  0  0  0  0  0  0  0  0
   30.1630   27.0710   46.1330 C   0  0  0  0  0  0  0  0  0  0  0  0
   29.6240   26.4010   47.2330 C   0  0  0  0  0  0  0  0  0  0  0  0
   28.3130   26.6010   47.6060 C   0  0  0  0  0  0  0  0  0  0  0  0
   27.4820   27.4640   46.9130 C   0  0  0  0  0  0  0  0  0  0  0  0
   28.0130   28.1370   45.8120 C   0  0  0  0  0  0  0  0  0  0  0  0
   30.1860   25.7070   47.8330 H   0  0  0  0  0  0  0  0  0  0  0  0
   27.8560   26.1120   48.4400 H   0  0  0  0  0  0  0  0  0  0  0  0
   26.4590   27.6340   47.1860 H   0  0  0  0  0  0  0  0  0  0  0  0
   27.1360   29.0590   45.0670 C   0  0  0  0  0  2  0  0  0  0  0  0
   25.9780   28.2680   44.4500 C   0  0  0  0  0  2  0  0  0  0  0  0
   26.1610   28.1390   43.3590 H   0  0  0  0  0  0  0  0  0  0  0  0
  1  6  1  1  0  0  0
  1  2  1  0  0  0  0
  2  7  1  1  0  0  0
  3  2  1  0  0  0  0
  4  8  1  0  0  0  0
  4  3  1  0  0  0  0
  5 10  1  6  0  0  0
  5  4  1  0  0  0  0
  5  1  1  0  0  0  0
  9  4  1  0  0  0  0
 11  1  1  0  0  0  0
 12 11  1  0  0  0  0
 13  2  1  0  0  0  0
 13 18  1  0  0  0  0
 14 15  1  0  0  0  0
 14 20  1  0  0  0  0
 15 21  1  0  0  0  0
 16 22  1  0  0  0  0
 16 15  2  0  0  0  0
 17 16  1  0  0  0  0
 18 17  2  0  0  0  0
 18 19  1  0  0  0  0
 19 14  2  0  0  0  0
 23 26  1  0  0  0  0
 23  5  1  0  0  0  0
 24 25  1  0  0  0  0
 25 30  2  0  0  0  0
 25 26  1  0  0  0  0
 26 27  2  0  0  0  0
 27 28  1  0  0  0  0
 27 31  1  0  0  0  0
 28 32  1  0  0  0  0
 29 33  1  0  0  0  0
 29 28  2  0  0  0  0
 30 29  1  0  0  0  0
 34 30  1  0  0  0  0
 35 34  1  0  0  0  0
 36 35  1  0  0  0  0
M  END
>  <minimizedAffinity>
-4.65679312

>  <minimizedRMSD>
0.172504961

$$$$
