
 OpenBabel03272506473D

 36 38  0  0  1  0  0  0  0  0999 V2000
   32.1950   28.4650   47.5130 C   0  0  2  0  0  0  0  0  0  0  0  0
   33.4570   28.3610   48.3240 C   0  0  1  0  0  0  0  0  0  0  0  0
   33.9010   27.0760   48.2480 O   0  0  0  0  0  0  0  0  0  0  0  0
   33.2160   26.4090   47.2360 C   0  0  0  0  0  0  0  0  0  0  0  0
   32.5560   27.4580   46.3760 C   0  0  1  0  0  0  0  0  0  0  0  0
   31.2930   28.1180   48.0000 H   0  0  0  0  0  0  0  0  0  0  0  0
   33.2870   28.7030   49.3760 H   0  0  0  0  0  0  0  0  0  0  0  0
   32.5620   25.6930   47.7050 H   0  0  0  0  0  0  0  0  0  0  0  0
   34.0230   25.9090   46.6260 H   0  0  0  0  0  0  0  0  0  0  0  0
   33.2140   27.9720   45.6840 H   0  0  0  0  0  0  0  0  0  0  0  0
   32.0680   29.7510   46.9490 O   0  0  0  0  0  0  0  0  0  0  0  0
   32.3790   29.7420   46.0130 H   0  0  0  0  0  0  0  0  0  0  0  0
   34.7150   29.4420   47.5220 S   0  0  0  0  0  0  0  0  0  0  0  0
   37.2620   29.3150   50.5520 C   0  0  0  0  0  0  0  0  0  0  0  0
   37.7600   30.6170   50.6780 C   0  0  0  0  0  0  0  0  0  0  0  0
   37.2740   31.5630   49.7790 C   0  0  0  0  0  0  0  0  0  0  0  0
   36.3650   31.1900   48.8440 N   0  0  0  0  0  0  0  0  0  0  0  0
   35.9170   29.9140   48.7680 C   0  0  0  0  0  0  0  0  0  0  0  0
   36.3620   28.9630   49.6210 N   0  0  0  0  0  0  0  0  0  0  0  0
   37.6620   28.5950   51.2710 H   0  0  0  0  0  0  0  0  0  0  0  0
   38.4840   30.9160   51.4230 H   0  0  0  0  0  0  0  0  0  0  0  0
   37.5800   32.5970   49.7740 H   0  0  0  0  0  0  0  0  0  0  0  0
   31.4230   26.9200   45.8130 O   0  0  0  0  0  0  0  0  0  0  0  0
   29.8790   28.6830   44.0310 Cl  0  0  0  0  0  0  0  0  0  0  0  0
   29.3610   27.8970   45.5010 C   0  0  0  0  0  0  0  0  0  0  0  0
   30.1780   27.0790   46.2500 C   0  0  0  0  0  0  0  0  0  0  0  0
   29.6400   26.4850   47.3950 C   0  0  0  0  0  0  0  0  0  0  0  0
   28.3320   26.7150   47.7590 C   0  0  0  0  0  0  0  0  0  0  0  0
   27.5020   27.5350   47.0140 C   0  0  0  0  0  0  0  0  0  0  0  0
   28.0310   28.1310   45.8690 C   0  0  0  0  0  0  0  0  0  0  0  0
   30.2030   25.8300   48.0370 H   0  0  0  0  0  0  0  0  0  0  0  0
   27.8770   26.2850   48.6250 H   0  0  0  0  0  0  0  0  0  0  0  0
   26.4810   27.7270   47.2790 H   0  0  0  0  0  0  0  0  0  0  0  0
   27.1550   29.0060   45.0680 C   0  0  0  0  0  2  0  0  0  0  0  0
   25.9990   28.1790   44.4960 C   0  0  0  0  0  2  0  0  0  0  0  0
   26.1840   27.9840   43.4150 H   0  0  0  0  0  0  0  0  0  0  0  0
  1  6  1  1  0  0  0
  1  2  1  0  0  0  0
  2  7  1  1  0  0  0
  3  2  1  0  0  0  0
  4  8  1  0  0  0  0
  4  3  1  0  0  0  0
  5 10  1  6  0  0  0
  5  4  1  0  0  0  0
  5  1  1  0  0  0  0
  9  4  1  0  0  0  0
 11  1  1  0  0  0  0
 12 11  1  0  0  0  0
 13  2  1  0  0  0  0
 13 18  1  0  0  0  0
 14 15  1  0  0  0  0
 14 20  1  0  0  0  0
 15 21  1  0  0  0  0
 16 15  2  0  0  0  0
 17 16  1  0  0  0  0
 18 17  2  0  0  0  0
 18 19  1  0  0  0  0
 19 14  2  0  0  0  0
 22 16  1  0  0  0  0
 23 26  1  0  0  0  0
 23  5  1  0  0  0  0
 24 25  1  0  0  0  0
 25 30  2  0  0  0  0
 25 26  1  0  0  0  0
 26 27  2  0  0  0  0
 27 28  1  0  0  0  0
 27 31  1  0  0  0  0
 28 32  1  0  0  0  0
 29 33  1  0  0  0  0
 29 28  2  0  0  0  0
 30 29  1  0  0  0  0
 34 30  1  0  0  0  0
 35 34  1  0  0  0  0
 36 35  1  0  0  0  0
M  END
>  <minimizedAffinity>
-4.67671013

>  <minimizedRMSD>
0.249426037

$$$$
