
 OpenBabel03262520093D

 22 23  0  0  0  0  0  0  0  0999 V2000
   38.2710   31.8150   49.0400 Br  0  0  0  0  0  0  0  0  0  0  0  0
   36.9940   31.0260   47.8570 C   0  0  0  0  0  0  0  0  0  0  0  0
   37.2370   30.9470   46.4960 C   0  0  0  0  0  0  0  0  0  0  0  0
   36.2850   30.3620   45.7060 C   0  0  0  0  0  0  0  0  0  0  0  0
   35.0950   29.8470   46.1870 C   0  0  0  0  0  0  0  0  0  0  0  0
   34.8780   29.9380   47.5500 C   0  0  0  0  0  0  0  0  0  0  0  0
   35.8400   30.5330   48.3740 C   0  0  0  0  0  0  0  0  0  0  0  0
   36.5270   30.3260   44.6390 H   0  0  0  0  0  0  0  0  0  0  0  0
   34.3760   29.3920   45.5120 H   0  0  0  0  0  0  0  0  0  0  0  0
   33.9620   29.5450   47.9480 H   0  0  0  0  0  0  0  0  0  0  0  0
   39.5530   33.1930   44.7920 C   0  0  0  0  0  0  0  0  0  0  0  0
   40.7940   32.5260   44.8400 C   0  0  0  0  0  0  0  0  0  0  0  0
   40.8100   31.2880   45.4740 C   0  0  0  0  0  0  0  0  0  0  0  0
   39.6520   30.7880   46.0090 N   0  0  0  0  0  0  0  0  0  0  0  0
   38.4810   31.4790   45.9320 C   0  0  0  0  0  0  0  0  0  0  0  0
   38.4350   32.6860   45.3200 N   0  0  0  0  0  0  0  0  0  0  0  0
   39.6260   34.1370   44.2880 H   0  0  0  0  0  0  0  0  0  0  0  0
   41.7570   32.8040   44.4680 H   0  0  0  0  0  0  0  0  0  0  0  0
   41.5970   30.5790   45.6520 H   0  0  0  0  0  0  0  0  0  0  0  0
   35.4860   30.5730   49.8330 C   0  0  0  0  0  0  0  0  0  0  0  0
   34.6400   29.3870   50.2430 C   0  0  0  0  0  0  0  0  0  0  0  0
   33.9060   29.7470   50.9910 H   0  0  0  0  0  0  0  0  0  0  0  0
  2  7  1  0  0  0  0
  2  1  1  0  0  0  0
  3  2  2  0  0  0  0
  4  5  2  0  0  0  0
  4  3  1  0  0  0  0
  5  6  1  0  0  0  0
  6 10  1  0  0  0  0
  6  7  2  0  0  0  0
  7 20  1  0  0  0  0
  8  4  1  0  0  0  0
  9  5  1  0  0  0  0
 11 12  2  0  0  0  0
 11 16  1  0  0  0  0
 12 13  1  0  0  0  0
 13 19  1  0  0  0  0
 13 14  2  0  0  0  0
 15 14  1  0  0  0  0
 15  3  1  0  0  0  0
 16 15  2  0  0  0  0
 17 11  1  0  0  0  0
 18 12  1  0  0  0  0
 20 21  1  0  0  0  0
 21 22  1  0  0  0  0
M  END
>  <minimizedAffinity>
-5.36696148

>  <minimizedRMSD>
3.12443995

$$$$
