
 OpenBabel03272506463D

 36 38  0  0  1  0  0  0  0  0999 V2000
   32.1570   28.5350   47.4330 C   0  0  2  0  0  0  0  0  0  0  0  0
   33.4100   28.3410   48.2400 C   0  0  1  0  0  0  0  0  0  0  0  0
   33.7880   27.0380   48.1220 O   0  0  0  0  0  0  0  0  0  0  0  0
   33.0710   26.4390   47.0900 C   0  0  0  0  0  0  0  0  0  0  0  0
   32.4660   27.5480   46.2650 C   0  0  1  0  0  0  0  0  0  0  0  0
   31.2370   28.2190   47.9090 H   0  0  0  0  0  0  0  0  0  0  0  0
   33.2560   28.6570   49.3020 H   0  0  0  0  0  0  0  0  0  0  0  0
   32.3810   25.7430   47.5370 H   0  0  0  0  0  0  0  0  0  0  0  0
   33.8520   25.9190   46.4640 H   0  0  0  0  0  0  0  0  0  0  0  0
   33.1510   28.0490   45.5890 H   0  0  0  0  0  0  0  0  0  0  0  0
   32.0960   29.8440   46.9110 O   0  0  0  0  0  0  0  0  0  0  0  0
   32.4070   29.8480   45.9750 H   0  0  0  0  0  0  0  0  0  0  0  0
   34.7230   29.3810   47.4730 S   0  0  0  0  0  0  0  0  0  0  0  0
   37.1180   29.2960   50.6260 C   0  0  0  0  0  0  0  0  0  0  0  0
   37.6310   30.5940   50.7420 C   0  0  0  0  0  0  0  0  0  0  0  0
   37.2050   31.5230   49.7960 C   0  0  0  0  0  0  0  0  0  0  0  0
   36.3360   31.1380   48.8280 N   0  0  0  0  0  0  0  0  0  0  0  0
   35.8710   29.8680   48.7630 C   0  0  0  0  0  0  0  0  0  0  0  0
   36.2580   28.9340   49.6620 N   0  0  0  0  0  0  0  0  0  0  0  0
   37.4700   28.5900   51.3820 H   0  0  0  0  0  0  0  0  0  0  0  0
   38.3230   30.9020   51.5130 H   0  0  0  0  0  0  0  0  0  0  0  0
   37.5280   32.5510   49.7790 H   0  0  0  0  0  0  0  0  0  0  0  0
   31.3080   27.0870   45.6850 O   0  0  0  0  0  0  0  0  0  0  0  0
   29.8210   29.2320   44.3230 Cl  0  0  0  0  0  0  0  0  0  0  0  0
   29.2910   28.1960   45.6250 C   0  0  0  0  0  0  0  0  0  0  0  0
   30.0810   27.2120   46.1770 C   0  0  0  0  0  0  0  0  0  0  0  0
   29.5350   26.4300   47.1980 C   0  0  0  0  0  0  0  0  0  0  0  0
   28.2460   26.6410   47.6350 C   0  0  0  0  0  0  0  0  0  0  0  0
   27.4440   27.6270   47.0870 C   0  0  0  0  0  0  0  0  0  0  0  0
   27.9810   28.4130   46.0670 C   0  0  0  0  0  0  0  0  0  0  0  0
   30.0760   25.6370   47.6850 H   0  0  0  0  0  0  0  0  0  0  0  0
   27.7860   26.0700   48.4130 H   0  0  0  0  0  0  0  0  0  0  0  0
   26.4380   27.8080   47.4120 H   0  0  0  0  0  0  0  0  0  0  0  0
   27.1340   29.4650   45.4760 C   0  0  0  0  0  2  0  0  0  0  0  0
   27.0140   30.6310   46.4620 C   0  0  0  0  0  2  0  0  0  0  0  0
   26.0110   30.6040   46.9440 H   0  0  0  0  0  0  0  0  0  0  0  0
  1  6  1  1  0  0  0
  1  2  1  0  0  0  0
  2  7  1  1  0  0  0
  3  2  1  0  0  0  0
  4  8  1  0  0  0  0
  4  3  1  0  0  0  0
  5 10  1  6  0  0  0
  5  4  1  0  0  0  0
  5  1  1  0  0  0  0
  9  4  1  0  0  0  0
 11  1  1  0  0  0  0
 12 11  1  0  0  0  0
 13  2  1  0  0  0  0
 13 18  1  0  0  0  0
 14 15  1  0  0  0  0
 14 20  1  0  0  0  0
 15 21  1  0  0  0  0
 16 15  2  0  0  0  0
 17 16  1  0  0  0  0
 18 17  2  0  0  0  0
 18 19  1  0  0  0  0
 19 14  2  0  0  0  0
 22 16  1  0  0  0  0
 23 26  1  0  0  0  0
 23  5  1  0  0  0  0
 24 25  1  0  0  0  0
 25 30  2  0  0  0  0
 25 26  1  0  0  0  0
 26 27  2  0  0  0  0
 27 28  1  0  0  0  0
 27 31  1  0  0  0  0
 28 32  1  0  0  0  0
 29 33  1  0  0  0  0
 29 28  2  0  0  0  0
 30 29  1  0  0  0  0
 34 30  1  0  0  0  0
 34 35  1  0  0  0  0
 35 36  1  0  0  0  0
M  END
>  <minimizedAffinity>
-4.66716576

>  <minimizedRMSD>
0.134015068

$$$$
