
 OpenBabel03272506473D

 36 38  0  0  1  0  0  0  0  0999 V2000
   32.1620   28.4310   47.4510 C   0  0  2  0  0  0  0  0  0  0  0  0
   33.4200   28.3040   48.2660 C   0  0  1  0  0  0  0  0  0  0  0  0
   33.8730   27.0260   48.1430 O   0  0  0  0  0  0  0  0  0  0  0  0
   33.1980   26.3930   47.1030 C   0  0  0  0  0  0  0  0  0  0  0  0
   32.5350   27.4700   46.2800 C   0  0  1  0  0  0  0  0  0  0  0  0
   31.2590   28.0590   47.9200 H   0  0  0  0  0  0  0  0  0  0  0  0
   33.2420   28.6050   49.3280 H   0  0  0  0  0  0  0  0  0  0  0  0
   32.5470   25.6550   47.5410 H   0  0  0  0  0  0  0  0  0  0  0  0
   34.0120   25.9230   46.4790 H   0  0  0  0  0  0  0  0  0  0  0  0
   33.1940   28.0140   45.6110 H   0  0  0  0  0  0  0  0  0  0  0  0
   32.0290   29.7360   46.9360 O   0  0  0  0  0  0  0  0  0  0  0  0
   32.3450   29.7640   46.0020 H   0  0  0  0  0  0  0  0  0  0  0  0
   34.6750   29.4240   47.5130 S   0  0  0  0  0  0  0  0  0  0  0  0
   37.1330   29.2870   50.6140 C   0  0  0  0  0  0  0  0  0  0  0  0
   37.6310   30.5880   50.7550 C   0  0  0  0  0  0  0  0  0  0  0  0
   37.1740   31.5360   49.8440 C   0  0  0  0  0  0  0  0  0  0  0  0
   36.2900   31.1660   48.8830 N   0  0  0  0  0  0  0  0  0  0  0  0
   35.8410   29.8920   48.7920 C   0  0  0  0  0  0  0  0  0  0  0  0
   36.2590   28.9390   49.6570 N   0  0  0  0  0  0  0  0  0  0  0  0
   37.5100   28.5660   51.3440 H   0  0  0  0  0  0  0  0  0  0  0  0
   38.3340   30.8850   51.5210 H   0  0  0  0  0  0  0  0  0  0  0  0
   37.4820   32.5690   49.8480 H   0  0  0  0  0  0  0  0  0  0  0  0
   31.4100   26.9460   45.6900 O   0  0  0  0  0  0  0  0  0  0  0  0
   29.8640   28.8160   44.0210 Cl  0  0  0  0  0  0  0  0  0  0  0  0
   29.3450   27.9320   45.4350 C   0  0  0  0  0  0  0  0  0  0  0  0
   30.1620   27.0710   46.1320 C   0  0  0  0  0  0  0  0  0  0  0  0
   29.6230   26.4010   47.2330 C   0  0  0  0  0  0  0  0  0  0  0  0
   28.3130   26.6010   47.6060 C   0  0  0  0  0  0  0  0  0  0  0  0
   27.4820   27.4640   46.9140 C   0  0  0  0  0  0  0  0  0  0  0  0
   28.0120   28.1360   45.8120 C   0  0  0  0  0  0  0  0  0  0  0  0
   30.1860   25.7070   47.8330 H   0  0  0  0  0  0  0  0  0  0  0  0
   27.8570   26.1130   48.4410 H   0  0  0  0  0  0  0  0  0  0  0  0
   26.4590   27.6340   47.1870 H   0  0  0  0  0  0  0  0  0  0  0  0
   27.1350   29.0580   45.0670 C   0  0  0  0  0  2  0  0  0  0  0  0
   25.9780   28.2670   44.4490 C   0  0  0  0  0  2  0  0  0  0  0  0
   26.1600   28.1380   43.3580 H   0  0  0  0  0  0  0  0  0  0  0  0
  1  6  1  1  0  0  0
  1  2  1  0  0  0  0
  2  7  1  1  0  0  0
  3  2  1  0  0  0  0
  4  8  1  0  0  0  0
  4  3  1  0  0  0  0
  5 10  1  6  0  0  0
  5  4  1  0  0  0  0
  5  1  1  0  0  0  0
  9  4  1  0  0  0  0
 11  1  1  0  0  0  0
 12 11  1  0  0  0  0
 13  2  1  0  0  0  0
 13 18  1  0  0  0  0
 14 15  1  0  0  0  0
 14 20  1  0  0  0  0
 15 21  1  0  0  0  0
 16 22  1  0  0  0  0
 16 15  2  0  0  0  0
 17 16  1  0  0  0  0
 18 17  2  0  0  0  0
 18 19  1  0  0  0  0
 19 14  2  0  0  0  0
 23 26  1  0  0  0  0
 23  5  1  0  0  0  0
 24 25  1  0  0  0  0
 25 30  2  0  0  0  0
 25 26  1  0  0  0  0
 26 27  2  0  0  0  0
 27 28  1  0  0  0  0
 27 31  1  0  0  0  0
 28 32  1  0  0  0  0
 29 33  1  0  0  0  0
 29 28  2  0  0  0  0
 30 29  1  0  0  0  0
 34 30  1  0  0  0  0
 35 34  1  0  0  0  0
 36 35  1  0  0  0  0
M  END
>  <minimizedAffinity>
-4.65780449

>  <minimizedRMSD>
0.344036639

$$$$
