
 OpenBabel03272504243D

 33 35  0  0  0  0  0  0  0  0999 V2000
   35.4790   30.0170   48.3970 C   0  0  0  0  0  0  0  0  0  0  0  0
   35.4870   28.8380   49.0580 C   0  0  0  0  0  0  0  0  0  0  0  0
   34.5050   27.9400   48.9090 C   0  0  0  0  0  0  0  0  0  0  0  0
   33.4880   28.2510   48.0610 N   0  0  0  0  0  0  0  0  0  0  0  0
   33.4760   29.3920   47.4170 C   0  0  0  0  0  0  0  0  0  0  0  0
   34.4610   30.2970   47.5680 N   0  0  0  0  0  0  0  0  0  0  0  0
   36.2970   28.5920   49.7310 H   0  0  0  0  0  0  0  0  0  0  0  0
   34.5430   26.9910   49.4610 H   0  0  0  0  0  0  0  0  0  0  0  0
   31.2810   28.7340   46.5900 C   0  0  0  0  0  0  0  0  0  0  0  0
   32.3750   29.5980   46.4960 C   0  0  0  0  0  0  0  0  0  0  0  0
   32.4970   30.5990   45.5590 C   0  0  0  0  0  0  0  0  0  0  0  0
   31.4900   30.7880   44.6380 C   0  0  0  0  0  0  0  0  0  0  0  0
   30.3720   29.9960   44.6480 C   0  0  0  0  0  0  0  0  0  0  0  0
   30.3450   29.0380   45.6090 C   0  0  0  0  0  0  0  0  0  0  0  0
   33.4000   31.2290   45.5660 H   0  0  0  0  0  0  0  0  0  0  0  0
   31.6520   31.5720   43.9460 H   0  0  0  0  0  0  0  0  0  0  0  0
   29.5710   30.1240   43.9400 H   0  0  0  0  0  0  0  0  0  0  0  0
   29.4390   28.4030   45.6120 H   0  0  0  0  0  0  0  0  0  0  0  0
   31.0570   27.5240   47.7130 S   0  0  0  0  0  0  0  0  0  0  0  0
   29.8680   26.8080   46.9920 O   0  0  0  0  0  0  0  0  0  0  0  0
   30.5510   28.1050   48.9980 O   0  0  0  0  0  0  0  0  0  0  0  0
   31.4530   26.0580   48.2520 C   0  0  0  0  0  0  0  0  0  0  0  0
   31.8900   25.1320   47.0550 C   0  0  0  0  0  0  0  0  0  0  0  0
   31.1160   25.0840   46.2960 H   0  0  0  0  0  0  0  0  0  0  0  0
   37.6900   32.6120   49.7520 C   0  0  0  0  0  0  0  0  0  0  0  0
   38.5640   32.8640   48.6590 C   0  0  0  0  0  0  0  0  0  0  0  0
   38.3650   32.1340   47.4860 C   0  0  0  0  0  0  0  0  0  0  0  0
   37.3530   31.2280   47.4590 N   0  0  0  0  0  0  0  0  0  0  0  0
   36.5360   31.0110   48.5210 C   0  0  0  0  0  0  0  0  0  0  0  0
   36.7100   31.7040   49.6580 N   0  0  0  0  0  0  0  0  0  0  0  0
   37.8820   33.1970   50.6300 H   0  0  0  0  0  0  0  0  0  0  0  0
   39.3660   33.5630   48.6410 H   0  0  0  0  0  0  0  0  0  0  0  0
   38.9570   32.2300   46.5890 H   0  0  0  0  0  0  0  0  0  0  0  0
  1 29  1  0  0  0  0
  1  2  1  0  0  0  0
  2  7  1  0  0  0  0
  3  2  2  0  0  0  0
  3  8  1  0  0  0  0
  4  3  1  0  0  0  0
  5  6  1  0  0  0  0
  5  4  2  0  0  0  0
  6  1  2  0  0  0  0
  9 19  1  0  0  0  0
 10  9  1  0  0  0  0
 10  5  1  0  0  0  0
 11 15  1  0  0  0  0
 11 10  2  0  0  0  0
 12 13  2  0  0  0  0
 12 11  1  0  0  0  0
 13 14  1  0  0  0  0
 14 18  1  0  0  0  0
 14  9  2  0  0  0  0
 16 12  1  0  0  0  0
 17 13  1  0  0  0  0
 19 22  1  0  0  0  0
 19 21  2  0  0  0  0
 20 19  2  0  0  0  0
 23 22  1  0  0  0  0
 24 23  1  0  0  0  0
 25 31  1  0  0  0  0
 26 25  2  0  0  0  0
 27 26  1  0  0  0  0
 28 27  2  0  0  0  0
 28 29  1  0  0  0  0
 29 30  2  0  0  0  0
 30 25  1  0  0  0  0
 32 26  1  0  0  0  0
 33 27  1  0  0  0  0
M  END
>  <minimizedAffinity>
-4.96331453

>  <minimizedRMSD>
1.09564471

$$$$
