
 OpenBabel03272509413D

 32 33  0  0  1  0  0  0  0  0999 V2000
   37.0870   30.9400   49.0490 C   0  0  0  0  0  0  0  0  0  0  0  0
   36.8090   31.8670   50.0550 C   0  0  0  0  0  0  0  0  0  0  0  0
   37.4020   33.1200   50.0770 C   0  0  0  0  0  0  0  0  0  0  0  0
   38.3040   33.4730   49.0720 C   0  0  0  0  0  0  0  0  0  0  0  0
   38.5670   32.5560   48.0960 C   0  0  0  0  0  0  0  0  0  0  0  0
   37.9560   31.3100   48.1020 C   0  0  0  0  0  0  0  0  0  0  0  0
   36.1120   31.6050   50.8360 H   0  0  0  0  0  0  0  0  0  0  0  0
   37.1370   33.7740   50.8810 H   0  0  0  0  0  0  0  0  0  0  0  0
   38.7110   34.4560   49.1710 H   0  0  0  0  0  0  0  0  0  0  0  0
   39.2880   32.9710   47.3870 H   0  0  0  0  0  0  0  0  0  0  0  0
   36.4940   29.6210   49.0400 C   0  0  2  0  0  0  0  0  0  0  0  0
   36.9880   29.0710   48.1500 H   0  0  0  0  0  0  0  0  0  0  0  0
   33.6250   29.9730   46.8380 C   0  0  0  0  0  0  0  0  0  0  0  0
   32.8840   28.8290   47.0670 C   0  0  0  0  0  0  0  0  0  0  0  0
   33.3310   27.9470   48.0320 C   0  0  0  0  0  0  0  0  0  0  0  0
   34.4870   28.2330   48.7240 N   0  0  0  0  0  0  0  0  0  0  0  0
   35.1500   29.3400   48.4590 C   0  0  0  0  0  0  0  0  0  0  0  0
   34.7270   30.2170   47.5200 N   0  0  0  0  0  0  0  0  0  0  0  0
   33.2970   30.6820   46.0890 H   0  0  0  0  0  0  0  0  0  0  0  0
   31.9900   28.6640   46.4900 H   0  0  0  0  0  0  0  0  0  0  0  0
   32.7670   27.0360   48.2350 H   0  0  0  0  0  0  0  0  0  0  0  0
   36.9620   28.8630   49.9680 O   0  0  0  0  0  0  0  0  0  0  0  0
   37.1600   29.1950   50.8770 H   0  0  0  0  0  0  0  0  0  0  0  0
   38.3500   30.4300   47.0250 C   0  0  0  0  0  3  0  0  0  0  0  0
   38.7560   30.8530   45.8240 C   0  0  0  0  0  3  0  0  0  0  0  0
   39.2190   30.0450   44.6720 C   0  0  0  0  0  0  0  0  0  0  0  0
   38.3300   29.8590   44.0060 H   0  0  0  0  0  0  0  0  0  0  0  0
   39.5630   29.0290   44.9520 H   0  0  0  0  0  0  0  0  0  0  0  0
   40.4580   30.9600   43.7510 S   0  0  0  0  0  0  0  0  0  0  0  0
   39.8230   31.7630   42.2770 C   0  0  0  0  0  2  0  0  0  0  0  0
   39.0590   32.9990   42.6380 C   0  0  0  0  0  2  0  0  0  0  0  0
   38.1790   32.7550   43.2380 H   0  0  0  0  0  0  0  0  0  0  0  0
  1  2  1  0  0  0  0
  2  3  2  0  0  0  0
  2  7  1  0  0  0  0
  3  8  1  0  0  0  0
  4  9  1  0  0  0  0
  4  3  1  0  0  0  0
  5  6  1  0  0  0  0
  5  4  2  0  0  0  0
  6  1  2  0  0  0  0
 10  5  1  0  0  0  0
 11 12  1  6  0  0  0
 11  1  1  0  0  0  0
 11 22  1  0  0  0  0
 13 14  2  0  0  0  0
 13 18  1  0  0  0  0
 14 15  1  0  0  0  0
 15 21  1  0  0  0  0
 15 16  2  0  0  0  0
 17 16  1  0  0  0  0
 17 11  1  0  0  0  0
 18 17  2  0  0  0  0
 19 13  1  0  0  0  0
 20 14  1  0  0  0  0
 22 23  1  0  0  0  0
 24  6  1  0  0  0  0
 25 24  2  0  0  0  0
 26 28  1  0  0  0  0
 26 25  1  0  0  0  0
 27 26  1  0  0  0  0
 29 26  1  0  0  0  0
 30 31  1  0  0  0  0
 30 29  1  0  0  0  0
 31 32  1  0  0  0  0
M  END
>  <minimizedAffinity>
-5.38269091

>  <minimizedRMSD>
1.07881665

$$$$
