
 OpenBabel03272510113D

 29 31  0  0  0  0  0  0  0  0999 V2000
   34.0260   28.8240   48.2970 C   0  0  0  0  0  0  0  0  0  0  0  0
   34.6450   28.3760   49.4190 C   0  0  0  0  0  0  0  0  0  0  0  0
   35.8790   28.7990   49.8620 C   0  0  0  0  0  0  0  0  0  0  0  0
   36.5700   29.7370   49.1550 C   0  0  0  0  0  0  0  0  0  0  0  0
   35.9420   30.2090   47.9940 C   0  0  0  0  0  0  0  0  0  0  0  0
   34.7330   29.7650   47.6010 N   0  0  0  0  0  0  0  0  0  0  0  0
   34.1670   27.6300   50.0400 H   0  0  0  0  0  0  0  0  0  0  0  0
   36.3650   28.4360   50.7560 H   0  0  0  0  0  0  0  0  0  0  0  0
   36.3860   30.9540   47.3480 H   0  0  0  0  0  0  0  0  0  0  0  0
   31.9220   27.5180   48.5600 C   0  0  0  0  0  0  0  0  0  0  0  0
   32.7480   28.3860   47.8300 C   0  0  0  0  0  0  0  0  0  0  0  0
   32.2810   28.8040   46.6140 C   0  0  0  0  0  0  0  0  0  0  0  0
   31.0600   28.3730   46.1670 N   0  0  0  0  0  0  0  0  0  0  0  0
   30.3000   27.5280   46.9210 C   0  0  0  0  0  0  0  0  0  0  0  0
   30.7210   27.0890   48.1300 N   0  0  0  0  0  0  0  0  0  0  0  0
   32.2450   27.1590   49.5280 H   0  0  0  0  0  0  0  0  0  0  0  0
   32.8680   29.4700   46.0070 H   0  0  0  0  0  0  0  0  0  0  0  0
   29.3550   27.2740   46.4320 H   0  0  0  0  0  0  0  0  0  0  0  0
   37.8170   30.2790   49.4460 O   0  0  0  0  0  0  0  0  0  0  0  0
   38.3860   31.2740   48.6740 C   0  0  0  0  0  0  0  0  0  0  0  0
   38.4380   32.5170   49.3030 C   0  0  0  0  0  0  0  0  0  0  0  0
   39.0290   33.4060   48.4080 C   0  0  0  0  0  0  0  0  0  0  0  0
   39.3080   32.7030   47.3010 N   0  0  0  0  0  0  0  0  0  0  0  0
   38.9320   31.4580   47.4580 N   0  0  0  0  0  0  0  0  0  0  0  0
   38.1390   32.9170   50.2750 H   0  0  0  0  0  0  0  0  0  0  0  0
   39.2500   34.4670   48.5200 H   0  0  0  0  0  0  0  0  0  0  0  0
   39.9340   33.2400   46.1090 C   0  0  0  0  0  2  0  0  0  0  0  0
   39.1000   32.7970   44.9270 C   0  0  0  0  0  2  0  0  0  0  0  0
   39.5970   31.9570   44.4230 H   0  0  0  0  0  0  0  0  0  0  0  0
  1  2  1  0  0  0  0
  2  3  2  0  0  0  0
  2  7  1  0  0  0  0
  3  8  1  0  0  0  0
  4 19  1  0  0  0  0
  4  3  1  0  0  0  0
  5  4  2  0  0  0  0
  6  5  1  0  0  0  0
  6  1  2  0  0  0  0
  9  5  1  0  0  0  0
 10 16  1  0  0  0  0
 11  1  1  0  0  0  0
 11 10  2  0  0  0  0
 12 11  1  0  0  0  0
 13 12  2  0  0  0  0
 13 14  1  0  0  0  0
 14 15  2  0  0  0  0
 15 10  1  0  0  0  0
 17 12  1  0  0  0  0
 18 14  1  0  0  0  0
 20 21  1  0  0  0  0
 20 19  1  0  0  0  0
 21 25  1  0  0  0  0
 22 26  1  0  0  0  0
 22 21  2  0  0  0  0
 23 24  1  0  0  0  0
 23 22  1  0  0  0  0
 24 20  2  0  0  0  0
 27 23  1  0  0  0  0
 28 27  1  0  0  0  0
 29 28  1  0  0  0  0
M  END
>  <minimizedAffinity>
-5.40148497

>  <minimizedRMSD>
0.624778509

$$$$
