
 OpenBabel03272500453D

 19 20  0  0  0  0  0  0  0  0999 V2000
   38.5960   24.5610   36.1630 C   0  0  0  0  0  0  0  0  0  0  0  0
   38.0390   24.3270   37.4320 C   0  0  0  0  0  0  0  0  0  0  0  0
   38.8040   23.3380   38.0600 C   0  0  0  0  0  0  0  0  0  0  0  0
   39.7850   23.0080   37.1660 N   0  0  0  0  0  0  0  0  0  0  0  0
   39.6320   23.7400   36.0740 N   0  0  0  0  0  0  0  0  0  0  0  0
   37.1790   24.8030   37.8810 H   0  0  0  0  0  0  0  0  0  0  0  0
   38.6220   22.9460   39.0490 H   0  0  0  0  0  0  0  0  0  0  0  0
   37.7230   25.2460   33.9210 C   0  0  0  0  0  0  0  0  0  0  0  0
   38.0480   25.5270   35.2460 C   0  0  0  0  0  0  0  0  0  0  0  0
   37.8180   26.8390   35.6980 C   0  0  0  0  0  0  0  0  0  0  0  0
   37.2990   27.7520   34.8250 N   0  0  0  0  0  0  0  0  0  0  0  0
   37.0030   27.4230   33.5470 C   0  0  0  0  0  0  0  0  0  0  0  0
   37.2140   26.1740   33.0970 N   0  0  0  0  0  0  0  0  0  0  0  0
   37.8890   24.2470   33.5490 H   0  0  0  0  0  0  0  0  0  0  0  0
   38.0640   27.0840   36.7280 H   0  0  0  0  0  0  0  0  0  0  0  0
   36.6010   28.2940   33.0240 H   0  0  0  0  0  0  0  0  0  0  0  0
   40.7770   22.0010   37.4810 C   0  0  0  0  0  2  0  0  0  0  0  0
   42.0640   22.2250   36.7120 C   0  0  0  0  0  2  0  0  0  0  0  0
   42.4530   23.2290   37.0520 H   0  0  0  0  0  0  0  0  0  0  0  0
  1  2  1  0  0  0  0
  2  6  1  0  0  0  0
  2  3  2  0  0  0  0
  3  7  1  0  0  0  0
  4 17  1  0  0  0  0
  4  3  1  0  0  0  0
  5  1  2  0  0  0  0
  5  4  1  0  0  0  0
  8  9  1  0  0  0  0
  9 10  2  0  0  0  0
  9  1  1  0  0  0  0
 10 15  1  0  0  0  0
 11 10  1  0  0  0  0
 12 11  2  0  0  0  0
 13 12  1  0  0  0  0
 13  8  2  0  0  0  0
 14  8  1  0  0  0  0
 16 12  1  0  0  0  0
 18 19  1  0  0  0  0
 18 17  1  0  0  0  0
M  END
>  <minimizedAffinity>
-3.83287644

$$$$

 OpenBabel03272500453D

 19 20  0  0  0  0  0  0  0  0999 V2000
   38.4700   24.5760   36.0030 C   0  0  0  0  0  0  0  0  0  0  0  0
   37.8510   24.3260   37.2390 C   0  0  0  0  0  0  0  0  0  0  0  0
   38.6320   23.3920   37.9290 C   0  0  0  0  0  0  0  0  0  0  0  0
   39.6850   23.1090   37.1010 N   0  0  0  0  0  0  0  0  0  0  0  0
   39.5560   23.8170   35.9900 N   0  0  0  0  0  0  0  0  0  0  0  0
   36.9380   24.7560   37.6270 H   0  0  0  0  0  0  0  0  0  0  0  0
   38.4120   23.0030   38.9110 H   0  0  0  0  0  0  0  0  0  0  0  0
   37.5310   26.7980   35.3380 C   0  0  0  0  0  0  0  0  0  0  0  0
   37.9250   25.4960   35.0380 C   0  0  0  0  0  0  0  0  0  0  0  0
   37.7730   25.0720   33.7050 C   0  0  0  0  0  0  0  0  0  0  0  0
   37.2550   25.9470   32.7930 N   0  0  0  0  0  0  0  0  0  0  0  0
   36.8880   27.2020   33.1430 C   0  0  0  0  0  0  0  0  0  0  0  0
   37.0270   27.6250   34.4110 N   0  0  0  0  0  0  0  0  0  0  0  0
   37.6370   27.1480   36.3530 H   0  0  0  0  0  0  0  0  0  0  0  0
   38.0720   24.0600   33.4440 H   0  0  0  0  0  0  0  0  0  0  0  0
   36.5020   27.7310   32.2690 H   0  0  0  0  0  0  0  0  0  0  0  0
   40.7120   22.1670   37.4930 C   0  0  0  0  0  2  0  0  0  0  0  0
   41.9920   22.3800   36.7100 C   0  0  0  0  0  2  0  0  0  0  0  0
   42.3420   23.4210   36.9720 H   0  0  0  0  0  0  0  0  0  0  0  0
  1  2  1  0  0  0  0
  2  6  1  0  0  0  0
  2  3  2  0  0  0  0
  3  7  1  0  0  0  0
  4 17  1  0  0  0  0
  4  3  1  0  0  0  0
  5  1  2  0  0  0  0
  5  4  1  0  0  0  0
  8 14  1  0  0  0  0
  9  8  1  0  0  0  0
  9  1  1  0  0  0  0
 10  9  2  0  0  0  0
 11 12  2  0  0  0  0
 11 10  1  0  0  0  0
 12 13  1  0  0  0  0
 13  8  2  0  0  0  0
 15 10  1  0  0  0  0
 16 12  1  0  0  0  0
 18 19  1  0  0  0  0
 18 17  1  0  0  0  0
M  END
>  <minimizedAffinity>
-3.81642151

$$$$

 OpenBabel03272500453D

 19 20  0  0  0  0  0  0  0  0999 V2000
   38.2400   25.4830   35.3360 C   0  0  0  0  0  0  0  0  0  0  0  0
   38.0290   26.7910   35.8050 C   0  0  0  0  0  0  0  0  0  0  0  0
   37.3630   27.5040   34.8020 C   0  0  0  0  0  0  0  0  0  0  0  0
   37.1940   26.6190   33.7720 N   0  0  0  0  0  0  0  0  0  0  0  0
   37.7160   25.4540   34.1200 N   0  0  0  0  0  0  0  0  0  0  0  0
   38.3120   27.2110   36.7600 H   0  0  0  0  0  0  0  0  0  0  0  0
   37.0630   28.5380   34.8700 H   0  0  0  0  0  0  0  0  0  0  0  0
   40.0580   23.8080   35.7220 C   0  0  0  0  0  0  0  0  0  0  0  0
   38.9050   24.4780   36.1250 C   0  0  0  0  0  0  0  0  0  0  0  0
   38.3740   24.1400   37.3830 C   0  0  0  0  0  0  0  0  0  0  0  0
   39.0080   23.1870   38.1280 N   0  0  0  0  0  0  0  0  0  0  0  0
   40.1260   22.5670   37.6850 C   0  0  0  0  0  0  0  0  0  0  0  0
   40.6480   22.8770   36.4860 N   0  0  0  0  0  0  0  0  0  0  0  0
   40.4850   24.0480   34.7620 H   0  0  0  0  0  0  0  0  0  0  0  0
   37.4750   24.6490   37.7210 H   0  0  0  0  0  0  0  0  0  0  0  0
   40.4680   21.8450   38.4300 H   0  0  0  0  0  0  0  0  0  0  0  0
   36.5320   27.0150   32.5460 C   0  0  0  0  0  2  0  0  0  0  0  0
   36.5510   28.5190   32.3620 C   0  0  0  0  0  2  0  0  0  0  0  0
   37.6410   28.8040   32.2880 H   0  0  0  0  0  0  0  0  0  0  0  0
  1  2  1  0  0  0  0
  1  9  1  0  0  0  0
  2  6  1  0  0  0  0
  3  7  1  0  0  0  0
  3  2  2  0  0  0  0
  4  5  1  0  0  0  0
  4  3  1  0  0  0  0
  5  1  2  0  0  0  0
  8  9  2  0  0  0  0
  8 13  1  0  0  0  0
  9 10  1  0  0  0  0
 10 15  1  0  0  0  0
 10 11  2  0  0  0  0
 12 11  1  0  0  0  0
 12 16  1  0  0  0  0
 13 12  2  0  0  0  0
 14  8  1  0  0  0  0
 17  4  1  0  0  0  0
 18 17  1  0  0  0  0
 19 18  1  0  0  0  0
M  END
>  <minimizedAffinity>
-3.7646873

$$$$

 OpenBabel03272500453D

 19 20  0  0  0  0  0  0  0  0999 V2000
   37.9040   25.2780   34.8370 C   0  0  0  0  0  0  0  0  0  0  0  0
   37.4750   26.5990   35.0500 C   0  0  0  0  0  0  0  0  0  0  0  0
   36.9720   27.0870   33.8380 C   0  0  0  0  0  0  0  0  0  0  0  0
   37.1100   26.0620   32.9430 N   0  0  0  0  0  0  0  0  0  0  0  0
   37.6560   25.0260   33.5600 N   0  0  0  0  0  0  0  0  0  0  0  0
   37.5070   27.1720   35.9660 H   0  0  0  0  0  0  0  0  0  0  0  0
   36.5670   28.0750   33.6880 H   0  0  0  0  0  0  0  0  0  0  0  0
   37.8900   24.2820   37.1320 C   0  0  0  0  0  0  0  0  0  0  0  0
   38.4800   24.4750   35.8850 C   0  0  0  0  0  0  0  0  0  0  0  0
   39.7130   23.8390   35.6540 C   0  0  0  0  0  0  0  0  0  0  0  0
   40.2560   23.0790   36.6510 N   0  0  0  0  0  0  0  0  0  0  0  0
   39.6370   22.9270   37.8440 C   0  0  0  0  0  0  0  0  0  0  0  0
   38.4580   23.5260   38.0830 N   0  0  0  0  0  0  0  0  0  0  0  0
   36.9440   24.7580   37.3350 H   0  0  0  0  0  0  0  0  0  0  0  0
   40.1950   23.9750   34.6900 H   0  0  0  0  0  0  0  0  0  0  0  0
   40.2370   22.2840   38.4930 H   0  0  0  0  0  0  0  0  0  0  0  0
   36.6880   26.2090   31.5650 C   0  0  0  0  0  2  0  0  0  0  0  0
   35.5260   25.2930   31.2360 C   0  0  0  0  0  2  0  0  0  0  0  0
   34.6800   25.6200   31.9070 H   0  0  0  0  0  0  0  0  0  0  0  0
  1  2  1  0  0  0  0
  1  9  1  0  0  0  0
  2  6  1  0  0  0  0
  3  2  2  0  0  0  0
  4  5  1  0  0  0  0
  4  3  1  0  0  0  0
  5  1  2  0  0  0  0
  7  3  1  0  0  0  0
  8 14  1  0  0  0  0
  8 13  1  0  0  0  0
  9  8  2  0  0  0  0
 10  9  1  0  0  0  0
 10 11  2  0  0  0  0
 11 12  1  0  0  0  0
 12 13  2  0  0  0  0
 12 16  1  0  0  0  0
 15 10  1  0  0  0  0
 17  4  1  0  0  0  0
 18 17  1  0  0  0  0
 18 19  1  0  0  0  0
M  END
>  <minimizedAffinity>
-3.74458647

$$$$

 OpenBabel03272500453D

 19 20  0  0  0  0  0  0  0  0999 V2000
   37.4170   27.0960   34.3160 C   0  0  0  0  0  0  0  0  0  0  0  0
   37.9820   27.6890   35.4570 C   0  0  0  0  0  0  0  0  0  0  0  0
   38.3310   26.6640   36.3440 C   0  0  0  0  0  0  0  0  0  0  0  0
   37.9710   25.5000   35.7220 N   0  0  0  0  0  0  0  0  0  0  0  0
   37.4430   25.7910   34.5440 N   0  0  0  0  0  0  0  0  0  0  0  0
   38.1390   28.7400   35.6550 H   0  0  0  0  0  0  0  0  0  0  0  0
   38.7880   26.8090   37.3100 H   0  0  0  0  0  0  0  0  0  0  0  0
   37.5270   27.8460   31.9310 C   0  0  0  0  0  0  0  0  0  0  0  0
   36.9450   27.8710   33.1970 C   0  0  0  0  0  0  0  0  0  0  0  0
   35.8290   28.7090   33.3730 C   0  0  0  0  0  0  0  0  0  0  0  0
   35.3850   29.4430   32.3100 N   0  0  0  0  0  0  0  0  0  0  0  0
   35.9910   29.3790   31.1020 C   0  0  0  0  0  0  0  0  0  0  0  0
   37.0570   28.5830   30.9140 N   0  0  0  0  0  0  0  0  0  0  0  0
   38.3830   27.2110   31.7690 H   0  0  0  0  0  0  0  0  0  0  0  0
   35.3570   28.7470   34.3510 H   0  0  0  0  0  0  0  0  0  0  0  0
   35.4800   30.0390   30.3970 H   0  0  0  0  0  0  0  0  0  0  0  0
   38.1860   24.2160   36.3550 C   0  0  0  0  0  2  0  0  0  0  0  0
   37.9650   24.2880   37.8530 C   0  0  0  0  0  2  0  0  0  0  0  0
   36.8830   24.5770   37.9890 H   0  0  0  0  0  0  0  0  0  0  0  0
  1  5  2  0  0  0  0
  1  2  1  0  0  0  0
  2  6  1  0  0  0  0
  2  3  2  0  0  0  0
  3  7  1  0  0  0  0
  4  3  1  0  0  0  0
  4 17  1  0  0  0  0
  5  4  1  0  0  0  0
  8  9  1  0  0  0  0
  9 10  2  0  0  0  0
  9  1  1  0  0  0  0
 10 15  1  0  0  0  0
 11 10  1  0  0  0  0
 12 11  2  0  0  0  0
 13 12  1  0  0  0  0
 13  8  2  0  0  0  0
 14  8  1  0  0  0  0
 16 12  1  0  0  0  0
 17 18  1  0  0  0  0
 18 19  1  0  0  0  0
M  END
>  <minimizedAffinity>
-3.69351697

$$$$

 OpenBabel03272500453D

 19 20  0  0  0  0  0  0  0  0999 V2000
   37.9000   22.0530   34.6760 C   0  0  0  0  0  0  0  0  0  0  0  0
   39.2910   22.1480   34.5060 C   0  0  0  0  0  0  0  0  0  0  0  0
   39.8430   22.5780   35.7190 C   0  0  0  0  0  0  0  0  0  0  0  0
   38.7840   22.7290   36.5720 N   0  0  0  0  0  0  0  0  0  0  0  0
   37.6700   22.4140   35.9300 N   0  0  0  0  0  0  0  0  0  0  0  0
   39.8710   21.9360   33.6190 H   0  0  0  0  0  0  0  0  0  0  0  0
   40.8930   22.7430   35.8990 H   0  0  0  0  0  0  0  0  0  0  0  0
   37.1920   21.9820   32.2770 C   0  0  0  0  0  0  0  0  0  0  0  0
   37.0200   21.6350   33.6150 C   0  0  0  0  0  0  0  0  0  0  0  0
   35.9120   20.8270   33.9300 C   0  0  0  0  0  0  0  0  0  0  0  0
   35.0800   20.4330   32.9210 N   0  0  0  0  0  0  0  0  0  0  0  0
   35.2970   20.8010   31.6380 C   0  0  0  0  0  0  0  0  0  0  0  0
   36.3500   21.5720   31.3180 N   0  0  0  0  0  0  0  0  0  0  0  0
   38.0340   22.6010   32.0090 H   0  0  0  0  0  0  0  0  0  0  0  0
   35.7550   20.5430   34.9670 H   0  0  0  0  0  0  0  0  0  0  0  0
   34.5190   20.3810   30.9960 H   0  0  0  0  0  0  0  0  0  0  0  0
   38.9800   23.1690   37.9380 C   0  0  0  0  0  2  0  0  0  0  0  0
   37.9220   24.1690   38.3590 C   0  0  0  0  0  2  0  0  0  0  0  0
   36.9390   23.6190   38.2980 H   0  0  0  0  0  0  0  0  0  0  0  0
  1  5  2  0  0  0  0
  2  1  1  0  0  0  0
  2  3  2  0  0  0  0
  3  7  1  0  0  0  0
  3  4  1  0  0  0  0
  4 17  1  0  0  0  0
  5  4  1  0  0  0  0
  6  2  1  0  0  0  0
  8  9  1  0  0  0  0
  9 10  2  0  0  0  0
  9  1  1  0  0  0  0
 10 15  1  0  0  0  0
 11 10  1  0  0  0  0
 12 11  2  0  0  0  0
 13 12  1  0  0  0  0
 13  8  2  0  0  0  0
 14  8  1  0  0  0  0
 16 12  1  0  0  0  0
 17 18  1  0  0  0  0
 19 18  1  0  0  0  0
M  END
>  <minimizedAffinity>
-3.67052627

$$$$

 OpenBabel03272500453D

 19 20  0  0  0  0  0  0  0  0999 V2000
   35.9900   22.1530   31.5440 C   0  0  0  0  0  0  0  0  0  0  0  0
   35.0280   21.4230   32.2620 C   0  0  0  0  0  0  0  0  0  0  0  0
   35.1560   20.0760   31.9020 C   0  0  0  0  0  0  0  0  0  0  0  0
   36.1760   20.0340   30.9910 N   0  0  0  0  0  0  0  0  0  0  0  0
   36.6370   21.2620   30.8080 N   0  0  0  0  0  0  0  0  0  0  0  0
   34.3030   21.7920   32.9730 H   0  0  0  0  0  0  0  0  0  0  0  0
   34.5530   19.2700   32.2890 H   0  0  0  0  0  0  0  0  0  0  0  0
   35.2970   24.5090   31.0620 C   0  0  0  0  0  0  0  0  0  0  0  0
   36.1330   23.5810   31.6780 C   0  0  0  0  0  0  0  0  0  0  0  0
   37.1740   24.0870   32.4760 C   0  0  0  0  0  0  0  0  0  0  0  0
   37.3070   25.4410   32.6010 N   0  0  0  0  0  0  0  0  0  0  0  0
   36.4640   26.2960   31.9780 C   0  0  0  0  0  0  0  0  0  0  0  0
   35.4630   25.8310   31.2110 N   0  0  0  0  0  0  0  0  0  0  0  0
   34.4900   24.1470   30.4440 H   0  0  0  0  0  0  0  0  0  0  0  0
   37.8410   23.3840   32.9680 H   0  0  0  0  0  0  0  0  0  0  0  0
   36.7450   27.3260   32.2090 H   0  0  0  0  0  0  0  0  0  0  0  0
   36.5940   18.7840   30.3920 C   0  0  0  0  0  2  0  0  0  0  0  0
   36.7020   18.8950   28.8840 C   0  0  0  0  0  2  0  0  0  0  0  0
   37.5010   19.6680   28.6910 H   0  0  0  0  0  0  0  0  0  0  0  0
  1  9  1  0  0  0  0
  1  2  1  0  0  0  0
  2  6  1  0  0  0  0
  3  2  2  0  0  0  0
  3  7  1  0  0  0  0
  4  3  1  0  0  0  0
  5  4  1  0  0  0  0
  5  1  2  0  0  0  0
  8 13  2  0  0  0  0
  8  9  1  0  0  0  0
  9 10  2  0  0  0  0
 10 11  1  0  0  0  0
 10 15  1  0  0  0  0
 12 16  1  0  0  0  0
 12 11  2  0  0  0  0
 13 12  1  0  0  0  0
 14  8  1  0  0  0  0
 17  4  1  0  0  0  0
 18 17  1  0  0  0  0
 19 18  1  0  0  0  0
M  END
>  <minimizedAffinity>
-3.64879513

$$$$

 OpenBabel03272500453D

 19 20  0  0  0  0  0  0  0  0999 V2000
   36.1310   23.7980   31.7340 C   0  0  0  0  0  0  0  0  0  0  0  0
   35.2770   24.6370   30.9990 C   0  0  0  0  0  0  0  0  0  0  0  0
   35.6150   25.9620   31.3010 C   0  0  0  0  0  0  0  0  0  0  0  0
   36.6470   25.8840   32.1960 N   0  0  0  0  0  0  0  0  0  0  0  0
   36.9190   24.6090   32.4230 N   0  0  0  0  0  0  0  0  0  0  0  0
   34.4900   24.3540   30.3140 H   0  0  0  0  0  0  0  0  0  0  0  0
   35.1330   26.8340   30.8880 H   0  0  0  0  0  0  0  0  0  0  0  0
   35.0450   21.6030   32.2490 C   0  0  0  0  0  0  0  0  0  0  0  0
   36.0530   22.3610   31.6580 C   0  0  0  0  0  0  0  0  0  0  0  0
   37.0480   21.6640   30.9490 C   0  0  0  0  0  0  0  0  0  0  0  0
   36.9710   20.3020   30.8790 N   0  0  0  0  0  0  0  0  0  0  0  0
   35.9670   19.6170   31.4740 C   0  0  0  0  0  0  0  0  0  0  0  0
   35.0080   20.2650   32.1560 N   0  0  0  0  0  0  0  0  0  0  0  0
   34.2700   22.1130   32.7990 H   0  0  0  0  0  0  0  0  0  0  0  0
   37.8460   22.2320   30.4790 H   0  0  0  0  0  0  0  0  0  0  0  0
   36.0950   18.5460   31.2960 H   0  0  0  0  0  0  0  0  0  0  0  0
   37.2600   27.0790   32.7360 C   0  0  0  0  0  2  0  0  0  0  0  0
   37.0710   27.1740   34.2360 C   0  0  0  0  0  2  0  0  0  0  0  0
   37.5980   26.2750   34.6690 H   0  0  0  0  0  0  0  0  0  0  0  0
  1  5  2  0  0  0  0
  2  3  2  0  0  0  0
  2  1  1  0  0  0  0
  3  4  1  0  0  0  0
  4  5  1  0  0  0  0
  4 17  1  0  0  0  0
  6  2  1  0  0  0  0
  7  3  1  0  0  0  0
  8 14  1  0  0  0  0
  9  1  1  0  0  0  0
  9  8  2  0  0  0  0
 10  9  1  0  0  0  0
 11 10  2  0  0  0  0
 11 12  1  0  0  0  0
 12 13  2  0  0  0  0
 13  8  1  0  0  0  0
 15 10  1  0  0  0  0
 16 12  1  0  0  0  0
 17 18  1  0  0  0  0
 18 19  1  0  0  0  0
M  END
>  <minimizedAffinity>
-3.61959934

$$$$

 OpenBabel03272500453D

 19 20  0  0  0  0  0  0  0  0999 V2000
   37.8070   22.5440   34.7310 C   0  0  0  0  0  0  0  0  0  0  0  0
   38.0730   23.4070   33.6550 C   0  0  0  0  0  0  0  0  0  0  0  0
   37.5160   22.8410   32.5030 C   0  0  0  0  0  0  0  0  0  0  0  0
   36.9390   21.6690   32.9110 N   0  0  0  0  0  0  0  0  0  0  0  0
   37.1290   21.5300   34.2130 N   0  0  0  0  0  0  0  0  0  0  0  0
   38.6050   24.3480   33.6700 H   0  0  0  0  0  0  0  0  0  0  0  0
   37.5570   23.2740   31.5160 H   0  0  0  0  0  0  0  0  0  0  0  0
   37.4560   23.4610   37.0320 C   0  0  0  0  0  0  0  0  0  0  0  0
   38.2440   22.8270   36.0740 C   0  0  0  0  0  0  0  0  0  0  0  0
   39.5420   22.4470   36.4610 C   0  0  0  0  0  0  0  0  0  0  0  0
   39.9530   22.7180   37.7350 N   0  0  0  0  0  0  0  0  0  0  0  0
   39.1430   23.3380   38.6250 C   0  0  0  0  0  0  0  0  0  0  0  0
   37.9000   23.7070   38.2740 N   0  0  0  0  0  0  0  0  0  0  0  0
   36.4570   23.7620   36.7620 H   0  0  0  0  0  0  0  0  0  0  0  0
   40.1770   21.9510   35.7320 H   0  0  0  0  0  0  0  0  0  0  0  0
   39.6640   23.4560   39.5780 H   0  0  0  0  0  0  0  0  0  0  0  0
   36.2580   20.8030   31.9710 C   0  0  0  0  0  2  0  0  0  0  0  0
   35.2880   19.8730   32.6710 C   0  0  0  0  0  2  0  0  0  0  0  0
   34.5220   20.5420   33.1610 H   0  0  0  0  0  0  0  0  0  0  0  0
  1  9  1  0  0  0  0
  2  6  1  0  0  0  0
  2  1  1  0  0  0  0
  3  4  1  0  0  0  0
  3  2  2  0  0  0  0
  4  5  1  0  0  0  0
  5  1  2  0  0  0  0
  7  3  1  0  0  0  0
  8 13  1  0  0  0  0
  9 10  1  0  0  0  0
  9  8  2  0  0  0  0
 10 11  2  0  0  0  0
 11 12  1  0  0  0  0
 12 16  1  0  0  0  0
 13 12  2  0  0  0  0
 14  8  1  0  0  0  0
 15 10  1  0  0  0  0
 17 18  1  0  0  0  0
 17  4  1  0  0  0  0
 18 19  1  0  0  0  0
M  END
>  <minimizedAffinity>
-3.59997535

$$$$
