
 OpenBabel03262522143D

 39 41  0  0  1  0  0  0  0  0999 V2000
   37.7750   31.7480   47.6440 C   0  0  0  0  0  0  0  0  0  0  0  0
   37.9390   32.5360   48.7970 C   0  0  0  0  0  0  0  0  0  0  0  0
   38.9320   33.4730   48.8860 C   0  0  0  0  0  0  0  0  0  0  0  0
   39.7510   33.5950   47.7830 C   0  0  0  0  0  0  0  0  0  0  0  0
   39.5760   32.8240   46.6770 C   0  0  0  0  0  0  0  0  0  0  0  0
   38.5940   31.8960   46.5870 N   0  0  0  0  0  0  0  0  0  0  0  0
   37.2570   32.3870   49.6300 H   0  0  0  0  0  0  0  0  0  0  0  0
   39.0360   34.0620   49.7790 H   0  0  0  0  0  0  0  0  0  0  0  0
   40.5460   34.3280   47.8210 H   0  0  0  0  0  0  0  0  0  0  0  0
   36.7030   30.7880   47.6430 C   0  0  0  0  0  0  0  0  0  0  0  0
   36.2140   30.3930   46.5910 O   0  0  0  0  0  0  0  0  0  0  0  0
   37.0250   29.6310   49.8010 C   0  0  0  0  0  0  0  0  0  0  0  0
   36.1410   30.2310   48.8860 C   0  0  0  0  0  0  0  0  0  0  0  0
   34.7820   30.2760   49.1850 C   0  0  0  0  0  0  0  0  0  0  0  0
   34.3400   29.7370   50.3600 N   0  0  0  0  0  0  0  0  0  0  0  0
   35.2120   29.1640   51.2260 C   0  0  0  0  0  0  0  0  0  0  0  0
   36.5230   29.1140   50.9500 N   0  0  0  0  0  0  0  0  0  0  0  0
   38.0960   29.5720   49.6100 H   0  0  0  0  0  0  0  0  0  0  0  0
   34.1130   30.7290   48.4950 H   0  0  0  0  0  0  0  0  0  0  0  0
   34.9650   28.7180   52.1640 H   0  0  0  0  0  0  0  0  0  0  0  0
   40.6640   32.9910   45.2240 S   0  0  0  0  0  0  0  0  0  0  0  0
   39.5550   32.9580   43.7870 C   0  0  0  0  0  0  0  0  0  0  0  0
   39.7070   33.9030   43.1960 H   0  0  0  0  0  0  0  0  0  0  0  0
   38.4970   32.8960   44.0390 H   0  0  0  0  0  0  0  0  0  0  0  0
   38.8570   29.8350   42.2620 C   0  0  1  0  0  0  0  0  0  0  0  0
   38.8200   31.3290   42.0540 C   0  0  0  0  0  0  0  0  0  0  0  0
   39.9530   31.7900   42.9150 C   0  0  2  0  0  0  0  0  0  0  0  0
   40.3990   30.7250   43.6460 O   0  0  0  0  0  0  0  0  0  0  0  0
   39.3840   29.7820   43.6880 C   0  0  0  0  0  0  0  0  0  0  0  0
   39.5940   29.4430   41.5380 H   0  0  0  0  0  0  0  0  0  0  0  0
   37.8420   31.7580   42.3510 H   0  0  0  0  0  0  0  0  0  0  0  0
   38.9900   31.5910   40.9810 H   0  0  0  0  0  0  0  0  0  0  0  0
   40.7840   32.1400   42.2590 H   0  0  0  0  0  0  0  0  0  0  0  0
   39.7970   28.7920   43.9600 H   0  0  0  0  0  0  0  0  0  0  0  0
   38.5300   30.0790   44.3330 H   0  0  0  0  0  0  0  0  0  0  0  0
   37.6080   29.2780   42.1490 O   0  0  0  0  0  0  0  0  0  0  0  0
   36.9570   29.0160   43.3050 C   0  0  0  0  0  0  0  0  0  0  0  0
   35.4840   29.1640   43.3100 C   0  0  0  0  0  0  0  0  0  0  0  0
   35.1020   29.9450   44.0290 H   0  0  0  0  0  0  0  0  0  0  0  0
  1  2  1  0  0  0  0
  2  3  2  0  0  0  0
  2  7  1  0  0  0  0
  3  8  1  0  0  0  0
  4  9  1  0  0  0  0
  4  3  1  0  0  0  0
  5  4  2  0  0  0  0
  6  5  1  0  0  0  0
  6  1  2  0  0  0  0
 10  1  1  0  0  0  0
 10 13  1  0  0  0  0
 11 10  2  0  0  0  0
 12 17  1  0  0  0  0
 13 14  1  0  0  0  0
 13 12  2  0  0  0  0
 14 15  2  0  0  0  0
 15 16  1  0  0  0  0
 16 20  1  0  0  0  0
 17 16  2  0  0  0  0
 18 12  1  0  0  0  0
 19 14  1  0  0  0  0
 21  5  1  0  0  0  0
 22 24  1  0  0  0  0
 22 21  1  0  0  0  0
 23 22  1  0  0  0  0
 25 30  1  6  0  0  0
 25 29  1  0  0  0  0
 26 25  1  0  0  0  0
 26 31  1  0  0  0  0
 26 27  1  0  0  0  0
 27 33  1  6  0  0  0
 27 28  1  0  0  0  0
 27 22  1  0  0  0  0
 28 29  1  0  0  0  0
 29 34  1  0  0  0  0
 29 35  1  0  0  0  0
 32 26  1  0  0  0  0
 36 25  1  0  0  0  0
 36 37  1  0  0  0  0
 37 38  1  0  0  0  0
 38 39  1  0  0  0  0
M  END
>  <minimizedAffinity>
-5.03571892

>  <minimizedRMSD>
0.947954595

$$$$
