
 OpenBabel03272509263D

 19 19  0  0  0  0  0  0  0  0999 V2000
   38.1750   23.5080   34.4710 C   0  0  0  0  0  0  0  0  0  0  0  0
   37.0770   23.5440   34.3520 H   0  0  0  0  0  0  0  0  0  0  0  0
   38.6620   22.6540   33.9560 H   0  0  0  0  0  0  0  0  0  0  0  0
   39.8920   22.8000   37.7460 C   0  0  0  0  0  0  0  0  0  0  0  0
   39.6720   22.8410   36.3720 C   0  0  0  0  0  0  0  0  0  0  0  0
   38.5170   23.4150   35.9050 C   0  0  0  0  0  0  0  0  0  0  0  0
   37.6300   23.9260   36.8090 N   0  0  0  0  0  0  0  0  0  0  0  0
   37.8610   23.8770   38.1460 C   0  0  0  0  0  0  0  0  0  0  0  0
   39.0020   23.3080   38.6150 N   0  0  0  0  0  0  0  0  0  0  0  0
   40.8030   22.3390   38.0920 H   0  0  0  0  0  0  0  0  0  0  0  0
   40.3980   22.4280   35.6900 H   0  0  0  0  0  0  0  0  0  0  0  0
   37.1700   24.2760   38.8750 H   0  0  0  0  0  0  0  0  0  0  0  0
   38.7510   24.7720   33.8560 C   0  0  0  0  0  0  0  0  0  0  0  0
   39.0580   24.4440   32.8120 H   0  0  0  0  0  0  0  0  0  0  0  0
   39.6790   25.1100   34.3040 H   0  0  0  0  0  0  0  0  0  0  0  0
   37.4720   26.0070   33.6280 S   0  0  0  0  0  0  0  0  0  0  0  0
   37.3560   27.1470   35.0020 C   0  0  0  0  0  2  0  0  0  0  0  0
   38.6270   27.2600   35.8140 C   0  0  0  0  0  2  0  0  0  0  0  0
   38.4890   26.8740   36.8680 H   0  0  0  0  0  0  0  0  0  0  0  0
  1  6  1  0  0  0  0
  2  1  1  0  0  0  0
  3  1  1  0  0  0  0
  4 10  1  0  0  0  0
  4  9  1  0  0  0  0
  5  4  2  0  0  0  0
  6  5  1  0  0  0  0
  6  7  2  0  0  0  0
  7  8  1  0  0  0  0
  8  9  2  0  0  0  0
  8 12  1  0  0  0  0
 11  5  1  0  0  0  0
 13 15  1  0  0  0  0
 13  1  1  0  0  0  0
 14 13  1  0  0  0  0
 16 13  1  0  0  0  0
 16 17  1  0  0  0  0
 17 18  1  0  0  0  0
 18 19  1  0  0  0  0
M  END
>  <minimizedAffinity>
-3.26949739

$$$$

 OpenBabel03272509263D

 19 19  0  0  0  0  0  0  0  0999 V2000
   38.1410   23.4980   34.5600 C   0  0  0  0  0  0  0  0  0  0  0  0
   37.0510   23.5450   34.3920 H   0  0  0  0  0  0  0  0  0  0  0  0
   38.6360   22.6180   34.0990 H   0  0  0  0  0  0  0  0  0  0  0  0
   37.9440   23.8860   38.3000 C   0  0  0  0  0  0  0  0  0  0  0  0
   37.5800   23.9760   36.9590 C   0  0  0  0  0  0  0  0  0  0  0  0
   38.4200   23.4530   36.0100 C   0  0  0  0  0  0  0  0  0  0  0  0
   39.5820   22.8620   36.4200 N   0  0  0  0  0  0  0  0  0  0  0  0
   39.9200   22.7830   37.7320 C   0  0  0  0  0  0  0  0  0  0  0  0
   39.0940   23.3010   38.6770 N   0  0  0  0  0  0  0  0  0  0  0  0
   37.2720   24.3090   39.0290 H   0  0  0  0  0  0  0  0  0  0  0  0
   36.6530   24.4490   36.6760 H   0  0  0  0  0  0  0  0  0  0  0  0
   40.8350   22.3190   38.0740 H   0  0  0  0  0  0  0  0  0  0  0  0
   38.7640   24.7300   33.9250 C   0  0  0  0  0  0  0  0  0  0  0  0
   39.1480   24.3490   32.9260 H   0  0  0  0  0  0  0  0  0  0  0  0
   39.6560   25.0930   34.4240 H   0  0  0  0  0  0  0  0  0  0  0  0
   37.5070   25.9470   33.5370 S   0  0  0  0  0  0  0  0  0  0  0  0
   37.1760   27.0600   34.8990 C   0  0  0  0  0  2  0  0  0  0  0  0
   38.3990   27.4100   35.7170 C   0  0  0  0  0  2  0  0  0  0  0  0
   38.3270   27.0140   36.7730 H   0  0  0  0  0  0  0  0  0  0  0  0
  1  6  1  0  0  0  0
  2  1  1  0  0  0  0
  3  1  1  0  0  0  0
  4  9  1  0  0  0  0
  4 10  1  0  0  0  0
  5  4  2  0  0  0  0
  6  7  2  0  0  0  0
  6  5  1  0  0  0  0
  7  8  1  0  0  0  0
  8 12  1  0  0  0  0
  8  9  2  0  0  0  0
 11  5  1  0  0  0  0
 13 15  1  0  0  0  0
 13  1  1  0  0  0  0
 14 13  1  0  0  0  0
 16 13  1  0  0  0  0
 16 17  1  0  0  0  0
 17 18  1  0  0  0  0
 18 19  1  0  0  0  0
M  END
>  <minimizedAffinity>
-3.26864338

$$$$

 OpenBabel03272509263D

 19 19  0  0  0  0  0  0  0  0999 V2000
   37.7440   25.5310   35.4500 C   0  0  0  0  0  0  0  0  0  0  0  0
   38.0110   26.5650   35.7320 H   0  0  0  0  0  0  0  0  0  0  0  0
   36.6560   25.3160   35.4830 H   0  0  0  0  0  0  0  0  0  0  0  0
   38.6980   23.4190   38.4160 C   0  0  0  0  0  0  0  0  0  0  0  0
   37.9900   24.3320   37.6410 C   0  0  0  0  0  0  0  0  0  0  0  0
   38.4120   24.5790   36.3600 C   0  0  0  0  0  0  0  0  0  0  0  0
   39.5110   23.9130   35.8950 N   0  0  0  0  0  0  0  0  0  0  0  0
   40.1890   23.0250   36.6650 C   0  0  0  0  0  0  0  0  0  0  0  0
   39.7780   22.7790   37.9360 N   0  0  0  0  0  0  0  0  0  0  0  0
   38.3540   23.2450   39.4230 H   0  0  0  0  0  0  0  0  0  0  0  0
   37.1260   24.8360   38.0440 H   0  0  0  0  0  0  0  0  0  0  0  0
   41.0600   22.4900   36.3140 H   0  0  0  0  0  0  0  0  0  0  0  0
   38.1870   25.3120   34.0130 C   0  0  0  0  0  0  0  0  0  0  0  0
   38.1170   24.1860   33.8820 H   0  0  0  0  0  0  0  0  0  0  0  0
   39.2330   25.5300   33.8250 H   0  0  0  0  0  0  0  0  0  0  0  0
   37.0010   26.0170   32.8690 S   0  0  0  0  0  0  0  0  0  0  0  0
   36.4530   24.8470   31.6300 C   0  0  0  0  0  2  0  0  0  0  0  0
   35.1080   25.1810   31.0240 C   0  0  0  0  0  2  0  0  0  0  0  0
   34.3270   24.4030   31.2780 H   0  0  0  0  0  0  0  0  0  0  0  0
  1  3  1  0  0  0  0
  1  2  1  0  0  0  0
  1  6  1  0  0  0  0
  4 10  1  0  0  0  0
  5 11  1  0  0  0  0
  5  4  2  0  0  0  0
  6  5  1  0  0  0  0
  7  6  2  0  0  0  0
  7  8  1  0  0  0  0
  8  9  2  0  0  0  0
  9  4  1  0  0  0  0
 12  8  1  0  0  0  0
 13  1  1  0  0  0  0
 14 13  1  0  0  0  0
 15 13  1  0  0  0  0
 16 13  1  0  0  0  0
 17 16  1  0  0  0  0
 18 19  1  0  0  0  0
 18 17  1  0  0  0  0
M  END
>  <minimizedAffinity>
-3.23656917

$$$$

 OpenBabel03272509263D

 19 19  0  0  0  0  0  0  0  0999 V2000
   38.2860   23.2830   34.4300 C   0  0  0  0  0  0  0  0  0  0  0  0
   39.0930   23.8000   33.8820 H   0  0  0  0  0  0  0  0  0  0  0  0
   37.2810   23.7360   34.2970 H   0  0  0  0  0  0  0  0  0  0  0  0
   39.8950   22.7810   37.7950 C   0  0  0  0  0  0  0  0  0  0  0  0
   39.7170   22.7310   36.4160 C   0  0  0  0  0  0  0  0  0  0  0  0
   38.5840   23.2840   35.8760 C   0  0  0  0  0  0  0  0  0  0  0  0
   37.6770   23.8640   36.7160 N   0  0  0  0  0  0  0  0  0  0  0  0
   37.8680   23.9040   38.0600 C   0  0  0  0  0  0  0  0  0  0  0  0
   38.9870   23.3560   38.6010 N   0  0  0  0  0  0  0  0  0  0  0  0
   40.7900   22.3340   38.1990 H   0  0  0  0  0  0  0  0  0  0  0  0
   40.4580   22.2650   35.7860 H   0  0  0  0  0  0  0  0  0  0  0  0
   37.1600   24.3590   38.7390 H   0  0  0  0  0  0  0  0  0  0  0  0
   38.1960   21.8630   33.8940 C   0  0  0  0  0  0  0  0  0  0  0  0
   38.0470   21.2350   34.8290 H   0  0  0  0  0  0  0  0  0  0  0  0
   39.1190   21.4820   33.4700 H   0  0  0  0  0  0  0  0  0  0  0  0
   36.7110   21.6470   32.9140 S   0  0  0  0  0  0  0  0  0  0  0  0
   35.5640   20.4830   33.6400 C   0  0  0  0  0  2  0  0  0  0  0  0
   35.4730   19.1680   32.8990 C   0  0  0  0  0  2  0  0  0  0  0  0
   34.4500   19.0110   32.4420 H   0  0  0  0  0  0  0  0  0  0  0  0
  1  6  1  0  0  0  0
  2  1  1  0  0  0  0
  3  1  1  0  0  0  0
  4 10  1  0  0  0  0
  4  9  1  0  0  0  0
  5  4  2  0  0  0  0
  6  5  1  0  0  0  0
  6  7  2  0  0  0  0
  7  8  1  0  0  0  0
  8  9  2  0  0  0  0
  8 12  1  0  0  0  0
 11  5  1  0  0  0  0
 13  1  1  0  0  0  0
 13 14  1  0  0  0  0
 15 13  1  0  0  0  0
 16 17  1  0  0  0  0
 16 13  1  0  0  0  0
 18 17  1  0  0  0  0
 19 18  1  0  0  0  0
M  END
>  <minimizedAffinity>
-3.1955204

$$$$

 OpenBabel03272509263D

 19 19  0  0  0  0  0  0  0  0999 V2000
   37.9800   26.7910   35.5880 C   0  0  0  0  0  0  0  0  0  0  0  0
   37.3370   26.2020   36.2650 H   0  0  0  0  0  0  0  0  0  0  0  0
   38.4580   27.6720   36.0640 H   0  0  0  0  0  0  0  0  0  0  0  0
   35.6890   28.7820   33.3600 C   0  0  0  0  0  0  0  0  0  0  0  0
   36.4080   28.4130   34.4940 C   0  0  0  0  0  0  0  0  0  0  0  0
   37.1830   27.2820   34.4460 C   0  0  0  0  0  0  0  0  0  0  0  0
   37.2200   26.5650   33.2840 N   0  0  0  0  0  0  0  0  0  0  0  0
   36.5130   26.9410   32.1870 C   0  0  0  0  0  0  0  0  0  0  0  0
   35.7420   28.0580   32.2290 N   0  0  0  0  0  0  0  0  0  0  0  0
   35.0810   29.6700   33.4220 H   0  0  0  0  0  0  0  0  0  0  0  0
   36.3530   29.0070   35.3930 H   0  0  0  0  0  0  0  0  0  0  0  0
   36.5310   26.3860   31.2600 H   0  0  0  0  0  0  0  0  0  0  0  0
   39.1070   25.8880   35.1140 C   0  0  0  0  0  0  0  0  0  0  0  0
   40.0370   26.3690   35.5550 H   0  0  0  0  0  0  0  0  0  0  0  0
   39.2850   25.9100   34.0450 H   0  0  0  0  0  0  0  0  0  0  0  0
   38.9840   24.2690   35.8750 S   0  0  0  0  0  0  0  0  0  0  0  0
   37.6020   24.1360   37.0030 C   0  0  0  0  0  2  0  0  0  0  0  0
   37.9830   24.2790   38.4600 C   0  0  0  0  0  2  0  0  0  0  0  0
   37.8070   23.3230   39.0380 H   0  0  0  0  0  0  0  0  0  0  0  0
  1  3  1  0  0  0  0
  1  2  1  0  0  0  0
  4 10  1  0  0  0  0
  4  5  1  0  0  0  0
  5 11  1  0  0  0  0
  6  5  2  0  0  0  0
  6  1  1  0  0  0  0
  7  6  1  0  0  0  0
  8  9  1  0  0  0  0
  8  7  2  0  0  0  0
  9  4  2  0  0  0  0
 12  8  1  0  0  0  0
 13 14  1  0  0  0  0
 13  1  1  0  0  0  0
 13 16  1  0  0  0  0
 15 13  1  0  0  0  0
 16 17  1  0  0  0  0
 17 18  1  0  0  0  0
 18 19  1  0  0  0  0
M  END
>  <minimizedAffinity>
-3.05272198

$$$$

 OpenBabel03272509263D

 19 19  0  0  0  0  0  0  0  0999 V2000
   41.1770   21.9270   37.5010 C   0  0  0  0  0  0  0  0  0  0  0  0
   40.8820   21.0370   38.0840 H   0  0  0  0  0  0  0  0  0  0  0  0
   41.9690   22.5420   37.9750 H   0  0  0  0  0  0  0  0  0  0  0  0
   38.5380   24.1550   36.0010 C   0  0  0  0  0  0  0  0  0  0  0  0
   39.6630   23.3390   36.0810 C   0  0  0  0  0  0  0  0  0  0  0  0
   40.0030   22.7990   37.2950 C   0  0  0  0  0  0  0  0  0  0  0  0
   39.2190   23.0820   38.3770 N   0  0  0  0  0  0  0  0  0  0  0  0
   38.1240   23.8800   38.2800 C   0  0  0  0  0  0  0  0  0  0  0  0
   37.7850   24.4200   37.0810 N   0  0  0  0  0  0  0  0  0  0  0  0
   38.2940   24.5740   35.0380 H   0  0  0  0  0  0  0  0  0  0  0  0
   40.2560   23.1380   35.2020 H   0  0  0  0  0  0  0  0  0  0  0  0
   37.4940   24.1140   39.1260 H   0  0  0  0  0  0  0  0  0  0  0  0
   41.7360   21.4470   36.1720 C   0  0  0  0  0  0  0  0  0  0  0  0
   41.0670   21.9490   35.4040 H   0  0  0  0  0  0  0  0  0  0  0  0
   41.6000   20.3880   35.9810 H   0  0  0  0  0  0  0  0  0  0  0  0
   43.3810   22.1070   35.9000 S   0  0  0  0  0  0  0  0  0  0  0  0
   43.4050   23.8940   35.8210 C   0  0  0  0  0  2  0  0  0  0  0  0
   44.1370   24.5500   36.9710 C   0  0  0  0  0  2  0  0  0  0  0  0
   43.4410   25.1610   37.6200 H   0  0  0  0  0  0  0  0  0  0  0  0
  1  3  1  0  0  0  0
  1  2  1  0  0  0  0
  4  5  2  0  0  0  0
  4  9  1  0  0  0  0
  5  6  1  0  0  0  0
  6  1  1  0  0  0  0
  6  7  2  0  0  0  0
  8  7  1  0  0  0  0
  8 12  1  0  0  0  0
  9  8  2  0  0  0  0
 10  4  1  0  0  0  0
 11  5  1  0  0  0  0
 13  1  1  0  0  0  0
 14 13  1  0  0  0  0
 15 13  1  0  0  0  0
 16 13  1  0  0  0  0
 17 16  1  0  0  0  0
 17 18  1  0  0  0  0
 18 19  1  0  0  0  0
M  END
>  <minimizedAffinity>
-3.04826546

$$$$

 OpenBabel03272509263D

 19 19  0  0  0  0  0  0  0  0999 V2000
   38.4890   26.6970   35.6000 C   0  0  0  0  0  0  0  0  0  0  0  0
   37.7600   26.2220   36.2800 H   0  0  0  0  0  0  0  0  0  0  0  0
   39.1100   27.4850   36.0740 H   0  0  0  0  0  0  0  0  0  0  0  0
   37.4230   27.7960   32.1610 C   0  0  0  0  0  0  0  0  0  0  0  0
   38.1610   27.1600   33.1550 C   0  0  0  0  0  0  0  0  0  0  0  0
   37.7790   27.3160   34.4630 C   0  0  0  0  0  0  0  0  0  0  0  0
   36.6860   28.0900   34.7360 N   0  0  0  0  0  0  0  0  0  0  0  0
   35.9780   28.7020   33.7530 C   0  0  0  0  0  0  0  0  0  0  0  0
   36.3530   28.5530   32.4560 N   0  0  0  0  0  0  0  0  0  0  0  0
   37.7450   27.6660   31.1400 H   0  0  0  0  0  0  0  0  0  0  0  0
   39.0170   26.5570   32.8990 H   0  0  0  0  0  0  0  0  0  0  0  0
   35.1110   29.3170   33.9510 H   0  0  0  0  0  0  0  0  0  0  0  0
   39.4480   25.6200   35.1200 C   0  0  0  0  0  0  0  0  0  0  0  0
   40.4590   25.9760   35.4960 H   0  0  0  0  0  0  0  0  0  0  0  0
   39.5720   25.5730   34.0440 H   0  0  0  0  0  0  0  0  0  0  0  0
   39.1300   24.0680   35.9590 S   0  0  0  0  0  0  0  0  0  0  0  0
   37.6690   24.1240   36.9910 C   0  0  0  0  0  2  0  0  0  0  0  0
   37.9650   24.2900   38.4650 C   0  0  0  0  0  2  0  0  0  0  0  0
   37.6520   23.3830   39.0620 H   0  0  0  0  0  0  0  0  0  0  0  0
  1  3  1  0  0  0  0
  1  2  1  0  0  0  0
  4  9  2  0  0  0  0
  4  5  1  0  0  0  0
  5  6  2  0  0  0  0
  6  7  1  0  0  0  0
  6  1  1  0  0  0  0
  8 12  1  0  0  0  0
  8  7  2  0  0  0  0
  9  8  1  0  0  0  0
 10  4  1  0  0  0  0
 11  5  1  0  0  0  0
 13 14  1  0  0  0  0
 13  1  1  0  0  0  0
 13 16  1  0  0  0  0
 15 13  1  0  0  0  0
 16 17  1  0  0  0  0
 17 18  1  0  0  0  0
 18 19  1  0  0  0  0
M  END
>  <minimizedAffinity>
-2.99175119

$$$$

 OpenBabel03272509263D

 19 19  0  0  0  0  0  0  0  0999 V2000
   37.5820   21.8770   35.1100 C   0  0  0  0  0  0  0  0  0  0  0  0
   38.4250   21.1670   35.1740 H   0  0  0  0  0  0  0  0  0  0  0  0
   36.8830   21.8340   35.9700 H   0  0  0  0  0  0  0  0  0  0  0  0
   35.0920   20.5350   32.6260 C   0  0  0  0  0  0  0  0  0  0  0  0
   35.7600   20.7150   33.8330 C   0  0  0  0  0  0  0  0  0  0  0  0
   36.7980   21.6100   33.8870 C   0  0  0  0  0  0  0  0  0  0  0  0
   37.1320   22.2910   32.7510 N   0  0  0  0  0  0  0  0  0  0  0  0
   36.4690   22.1030   31.5820 C   0  0  0  0  0  0  0  0  0  0  0  0
   35.4420   21.2160   31.5210 N   0  0  0  0  0  0  0  0  0  0  0  0
   34.2830   19.8220   32.6040 H   0  0  0  0  0  0  0  0  0  0  0  0
   35.4650   20.1600   34.7090 H   0  0  0  0  0  0  0  0  0  0  0  0
   36.7200   22.6330   30.6740 H   0  0  0  0  0  0  0  0  0  0  0  0
   38.1600   23.2830   35.0890 C   0  0  0  0  0  0  0  0  0  0  0  0
   37.3460   23.9120   35.5700 H   0  0  0  0  0  0  0  0  0  0  0  0
   38.2680   23.7110   34.0980 H   0  0  0  0  0  0  0  0  0  0  0  0
   39.5810   23.4010   36.1750 S   0  0  0  0  0  0  0  0  0  0  0  0
   39.1590   23.1570   37.8970 C   0  0  0  0  0  2  0  0  0  0  0  0
   38.0030   24.0090   38.3720 C   0  0  0  0  0  2  0  0  0  0  0  0
   38.3270   24.7610   39.1520 H   0  0  0  0  0  0  0  0  0  0  0  0
  1  2  1  0  0  0  0
  1  3  1  0  0  0  0
  4  5  1  0  0  0  0
  5  6  2  0  0  0  0
  5 11  1  0  0  0  0
  6  1  1  0  0  0  0
  7  6  1  0  0  0  0
  8  7  2  0  0  0  0
  9  8  1  0  0  0  0
  9  4  2  0  0  0  0
 10  4  1  0  0  0  0
 12  8  1  0  0  0  0
 13  1  1  0  0  0  0
 13 14  1  0  0  0  0
 13 16  1  0  0  0  0
 15 13  1  0  0  0  0
 16 17  1  0  0  0  0
 17 18  1  0  0  0  0
 18 19  1  0  0  0  0
M  END
>  <minimizedAffinity>
-2.99170113

$$$$

 OpenBabel03272509263D

 19 19  0  0  0  0  0  0  0  0999 V2000
   37.4900   27.3990   33.0560 C   0  0  0  0  0  0  0  0  0  0  0  0
   37.2940   28.3230   32.4830 H   0  0  0  0  0  0  0  0  0  0  0  0
   38.5660   27.1460   33.1580 H   0  0  0  0  0  0  0  0  0  0  0  0
   36.5200   23.9490   31.9030 C   0  0  0  0  0  0  0  0  0  0  0  0
   37.2110   24.9510   32.5780 C   0  0  0  0  0  0  0  0  0  0  0  0
   36.8270   26.2550   32.3990 C   0  0  0  0  0  0  0  0  0  0  0  0
   35.7770   26.5170   31.5650 N   0  0  0  0  0  0  0  0  0  0  0  0
   35.1140   25.5260   30.9150 C   0  0  0  0  0  0  0  0  0  0  0  0
   35.4910   24.2330   31.0860 N   0  0  0  0  0  0  0  0  0  0  0  0
   36.8440   22.9310   32.0530 H   0  0  0  0  0  0  0  0  0  0  0  0
   38.0350   24.7030   33.2290 H   0  0  0  0  0  0  0  0  0  0  0  0
   34.2810   25.7160   30.2520 H   0  0  0  0  0  0  0  0  0  0  0  0
   36.9550   27.6020   34.4640 C   0  0  0  0  0  0  0  0  0  0  0  0
   36.1680   26.7900   34.5690 H   0  0  0  0  0  0  0  0  0  0  0  0
   36.4000   28.5220   34.6070 H   0  0  0  0  0  0  0  0  0  0  0  0
   38.2160   27.2270   35.6810 S   0  0  0  0  0  0  0  0  0  0  0  0
   39.7910   26.8070   34.9430 C   0  0  0  0  0  2  0  0  0  0  0  0
   40.0870   25.3240   34.9300 C   0  0  0  0  0  2  0  0  0  0  0  0
   40.9740   25.0660   35.5820 H   0  0  0  0  0  0  0  0  0  0  0  0
  1  3  1  0  0  0  0
  1 13  1  0  0  0  0
  2  1  1  0  0  0  0
  4 10  1  0  0  0  0
  4  5  1  0  0  0  0
  5 11  1  0  0  0  0
  6  5  2  0  0  0  0
  6  1  1  0  0  0  0
  7  6  1  0  0  0  0
  8  9  1  0  0  0  0
  8  7  2  0  0  0  0
  9  4  2  0  0  0  0
 12  8  1  0  0  0  0
 13 14  1  0  0  0  0
 13 15  1  0  0  0  0
 13 16  1  0  0  0  0
 17 16  1  0  0  0  0
 18 17  1  0  0  0  0
 18 19  1  0  0  0  0
M  END
>  <minimizedAffinity>
-2.98521376

$$$$
