
 OpenBabel03272500443D

 19 20  0  0  0  0  0  0  0  0999 V2000
   37.0190   31.0430   48.5520 C   0  0  0  0  0  0  0  0  0  0  0  0
   37.9730   31.0140   47.5210 C   0  0  0  0  0  0  0  0  0  0  0  0
   38.8690   32.0670   47.7350 C   0  0  0  0  0  0  0  0  0  0  0  0
   38.4360   32.6930   48.8730 N   0  0  0  0  0  0  0  0  0  0  0  0
   37.3580   32.0680   49.3200 N   0  0  0  0  0  0  0  0  0  0  0  0
   38.0400   30.3210   46.6940 H   0  0  0  0  0  0  0  0  0  0  0  0
   39.7140   32.3010   47.1070 H   0  0  0  0  0  0  0  0  0  0  0  0
   35.8810   29.0640   49.5760 C   0  0  0  0  0  0  0  0  0  0  0  0
   35.9430   30.0900   48.6350 C   0  0  0  0  0  0  0  0  0  0  0  0
   34.8790   30.1840   47.7190 C   0  0  0  0  0  0  0  0  0  0  0  0
   33.8600   29.2770   47.8010 N   0  0  0  0  0  0  0  0  0  0  0  0
   33.8540   28.3010   48.7370 C   0  0  0  0  0  0  0  0  0  0  0  0
   34.8600   28.1950   49.6210 N   0  0  0  0  0  0  0  0  0  0  0  0
   36.6840   28.9700   50.2900 H   0  0  0  0  0  0  0  0  0  0  0  0
   34.9040   30.9750   46.9750 H   0  0  0  0  0  0  0  0  0  0  0  0
   32.9540   27.6900   48.6280 H   0  0  0  0  0  0  0  0  0  0  0  0
   39.1330   33.8450   49.4040 C   0  0  0  0  0  0  0  0  0  0  0  0
   39.9940   34.5120   48.3500 C   0  0  0  0  0  0  0  0  0  0  0  0
   39.2800   34.8640   47.5500 H   0  0  0  0  0  0  0  0  0  0  0  0
  1  9  1  0  0  0  0
  1  5  2  0  0  0  0
  2  3  2  0  0  0  0
  2  1  1  0  0  0  0
  3  4  1  0  0  0  0
  4  5  1  0  0  0  0
  4 17  1  0  0  0  0
  6  2  1  0  0  0  0
  7  3  1  0  0  0  0
  8 13  1  0  0  0  0
  8 14  1  0  0  0  0
  9  8  2  0  0  0  0
 10 11  2  0  0  0  0
 10  9  1  0  0  0  0
 11 12  1  0  0  0  0
 12 13  2  0  0  0  0
 15 10  1  0  0  0  0
 16 12  1  0  0  0  0
 18 17  1  0  0  0  0
 19 18  1  0  0  0  0
M  END
>  <minimizedAffinity>
-4.53033686

>  <minimizedRMSD>
1.96604109

$$$$
