
 OpenBabel03262521523D

 17 17  0  0  0  0  0  0  0  0999 V2000
   37.8530   30.4900   49.3690 C   0  0  0  0  0  0  0  0  0  0  0  0
   38.2110   31.6980   49.9530 C   0  0  0  0  0  0  0  0  0  0  0  0
   38.5780   32.7510   49.1250 C   0  0  0  0  0  0  0  0  0  0  0  0
   38.5720   32.5600   47.7540 N   0  0  0  0  0  0  0  0  0  0  0  0
   38.2110   31.3530   47.2510 C   0  0  0  0  0  0  0  0  0  0  0  0
   37.8630   30.3500   48.0290 N   0  0  0  0  0  0  0  0  0  0  0  0
   38.2350   31.9070   51.0240 H   0  0  0  0  0  0  0  0  0  0  0  0
   38.8640   33.7130   49.5540 H   0  0  0  0  0  0  0  0  0  0  0  0
   38.2510   31.3440   46.1790 H   0  0  0  0  0  0  0  0  0  0  0  0
   37.3940   29.1880   50.4920 S   0  0  0  0  0  0  0  0  0  0  0  0
   35.6850   29.4610   51.0000 C   0  0  0  0  0  0  0  0  0  0  0  0
   35.6840   30.3420   51.6870 H   0  0  0  0  0  0  0  0  0  0  0  0
   35.3350   28.5850   51.5500 H   0  0  0  0  0  0  0  0  0  0  0  0
   34.6120   29.9130   49.5910 S   0  0  0  0  0  0  0  0  0  0  0  0
   33.5500   28.4610   49.2750 C   0  0  0  0  0  0  0  0  0  0  0  0
   34.1540   27.5430   48.2340 C   0  0  0  0  0  0  0  0  0  0  0  0
   33.3170   26.8690   47.9090 H   0  0  0  0  0  0  0  0  0  0  0  0
  1  2  1  0  0  0  0
  1 10  1  0  0  0  0
  2  7  1  0  0  0  0
  3  8  1  0  0  0  0
  3  2  2  0  0  0  0
  4  3  1  0  0  0  0
  5  4  2  0  0  0  0
  5  6  1  0  0  0  0
  6  1  2  0  0  0  0
  9  5  1  0  0  0  0
 10 11  1  0  0  0  0
 11 13  1  0  0  0  0
 11 12  1  0  0  0  0
 14 11  1  0  0  0  0
 15 14  1  0  0  0  0
 16 15  1  0  0  0  0
 17 16  1  0  0  0  0
M  END
>  <minimizedAffinity>
-3.55726719

>  <minimizedRMSD>
1.30446422

$$$$
