
 OpenBabel03272505483D

 34 37  0  0  0  0  0  0  0  0999 V2000
   36.4340   30.4820   46.1850 C   0  0  0  0  0  0  0  0  0  0  0  0
   37.0340   30.8600   47.3350 C   0  0  0  0  0  0  0  0  0  0  0  0
   36.4000   30.6620   48.5570 C   0  0  0  0  0  0  0  0  0  0  0  0
   35.1430   30.0700   48.5570 C   0  0  0  0  0  0  0  0  0  0  0  0
   34.5280   29.6800   47.3560 C   0  0  0  0  0  0  0  0  0  0  0  0
   35.2050   29.9060   46.2150 N   0  0  0  0  0  0  0  0  0  0  0  0
   38.0010   31.3140   47.3130 H   0  0  0  0  0  0  0  0  0  0  0  0
   36.8440   30.9490   49.5040 H   0  0  0  0  0  0  0  0  0  0  0  0
   34.5690   29.8740   49.4610 H   0  0  0  0  0  0  0  0  0  0  0  0
   37.1130   30.6910   44.8520 C   0  0  0  0  0  0  0  0  0  0  0  0
   36.8070   29.7490   43.7500 C   0  0  0  0  0  0  0  0  0  0  0  0
   36.2460   31.1360   43.7050 C   0  0  0  0  0  0  0  0  0  0  0  0
   37.6590   29.5110   43.0850 H   0  0  0  0  0  0  0  0  0  0  0  0
   36.0560   28.9620   43.9300 H   0  0  0  0  0  0  0  0  0  0  0  0
   36.7200   31.8100   42.9560 H   0  0  0  0  0  0  0  0  0  0  0  0
   35.1730   31.3250   43.9150 H   0  0  0  0  0  0  0  0  0  0  0  0
   39.7370   33.2810   45.0760 C   0  0  0  0  0  0  0  0  0  0  0  0
   40.8980   32.5210   45.2900 C   0  0  0  0  0  0  0  0  0  0  0  0
   40.7640   31.1220   45.3560 C   0  0  0  0  0  0  0  0  0  0  0  0
   39.5330   30.5810   45.2100 N   0  0  0  0  0  0  0  0  0  0  0  0
   38.4240   31.3480   45.0020 C   0  0  0  0  0  0  0  0  0  0  0  0
   38.5270   32.6830   44.9370 N   0  0  0  0  0  0  0  0  0  0  0  0
   39.8150   34.3700   45.0210 H   0  0  0  0  0  0  0  0  0  0  0  0
   41.8470   32.9960   45.3990 H   0  0  0  0  0  0  0  0  0  0  0  0
   41.6280   30.4920   45.5200 H   0  0  0  0  0  0  0  0  0  0  0  0
   33.2070   29.0540   47.3100 C   0  0  0  0  0  0  0  0  0  0  0  0
   32.2290   29.1400   46.3550 N   0  0  0  0  0  0  0  0  0  0  0  0
   31.1850   28.3640   46.7890 C   0  0  0  0  0  0  0  0  0  0  0  0
   31.5190   27.8210   47.9770 N   0  0  0  0  0  0  0  0  0  0  0  0
   32.7420   28.2370   48.2950 N   0  0  0  0  0  0  0  0  0  0  0  0
   30.2320   28.1820   46.3020 H   0  0  0  0  0  0  0  0  0  0  0  0
   30.7970   26.9330   48.8660 C   0  0  0  0  0  0  0  0  0  0  0  0
   29.9890   27.8000   49.8070 C   0  0  0  0  0  0  0  0  0  0  0  0
   30.6740   28.6160   50.1630 H   0  0  0  0  0  0  0  0  0  0  0  0
  1  6  2  0  0  0  0
  1  2  1  0  0  0  0
  2  3  2  0  0  0  0
  3  8  1  0  0  0  0
  4  3  1  0  0  0  0
  4  9  1  0  0  0  0
  5  4  2  0  0  0  0
  6  5  1  0  0  0  0
  7  2  1  0  0  0  0
 10 21  1  0  0  0  0
 10  1  1  0  0  0  0
 11 14  1  0  0  0  0
 11 10  1  0  0  0  0
 12 11  1  0  0  0  0
 12 16  1  0  0  0  0
 12 10  1  0  0  0  0
 13 11  1  0  0  0  0
 15 12  1  0  0  0  0
 17 18  1  0  0  0  0
 18 19  2  0  0  0  0
 18 24  1  0  0  0  0
 19 25  1  0  0  0  0
 20 19  1  0  0  0  0
 21 20  2  0  0  0  0
 22 21  1  0  0  0  0
 22 17  2  0  0  0  0
 23 17  1  0  0  0  0
 26  5  1  0  0  0  0
 26 30  2  0  0  0  0
 27 28  2  0  0  0  0
 27 26  1  0  0  0  0
 28 29  1  0  0  0  0
 29 30  1  0  0  0  0
 29 32  1  0  0  0  0
 31 28  1  0  0  0  0
 32 33  1  0  0  0  0
 33 34  1  0  0  0  0
M  END
>  <minimizedAffinity>
-5.36653042

>  <minimizedRMSD>
0.297037393

$$$$
