
 OpenBabel03262522343D

 34 36  0  0  0  0  0  0  0  0999 V2000
   38.3760   25.5070   33.4100 C   0  0  0  0  0  0  0  0  0  0  0  0
   38.9140   26.7550   33.5510 C   0  0  0  0  0  0  0  0  0  0  0  0
   39.9980   27.0590   34.3500 C   0  0  0  0  0  0  0  0  0  0  0  0
   40.5990   26.0360   35.0710 C   0  0  0  0  0  0  0  0  0  0  0  0
   40.0490   24.7790   34.9200 C   0  0  0  0  0  0  0  0  0  0  0  0
   39.0080   24.5910   34.1290 N   0  0  0  0  0  0  0  0  0  0  0  0
   38.4970   27.6190   33.0160 H   0  0  0  0  0  0  0  0  0  0  0  0
   40.3920   28.0560   34.4350 H   0  0  0  0  0  0  0  0  0  0  0  0
   41.4550   26.2900   35.6980 H   0  0  0  0  0  0  0  0  0  0  0  0
   39.9850   23.1190   36.7280 C   0  0  0  0  0  0  0  0  0  0  0  0
   40.6810   23.6950   35.6660 C   0  0  0  0  0  0  0  0  0  0  0  0
   41.9320   23.2110   35.3710 C   0  0  0  0  0  0  0  0  0  0  0  0
   42.5650   22.1890   36.0470 C   0  0  0  0  0  0  0  0  0  0  0  0
   41.8980   21.6080   37.0950 C   0  0  0  0  0  0  0  0  0  0  0  0
   40.6430   22.0880   37.3980 C   0  0  0  0  0  0  0  0  0  0  0  0
   42.4040   23.7320   34.5120 H   0  0  0  0  0  0  0  0  0  0  0  0
   43.5510   21.8880   35.7280 H   0  0  0  0  0  0  0  0  0  0  0  0
   42.3420   20.8080   37.6600 H   0  0  0  0  0  0  0  0  0  0  0  0
   40.1080   21.6160   38.2470 H   0  0  0  0  0  0  0  0  0  0  0  0
   38.4250   23.6290   37.2650 S   0  0  0  0  0  0  0  0  0  0  0  0
   38.3010   23.1400   38.7180 O   0  0  0  0  0  0  0  0  0  0  0  0
   38.3390   25.1150   37.3300 O   0  0  0  0  0  0  0  0  0  0  0  0
   37.0370   22.7880   36.6090 C   0  0  0  0  0  2  0  0  0  0  0  0
   37.5830   21.8450   35.5420 C   0  0  0  0  0  2  0  0  0  0  0  0
   37.5580   22.3110   34.5390 H   0  0  0  0  0  0  0  0  0  0  0  0
   36.8360   23.9350   32.1870 C   0  0  0  0  0  0  0  0  0  0  0  0
   37.2560   25.2280   32.5580 C   0  0  0  0  0  0  0  0  0  0  0  0
   36.5200   26.3280   32.0680 C   0  0  0  0  0  0  0  0  0  0  0  0
   35.4350   26.0860   31.2580 N   0  0  0  0  0  0  0  0  0  0  0  0
   35.0800   24.8020   30.9350 C   0  0  0  0  0  0  0  0  0  0  0  0
   35.7720   23.7370   31.3950 N   0  0  0  0  0  0  0  0  0  0  0  0
   37.4790   23.1860   32.6240 H   0  0  0  0  0  0  0  0  0  0  0  0
   36.8020   27.3420   32.3230 H   0  0  0  0  0  0  0  0  0  0  0  0
   34.2230   24.6280   30.2980 H   0  0  0  0  0  0  0  0  0  0  0  0
  1  2  2  0  0  0  0
  1  6  1  0  0  0  0
  2  3  1  0  0  0  0
  3  8  1  0  0  0  0
  3  4  2  0  0  0  0
  4  9  1  0  0  0  0
  5  4  1  0  0  0  0
  5 11  1  0  0  0  0
  6  5  2  0  0  0  0
  7  2  1  0  0  0  0
 10 20  1  0  0  0  0
 10 15  1  0  0  0  0
 11 10  2  0  0  0  0
 12 11  1  0  0  0  0
 12 13  2  0  0  0  0
 13 14  1  0  0  0  0
 14 15  2  0  0  0  0
 14 18  1  0  0  0  0
 15 19  1  0  0  0  0
 16 12  1  0  0  0  0
 17 13  1  0  0  0  0
 20 22  2  0  0  0  0
 20 21  2  0  0  0  0
 23 20  1  0  0  0  0
 24 23  1  0  0  0  0
 25 24  1  0  0  0  0
 26 27  1  0  0  0  0
 26 32  1  0  0  0  0
 27  1  1  0  0  0  0
 28 33  1  0  0  0  0
 28 27  2  0  0  0  0
 29 28  1  0  0  0  0
 30 29  2  0  0  0  0
 30 31  1  0  0  0  0
 31 26  2  0  0  0  0
 34 30  1  0  0  0  0
M  END
>  <minimizedAffinity>
-5.57504082

$$$$

 OpenBabel03262522343D

 34 36  0  0  0  0  0  0  0  0999 V2000
   35.4540   29.9900   33.2940 C   0  0  0  0  0  0  0  0  0  0  0  0
   35.9510   30.7380   32.2650 C   0  0  0  0  0  0  0  0  0  0  0  0
   36.4730   30.2200   31.0960 C   0  0  0  0  0  0  0  0  0  0  0  0
   36.5040   28.8420   30.9360 C   0  0  0  0  0  0  0  0  0  0  0  0
   35.9990   28.0950   31.9820 C   0  0  0  0  0  0  0  0  0  0  0  0
   35.5200   28.6880   33.0620 N   0  0  0  0  0  0  0  0  0  0  0  0
   35.9630   31.8360   32.3110 H   0  0  0  0  0  0  0  0  0  0  0  0
   36.8550   30.8440   30.3080 H   0  0  0  0  0  0  0  0  0  0  0  0
   36.9190   28.4460   30.0090 H   0  0  0  0  0  0  0  0  0  0  0  0
   36.9840   25.9080   32.5030 C   0  0  0  0  0  0  0  0  0  0  0  0
   36.0180   26.6440   31.8190 C   0  0  0  0  0  0  0  0  0  0  0  0
   35.1260   25.9670   31.0250 C   0  0  0  0  0  0  0  0  0  0  0  0
   35.1070   24.6000   30.8450 C   0  0  0  0  0  0  0  0  0  0  0  0
   36.0490   23.8550   31.5070 C   0  0  0  0  0  0  0  0  0  0  0  0
   36.9480   24.5280   32.3050 C   0  0  0  0  0  0  0  0  0  0  0  0
   34.3980   26.6390   30.5250 H   0  0  0  0  0  0  0  0  0  0  0  0
   34.3590   24.1720   30.1960 H   0  0  0  0  0  0  0  0  0  0  0  0
   36.0840   22.7860   31.4040 H   0  0  0  0  0  0  0  0  0  0  0  0
   37.7080   23.9220   32.8390 H   0  0  0  0  0  0  0  0  0  0  0  0
   38.2080   26.5960   33.5080 S   0  0  0  0  0  0  0  0  0  0  0  0
   39.0030   25.4070   34.0740 O   0  0  0  0  0  0  0  0  0  0  0  0
   39.1820   27.3860   32.7040 O   0  0  0  0  0  0  0  0  0  0  0  0
   37.6970   27.2910   35.0300 C   0  0  0  0  0  2  0  0  0  0  0  0
   38.8800   27.1390   35.9800 C   0  0  0  0  0  2  0  0  0  0  0  0
   38.8030   26.2100   36.5770 H   0  0  0  0  0  0  0  0  0  0  0  0
   33.5410   30.5390   34.8380 C   0  0  0  0  0  0  0  0  0  0  0  0
   34.9070   30.5670   34.4890 C   0  0  0  0  0  0  0  0  0  0  0  0
   35.8040   31.1950   35.3790 C   0  0  0  0  0  0  0  0  0  0  0  0
   35.3040   31.7460   36.5370 N   0  0  0  0  0  0  0  0  0  0  0  0
   33.9640   31.6840   36.8150 C   0  0  0  0  0  0  0  0  0  0  0  0
   33.0910   31.0870   35.9750 N   0  0  0  0  0  0  0  0  0  0  0  0
   32.9650   30.0330   34.0770 H   0  0  0  0  0  0  0  0  0  0  0  0
   36.8620   31.2450   35.1580 H   0  0  0  0  0  0  0  0  0  0  0  0
   33.5870   32.1220   37.7300 H   0  0  0  0  0  0  0  0  0  0  0  0
  1 27  1  0  0  0  0
  2  7  1  0  0  0  0
  2  1  2  0  0  0  0
  3  2  1  0  0  0  0
  4  3  2  0  0  0  0
  4  5  1  0  0  0  0
  5  6  2  0  0  0  0
  6  1  1  0  0  0  0
  8  3  1  0  0  0  0
  9  4  1  0  0  0  0
 10 20  1  0  0  0  0
 11  5  1  0  0  0  0
 11 10  2  0  0  0  0
 12 11  1  0  0  0  0
 13 12  2  0  0  0  0
 13 14  1  0  0  0  0
 14 15  2  0  0  0  0
 15 10  1  0  0  0  0
 15 19  1  0  0  0  0
 16 12  1  0  0  0  0
 17 13  1  0  0  0  0
 18 14  1  0  0  0  0
 20 21  2  0  0  0  0
 20 23  1  0  0  0  0
 22 20  2  0  0  0  0
 23 24  1  0  0  0  0
 24 25  1  0  0  0  0
 26 31  1  0  0  0  0
 27 26  2  0  0  0  0
 27 28  1  0  0  0  0
 28 29  2  0  0  0  0
 29 30  1  0  0  0  0
 30 34  1  0  0  0  0
 31 30  2  0  0  0  0
 32 26  1  0  0  0  0
 33 28  1  0  0  0  0
M  END
>  <minimizedAffinity>
-5.55728865

$$$$

 OpenBabel03262522343D

 34 36  0  0  0  0  0  0  0  0999 V2000
   36.3450   23.7830   31.6650 C   0  0  0  0  0  0  0  0  0  0  0  0
   35.3790   24.6420   31.2220 C   0  0  0  0  0  0  0  0  0  0  0  0
   35.5100   26.0150   31.1720 C   0  0  0  0  0  0  0  0  0  0  0  0
   36.7020   26.5850   31.5980 C   0  0  0  0  0  0  0  0  0  0  0  0
   37.6720   25.7090   32.0440 C   0  0  0  0  0  0  0  0  0  0  0  0
   37.4480   24.4070   32.0530 N   0  0  0  0  0  0  0  0  0  0  0  0
   34.4070   24.2730   30.8670 H   0  0  0  0  0  0  0  0  0  0  0  0
   34.7250   26.6580   30.8160 H   0  0  0  0  0  0  0  0  0  0  0  0
   36.7920   27.6710   31.5530 H   0  0  0  0  0  0  0  0  0  0  0  0
   39.1330   26.5050   33.8490 C   0  0  0  0  0  0  0  0  0  0  0  0
   38.9320   26.2980   32.4850 C   0  0  0  0  0  0  0  0  0  0  0  0
   39.9360   26.6580   31.6200 C   0  0  0  0  0  0  0  0  0  0  0  0
   41.1410   27.2140   31.9930 C   0  0  0  0  0  0  0  0  0  0  0  0
   41.3590   27.4270   33.3300 C   0  0  0  0  0  0  0  0  0  0  0  0
   40.3570   27.0690   34.2050 C   0  0  0  0  0  0  0  0  0  0  0  0
   39.6830   26.4540   30.5580 H   0  0  0  0  0  0  0  0  0  0  0  0
   41.8600   27.4580   31.2260 H   0  0  0  0  0  0  0  0  0  0  0  0
   42.2790   27.8580   33.6800 H   0  0  0  0  0  0  0  0  0  0  0  0
   40.5370   27.2430   35.2850 H   0  0  0  0  0  0  0  0  0  0  0  0
   37.9650   26.1530   35.0730 S   0  0  0  0  0  0  0  0  0  0  0  0
   38.5270   26.7530   36.3720 O   0  0  0  0  0  0  0  0  0  0  0  0
   36.6860   26.8720   34.8170 O   0  0  0  0  0  0  0  0  0  0  0  0
   37.8410   24.4920   35.6070 C   0  0  0  0  0  2  0  0  0  0  0  0
   38.0630   24.5170   37.1150 C   0  0  0  0  0  2  0  0  0  0  0  0
   39.1250   24.3380   37.3710 H   0  0  0  0  0  0  0  0  0  0  0  0
   35.1120   21.6910   32.3280 C   0  0  0  0  0  0  0  0  0  0  0  0
   36.1760   22.3590   31.6900 C   0  0  0  0  0  0  0  0  0  0  0  0
   37.1400   21.5770   31.0170 C   0  0  0  0  0  0  0  0  0  0  0  0
   36.9930   20.2090   31.0170 N   0  0  0  0  0  0  0  0  0  0  0  0
   35.9330   19.6220   31.6580 C   0  0  0  0  0  0  0  0  0  0  0  0
   35.0020   20.3540   32.3070 N   0  0  0  0  0  0  0  0  0  0  0  0
   34.4490   22.3980   32.8030 H   0  0  0  0  0  0  0  0  0  0  0  0
   37.9770   22.0410   30.5120 H   0  0  0  0  0  0  0  0  0  0  0  0
   35.8320   18.5450   31.6480 H   0  0  0  0  0  0  0  0  0  0  0  0
  1 27  1  0  0  0  0
  1  6  1  0  0  0  0
  2  1  2  0  0  0  0
  3  2  1  0  0  0  0
  3  4  2  0  0  0  0
  4  5  1  0  0  0  0
  5  6  2  0  0  0  0
  5 11  1  0  0  0  0
  7  2  1  0  0  0  0
  8  3  1  0  0  0  0
  9  4  1  0  0  0  0
 10 15  1  0  0  0  0
 10 20  1  0  0  0  0
 11 10  2  0  0  0  0
 12 13  2  0  0  0  0
 12 11  1  0  0  0  0
 13 14  1  0  0  0  0
 14 18  1  0  0  0  0
 14 15  2  0  0  0  0
 15 19  1  0  0  0  0
 16 12  1  0  0  0  0
 17 13  1  0  0  0  0
 20 23  1  0  0  0  0
 20 21  2  0  0  0  0
 22 20  2  0  0  0  0
 23 24  1  0  0  0  0
 24 25  1  0  0  0  0
 26 32  1  0  0  0  0
 27 26  2  0  0  0  0
 28 27  1  0  0  0  0
 29 28  2  0  0  0  0
 29 30  1  0  0  0  0
 30 31  2  0  0  0  0
 31 26  1  0  0  0  0
 33 28  1  0  0  0  0
 34 30  1  0  0  0  0
M  END
>  <minimizedAffinity>
-5.40511894

$$$$

 OpenBabel03262522343D

 34 36  0  0  0  0  0  0  0  0999 V2000
   36.1130   28.4740   32.1720 C   0  0  0  0  0  0  0  0  0  0  0  0
   36.5470   29.3370   31.2050 C   0  0  0  0  0  0  0  0  0  0  0  0
   36.4630   30.7120   31.2820 C   0  0  0  0  0  0  0  0  0  0  0  0
   35.9000   31.2810   32.4160 C   0  0  0  0  0  0  0  0  0  0  0  0
   35.4640   30.4010   33.3870 C   0  0  0  0  0  0  0  0  0  0  0  0
   35.5900   29.0970   33.2180 N   0  0  0  0  0  0  0  0  0  0  0  0
   37.0050   28.9690   30.2770 H   0  0  0  0  0  0  0  0  0  0  0  0
   36.8170   31.3580   30.4980 H   0  0  0  0  0  0  0  0  0  0  0  0
   35.8390   32.3690   32.4640 H   0  0  0  0  0  0  0  0  0  0  0  0
   33.4940   31.1350   34.6550 C   0  0  0  0  0  0  0  0  0  0  0  0
   34.8790   30.9900   34.5880 C   0  0  0  0  0  0  0  0  0  0  0  0
   35.6280   31.4060   35.6610 C   0  0  0  0  0  0  0  0  0  0  0  0
   35.1180   31.9650   36.8130 C   0  0  0  0  0  0  0  0  0  0  0  0
   33.7570   32.1180   36.9010 C   0  0  0  0  0  0  0  0  0  0  0  0
   32.9990   31.7030   35.8290 C   0  0  0  0  0  0  0  0  0  0  0  0
   36.7180   31.2490   35.5130 H   0  0  0  0  0  0  0  0  0  0  0  0
   35.8010   32.2570   37.5960 H   0  0  0  0  0  0  0  0  0  0  0  0
   33.3030   32.5480   37.7740 H   0  0  0  0  0  0  0  0  0  0  0  0
   31.9000   31.8280   35.9020 H   0  0  0  0  0  0  0  0  0  0  0  0
   32.4040   30.7070   33.3860 S   0  0  0  0  0  0  0  0  0  0  0  0
   31.0000   31.0650   33.9000 O   0  0  0  0  0  0  0  0  0  0  0  0
   32.6210   31.5570   32.1820 O   0  0  0  0  0  0  0  0  0  0  0  0
   32.1320   29.0010   33.1060 C   0  0  0  0  0  2  0  0  0  0  0  0
   31.1310   28.5550   34.1660 C   0  0  0  0  0  2  0  0  0  0  0  0
   31.6430   28.1500   35.0600 H   0  0  0  0  0  0  0  0  0  0  0  0
   35.5670   26.2650   31.0950 C   0  0  0  0  0  0  0  0  0  0  0  0
   36.2300   27.0490   32.0600 C   0  0  0  0  0  0  0  0  0  0  0  0
   37.0780   26.3920   32.9770 C   0  0  0  0  0  0  0  0  0  0  0  0
   37.2160   25.0250   32.8830 N   0  0  0  0  0  0  0  0  0  0  0  0
   36.5410   24.3220   31.9200 C   0  0  0  0  0  0  0  0  0  0  0  0
   35.7250   24.9350   31.0340 N   0  0  0  0  0  0  0  0  0  0  0  0
   34.9520   26.8840   30.4600 H   0  0  0  0  0  0  0  0  0  0  0  0
   37.6100   26.9470   33.7390 H   0  0  0  0  0  0  0  0  0  0  0  0
   36.6600   23.2490   31.8590 H   0  0  0  0  0  0  0  0  0  0  0  0
  1  6  1  0  0  0  0
  2  3  1  0  0  0  0
  2  1  2  0  0  0  0
  3  4  2  0  0  0  0
  4  9  1  0  0  0  0
  4  5  1  0  0  0  0
  5 11  1  0  0  0  0
  6  5  2  0  0  0  0
  7  2  1  0  0  0  0
  8  3  1  0  0  0  0
 10 15  1  0  0  0  0
 11 10  2  0  0  0  0
 11 12  1  0  0  0  0
 12 13  2  0  0  0  0
 13 14  1  0  0  0  0
 13 17  1  0  0  0  0
 14 18  1  0  0  0  0
 15 19  1  0  0  0  0
 15 14  2  0  0  0  0
 16 12  1  0  0  0  0
 20 21  2  0  0  0  0
 20 10  1  0  0  0  0
 22 20  2  0  0  0  0
 23 20  1  0  0  0  0
 23 24  1  0  0  0  0
 24 25  1  0  0  0  0
 26 27  1  0  0  0  0
 27  1  1  0  0  0  0
 27 28  2  0  0  0  0
 28 33  1  0  0  0  0
 29 28  1  0  0  0  0
 30 29  2  0  0  0  0
 31 26  2  0  0  0  0
 31 30  1  0  0  0  0
 32 26  1  0  0  0  0
 34 30  1  0  0  0  0
M  END
>  <minimizedAffinity>
-5.24593735

$$$$

 OpenBabel03262522343D

 34 36  0  0  0  0  0  0  0  0999 V2000
   40.3580   23.2770   36.6750 C   0  0  0  0  0  0  0  0  0  0  0  0
   39.6100   22.9260   37.7630 C   0  0  0  0  0  0  0  0  0  0  0  0
   38.3430   23.4020   38.0340 C   0  0  0  0  0  0  0  0  0  0  0  0
   37.7690   24.3050   37.1490 C   0  0  0  0  0  0  0  0  0  0  0  0
   38.5330   24.6520   36.0520 C   0  0  0  0  0  0  0  0  0  0  0  0
   39.7380   24.1400   35.8830 N   0  0  0  0  0  0  0  0  0  0  0  0
   39.9900   22.2180   38.5120 H   0  0  0  0  0  0  0  0  0  0  0  0
   37.7860   23.1010   38.9030 H   0  0  0  0  0  0  0  0  0  0  0  0
   36.7680   24.6730   37.3740 H   0  0  0  0  0  0  0  0  0  0  0  0
   37.6450   25.1540   33.8190 C   0  0  0  0  0  0  0  0  0  0  0  0
   37.9340   25.5930   35.1100 C   0  0  0  0  0  0  0  0  0  0  0  0
   37.6370   26.8940   35.4350 C   0  0  0  0  0  0  0  0  0  0  0  0
   37.0700   27.8140   34.5800 C   0  0  0  0  0  0  0  0  0  0  0  0
   36.7780   27.4040   33.3030 C   0  0  0  0  0  0  0  0  0  0  0  0
   37.0740   26.1010   32.9690 C   0  0  0  0  0  0  0  0  0  0  0  0
   37.9020   27.1470   36.4840 H   0  0  0  0  0  0  0  0  0  0  0  0
   36.8790   28.8120   34.9420 H   0  0  0  0  0  0  0  0  0  0  0  0
   36.3370   28.0780   32.5920 H   0  0  0  0  0  0  0  0  0  0  0  0
   36.8370   25.7730   31.9360 H   0  0  0  0  0  0  0  0  0  0  0  0
   37.9910   23.5700   33.2250 S   0  0  0  0  0  0  0  0  0  0  0  0
   37.1210   23.3940   31.9690 O   0  0  0  0  0  0  0  0  0  0  0  0
   39.4010   23.4670   32.7560 O   0  0  0  0  0  0  0  0  0  0  0  0
   37.3660   22.2170   34.1430 C   0  0  0  0  0  2  0  0  0  0  0  0
   36.7890   21.2450   33.1200 C   0  0  0  0  0  2  0  0  0  0  0  0
   35.7070   21.4160   32.9640 H   0  0  0  0  0  0  0  0  0  0  0  0
   42.7280   23.4820   35.8510 C   0  0  0  0  0  0  0  0  0  0  0  0
   41.6680   22.7500   36.4210 C   0  0  0  0  0  0  0  0  0  0  0  0
   41.9090   21.4060   36.7780 C   0  0  0  0  0  0  0  0  0  0  0  0
   43.1610   20.8800   36.5540 N   0  0  0  0  0  0  0  0  0  0  0  0
   44.1490   21.6480   35.9950 C   0  0  0  0  0  0  0  0  0  0  0  0
   43.9360   22.9360   35.6470 N   0  0  0  0  0  0  0  0  0  0  0  0
   42.4150   24.4900   35.6240 H   0  0  0  0  0  0  0  0  0  0  0  0
   41.1280   20.7990   37.2180 H   0  0  0  0  0  0  0  0  0  0  0  0
   45.1280   21.2200   35.8260 H   0  0  0  0  0  0  0  0  0  0  0  0
  1  2  1  0  0  0  0
  2  3  2  0  0  0  0
  2  7  1  0  0  0  0
  3  8  1  0  0  0  0
  4  9  1  0  0  0  0
  4  3  1  0  0  0  0
  5  4  2  0  0  0  0
  6  5  1  0  0  0  0
  6  1  2  0  0  0  0
 10 11  1  0  0  0  0
 11 12  2  0  0  0  0
 11  5  1  0  0  0  0
 12 16  1  0  0  0  0
 13 17  1  0  0  0  0
 13 12  1  0  0  0  0
 14 13  2  0  0  0  0
 15 14  1  0  0  0  0
 15 10  2  0  0  0  0
 18 14  1  0  0  0  0
 19 15  1  0  0  0  0
 20 10  1  0  0  0  0
 20 23  1  0  0  0  0
 21 20  2  0  0  0  0
 22 20  2  0  0  0  0
 24 23  1  0  0  0  0
 25 24  1  0  0  0  0
 26 27  1  0  0  0  0
 27  1  1  0  0  0  0
 27 28  2  0  0  0  0
 28 33  1  0  0  0  0
 29 28  1  0  0  0  0
 30 29  2  0  0  0  0
 31 26  2  0  0  0  0
 31 30  1  0  0  0  0
 32 26  1  0  0  0  0
 34 30  1  0  0  0  0
M  END
>  <minimizedAffinity>
-5.23693466

$$$$

 OpenBabel03262522343D

 34 36  0  0  0  0  0  0  0  0999 V2000
   36.0480   22.9340   31.9400 C   0  0  0  0  0  0  0  0  0  0  0  0
   35.3060   23.6980   31.0840 C   0  0  0  0  0  0  0  0  0  0  0  0
   35.4070   25.0690   30.9640 C   0  0  0  0  0  0  0  0  0  0  0  0
   36.3220   25.7400   31.7640 C   0  0  0  0  0  0  0  0  0  0  0  0
   37.0670   24.9590   32.6250 C   0  0  0  0  0  0  0  0  0  0  0  0
   36.8950   23.6500   32.6650 N   0  0  0  0  0  0  0  0  0  0  0  0
   34.5600   23.2450   30.4170 H   0  0  0  0  0  0  0  0  0  0  0  0
   34.8040   25.6350   30.2770 H   0  0  0  0  0  0  0  0  0  0  0  0
   36.3920   26.8240   31.6590 H   0  0  0  0  0  0  0  0  0  0  0  0
   39.3880   25.5900   33.1170 C   0  0  0  0  0  0  0  0  0  0  0  0
   38.0390   25.6550   33.4640 C   0  0  0  0  0  0  0  0  0  0  0  0
   37.6890   26.3750   34.5790 C   0  0  0  0  0  0  0  0  0  0  0  0
   38.5720   27.0470   35.3960 C   0  0  0  0  0  0  0  0  0  0  0  0
   39.9050   26.9970   35.0750 C   0  0  0  0  0  0  0  0  0  0  0  0
   40.2640   26.2760   33.9570 C   0  0  0  0  0  0  0  0  0  0  0  0
   36.5950   26.3670   34.7710 H   0  0  0  0  0  0  0  0  0  0  0  0
   38.1860   27.5840   36.2490 H   0  0  0  0  0  0  0  0  0  0  0  0
   40.6400   27.5010   35.6750 H   0  0  0  0  0  0  0  0  0  0  0  0
   41.3420   26.2370   33.7010 H   0  0  0  0  0  0  0  0  0  0  0  0
   40.0110   24.6970   31.7770 S   0  0  0  0  0  0  0  0  0  0  0  0
   41.4750   25.1400   31.6220 O   0  0  0  0  0  0  0  0  0  0  0  0
   40.0600   23.2390   32.0790 O   0  0  0  0  0  0  0  0  0  0  0  0
   39.4520   25.1520   30.1820 C   0  0  0  0  0  2  0  0  0  0  0  0
   38.8750   23.8850   29.5610 C   0  0  0  0  0  2  0  0  0  0  0  0
   39.6310   23.3510   28.9550 H   0  0  0  0  0  0  0  0  0  0  0  0
   35.5870   20.8020   33.1990 C   0  0  0  0  0  0  0  0  0  0  0  0
   35.9230   21.5070   32.0260 C   0  0  0  0  0  0  0  0  0  0  0  0
   36.1430   20.7630   30.8470 C   0  0  0  0  0  0  0  0  0  0  0  0
   36.0180   19.3930   30.9020 N   0  0  0  0  0  0  0  0  0  0  0  0
   35.6890   18.7700   32.0770 C   0  0  0  0  0  0  0  0  0  0  0  0
   35.4750   19.4660   33.2150 N   0  0  0  0  0  0  0  0  0  0  0  0
   35.4470   21.4840   34.0250 H   0  0  0  0  0  0  0  0  0  0  0  0
   36.4040   21.2550   29.9200 H   0  0  0  0  0  0  0  0  0  0  0  0
   35.5940   17.6920   32.1030 H   0  0  0  0  0  0  0  0  0  0  0  0
  1 27  1  0  0  0  0
  1  6  1  0  0  0  0
  2  1  2  0  0  0  0
  3  2  1  0  0  0  0
  3  4  2  0  0  0  0
  4  5  1  0  0  0  0
  5  6  2  0  0  0  0
  5 11  1  0  0  0  0
  7  2  1  0  0  0  0
  8  3  1  0  0  0  0
  9  4  1  0  0  0  0
 10 11  2  0  0  0  0
 10 15  1  0  0  0  0
 11 12  1  0  0  0  0
 12 16  1  0  0  0  0
 12 13  2  0  0  0  0
 13 17  1  0  0  0  0
 14 13  1  0  0  0  0
 14 18  1  0  0  0  0
 15 14  2  0  0  0  0
 19 15  1  0  0  0  0
 20 22  2  0  0  0  0
 20 10  1  0  0  0  0
 21 20  2  0  0  0  0
 23 20  1  0  0  0  0
 24 23  1  0  0  0  0
 25 24  1  0  0  0  0
 26 31  1  0  0  0  0
 26 32  1  0  0  0  0
 27 26  2  0  0  0  0
 28 29  2  0  0  0  0
 28 27  1  0  0  0  0
 29 30  1  0  0  0  0
 30 34  1  0  0  0  0
 30 31  2  0  0  0  0
 33 28  1  0  0  0  0
M  END
>  <minimizedAffinity>
-5.12949133

$$$$

 OpenBabel03262522343D

 34 36  0  0  0  0  0  0  0  0999 V2000
   37.3140   25.7920   33.0810 C   0  0  0  0  0  0  0  0  0  0  0  0
   36.8320   24.8200   32.2510 C   0  0  0  0  0  0  0  0  0  0  0  0
   37.3600   23.5490   32.1380 C   0  0  0  0  0  0  0  0  0  0  0  0
   38.4610   23.2150   32.9150 C   0  0  0  0  0  0  0  0  0  0  0  0
   38.9400   24.2050   33.7500 C   0  0  0  0  0  0  0  0  0  0  0  0
   38.3630   25.3920   33.7860 N   0  0  0  0  0  0  0  0  0  0  0  0
   35.9640   25.0020   31.6030 H   0  0  0  0  0  0  0  0  0  0  0  0
   36.9510   22.8100   31.4710 H   0  0  0  0  0  0  0  0  0  0  0  0
   38.8680   22.2080   32.8160 H   0  0  0  0  0  0  0  0  0  0  0  0
   39.8690   23.4130   35.8810 C   0  0  0  0  0  0  0  0  0  0  0  0
   40.0910   23.8600   34.5790 C   0  0  0  0  0  0  0  0  0  0  0  0
   41.3880   23.9530   34.1370 C   0  0  0  0  0  0  0  0  0  0  0  0
   42.5030   23.6360   34.8830 C   0  0  0  0  0  0  0  0  0  0  0  0
   42.3080   23.1950   36.1670 C   0  0  0  0  0  0  0  0  0  0  0  0
   41.0100   23.1000   36.6180 C   0  0  0  0  0  0  0  0  0  0  0  0
   41.4610   24.3170   33.0900 H   0  0  0  0  0  0  0  0  0  0  0  0
   43.4780   23.7470   34.4340 H   0  0  0  0  0  0  0  0  0  0  0  0
   43.1390   22.9340   36.7970 H   0  0  0  0  0  0  0  0  0  0  0  0
   40.8560   22.7420   37.6570 H   0  0  0  0  0  0  0  0  0  0  0  0
   38.3110   23.2770   36.6140 S   0  0  0  0  0  0  0  0  0  0  0  0
   37.6410   24.6480   36.4310 O   0  0  0  0  0  0  0  0  0  0  0  0
   37.4540   22.3070   35.8780 O   0  0  0  0  0  0  0  0  0  0  0  0
   38.2530   23.2100   38.3620 C   0  0  0  0  0  2  0  0  0  0  0  0
   37.9840   24.6360   38.8280 C   0  0  0  0  0  2  0  0  0  0  0  0
   38.9250   25.1730   39.0530 H   0  0  0  0  0  0  0  0  0  0  0  0
   36.6370   27.8450   34.3720 C   0  0  0  0  0  0  0  0  0  0  0  0
   36.7290   27.0980   33.1810 C   0  0  0  0  0  0  0  0  0  0  0  0
   36.2200   27.6760   31.9980 C   0  0  0  0  0  0  0  0  0  0  0  0
   35.6640   28.9330   32.0660 N   0  0  0  0  0  0  0  0  0  0  0  0
   35.6060   29.6050   33.2590 C   0  0  0  0  0  0  0  0  0  0  0  0
   36.0880   29.0680   34.4000 N   0  0  0  0  0  0  0  0  0  0  0  0
   37.0590   27.2930   35.2000 H   0  0  0  0  0  0  0  0  0  0  0  0
   36.2650   27.1440   31.0560 H   0  0  0  0  0  0  0  0  0  0  0  0
   35.1660   30.5930   33.2950 H   0  0  0  0  0  0  0  0  0  0  0  0
  1 27  1  0  0  0  0
  1  6  1  0  0  0  0
  2  1  2  0  0  0  0
  3  2  1  0  0  0  0
  3  4  2  0  0  0  0
  4  5  1  0  0  0  0
  5  6  2  0  0  0  0
  5 11  1  0  0  0  0
  7  2  1  0  0  0  0
  8  3  1  0  0  0  0
  9  4  1  0  0  0  0
 10 20  1  0  0  0  0
 10 15  1  0  0  0  0
 11 10  2  0  0  0  0
 12 11  1  0  0  0  0
 12 13  2  0  0  0  0
 13 14  1  0  0  0  0
 14 15  2  0  0  0  0
 14 18  1  0  0  0  0
 15 19  1  0  0  0  0
 16 12  1  0  0  0  0
 17 13  1  0  0  0  0
 20 23  1  0  0  0  0
 21 20  2  0  0  0  0
 22 20  2  0  0  0  0
 23 24  1  0  0  0  0
 24 25  1  0  0  0  0
 26 31  1  0  0  0  0
 26 32  1  0  0  0  0
 27 26  2  0  0  0  0
 28 29  2  0  0  0  0
 28 27  1  0  0  0  0
 29 30  1  0  0  0  0
 30 34  1  0  0  0  0
 30 31  2  0  0  0  0
 33 28  1  0  0  0  0
M  END
>  <minimizedAffinity>
-5.06366968

$$$$

 OpenBabel03262522343D

 34 36  0  0  0  0  0  0  0  0999 V2000
   37.7440   22.1770   35.1830 C   0  0  0  0  0  0  0  0  0  0  0  0
   37.1290   22.4790   36.3660 C   0  0  0  0  0  0  0  0  0  0  0  0
   37.7320   23.1350   37.4200 C   0  0  0  0  0  0  0  0  0  0  0  0
   39.0580   23.5240   37.2900 C   0  0  0  0  0  0  0  0  0  0  0  0
   39.6690   23.2150   36.0920 C   0  0  0  0  0  0  0  0  0  0  0  0
   39.0040   22.5820   35.1420 N   0  0  0  0  0  0  0  0  0  0  0  0
   36.0810   22.2070   36.5500 H   0  0  0  0  0  0  0  0  0  0  0  0
   37.2130   23.3550   38.3360 H   0  0  0  0  0  0  0  0  0  0  0  0
   39.5220   24.0420   38.1310 H   0  0  0  0  0  0  0  0  0  0  0  0
   41.3380   24.8040   35.2440 C   0  0  0  0  0  0  0  0  0  0  0  0
   41.0610   23.6290   35.9410 C   0  0  0  0  0  0  0  0  0  0  0  0
   42.1160   22.9160   36.4570 C   0  0  0  0  0  0  0  0  0  0  0  0
   43.4430   23.2710   36.3410 C   0  0  0  0  0  0  0  0  0  0  0  0
   43.7380   24.4230   35.6590 C   0  0  0  0  0  0  0  0  0  0  0  0
   42.6860   25.1430   35.1370 C   0  0  0  0  0  0  0  0  0  0  0  0
   41.7940   21.9990   36.9940 H   0  0  0  0  0  0  0  0  0  0  0  0
   44.1920   22.6350   36.7870 H   0  0  0  0  0  0  0  0  0  0  0  0
   44.7550   24.7500   35.5350 H   0  0  0  0  0  0  0  0  0  0  0  0
   42.9290   26.0740   34.5860 H   0  0  0  0  0  0  0  0  0  0  0  0
   40.1430   25.7990   34.4930 S   0  0  0  0  0  0  0  0  0  0  0  0
   40.8930   27.0400   33.9810 O   0  0  0  0  0  0  0  0  0  0  0  0
   39.5790   25.1400   33.2820 O   0  0  0  0  0  0  0  0  0  0  0  0
   39.0080   26.6190   35.5430 C   0  0  0  0  0  2  0  0  0  0  0  0
   37.6210   26.1800   35.0880 C   0  0  0  0  0  2  0  0  0  0  0  0
   37.1920   26.8900   34.3570 H   0  0  0  0  0  0  0  0  0  0  0  0
   35.8650   20.7990   34.2280 C   0  0  0  0  0  0  0  0  0  0  0  0
   37.0790   21.5040   34.1040 C   0  0  0  0  0  0  0  0  0  0  0  0
   37.6810   21.5660   32.8290 C   0  0  0  0  0  0  0  0  0  0  0  0
   37.0560   20.9380   31.7760 N   0  0  0  0  0  0  0  0  0  0  0  0
   35.8760   20.2680   31.9660 C   0  0  0  0  0  0  0  0  0  0  0  0
   35.2860   20.1990   33.1790 N   0  0  0  0  0  0  0  0  0  0  0  0
   35.5120   20.8260   35.2490 H   0  0  0  0  0  0  0  0  0  0  0  0
   38.6140   22.0950   32.6800 H   0  0  0  0  0  0  0  0  0  0  0  0
   35.3970   19.7800   31.1270 H   0  0  0  0  0  0  0  0  0  0  0  0
  1  2  1  0  0  0  0
  2  7  1  0  0  0  0
  2  3  2  0  0  0  0
  3  8  1  0  0  0  0
  4  3  1  0  0  0  0
  4  9  1  0  0  0  0
  5  4  2  0  0  0  0
  6  1  2  0  0  0  0
  6  5  1  0  0  0  0
 10 11  1  0  0  0  0
 11  5  1  0  0  0  0
 11 12  2  0  0  0  0
 12 16  1  0  0  0  0
 13 12  1  0  0  0  0
 13 17  1  0  0  0  0
 14 13  2  0  0  0  0
 15 10  2  0  0  0  0
 15 14  1  0  0  0  0
 18 14  1  0  0  0  0
 19 15  1  0  0  0  0
 20 10  1  0  0  0  0
 20 23  1  0  0  0  0
 21 20  2  0  0  0  0
 22 20  2  0  0  0  0
 24 23  1  0  0  0  0
 25 24  1  0  0  0  0
 26 32  1  0  0  0  0
 27 26  1  0  0  0  0
 27  1  1  0  0  0  0
 28 27  2  0  0  0  0
 29 30  2  0  0  0  0
 29 28  1  0  0  0  0
 30 31  1  0  0  0  0
 31 26  2  0  0  0  0
 33 28  1  0  0  0  0
 34 30  1  0  0  0  0
M  END
>  <minimizedAffinity>
-5.02131033

$$$$

 OpenBabel03262522343D

 34 36  0  0  0  0  0  0  0  0999 V2000
   38.1980   24.0790   34.5230 C   0  0  0  0  0  0  0  0  0  0  0  0
   37.7730   25.2810   34.0320 C   0  0  0  0  0  0  0  0  0  0  0  0
   37.5130   25.5400   32.7010 C   0  0  0  0  0  0  0  0  0  0  0  0
   37.6900   24.5180   31.7780 C   0  0  0  0  0  0  0  0  0  0  0  0
   38.1200   23.3080   32.2850 C   0  0  0  0  0  0  0  0  0  0  0  0
   38.3420   23.1610   33.5780 N   0  0  0  0  0  0  0  0  0  0  0  0
   37.6070   26.1410   34.6950 H   0  0  0  0  0  0  0  0  0  0  0  0
   37.1780   26.5020   32.3540 H   0  0  0  0  0  0  0  0  0  0  0  0
   37.4810   24.7360   30.7300 H   0  0  0  0  0  0  0  0  0  0  0  0
   37.2950   21.2670   31.1980 C   0  0  0  0  0  0  0  0  0  0  0  0
   38.3010   22.2240   31.3230 C   0  0  0  0  0  0  0  0  0  0  0  0
   39.4150   22.1010   30.5310 C   0  0  0  0  0  0  0  0  0  0  0  0
   39.6260   21.0970   29.6110 C   0  0  0  0  0  0  0  0  0  0  0  0
   38.6490   20.1440   29.4710 C   0  0  0  0  0  0  0  0  0  0  0  0
   37.5280   20.2590   30.2620 C   0  0  0  0  0  0  0  0  0  0  0  0
   40.1570   22.9100   30.7040 H   0  0  0  0  0  0  0  0  0  0  0  0
   40.5420   21.0990   29.0400 H   0  0  0  0  0  0  0  0  0  0  0  0
   38.7590   19.3370   28.7700 H   0  0  0  0  0  0  0  0  0  0  0  0
   36.7410   19.4870   30.1460 H   0  0  0  0  0  0  0  0  0  0  0  0
   35.8480   21.2400   32.1410 S   0  0  0  0  0  0  0  0  0  0  0  0
   36.2970   20.9850   33.5890 O   0  0  0  0  0  0  0  0  0  0  0  0
   35.1890   22.5760   32.1520 O   0  0  0  0  0  0  0  0  0  0  0  0
   34.8020   19.8480   31.9630 C   0  0  0  0  0  2  0  0  0  0  0  0
   35.4000   18.7580   32.8460 C   0  0  0  0  0  2  0  0  0  0  0  0
   36.0820   18.1020   32.2720 H   0  0  0  0  0  0  0  0  0  0  0  0
   37.6610   24.3640   36.9660 C   0  0  0  0  0  0  0  0  0  0  0  0
   38.4450   23.8450   35.9160 C   0  0  0  0  0  0  0  0  0  0  0  0
   39.5460   23.0280   36.2540 C   0  0  0  0  0  0  0  0  0  0  0  0
   39.7960   22.7800   37.5850 N   0  0  0  0  0  0  0  0  0  0  0  0
   38.9930   23.3170   38.5570 C   0  0  0  0  0  0  0  0  0  0  0  0
   37.9360   24.1010   38.2520 N   0  0  0  0  0  0  0  0  0  0  0  0
   36.8560   24.9690   36.5750 H   0  0  0  0  0  0  0  0  0  0  0  0
   40.1800   22.6050   35.4870 H   0  0  0  0  0  0  0  0  0  0  0  0
   39.2030   23.1120   39.5980 H   0  0  0  0  0  0  0  0  0  0  0  0
  1 27  1  0  0  0  0
  2  1  1  0  0  0  0
  2  7  1  0  0  0  0
  3  2  2  0  0  0  0
  4  5  2  0  0  0  0
  4  3  1  0  0  0  0
  5  6  1  0  0  0  0
  6  1  2  0  0  0  0
  8  3  1  0  0  0  0
  9  4  1  0  0  0  0
 10 11  1  0  0  0  0
 10 20  1  0  0  0  0
 11  5  1  0  0  0  0
 12 16  1  0  0  0  0
 12 11  2  0  0  0  0
 13 12  1  0  0  0  0
 14 13  2  0  0  0  0
 14 15  1  0  0  0  0
 15 10  2  0  0  0  0
 17 13  1  0  0  0  0
 18 14  1  0  0  0  0
 19 15  1  0  0  0  0
 20 22  2  0  0  0  0
 20 21  2  0  0  0  0
 23 20  1  0  0  0  0
 23 24  1  0  0  0  0
 25 24  1  0  0  0  0
 26 31  1  0  0  0  0
 27 28  1  0  0  0  0
 27 26  2  0  0  0  0
 28 29  2  0  0  0  0
 29 30  1  0  0  0  0
 30 34  1  0  0  0  0
 31 30  2  0  0  0  0
 32 26  1  0  0  0  0
 33 28  1  0  0  0  0
M  END
>  <minimizedAffinity>
-5.00365257

$$$$
