
 OpenBabel03272510113D

 29 31  0  0  0  0  0  0  0  0999 V2000
   34.0290   28.8190   48.2940 C   0  0  0  0  0  0  0  0  0  0  0  0
   34.6490   28.3760   49.4180 C   0  0  0  0  0  0  0  0  0  0  0  0
   35.8840   28.7980   49.8550 C   0  0  0  0  0  0  0  0  0  0  0  0
   36.5770   29.7300   49.1410 C   0  0  0  0  0  0  0  0  0  0  0  0
   35.9490   30.1970   47.9790 C   0  0  0  0  0  0  0  0  0  0  0  0
   34.7380   29.7530   47.5900 N   0  0  0  0  0  0  0  0  0  0  0  0
   34.1700   27.6350   50.0440 H   0  0  0  0  0  0  0  0  0  0  0  0
   36.3700   28.4400   50.7510 H   0  0  0  0  0  0  0  0  0  0  0  0
   36.3930   30.9350   47.3270 H   0  0  0  0  0  0  0  0  0  0  0  0
   31.9260   27.5120   48.5630 C   0  0  0  0  0  0  0  0  0  0  0  0
   32.7490   28.3810   47.8310 C   0  0  0  0  0  0  0  0  0  0  0  0
   32.2770   28.8000   46.6170 C   0  0  0  0  0  0  0  0  0  0  0  0
   31.0550   28.3700   46.1750 N   0  0  0  0  0  0  0  0  0  0  0  0
   30.2970   27.5240   46.9320 C   0  0  0  0  0  0  0  0  0  0  0  0
   30.7240   27.0840   48.1380 N   0  0  0  0  0  0  0  0  0  0  0  0
   32.2530   27.1520   49.5300 H   0  0  0  0  0  0  0  0  0  0  0  0
   32.8610   29.4680   46.0090 H   0  0  0  0  0  0  0  0  0  0  0  0
   29.3510   27.2710   46.4460 H   0  0  0  0  0  0  0  0  0  0  0  0
   37.8260   30.2700   49.4270 O   0  0  0  0  0  0  0  0  0  0  0  0
   38.3910   31.2670   48.6540 C   0  0  0  0  0  0  0  0  0  0  0  0
   38.4460   32.5090   49.2850 C   0  0  0  0  0  0  0  0  0  0  0  0
   39.0340   33.3990   48.3890 C   0  0  0  0  0  0  0  0  0  0  0  0
   39.3080   32.6980   47.2800 N   0  0  0  0  0  0  0  0  0  0  0  0
   38.9320   31.4530   47.4360 N   0  0  0  0  0  0  0  0  0  0  0  0
   38.1510   32.9080   50.2590 H   0  0  0  0  0  0  0  0  0  0  0  0
   39.2550   34.4600   48.5020 H   0  0  0  0  0  0  0  0  0  0  0  0
   39.9280   33.2370   46.0860 C   0  0  0  0  0  2  0  0  0  0  0  0
   40.6590   32.0990   45.4080 C   0  0  0  0  0  2  0  0  0  0  0  0
   41.7340   32.1780   45.6160 H   0  0  0  0  0  0  0  0  0  0  0  0
  1  2  1  0  0  0  0
  2  3  2  0  0  0  0
  2  7  1  0  0  0  0
  3  8  1  0  0  0  0
  4 19  1  0  0  0  0
  4  3  1  0  0  0  0
  5  4  2  0  0  0  0
  6  5  1  0  0  0  0
  6  1  2  0  0  0  0
  9  5  1  0  0  0  0
 10 16  1  0  0  0  0
 11  1  1  0  0  0  0
 11 10  2  0  0  0  0
 12 11  1  0  0  0  0
 13 12  2  0  0  0  0
 13 14  1  0  0  0  0
 14 15  2  0  0  0  0
 15 10  1  0  0  0  0
 17 12  1  0  0  0  0
 18 14  1  0  0  0  0
 20 21  1  0  0  0  0
 20 19  1  0  0  0  0
 21 25  1  0  0  0  0
 22 26  1  0  0  0  0
 22 21  2  0  0  0  0
 23 24  1  0  0  0  0
 23 22  1  0  0  0  0
 24 20  2  0  0  0  0
 27 23  1  0  0  0  0
 28 29  1  0  0  0  0
 28 27  1  0  0  0  0
M  END
>  <minimizedAffinity>
-5.49755573

>  <minimizedRMSD>
0.629553735

$$$$
