
 OpenBabel03272509423D

 32 33  0  0  1  0  0  0  0  0999 V2000
   37.0810   30.9400   49.0540 C   0  0  0  0  0  0  0  0  0  0  0  0
   36.7960   31.8650   50.0590 C   0  0  0  0  0  0  0  0  0  0  0  0
   37.3860   33.1190   50.0850 C   0  0  0  0  0  0  0  0  0  0  0  0
   38.2920   33.4750   49.0850 C   0  0  0  0  0  0  0  0  0  0  0  0
   38.5610   32.5590   48.1090 C   0  0  0  0  0  0  0  0  0  0  0  0
   37.9540   31.3120   48.1110 C   0  0  0  0  0  0  0  0  0  0  0  0
   36.0960   31.6010   50.8360 H   0  0  0  0  0  0  0  0  0  0  0  0
   37.1150   33.7720   50.8880 H   0  0  0  0  0  0  0  0  0  0  0  0
   38.6960   34.4590   49.1860 H   0  0  0  0  0  0  0  0  0  0  0  0
   39.2850   32.9770   47.4040 H   0  0  0  0  0  0  0  0  0  0  0  0
   36.4910   29.6190   49.0410 C   0  0  2  0  0  0  0  0  0  0  0  0
   36.9860   29.0730   48.1490 H   0  0  0  0  0  0  0  0  0  0  0  0
   33.6230   29.9640   46.8360 C   0  0  0  0  0  0  0  0  0  0  0  0
   32.8820   28.8220   47.0700 C   0  0  0  0  0  0  0  0  0  0  0  0
   33.3270   27.9440   48.0400 C   0  0  0  0  0  0  0  0  0  0  0  0
   34.4820   28.2330   48.7320 N   0  0  0  0  0  0  0  0  0  0  0  0
   35.1470   29.3370   48.4610 C   0  0  0  0  0  0  0  0  0  0  0  0
   34.7260   30.2100   47.5170 N   0  0  0  0  0  0  0  0  0  0  0  0
   33.2970   30.6690   46.0830 H   0  0  0  0  0  0  0  0  0  0  0  0
   31.9870   28.6550   46.4930 H   0  0  0  0  0  0  0  0  0  0  0  0
   32.7610   27.0350   48.2480 H   0  0  0  0  0  0  0  0  0  0  0  0
   36.9630   28.8590   49.9660 O   0  0  0  0  0  0  0  0  0  0  0  0
   37.1600   29.1890   50.8760 H   0  0  0  0  0  0  0  0  0  0  0  0
   38.3550   30.4340   47.0360 C   0  0  0  0  0  3  0  0  0  0  0  0
   38.7170   30.8560   45.8200 C   0  0  0  0  0  3  0  0  0  0  0  0
   39.1820   30.0520   44.6670 C   0  0  0  0  0  0  0  0  0  0  0  0
   38.3030   29.9010   43.9790 H   0  0  0  0  0  0  0  0  0  0  0  0
   39.4910   29.0220   44.9390 H   0  0  0  0  0  0  0  0  0  0  0  0
   40.4680   30.9430   43.7880 S   0  0  0  0  0  0  0  0  0  0  0  0
   40.1590   31.1160   42.0280 C   0  0  0  0  0  2  0  0  0  0  0  0
   39.2400   32.2680   41.7650 C   0  0  0  0  0  2  0  0  0  0  0  0
   38.2600   32.0980   42.2160 H   0  0  0  0  0  0  0  0  0  0  0  0
  1  2  1  0  0  0  0
  2  3  2  0  0  0  0
  2  7  1  0  0  0  0
  3  8  1  0  0  0  0
  4  9  1  0  0  0  0
  4  3  1  0  0  0  0
  5  6  1  0  0  0  0
  5  4  2  0  0  0  0
  6  1  2  0  0  0  0
 10  5  1  0  0  0  0
 11 12  1  6  0  0  0
 11  1  1  0  0  0  0
 11 22  1  0  0  0  0
 13 14  2  0  0  0  0
 13 18  1  0  0  0  0
 14 15  1  0  0  0  0
 15 21  1  0  0  0  0
 15 16  2  0  0  0  0
 17 16  1  0  0  0  0
 17 11  1  0  0  0  0
 18 17  2  0  0  0  0
 19 13  1  0  0  0  0
 20 14  1  0  0  0  0
 22 23  1  0  0  0  0
 24  6  1  0  0  0  0
 25 24  2  0  0  0  0
 26 28  1  0  0  0  0
 26 25  1  0  0  0  0
 27 26  1  0  0  0  0
 29 26  1  0  0  0  0
 30 29  1  0  0  0  0
 31 30  1  0  0  0  0
 31 32  1  0  0  0  0
M  END
>  <minimizedAffinity>
-5.32002306

>  <minimizedRMSD>
0.789948642

$$$$
