
 OpenBabel03272501563D

 25 26  0  0  0  0  0  0  0  0999 V2000
   34.4500   28.4170   48.0250 C   0  0  0  0  0  0  0  0  0  0  0  0
   34.8970   27.5870   47.4550 H   0  0  0  0  0  0  0  0  0  0  0  0
   34.7680   29.4140   47.6350 H   0  0  0  0  0  0  0  0  0  0  0  0
   32.9590   28.2900   47.8630 C   0  0  0  0  0  0  0  0  0  0  0  0
   32.1120   27.5980   48.6830 C   0  0  0  0  0  0  0  0  0  0  0  0
   30.8120   27.6950   48.2370 C   0  0  0  0  0  0  0  0  0  0  0  0
   30.9070   28.4720   47.1170 N   0  0  0  0  0  0  0  0  0  0  0  0
   32.1800   28.8140   46.9120 N   0  0  0  0  0  0  0  0  0  0  0  0
   32.3780   27.0260   49.5860 H   0  0  0  0  0  0  0  0  0  0  0  0
   29.8770   27.2820   48.6260 H   0  0  0  0  0  0  0  0  0  0  0  0
   29.8110   28.8820   46.2570 C   0  0  0  0  0  0  0  0  0  0  0  0
   28.6070   29.3240   47.0610 C   0  0  0  0  0  0  0  0  0  0  0  0
   27.7310   29.3510   46.3690 H   0  0  0  0  0  0  0  0  0  0  0  0
   34.7320   28.2990   49.4930 C   0  0  0  0  0  0  0  0  0  0  0  0
   34.9690   27.2510   49.7980 H   0  0  0  0  0  0  0  0  0  0  0  0
   33.9070   28.6140   50.1390 H   0  0  0  0  0  0  0  0  0  0  0  0
   37.2710   30.1760   51.4160 C   0  0  0  0  0  0  0  0  0  0  0  0
   38.0860   30.7200   50.4150 C   0  0  0  0  0  0  0  0  0  0  0  0
   37.7410   30.4260   49.0730 C   0  0  0  0  0  0  0  0  0  0  0  0
   36.6570   29.6460   48.8230 N   0  0  0  0  0  0  0  0  0  0  0  0
   35.9090   29.1500   49.8470 C   0  0  0  0  0  0  0  0  0  0  0  0
   36.2220   29.4180   51.1100 N   0  0  0  0  0  0  0  0  0  0  0  0
   37.5780   30.4300   52.4250 H   0  0  0  0  0  0  0  0  0  0  0  0
   38.9520   31.3420   50.6040 H   0  0  0  0  0  0  0  0  0  0  0  0
   38.3160   30.8060   48.2270 H   0  0  0  0  0  0  0  0  0  0  0  0
  1 14  1  0  0  0  0
  2  1  1  0  0  0  0
  3  1  1  0  0  0  0
  4  1  1  0  0  0  0
  4  5  1  0  0  0  0
  5  9  1  0  0  0  0
  6 10  1  0  0  0  0
  6  5  2  0  0  0  0
  7  6  1  0  0  0  0
  8  7  1  0  0  0  0
  8  4  2  0  0  0  0
 11 12  1  0  0  0  0
 11  7  1  0  0  0  0
 13 12  1  0  0  0  0
 14 15  1  0  0  0  0
 14 21  1  0  0  0  0
 14 16  1  0  0  0  0
 17 23  1  0  0  0  0
 18 24  1  0  0  0  0
 18 17  2  0  0  0  0
 19 18  1  0  0  0  0
 20 19  2  0  0  0  0
 20 21  1  0  0  0  0
 21 22  2  0  0  0  0
 22 17  1  0  0  0  0
 25 19  1  0  0  0  0
M  END
>  <minimizedAffinity>
-4.37238693

>  <minimizedRMSD>
0.337391108

$$$$
