
 OpenBabel03272506413D

 13 13  0  0  0  0  0  0  0  0999 V2000
   37.9370   23.8700   38.2430 C   0  0  0  0  0  0  0  0  0  0  0  0
   39.0770   23.0890   38.4390 C   0  0  0  0  0  0  0  0  0  0  0  0
   39.9640   22.8920   37.3510 C   0  0  0  0  0  0  0  0  0  0  0  0
   39.6590   23.4770   36.1630 N   0  0  0  0  0  0  0  0  0  0  0  0
   38.5430   24.2250   36.0170 C   0  0  0  0  0  0  0  0  0  0  0  0
   37.6790   24.4320   37.0280 N   0  0  0  0  0  0  0  0  0  0  0  0
   37.2480   24.0380   39.0420 H   0  0  0  0  0  0  0  0  0  0  0  0
   39.3130   22.6300   39.3940 H   0  0  0  0  0  0  0  0  0  0  0  0
   40.8610   22.3010   37.4300 H   0  0  0  0  0  0  0  0  0  0  0  0
   38.1220   24.9960   34.4580 S   0  0  0  0  0  0  0  0  0  0  0  0
   37.3020   26.5890   34.7140 C   0  0  0  0  0  2  0  0  0  0  0  0
   38.1280   27.5540   35.5240 C   0  0  0  0  0  2  0  0  0  0  0  0
   37.8300   28.5830   35.2200 H   0  0  0  0  0  0  0  0  0  0  0  0
  1  2  1  0  0  0  0
  1  7  1  0  0  0  0
  2  8  1  0  0  0  0
  3  9  1  0  0  0  0
  3  2  2  0  0  0  0
  4  3  1  0  0  0  0
  5  4  2  0  0  0  0
  5  6  1  0  0  0  0
  6  1  2  0  0  0  0
 10 11  1  0  0  0  0
 10  5  1  0  0  0  0
 11 12  1  0  0  0  0
 13 12  1  0  0  0  0
M  END
>  <minimizedAffinity>
-3.04162312

$$$$

 OpenBabel03272506413D

 13 13  0  0  0  0  0  0  0  0999 V2000
   35.6590   20.7960   35.4720 C   0  0  0  0  0  0  0  0  0  0  0  0
   35.6520   20.5840   34.0930 C   0  0  0  0  0  0  0  0  0  0  0  0
   36.6910   21.1490   33.3110 C   0  0  0  0  0  0  0  0  0  0  0  0
   37.6470   21.8750   33.9460 N   0  0  0  0  0  0  0  0  0  0  0  0
   37.6140   22.0560   35.2850 C   0  0  0  0  0  0  0  0  0  0  0  0
   36.6430   21.5350   36.0580 N   0  0  0  0  0  0  0  0  0  0  0  0
   34.8900   20.3840   36.0900 H   0  0  0  0  0  0  0  0  0  0  0  0
   34.8840   19.9990   33.5960 H   0  0  0  0  0  0  0  0  0  0  0  0
   36.7480   21.0270   32.2420 H   0  0  0  0  0  0  0  0  0  0  0  0
   38.8610   23.0150   36.1380 S   0  0  0  0  0  0  0  0  0  0  0  0
   38.1320   24.4410   36.9800 C   0  0  0  0  0  2  0  0  0  0  0  0
   37.9740   24.2310   38.4640 C   0  0  0  0  0  2  0  0  0  0  0  0
   38.0160   25.2340   38.9470 H   0  0  0  0  0  0  0  0  0  0  0  0
  1  6  1  0  0  0  0
  1  7  1  0  0  0  0
  2  1  2  0  0  0  0
  3  4  2  0  0  0  0
  3  2  1  0  0  0  0
  4  5  1  0  0  0  0
  5  6  2  0  0  0  0
  5 10  1  0  0  0  0
  8  2  1  0  0  0  0
  9  3  1  0  0  0  0
 10 11  1  0  0  0  0
 11 12  1  0  0  0  0
 12 13  1  0  0  0  0
M  END
>  <minimizedAffinity>
-2.97352052

$$$$

 OpenBabel03272506413D

 13 13  0  0  0  0  0  0  0  0999 V2000
   38.6330   24.3610   35.9760 C   0  0  0  0  0  0  0  0  0  0  0  0
   37.8360   24.6300   37.0890 C   0  0  0  0  0  0  0  0  0  0  0  0
   38.1240   23.9670   38.3100 C   0  0  0  0  0  0  0  0  0  0  0  0
   39.1680   23.0990   38.3350 N   0  0  0  0  0  0  0  0  0  0  0  0
   39.9130   22.8680   37.2310 C   0  0  0  0  0  0  0  0  0  0  0  0
   39.6680   23.4780   36.0570 N   0  0  0  0  0  0  0  0  0  0  0  0
   38.4420   24.8430   35.0410 H   0  0  0  0  0  0  0  0  0  0  0  0
   37.0060   25.3290   37.0590 H   0  0  0  0  0  0  0  0  0  0  0  0
   37.5510   24.1260   39.2070 H   0  0  0  0  0  0  0  0  0  0  0  0
   41.2870   21.7220   37.2450 S   0  0  0  0  0  0  0  0  0  0  0  0
   42.5600   22.2080   36.0540 C   0  0  0  0  0  2  0  0  0  0  0  0
   43.4050   23.3610   36.5320 C   0  0  0  0  0  2  0  0  0  0  0  0
   44.4000   23.2680   36.0420 H   0  0  0  0  0  0  0  0  0  0  0  0
  1  6  2  0  0  0  0
  1  2  1  0  0  0  0
  2  3  2  0  0  0  0
  3  4  1  0  0  0  0
  3  9  1  0  0  0  0
  5 10  1  0  0  0  0
  5  4  2  0  0  0  0
  6  5  1  0  0  0  0
  7  1  1  0  0  0  0
  8  2  1  0  0  0  0
 11 12  1  0  0  0  0
 11 10  1  0  0  0  0
 13 12  1  0  0  0  0
M  END
>  <minimizedAffinity>
-2.92260265

$$$$

 OpenBabel03272506413D

 13 13  0  0  0  0  0  0  0  0999 V2000
   36.6360   23.7530   32.0210 C   0  0  0  0  0  0  0  0  0  0  0  0
   35.5470   23.8660   31.1560 C   0  0  0  0  0  0  0  0  0  0  0  0
   35.0330   25.1560   30.8700 C   0  0  0  0  0  0  0  0  0  0  0  0
   35.6310   26.2260   31.4560 N   0  0  0  0  0  0  0  0  0  0  0  0
   36.6840   26.0700   32.2890 C   0  0  0  0  0  0  0  0  0  0  0  0
   37.1960   24.8610   32.5830 N   0  0  0  0  0  0  0  0  0  0  0  0
   37.0460   22.7950   32.2570 H   0  0  0  0  0  0  0  0  0  0  0  0
   35.0790   23.0040   30.6900 H   0  0  0  0  0  0  0  0  0  0  0  0
   34.1960   25.3180   30.2130 H   0  0  0  0  0  0  0  0  0  0  0  0
   37.4790   27.4670   33.0750 S   0  0  0  0  0  0  0  0  0  0  0  0
   37.1980   27.4630   34.8630 C   0  0  0  0  0  2  0  0  0  0  0  0
   38.4710   27.3440   35.6590 C   0  0  0  0  0  2  0  0  0  0  0  0
   38.2940   27.8350   36.6430 H   0  0  0  0  0  0  0  0  0  0  0  0
  1  7  1  0  0  0  0
  1  6  1  0  0  0  0
  2  1  2  0  0  0  0
  3  2  1  0  0  0  0
  3  4  2  0  0  0  0
  4  5  1  0  0  0  0
  5  6  2  0  0  0  0
  5 10  1  0  0  0  0
  8  2  1  0  0  0  0
  9  3  1  0  0  0  0
 10 11  1  0  0  0  0
 11 12  1  0  0  0  0
 12 13  1  0  0  0  0
M  END
>  <minimizedAffinity>
-2.90967369

$$$$

 OpenBabel03272506413D

 13 13  0  0  0  0  0  0  0  0999 V2000
   41.0570   22.7990   36.3880 C   0  0  0  0  0  0  0  0  0  0  0  0
   40.5170   22.5600   37.6530 C   0  0  0  0  0  0  0  0  0  0  0  0
   39.2310   23.0740   37.9540 C   0  0  0  0  0  0  0  0  0  0  0  0
   38.5820   23.7780   36.9910 N   0  0  0  0  0  0  0  0  0  0  0  0
   39.1430   23.9870   35.7790 C   0  0  0  0  0  0  0  0  0  0  0  0
   40.3620   23.5150   35.4590 N   0  0  0  0  0  0  0  0  0  0  0  0
   42.0240   22.4260   36.1300 H   0  0  0  0  0  0  0  0  0  0  0  0
   41.0440   21.9920   38.4140 H   0  0  0  0  0  0  0  0  0  0  0  0
   38.7550   22.9280   38.9090 H   0  0  0  0  0  0  0  0  0  0  0  0
   38.3060   24.9180   34.5010 S   0  0  0  0  0  0  0  0  0  0  0  0
   37.5140   26.3970   35.1790 C   0  0  0  0  0  2  0  0  0  0  0  0
   38.4960   27.3640   35.7880 C   0  0  0  0  0  2  0  0  0  0  0  0
   38.0500   28.3820   35.7110 H   0  0  0  0  0  0  0  0  0  0  0  0
  1  2  1  0  0  0  0
  2  3  2  0  0  0  0
  2  8  1  0  0  0  0
  3  9  1  0  0  0  0
  4  3  1  0  0  0  0
  5  4  2  0  0  0  0
  6  5  1  0  0  0  0
  6  1  2  0  0  0  0
  7  1  1  0  0  0  0
 10 11  1  0  0  0  0
 10  5  1  0  0  0  0
 11 12  1  0  0  0  0
 13 12  1  0  0  0  0
M  END
>  <minimizedAffinity>
-2.88844633

$$$$

 OpenBabel03272506413D

 13 13  0  0  0  0  0  0  0  0999 V2000
   42.1440   23.6080   35.7880 C   0  0  0  0  0  0  0  0  0  0  0  0
   42.7860   22.5920   36.4980 C   0  0  0  0  0  0  0  0  0  0  0  0
   41.9990   21.5860   37.1120 C   0  0  0  0  0  0  0  0  0  0  0  0
   40.6490   21.6600   36.9780 N   0  0  0  0  0  0  0  0  0  0  0  0
   40.0680   22.6630   36.2820 C   0  0  0  0  0  0  0  0  0  0  0  0
   40.7840   23.6340   35.6870 N   0  0  0  0  0  0  0  0  0  0  0  0
   42.7080   24.3810   35.3140 H   0  0  0  0  0  0  0  0  0  0  0  0
   43.8660   22.5410   36.5950 H   0  0  0  0  0  0  0  0  0  0  0  0
   42.4270   20.7740   37.6750 H   0  0  0  0  0  0  0  0  0  0  0  0
   38.2920   22.7790   36.1020 S   0  0  0  0  0  0  0  0  0  0  0  0
   37.6320   24.2000   37.0080 C   0  0  0  0  0  2  0  0  0  0  0  0
   38.0240   24.2050   38.4630 C   0  0  0  0  0  2  0  0  0  0  0  0
   38.0350   25.2670   38.7990 H   0  0  0  0  0  0  0  0  0  0  0  0
  1  2  1  0  0  0  0
  2  8  1  0  0  0  0
  2  3  2  0  0  0  0
  3  9  1  0  0  0  0
  4  3  1  0  0  0  0
  5  4  2  0  0  0  0
  6  1  2  0  0  0  0
  6  5  1  0  0  0  0
  7  1  1  0  0  0  0
 10  5  1  0  0  0  0
 10 11  1  0  0  0  0
 11 12  1  0  0  0  0
 12 13  1  0  0  0  0
M  END
>  <minimizedAffinity>
-2.74810982

$$$$

 OpenBabel03272506413D

 13 13  0  0  0  0  0  0  0  0999 V2000
   38.1590   27.1620   35.8950 C   0  0  0  0  0  0  0  0  0  0  0  0
   37.5610   27.5160   34.6850 C   0  0  0  0  0  0  0  0  0  0  0  0
   37.2950   26.5000   33.7320 C   0  0  0  0  0  0  0  0  0  0  0  0
   37.6370   25.2240   34.0470 N   0  0  0  0  0  0  0  0  0  0  0  0
   38.2160   24.9260   35.2320 C   0  0  0  0  0  0  0  0  0  0  0  0
   38.4830   25.8640   36.1580 N   0  0  0  0  0  0  0  0  0  0  0  0
   38.3730   27.9040   36.6340 H   0  0  0  0  0  0  0  0  0  0  0  0
   37.2890   28.5390   34.4460 H   0  0  0  0  0  0  0  0  0  0  0  0
   36.8380   26.7010   32.7790 H   0  0  0  0  0  0  0  0  0  0  0  0
   38.6790   23.2510   35.6590 S   0  0  0  0  0  0  0  0  0  0  0  0
   39.1600   23.1260   37.3990 C   0  0  0  0  0  2  0  0  0  0  0  0
   40.5180   22.5030   37.5920 C   0  0  0  0  0  2  0  0  0  0  0  0
   40.9340   22.9050   38.5440 H   0  0  0  0  0  0  0  0  0  0  0  0
  1  6  1  0  0  0  0
  1  7  1  0  0  0  0
  2  1  2  0  0  0  0
  3  4  2  0  0  0  0
  3  2  1  0  0  0  0
  4  5  1  0  0  0  0
  5 10  1  0  0  0  0
  5  6  2  0  0  0  0
  8  2  1  0  0  0  0
  9  3  1  0  0  0  0
 10 11  1  0  0  0  0
 11 12  1  0  0  0  0
 12 13  1  0  0  0  0
M  END
>  <minimizedAffinity>
-2.73617101

$$$$

 OpenBabel03272506413D

 13 13  0  0  0  0  0  0  0  0999 V2000
   41.4260   25.5750   34.6550 C   0  0  0  0  0  0  0  0  0  0  0  0
   40.8350   26.8280   34.4860 C   0  0  0  0  0  0  0  0  0  0  0  0
   39.4770   26.9970   34.8580 C   0  0  0  0  0  0  0  0  0  0  0  0
   38.8150   25.9250   35.3640 N   0  0  0  0  0  0  0  0  0  0  0  0
   39.4270   24.7280   35.5100 C   0  0  0  0  0  0  0  0  0  0  0  0
   40.7120   24.5320   35.1670 N   0  0  0  0  0  0  0  0  0  0  0  0
   42.4470   25.4140   34.3840 H   0  0  0  0  0  0  0  0  0  0  0  0
   41.3750   27.6790   34.0830 H   0  0  0  0  0  0  0  0  0  0  0  0
   38.9580   27.9350   34.7550 H   0  0  0  0  0  0  0  0  0  0  0  0
   38.5660   23.3040   36.1680 S   0  0  0  0  0  0  0  0  0  0  0  0
   38.6490   23.2650   37.9760 C   0  0  0  0  0  2  0  0  0  0  0  0
   37.9490   24.4320   38.6230 C   0  0  0  0  0  2  0  0  0  0  0  0
   37.6110   24.0990   39.6310 H   0  0  0  0  0  0  0  0  0  0  0  0
  1  6  1  0  0  0  0
  2  1  2  0  0  0  0
  2  3  1  0  0  0  0
  3  4  2  0  0  0  0
  4  5  1  0  0  0  0
  5 10  1  0  0  0  0
  6  5  2  0  0  0  0
  7  1  1  0  0  0  0
  8  2  1  0  0  0  0
  9  3  1  0  0  0  0
 10 11  1  0  0  0  0
 11 12  1  0  0  0  0
 12 13  1  0  0  0  0
M  END
>  <minimizedAffinity>
-2.73552227

$$$$

 OpenBabel03272506413D

 13 13  0  0  0  0  0  0  0  0999 V2000
   38.1600   23.2500   34.9850 C   0  0  0  0  0  0  0  0  0  0  0  0
   38.0040   22.6810   36.2500 C   0  0  0  0  0  0  0  0  0  0  0  0
   37.9360   23.5360   37.3790 C   0  0  0  0  0  0  0  0  0  0  0  0
   38.0250   24.8760   37.1720 N   0  0  0  0  0  0  0  0  0  0  0  0
   38.1760   25.3840   35.9280 C   0  0  0  0  0  0  0  0  0  0  0  0
   38.2460   24.6020   34.8360 N   0  0  0  0  0  0  0  0  0  0  0  0
   38.2160   22.6330   34.1140 H   0  0  0  0  0  0  0  0  0  0  0  0
   37.9310   21.6090   36.4030 H   0  0  0  0  0  0  0  0  0  0  0  0
   37.8180   23.1670   38.3830 H   0  0  0  0  0  0  0  0  0  0  0  0
   38.3020   27.1450   35.6390 S   0  0  0  0  0  0  0  0  0  0  0  0
   36.8930   27.7560   34.6820 C   0  0  0  0  0  2  0  0  0  0  0  0
   37.1220   27.6990   33.1940 C   0  0  0  0  0  2  0  0  0  0  0  0
   36.1250   27.5950   32.7090 H   0  0  0  0  0  0  0  0  0  0  0  0
  1  2  1  0  0  0  0
  2  8  1  0  0  0  0
  2  3  2  0  0  0  0
  3  9  1  0  0  0  0
  4  3  1  0  0  0  0
  5  4  2  0  0  0  0
  6  1  2  0  0  0  0
  6  5  1  0  0  0  0
  7  1  1  0  0  0  0
 10  5  1  0  0  0  0
 11 10  1  0  0  0  0
 12 11  1  0  0  0  0
 13 12  1  0  0  0  0
M  END
>  <minimizedAffinity>
-2.7175436

$$$$
