
 OpenBabel03262522233D

 26 27  0  0  0  0  0  0  0  0999 V2000
   39.5770   32.1190   46.5970 C   0  0  0  0  0  0  0  0  0  0  0  0
   39.8380   30.9170   46.0210 C   0  0  0  0  0  0  0  0  0  0  0  0
   40.2030   30.8460   44.7210 C   0  0  0  0  0  0  0  0  0  0  0  0
   40.3020   32.0220   44.0040 C   0  0  0  0  0  0  0  0  0  0  0  0
   40.0350   33.2390   44.5980 C   0  0  0  0  0  0  0  0  0  0  0  0
   39.6730   33.2510   45.9050 N   0  0  0  0  0  0  0  0  0  0  0  0
   39.7350   30.0480   46.6610 H   0  0  0  0  0  0  0  0  0  0  0  0
   40.4200   29.9040   44.2280 H   0  0  0  0  0  0  0  0  0  0  0  0
   40.5900   32.0640   42.9470 H   0  0  0  0  0  0  0  0  0  0  0  0
   40.1480   34.5070   43.7890 C   0  0  0  0  0  0  0  0  0  0  0  0
   41.1790   34.8800   43.9540 H   0  0  0  0  0  0  0  0  0  0  0  0
   39.4680   35.2840   44.1700 H   0  0  0  0  0  0  0  0  0  0  0  0
   39.9970   34.2500   42.7390 H   0  0  0  0  0  0  0  0  0  0  0  0
   39.1900   32.3750   47.9220 O   0  0  0  0  0  0  0  0  0  0  0  0
   38.2490   31.3590   49.8070 C   0  0  0  0  0  0  0  0  0  0  0  0
   38.1410   31.6590   48.4180 C   0  0  0  0  0  0  0  0  0  0  0  0
   37.0330   31.2150   47.7470 C   0  0  0  0  0  0  0  0  0  0  0  0
   36.1070   30.5170   48.4390 N   0  0  0  0  0  0  0  0  0  0  0  0
   36.2230   30.2460   49.7360 C   0  0  0  0  0  0  0  0  0  0  0  0
   37.2990   30.6570   50.4660 N   0  0  0  0  0  0  0  0  0  0  0  0
   39.0980   31.6800   50.3980 H   0  0  0  0  0  0  0  0  0  0  0  0
   36.9890   31.4610   46.7090 H   0  0  0  0  0  0  0  0  0  0  0  0
   34.8230   29.3030   50.3400 S   0  0  0  0  0  0  0  0  0  0  0  0
   34.3940   27.9400   49.2240 C   0  0  0  0  0  0  0  0  0  0  0  0
   32.9520   28.0700   48.7470 C   0  0  0  0  0  0  0  0  0  0  0  0
   32.3060   28.5400   49.5090 H   0  0  0  0  0  0  0  0  0  0  0  0
  1 14  1  0  0  0  0
  2  1  1  0  0  0  0
  2  7  1  0  0  0  0
  3  2  2  0  0  0  0
  4  5  2  0  0  0  0
  4  3  1  0  0  0  0
  5  6  1  0  0  0  0
  6  1  2  0  0  0  0
  8  3  1  0  0  0  0
  9  4  1  0  0  0  0
 10 11  1  0  0  0  0
 10 12  1  0  0  0  0
 10  5  1  0  0  0  0
 13 10  1  0  0  0  0
 14 16  1  0  0  0  0
 15 21  1  0  0  0  0
 15 20  1  0  0  0  0
 16 15  2  0  0  0  0
 17 16  1  0  0  0  0
 17 18  2  0  0  0  0
 18 19  1  0  0  0  0
 19 23  1  0  0  0  0
 19 20  2  0  0  0  0
 22 17  1  0  0  0  0
 24 23  1  0  0  0  0
 25 24  1  0  0  0  0
 25 26  1  0  0  0  0
M  END
>  <minimizedAffinity>
-4.49899197

>  <minimizedRMSD>
0.514525414

$$$$
