
 OpenBabel03262520343D

 36 37  0  0  0  0  0  0  0  0999 V2000
   30.3900   26.1580   47.5030 O   0  0  0  0  0  0  0  0  0  0  0  0
   30.8480   27.6020   47.7570 P   0  0  2  0  0  0  0  0  0  0  0  0
   31.3360   28.3420   46.3130 O   0  0  0  0  0  0  0  0  0  0  0  0
   31.2770   27.6570   45.5930 H   0  0  0  0  0  0  0  0  0  0  0  0
   32.2090   27.4370   48.7710 O   0  0  0  0  0  0  0  0  0  0  0  0
   33.3400   27.2520   47.9630 C   0  0  0  0  0  0  0  0  0  0  0  0
   33.0660   27.4330   46.9270 H   0  0  0  0  0  0  0  0  0  0  0  0
   33.6470   26.1690   48.0420 H   0  0  0  0  0  0  0  0  0  0  0  0
   34.7480   28.3440   49.6600 C   0  0  0  0  0  0  0  0  0  0  0  0
   34.4870   28.0780   48.4090 C   0  0  0  0  0  0  0  0  0  0  0  0
   37.3450   30.2330   51.4220 C   0  0  0  0  0  0  0  0  0  0  0  0
   38.1210   30.7350   50.3580 C   0  0  0  0  0  0  0  0  0  0  0  0
   37.7320   30.4110   49.0450 C   0  0  0  0  0  0  0  0  0  0  0  0
   36.6130   29.6230   48.9430 N   0  0  0  0  0  0  0  0  0  0  0  0
   35.9100   29.1710   49.9610 C   0  0  0  0  0  0  0  0  0  0  0  0
   36.2890   29.4840   51.1970 N   0  0  0  0  0  0  0  0  0  0  0  0
   37.6120   30.4600   52.4420 H   0  0  0  0  0  0  0  0  0  0  0  0
   38.9860   31.3480   50.5340 H   0  0  0  0  0  0  0  0  0  0  0  0
   38.2840   30.7630   48.1860 H   0  0  0  0  0  0  0  0  0  0  0  0
   29.6210   28.4940   48.5030 O   0  0  0  0  0  0  0  0  0  0  0  0
   27.5180   28.6050   49.4260 C   0  0  0  0  0  0  0  0  0  0  0  0
   28.8190   28.0840   49.5450 C   0  0  0  0  0  0  0  0  0  0  0  0
   29.1910   27.2740   50.5860 C   0  0  0  0  0  0  0  0  0  0  0  0
   28.2610   26.9600   51.5490 C   0  0  0  0  0  0  0  0  0  0  0  0
   26.9980   27.4550   51.4480 C   0  0  0  0  0  0  0  0  0  0  0  0
   26.5860   28.2670   50.4230 C   0  0  0  0  0  0  0  0  0  0  0  0
   30.2010   26.9310   50.5850 H   0  0  0  0  0  0  0  0  0  0  0  0
   28.6150   26.3210   52.3380 H   0  0  0  0  0  0  0  0  0  0  0  0
   26.3260   27.1560   52.2510 H   0  0  0  0  0  0  0  0  0  0  0  0
   25.5600   28.5860   50.4550 H   0  0  0  0  0  0  0  0  0  0  0  0
   26.9730   29.6260   48.1240 S   0  0  0  0  0  0  0  0  0  0  0  0
   28.0790   29.8990   47.1640 O   0  0  0  0  0  0  0  0  0  0  0  0
   25.8160   28.9030   47.4190 O   0  0  0  0  0  0  0  0  0  0  0  0
   26.4120   31.1870   48.7340 C   0  0  0  0  0  0  0  0  0  0  0  0
   24.9020   31.1240   48.8400 C   0  0  0  0  0  0  0  0  0  0  0  0
   24.5800   30.9820   49.9010 H   0  0  0  0  0  0  0  0  0  0  0  0
  2  1  2  6  0  0  0
  2 20  1  0  0  0  0
  2  5  1  0  0  0  0
  3  2  1  0  0  0  0
  4  3  1  0  0  0  0
  6  8  1  0  0  0  0
  6 10  1  0  0  0  0
  6  5  1  0  0  0  0
  7  6  1  0  0  0  0
  9 15  1  0  0  0  0
 10  9  2  0  0  0  0
 11 17  1  0  0  0  0
 12 18  1  0  0  0  0
 12 11  2  0  0  0  0
 13 12  1  0  0  0  0
 14 13  2  0  0  0  0
 14 15  1  0  0  0  0
 15 16  2  0  0  0  0
 16 11  1  0  0  0  0
 19 13  1  0  0  0  0
 20 22  1  0  0  0  0
 21 22  2  0  0  0  0
 21 26  1  0  0  0  0
 22 23  1  0  0  0  0
 23 24  2  0  0  0  0
 24 28  1  0  0  0  0
 25 24  1  0  0  0  0
 25 29  1  0  0  0  0
 26 30  1  0  0  0  0
 26 25  2  0  0  0  0
 27 23  1  0  0  0  0
 31 34  1  0  0  0  0
 31 21  1  0  0  0  0
 32 31  2  0  0  0  0
 33 31  2  0  0  0  0
 34 35  1  0  0  0  0
 35 36  1  0  0  0  0
M  END
>  <minimizedAffinity>
-6.480196

>  <minimizedRMSD>
0.833853662

$$$$
