
 OpenBabel03272510103D

 22 23  0  0  0  0  0  0  0  0999 V2000
   35.0050   29.8350   48.4410 C   0  0  0  0  0  0  0  0  0  0  0  0
   35.3610   30.1310   49.7390 C   0  0  0  0  0  0  0  0  0  0  0  0
   36.5230   30.8290   50.0360 C   0  0  0  0  0  0  0  0  0  0  0  0
   37.3690   31.2550   49.0570 C   0  0  0  0  0  0  0  0  0  0  0  0
   36.9750   30.9380   47.7750 C   0  0  0  0  0  0  0  0  0  0  0  0
   35.8500   30.2630   47.4810 N   0  0  0  0  0  0  0  0  0  0  0  0
   34.7260   29.8170   50.5570 H   0  0  0  0  0  0  0  0  0  0  0  0
   36.7970   31.0590   51.0750 H   0  0  0  0  0  0  0  0  0  0  0  0
   37.5520   31.2160   46.9020 H   0  0  0  0  0  0  0  0  0  0  0  0
   33.1840   28.1690   48.9590 C   0  0  0  0  0  0  0  0  0  0  0  0
   33.7990   29.1080   48.0990 C   0  0  0  0  0  0  0  0  0  0  0  0
   33.2060   29.3290   46.8760 C   0  0  0  0  0  0  0  0  0  0  0  0
   32.0720   28.6540   46.5400 N   0  0  0  0  0  0  0  0  0  0  0  0
   31.5130   27.7610   47.3950 C   0  0  0  0  0  0  0  0  0  0  0  0
   32.0650   27.5230   48.5910 N   0  0  0  0  0  0  0  0  0  0  0  0
   33.7040   28.0460   49.9020 H   0  0  0  0  0  0  0  0  0  0  0  0
   33.5860   30.0300   46.1260 H   0  0  0  0  0  0  0  0  0  0  0  0
   30.6110   27.2150   47.1440 H   0  0  0  0  0  0  0  0  0  0  0  0
   38.5490   31.9550   49.2440 O   0  0  0  0  0  0  0  0  0  0  0  0
   38.8960   33.0380   48.4190 C   0  0  0  0  0  2  0  0  0  0  0  0
   39.4110   34.1490   49.3030 C   0  0  0  0  0  2  0  0  0  0  0  0
   38.9100   34.0550   50.2990 H   0  0  0  0  0  0  0  0  0  0  0  0
  1  2  1  0  0  0  0
  2  3  2  0  0  0  0
  2  7  1  0  0  0  0
  3  8  1  0  0  0  0
  4 19  1  0  0  0  0
  4  3  1  0  0  0  0
  5  4  2  0  0  0  0
  6  5  1  0  0  0  0
  6  1  2  0  0  0  0
  9  5  1  0  0  0  0
 10 16  1  0  0  0  0
 11  1  1  0  0  0  0
 11 10  2  0  0  0  0
 12 11  1  0  0  0  0
 13 12  2  0  0  0  0
 13 14  1  0  0  0  0
 14 15  2  0  0  0  0
 15 10  1  0  0  0  0
 17 12  1  0  0  0  0
 18 14  1  0  0  0  0
 20 19  1  0  0  0  0
 20 21  1  0  0  0  0
 21 22  1  0  0  0  0
M  END
>  <minimizedAffinity>
-4.55567026

>  <minimizedRMSD>
3.76098728

$$$$
