
 OpenBabel03272510103D

 22 23  0  0  0  0  0  0  0  0999 V2000
   36.6670   30.7720   48.1610 C   0  0  0  0  0  0  0  0  0  0  0  0
   37.3080   31.4040   49.2040 C   0  0  0  0  0  0  0  0  0  0  0  0
   38.3430   32.3050   48.9860 C   0  0  0  0  0  0  0  0  0  0  0  0
   38.7730   32.6060   47.7290 C   0  0  0  0  0  0  0  0  0  0  0  0
   38.1050   31.9520   46.7180 C   0  0  0  0  0  0  0  0  0  0  0  0
   37.1020   31.0790   46.9220 N   0  0  0  0  0  0  0  0  0  0  0  0
   37.0080   31.2020   50.2240 H   0  0  0  0  0  0  0  0  0  0  0  0
   38.8470   32.8020   49.8260 H   0  0  0  0  0  0  0  0  0  0  0  0
   38.3420   32.0970   45.6720 H   0  0  0  0  0  0  0  0  0  0  0  0
   35.5790   28.8480   49.3770 C   0  0  0  0  0  0  0  0  0  0  0  0
   35.5860   29.8270   48.3560 C   0  0  0  0  0  0  0  0  0  0  0  0
   34.4970   29.8690   47.5120 C   0  0  0  0  0  0  0  0  0  0  0  0
   33.4730   28.9880   47.6830 N   0  0  0  0  0  0  0  0  0  0  0  0
   33.5060   28.0640   48.6760 C   0  0  0  0  0  0  0  0  0  0  0  0
   34.5490   27.9970   49.5120 N   0  0  0  0  0  0  0  0  0  0  0  0
   36.4650   28.8740   50.0010 H   0  0  0  0  0  0  0  0  0  0  0  0
   34.3860   30.5790   46.6870 H   0  0  0  0  0  0  0  0  0  0  0  0
   32.6990   27.3560   48.8260 H   0  0  0  0  0  0  0  0  0  0  0  0
   39.7920   33.4850   47.4030 O   0  0  0  0  0  0  0  0  0  0  0  0
   40.3570   34.3400   48.3640 C   0  0  0  0  0  2  0  0  0  0  0  0
   39.5110   35.5890   48.4290 C   0  0  0  0  0  2  0  0  0  0  0  0
   39.0480   35.7430   47.4220 H   0  0  0  0  0  0  0  0  0  0  0  0
  1 11  1  0  0  0  0
  1  2  1  0  0  0  0
  2  7  1  0  0  0  0
  3  2  2  0  0  0  0
  3  8  1  0  0  0  0
  4  3  1  0  0  0  0
  5  6  1  0  0  0  0
  5  4  2  0  0  0  0
  6  1  2  0  0  0  0
  9  5  1  0  0  0  0
 10 15  1  0  0  0  0
 10 16  1  0  0  0  0
 11 10  2  0  0  0  0
 12 13  2  0  0  0  0
 12 11  1  0  0  0  0
 13 14  1  0  0  0  0
 14 18  1  0  0  0  0
 14 15  2  0  0  0  0
 17 12  1  0  0  0  0
 19  4  1  0  0  0  0
 19 20  1  0  0  0  0
 20 21  1  0  0  0  0
 22 21  1  0  0  0  0
M  END
>  <minimizedAffinity>
-3.26642156

>  <minimizedRMSD>
1.8575933

$$$$
