
 OpenBabel03262520113D

 30 31  0  0  0  0  0  0  0  0999 V2000
   38.0190   23.3700   33.3210 Br  0  0  0  0  0  0  0  0  0  0  0  0
   37.8790   25.1270   34.0810 C   0  0  0  0  0  0  0  0  0  0  0  0
   38.4430   25.4180   35.3060 C   0  0  0  0  0  0  0  0  0  0  0  0
   38.3020   26.6860   35.8010 C   0  0  0  0  0  0  0  0  0  0  0  0
   37.6260   27.6760   35.1240 C   0  0  0  0  0  0  0  0  0  0  0  0
   37.0580   27.3620   33.8830 C   0  0  0  0  0  0  0  0  0  0  0  0
   37.1990   26.0800   33.3840 C   0  0  0  0  0  0  0  0  0  0  0  0
   38.7620   26.8370   36.7760 H   0  0  0  0  0  0  0  0  0  0  0  0
   37.6060   28.6090   35.6480 H   0  0  0  0  0  0  0  0  0  0  0  0
   36.5660   28.1810   33.4450 H   0  0  0  0  0  0  0  0  0  0  0  0
   39.2570   22.9430   37.8620 C   0  0  0  0  0  0  0  0  0  0  0  0
   40.5460   22.4690   37.4870 C   0  0  0  0  0  0  0  0  0  0  0  0
   41.1050   23.0210   36.3600 C   0  0  0  0  0  0  0  0  0  0  0  0
   40.4230   23.9840   35.6480 N   0  0  0  0  0  0  0  0  0  0  0  0
   39.1930   24.3970   36.0490 C   0  0  0  0  0  0  0  0  0  0  0  0
   38.6410   23.8710   37.1420 N   0  0  0  0  0  0  0  0  0  0  0  0
   38.8300   22.5180   38.7500 H   0  0  0  0  0  0  0  0  0  0  0  0
   41.0620   21.7220   38.0370 H   0  0  0  0  0  0  0  0  0  0  0  0
   42.0700   22.7180   36.0080 H   0  0  0  0  0  0  0  0  0  0  0  0
   36.5310   25.8740   32.0850 C   0  0  0  0  0  0  0  0  0  0  0  0
   37.3190   25.6030   31.3390 H   0  0  0  0  0  0  0  0  0  0  0  0
   35.8710   24.9780   32.1050 H   0  0  0  0  0  0  0  0  0  0  0  0
   35.8210   27.0450   31.5330 C   0  0  0  0  0  0  0  0  0  0  0  0
   34.7410   26.7520   31.4670 H   0  0  0  0  0  0  0  0  0  0  0  0
   35.7810   27.9610   32.1360 H   0  0  0  0  0  0  0  0  0  0  0  0
   36.2370   27.2450   30.1660 N   0  0  0  0  0  0  0  0  0  0  0  0
   36.7950   26.3910   29.8720 H   0  0  0  0  0  0  0  0  0  0  0  0
   36.9830   28.4500   29.9260 C   0  0  0  0  0  2  0  0  0  0  0  0
   36.3500   29.5480   30.7730 C   0  0  0  0  0  2  0  0  0  0  0  0
   37.1220   30.3150   31.0050 H   0  0  0  0  0  0  0  0  0  0  0  0
  1  2  1  0  0  0  0
  2  3  1  0  0  0  0
  3  4  2  0  0  0  0
  3 15  1  0  0  0  0
  4  8  1  0  0  0  0
  5  9  1  0  0  0  0
  5  4  1  0  0  0  0
  6  5  2  0  0  0  0
  7  6  1  0  0  0  0
  7  2  2  0  0  0  0
 10  6  1  0  0  0  0
 11 17  1  0  0  0  0
 12 11  1  0  0  0  0
 12 18  1  0  0  0  0
 13 12  2  0  0  0  0
 14 15  2  0  0  0  0
 14 13  1  0  0  0  0
 15 16  1  0  0  0  0
 16 11  2  0  0  0  0
 19 13  1  0  0  0  0
 20 22  1  0  0  0  0
 20  7  1  0  0  0  0
 21 20  1  0  0  0  0
 23 20  1  0  0  0  0
 23 25  1  0  0  0  0
 24 23  1  0  0  0  0
 26 23  1  0  0  0  0
 27 26  1  0  0  0  0
 28 26  1  0  0  0  0
 28 29  1  0  0  0  0
 29 30  1  0  0  0  0
M  END
>  <minimizedAffinity>
-4.81063795

$$$$

 OpenBabel03262520113D

 30 31  0  0  0  0  0  0  0  0999 V2000
   37.4130   24.3870   32.4900 Br  0  0  0  0  0  0  0  0  0  0  0  0
   37.8070   25.4710   34.0240 C   0  0  0  0  0  0  0  0  0  0  0  0
   37.8240   26.8480   33.9360 C   0  0  0  0  0  0  0  0  0  0  0  0
   38.1210   27.5670   35.0620 C   0  0  0  0  0  0  0  0  0  0  0  0
   38.3990   26.9720   36.2720 C   0  0  0  0  0  0  0  0  0  0  0  0
   38.3800   25.5730   36.3420 C   0  0  0  0  0  0  0  0  0  0  0  0
   38.0810   24.8460   35.2040 C   0  0  0  0  0  0  0  0  0  0  0  0
   38.1270   28.6450   34.9120 H   0  0  0  0  0  0  0  0  0  0  0  0
   38.6120   27.6740   37.0500 H   0  0  0  0  0  0  0  0  0  0  0  0
   38.6020   25.2130   37.3040 H   0  0  0  0  0  0  0  0  0  0  0  0
   35.9110   28.5880   31.3610 C   0  0  0  0  0  0  0  0  0  0  0  0
   36.8550   28.8060   30.3170 C   0  0  0  0  0  0  0  0  0  0  0  0
   38.1300   28.3420   30.5280 C   0  0  0  0  0  0  0  0  0  0  0  0
   38.4490   27.7010   31.7050 N   0  0  0  0  0  0  0  0  0  0  0  0
   37.5100   27.5230   32.6690 C   0  0  0  0  0  0  0  0  0  0  0  0
   36.2680   27.9670   32.4770 N   0  0  0  0  0  0  0  0  0  0  0  0
   34.9130   28.9430   31.1860 H   0  0  0  0  0  0  0  0  0  0  0  0
   36.6030   29.3070   29.4150 H   0  0  0  0  0  0  0  0  0  0  0  0
   38.9000   28.4680   29.7940 H   0  0  0  0  0  0  0  0  0  0  0  0
   38.1230   23.3850   35.4070 C   0  0  0  0  0  0  0  0  0  0  0  0
   37.1130   22.9790   35.1460 H   0  0  0  0  0  0  0  0  0  0  0  0
   38.8000   22.8930   34.6740 H   0  0  0  0  0  0  0  0  0  0  0  0
   38.4110   22.9340   36.7830 C   0  0  0  0  0  0  0  0  0  0  0  0
   38.8470   23.8180   37.3160 H   0  0  0  0  0  0  0  0  0  0  0  0
   37.5660   22.6620   37.4290 H   0  0  0  0  0  0  0  0  0  0  0  0
   39.4740   21.9600   36.7450 N   0  0  0  0  0  0  0  0  0  0  0  0
   39.0660   21.0270   37.0460 H   0  0  0  0  0  0  0  0  0  0  0  0
   40.6310   22.2890   37.5320 C   0  0  0  0  0  2  0  0  0  0  0  0
   41.6390   22.9480   36.5980 C   0  0  0  0  0  2  0  0  0  0  0  0
   42.2920   23.6260   37.1920 H   0  0  0  0  0  0  0  0  0  0  0  0
  1  2  1  0  0  0  0
  2  7  1  0  0  0  0
  3  2  2  0  0  0  0
  3  4  1  0  0  0  0
  4  5  2  0  0  0  0
  5  6  1  0  0  0  0
  5  9  1  0  0  0  0
  6 10  1  0  0  0  0
  7 20  1  0  0  0  0
  7  6  2  0  0  0  0
  8  4  1  0  0  0  0
 11 16  1  0  0  0  0
 12 13  1  0  0  0  0
 12 11  2  0  0  0  0
 13 14  2  0  0  0  0
 14 15  1  0  0  0  0
 15  3  1  0  0  0  0
 16 15  2  0  0  0  0
 17 11  1  0  0  0  0
 18 12  1  0  0  0  0
 19 13  1  0  0  0  0
 20 23  1  0  0  0  0
 21 20  1  0  0  0  0
 22 20  1  0  0  0  0
 23 24  1  0  0  0  0
 23 25  1  0  0  0  0
 26 23  1  0  0  0  0
 26 27  1  0  0  0  0
 26 28  1  0  0  0  0
 29 30  1  0  0  0  0
 29 28  1  0  0  0  0
M  END
>  <minimizedAffinity>
-4.61480856

$$$$

 OpenBabel03262520113D

 30 31  0  0  0  0  0  0  0  0999 V2000
   38.5180   24.7870   33.2860 Br  0  0  0  0  0  0  0  0  0  0  0  0
   37.4240   23.2130   33.1900 C   0  0  0  0  0  0  0  0  0  0  0  0
   37.4410   22.2720   34.2000 C   0  0  0  0  0  0  0  0  0  0  0  0
   36.6460   21.1660   34.0700 C   0  0  0  0  0  0  0  0  0  0  0  0
   35.8320   20.9600   32.9790 C   0  0  0  0  0  0  0  0  0  0  0  0
   35.8290   21.9240   31.9630 C   0  0  0  0  0  0  0  0  0  0  0  0
   36.6340   23.0410   32.0930 C   0  0  0  0  0  0  0  0  0  0  0  0
   36.7220   20.4640   34.8990 H   0  0  0  0  0  0  0  0  0  0  0  0
   35.2770   20.0470   33.0320 H   0  0  0  0  0  0  0  0  0  0  0  0
   35.1770   21.6790   31.1760 H   0  0  0  0  0  0  0  0  0  0  0  0
   40.3340   22.1240   36.4200 C   0  0  0  0  0  0  0  0  0  0  0  0
   39.9030   22.8020   37.5960 C   0  0  0  0  0  0  0  0  0  0  0  0
   38.6190   23.2900   37.5940 C   0  0  0  0  0  0  0  0  0  0  0  0
   37.8130   23.1170   36.4900 N   0  0  0  0  0  0  0  0  0  0  0  0
   38.2780   22.4660   35.3920 C   0  0  0  0  0  0  0  0  0  0  0  0
   39.5200   21.9850   35.3820 N   0  0  0  0  0  0  0  0  0  0  0  0
   41.3340   21.7350   36.4310 H   0  0  0  0  0  0  0  0  0  0  0  0
   40.5320   22.9370   38.4400 H   0  0  0  0  0  0  0  0  0  0  0  0
   38.2170   23.8140   38.4370 H   0  0  0  0  0  0  0  0  0  0  0  0
   36.5590   23.9610   30.9430 C   0  0  0  0  0  0  0  0  0  0  0  0
   37.4960   24.5720   30.9370 H   0  0  0  0  0  0  0  0  0  0  0  0
   36.5990   23.4100   29.9780 H   0  0  0  0  0  0  0  0  0  0  0  0
   35.4370   24.9220   30.9590 C   0  0  0  0  0  0  0  0  0  0  0  0
   34.7580   24.6230   30.1190 H   0  0  0  0  0  0  0  0  0  0  0  0
   34.7610   24.9180   31.8230 H   0  0  0  0  0  0  0  0  0  0  0  0
   35.9320   26.2270   30.5910 N   0  0  0  0  0  0  0  0  0  0  0  0
   36.9400   26.1120   30.2780 H   0  0  0  0  0  0  0  0  0  0  0  0
   35.8270   27.2290   31.6160 C   0  0  0  0  0  2  0  0  0  0  0  0
   37.1460   27.9930   31.6350 C   0  0  0  0  0  2  0  0  0  0  0  0
   36.9630   29.0200   32.0220 H   0  0  0  0  0  0  0  0  0  0  0  0
  2  1  1  0  0  0  0
  2  3  1  0  0  0  0
  3 15  1  0  0  0  0
  4  3  2  0  0  0  0
  4  8  1  0  0  0  0
  5  9  1  0  0  0  0
  5  4  1  0  0  0  0
  6  7  1  0  0  0  0
  6  5  2  0  0  0  0
  7  2  2  0  0  0  0
 10  6  1  0  0  0  0
 11 17  1  0  0  0  0
 11 12  1  0  0  0  0
 12 18  1  0  0  0  0
 13 12  2  0  0  0  0
 13 19  1  0  0  0  0
 14 13  1  0  0  0  0
 15 14  2  0  0  0  0
 16 15  1  0  0  0  0
 16 11  2  0  0  0  0
 20 23  1  0  0  0  0
 20  7  1  0  0  0  0
 21 20  1  0  0  0  0
 22 20  1  0  0  0  0
 23 25  1  0  0  0  0
 24 23  1  0  0  0  0
 26 23  1  0  0  0  0
 26 28  1  0  0  0  0
 27 26  1  0  0  0  0
 28 29  1  0  0  0  0
 29 30  1  0  0  0  0
M  END
>  <minimizedAffinity>
-4.48173046

$$$$

 OpenBabel03262520113D

 30 31  0  0  0  0  0  0  0  0999 V2000
   38.6900   27.1150   35.6010 Br  0  0  0  0  0  0  0  0  0  0  0  0
   38.0030   25.9640   34.2260 C   0  0  0  0  0  0  0  0  0  0  0  0
   38.1340   24.5940   34.3150 C   0  0  0  0  0  0  0  0  0  0  0  0
   37.6320   23.8260   33.3000 C   0  0  0  0  0  0  0  0  0  0  0  0
   37.0030   24.3670   32.2010 C   0  0  0  0  0  0  0  0  0  0  0  0
   36.8810   25.7600   32.1270 C   0  0  0  0  0  0  0  0  0  0  0  0
   37.3900   26.5360   33.1520 C   0  0  0  0  0  0  0  0  0  0  0  0
   37.7840   22.7560   33.4340 H   0  0  0  0  0  0  0  0  0  0  0  0
   36.6710   23.6310   31.4990 H   0  0  0  0  0  0  0  0  0  0  0  0
   36.3860   26.0760   31.2540 H   0  0  0  0  0  0  0  0  0  0  0  0
   38.5610   23.2270   37.6720 C   0  0  0  0  0  0  0  0  0  0  0  0
   39.9230   22.8110   37.7060 C   0  0  0  0  0  0  0  0  0  0  0  0
   40.6620   23.0190   36.5670 C   0  0  0  0  0  0  0  0  0  0  0  0
   40.0830   23.6010   35.4610 N   0  0  0  0  0  0  0  0  0  0  0  0
   38.7780   23.9750   35.4820 C   0  0  0  0  0  0  0  0  0  0  0  0
   38.0500   23.7820   36.5820 N   0  0  0  0  0  0  0  0  0  0  0  0
   37.9910   23.0730   38.5690 H   0  0  0  0  0  0  0  0  0  0  0  0
   40.3600   22.3570   38.5600 H   0  0  0  0  0  0  0  0  0  0  0  0
   41.6930   22.7330   36.5090 H   0  0  0  0  0  0  0  0  0  0  0  0
   37.2210   27.9860   32.9370 C   0  0  0  0  0  0  0  0  0  0  0  0
   37.8640   28.5150   33.6850 H   0  0  0  0  0  0  0  0  0  0  0  0
   37.6440   28.3020   31.9580 H   0  0  0  0  0  0  0  0  0  0  0  0
   35.8530   28.5090   33.1190 C   0  0  0  0  0  0  0  0  0  0  0  0
   35.7700   29.4050   32.4510 H   0  0  0  0  0  0  0  0  0  0  0  0
   35.0100   27.8890   32.7890 H   0  0  0  0  0  0  0  0  0  0  0  0
   35.7250   29.0310   34.4580 N   0  0  0  0  0  0  0  0  0  0  0  0
   35.1340   28.3470   35.0150 H   0  0  0  0  0  0  0  0  0  0  0  0
   35.1830   30.3600   34.5450 C   0  0  0  0  0  2  0  0  0  0  0  0
   35.9750   31.1000   35.6170 C   0  0  0  0  0  2  0  0  0  0  0  0
   35.9470   32.1910   35.3980 H   0  0  0  0  0  0  0  0  0  0  0  0
  2  3  1  0  0  0  0
  2  1  1  0  0  0  0
  3 15  1  0  0  0  0
  4  8  1  0  0  0  0
  4  3  2  0  0  0  0
  5  4  1  0  0  0  0
  6  5  2  0  0  0  0
  6  7  1  0  0  0  0
  7  2  2  0  0  0  0
  9  5  1  0  0  0  0
 10  6  1  0  0  0  0
 11 12  1  0  0  0  0
 11 17  1  0  0  0  0
 12 18  1  0  0  0  0
 13 12  2  0  0  0  0
 14 15  2  0  0  0  0
 14 13  1  0  0  0  0
 15 16  1  0  0  0  0
 16 11  2  0  0  0  0
 19 13  1  0  0  0  0
 20 23  1  0  0  0  0
 20  7  1  0  0  0  0
 20 21  1  0  0  0  0
 22 20  1  0  0  0  0
 23 26  1  0  0  0  0
 24 23  1  0  0  0  0
 25 23  1  0  0  0  0
 26 28  1  0  0  0  0
 26 27  1  0  0  0  0
 28 29  1  0  0  0  0
 30 29  1  0  0  0  0
M  END
>  <minimizedAffinity>
-4.40525293

$$$$

 OpenBabel03262520113D

 30 31  0  0  0  0  0  0  0  0999 V2000
   38.2560   27.1530   35.4400 Br  0  0  0  0  0  0  0  0  0  0  0  0
   38.0460   25.4180   34.6480 C   0  0  0  0  0  0  0  0  0  0  0  0
   37.7190   25.2790   33.3150 C   0  0  0  0  0  0  0  0  0  0  0  0
   37.5740   24.0160   32.8090 C   0  0  0  0  0  0  0  0  0  0  0  0
   37.7450   22.8850   33.5750 C   0  0  0  0  0  0  0  0  0  0  0  0
   38.0750   23.0450   34.9270 C   0  0  0  0  0  0  0  0  0  0  0  0
   38.2200   24.3210   35.4390 C   0  0  0  0  0  0  0  0  0  0  0  0
   37.3040   23.9870   31.7550 H   0  0  0  0  0  0  0  0  0  0  0  0
   37.5950   21.9780   33.0300 H   0  0  0  0  0  0  0  0  0  0  0  0
   38.1860   22.1260   35.4270 H   0  0  0  0  0  0  0  0  0  0  0  0
   38.5240   27.9490   30.9600 C   0  0  0  0  0  0  0  0  0  0  0  0
   37.3020   28.6670   30.8200 C   0  0  0  0  0  0  0  0  0  0  0  0
   36.2300   28.2120   31.5470 C   0  0  0  0  0  0  0  0  0  0  0  0
   36.3630   27.1100   32.3630 N   0  0  0  0  0  0  0  0  0  0  0  0
   37.5510   26.4600   32.4560 C   0  0  0  0  0  0  0  0  0  0  0  0
   38.6000   26.8920   31.7580 N   0  0  0  0  0  0  0  0  0  0  0  0
   39.3620   28.3160   30.3990 H   0  0  0  0  0  0  0  0  0  0  0  0
   37.2060   29.5120   30.1840 H   0  0  0  0  0  0  0  0  0  0  0  0
   35.2740   28.6940   31.4970 H   0  0  0  0  0  0  0  0  0  0  0  0
   38.5390   24.3490   36.8780 C   0  0  0  0  0  0  0  0  0  0  0  0
   39.5810   24.7430   36.9860 H   0  0  0  0  0  0  0  0  0  0  0  0
   37.9190   25.0990   37.4170 H   0  0  0  0  0  0  0  0  0  0  0  0
   38.5140   23.0440   37.5690 C   0  0  0  0  0  0  0  0  0  0  0  0
   37.8330   23.1700   38.4500 H   0  0  0  0  0  0  0  0  0  0  0  0
   38.0690   22.1880   37.0470 H   0  0  0  0  0  0  0  0  0  0  0  0
   39.8150   22.7890   38.1380 N   0  0  0  0  0  0  0  0  0  0  0  0
   40.2820   23.7280   38.3080 H   0  0  0  0  0  0  0  0  0  0  0  0
   40.6650   21.9320   37.3570 C   0  0  0  0  0  2  0  0  0  0  0  0
   41.7850   22.8000   36.7940 C   0  0  0  0  0  2  0  0  0  0  0  0
   42.6800   22.1630   36.6150 H   0  0  0  0  0  0  0  0  0  0  0  0
  2  7  1  0  0  0  0
  2  1  1  0  0  0  0
  3  2  2  0  0  0  0
  4  3  1  0  0  0  0
  4  5  2  0  0  0  0
  5  6  1  0  0  0  0
  6 10  1  0  0  0  0
  6  7  2  0  0  0  0
  7 20  1  0  0  0  0
  8  4  1  0  0  0  0
  9  5  1  0  0  0  0
 11 16  1  0  0  0  0
 12 11  2  0  0  0  0
 12 13  1  0  0  0  0
 13 14  2  0  0  0  0
 14 15  1  0  0  0  0
 15  3  1  0  0  0  0
 16 15  2  0  0  0  0
 17 11  1  0  0  0  0
 18 12  1  0  0  0  0
 19 13  1  0  0  0  0
 20 21  1  0  0  0  0
 20 22  1  0  0  0  0
 20 23  1  0  0  0  0
 23 26  1  0  0  0  0
 23 24  1  0  0  0  0
 25 23  1  0  0  0  0
 26 27  1  0  0  0  0
 28 26  1  0  0  0  0
 29 28  1  0  0  0  0
 30 29  1  0  0  0  0
M  END
>  <minimizedAffinity>
-4.38212681

$$$$

 OpenBabel03262520113D

 30 31  0  0  0  0  0  0  0  0999 V2000
   38.3340   26.4580   33.6910 Br  0  0  0  0  0  0  0  0  0  0  0  0
   37.2520   25.2310   32.6870 C   0  0  0  0  0  0  0  0  0  0  0  0
   36.3600   25.6830   31.7370 C   0  0  0  0  0  0  0  0  0  0  0  0
   35.6100   24.7600   31.0590 C   0  0  0  0  0  0  0  0  0  0  0  0
   35.7140   23.4060   31.2880 C   0  0  0  0  0  0  0  0  0  0  0  0
   36.6230   22.9660   32.2580 C   0  0  0  0  0  0  0  0  0  0  0  0
   37.3800   23.8980   32.9430 C   0  0  0  0  0  0  0  0  0  0  0  0
   34.9200   25.1920   30.3360 H   0  0  0  0  0  0  0  0  0  0  0  0
   35.0570   22.8220   30.6770 H   0  0  0  0  0  0  0  0  0  0  0  0
   36.6320   21.9190   32.3580 H   0  0  0  0  0  0  0  0  0  0  0  0
   36.8510   28.9020   30.0900 C   0  0  0  0  0  0  0  0  0  0  0  0
   36.0400   29.8020   30.8400 C   0  0  0  0  0  0  0  0  0  0  0  0
   35.3470   29.2730   31.9010 C   0  0  0  0  0  0  0  0  0  0  0  0
   35.4500   27.9310   32.1970 N   0  0  0  0  0  0  0  0  0  0  0  0
   36.2350   27.1170   31.4460 C   0  0  0  0  0  0  0  0  0  0  0  0
   36.9150   27.6180   30.4150 N   0  0  0  0  0  0  0  0  0  0  0  0
   37.4000   29.3230   29.2700 H   0  0  0  0  0  0  0  0  0  0  0  0
   35.9600   30.8330   30.6010 H   0  0  0  0  0  0  0  0  0  0  0  0
   34.7130   29.8800   32.5150 H   0  0  0  0  0  0  0  0  0  0  0  0
   38.2750   23.3050   33.9550 C   0  0  0  0  0  0  0  0  0  0  0  0
   39.2620   23.1160   33.4630 H   0  0  0  0  0  0  0  0  0  0  0  0
   38.5190   24.0350   34.7580 H   0  0  0  0  0  0  0  0  0  0  0  0
   37.8390   22.0140   34.5230 C   0  0  0  0  0  0  0  0  0  0  0  0
   36.7530   21.9110   34.2660 H   0  0  0  0  0  0  0  0  0  0  0  0
   38.2690   21.0920   34.1110 H   0  0  0  0  0  0  0  0  0  0  0  0
   37.8740   22.1000   35.9630 N   0  0  0  0  0  0  0  0  0  0  0  0
   36.8710   22.0740   36.3110 H   0  0  0  0  0  0  0  0  0  0  0  0
   38.5660   23.2440   36.4890 C   0  0  0  0  0  2  0  0  0  0  0  0
   37.8680   23.6370   37.7860 C   0  0  0  0  0  2  0  0  0  0  0  0
   38.5980   24.1540   38.4480 H   0  0  0  0  0  0  0  0  0  0  0  0
  2  7  1  0  0  0  0
  2  1  1  0  0  0  0
  3  2  2  0  0  0  0
  4  5  2  0  0  0  0
  4  3  1  0  0  0  0
  5  6  1  0  0  0  0
  6 10  1  0  0  0  0
  6  7  2  0  0  0  0
  7 20  1  0  0  0  0
  8  4  1  0  0  0  0
  9  5  1  0  0  0  0
 11 16  2  0  0  0  0
 11 12  1  0  0  0  0
 12 13  2  0  0  0  0
 13 14  1  0  0  0  0
 13 19  1  0  0  0  0
 15  3  1  0  0  0  0
 15 14  2  0  0  0  0
 16 15  1  0  0  0  0
 17 11  1  0  0  0  0
 18 12  1  0  0  0  0
 20 23  1  0  0  0  0
 20 22  1  0  0  0  0
 21 20  1  0  0  0  0
 23 26  1  0  0  0  0
 24 23  1  0  0  0  0
 25 23  1  0  0  0  0
 26 27  1  0  0  0  0
 26 28  1  0  0  0  0
 28 29  1  0  0  0  0
 29 30  1  0  0  0  0
M  END
>  <minimizedAffinity>
-4.35576534

$$$$

 OpenBabel03262520113D

 30 31  0  0  0  0  0  0  0  0999 V2000
   38.4310   26.4260   33.7730 Br  0  0  0  0  0  0  0  0  0  0  0  0
   37.3750   25.1790   32.7650 C   0  0  0  0  0  0  0  0  0  0  0  0
   36.5310   25.6100   31.7620 C   0  0  0  0  0  0  0  0  0  0  0  0
   35.7970   24.6740   31.0850 C   0  0  0  0  0  0  0  0  0  0  0  0
   35.8720   23.3280   31.3630 C   0  0  0  0  0  0  0  0  0  0  0  0
   36.7330   22.9090   32.3850 C   0  0  0  0  0  0  0  0  0  0  0  0
   37.4730   23.8550   33.0710 C   0  0  0  0  0  0  0  0  0  0  0  0
   35.1460   25.0900   30.3180 H   0  0  0  0  0  0  0  0  0  0  0  0
   35.2340   22.7320   30.7450 H   0  0  0  0  0  0  0  0  0  0  0  0
   36.7220   21.8670   32.5210 H   0  0  0  0  0  0  0  0  0  0  0  0
   35.4560   29.0970   31.8510 C   0  0  0  0  0  0  0  0  0  0  0  0
   36.2250   29.7210   30.8270 C   0  0  0  0  0  0  0  0  0  0  0  0
   37.0930   28.9200   30.1280 C   0  0  0  0  0  0  0  0  0  0  0  0
   37.1930   27.5790   30.4280 N   0  0  0  0  0  0  0  0  0  0  0  0
   36.4390   27.0350   31.4180 C   0  0  0  0  0  0  0  0  0  0  0  0
   35.5920   27.8020   32.1030 N   0  0  0  0  0  0  0  0  0  0  0  0
   34.7710   29.7250   32.3870 H   0  0  0  0  0  0  0  0  0  0  0  0
   36.1460   30.7570   30.6070 H   0  0  0  0  0  0  0  0  0  0  0  0
   37.7090   29.3110   29.3440 H   0  0  0  0  0  0  0  0  0  0  0  0
   38.3160   23.2860   34.1400 C   0  0  0  0  0  0  0  0  0  0  0  0
   39.2890   22.9840   33.6770 H   0  0  0  0  0  0  0  0  0  0  0  0
   38.6080   24.0600   34.8830 H   0  0  0  0  0  0  0  0  0  0  0  0
   37.7820   22.0820   34.8080 C   0  0  0  0  0  0  0  0  0  0  0  0
   36.7150   22.3130   35.0620 H   0  0  0  0  0  0  0  0  0  0  0  0
   37.6920   21.1580   34.2220 H   0  0  0  0  0  0  0  0  0  0  0  0
   38.4410   21.9220   36.0820 N   0  0  0  0  0  0  0  0  0  0  0  0
   37.8740   22.4530   36.8060 H   0  0  0  0  0  0  0  0  0  0  0  0
   39.8190   22.3320   36.1110 C   0  0  0  0  0  2  0  0  0  0  0  0
   40.1590   22.6620   37.5600 C   0  0  0  0  0  2  0  0  0  0  0  0
   41.2500   22.5110   37.7190 H   0  0  0  0  0  0  0  0  0  0  0  0
  2  7  1  0  0  0  0
  2  1  1  0  0  0  0
  3  2  2  0  0  0  0
  4  5  2  0  0  0  0
  4  3  1  0  0  0  0
  5  6  1  0  0  0  0
  6 10  1  0  0  0  0
  6  7  2  0  0  0  0
  7 20  1  0  0  0  0
  8  4  1  0  0  0  0
  9  5  1  0  0  0  0
 11 16  1  0  0  0  0
 11 17  1  0  0  0  0
 12 11  2  0  0  0  0
 13 14  2  0  0  0  0
 13 12  1  0  0  0  0
 14 15  1  0  0  0  0
 15  3  1  0  0  0  0
 15 16  2  0  0  0  0
 18 12  1  0  0  0  0
 19 13  1  0  0  0  0
 20 23  1  0  0  0  0
 20 22  1  0  0  0  0
 21 20  1  0  0  0  0
 23 24  1  0  0  0  0
 23 26  1  0  0  0  0
 25 23  1  0  0  0  0
 26 28  1  0  0  0  0
 26 27  1  0  0  0  0
 28 29  1  0  0  0  0
 29 30  1  0  0  0  0
M  END
>  <minimizedAffinity>
-4.30460024

$$$$

 OpenBabel03262520113D

 30 31  0  0  0  0  0  0  0  0999 V2000
   35.1290   31.3110   31.9970 Br  0  0  0  0  0  0  0  0  0  0  0  0
   35.8940   29.6830   32.6680 C   0  0  0  0  0  0  0  0  0  0  0  0
   35.8500   29.3790   34.0130 C   0  0  0  0  0  0  0  0  0  0  0  0
   36.4200   28.2080   34.4330 C   0  0  0  0  0  0  0  0  0  0  0  0
   37.0300   27.3270   33.5680 C   0  0  0  0  0  0  0  0  0  0  0  0
   37.0670   27.6540   32.2060 C   0  0  0  0  0  0  0  0  0  0  0  0
   36.4920   28.8380   31.7830 C   0  0  0  0  0  0  0  0  0  0  0  0
   36.3570   28.0420   35.5070 H   0  0  0  0  0  0  0  0  0  0  0  0
   37.4260   26.4610   34.0560 H   0  0  0  0  0  0  0  0  0  0  0  0
   37.5510   26.9210   31.6280 H   0  0  0  0  0  0  0  0  0  0  0  0
   33.2030   30.9480   35.9770 C   0  0  0  0  0  0  0  0  0  0  0  0
   33.8820   31.9360   36.7450 C   0  0  0  0  0  0  0  0  0  0  0  0
   35.2390   32.0390   36.5610 C   0  0  0  0  0  0  0  0  0  0  0  0
   35.8830   31.2090   35.6700 N   0  0  0  0  0  0  0  0  0  0  0  0
   35.1870   30.2800   34.9660 C   0  0  0  0  0  0  0  0  0  0  0  0
   33.8700   30.1710   35.1330 N   0  0  0  0  0  0  0  0  0  0  0  0
   32.1410   30.8790   36.1160 H   0  0  0  0  0  0  0  0  0  0  0  0
   33.3800   32.5680   37.4350 H   0  0  0  0  0  0  0  0  0  0  0  0
   35.8250   32.7550   37.1010 H   0  0  0  0  0  0  0  0  0  0  0  0
   36.6260   29.0750   30.3330 C   0  0  0  0  0  0  0  0  0  0  0  0
   35.6480   28.8150   29.8560 H   0  0  0  0  0  0  0  0  0  0  0  0
   36.7480   30.1570   30.1080 H   0  0  0  0  0  0  0  0  0  0  0  0
   37.6520   28.2700   29.6410 C   0  0  0  0  0  0  0  0  0  0  0  0
   38.6410   28.6120   30.0430 H   0  0  0  0  0  0  0  0  0  0  0  0
   37.6810   27.1890   29.8300 H   0  0  0  0  0  0  0  0  0  0  0  0
   37.6720   28.6340   28.2450 N   0  0  0  0  0  0  0  0  0  0  0  0
   38.3110   27.9500   27.7430 H   0  0  0  0  0  0  0  0  0  0  0  0
   38.0650   29.9900   27.9750 C   0  0  0  0  0  2  0  0  0  0  0  0
   39.5380   30.1150   28.3470 C   0  0  0  0  0  2  0  0  0  0  0  0
   39.9970   30.9270   27.7400 H   0  0  0  0  0  0  0  0  0  0  0  0
  1  2  1  0  0  0  0
  2  3  1  0  0  0  0
  3  4  2  0  0  0  0
  3 15  1  0  0  0  0
  4  8  1  0  0  0  0
  5  9  1  0  0  0  0
  5  4  1  0  0  0  0
  6  5  2  0  0  0  0
  7  6  1  0  0  0  0
  7  2  2  0  0  0  0
 10  6  1  0  0  0  0
 11 17  1  0  0  0  0
 11 12  1  0  0  0  0
 12 18  1  0  0  0  0
 13 12  2  0  0  0  0
 13 19  1  0  0  0  0
 14 13  1  0  0  0  0
 15 16  1  0  0  0  0
 15 14  2  0  0  0  0
 16 11  2  0  0  0  0
 20  7  1  0  0  0  0
 21 20  1  0  0  0  0
 22 20  1  0  0  0  0
 23 25  1  0  0  0  0
 23 24  1  0  0  0  0
 23 20  1  0  0  0  0
 26 23  1  0  0  0  0
 27 26  1  0  0  0  0
 28 26  1  0  0  0  0
 28 29  1  0  0  0  0
 30 29  1  0  0  0  0
M  END
>  <minimizedAffinity>
-4.28542662

$$$$

 OpenBabel03262520113D

 30 31  0  0  0  0  0  0  0  0999 V2000
   38.5530   21.9030   33.8920 Br  0  0  0  0  0  0  0  0  0  0  0  0
   37.3690   23.0090   32.8630 C   0  0  0  0  0  0  0  0  0  0  0  0
   36.4130   22.4520   32.0380 C   0  0  0  0  0  0  0  0  0  0  0  0
   35.6040   23.2920   31.3220 C   0  0  0  0  0  0  0  0  0  0  0  0
   35.7060   24.6630   31.3970 C   0  0  0  0  0  0  0  0  0  0  0  0
   36.6830   25.2110   32.2370 C   0  0  0  0  0  0  0  0  0  0  0  0
   37.5020   24.3620   32.9590 C   0  0  0  0  0  0  0  0  0  0  0  0
   34.8840   22.7810   30.6860 H   0  0  0  0  0  0  0  0  0  0  0  0
   35.0020   25.1740   30.7740 H   0  0  0  0  0  0  0  0  0  0  0  0
   36.6820   26.2620   32.2280 H   0  0  0  0  0  0  0  0  0  0  0  0
   36.7320   19.0400   30.7830 C   0  0  0  0  0  0  0  0  0  0  0  0
   36.0050   18.2560   31.7250 C   0  0  0  0  0  0  0  0  0  0  0  0
   35.4190   18.9280   32.7690 C   0  0  0  0  0  0  0  0  0  0  0  0
   35.5480   20.2960   32.8730 N   0  0  0  0  0  0  0  0  0  0  0  0
   36.2560   20.9940   31.9480 C   0  0  0  0  0  0  0  0  0  0  0  0
   36.8280   20.3540   30.9290 N   0  0  0  0  0  0  0  0  0  0  0  0
   37.1780   18.5110   29.9630 H   0  0  0  0  0  0  0  0  0  0  0  0
   35.9170   17.2010   31.6420 H   0  0  0  0  0  0  0  0  0  0  0  0
   34.8570   18.4130   33.5220 H   0  0  0  0  0  0  0  0  0  0  0  0
   38.5050   25.0650   33.7810 C   0  0  0  0  0  0  0  0  0  0  0  0
   39.3030   24.3260   34.0460 H   0  0  0  0  0  0  0  0  0  0  0  0
   39.0470   25.8350   33.1900 H   0  0  0  0  0  0  0  0  0  0  0  0
   38.0150   25.6220   35.0580 C   0  0  0  0  0  0  0  0  0  0  0  0
   38.4580   26.6490   35.1400 H   0  0  0  0  0  0  0  0  0  0  0  0
   36.9410   25.8190   35.1620 H   0  0  0  0  0  0  0  0  0  0  0  0
   38.5960   24.8780   36.1490 N   0  0  0  0  0  0  0  0  0  0  0  0
   39.3740   24.2750   35.7490 H   0  0  0  0  0  0  0  0  0  0  0  0
   37.6700   24.0800   36.9040 C   0  0  0  0  0  2  0  0  0  0  0  0
   37.9750   24.3100   38.3800 C   0  0  0  0  0  2  0  0  0  0  0  0
   37.0500   24.1340   38.9720 H   0  0  0  0  0  0  0  0  0  0  0  0
  2  7  1  0  0  0  0
  2  1  1  0  0  0  0
  3  2  2  0  0  0  0
  4  5  2  0  0  0  0
  4  3  1  0  0  0  0
  5  6  1  0  0  0  0
  6  7  2  0  0  0  0
  7 20  1  0  0  0  0
  8  4  1  0  0  0  0
  9  5  1  0  0  0  0
 10  6  1  0  0  0  0
 11 16  2  0  0  0  0
 11 12  1  0  0  0  0
 12 13  2  0  0  0  0
 13 14  1  0  0  0  0
 13 19  1  0  0  0  0
 15  3  1  0  0  0  0
 15 14  2  0  0  0  0
 16 15  1  0  0  0  0
 17 11  1  0  0  0  0
 18 12  1  0  0  0  0
 20 21  1  0  0  0  0
 20 23  1  0  0  0  0
 22 20  1  0  0  0  0
 23 24  1  0  0  0  0
 23 25  1  0  0  0  0
 23 26  1  0  0  0  0
 26 28  1  0  0  0  0
 27 26  1  0  0  0  0
 28 29  1  0  0  0  0
 29 30  1  0  0  0  0
M  END
>  <minimizedAffinity>
-4.26676226

$$$$
