
 OpenBabel03272508163D

 25 26  0  0  0  0  0  0  0  0999 V2000
   36.9210   32.1480   49.8780 Cl  0  0  0  0  0  0  0  0  0  0  0  0
   37.6030   31.7940   48.3230 C   0  0  0  0  0  0  0  0  0  0  0  0
   36.9700   30.7720   47.6860 C   0  0  0  0  0  0  0  0  0  0  0  0
   37.4550   30.4070   46.4060 C   0  0  0  0  0  0  0  0  0  0  0  0
   38.5090   31.0440   45.8250 C   0  0  0  0  0  0  0  0  0  0  0  0
   39.1210   32.0720   46.4980 C   0  0  0  0  0  0  0  0  0  0  0  0
   40.4690   32.9110   45.7950 Cl  0  0  0  0  0  0  0  0  0  0  0  0
   38.6680   32.4320   47.7270 C   0  0  0  0  0  0  0  0  0  0  0  0
   37.0190   29.6090   45.8230 H   0  0  0  0  0  0  0  0  0  0  0  0
   38.8820   30.7670   44.8460 H   0  0  0  0  0  0  0  0  0  0  0  0
   36.0110   29.0750   49.1840 C   0  0  0  0  0  0  0  0  0  0  0  0
   35.8300   29.9520   48.1130 C   0  0  0  0  0  0  0  0  0  0  0  0
   34.5670   30.0060   47.5000 C   0  0  0  0  0  0  0  0  0  0  0  0
   33.5950   29.2000   47.9840 N   0  0  0  0  0  0  0  0  0  0  0  0
   33.8080   28.3620   49.0250 C   0  0  0  0  0  0  0  0  0  0  0  0
   35.0220   28.2980   49.6270 N   0  0  0  0  0  0  0  0  0  0  0  0
   36.9870   29.0410   49.6490 H   0  0  0  0  0  0  0  0  0  0  0  0
   34.4340   30.6730   46.6880 H   0  0  0  0  0  0  0  0  0  0  0  0
   33.0290   27.7110   49.4180 H   0  0  0  0  0  0  0  0  0  0  0  0
   39.2650   33.5240   48.5200 C   0  0  0  0  0  0  0  0  0  0  0  0
   39.7590   34.5800   48.1450 O   0  0  0  0  0  0  0  0  0  0  0  0
   39.3850   33.5560   49.9290 O   0  0  0  0  0  0  0  0  0  0  0  0
   39.8870   34.6480   50.6230 C   0  0  0  0  0  2  0  0  0  0  0  0
   41.2040   34.4140   51.3130 C   0  0  0  0  0  2  0  0  0  0  0  0
   41.2540   35.1040   52.2020 H   0  0  0  0  0  0  0  0  0  0  0  0
  2  1  1  0  0  0  0
  3 12  1  0  0  0  0
  3  2  2  0  0  0  0
  4  3  1  0  0  0  0
  5  4  2  0  0  0  0
  5  6  1  0  0  0  0
  6  8  2  0  0  0  0
  7  6  1  0  0  0  0
  8  2  1  0  0  0  0
  8 20  1  0  0  0  0
  9  4  1  0  0  0  0
 10  5  1  0  0  0  0
 11 16  1  0  0  0  0
 11 17  1  0  0  0  0
 12 11  2  0  0  0  0
 13 14  2  0  0  0  0
 13 12  1  0  0  0  0
 14 15  1  0  0  0  0
 15 19  1  0  0  0  0
 15 16  2  0  0  0  0
 18 13  1  0  0  0  0
 20 22  1  0  0  0  0
 21 20  2  0  0  0  0
 22 23  1  0  0  0  0
 23 24  1  0  0  0  0
 24 25  1  0  0  0  0
M  END
>  <minimizedAffinity>
-3.0582037

>  <minimizedRMSD>
0.378870517

$$$$
