
 OpenBabel03272508163D

 25 26  0  0  0  0  0  0  0  0999 V2000
   36.9200   32.1320   49.7690 Cl  0  0  0  0  0  0  0  0  0  0  0  0
   37.6080   31.7370   48.2270 C   0  0  0  0  0  0  0  0  0  0  0  0
   36.9610   30.7170   47.6020 C   0  0  0  0  0  0  0  0  0  0  0  0
   37.4490   30.3190   46.3330 C   0  0  0  0  0  0  0  0  0  0  0  0
   38.5200   30.9250   45.7510 C   0  0  0  0  0  0  0  0  0  0  0  0
   39.1480   31.9530   46.4110 C   0  0  0  0  0  0  0  0  0  0  0  0
   40.5170   32.7530   45.7060 Cl  0  0  0  0  0  0  0  0  0  0  0  0
   38.6910   32.3440   47.6290 C   0  0  0  0  0  0  0  0  0  0  0  0
   37.0020   29.5200   45.7600 H   0  0  0  0  0  0  0  0  0  0  0  0
   38.8970   30.6240   44.7790 H   0  0  0  0  0  0  0  0  0  0  0  0
   35.9560   29.0640   49.1200 C   0  0  0  0  0  0  0  0  0  0  0  0
   35.8010   29.9270   48.0330 C   0  0  0  0  0  0  0  0  0  0  0  0
   34.5450   29.9950   47.4080 C   0  0  0  0  0  0  0  0  0  0  0  0
   33.5530   29.2160   47.8980 N   0  0  0  0  0  0  0  0  0  0  0  0
   33.7400   28.3920   48.9540 C   0  0  0  0  0  0  0  0  0  0  0  0
   34.9480   28.3150   49.5690 N   0  0  0  0  0  0  0  0  0  0  0  0
   36.9270   29.0200   49.5940 H   0  0  0  0  0  0  0  0  0  0  0  0
   34.4320   30.6510   46.5840 H   0  0  0  0  0  0  0  0  0  0  0  0
   32.9460   27.7640   49.3520 H   0  0  0  0  0  0  0  0  0  0  0  0
   39.3030   33.4370   48.4080 C   0  0  0  0  0  0  0  0  0  0  0  0
   39.8680   34.4510   48.0180 O   0  0  0  0  0  0  0  0  0  0  0  0
   39.3530   33.5230   49.8190 O   0  0  0  0  0  0  0  0  0  0  0  0
   39.8170   34.6430   50.4960 C   0  0  0  0  0  2  0  0  0  0  0  0
   41.0800   34.4320   51.2860 C   0  0  0  0  0  2  0  0  0  0  0  0
   41.0750   35.1630   52.1430 H   0  0  0  0  0  0  0  0  0  0  0  0
  2  1  1  0  0  0  0
  3 12  1  0  0  0  0
  3  2  2  0  0  0  0
  4  3  1  0  0  0  0
  5  4  2  0  0  0  0
  5  6  1  0  0  0  0
  6  8  2  0  0  0  0
  7  6  1  0  0  0  0
  8  2  1  0  0  0  0
  8 20  1  0  0  0  0
  9  4  1  0  0  0  0
 10  5  1  0  0  0  0
 11 16  1  0  0  0  0
 11 17  1  0  0  0  0
 12 11  2  0  0  0  0
 13 14  2  0  0  0  0
 13 12  1  0  0  0  0
 14 15  1  0  0  0  0
 15 19  1  0  0  0  0
 15 16  2  0  0  0  0
 18 13  1  0  0  0  0
 20 22  1  0  0  0  0
 21 20  2  0  0  0  0
 22 23  1  0  0  0  0
 23 24  1  0  0  0  0
 24 25  1  0  0  0  0
M  END
>  <minimizedAffinity>
-3.10374141

>  <minimizedRMSD>
0.467997581

$$$$
