
 OpenBabel03272506363D

 17 17  0  0  0  0  0  0  0  0999 V2000
   37.4980   30.6610   47.5140 C   0  0  0  0  0  0  0  0  0  0  0  0
   38.8410   30.7290   47.1260 C   0  0  0  0  0  0  0  0  0  0  0  0
   39.1610   30.9360   45.7820 C   0  0  0  0  0  0  0  0  0  0  0  0
   38.1180   31.0650   44.8980 N   0  0  0  0  0  0  0  0  0  0  0  0
   36.8330   30.9950   45.3110 C   0  0  0  0  0  0  0  0  0  0  0  0
   36.5280   30.7960   46.5980 N   0  0  0  0  0  0  0  0  0  0  0  0
   34.9360   29.9530   44.3150 C   0  0  0  0  0  0  0  0  0  0  0  0
   35.0280   28.8700   44.9900 O   0  0  0  0  0  0  0  0  0  0  0  0
   35.7700   31.1340   44.3530 N   0  0  0  0  0  0  0  0  0  0  0  0
   39.6990   30.6400   47.7410 H   0  0  0  0  0  0  0  0  0  0  0  0
   40.1810   30.9980   45.4130 H   0  0  0  0  0  0  0  0  0  0  0  0
   34.0920   29.9650   43.6080 H   0  0  0  0  0  0  0  0  0  0  0  0
   35.5250   31.9180   43.7170 H   0  0  0  0  0  0  0  0  0  0  0  0
   37.3690   30.4540   48.8670 O   0  0  0  0  0  0  0  0  0  0  0  0
   36.6360   29.3450   49.3110 C   0  0  0  0  0  2  0  0  0  0  0  0
   35.8500   29.6680   50.5630 C   0  0  0  0  0  2  0  0  0  0  0  0
   35.4110   28.7200   50.9290 H   0  0  0  0  0  0  0  0  0  0  0  0
  1 14  1  0  0  0  0
  2  1  1  0  0  0  0
  2 10  1  0  0  0  0
  3  2  2  0  0  0  0
  4  5  2  0  0  0  0
  4  3  1  0  0  0  0
  5  6  1  0  0  0  0
  6  1  2  0  0  0  0
  7  9  1  0  0  0  0
  7  8  2  0  0  0  0
  9  5  1  0  0  0  0
 11  3  1  0  0  0  0
 12  7  1  0  0  0  0
 13  9  1  0  0  0  0
 14 15  1  0  0  0  0
 15 16  1  0  0  0  0
 16 17  1  0  0  0  0
M  END
>  <minimizedAffinity>
-2.87154436

>  <minimizedRMSD>
4.2384553

$$$$
