
 OpenBabel03272503433D

 35 37  0  0  1  0  0  0  0  0999 V2000
   37.1220   27.5420   33.8540 C   0  0  0  0  0  0  0  0  0  0  0  0
   37.1690   27.9720   32.5610 C   0  0  0  0  0  0  0  0  0  0  0  0
   36.1010   28.8690   32.4550 C   0  0  0  0  0  0  0  0  0  0  0  0
   35.4690   28.9540   33.6280 N   0  0  0  0  0  0  0  0  0  0  0  0
   36.0890   28.1410   34.4950 N   0  0  0  0  0  0  0  0  0  0  0  0
   37.8500   27.7050   31.7850 H   0  0  0  0  0  0  0  0  0  0  0  0
   35.8580   29.4010   31.5250 H   0  0  0  0  0  0  0  0  0  0  0  0
   34.5720   30.7210   35.0660 C   0  0  2  0  0  0  0  0  0  0  0  0
   34.3230   29.7900   33.8670 C   0  0  1  0  0  0  0  0  0  0  0  0
   34.0940   30.8220   32.8100 C   0  0  0  0  0  0  0  0  0  0  0  0
   33.4450   31.8790   33.3940 O   0  0  0  0  0  0  0  0  0  0  0  0
   33.4680   31.7350   34.7580 C   0  0  0  0  0  0  0  0  0  0  0  0
   34.4140   30.2140   36.0120 H   0  0  0  0  0  0  0  0  0  0  0  0
   33.4180   29.1810   34.0000 H   0  0  0  0  0  0  0  0  0  0  0  0
   33.5020   30.4520   31.9430 H   0  0  0  0  0  0  0  0  0  0  0  0
   35.0690   31.2010   32.4340 H   0  0  0  0  0  0  0  0  0  0  0  0
   33.5940   32.6760   35.3140 H   0  0  0  0  0  0  0  0  0  0  0  0
   32.5230   31.2170   35.0480 H   0  0  0  0  0  0  0  0  0  0  0  0
   35.8010   31.2950   34.8570 O   0  0  0  0  0  0  0  0  0  0  0  0
   36.1840   32.2230   35.7990 C   0  0  0  0  0  2  0  0  0  0  0  0
   36.8520   33.3960   35.1240 C   0  0  0  0  0  2  0  0  0  0  0  0
   36.1440   33.9940   34.5430 H   0  0  0  0  0  0  0  0  0  0  0  0
   38.5300   24.7370   35.8960 C   0  0  0  0  0  0  0  0  0  0  0  0
   37.6210   25.6160   35.3500 C   0  0  0  0  0  0  0  0  0  0  0  0
   38.0360   26.5880   34.4600 C   0  0  0  0  0  0  0  0  0  0  0  0
   39.3490   26.6340   34.1560 N   0  0  0  0  0  0  0  0  0  0  0  0
   40.2400   25.7560   34.7050 C   0  0  0  0  0  0  0  0  0  0  0  0
   39.8390   24.8210   35.5600 N   0  0  0  0  0  0  0  0  0  0  0  0
   36.5570   25.6190   35.5630 H   0  0  0  0  0  0  0  0  0  0  0  0
   41.2740   25.8520   34.4160 H   0  0  0  0  0  0  0  0  0  0  0  0
   37.9540   23.8200   36.7720 O   0  0  0  0  0  0  0  0  0  0  0  0
   38.2050   23.8040   38.1560 C   0  0  0  0  0  0  0  0  0  0  0  0
   38.0620   25.0590   38.7270 F   0  0  0  0  0  0  0  0  0  0  0  0
   39.4570   23.2920   38.3720 F   0  0  0  0  0  0  0  0  0  0  0  0
   37.2920   22.9320   38.7460 F   0  0  0  0  0  0  0  0  0  0  0  0
  1 25  1  0  0  0  0
  1  5  2  0  0  0  0
  2  1  1  0  0  0  0
  3  2  2  0  0  0  0
  3  4  1  0  0  0  0
  4  9  1  0  0  0  0
  4  5  1  0  0  0  0
  6  2  1  0  0  0  0
  7  3  1  0  0  0  0
  8 13  1  1  0  0  0
  9 14  1  1  0  0  0
  9  8  1  0  0  0  0
 10 11  1  0  0  0  0
 10  9  1  0  0  0  0
 11 12  1  0  0  0  0
 12 18  1  0  0  0  0
 12  8  1  0  0  0  0
 12 17  1  0  0  0  0
 15 10  1  0  0  0  0
 16 10  1  0  0  0  0
 19  8  1  0  0  0  0
 19 20  1  0  0  0  0
 21 20  1  0  0  0  0
 22 21  1  0  0  0  0
 23 31  1  0  0  0  0
 24 29  1  0  0  0  0
 24 23  2  0  0  0  0
 25 24  1  0  0  0  0
 26 25  2  0  0  0  0
 26 27  1  0  0  0  0
 27 28  2  0  0  0  0
 28 23  1  0  0  0  0
 30 27  1  0  0  0  0
 31 32  1  0  0  0  0
 32 34  1  0  0  0  0
 32 33  1  0  0  0  0
 32 35  1  0  0  0  0
M  END
>  <minimizedAffinity>
-5.24661875

$$$$

 OpenBabel03272503433D

 35 37  0  0  1  0  0  0  0  0999 V2000
   36.6340   27.6870   33.6470 C   0  0  0  0  0  0  0  0  0  0  0  0
   36.2710   28.0910   32.3970 C   0  0  0  0  0  0  0  0  0  0  0  0
   35.7700   29.3840   32.5820 C   0  0  0  0  0  0  0  0  0  0  0  0
   35.8410   29.7110   33.8740 N   0  0  0  0  0  0  0  0  0  0  0  0
   36.3720   28.6740   34.5380 N   0  0  0  0  0  0  0  0  0  0  0  0
   36.3390   27.5650   31.4710 H   0  0  0  0  0  0  0  0  0  0  0  0
   35.3870   30.0000   31.7570 H   0  0  0  0  0  0  0  0  0  0  0  0
   33.8790   31.0030   34.5630 C   0  0  2  0  0  0  0  0  0  0  0  0
   35.4090   30.9740   34.4100 C   0  0  1  0  0  0  0  0  0  0  0  0
   35.7940   31.1910   35.8380 C   0  0  0  0  0  0  0  0  0  0  0  0
   34.8710   32.0380   36.3940 O   0  0  0  0  0  0  0  0  0  0  0  0
   33.8030   32.1760   35.5440 C   0  0  0  0  0  0  0  0  0  0  0  0
   33.3810   31.2180   33.6250 H   0  0  0  0  0  0  0  0  0  0  0  0
   35.7760   31.8050   33.7910 H   0  0  0  0  0  0  0  0  0  0  0  0
   36.8160   31.6130   35.9680 H   0  0  0  0  0  0  0  0  0  0  0  0
   35.7380   30.2310   36.3950 H   0  0  0  0  0  0  0  0  0  0  0  0
   32.8260   32.2430   36.0460 H   0  0  0  0  0  0  0  0  0  0  0  0
   33.9980   33.0770   34.9170 H   0  0  0  0  0  0  0  0  0  0  0  0
   33.5360   29.8380   35.2050 O   0  0  0  0  0  0  0  0  0  0  0  0
   32.3100   29.3160   34.8590 C   0  0  0  0  0  2  0  0  0  0  0  0
   32.1530   29.3210   33.3580 C   0  0  0  0  0  2  0  0  0  0  0  0
   32.8140   28.5960   32.8740 H   0  0  0  0  0  0  0  0  0  0  0  0
   38.2710   24.8720   35.4950 C   0  0  0  0  0  0  0  0  0  0  0  0
   37.7310   26.1110   35.2320 C   0  0  0  0  0  0  0  0  0  0  0  0
   37.2160   26.3970   33.9820 C   0  0  0  0  0  0  0  0  0  0  0  0
   37.2670   25.4250   33.0500 N   0  0  0  0  0  0  0  0  0  0  0  0
   37.8060   24.2000   33.3250 C   0  0  0  0  0  0  0  0  0  0  0  0
   38.3000   23.9260   34.5280 N   0  0  0  0  0  0  0  0  0  0  0  0
   37.6670   26.9250   35.9470 H   0  0  0  0  0  0  0  0  0  0  0  0
   37.8130   23.4710   32.5320 H   0  0  0  0  0  0  0  0  0  0  0  0
   38.7460   24.7420   36.7990 O   0  0  0  0  0  0  0  0  0  0  0  0
   38.1040   23.9730   37.7870 C   0  0  0  0  0  0  0  0  0  0  0  0
   36.9980   23.3010   37.2880 F   0  0  0  0  0  0  0  0  0  0  0  0
   37.7680   24.7900   38.8330 F   0  0  0  0  0  0  0  0  0  0  0  0
   39.0220   23.0390   38.2640 F   0  0  0  0  0  0  0  0  0  0  0  0
  1 25  1  0  0  0  0
  1  5  2  0  0  0  0
  2  3  2  0  0  0  0
  2  1  1  0  0  0  0
  3  4  1  0  0  0  0
  4  9  1  0  0  0  0
  4  5  1  0  0  0  0
  6  2  1  0  0  0  0
  7  3  1  0  0  0  0
  8 13  1  6  0  0  0
  8 19  1  0  0  0  0
  8 12  1  0  0  0  0
  9 14  1  6  0  0  0
  9  8  1  0  0  0  0
  9 10  1  0  0  0  0
 10 15  1  0  0  0  0
 10 11  1  0  0  0  0
 10 16  1  0  0  0  0
 12 17  1  0  0  0  0
 12 11  1  0  0  0  0
 18 12  1  0  0  0  0
 20 19  1  0  0  0  0
 21 20  1  0  0  0  0
 22 21  1  0  0  0  0
 23 31  1  0  0  0  0
 24 23  1  0  0  0  0
 24 29  1  0  0  0  0
 25 24  2  0  0  0  0
 26 27  2  0  0  0  0
 26 25  1  0  0  0  0
 27 28  1  0  0  0  0
 28 23  2  0  0  0  0
 30 27  1  0  0  0  0
 31 32  1  0  0  0  0
 32 35  1  0  0  0  0
 32 34  1  0  0  0  0
 33 32  1  0  0  0  0
M  END
>  <minimizedAffinity>
-5.20839214

$$$$

 OpenBabel03272503433D

 35 37  0  0  1  0  0  0  0  0999 V2000
   37.0030   26.9760   33.2680 C   0  0  0  0  0  0  0  0  0  0  0  0
   37.3130   26.1760   32.2080 C   0  0  0  0  0  0  0  0  0  0  0  0
   37.8040   25.0030   32.7910 C   0  0  0  0  0  0  0  0  0  0  0  0
   37.7780   25.1190   34.1210 N   0  0  0  0  0  0  0  0  0  0  0  0
   37.2860   26.3290   34.4250 N   0  0  0  0  0  0  0  0  0  0  0  0
   37.2160   26.3710   31.1640 H   0  0  0  0  0  0  0  0  0  0  0  0
   38.1470   24.1420   32.2020 H   0  0  0  0  0  0  0  0  0  0  0  0
   39.7500   24.0560   35.1080 C   0  0  2  0  0  0  0  0  0  0  0  0
   38.2140   24.0910   35.0280 C   0  0  1  0  0  0  0  0  0  0  0  0
   37.9080   24.3780   36.4620 C   0  0  0  0  0  0  0  0  0  0  0  0
   38.8450   23.7300   37.2260 O   0  0  0  0  0  0  0  0  0  0  0  0
   39.8580   23.2740   36.4200 C   0  0  0  0  0  0  0  0  0  0  0  0
   40.1880   23.5210   34.2730 H   0  0  0  0  0  0  0  0  0  0  0  0
   37.7940   23.1170   34.7410 H   0  0  0  0  0  0  0  0  0  0  0  0
   36.8880   24.0630   36.7750 H   0  0  0  0  0  0  0  0  0  0  0  0
   38.0170   25.4660   36.6620 H   0  0  0  0  0  0  0  0  0  0  0  0
   40.8610   23.3400   36.8680 H   0  0  0  0  0  0  0  0  0  0  0  0
   39.6080   22.2240   36.1410 H   0  0  0  0  0  0  0  0  0  0  0  0
   40.1530   25.3530   35.3060 O   0  0  0  0  0  0  0  0  0  0  0  0
   41.2350   25.7530   34.5530 C   0  0  0  0  0  2  0  0  0  0  0  0
   40.9240   27.0570   33.8590 C   0  0  0  0  0  2  0  0  0  0  0  0
   40.8620   27.8920   34.5630 H   0  0  0  0  0  0  0  0  0  0  0  0
   35.3480   30.2270   34.1130 C   0  0  0  0  0  0  0  0  0  0  0  0
   35.8560   28.9550   34.2530 C   0  0  0  0  0  0  0  0  0  0  0  0
   36.4510   28.3180   33.1790 C   0  0  0  0  0  0  0  0  0  0  0  0
   36.5080   28.9890   32.0120 N   0  0  0  0  0  0  0  0  0  0  0  0
   36.0000   30.2510   31.8870 C   0  0  0  0  0  0  0  0  0  0  0  0
   35.4290   30.8620   32.9200 N   0  0  0  0  0  0  0  0  0  0  0  0
   35.8340   28.3740   35.1690 H   0  0  0  0  0  0  0  0  0  0  0  0
   36.0820   30.7270   30.9240 H   0  0  0  0  0  0  0  0  0  0  0  0
   34.7850   30.7280   35.2850 O   0  0  0  0  0  0  0  0  0  0  0  0
   35.3550   31.7700   36.0380 C   0  0  0  0  0  0  0  0  0  0  0  0
   34.8640   31.8060   37.3350 F   0  0  0  0  0  0  0  0  0  0  0  0
   35.1400   32.9550   35.3860 F   0  0  0  0  0  0  0  0  0  0  0  0
   36.7320   31.5620   36.0820 F   0  0  0  0  0  0  0  0  0  0  0  0
  1  5  2  0  0  0  0
  2  3  2  0  0  0  0
  2  1  1  0  0  0  0
  3  4  1  0  0  0  0
  4  5  1  0  0  0  0
  4  9  1  0  0  0  0
  6  2  1  0  0  0  0
  7  3  1  0  0  0  0
  8 13  1  6  0  0  0
  8 19  1  0  0  0  0
  8 12  1  0  0  0  0
  9 14  1  6  0  0  0
  9  8  1  0  0  0  0
  9 10  1  0  0  0  0
 10 16  1  0  0  0  0
 10 15  1  0  0  0  0
 10 11  1  0  0  0  0
 12 17  1  0  0  0  0
 12 11  1  0  0  0  0
 18 12  1  0  0  0  0
 20 19  1  0  0  0  0
 21 20  1  0  0  0  0
 21 22  1  0  0  0  0
 23 24  1  0  0  0  0
 23 31  1  0  0  0  0
 24 29  1  0  0  0  0
 25  1  1  0  0  0  0
 25 24  2  0  0  0  0
 26 25  1  0  0  0  0
 27 26  2  0  0  0  0
 27 28  1  0  0  0  0
 28 23  2  0  0  0  0
 30 27  1  0  0  0  0
 31 32  1  0  0  0  0
 32 35  1  0  0  0  0
 32 33  1  0  0  0  0
 34 32  1  0  0  0  0
M  END
>  <minimizedAffinity>
-5.10959911

$$$$

 OpenBabel03272503433D

 35 37  0  0  1  0  0  0  0  0999 V2000
   37.3510   27.3180   34.4860 C   0  0  0  0  0  0  0  0  0  0  0  0
   38.2300   27.5930   35.4920 C   0  0  0  0  0  0  0  0  0  0  0  0
   38.9560   26.4080   35.6520 C   0  0  0  0  0  0  0  0  0  0  0  0
   38.5180   25.4940   34.7820 N   0  0  0  0  0  0  0  0  0  0  0  0
   37.5310   26.0440   34.0600 N   0  0  0  0  0  0  0  0  0  0  0  0
   38.3590   28.4940   36.0490 H   0  0  0  0  0  0  0  0  0  0  0  0
   39.7570   26.2930   36.3950 H   0  0  0  0  0  0  0  0  0  0  0  0
   39.0060   23.4520   36.0430 C   0  0  2  0  0  0  0  0  0  0  0  0
   39.0510   24.1620   34.6780 C   0  0  1  0  0  0  0  0  0  0  0  0
   38.1900   23.2230   33.8950 C   0  0  0  0  0  0  0  0  0  0  0  0
   38.4250   21.9550   34.3600 O   0  0  0  0  0  0  0  0  0  0  0  0
   39.1510   22.0200   35.5220 C   0  0  0  0  0  0  0  0  0  0  0  0
   39.8320   23.7450   36.6790 H   0  0  0  0  0  0  0  0  0  0  0  0
   40.0660   24.1800   34.2580 H   0  0  0  0  0  0  0  0  0  0  0  0
   38.3700   23.2600   32.7980 H   0  0  0  0  0  0  0  0  0  0  0  0
   37.1170   23.4490   34.0820 H   0  0  0  0  0  0  0  0  0  0  0  0
   38.8730   21.2680   36.2760 H   0  0  0  0  0  0  0  0  0  0  0  0
   40.2270   21.9320   35.2420 H   0  0  0  0  0  0  0  0  0  0  0  0
   37.7370   23.6420   36.5310 O   0  0  0  0  0  0  0  0  0  0  0  0
   37.5690   23.3350   37.8630 C   0  0  0  0  0  2  0  0  0  0  0  0
   37.9890   24.5060   38.7180 C   0  0  0  0  0  2  0  0  0  0  0  0
   37.2980   25.3500   38.6260 H   0  0  0  0  0  0  0  0  0  0  0  0
   34.8760   30.1060   34.1400 C   0  0  0  0  0  0  0  0  0  0  0  0
   35.8030   29.2560   34.7000 C   0  0  0  0  0  0  0  0  0  0  0  0
   36.3680   28.2440   33.9480 C   0  0  0  0  0  0  0  0  0  0  0  0
   35.9750   28.1300   32.6630 N   0  0  0  0  0  0  0  0  0  0  0  0
   35.0550   28.9800   32.1200 C   0  0  0  0  0  0  0  0  0  0  0  0
   34.5120   29.9530   32.8450 N   0  0  0  0  0  0  0  0  0  0  0  0
   36.1510   29.3060   35.7270 H   0  0  0  0  0  0  0  0  0  0  0  0
   34.7880   28.8290   31.0870 H   0  0  0  0  0  0  0  0  0  0  0  0
   34.4030   31.0700   35.0270 O   0  0  0  0  0  0  0  0  0  0  0  0
   35.1880   32.1330   35.5110 C   0  0  0  0  0  0  0  0  0  0  0  0
   36.2530   32.4200   34.6690 F   0  0  0  0  0  0  0  0  0  0  0  0
   35.6150   31.8270   36.7760 F   0  0  0  0  0  0  0  0  0  0  0  0
   34.3720   33.2580   35.6060 F   0  0  0  0  0  0  0  0  0  0  0  0
  1  2  1  0  0  0  0
  2  3  2  0  0  0  0
  2  6  1  0  0  0  0
  3  7  1  0  0  0  0
  4  3  1  0  0  0  0
  5  1  2  0  0  0  0
  5  4  1  0  0  0  0
  8 19  1  0  0  0  0
  8 13  1  1  0  0  0
  9 14  1  6  0  0  0
  9  4  1  0  0  0  0
  9  8  1  0  0  0  0
 10 16  1  0  0  0  0
 10 11  1  0  0  0  0
 10  9  1  0  0  0  0
 11 12  1  0  0  0  0
 12  8  1  0  0  0  0
 12 17  1  0  0  0  0
 15 10  1  0  0  0  0
 18 12  1  0  0  0  0
 19 20  1  0  0  0  0
 20 21  1  0  0  0  0
 22 21  1  0  0  0  0
 23 24  1  0  0  0  0
 23 31  1  0  0  0  0
 24 29  1  0  0  0  0
 25  1  1  0  0  0  0
 25 24  2  0  0  0  0
 26 25  1  0  0  0  0
 27 26  2  0  0  0  0
 27 28  1  0  0  0  0
 28 23  2  0  0  0  0
 30 27  1  0  0  0  0
 31 32  1  0  0  0  0
 32 35  1  0  0  0  0
 32 34  1  0  0  0  0
 33 32  1  0  0  0  0
M  END
>  <minimizedAffinity>
-5.03079462

$$$$

 OpenBabel03272503433D

 35 37  0  0  1  0  0  0  0  0999 V2000
   38.1140   25.8760   35.6030 C   0  0  0  0  0  0  0  0  0  0  0  0
   38.1960   27.1860   35.9720 C   0  0  0  0  0  0  0  0  0  0  0  0
   37.6230   27.8830   34.9020 C   0  0  0  0  0  0  0  0  0  0  0  0
   37.2300   27.0190   33.9640 N   0  0  0  0  0  0  0  0  0  0  0  0
   37.5280   25.7810   34.3850 N   0  0  0  0  0  0  0  0  0  0  0  0
   38.5970   27.6140   36.8630 H   0  0  0  0  0  0  0  0  0  0  0  0
   37.5320   28.9780   34.8830 H   0  0  0  0  0  0  0  0  0  0  0  0
   37.6520   27.8640   31.7040 C   0  0  2  0  0  0  0  0  0  0  0  0
   36.6000   27.4030   32.7290 C   0  0  1  0  0  0  0  0  0  0  0  0
   36.0130   26.2590   31.9660 C   0  0  0  0  0  0  0  0  0  0  0  0
   36.0190   26.5980   30.6370 O   0  0  0  0  0  0  0  0  0  0  0  0
   36.7800   27.7240   30.4540 C   0  0  0  0  0  0  0  0  0  0  0  0
   37.9640   28.8880   31.8770 H   0  0  0  0  0  0  0  0  0  0  0  0
   35.8340   28.1700   32.9050 H   0  0  0  0  0  0  0  0  0  0  0  0
   34.9790   25.9950   32.2800 H   0  0  0  0  0  0  0  0  0  0  0  0
   36.6560   25.3590   32.0790 H   0  0  0  0  0  0  0  0  0  0  0  0
   37.3710   27.7300   29.5260 H   0  0  0  0  0  0  0  0  0  0  0  0
   36.0870   28.5980   30.4970 H   0  0  0  0  0  0  0  0  0  0  0  0
   38.6300   26.9010   31.6990 O   0  0  0  0  0  0  0  0  0  0  0  0
   39.9160   27.3710   31.5610 C   0  0  0  0  0  2  0  0  0  0  0  0
   40.6780   27.1700   32.8490 C   0  0  0  0  0  2  0  0  0  0  0  0
   40.8800   26.1130   33.0450 H   0  0  0  0  0  0  0  0  0  0  0  0
   39.9370   22.8010   36.7190 C   0  0  0  0  0  0  0  0  0  0  0  0
   39.5300   23.8540   35.9300 C   0  0  0  0  0  0  0  0  0  0  0  0
   38.5810   24.7470   36.3920 C   0  0  0  0  0  0  0  0  0  0  0  0
   38.0820   24.5420   37.6270 N   0  0  0  0  0  0  0  0  0  0  0  0
   38.4950   23.4930   38.3990 C   0  0  0  0  0  0  0  0  0  0  0  0
   39.4080   22.6360   37.9540 N   0  0  0  0  0  0  0  0  0  0  0  0
   39.9010   24.0620   34.9310 H   0  0  0  0  0  0  0  0  0  0  0  0
   38.0530   23.3910   39.3760 H   0  0  0  0  0  0  0  0  0  0  0  0
   40.8970   21.9950   36.1110 O   0  0  0  0  0  0  0  0  0  0  0  0
   42.2170   21.8690   36.5800 C   0  0  0  0  0  0  0  0  0  0  0  0
   43.0750   21.3870   35.6030 F   0  0  0  0  0  0  0  0  0  0  0  0
   42.2160   21.0660   37.6900 F   0  0  0  0  0  0  0  0  0  0  0  0
   42.6510   23.1320   36.9800 F   0  0  0  0  0  0  0  0  0  0  0  0
  1  2  1  0  0  0  0
  1 25  1  0  0  0  0
  2  6  1  0  0  0  0
  3  2  2  0  0  0  0
  4  5  1  0  0  0  0
  4  3  1  0  0  0  0
  5  1  2  0  0  0  0
  7  3  1  0  0  0  0
  8 13  1  1  0  0  0
  8  9  1  0  0  0  0
  9 14  1  1  0  0  0
  9  4  1  0  0  0  0
 10 16  1  0  0  0  0
 10 15  1  0  0  0  0
 10  9  1  0  0  0  0
 11 10  1  0  0  0  0
 12 18  1  0  0  0  0
 12 11  1  0  0  0  0
 12  8  1  0  0  0  0
 17 12  1  0  0  0  0
 19  8  1  0  0  0  0
 20 19  1  0  0  0  0
 20 21  1  0  0  0  0
 21 22  1  0  0  0  0
 23 28  1  0  0  0  0
 24 25  1  0  0  0  0
 24 23  2  0  0  0  0
 25 26  2  0  0  0  0
 26 27  1  0  0  0  0
 27 30  1  0  0  0  0
 28 27  2  0  0  0  0
 29 24  1  0  0  0  0
 31 32  1  0  0  0  0
 31 23  1  0  0  0  0
 32 35  1  0  0  0  0
 32 34  1  0  0  0  0
 33 32  1  0  0  0  0
M  END
>  <minimizedAffinity>
-5.02535152

$$$$

 OpenBabel03272503433D

 35 37  0  0  1  0  0  0  0  0999 V2000
   37.8890   25.5830   32.9470 C   0  0  0  0  0  0  0  0  0  0  0  0
   38.9640   26.3300   32.5650 C   0  0  0  0  0  0  0  0  0  0  0  0
   38.4070   27.4110   31.8740 C   0  0  0  0  0  0  0  0  0  0  0  0
   37.0770   27.2940   31.8570 N   0  0  0  0  0  0  0  0  0  0  0  0
   36.7480   26.1730   32.5150 N   0  0  0  0  0  0  0  0  0  0  0  0
   40.0030   26.1580   32.7390 H   0  0  0  0  0  0  0  0  0  0  0  0
   39.0130   28.2120   31.4290 H   0  0  0  0  0  0  0  0  0  0  0  0
   35.2540   28.8770   32.2650 C   0  0  2  0  0  0  0  0  0  0  0  0
   36.1940   28.2390   31.2270 C   0  0  1  0  0  0  0  0  0  0  0  0
   36.8760   29.4740   30.7360 C   0  0  0  0  0  0  0  0  0  0  0  0
   35.9570   30.4910   30.7460 O   0  0  0  0  0  0  0  0  0  0  0  0
   34.8380   30.0910   31.4310 C   0  0  0  0  0  0  0  0  0  0  0  0
   34.4150   28.2330   32.5030 H   0  0  0  0  0  0  0  0  0  0  0  0
   35.6380   27.7640   30.4070 H   0  0  0  0  0  0  0  0  0  0  0  0
   37.3100   29.3710   29.7160 H   0  0  0  0  0  0  0  0  0  0  0  0
   37.6910   29.7600   31.4360 H   0  0  0  0  0  0  0  0  0  0  0  0
   34.3690   30.8800   32.0390 H   0  0  0  0  0  0  0  0  0  0  0  0
   34.1230   29.6810   30.6790 H   0  0  0  0  0  0  0  0  0  0  0  0
   36.0510   29.2810   33.3070 O   0  0  0  0  0  0  0  0  0  0  0  0
   35.4070   29.4370   34.5140 C   0  0  0  0  0  2  0  0  0  0  0  0
   35.7370   30.7870   35.1030 C   0  0  0  0  0  2  0  0  0  0  0  0
   35.2820   31.6040   34.5360 H   0  0  0  0  0  0  0  0  0  0  0  0
   37.5040   22.0080   33.9930 C   0  0  0  0  0  0  0  0  0  0  0  0
   37.4200   23.1550   33.2350 C   0  0  0  0  0  0  0  0  0  0  0  0
   37.9500   24.3430   33.7030 C   0  0  0  0  0  0  0  0  0  0  0  0
   38.5420   24.3250   34.9140 N   0  0  0  0  0  0  0  0  0  0  0  0
   38.6190   23.1800   35.6550 C   0  0  0  0  0  0  0  0  0  0  0  0
   38.1090   22.0390   35.2030 N   0  0  0  0  0  0  0  0  0  0  0  0
   36.9540   23.2200   32.2570 H   0  0  0  0  0  0  0  0  0  0  0  0
   39.1060   23.2410   36.6140 H   0  0  0  0  0  0  0  0  0  0  0  0
   36.9240   20.8990   33.3810 O   0  0  0  0  0  0  0  0  0  0  0  0
   35.6000   20.4850   33.6170 C   0  0  0  0  0  0  0  0  0  0  0  0
   34.6980   21.1170   32.7740 F   0  0  0  0  0  0  0  0  0  0  0  0
   35.2970   20.7050   34.9340 F   0  0  0  0  0  0  0  0  0  0  0  0
   35.5360   19.1100   33.3970 F   0  0  0  0  0  0  0  0  0  0  0  0
  1 25  1  0  0  0  0
  2  6  1  0  0  0  0
  2  1  1  0  0  0  0
  3  2  2  0  0  0  0
  4  3  1  0  0  0  0
  4  5  1  0  0  0  0
  5  1  2  0  0  0  0
  7  3  1  0  0  0  0
  8 13  1  1  0  0  0
  8 19  1  0  0  0  0
  9 14  1  6  0  0  0
  9  4  1  0  0  0  0
  9  8  1  0  0  0  0
 10 11  1  0  0  0  0
 10  9  1  0  0  0  0
 10 16  1  0  0  0  0
 11 12  1  0  0  0  0
 12 17  1  0  0  0  0
 12  8  1  0  0  0  0
 15 10  1  0  0  0  0
 18 12  1  0  0  0  0
 19 20  1  0  0  0  0
 20 21  1  0  0  0  0
 22 21  1  0  0  0  0
 23 28  1  0  0  0  0
 24 25  1  0  0  0  0
 24 23  2  0  0  0  0
 25 26  2  0  0  0  0
 26 27  1  0  0  0  0
 27 30  1  0  0  0  0
 28 27  2  0  0  0  0
 29 24  1  0  0  0  0
 31 32  1  0  0  0  0
 31 23  1  0  0  0  0
 32 34  1  0  0  0  0
 33 32  1  0  0  0  0
 35 32  1  0  0  0  0
M  END
>  <minimizedAffinity>
-4.97875929

$$$$

 OpenBabel03272503433D

 35 37  0  0  1  0  0  0  0  0999 V2000
   38.3280   25.3030   35.1290 C   0  0  0  0  0  0  0  0  0  0  0  0
   38.0250   25.1460   36.4500 C   0  0  0  0  0  0  0  0  0  0  0  0
   38.7380   24.0060   36.8360 C   0  0  0  0  0  0  0  0  0  0  0  0
   39.4180   23.5280   35.7910 N   0  0  0  0  0  0  0  0  0  0  0  0
   39.1730   24.3190   34.7370 N   0  0  0  0  0  0  0  0  0  0  0  0
   37.3950   25.7390   37.0730 H   0  0  0  0  0  0  0  0  0  0  0  0
   38.7110   23.6010   37.8570 H   0  0  0  0  0  0  0  0  0  0  0  0
   41.6810   22.6940   35.3640 C   0  0  2  0  0  0  0  0  0  0  0  0
   40.2570   22.3600   35.8430 C   0  0  1  0  0  0  0  0  0  0  0  0
   40.5750   21.9020   37.2290 C   0  0  0  0  0  0  0  0  0  0  0  0
   41.7830   21.2550   37.1880 O   0  0  0  0  0  0  0  0  0  0  0  0
   42.3820   21.4780   35.9730 C   0  0  0  0  0  0  0  0  0  0  0  0
   41.7510   22.7120   34.2820 H   0  0  0  0  0  0  0  0  0  0  0  0
   39.8130   21.5370   35.2670 H   0  0  0  0  0  0  0  0  0  0  0  0
   39.8050   21.2290   37.6670 H   0  0  0  0  0  0  0  0  0  0  0  0
   40.6960   22.7810   37.9000 H   0  0  0  0  0  0  0  0  0  0  0  0
   43.4740   21.6000   36.0190 H   0  0  0  0  0  0  0  0  0  0  0  0
   42.0980   20.6290   35.3080 H   0  0  0  0  0  0  0  0  0  0  0  0
   42.0540   23.8310   36.0370 O   0  0  0  0  0  0  0  0  0  0  0  0
   43.2050   24.4340   35.5790 C   0  0  0  0  0  2  0  0  0  0  0  0
   44.1400   24.7020   36.7330 C   0  0  0  0  0  2  0  0  0  0  0  0
   44.5580   23.7790   37.1450 H   0  0  0  0  0  0  0  0  0  0  0  0
   36.3810   28.2110   33.7990 C   0  0  0  0  0  0  0  0  0  0  0  0
   36.8190   27.2250   34.6550 C   0  0  0  0  0  0  0  0  0  0  0  0
   37.8270   26.3610   34.2690 C   0  0  0  0  0  0  0  0  0  0  0  0
   38.3490   26.5260   33.0370 N   0  0  0  0  0  0  0  0  0  0  0  0
   37.9050   27.5080   32.1980 C   0  0  0  0  0  0  0  0  0  0  0  0
   36.9370   28.3380   32.5710 N   0  0  0  0  0  0  0  0  0  0  0  0
   36.4310   27.0520   35.6530 H   0  0  0  0  0  0  0  0  0  0  0  0
   38.3700   27.5810   31.2290 H   0  0  0  0  0  0  0  0  0  0  0  0
   35.3640   28.9960   34.3370 O   0  0  0  0  0  0  0  0  0  0  0  0
   35.5620   30.3060   34.8110 C   0  0  0  0  0  0  0  0  0  0  0  0
   36.5790   30.3720   35.7520 F   0  0  0  0  0  0  0  0  0  0  0  0
   34.3780   30.7760   35.3160 F   0  0  0  0  0  0  0  0  0  0  0  0
   35.8990   31.1090   33.7230 F   0  0  0  0  0  0  0  0  0  0  0  0
  1  2  1  0  0  0  0
  2  3  2  0  0  0  0
  2  6  1  0  0  0  0
  3  7  1  0  0  0  0
  4  9  1  0  0  0  0
  4  3  1  0  0  0  0
  5  1  2  0  0  0  0
  5  4  1  0  0  0  0
  8 13  1  6  0  0  0
  8  9  1  0  0  0  0
  8 12  1  0  0  0  0
  8 19  1  0  0  0  0
  9 14  1  6  0  0  0
  9 10  1  0  0  0  0
 10 15  1  0  0  0  0
 10 16  1  0  0  0  0
 11 10  1  0  0  0  0
 12 17  1  0  0  0  0
 12 11  1  0  0  0  0
 18 12  1  0  0  0  0
 20 19  1  0  0  0  0
 20 21  1  0  0  0  0
 21 22  1  0  0  0  0
 23 31  1  0  0  0  0
 23 24  1  0  0  0  0
 24 29  1  0  0  0  0
 25 24  2  0  0  0  0
 25  1  1  0  0  0  0
 26 25  1  0  0  0  0
 27 28  1  0  0  0  0
 27 26  2  0  0  0  0
 28 23  2  0  0  0  0
 30 27  1  0  0  0  0
 31 32  1  0  0  0  0
 32 34  1  0  0  0  0
 32 33  1  0  0  0  0
 35 32  1  0  0  0  0
M  END
>  <minimizedAffinity>
-4.96402788

$$$$

 OpenBabel03272503433D

 35 37  0  0  1  0  0  0  0  0999 V2000
   37.9320   25.2120   33.5610 C   0  0  0  0  0  0  0  0  0  0  0  0
   37.9590   24.0290   32.8830 C   0  0  0  0  0  0  0  0  0  0  0  0
   38.8860   23.2500   33.5840 C   0  0  0  0  0  0  0  0  0  0  0  0
   39.3690   23.9470   34.6150 N   0  0  0  0  0  0  0  0  0  0  0  0
   38.7880   25.1560   34.6100 N   0  0  0  0  0  0  0  0  0  0  0  0
   37.4120   23.7340   32.0160 H   0  0  0  0  0  0  0  0  0  0  0  0
   39.1450   22.2230   33.2920 H   0  0  0  0  0  0  0  0  0  0  0  0
   39.7290   23.2830   36.9440 C   0  0  2  0  0  0  0  0  0  0  0  0
   40.3450   23.4410   35.5430 C   0  0  1  0  0  0  0  0  0  0  0  0
   40.7390   22.0210   35.2950 C   0  0  0  0  0  0  0  0  0  0  0  0
   41.1300   21.4820   36.4930 O   0  0  0  0  0  0  0  0  0  0  0  0
   40.7840   22.3310   37.5130 C   0  0  0  0  0  0  0  0  0  0  0  0
   39.6920   24.2250   37.4790 H   0  0  0  0  0  0  0  0  0  0  0  0
   41.2380   24.0820   35.5560 H   0  0  0  0  0  0  0  0  0  0  0  0
   41.5550   21.9050   34.5480 H   0  0  0  0  0  0  0  0  0  0  0  0
   39.8580   21.4400   34.9450 H   0  0  0  0  0  0  0  0  0  0  0  0
   40.4450   21.8270   38.4310 H   0  0  0  0  0  0  0  0  0  0  0  0
   41.6690   22.9810   37.7120 H   0  0  0  0  0  0  0  0  0  0  0  0
   38.5450   22.6110   36.7680 O   0  0  0  0  0  0  0  0  0  0  0  0
   37.4570   23.1620   37.4060 C   0  0  0  0  0  2  0  0  0  0  0  0
   37.9010   24.3060   38.2860 C   0  0  0  0  0  2  0  0  0  0  0  0
   38.2370   25.1670   37.7010 H   0  0  0  0  0  0  0  0  0  0  0  0
   36.1670   28.5120   33.6840 C   0  0  0  0  0  0  0  0  0  0  0  0
   36.9580   27.4490   34.0580 C   0  0  0  0  0  0  0  0  0  0  0  0
   37.1110   26.3620   33.2180 C   0  0  0  0  0  0  0  0  0  0  0  0
   36.4610   26.3910   32.0380 N   0  0  0  0  0  0  0  0  0  0  0  0
   35.6800   27.4530   31.6790 C   0  0  0  0  0  0  0  0  0  0  0  0
   35.5340   28.4980   32.4880 N   0  0  0  0  0  0  0  0  0  0  0  0
   37.5000   27.3780   34.9960 H   0  0  0  0  0  0  0  0  0  0  0  0
   35.1900   27.4080   30.7200 H   0  0  0  0  0  0  0  0  0  0  0  0
   36.1180   29.5260   34.6380 O   0  0  0  0  0  0  0  0  0  0  0  0
   34.9920   30.3430   34.8480 C   0  0  0  0  0  0  0  0  0  0  0  0
   33.8280   29.6010   34.9870 F   0  0  0  0  0  0  0  0  0  0  0  0
   34.8970   31.2370   33.8150 F   0  0  0  0  0  0  0  0  0  0  0  0
   35.2040   31.0730   36.0150 F   0  0  0  0  0  0  0  0  0  0  0  0
  1  5  2  0  0  0  0
  2  1  1  0  0  0  0
  2  3  2  0  0  0  0
  3  4  1  0  0  0  0
  4  9  1  0  0  0  0
  5  4  1  0  0  0  0
  6  2  1  0  0  0  0
  7  3  1  0  0  0  0
  8 13  1  1  0  0  0
  8 12  1  0  0  0  0
  9 14  1  1  0  0  0
  9  8  1  0  0  0  0
 10  9  1  0  0  0  0
 10 11  1  0  0  0  0
 11 12  1  0  0  0  0
 12 18  1  0  0  0  0
 12 17  1  0  0  0  0
 15 10  1  0  0  0  0
 16 10  1  0  0  0  0
 19  8  1  0  0  0  0
 19 20  1  0  0  0  0
 20 21  1  0  0  0  0
 22 21  1  0  0  0  0
 23 24  1  0  0  0  0
 23 31  1  0  0  0  0
 24 29  1  0  0  0  0
 25  1  1  0  0  0  0
 25 24  2  0  0  0  0
 26 25  1  0  0  0  0
 27 26  2  0  0  0  0
 27 28  1  0  0  0  0
 28 23  2  0  0  0  0
 30 27  1  0  0  0  0
 31 32  1  0  0  0  0
 32 33  1  0  0  0  0
 32 35  1  0  0  0  0
 34 32  1  0  0  0  0
M  END
>  <minimizedAffinity>
-4.93299675

$$$$

 OpenBabel03272503433D

 35 37  0  0  1  0  0  0  0  0999 V2000
   37.1870   26.8480   33.0210 C   0  0  0  0  0  0  0  0  0  0  0  0
   36.6270   25.7380   32.4590 C   0  0  0  0  0  0  0  0  0  0  0  0
   37.5200   24.7060   32.7670 C   0  0  0  0  0  0  0  0  0  0  0  0
   38.5440   25.1950   33.4710 N   0  0  0  0  0  0  0  0  0  0  0  0
   38.3480   26.5120   33.6330 N   0  0  0  0  0  0  0  0  0  0  0  0
   35.7200   25.6460   31.9060 H   0  0  0  0  0  0  0  0  0  0  0  0
   37.3610   23.6650   32.4540 H   0  0  0  0  0  0  0  0  0  0  0  0
   39.6770   24.3960   35.4890 C   0  0  2  0  0  0  0  0  0  0  0  0
   39.6430   24.4010   33.9510 C   0  0  1  0  0  0  0  0  0  0  0  0
   39.4820   22.9340   33.7130 C   0  0  0  0  0  0  0  0  0  0  0  0
   40.1870   22.2740   34.6850 O   0  0  0  0  0  0  0  0  0  0  0  0
   40.5660   23.1610   35.6600 C   0  0  0  0  0  0  0  0  0  0  0  0
   40.1360   25.2930   35.8880 H   0  0  0  0  0  0  0  0  0  0  0  0
   40.5920   24.7500   33.5200 H   0  0  0  0  0  0  0  0  0  0  0  0
   39.8270   22.6020   32.7080 H   0  0  0  0  0  0  0  0  0  0  0  0
   38.4140   22.6470   33.8290 H   0  0  0  0  0  0  0  0  0  0  0  0
   40.5340   22.7570   36.6830 H   0  0  0  0  0  0  0  0  0  0  0  0
   41.5910   23.5170   35.3980 H   0  0  0  0  0  0  0  0  0  0  0  0
   38.3990   24.1070   35.8990 O   0  0  0  0  0  0  0  0  0  0  0  0
   38.0000   24.7310   37.0600 C   0  0  0  0  0  2  0  0  0  0  0  0
   37.9200   23.7270   38.1840 C   0  0  0  0  0  2  0  0  0  0  0  0
   38.9080   23.3720   38.4880 H   0  0  0  0  0  0  0  0  0  0  0  0
   35.4890   30.0500   33.9610 C   0  0  0  0  0  0  0  0  0  0  0  0
   36.0020   28.7760   34.0590 C   0  0  0  0  0  0  0  0  0  0  0  0
   36.6280   28.1890   32.9760 C   0  0  0  0  0  0  0  0  0  0  0  0
   36.7120   28.9110   31.8400 N   0  0  0  0  0  0  0  0  0  0  0  0
   36.2000   30.1740   31.7570 C   0  0  0  0  0  0  0  0  0  0  0  0
   35.5980   30.7370   32.8000 N   0  0  0  0  0  0  0  0  0  0  0  0
   35.9590   28.1560   34.9490 H   0  0  0  0  0  0  0  0  0  0  0  0
   36.3030   30.6910   30.8170 H   0  0  0  0  0  0  0  0  0  0  0  0
   34.8920   30.4960   35.1380 O   0  0  0  0  0  0  0  0  0  0  0  0
   35.3570   31.6000   35.8770 C   0  0  0  0  0  0  0  0  0  0  0  0
   35.0630   32.8050   35.2560 F   0  0  0  0  0  0  0  0  0  0  0  0
   36.7030   31.4550   36.0840 F   0  0  0  0  0  0  0  0  0  0  0  0
   34.7380   31.5710   37.1240 F   0  0  0  0  0  0  0  0  0  0  0  0
  1  5  2  0  0  0  0
  2  3  2  0  0  0  0
  2  1  1  0  0  0  0
  3  4  1  0  0  0  0
  4  5  1  0  0  0  0
  4  9  1  0  0  0  0
  6  2  1  0  0  0  0
  7  3  1  0  0  0  0
  8 12  1  0  0  0  0
  8 13  1  1  0  0  0
  8 19  1  0  0  0  0
  9 14  1  6  0  0  0
  9  8  1  0  0  0  0
 10 16  1  0  0  0  0
 10  9  1  0  0  0  0
 10 11  1  0  0  0  0
 11 12  1  0  0  0  0
 12 17  1  0  0  0  0
 15 10  1  0  0  0  0
 18 12  1  0  0  0  0
 19 20  1  0  0  0  0
 20 21  1  0  0  0  0
 21 22  1  0  0  0  0
 23 24  1  0  0  0  0
 23 31  1  0  0  0  0
 24 29  1  0  0  0  0
 25  1  1  0  0  0  0
 25 24  2  0  0  0  0
 26 25  1  0  0  0  0
 27 26  2  0  0  0  0
 27 28  1  0  0  0  0
 28 23  2  0  0  0  0
 30 27  1  0  0  0  0
 31 32  1  0  0  0  0
 32 34  1  0  0  0  0
 32 35  1  0  0  0  0
 33 32  1  0  0  0  0
M  END
>  <minimizedAffinity>
-4.89501047

$$$$
