
 OpenBabel03262521073D

 36 37  0  0  1  0  0  0  0  0999 V2000
   38.4140   26.1400   34.1730 C   0  0  2  0  0  0  0  0  0  0  0  0
   37.8920   27.2410   35.0060 C   0  0  0  0  0  0  0  0  0  0  0  0
   36.6420   27.8710   34.4300 C   0  0  0  0  0  0  0  0  0  0  0  0
   36.8310   28.3640   33.0250 C   0  0  0  0  0  0  0  0  0  0  0  0
   37.6910   27.4640   32.1820 C   0  0  0  0  0  0  0  0  0  0  0  0
   37.8220   26.0740   32.8010 C   0  0  2  0  0  0  0  0  0  0  0  0
   39.5320   26.2490   34.0060 H   0  0  0  0  0  0  0  0  0  0  0  0
   38.6540   28.0950   34.9730 H   0  0  0  0  0  0  0  0  0  0  0  0
   37.6620   27.1070   36.0410 H   0  0  0  0  0  0  0  0  0  0  0  0
   36.3870   28.7210   35.1050 H   0  0  0  0  0  0  0  0  0  0  0  0
   35.8150   27.1440   34.5210 H   0  0  0  0  0  0  0  0  0  0  0  0
   37.2250   29.4010   33.0760 H   0  0  0  0  0  0  0  0  0  0  0  0
   35.8120   28.4500   32.5820 H   0  0  0  0  0  0  0  0  0  0  0  0
   38.7150   27.9030   32.2120 H   0  0  0  0  0  0  0  0  0  0  0  0
   37.2680   27.4430   31.1870 H   0  0  0  0  0  0  0  0  0  0  0  0
   38.5690   25.5400   32.1450 H   0  0  0  0  0  0  0  0  0  0  0  0
   38.2660   24.8130   34.7890 C   0  0  0  0  0  0  0  0  0  0  0  0
   37.9490   24.8190   36.1670 C   0  0  0  0  0  0  0  0  0  0  0  0
   37.7800   23.5730   36.7650 C   0  0  0  0  0  0  0  0  0  0  0  0
   37.9230   22.4380   36.0260 N   0  0  0  0  0  0  0  0  0  0  0  0
   38.2310   22.4840   34.7020 C   0  0  0  0  0  0  0  0  0  0  0  0
   38.3890   23.6520   34.1370 N   0  0  0  0  0  0  0  0  0  0  0  0
   37.7910   25.5240   36.9600 H   0  0  0  0  0  0  0  0  0  0  0  0
   37.5410   23.2950   37.7690 H   0  0  0  0  0  0  0  0  0  0  0  0
   38.3490   21.5940   34.1010 H   0  0  0  0  0  0  0  0  0  0  0  0
   36.5930   25.4340   32.6180 N   0  0  0  0  0  0  0  0  0  0  0  0
   36.4090   24.6940   33.3320 H   0  0  0  0  0  0  0  0  0  0  0  0
   36.3000   24.7730   31.0730 S   0  0  0  0  0  0  0  0  0  0  0  0
   35.4170   25.7690   30.3380 O   0  0  0  0  0  0  0  0  0  0  0  0
   34.5230   25.5010   30.0270 H   0  0  0  0  0  0  0  0  0  0  0  0
   37.5530   24.5660   30.2750 O   0  0  0  0  0  0  0  0  0  0  0  0
   38.0750   23.7260   30.4270 H   0  0  0  0  0  0  0  0  0  0  0  0
   35.4430   23.3470   31.1240 O   0  0  0  0  0  0  0  0  0  0  0  0
   36.2010   22.2740   31.5480 C   0  0  0  0  0  2  0  0  0  0  0  0
   35.3130   21.4060   32.4210 C   0  0  0  0  0  2  0  0  0  0  0  0
   35.4060   20.3230   32.1720 H   0  0  0  0  0  0  0  0  0  0  0  0
  1  7  1  6  0  0  0
  1 17  1  0  0  0  0
  1  2  1  0  0  0  0
  2  9  1  0  0  0  0
  3 11  1  0  0  0  0
  3  2  1  0  0  0  0
  3 10  1  0  0  0  0
  4 12  1  0  0  0  0
  4  3  1  0  0  0  0
  5 14  1  0  0  0  0
  5  6  1  0  0  0  0
  5  4  1  0  0  0  0
  6 16  1  6  0  0  0
  6  1  1  0  0  0  0
  8  2  1  0  0  0  0
 13  4  1  0  0  0  0
 15  5  1  0  0  0  0
 17 18  1  0  0  0  0
 18 19  2  0  0  0  0
 18 23  1  0  0  0  0
 19 24  1  0  0  0  0
 20 19  1  0  0  0  0
 21 20  2  0  0  0  0
 22 21  1  0  0  0  0
 22 17  2  0  0  0  0
 25 21  1  0  0  0  0
 26  6  1  0  0  0  0
 26 27  1  0  0  0  0
 28 33  1  0  0  0  0
 28 26  1  0  0  0  0
 29 28  1  0  0  0  0
 30 29  1  0  0  0  0
 31 32  1  0  0  0  0
 31 28  1  0  0  0  0
 33 34  1  0  0  0  0
 34 35  1  0  0  0  0
 36 35  1  0  0  0  0
M  END
>  <minimizedAffinity>
-4.93304205

$$$$

 OpenBabel03262521073D

 36 37  0  0  1  0  0  0  0  0999 V2000
   37.6840   25.6520   33.4230 C   0  0  2  0  0  0  0  0  0  0  0  0
   38.6280   26.6990   32.9860 C   0  0  0  0  0  0  0  0  0  0  0  0
   39.8000   26.8640   33.9310 C   0  0  0  0  0  0  0  0  0  0  0  0
   39.3740   27.1430   35.3440 C   0  0  0  0  0  0  0  0  0  0  0  0
   38.1530   26.3750   35.7670 C   0  0  0  0  0  0  0  0  0  0  0  0
   37.8800   25.1980   34.8340 C   0  0  2  0  0  0  0  0  0  0  0  0
   36.6120   26.0260   33.3810 H   0  0  0  0  0  0  0  0  0  0  0  0
   38.0910   27.7070   33.0590 H   0  0  0  0  0  0  0  0  0  0  0  0
   39.0780   26.6870   32.0160 H   0  0  0  0  0  0  0  0  0  0  0  0
   40.3970   27.7180   33.5340 H   0  0  0  0  0  0  0  0  0  0  0  0
   40.4410   25.9690   33.8460 H   0  0  0  0  0  0  0  0  0  0  0  0
   39.2450   28.2400   35.4520 H   0  0  0  0  0  0  0  0  0  0  0  0
   40.2420   26.8770   35.9910 H   0  0  0  0  0  0  0  0  0  0  0  0
   37.2930   27.0700   35.6320 H   0  0  0  0  0  0  0  0  0  0  0  0
   38.2950   26.0730   36.7960 H   0  0  0  0  0  0  0  0  0  0  0  0
   36.8930   24.7780   35.1860 H   0  0  0  0  0  0  0  0  0  0  0  0
   37.6870   24.4590   32.5640 C   0  0  0  0  0  0  0  0  0  0  0  0
   36.4270   24.0940   32.0330 C   0  0  0  0  0  0  0  0  0  0  0  0
   36.4110   22.9810   31.1970 C   0  0  0  0  0  0  0  0  0  0  0  0
   37.5670   22.3110   30.9330 N   0  0  0  0  0  0  0  0  0  0  0  0
   38.7550   22.7010   31.4690 C   0  0  0  0  0  0  0  0  0  0  0  0
   38.7740   23.7450   32.2530 N   0  0  0  0  0  0  0  0  0  0  0  0
   35.4050   24.4170   32.0750 H   0  0  0  0  0  0  0  0  0  0  0  0
   35.6140   22.4990   30.6730 H   0  0  0  0  0  0  0  0  0  0  0  0
   39.6810   22.1800   31.2710 H   0  0  0  0  0  0  0  0  0  0  0  0
   38.8510   24.2310   35.1110 N   0  0  0  0  0  0  0  0  0  0  0  0
   39.4040   23.9560   34.2690 H   0  0  0  0  0  0  0  0  0  0  0  0
   38.3130   22.8100   35.8860 S   0  0  0  0  0  0  0  0  0  0  0  0
   37.5990   21.9840   34.8280 O   0  0  0  0  0  0  0  0  0  0  0  0
   36.6490   21.7560   34.9370 H   0  0  0  0  0  0  0  0  0  0  0  0
   39.4330   21.9910   36.4560 O   0  0  0  0  0  0  0  0  0  0  0  0
   39.7830   22.2350   37.3600 H   0  0  0  0  0  0  0  0  0  0  0  0
   37.1890   23.1020   37.0790 O   0  0  0  0  0  0  0  0  0  0  0  0
   37.7290   23.0770   38.3490 C   0  0  0  0  0  2  0  0  0  0  0  0
   38.0110   24.5140   38.7520 C   0  0  0  0  0  2  0  0  0  0  0  0
   37.6670   24.7360   39.7900 H   0  0  0  0  0  0  0  0  0  0  0  0
  1  7  1  6  0  0  0
  1  6  1  0  0  0  0
  2  8  1  0  0  0  0
  2  1  1  0  0  0  0
  2  3  1  0  0  0  0
  3  4  1  0  0  0  0
  4 12  1  0  0  0  0
  4  5  1  0  0  0  0
  4 13  1  0  0  0  0
  5 15  1  0  0  0  0
  6 26  1  0  0  0  0
  6 16  1  1  0  0  0
  6  5  1  0  0  0  0
  9  2  1  0  0  0  0
 10  3  1  0  0  0  0
 11  3  1  0  0  0  0
 14  5  1  0  0  0  0
 17  1  1  0  0  0  0
 18 23  1  0  0  0  0
 18 17  2  0  0  0  0
 19 18  1  0  0  0  0
 20 19  2  0  0  0  0
 20 21  1  0  0  0  0
 21 22  2  0  0  0  0
 22 17  1  0  0  0  0
 24 19  1  0  0  0  0
 25 21  1  0  0  0  0
 26 28  1  0  0  0  0
 27 26  1  0  0  0  0
 28 31  1  0  0  0  0
 28 33  1  0  0  0  0
 29 30  1  0  0  0  0
 29 28  1  0  0  0  0
 31 32  1  0  0  0  0
 33 34  1  0  0  0  0
 34 35  1  0  0  0  0
 35 36  1  0  0  0  0
M  END
>  <minimizedAffinity>
-4.561625

$$$$

 OpenBabel03262521073D

 36 37  0  0  1  0  0  0  0  0999 V2000
   38.8310   26.4250   34.8710 C   0  0  2  0  0  0  0  0  0  0  0  0
   38.0120   27.4800   35.5000 C   0  0  0  0  0  0  0  0  0  0  0  0
   36.7280   27.7530   34.7460 C   0  0  0  0  0  0  0  0  0  0  0  0
   36.9610   28.1050   33.3050 C   0  0  0  0  0  0  0  0  0  0  0  0
   38.0690   27.3170   32.6650 C   0  0  0  0  0  0  0  0  0  0  0  0
   38.4130   26.0720   33.4790 C   0  0  2  0  0  0  0  0  0  0  0  0
   39.9150   26.7520   34.7780 H   0  0  0  0  0  0  0  0  0  0  0  0
   38.5830   28.4680   35.4090 H   0  0  0  0  0  0  0  0  0  0  0  0
   37.7050   27.4240   36.5220 H   0  0  0  0  0  0  0  0  0  0  0  0
   36.2360   28.6030   35.2750 H   0  0  0  0  0  0  0  0  0  0  0  0
   36.0610   26.8820   34.8710 H   0  0  0  0  0  0  0  0  0  0  0  0
   37.1280   29.2010   33.2430 H   0  0  0  0  0  0  0  0  0  0  0  0
   35.9980   27.9170   32.7760 H   0  0  0  0  0  0  0  0  0  0  0  0
   38.9740   27.9660   32.7150 H   0  0  0  0  0  0  0  0  0  0  0  0
   37.7670   27.0880   31.6520 H   0  0  0  0  0  0  0  0  0  0  0  0
   39.3180   25.6360   32.9640 H   0  0  0  0  0  0  0  0  0  0  0  0
   38.8910   25.1800   35.6510 C   0  0  0  0  0  0  0  0  0  0  0  0
   38.1610   25.1910   36.8620 C   0  0  0  0  0  0  0  0  0  0  0  0
   38.1840   24.0140   37.6040 C   0  0  0  0  0  0  0  0  0  0  0  0
   38.8840   22.9370   37.1520 N   0  0  0  0  0  0  0  0  0  0  0  0
   39.5730   22.9760   35.9790 C   0  0  0  0  0  0  0  0  0  0  0  0
   39.5530   24.0790   35.2790 N   0  0  0  0  0  0  0  0  0  0  0  0
   37.5570   25.8640   37.4390 H   0  0  0  0  0  0  0  0  0  0  0  0
   37.7290   23.7540   38.5360 H   0  0  0  0  0  0  0  0  0  0  0  0
   40.1340   22.1320   35.6060 H   0  0  0  0  0  0  0  0  0  0  0  0
   37.3660   25.1650   33.2900 N   0  0  0  0  0  0  0  0  0  0  0  0
   36.9260   24.8590   34.1860 H   0  0  0  0  0  0  0  0  0  0  0  0
   37.7160   23.7780   32.3630 S   0  0  0  0  0  0  0  0  0  0  0  0
   39.1780   23.8870   31.9570 O   0  0  0  0  0  0  0  0  0  0  0  0
   39.4260   23.9220   31.0070 H   0  0  0  0  0  0  0  0  0  0  0  0
   37.5250   22.4990   33.1230 O   0  0  0  0  0  0  0  0  0  0  0  0
   36.6040   22.1130   33.1720 H   0  0  0  0  0  0  0  0  0  0  0  0
   36.8500   23.7040   30.9440 O   0  0  0  0  0  0  0  0  0  0  0  0
   35.4840   23.7410   31.1410 C   0  0  0  0  0  2  0  0  0  0  0  0
   35.0140   25.1480   30.8130 C   0  0  0  0  0  2  0  0  0  0  0  0
   34.0980   25.1490   30.1780 H   0  0  0  0  0  0  0  0  0  0  0  0
  1  7  1  6  0  0  0
  1  2  1  0  0  0  0
  1 17  1  0  0  0  0
  2  9  1  0  0  0  0
  3 11  1  0  0  0  0
  3 10  1  0  0  0  0
  3  2  1  0  0  0  0
  4  3  1  0  0  0  0
  5 14  1  0  0  0  0
  5  4  1  0  0  0  0
  5  6  1  0  0  0  0
  6 16  1  6  0  0  0
  6  1  1  0  0  0  0
  8  2  1  0  0  0  0
 12  4  1  0  0  0  0
 13  4  1  0  0  0  0
 15  5  1  0  0  0  0
 17 18  1  0  0  0  0
 18 23  1  0  0  0  0
 18 19  2  0  0  0  0
 19 24  1  0  0  0  0
 20 19  1  0  0  0  0
 21 20  2  0  0  0  0
 22 17  2  0  0  0  0
 22 21  1  0  0  0  0
 25 21  1  0  0  0  0
 26  6  1  0  0  0  0
 26 27  1  0  0  0  0
 28 31  1  0  0  0  0
 28 26  1  0  0  0  0
 29 28  1  0  0  0  0
 30 29  1  0  0  0  0
 31 32  1  0  0  0  0
 33 34  1  0  0  0  0
 33 28  1  0  0  0  0
 35 34  1  0  0  0  0
 36 35  1  0  0  0  0
M  END
>  <minimizedAffinity>
-4.54557228

$$$$

 OpenBabel03262521073D

 36 37  0  0  1  0  0  0  0  0999 V2000
   38.7960   26.3560   33.6770 C   0  0  2  0  0  0  0  0  0  0  0  0
   38.4650   27.1340   34.8870 C   0  0  0  0  0  0  0  0  0  0  0  0
   37.0190   27.5810   34.9200 C   0  0  0  0  0  0  0  0  0  0  0  0
   36.6240   28.3700   33.7050 C   0  0  0  0  0  0  0  0  0  0  0  0
   37.2370   27.8590   32.4310 C   0  0  0  0  0  0  0  0  0  0  0  0
   37.7660   26.4360   32.5950 C   0  0  2  0  0  0  0  0  0  0  0  0
   39.7540   26.7350   33.1980 H   0  0  0  0  0  0  0  0  0  0  0  0
   39.0420   28.1220   34.8370 H   0  0  0  0  0  0  0  0  0  0  0  0
   38.6410   26.7530   35.8700 H   0  0  0  0  0  0  0  0  0  0  0  0
   36.9120   28.2070   35.8370 H   0  0  0  0  0  0  0  0  0  0  0  0
   36.3850   26.6900   35.0760 H   0  0  0  0  0  0  0  0  0  0  0  0
   36.8670   29.4370   33.8960 H   0  0  0  0  0  0  0  0  0  0  0  0
   35.5120   28.3200   33.6460 H   0  0  0  0  0  0  0  0  0  0  0  0
   38.1350   28.4930   32.2480 H   0  0  0  0  0  0  0  0  0  0  0  0
   36.4930   27.9450   31.6510 H   0  0  0  0  0  0  0  0  0  0  0  0
   38.2920   26.2150   31.6210 H   0  0  0  0  0  0  0  0  0  0  0  0
   39.0580   24.9340   33.9420 C   0  0  0  0  0  0  0  0  0  0  0  0
   39.0870   24.5710   35.3090 C   0  0  0  0  0  0  0  0  0  0  0  0
   39.3090   23.2240   35.5820 C   0  0  0  0  0  0  0  0  0  0  0  0
   39.4840   22.3410   34.5600 N   0  0  0  0  0  0  0  0  0  0  0  0
   39.4480   22.7410   33.2600 C   0  0  0  0  0  0  0  0  0  0  0  0
   39.2400   24.0030   32.9990 N   0  0  0  0  0  0  0  0  0  0  0  0
   38.9930   25.0320   36.2730 H   0  0  0  0  0  0  0  0  0  0  0  0
   39.3770   22.6900   36.5060 H   0  0  0  0  0  0  0  0  0  0  0  0
   39.5860   22.0540   32.4370 H   0  0  0  0  0  0  0  0  0  0  0  0
   36.6510   25.5960   32.6510 N   0  0  0  0  0  0  0  0  0  0  0  0
   36.7120   24.8880   33.4170 H   0  0  0  0  0  0  0  0  0  0  0  0
   36.2300   24.7900   31.2090 S   0  0  0  0  0  0  0  0  0  0  0  0
   35.3490   25.7470   30.4200 O   0  0  0  0  0  0  0  0  0  0  0  0
   34.4260   25.4960   30.1920 H   0  0  0  0  0  0  0  0  0  0  0  0
   37.4180   24.4310   30.3670 O   0  0  0  0  0  0  0  0  0  0  0  0
   37.9090   23.5860   30.5810 H   0  0  0  0  0  0  0  0  0  0  0  0
   35.3110   23.4260   31.4660 O   0  0  0  0  0  0  0  0  0  0  0  0
   36.0710   22.2980   31.7060 C   0  0  0  0  0  2  0  0  0  0  0  0
   35.1490   21.2450   32.2950 C   0  0  0  0  0  2  0  0  0  0  0  0
   35.2960   20.2450   31.8240 H   0  0  0  0  0  0  0  0  0  0  0  0
  1  7  1  6  0  0  0
  1 17  1  0  0  0  0
  1  2  1  0  0  0  0
  2  3  1  0  0  0  0
  2  9  1  0  0  0  0
  3 11  1  0  0  0  0
  3 10  1  0  0  0  0
  4 12  1  0  0  0  0
  4  3  1  0  0  0  0
  5  6  1  0  0  0  0
  5  4  1  0  0  0  0
  6 16  1  6  0  0  0
  6 26  1  0  0  0  0
  6  1  1  0  0  0  0
  8  2  1  0  0  0  0
 13  4  1  0  0  0  0
 14  5  1  0  0  0  0
 15  5  1  0  0  0  0
 17 18  1  0  0  0  0
 18 19  2  0  0  0  0
 18 23  1  0  0  0  0
 19 24  1  0  0  0  0
 20 19  1  0  0  0  0
 21 20  2  0  0  0  0
 22 21  1  0  0  0  0
 22 17  2  0  0  0  0
 25 21  1  0  0  0  0
 26 27  1  0  0  0  0
 28 33  1  0  0  0  0
 28 26  1  0  0  0  0
 29 28  1  0  0  0  0
 30 29  1  0  0  0  0
 31 32  1  0  0  0  0
 31 28  1  0  0  0  0
 33 34  1  0  0  0  0
 34 35  1  0  0  0  0
 36 35  1  0  0  0  0
M  END
>  <minimizedAffinity>
-4.5338645

$$$$

 OpenBabel03262521073D

 36 37  0  0  1  0  0  0  0  0999 V2000
   38.6940   26.4580   34.2920 C   0  0  2  0  0  0  0  0  0  0  0  0
   38.0480   27.4770   35.1430 C   0  0  0  0  0  0  0  0  0  0  0  0
   36.6670   27.8590   34.6550 C   0  0  0  0  0  0  0  0  0  0  0  0
   36.6620   28.3340   33.2310 C   0  0  0  0  0  0  0  0  0  0  0  0
   37.6040   27.5730   32.3400 C   0  0  0  0  0  0  0  0  0  0  0  0
   38.0240   26.2470   32.9710 C   0  0  2  0  0  0  0  0  0  0  0  0
   39.7590   26.7570   34.0360 H   0  0  0  0  0  0  0  0  0  0  0  0
   38.6410   28.4500   35.0360 H   0  0  0  0  0  0  0  0  0  0  0  0
   37.9210   27.3370   36.1950 H   0  0  0  0  0  0  0  0  0  0  0  0
   36.3160   28.6730   35.3330 H   0  0  0  0  0  0  0  0  0  0  0  0
   35.9910   27.0020   34.8220 H   0  0  0  0  0  0  0  0  0  0  0  0
   36.8680   29.4250   33.2330 H   0  0  0  0  0  0  0  0  0  0  0  0
   35.6140   28.2260   32.8670 H   0  0  0  0  0  0  0  0  0  0  0  0
   38.5330   28.1850   32.2830 H   0  0  0  0  0  0  0  0  0  0  0  0
   37.1200   27.4470   31.3810 H   0  0  0  0  0  0  0  0  0  0  0  0
   38.8040   25.8320   32.2690 H   0  0  0  0  0  0  0  0  0  0  0  0
   38.8290   25.1460   34.9410 C   0  0  0  0  0  0  0  0  0  0  0  0
   40.0510   24.4760   34.7000 C   0  0  0  0  0  0  0  0  0  0  0  0
   40.2100   23.2430   35.3240 C   0  0  0  0  0  0  0  0  0  0  0  0
   39.2180   22.7460   36.1130 N   0  0  0  0  0  0  0  0  0  0  0  0
   38.0580   23.4280   36.3130 C   0  0  0  0  0  0  0  0  0  0  0  0
   37.9050   24.5870   35.7300 N   0  0  0  0  0  0  0  0  0  0  0  0
   40.9590   24.6190   34.1460 H   0  0  0  0  0  0  0  0  0  0  0  0
   41.0170   22.5410   35.3140 H   0  0  0  0  0  0  0  0  0  0  0  0
   37.2600   23.0480   36.9350 H   0  0  0  0  0  0  0  0  0  0  0  0
   36.9180   25.3960   32.8950 N   0  0  0  0  0  0  0  0  0  0  0  0
   36.6460   24.9980   33.8220 H   0  0  0  0  0  0  0  0  0  0  0  0
   37.0140   24.1190   31.7700 S   0  0  0  0  0  0  0  0  0  0  0  0
   37.2970   24.7560   30.4170 O   0  0  0  0  0  0  0  0  0  0  0  0
   36.6620   24.6420   29.6760 H   0  0  0  0  0  0  0  0  0  0  0  0
   38.1120   23.1450   32.0780 O   0  0  0  0  0  0  0  0  0  0  0  0
   37.9250   22.4180   32.7390 H   0  0  0  0  0  0  0  0  0  0  0  0
   35.5810   23.2910   31.5980 O   0  0  0  0  0  0  0  0  0  0  0  0
   35.7590   21.9640   31.2580 C   0  0  0  0  0  2  0  0  0  0  0  0
   35.0480   21.1270   32.3070 C   0  0  0  0  0  2  0  0  0  0  0  0
   34.4380   20.3110   31.8520 H   0  0  0  0  0  0  0  0  0  0  0  0
  1  7  1  6  0  0  0
  1 17  1  0  0  0  0
  1  2  1  0  0  0  0
  2  9  1  0  0  0  0
  3 11  1  0  0  0  0
  3  2  1  0  0  0  0
  3 10  1  0  0  0  0
  4 12  1  0  0  0  0
  4  3  1  0  0  0  0
  5  6  1  0  0  0  0
  5  4  1  0  0  0  0
  6 16  1  6  0  0  0
  6  1  1  0  0  0  0
  8  2  1  0  0  0  0
 13  4  1  0  0  0  0
 14  5  1  0  0  0  0
 15  5  1  0  0  0  0
 17 22  1  0  0  0  0
 18 17  2  0  0  0  0
 18 19  1  0  0  0  0
 19 20  2  0  0  0  0
 20 21  1  0  0  0  0
 21 25  1  0  0  0  0
 22 21  2  0  0  0  0
 23 18  1  0  0  0  0
 24 19  1  0  0  0  0
 26  6  1  0  0  0  0
 26 27  1  0  0  0  0
 28 31  1  0  0  0  0
 28 26  1  0  0  0  0
 29 28  1  0  0  0  0
 30 29  1  0  0  0  0
 31 32  1  0  0  0  0
 33 28  1  0  0  0  0
 34 33  1  0  0  0  0
 34 35  1  0  0  0  0
 36 35  1  0  0  0  0
M  END
>  <minimizedAffinity>
-4.50718832

$$$$

 OpenBabel03262521073D

 36 37  0  0  1  0  0  0  0  0999 V2000
   38.3850   26.2540   34.2800 C   0  0  2  0  0  0  0  0  0  0  0  0
   37.8380   27.3890   35.0480 C   0  0  0  0  0  0  0  0  0  0  0  0
   36.5880   27.9730   34.4230 C   0  0  0  0  0  0  0  0  0  0  0  0
   36.7930   28.3960   32.9970 C   0  0  0  0  0  0  0  0  0  0  0  0
   37.6760   27.4660   32.2140 C   0  0  0  0  0  0  0  0  0  0  0  0
   37.8150   26.1110   32.9050 C   0  0  2  0  0  0  0  0  0  0  0  0
   39.5040   26.3690   34.1230 H   0  0  0  0  0  0  0  0  0  0  0  0
   38.5890   28.2500   34.9830 H   0  0  0  0  0  0  0  0  0  0  0  0
   37.5930   27.3050   36.0860 H   0  0  0  0  0  0  0  0  0  0  0  0
   36.3130   28.8530   35.0500 H   0  0  0  0  0  0  0  0  0  0  0  0
   35.7690   27.2410   34.5390 H   0  0  0  0  0  0  0  0  0  0  0  0
   37.1730   29.4400   33.0010 H   0  0  0  0  0  0  0  0  0  0  0  0
   35.7800   28.4470   32.5360 H   0  0  0  0  0  0  0  0  0  0  0  0
   38.6940   27.9190   32.2370 H   0  0  0  0  0  0  0  0  0  0  0  0
   37.2690   27.3890   31.2150 H   0  0  0  0  0  0  0  0  0  0  0  0
   38.5780   25.5540   32.2870 H   0  0  0  0  0  0  0  0  0  0  0  0
   38.2440   24.9580   34.9600 C   0  0  0  0  0  0  0  0  0  0  0  0
   37.9630   25.0300   36.3440 C   0  0  0  0  0  0  0  0  0  0  0  0
   37.8000   23.8150   37.0030 C   0  0  0  0  0  0  0  0  0  0  0  0
   37.9160   22.6460   36.3150 N   0  0  0  0  0  0  0  0  0  0  0  0
   38.1900   22.6280   34.9820 C   0  0  0  0  0  0  0  0  0  0  0  0
   38.3420   23.7670   34.3600 N   0  0  0  0  0  0  0  0  0  0  0  0
   37.8300   25.7730   37.1080 H   0  0  0  0  0  0  0  0  0  0  0  0
   37.5860   23.5850   38.0260 H   0  0  0  0  0  0  0  0  0  0  0  0
   38.2850   21.7100   34.4210 H   0  0  0  0  0  0  0  0  0  0  0  0
   36.5970   25.4470   32.7360 N   0  0  0  0  0  0  0  0  0  0  0  0
   36.4320   24.7090   33.4580 H   0  0  0  0  0  0  0  0  0  0  0  0
   36.3030   24.7690   31.2000 S   0  0  0  0  0  0  0  0  0  0  0  0
   35.6130   23.4350   31.4400 O   0  0  0  0  0  0  0  0  0  0  0  0
   36.0300   22.6000   31.1310 H   0  0  0  0  0  0  0  0  0  0  0  0
   35.4140   25.6190   30.3420 O   0  0  0  0  0  0  0  0  0  0  0  0
   35.8320   26.3660   29.8240 H   0  0  0  0  0  0  0  0  0  0  0  0
   37.6990   24.4200   30.3620 O   0  0  0  0  0  0  0  0  0  0  0  0
   38.1650   23.1410   30.5940 C   0  0  0  0  0  2  0  0  0  0  0  0
   39.6130   23.2580   31.0360 C   0  0  0  0  0  2  0  0  0  0  0  0
   39.8350   22.6190   31.9220 H   0  0  0  0  0  0  0  0  0  0  0  0
  1  7  1  6  0  0  0
  1 17  1  0  0  0  0
  1  2  1  0  0  0  0
  2  9  1  0  0  0  0
  3 11  1  0  0  0  0
  3  2  1  0  0  0  0
  3 10  1  0  0  0  0
  4 12  1  0  0  0  0
  4  3  1  0  0  0  0
  5 14  1  0  0  0  0
  5  6  1  0  0  0  0
  5  4  1  0  0  0  0
  6 16  1  6  0  0  0
  6  1  1  0  0  0  0
  8  2  1  0  0  0  0
 13  4  1  0  0  0  0
 15  5  1  0  0  0  0
 17 18  1  0  0  0  0
 18 19  2  0  0  0  0
 18 23  1  0  0  0  0
 19 24  1  0  0  0  0
 20 19  1  0  0  0  0
 21 20  2  0  0  0  0
 22 17  2  0  0  0  0
 22 21  1  0  0  0  0
 25 21  1  0  0  0  0
 26  6  1  0  0  0  0
 26 27  1  0  0  0  0
 28 29  1  0  0  0  0
 28 26  1  0  0  0  0
 30 29  1  0  0  0  0
 31 28  1  0  0  0  0
 32 31  1  0  0  0  0
 33 34  1  0  0  0  0
 33 28  1  0  0  0  0
 34 35  1  0  0  0  0
 35 36  1  0  0  0  0
M  END
>  <minimizedAffinity>
-4.4537878

$$$$

 OpenBabel03262521073D

 36 37  0  0  1  0  0  0  0  0999 V2000
   39.9190   25.4090   34.1730 C   0  0  2  0  0  0  0  0  0  0  0  0
   39.9600   26.8600   34.4400 C   0  0  0  0  0  0  0  0  0  0  0  0
   39.0320   27.2770   35.5610 C   0  0  0  0  0  0  0  0  0  0  0  0
   37.6090   26.8600   35.3260 C   0  0  0  0  0  0  0  0  0  0  0  0
   37.4770   25.5050   34.6880 C   0  0  0  0  0  0  0  0  0  0  0  0
   38.7680   24.6990   34.8120 C   0  0  2  0  0  0  0  0  0  0  0  0
   39.8120   25.2010   33.0620 H   0  0  0  0  0  0  0  0  0  0  0  0
   39.5240   27.3960   33.5270 H   0  0  0  0  0  0  0  0  0  0  0  0
   40.8740   27.3700   34.6580 H   0  0  0  0  0  0  0  0  0  0  0  0
   39.1020   28.3880   35.6210 H   0  0  0  0  0  0  0  0  0  0  0  0
   39.4400   26.8880   36.5110 H   0  0  0  0  0  0  0  0  0  0  0  0
   37.1110   27.6580   34.7350 H   0  0  0  0  0  0  0  0  0  0  0  0
   37.1100   26.8680   36.3220 H   0  0  0  0  0  0  0  0  0  0  0  0
   37.3440   25.6920   33.5980 H   0  0  0  0  0  0  0  0  0  0  0  0
   36.6270   25.0110   35.1400 H   0  0  0  0  0  0  0  0  0  0  0  0
   38.5790   23.7650   34.2080 H   0  0  0  0  0  0  0  0  0  0  0  0
   41.1500   24.7030   34.5590 C   0  0  0  0  0  0  0  0  0  0  0  0
   42.2170   25.5320   34.9740 C   0  0  0  0  0  0  0  0  0  0  0  0
   43.3840   24.8830   35.3670 C   0  0  0  0  0  0  0  0  0  0  0  0
   43.4510   23.5240   35.3360 N   0  0  0  0  0  0  0  0  0  0  0  0
   42.3960   22.7680   34.9260 C   0  0  0  0  0  0  0  0  0  0  0  0
   41.2990   23.3730   34.5570 N   0  0  0  0  0  0  0  0  0  0  0  0
   42.4360   26.5770   35.0870 H   0  0  0  0  0  0  0  0  0  0  0  0
   44.3210   25.2600   35.7190 H   0  0  0  0  0  0  0  0  0  0  0  0
   42.4320   21.6890   34.8940 H   0  0  0  0  0  0  0  0  0  0  0  0
   38.8670   24.3010   36.1490 N   0  0  0  0  0  0  0  0  0  0  0  0
   39.8290   24.4220   36.5390 H   0  0  0  0  0  0  0  0  0  0  0  0
   38.3320   22.7250   36.5170 S   0  0  0  0  0  0  0  0  0  0  0  0
   39.5790   21.9020   36.8070 O   0  0  0  0  0  0  0  0  0  0  0  0
   39.7920   21.1170   36.2550 H   0  0  0  0  0  0  0  0  0  0  0  0
   37.4360   22.6740   37.7190 O   0  0  0  0  0  0  0  0  0  0  0  0
   36.4640   22.8680   37.5900 H   0  0  0  0  0  0  0  0  0  0  0  0
   37.5740   21.9760   35.2380 O   0  0  0  0  0  0  0  0  0  0  0  0
   36.4230   21.3090   35.6070 C   0  0  0  0  0  2  0  0  0  0  0  0
   35.8020   20.7410   34.3420 C   0  0  0  0  0  2  0  0  0  0  0  0
   35.4790   19.6810   34.4710 H   0  0  0  0  0  0  0  0  0  0  0  0
  1  7  1  6  0  0  0
  1  2  1  0  0  0  0
  1 17  1  0  0  0  0
  1  6  1  0  0  0  0
  2  9  1  0  0  0  0
  2  3  1  0  0  0  0
  3 10  1  0  0  0  0
  3 11  1  0  0  0  0
  4  3  1  0  0  0  0
  4 13  1  0  0  0  0
  5  6  1  0  0  0  0
  5 15  1  0  0  0  0
  5  4  1  0  0  0  0
  6 16  1  6  0  0  0
  6 26  1  0  0  0  0
  8  2  1  0  0  0  0
 12  4  1  0  0  0  0
 14  5  1  0  0  0  0
 17 18  1  0  0  0  0
 18 23  1  0  0  0  0
 18 19  2  0  0  0  0
 19 24  1  0  0  0  0
 20 19  1  0  0  0  0
 21 20  2  0  0  0  0
 22 17  2  0  0  0  0
 22 21  1  0  0  0  0
 25 21  1  0  0  0  0
 26 28  1  0  0  0  0
 26 27  1  0  0  0  0
 28 29  1  0  0  0  0
 28 31  1  0  0  0  0
 30 29  1  0  0  0  0
 32 31  1  0  0  0  0
 33 34  1  0  0  0  0
 33 28  1  0  0  0  0
 35 36  1  0  0  0  0
 35 34  1  0  0  0  0
M  END
>  <minimizedAffinity>
-4.43945265

$$$$

 OpenBabel03262521073D

 36 37  0  0  1  0  0  0  0  0999 V2000
   36.4290   25.9980   32.1280 C   0  0  2  0  0  0  0  0  0  0  0  0
   36.4600   26.8370   30.9130 C   0  0  0  0  0  0  0  0  0  0  0  0
   37.2300   28.1260   31.1110 C   0  0  0  0  0  0  0  0  0  0  0  0
   36.7130   28.9430   32.2590 C   0  0  0  0  0  0  0  0  0  0  0  0
   36.2900   28.1180   33.4420 C   0  0  0  0  0  0  0  0  0  0  0  0
   36.8630   26.7040   33.3730 C   0  0  2  0  0  0  0  0  0  0  0  0
   35.3740   25.6380   32.3470 H   0  0  0  0  0  0  0  0  0  0  0  0
   35.3930   27.1980   30.7100 H   0  0  0  0  0  0  0  0  0  0  0  0
   36.8160   26.4640   29.9770 H   0  0  0  0  0  0  0  0  0  0  0  0
   37.1250   28.6950   30.1570 H   0  0  0  0  0  0  0  0  0  0  0  0
   38.3010   27.8780   31.2090 H   0  0  0  0  0  0  0  0  0  0  0  0
   35.8960   29.5910   31.8790 H   0  0  0  0  0  0  0  0  0  0  0  0
   37.5380   29.6360   32.5470 H   0  0  0  0  0  0  0  0  0  0  0  0
   35.1860   27.9980   33.3520 H   0  0  0  0  0  0  0  0  0  0  0  0
   36.5860   28.6490   34.3360 H   0  0  0  0  0  0  0  0  0  0  0  0
   36.3880   26.1620   34.2420 H   0  0  0  0  0  0  0  0  0  0  0  0
   37.2200   24.7640   32.0140 C   0  0  0  0  0  0  0  0  0  0  0  0
   37.6830   24.4620   30.7120 C   0  0  0  0  0  0  0  0  0  0  0  0
   38.4550   23.3110   30.5850 C   0  0  0  0  0  0  0  0  0  0  0  0
   38.7230   22.5470   31.6800 N   0  0  0  0  0  0  0  0  0  0  0  0
   38.2530   22.8790   32.9130 C   0  0  0  0  0  0  0  0  0  0  0  0
   37.5290   23.9590   33.0360 N   0  0  0  0  0  0  0  0  0  0  0  0
   37.6230   24.8590   29.7170 H   0  0  0  0  0  0  0  0  0  0  0  0
   38.9220   22.8600   29.7360 H   0  0  0  0  0  0  0  0  0  0  0  0
   38.4550   22.2840   33.7910 H   0  0  0  0  0  0  0  0  0  0  0  0
   38.2270   26.8080   33.6590 N   0  0  0  0  0  0  0  0  0  0  0  0
   38.8210   26.2280   33.0250 H   0  0  0  0  0  0  0  0  0  0  0  0
   38.6950   26.4960   35.2680 S   0  0  0  0  0  0  0  0  0  0  0  0
   40.0440   25.7970   35.1980 O   0  0  0  0  0  0  0  0  0  0  0  0
   40.1500   24.8900   35.5620 H   0  0  0  0  0  0  0  0  0  0  0  0
   38.8450   27.7420   36.0890 O   0  0  0  0  0  0  0  0  0  0  0  0
   38.0240   28.1320   36.5070 H   0  0  0  0  0  0  0  0  0  0  0  0
   37.6720   25.4440   36.0540 O   0  0  0  0  0  0  0  0  0  0  0  0
   38.3230   24.3420   36.5720 C   0  0  0  0  0  2  0  0  0  0  0  0
   38.0010   24.2790   38.0550 C   0  0  0  0  0  2  0  0  0  0  0  0
   37.7260   23.2490   38.3830 H   0  0  0  0  0  0  0  0  0  0  0  0
  1  7  1  1  0  0  0
  1  6  1  0  0  0  0
  2  3  1  0  0  0  0
  2  1  1  0  0  0  0
  3 11  1  0  0  0  0
  3  4  1  0  0  0  0
  4 13  1  0  0  0  0
  4  5  1  0  0  0  0
  5 15  1  0  0  0  0
  6  5  1  0  0  0  0
  6 26  1  0  0  0  0
  6 16  1  1  0  0  0
  8  2  1  0  0  0  0
  9  2  1  0  0  0  0
 10  3  1  0  0  0  0
 12  4  1  0  0  0  0
 14  5  1  0  0  0  0
 17  1  1  0  0  0  0
 17 22  1  0  0  0  0
 18 17  2  0  0  0  0
 19 18  1  0  0  0  0
 19 20  2  0  0  0  0
 20 21  1  0  0  0  0
 21 22  2  0  0  0  0
 21 25  1  0  0  0  0
 23 18  1  0  0  0  0
 24 19  1  0  0  0  0
 26 28  1  0  0  0  0
 27 26  1  0  0  0  0
 28 33  1  0  0  0  0
 28 31  1  0  0  0  0
 29 28  1  0  0  0  0
 29 30  1  0  0  0  0
 31 32  1  0  0  0  0
 33 34  1  0  0  0  0
 34 35  1  0  0  0  0
 35 36  1  0  0  0  0
M  END
>  <minimizedAffinity>
-4.29794645

$$$$

 OpenBabel03262521073D

 36 37  0  0  1  0  0  0  0  0999 V2000
   38.7090   26.4920   34.6410 C   0  0  2  0  0  0  0  0  0  0  0  0
   37.9380   27.5760   35.2810 C   0  0  0  0  0  0  0  0  0  0  0  0
   36.6390   27.8750   34.5620 C   0  0  0  0  0  0  0  0  0  0  0  0
   36.8390   28.2040   33.1110 C   0  0  0  0  0  0  0  0  0  0  0  0
   37.9060   27.3780   32.4480 C   0  0  0  0  0  0  0  0  0  0  0  0
   38.2400   26.1330   33.2670 C   0  0  2  0  0  0  0  0  0  0  0  0
   39.7980   26.7880   34.5120 H   0  0  0  0  0  0  0  0  0  0  0  0
   38.5330   28.5470   35.1610 H   0  0  0  0  0  0  0  0  0  0  0  0
   37.6610   27.5400   36.3130 H   0  0  0  0  0  0  0  0  0  0  0  0
   36.1870   28.7450   35.0950 H   0  0  0  0  0  0  0  0  0  0  0  0
   35.9530   27.0240   34.7180 H   0  0  0  0  0  0  0  0  0  0  0  0
   37.0330   29.2940   33.0300 H   0  0  0  0  0  0  0  0  0  0  0  0
   35.8550   28.0360   32.6130 H   0  0  0  0  0  0  0  0  0  0  0  0
   38.8280   28.0030   32.4620 H   0  0  0  0  0  0  0  0  0  0  0  0
   37.5670   27.1460   31.4480 H   0  0  0  0  0  0  0  0  0  0  0  0
   39.1170   25.6670   32.7310 H   0  0  0  0  0  0  0  0  0  0  0  0
   38.7590   25.2550   35.4350 C   0  0  0  0  0  0  0  0  0  0  0  0
   39.9520   24.5050   35.3090 C   0  0  0  0  0  0  0  0  0  0  0  0
   40.0300   23.3430   36.0710 C   0  0  0  0  0  0  0  0  0  0  0  0
   38.9920   22.9850   36.8760 N   0  0  0  0  0  0  0  0  0  0  0  0
   37.8640   23.7400   36.9620 C   0  0  0  0  0  0  0  0  0  0  0  0
   37.7870   24.8320   36.2500 N   0  0  0  0  0  0  0  0  0  0  0  0
   40.8810   24.5420   34.7730 H   0  0  0  0  0  0  0  0  0  0  0  0
   40.8000   22.6060   36.1640 H   0  0  0  0  0  0  0  0  0  0  0  0
   37.0310   23.4710   37.5950 H   0  0  0  0  0  0  0  0  0  0  0  0
   37.1640   25.2540   33.1210 N   0  0  0  0  0  0  0  0  0  0  0  0
   37.0220   24.6420   33.9550 H   0  0  0  0  0  0  0  0  0  0  0  0
   37.1670   24.2700   31.7290 S   0  0  0  0  0  0  0  0  0  0  0  0
   36.5670   22.9340   32.1420 O   0  0  0  0  0  0  0  0  0  0  0  0
   37.0970   22.1100   32.0660 H   0  0  0  0  0  0  0  0  0  0  0  0
   36.3470   24.8350   30.6070 O   0  0  0  0  0  0  0  0  0  0  0  0
   36.7720   25.5140   30.0080 H   0  0  0  0  0  0  0  0  0  0  0  0
   38.6980   23.9330   31.1700 O   0  0  0  0  0  0  0  0  0  0  0  0
   38.8620   24.2240   29.8300 C   0  0  0  0  0  2  0  0  0  0  0  0
   39.7160   25.4760   29.7370 C   0  0  0  0  0  2  0  0  0  0  0  0
   40.5230   25.3790   28.9740 H   0  0  0  0  0  0  0  0  0  0  0  0
  1  7  1  6  0  0  0
  1  2  1  0  0  0  0
  1 17  1  0  0  0  0
  2  9  1  0  0  0  0
  3 11  1  0  0  0  0
  3 10  1  0  0  0  0
  3  2  1  0  0  0  0
  4  3  1  0  0  0  0
  5 14  1  0  0  0  0
  5  4  1  0  0  0  0
  5  6  1  0  0  0  0
  6 16  1  6  0  0  0
  6  1  1  0  0  0  0
  8  2  1  0  0  0  0
 12  4  1  0  0  0  0
 13  4  1  0  0  0  0
 15  5  1  0  0  0  0
 17 22  1  0  0  0  0
 18 17  2  0  0  0  0
 18 19  1  0  0  0  0
 19 24  1  0  0  0  0
 19 20  2  0  0  0  0
 20 21  1  0  0  0  0
 21 25  1  0  0  0  0
 22 21  2  0  0  0  0
 23 18  1  0  0  0  0
 26  6  1  0  0  0  0
 26 27  1  0  0  0  0
 28 29  1  0  0  0  0
 28 26  1  0  0  0  0
 30 29  1  0  0  0  0
 31 28  1  0  0  0  0
 32 31  1  0  0  0  0
 33 28  1  0  0  0  0
 34 33  1  0  0  0  0
 35 34  1  0  0  0  0
 36 35  1  0  0  0  0
M  END
>  <minimizedAffinity>
-4.29692888

$$$$
