
 OpenBabel03272510103D

 22 23  0  0  0  0  0  0  0  0999 V2000
   38.2490   31.0050   47.9710 C   0  0  0  0  0  0  0  0  0  0  0  0
   38.8640   32.2380   47.9590 C   0  0  0  0  0  0  0  0  0  0  0  0
   39.5290   32.7110   46.8360 C   0  0  0  0  0  0  0  0  0  0  0  0
   39.6050   31.9780   45.6910 C   0  0  0  0  0  0  0  0  0  0  0  0
   38.9770   30.7530   45.7470 C   0  0  0  0  0  0  0  0  0  0  0  0
   38.3310   30.2890   46.8320 N   0  0  0  0  0  0  0  0  0  0  0  0
   38.8350   32.8630   48.8420 H   0  0  0  0  0  0  0  0  0  0  0  0
   40.0150   33.6960   46.8390 H   0  0  0  0  0  0  0  0  0  0  0  0
   38.9590   30.0680   44.9090 H   0  0  0  0  0  0  0  0  0  0  0  0
   37.9200   30.7720   50.4610 C   0  0  0  0  0  0  0  0  0  0  0  0
   37.5480   30.4830   49.1280 C   0  0  0  0  0  0  0  0  0  0  0  0
   36.4600   29.6600   48.9380 C   0  0  0  0  0  0  0  0  0  0  0  0
   35.7910   29.1610   50.0150 N   0  0  0  0  0  0  0  0  0  0  0  0
   36.1800   29.4640   51.2790 C   0  0  0  0  0  0  0  0  0  0  0  0
   37.2340   30.2610   51.4970 N   0  0  0  0  0  0  0  0  0  0  0  0
   38.7820   31.4240   50.5340 H   0  0  0  0  0  0  0  0  0  0  0  0
   36.0770   29.3630   47.9570 H   0  0  0  0  0  0  0  0  0  0  0  0
   35.6590   29.0770   52.1470 H   0  0  0  0  0  0  0  0  0  0  0  0
   40.2410   32.3540   44.5200 O   0  0  0  0  0  0  0  0  0  0  0  0
   39.5990   33.1610   43.5650 C   0  0  0  0  0  2  0  0  0  0  0  0
   40.1020   34.5730   43.7370 C   0  0  0  0  0  2  0  0  0  0  0  0
   40.3830   34.7090   44.8120 H   0  0  0  0  0  0  0  0  0  0  0  0
  1 11  1  0  0  0  0
  2  1  1  0  0  0  0
  2  7  1  0  0  0  0
  3  8  1  0  0  0  0
  3  2  2  0  0  0  0
  4  5  2  0  0  0  0
  4  3  1  0  0  0  0
  5  6  1  0  0  0  0
  6  1  2  0  0  0  0
  9  5  1  0  0  0  0
 10 16  1  0  0  0  0
 10 15  1  0  0  0  0
 11 10  2  0  0  0  0
 12 11  1  0  0  0  0
 12 13  2  0  0  0  0
 13 14  1  0  0  0  0
 14 15  2  0  0  0  0
 14 18  1  0  0  0  0
 17 12  1  0  0  0  0
 19  4  1  0  0  0  0
 20 21  1  0  0  0  0
 20 19  1  0  0  0  0
 21 22  1  0  0  0  0
M  END
>  <minimizedAffinity>
-4.14412403

>  <minimizedRMSD>
2.36732888

$$$$
