
 OpenBabel03272508163D

 25 26  0  0  0  0  0  0  0  0999 V2000
   36.9270   32.1530   49.8790 Cl  0  0  0  0  0  0  0  0  0  0  0  0
   37.6070   31.7970   48.3250 C   0  0  0  0  0  0  0  0  0  0  0  0
   36.9740   30.7740   47.6890 C   0  0  0  0  0  0  0  0  0  0  0  0
   37.4580   30.4070   46.4090 C   0  0  0  0  0  0  0  0  0  0  0  0
   38.5110   31.0430   45.8270 C   0  0  0  0  0  0  0  0  0  0  0  0
   39.1240   32.0720   46.4980 C   0  0  0  0  0  0  0  0  0  0  0  0
   40.4710   32.9100   45.7930 Cl  0  0  0  0  0  0  0  0  0  0  0  0
   38.6720   32.4340   47.7270 C   0  0  0  0  0  0  0  0  0  0  0  0
   37.0210   29.6080   45.8270 H   0  0  0  0  0  0  0  0  0  0  0  0
   38.8840   30.7650   44.8470 H   0  0  0  0  0  0  0  0  0  0  0  0
   36.0170   29.0760   49.1880 C   0  0  0  0  0  0  0  0  0  0  0  0
   35.8340   29.9540   48.1180 C   0  0  0  0  0  0  0  0  0  0  0  0
   34.5700   30.0100   47.5080 C   0  0  0  0  0  0  0  0  0  0  0  0
   33.5980   29.2040   47.9940 N   0  0  0  0  0  0  0  0  0  0  0  0
   33.8130   28.3650   49.0330 C   0  0  0  0  0  0  0  0  0  0  0  0
   35.0290   28.2990   49.6330 N   0  0  0  0  0  0  0  0  0  0  0  0
   36.9940   29.0400   49.6500 H   0  0  0  0  0  0  0  0  0  0  0  0
   34.4360   30.6780   46.6980 H   0  0  0  0  0  0  0  0  0  0  0  0
   33.0350   27.7140   49.4280 H   0  0  0  0  0  0  0  0  0  0  0  0
   39.2700   33.5260   48.5180 C   0  0  0  0  0  0  0  0  0  0  0  0
   39.7740   34.5770   48.1410 O   0  0  0  0  0  0  0  0  0  0  0  0
   39.3780   33.5670   49.9270 O   0  0  0  0  0  0  0  0  0  0  0  0
   39.8910   34.6560   50.6190 C   0  0  0  0  0  2  0  0  0  0  0  0
   41.2040   34.4100   51.3120 C   0  0  0  0  0  2  0  0  0  0  0  0
   41.2600   35.1030   52.1980 H   0  0  0  0  0  0  0  0  0  0  0  0
  2  1  1  0  0  0  0
  3 12  1  0  0  0  0
  3  2  2  0  0  0  0
  4  3  1  0  0  0  0
  5  4  2  0  0  0  0
  5  6  1  0  0  0  0
  6  8  2  0  0  0  0
  7  6  1  0  0  0  0
  8  2  1  0  0  0  0
  8 20  1  0  0  0  0
  9  4  1  0  0  0  0
 10  5  1  0  0  0  0
 11 16  1  0  0  0  0
 11 17  1  0  0  0  0
 12 11  2  0  0  0  0
 13 14  2  0  0  0  0
 13 12  1  0  0  0  0
 14 15  1  0  0  0  0
 15 19  1  0  0  0  0
 15 16  2  0  0  0  0
 18 13  1  0  0  0  0
 20 22  1  0  0  0  0
 21 20  2  0  0  0  0
 22 23  1  0  0  0  0
 23 24  1  0  0  0  0
 24 25  1  0  0  0  0
M  END
>  <minimizedAffinity>
-3.07188177

>  <minimizedRMSD>
0.412113905

$$$$
