
 OpenBabel03272508163D

 25 26  0  0  0  0  0  0  0  0999 V2000
   36.9240   32.1510   49.8790 Cl  0  0  0  0  0  0  0  0  0  0  0  0
   37.6050   31.7960   48.3240 C   0  0  0  0  0  0  0  0  0  0  0  0
   36.9730   30.7740   47.6890 C   0  0  0  0  0  0  0  0  0  0  0  0
   37.4570   30.4070   46.4090 C   0  0  0  0  0  0  0  0  0  0  0  0
   38.5100   31.0430   45.8270 C   0  0  0  0  0  0  0  0  0  0  0  0
   39.1230   32.0720   46.4990 C   0  0  0  0  0  0  0  0  0  0  0  0
   40.4700   32.9100   45.7950 Cl  0  0  0  0  0  0  0  0  0  0  0  0
   38.6710   32.4340   47.7270 C   0  0  0  0  0  0  0  0  0  0  0  0
   37.0200   29.6080   45.8260 H   0  0  0  0  0  0  0  0  0  0  0  0
   38.8840   30.7660   44.8470 H   0  0  0  0  0  0  0  0  0  0  0  0
   36.0150   29.0750   49.1860 C   0  0  0  0  0  0  0  0  0  0  0  0
   35.8320   29.9540   48.1170 C   0  0  0  0  0  0  0  0  0  0  0  0
   34.5690   30.0090   47.5050 C   0  0  0  0  0  0  0  0  0  0  0  0
   33.5970   29.2030   47.9910 N   0  0  0  0  0  0  0  0  0  0  0  0
   33.8110   28.3630   49.0300 C   0  0  0  0  0  0  0  0  0  0  0  0
   35.0260   28.2990   49.6310 N   0  0  0  0  0  0  0  0  0  0  0  0
   36.9910   29.0400   49.6500 H   0  0  0  0  0  0  0  0  0  0  0  0
   34.4350   30.6770   46.6950 H   0  0  0  0  0  0  0  0  0  0  0  0
   33.0320   27.7130   49.4250 H   0  0  0  0  0  0  0  0  0  0  0  0
   39.2680   33.5260   48.5190 C   0  0  0  0  0  0  0  0  0  0  0  0
   39.7660   34.5790   48.1430 O   0  0  0  0  0  0  0  0  0  0  0  0
   39.3810   33.5630   49.9280 O   0  0  0  0  0  0  0  0  0  0  0  0
   39.8910   34.6530   50.6210 C   0  0  0  0  0  2  0  0  0  0  0  0
   41.2050   34.4120   51.3120 C   0  0  0  0  0  2  0  0  0  0  0  0
   41.2570   35.1030   52.2000 H   0  0  0  0  0  0  0  0  0  0  0  0
  2  1  1  0  0  0  0
  3 12  1  0  0  0  0
  3  2  2  0  0  0  0
  4  3  1  0  0  0  0
  5  4  2  0  0  0  0
  5  6  1  0  0  0  0
  6  8  2  0  0  0  0
  7  6  1  0  0  0  0
  8  2  1  0  0  0  0
  8 20  1  0  0  0  0
  9  4  1  0  0  0  0
 10  5  1  0  0  0  0
 11 16  1  0  0  0  0
 11 17  1  0  0  0  0
 12 11  2  0  0  0  0
 13 14  2  0  0  0  0
 13 12  1  0  0  0  0
 14 15  1  0  0  0  0
 15 19  1  0  0  0  0
 15 16  2  0  0  0  0
 18 13  1  0  0  0  0
 20 22  1  0  0  0  0
 21 20  2  0  0  0  0
 22 23  1  0  0  0  0
 23 24  1  0  0  0  0
 24 25  1  0  0  0  0
M  END
>  <minimizedAffinity>
-3.06447697

>  <minimizedRMSD>
0.44860515

$$$$
