
 OpenBabel03272507373D

 17 17  0  0  0  0  0  0  0  0999 V2000
   37.5560   30.2100   49.1240 C   0  0  0  0  0  0  0  0  0  0  0  0
   36.3750   29.4590   49.0660 C   0  0  0  0  0  0  0  0  0  0  0  0
   35.7110   29.1240   50.2480 C   0  0  0  0  0  0  0  0  0  0  0  0
   36.2700   29.5620   51.4200 N   0  0  0  0  0  0  0  0  0  0  0  0
   37.4020   30.2810   51.4500 C   0  0  0  0  0  0  0  0  0  0  0  0
   38.0370   30.6020   50.3310 N   0  0  0  0  0  0  0  0  0  0  0  0
   34.7960   28.5460   50.2570 H   0  0  0  0  0  0  0  0  0  0  0  0
   37.8510   30.6310   52.3710 H   0  0  0  0  0  0  0  0  0  0  0  0
   34.6460   29.7000   47.3760 C   0  0  0  0  0  0  0  0  0  0  0  0
   33.9460   30.7290   47.7280 O   0  0  0  0  0  0  0  0  0  0  0  0
   35.7680   28.9910   47.9010 N   0  0  0  0  0  0  0  0  0  0  0  0
   34.0510   29.5430   46.4820 H   0  0  0  0  0  0  0  0  0  0  0  0
   35.9390   28.1870   47.2590 H   0  0  0  0  0  0  0  0  0  0  0  0
   38.0810   30.4520   47.8810 O   0  0  0  0  0  0  0  0  0  0  0  0
   38.5550   31.7470   47.5730 C   0  0  0  0  0  2  0  0  0  0  0  0
   38.1540   32.0950   46.1600 C   0  0  0  0  0  2  0  0  0  0  0  0
   37.8040   33.1560   46.0740 H   0  0  0  0  0  0  0  0  0  0  0  0
  1  6  1  0  0  0  0
  2  1  2  0  0  0  0
  2  3  1  0  0  0  0
  3  7  1  0  0  0  0
  3  4  2  0  0  0  0
  4  5  1  0  0  0  0
  5  8  1  0  0  0  0
  6  5  2  0  0  0  0
  9 10  2  0  0  0  0
  9 11  1  0  0  0  0
 11  2  1  0  0  0  0
 12  9  1  0  0  0  0
 13 11  1  0  0  0  0
 14  1  1  0  0  0  0
 15 14  1  0  0  0  0
 16 15  1  0  0  0  0
 17 16  1  0  0  0  0
M  END
>  <minimizedAffinity>
-3.35483527

>  <minimizedRMSD>
4.3390789

$$$$
