
 OpenBabel03262520103D

 30 31  0  0  0  0  0  0  0  0999 V2000
   38.1200   31.4890   48.9420 Br  0  0  0  0  0  0  0  0  0  0  0  0
   36.9330   30.8850   47.5590 C   0  0  0  0  0  0  0  0  0  0  0  0
   37.2980   30.9530   46.2300 C   0  0  0  0  0  0  0  0  0  0  0  0
   36.4060   30.5160   45.2890 C   0  0  0  0  0  0  0  0  0  0  0  0
   35.1670   30.0120   45.6170 C   0  0  0  0  0  0  0  0  0  0  0  0
   34.8140   29.9520   46.9710 C   0  0  0  0  0  0  0  0  0  0  0  0
   35.7150   30.3950   47.9220 C   0  0  0  0  0  0  0  0  0  0  0  0
   36.7580   30.6130   44.2630 H   0  0  0  0  0  0  0  0  0  0  0  0
   34.5920   29.7160   44.7650 H   0  0  0  0  0  0  0  0  0  0  0  0
   33.8530   29.5520   47.1200 H   0  0  0  0  0  0  0  0  0  0  0  0
   39.8870   33.2730   45.1160 C   0  0  0  0  0  0  0  0  0  0  0  0
   41.0730   32.4840   45.1000 C   0  0  0  0  0  0  0  0  0  0  0  0
   40.9470   31.1680   45.4700 C   0  0  0  0  0  0  0  0  0  0  0  0
   39.7180   30.6650   45.8370 N   0  0  0  0  0  0  0  0  0  0  0  0
   38.6190   31.4630   45.8380 C   0  0  0  0  0  0  0  0  0  0  0  0
   38.7270   32.7410   45.4790 N   0  0  0  0  0  0  0  0  0  0  0  0
   39.9880   34.2970   44.8150 H   0  0  0  0  0  0  0  0  0  0  0  0
   42.0180   32.8810   44.8230 H   0  0  0  0  0  0  0  0  0  0  0  0
   41.7910   30.5080   45.4870 H   0  0  0  0  0  0  0  0  0  0  0  0
   35.2080   30.3050   49.3040 C   0  0  0  0  0  0  0  0  0  0  0  0
   36.0540   29.9620   49.9520 H   0  0  0  0  0  0  0  0  0  0  0  0
   34.9570   31.3090   49.7110 H   0  0  0  0  0  0  0  0  0  0  0  0
   34.1030   29.3510   49.5240 C   0  0  0  0  0  0  0  0  0  0  0  0
   33.7910   29.4750   50.5930 H   0  0  0  0  0  0  0  0  0  0  0  0
   33.1610   29.5120   48.9830 H   0  0  0  0  0  0  0  0  0  0  0  0
   34.6200   28.0060   49.4400 N   0  0  0  0  0  0  0  0  0  0  0  0
   35.6440   28.0720   49.1680 H   0  0  0  0  0  0  0  0  0  0  0  0
   33.9080   27.1340   48.5460 C   0  0  0  0  0  0  0  0  0  0  0  0
   32.4610   27.6100   48.5090 C   0  0  0  0  0  0  0  0  0  0  0  0
   32.0100   27.3210   47.5340 H   0  0  0  0  0  0  0  0  0  0  0  0
  2  7  1  0  0  0  0
  2  1  1  0  0  0  0
  3  2  2  0  0  0  0
  4  5  2  0  0  0  0
  4  3  1  0  0  0  0
  5  6  1  0  0  0  0
  6 10  1  0  0  0  0
  6  7  2  0  0  0  0
  7 20  1  0  0  0  0
  8  4  1  0  0  0  0
  9  5  1  0  0  0  0
 11 16  1  0  0  0  0
 12 11  2  0  0  0  0
 12 13  1  0  0  0  0
 13 19  1  0  0  0  0
 13 14  2  0  0  0  0
 14 15  1  0  0  0  0
 15  3  1  0  0  0  0
 16 15  2  0  0  0  0
 17 11  1  0  0  0  0
 18 12  1  0  0  0  0
 20 23  1  0  0  0  0
 20 22  1  0  0  0  0
 20 21  1  0  0  0  0
 23 24  1  0  0  0  0
 25 23  1  0  0  0  0
 26 23  1  0  0  0  0
 27 26  1  0  0  0  0
 28 26  1  0  0  0  0
 29 28  1  0  0  0  0
 30 29  1  0  0  0  0
M  END
>  <minimizedAffinity>
-4.88041639

>  <minimizedRMSD>
0.73061657

$$$$
