
 OpenBabel03272505023D

 23 24  0  0  0  0  0  0  0  0999 V2000
   38.1080   30.6470   46.8290 Cl  0  0  0  0  0  0  0  0  0  0  0  0
   38.6440   32.0410   47.7400 C   0  0  0  0  0  0  0  0  0  0  0  0
   38.2620   32.1640   49.0400 C   0  0  0  0  0  0  0  0  0  0  0  0
   38.7150   33.2850   49.7100 C   0  0  0  0  0  0  0  0  0  0  0  0
   39.5170   34.2050   49.0410 C   0  0  0  0  0  0  0  0  0  0  0  0
   39.8720   34.0390   47.7410 C   0  0  0  0  0  0  0  0  0  0  0  0
   39.4270   32.9270   47.0620 C   0  0  0  0  0  0  0  0  0  0  0  0
   38.4310   33.4170   50.7460 H   0  0  0  0  0  0  0  0  0  0  0  0
   39.8370   35.0640   49.6320 H   0  0  0  0  0  0  0  0  0  0  0  0
   40.4950   34.8170   47.3370 H   0  0  0  0  0  0  0  0  0  0  0  0
   37.9360   30.3660   50.7540 C   0  0  0  0  0  0  0  0  0  0  0  0
   37.4130   31.1880   49.7440 C   0  0  0  0  0  0  0  0  0  0  0  0
   36.0690   31.0510   49.4310 C   0  0  0  0  0  0  0  0  0  0  0  0
   35.3480   30.1310   50.1220 N   0  0  0  0  0  0  0  0  0  0  0  0
   35.8670   29.3640   51.0740 C   0  0  0  0  0  0  0  0  0  0  0  0
   37.1600   29.4770   51.3940 N   0  0  0  0  0  0  0  0  0  0  0  0
   38.9940   30.5050   50.9680 H   0  0  0  0  0  0  0  0  0  0  0  0
   35.6080   31.6680   48.6520 H   0  0  0  0  0  0  0  0  0  0  0  0
   35.3070   28.6220   51.6390 H   0  0  0  0  0  0  0  0  0  0  0  0
   39.7980   32.7710   45.7390 O   0  0  0  0  0  0  0  0  0  0  0  0
   40.9100   32.0560   45.2970 C   0  0  0  0  0  0  0  0  0  0  0  0
   40.6400   31.1070   44.1600 C   0  0  0  0  0  0  0  0  0  0  0  0
   40.7930   30.0410   44.4830 H   0  0  0  0  0  0  0  0  0  0  0  0
  1  2  1  0  0  0  0
  2  3  1  0  0  0  0
  3  4  2  0  0  0  0
  3 12  1  0  0  0  0
  4  8  1  0  0  0  0
  5  9  1  0  0  0  0
  5  4  1  0  0  0  0
  6  5  2  0  0  0  0
  7  2  2  0  0  0  0
  7  6  1  0  0  0  0
 10  6  1  0  0  0  0
 11 17  1  0  0  0  0
 11 16  1  0  0  0  0
 12 11  2  0  0  0  0
 13 12  1  0  0  0  0
 13 14  2  0  0  0  0
 14 15  1  0  0  0  0
 15 16  2  0  0  0  0
 15 19  1  0  0  0  0
 18 13  1  0  0  0  0
 20  7  1  0  0  0  0
 21 20  1  0  0  0  0
 22 23  1  0  0  0  0
 22 21  1  0  0  0  0
M  END
>  <minimizedAffinity>
-5.5878396

>  <minimizedRMSD>
0.837342083

$$$$
