
 OpenBabel03262520333D

 23 23  0  0  0  0  0  0  0  0999 V2000
   32.9370   28.1570   47.7680 C   0  0  0  0  0  0  0  0  0  0  0  0
   33.2540   27.4050   46.9870 H   0  0  0  0  0  0  0  0  0  0  0  0
   32.3060   28.8790   47.2420 H   0  0  0  0  0  0  0  0  0  0  0  0
   34.8180   28.3960   49.3440 C   0  0  0  0  0  0  0  0  0  0  0  0
   34.1180   28.8300   48.3540 C   0  0  0  0  0  0  0  0  0  0  0  0
   37.2560   30.1570   51.4480 C   0  0  0  0  0  0  0  0  0  0  0  0
   38.1100   30.7290   50.4860 C   0  0  0  0  0  0  0  0  0  0  0  0
   37.8280   30.4970   49.1420 C   0  0  0  0  0  0  0  0  0  0  0  0
   36.7360   29.7250   48.8510 N   0  0  0  0  0  0  0  0  0  0  0  0
   35.9540   29.2020   49.7850 C   0  0  0  0  0  0  0  0  0  0  0  0
   36.2050   29.4120   51.0870 N   0  0  0  0  0  0  0  0  0  0  0  0
   37.4450   30.3170   52.5220 H   0  0  0  0  0  0  0  0  0  0  0  0
   38.9600   31.3310   50.8000 H   0  0  0  0  0  0  0  0  0  0  0  0
   38.4550   30.9140   48.3670 H   0  0  0  0  0  0  0  0  0  0  0  0
   32.2550   27.3900   48.7260 O   0  0  0  0  0  0  0  0  0  0  0  0
   30.0080   26.4590   47.9520 O   0  0  0  0  0  0  0  0  0  0  0  0
   30.5990   27.7180   48.5800 P   0  0  2  0  0  0  0  0  0  0  0  0
   30.4050   29.0650   47.5640 O   0  0  0  0  0  0  0  0  0  0  0  0
   29.4890   29.4350   47.7520 H   0  0  0  0  0  0  0  0  0  0  0  0
   29.8820   28.0350   50.0930 O   0  0  0  0  0  0  0  0  0  0  0  0
   29.1180   26.9210   50.3940 C   0  0  0  0  0  0  0  0  0  0  0  0
   28.1060   27.1990   51.4990 C   0  0  0  0  0  0  0  0  0  0  0  0
   28.6040   27.6910   52.3590 H   0  0  0  0  0  0  0  0  0  0  0  0
  1  5  1  0  0  0  0
  1 15  1  0  0  0  0
  2  1  1  0  0  0  0
  3  1  1  0  0  0  0
  4 10  1  0  0  0  0
  5  4  2  0  0  0  0
  6 12  1  0  0  0  0
  7 13  1  0  0  0  0
  7  6  2  0  0  0  0
  8  7  1  0  0  0  0
  9  8  2  0  0  0  0
  9 10  1  0  0  0  0
 10 11  2  0  0  0  0
 11  6  1  0  0  0  0
 14  8  1  0  0  0  0
 17 16  2  6  0  0  0
 17 15  1  0  0  0  0
 17 20  1  0  0  0  0
 18 19  1  0  0  0  0
 18 17  1  0  0  0  0
 20 21  1  0  0  0  0
 21 22  1  0  0  0  0
 22 23  1  0  0  0  0
M  END
>  <minimizedAffinity>
-4.85389137

>  <minimizedRMSD>
0.491767436

$$$$
