
 OpenBabel03272509453D

 13 13  0  0  0  0  0  0  0  0999 V2000
   37.5260   30.3230   51.0830 C   0  0  0  0  0  0  0  0  0  0  0  0
   38.2750   31.1050   50.1980 C   0  0  0  0  0  0  0  0  0  0  0  0
   37.6900   31.4800   48.9850 C   0  0  0  0  0  0  0  0  0  0  0  0
   36.4110   31.0500   48.7500 N   0  0  0  0  0  0  0  0  0  0  0  0
   35.7220   30.2980   49.6240 C   0  0  0  0  0  0  0  0  0  0  0  0
   36.2920   29.9410   50.7910 N   0  0  0  0  0  0  0  0  0  0  0  0
   37.9640   30.0180   52.0360 H   0  0  0  0  0  0  0  0  0  0  0  0
   39.2800   31.4270   50.4160 H   0  0  0  0  0  0  0  0  0  0  0  0
   38.2510   32.0770   48.3020 H   0  0  0  0  0  0  0  0  0  0  0  0
   34.4580   29.9840   49.1750 O   0  0  0  0  0  0  0  0  0  0  0  0
   33.9230   28.7180   49.5130 C   0  0  0  0  0  2  0  0  0  0  0  0
   34.2440   27.7010   48.4530 C   0  0  0  0  0  2  0  0  0  0  0  0
   35.2790   27.3410   48.5300 H   0  0  0  0  0  0  0  0  0  0  0  0
  1  7  1  0  0  0  0
  2  8  1  0  0  0  0
  2  1  2  0  0  0  0
  3  2  1  0  0  0  0
  4  3  2  0  0  0  0
  4  5  1  0  0  0  0
  5  6  2  0  0  0  0
  6  1  1  0  0  0  0
  9  3  1  0  0  0  0
 10 11  1  0  0  0  0
 10  5  1  0  0  0  0
 12 13  1  0  0  0  0
 12 11  1  0  0  0  0
M  END
>  <minimizedAffinity>
-3.29863405

>  <minimizedRMSD>
1.61893523

$$$$
