
 OpenBabel03272504563D

 27 28  0  0  1  0  0  0  0  0999 V2000
   37.1880   31.8320   48.8720 C   0  0  1  0  0  0  0  0  0  0  0  0
   36.2960   30.9350   48.1800 C   0  0  0  0  0  0  0  0  0  0  0  0
   37.3300   30.3940   49.1120 C   0  0  2  0  0  0  0  0  0  0  0  0
   36.8640   32.4250   49.7970 H   0  0  0  0  0  0  0  0  0  0  0  0
   35.2910   31.2700   48.3550 H   0  0  0  0  0  0  0  0  0  0  0  0
   36.4880   30.7770   47.0970 H   0  0  0  0  0  0  0  0  0  0  0  0
   37.9510   29.6770   48.6060 H   0  0  0  0  0  0  0  0  0  0  0  0
   38.3150   32.5160   48.1510 C   0  0  0  0  0  0  0  0  0  0  0  0
   38.9470   33.5670   48.8500 C   0  0  0  0  0  0  0  0  0  0  0  0
   39.9790   34.1690   48.1720 C   0  0  0  0  0  0  0  0  0  0  0  0
   40.3270   33.7520   46.9340 N   0  0  0  0  0  0  0  0  0  0  0  0
   39.6930   32.7320   46.2920 C   0  0  0  0  0  0  0  0  0  0  0  0
   38.6540   32.1020   46.9340 N   0  0  0  0  0  0  0  0  0  0  0  0
   40.0470   32.2670   45.0210 N   0  0  0  0  0  0  0  0  0  0  0  0
   38.6780   33.9050   49.8300 H   0  0  0  0  0  0  0  0  0  0  0  0
   40.5510   34.9840   48.5780 H   0  0  0  0  0  0  0  0  0  0  0  0
   40.1820   31.2310   44.8830 H   0  0  0  0  0  0  0  0  0  0  0  0
   40.1750   32.9520   44.2210 H   0  0  0  0  0  0  0  0  0  0  0  0
   36.8520   29.9430   50.3470 O   0  0  0  0  0  0  0  0  0  0  0  0
   34.7970   28.9130   51.5280 O   0  0  0  0  0  0  0  0  0  0  0  0
   35.2800   29.4100   50.2060 P   0  0  1  0  0  0  0  0  0  0  0  0
   34.2500   30.7450   49.8200 O   0  0  0  0  0  0  0  0  0  0  0  0
   34.4080   31.3940   50.5520 H   0  0  0  0  0  0  0  0  0  0  0  0
   35.2050   28.2530   48.9850 O   0  0  0  0  0  0  0  0  0  0  0  0
   33.9210   28.0780   48.4950 C   0  0  0  0  0  0  0  0  0  0  0  0
   33.9380   26.7540   47.7240 C   0  0  0  0  0  0  0  0  0  0  0  0
   32.9410   26.4980   47.3170 H   0  0  0  0  0  0  0  0  0  0  0  0
  1  3  1  0  0  0  0
  1  4  1  1  0  0  0
  2  5  1  0  0  0  0
  2  1  1  0  0  0  0
  2  3  1  0  0  0  0
  3  7  1  6  0  0  0
  3 19  1  0  0  0  0
  6  2  1  0  0  0  0
  8  9  1  0  0  0  0
  8  1  1  0  0  0  0
  9 15  1  0  0  0  0
 10 16  1  0  0  0  0
 10  9  2  0  0  0  0
 11 10  1  0  0  0  0
 12 13  1  0  0  0  0
 12 11  2  0  0  0  0
 13  8  2  0  0  0  0
 14 12  1  0  0  0  0
 17 14  1  0  0  0  0
 18 14  1  0  0  0  0
 21 19  1  0  0  0  0
 21 20  2  1  0  0  0
 22 21  1  0  0  0  0
 22 23  1  0  0  0  0
 24 21  1  0  0  0  0
 25 24  1  0  0  0  0
 26 25  1  0  0  0  0
 27 26  1  0  0  0  0
M  END
>  <minimizedAffinity>
-4.36101198

>  <minimizedRMSD>
1.21971011

$$$$
