
 OpenBabel03262521153D

 13 13  0  0  0  0  0  0  0  0999 V2000
   38.3020   24.4290   36.5120 C   0  0  0  0  0  0  0  0  0  0  0  0
   37.9850   24.2250   37.8590 C   0  0  0  0  0  0  0  0  0  0  0  0
   38.8040   23.3640   38.5890 C   0  0  0  0  0  0  0  0  0  0  0  0
   39.8470   22.7860   37.9410 N   0  0  0  0  0  0  0  0  0  0  0  0
   40.1390   22.9950   36.6380 C   0  0  0  0  0  0  0  0  0  0  0  0
   39.3560   23.8200   35.9340 N   0  0  0  0  0  0  0  0  0  0  0  0
   37.1740   24.6650   38.3930 H   0  0  0  0  0  0  0  0  0  0  0  0
   38.6200   23.1560   39.6430 H   0  0  0  0  0  0  0  0  0  0  0  0
   40.9740   22.5220   36.1510 H   0  0  0  0  0  0  0  0  0  0  0  0
   37.4110   25.3100   35.8950 O   0  0  0  0  0  0  0  0  0  0  0  0
   37.8310   26.3200   35.0040 C   0  0  0  0  0  2  0  0  0  0  0  0
   38.6340   27.3910   35.7070 C   0  0  0  0  0  2  0  0  0  0  0  0
   38.5050   28.3530   35.1590 H   0  0  0  0  0  0  0  0  0  0  0  0
  1  2  1  0  0  0  0
  2  7  1  0  0  0  0
  2  3  2  0  0  0  0
  3  8  1  0  0  0  0
  4  3  1  0  0  0  0
  5  4  2  0  0  0  0
  6  1  2  0  0  0  0
  6  5  1  0  0  0  0
  9  5  1  0  0  0  0
 10  1  1  0  0  0  0
 11 12  1  0  0  0  0
 11 10  1  0  0  0  0
 13 12  1  0  0  0  0
M  END
>  <minimizedAffinity>
-3.16915083

$$$$

 OpenBabel03262521153D

 13 13  0  0  0  0  0  0  0  0999 V2000
   39.7530   22.8490   37.6110 C   0  0  0  0  0  0  0  0  0  0  0  0
   39.7130   23.3430   36.3030 C   0  0  0  0  0  0  0  0  0  0  0  0
   38.7500   24.3080   36.0090 C   0  0  0  0  0  0  0  0  0  0  0  0
   37.9200   24.6960   37.0110 N   0  0  0  0  0  0  0  0  0  0  0  0
   37.9730   24.2070   38.2700 C   0  0  0  0  0  0  0  0  0  0  0  0
   38.8960   23.2820   38.5560 N   0  0  0  0  0  0  0  0  0  0  0  0
   40.3500   23.0580   35.4980 H   0  0  0  0  0  0  0  0  0  0  0  0
   38.6580   24.7400   35.0120 H   0  0  0  0  0  0  0  0  0  0  0  0
   37.3020   24.5350   39.0440 H   0  0  0  0  0  0  0  0  0  0  0  0
   40.7590   21.8940   37.7760 O   0  0  0  0  0  0  0  0  0  0  0  0
   41.7630   21.6690   36.8110 C   0  0  0  0  0  2  0  0  0  0  0  0
   42.6460   20.4990   37.1810 C   0  0  0  0  0  2  0  0  0  0  0  0
   43.6560   20.6590   36.7380 H   0  0  0  0  0  0  0  0  0  0  0  0
  1 10  1  0  0  0  0
  1  6  1  0  0  0  0
  2  1  2  0  0  0  0
  3  2  1  0  0  0  0
  3  4  2  0  0  0  0
  4  5  1  0  0  0  0
  5  6  2  0  0  0  0
  5  9  1  0  0  0  0
  7  2  1  0  0  0  0
  8  3  1  0  0  0  0
 11 12  1  0  0  0  0
 11 10  1  0  0  0  0
 13 12  1  0  0  0  0
M  END
>  <minimizedAffinity>
-3.09963036

$$$$

 OpenBabel03262521153D

 13 13  0  0  0  0  0  0  0  0999 V2000
   38.1980   24.4600   36.5770 C   0  0  0  0  0  0  0  0  0  0  0  0
   39.2620   23.8470   35.9070 C   0  0  0  0  0  0  0  0  0  0  0  0
   40.0770   22.9870   36.6440 C   0  0  0  0  0  0  0  0  0  0  0  0
   39.7800   22.8070   37.9560 N   0  0  0  0  0  0  0  0  0  0  0  0
   38.7470   23.4080   38.5880 C   0  0  0  0  0  0  0  0  0  0  0  0
   37.9630   24.2330   37.8850 N   0  0  0  0  0  0  0  0  0  0  0  0
   39.5180   23.9690   34.8800 H   0  0  0  0  0  0  0  0  0  0  0  0
   40.9250   22.4730   36.1900 H   0  0  0  0  0  0  0  0  0  0  0  0
   38.5350   23.2460   39.6300 H   0  0  0  0  0  0  0  0  0  0  0  0
   37.4600   25.2910   35.7330 O   0  0  0  0  0  0  0  0  0  0  0  0
   38.0580   26.2820   34.9250 C   0  0  0  0  0  2  0  0  0  0  0  0
   38.5180   27.4690   35.7400 C   0  0  0  0  0  2  0  0  0  0  0  0
   38.4930   28.3780   35.0960 H   0  0  0  0  0  0  0  0  0  0  0  0
  1  6  1  0  0  0  0
  2  1  2  0  0  0  0
  2  3  1  0  0  0  0
  3  4  2  0  0  0  0
  4  5  1  0  0  0  0
  5  9  1  0  0  0  0
  6  5  2  0  0  0  0
  7  2  1  0  0  0  0
  8  3  1  0  0  0  0
 10  1  1  0  0  0  0
 11 10  1  0  0  0  0
 11 12  1  0  0  0  0
 13 12  1  0  0  0  0
M  END
>  <minimizedAffinity>
-3.04129481

$$$$

 OpenBabel03262521153D

 13 13  0  0  0  0  0  0  0  0999 V2000
   38.6450   24.8620   35.8740 C   0  0  0  0  0  0  0  0  0  0  0  0
   39.8400   24.6810   35.1690 C   0  0  0  0  0  0  0  0  0  0  0  0
   40.5140   25.8260   34.7420 C   0  0  0  0  0  0  0  0  0  0  0  0
   39.9630   27.0300   35.0390 N   0  0  0  0  0  0  0  0  0  0  0  0
   38.8060   27.1860   35.7220 C   0  0  0  0  0  0  0  0  0  0  0  0
   38.1570   26.0910   36.1340 N   0  0  0  0  0  0  0  0  0  0  0  0
   40.2950   23.7500   34.9220 H   0  0  0  0  0  0  0  0  0  0  0  0
   41.4510   25.7650   34.1880 H   0  0  0  0  0  0  0  0  0  0  0  0
   38.3940   28.1540   35.9440 H   0  0  0  0  0  0  0  0  0  0  0  0
   38.0710   23.6450   36.2460 O   0  0  0  0  0  0  0  0  0  0  0  0
   37.5900   23.3950   37.5490 C   0  0  0  0  0  2  0  0  0  0  0  0
   38.7040   23.4140   38.5710 C   0  0  0  0  0  2  0  0  0  0  0  0
   38.4240   22.7470   39.4190 H   0  0  0  0  0  0  0  0  0  0  0  0
  1  6  1  0  0  0  0
  1 10  1  0  0  0  0
  2  1  2  0  0  0  0
  3  4  2  0  0  0  0
  3  2  1  0  0  0  0
  4  5  1  0  0  0  0
  5  9  1  0  0  0  0
  5  6  2  0  0  0  0
  7  2  1  0  0  0  0
  8  3  1  0  0  0  0
 10 11  1  0  0  0  0
 11 12  1  0  0  0  0
 12 13  1  0  0  0  0
M  END
>  <minimizedAffinity>
-2.92100239

$$$$

 OpenBabel03262521153D

 13 13  0  0  0  0  0  0  0  0999 V2000
   38.8560   24.8070   35.7570 C   0  0  0  0  0  0  0  0  0  0  0  0
   38.2760   26.0590   35.9850 C   0  0  0  0  0  0  0  0  0  0  0  0
   38.9630   27.1800   35.5200 C   0  0  0  0  0  0  0  0  0  0  0  0
   40.1430   26.9770   34.8820 N   0  0  0  0  0  0  0  0  0  0  0  0
   40.6900   25.7590   34.6700 C   0  0  0  0  0  0  0  0  0  0  0  0
   40.0340   24.6810   35.1140 N   0  0  0  0  0  0  0  0  0  0  0  0
   37.3520   26.2480   36.4810 H   0  0  0  0  0  0  0  0  0  0  0  0
   38.5730   28.1890   35.6610 H   0  0  0  0  0  0  0  0  0  0  0  0
   41.6280   25.6290   34.1600 H   0  0  0  0  0  0  0  0  0  0  0  0
   38.0730   23.7690   36.2660 O   0  0  0  0  0  0  0  0  0  0  0  0
   37.6270   23.7370   37.6050 C   0  0  0  0  0  2  0  0  0  0  0  0
   38.7310   23.3340   38.5550 C   0  0  0  0  0  2  0  0  0  0  0  0
   38.2760   22.8350   39.4420 H   0  0  0  0  0  0  0  0  0  0  0  0
  1  2  1  0  0  0  0
  1 10  1  0  0  0  0
  2  7  1  0  0  0  0
  3  8  1  0  0  0  0
  3  2  2  0  0  0  0
  4  3  1  0  0  0  0
  5  4  2  0  0  0  0
  5  6  1  0  0  0  0
  6  1  2  0  0  0  0
  9  5  1  0  0  0  0
 10 11  1  0  0  0  0
 11 12  1  0  0  0  0
 12 13  1  0  0  0  0
M  END
>  <minimizedAffinity>
-2.90216327

$$$$

 OpenBabel03262521153D

 13 13  0  0  0  0  0  0  0  0999 V2000
   38.3290   25.3310   35.5200 C   0  0  0  0  0  0  0  0  0  0  0  0
   38.3550   26.5880   36.1320 C   0  0  0  0  0  0  0  0  0  0  0  0
   37.8220   27.6620   35.4180 C   0  0  0  0  0  0  0  0  0  0  0  0
   37.3180   27.4100   34.1830 N   0  0  0  0  0  0  0  0  0  0  0  0
   37.3020   26.1870   33.6070 C   0  0  0  0  0  0  0  0  0  0  0  0
   37.8120   25.1550   34.2880 N   0  0  0  0  0  0  0  0  0  0  0  0
   38.7420   26.8160   37.0980 H   0  0  0  0  0  0  0  0  0  0  0  0
   37.8060   28.6710   35.8290 H   0  0  0  0  0  0  0  0  0  0  0  0
   36.8950   26.0170   32.6250 H   0  0  0  0  0  0  0  0  0  0  0  0
   38.8890   24.3440   36.3350 O   0  0  0  0  0  0  0  0  0  0  0  0
   38.1090   23.5000   37.1550 C   0  0  0  0  0  2  0  0  0  0  0  0
   38.6240   23.4660   38.5750 C   0  0  0  0  0  2  0  0  0  0  0  0
   38.3620   22.4810   39.0280 H   0  0  0  0  0  0  0  0  0  0  0  0
  1  2  1  0  0  0  0
  1 10  1  0  0  0  0
  2  7  1  0  0  0  0
  3  8  1  0  0  0  0
  3  2  2  0  0  0  0
  4  3  1  0  0  0  0
  5  4  2  0  0  0  0
  5  6  1  0  0  0  0
  6  1  2  0  0  0  0
  9  5  1  0  0  0  0
 10 11  1  0  0  0  0
 11 12  1  0  0  0  0
 12 13  1  0  0  0  0
M  END
>  <minimizedAffinity>
-2.84893227

$$$$

 OpenBabel03262521153D

 13 13  0  0  0  0  0  0  0  0999 V2000
   36.1500   22.0690   31.6670 C   0  0  0  0  0  0  0  0  0  0  0  0
   35.0550   21.4810   32.3070 C   0  0  0  0  0  0  0  0  0  0  0  0
   34.8230   20.1260   32.0700 C   0  0  0  0  0  0  0  0  0  0  0  0
   35.6740   19.4770   31.2360 N   0  0  0  0  0  0  0  0  0  0  0  0
   36.7290   20.0620   30.6250 C   0  0  0  0  0  0  0  0  0  0  0  0
   36.9550   21.3610   30.8500 N   0  0  0  0  0  0  0  0  0  0  0  0
   34.3710   21.9640   32.9670 H   0  0  0  0  0  0  0  0  0  0  0  0
   33.9890   19.5980   32.5340 H   0  0  0  0  0  0  0  0  0  0  0  0
   37.3870   19.5210   29.9680 H   0  0  0  0  0  0  0  0  0  0  0  0
   36.2750   23.4230   31.9860 O   0  0  0  0  0  0  0  0  0  0  0  0
   36.2730   24.4400   31.0080 C   0  0  0  0  0  2  0  0  0  0  0  0
   34.9250   25.1140   30.9020 C   0  0  0  0  0  2  0  0  0  0  0  0
   34.7970   25.4980   29.8630 H   0  0  0  0  0  0  0  0  0  0  0  0
  1 10  1  0  0  0  0
  1  2  1  0  0  0  0
  2  7  1  0  0  0  0
  3  2  2  0  0  0  0
  3  8  1  0  0  0  0
  4  3  1  0  0  0  0
  5  6  1  0  0  0  0
  5  4  2  0  0  0  0
  6  1  2  0  0  0  0
  9  5  1  0  0  0  0
 11 10  1  0  0  0  0
 12 11  1  0  0  0  0
 13 12  1  0  0  0  0
M  END
>  <minimizedAffinity>
-2.75864363

$$$$

 OpenBabel03262521153D

 13 13  0  0  0  0  0  0  0  0999 V2000
   37.0620   26.7440   34.0580 C   0  0  0  0  0  0  0  0  0  0  0  0
   36.5590   28.0430   33.9330 C   0  0  0  0  0  0  0  0  0  0  0  0
   35.9580   28.3860   32.7210 C   0  0  0  0  0  0  0  0  0  0  0  0
   35.9060   27.4380   31.7520 N   0  0  0  0  0  0  0  0  0  0  0  0
   36.3990   26.1860   31.8900 C   0  0  0  0  0  0  0  0  0  0  0  0
   36.9750   25.8530   33.0500 N   0  0  0  0  0  0  0  0  0  0  0  0
   36.5850   28.8070   34.6750 H   0  0  0  0  0  0  0  0  0  0  0  0
   35.5420   29.3800   32.5500 H   0  0  0  0  0  0  0  0  0  0  0  0
   36.3420   25.4550   31.1030 H   0  0  0  0  0  0  0  0  0  0  0  0
   37.6340   26.5260   35.3120 O   0  0  0  0  0  0  0  0  0  0  0  0
   38.7890   27.2060   35.7530 C   0  0  0  0  0  2  0  0  0  0  0  0
   40.0100   26.8170   34.9510 C   0  0  0  0  0  2  0  0  0  0  0  0
   40.9140   26.9350   35.5940 H   0  0  0  0  0  0  0  0  0  0  0  0
  1 10  1  0  0  0  0
  2  1  1  0  0  0  0
  2  7  1  0  0  0  0
  3  2  2  0  0  0  0
  4  5  2  0  0  0  0
  4  3  1  0  0  0  0
  5  6  1  0  0  0  0
  6  1  2  0  0  0  0
  8  3  1  0  0  0  0
  9  5  1  0  0  0  0
 10 11  1  0  0  0  0
 12 13  1  0  0  0  0
 12 11  1  0  0  0  0
M  END
>  <minimizedAffinity>
-2.74105167

$$$$

 OpenBabel03262521153D

 13 13  0  0  0  0  0  0  0  0999 V2000
   35.9320   24.0970   31.4520 C   0  0  0  0  0  0  0  0  0  0  0  0
   35.2340   25.1770   30.9020 C   0  0  0  0  0  0  0  0  0  0  0  0
   35.5760   26.4550   31.3440 C   0  0  0  0  0  0  0  0  0  0  0  0
   36.5590   26.5590   32.2740 N   0  0  0  0  0  0  0  0  0  0  0  0
   37.2240   25.5030   32.7940 C   0  0  0  0  0  0  0  0  0  0  0  0
   36.8990   24.2760   32.3740 N   0  0  0  0  0  0  0  0  0  0  0  0
   34.4600   25.1260   30.1720 H   0  0  0  0  0  0  0  0  0  0  0  0
   35.0760   27.3460   30.9620 H   0  0  0  0  0  0  0  0  0  0  0  0
   38.0000   25.6170   33.5310 H   0  0  0  0  0  0  0  0  0  0  0  0
   35.4990   22.8770   30.9280 O   0  0  0  0  0  0  0  0  0  0  0  0
   35.9800   21.6340   31.3940 C   0  0  0  0  0  2  0  0  0  0  0  0
   35.0210   20.9920   32.3700 C   0  0  0  0  0  2  0  0  0  0  0  0
   35.6010   20.3460   33.0700 H   0  0  0  0  0  0  0  0  0  0  0  0
  1  6  1  0  0  0  0
  2  3  1  0  0  0  0
  2  1  2  0  0  0  0
  3  4  2  0  0  0  0
  4  5  1  0  0  0  0
  5  9  1  0  0  0  0
  6  5  2  0  0  0  0
  7  2  1  0  0  0  0
  8  3  1  0  0  0  0
 10 11  1  0  0  0  0
 10  1  1  0  0  0  0
 11 12  1  0  0  0  0
 12 13  1  0  0  0  0
M  END
>  <minimizedAffinity>
-2.73681521

$$$$
