
 OpenBabel03272510243D

 26 28  0  0  0  0  0  0  0  0999 V2000
   36.1270   30.1300   46.7950 C   0  0  0  0  0  0  0  0  0  0  0  0
   37.0050   30.7200   47.6940 C   0  0  0  0  0  0  0  0  0  0  0  0
   37.9740   31.6230   47.2670 C   0  0  0  0  0  0  0  0  0  0  0  0
   38.0080   31.8920   45.9050 C   0  0  0  0  0  0  0  0  0  0  0  0
   38.8510   32.7280   45.2450 N   0  0  0  0  0  0  0  0  0  0  0  0
   38.5120   32.6670   43.9550 C   0  0  0  0  0  0  0  0  0  0  0  0
   37.4930   31.8300   43.7610 N   0  0  0  0  0  0  0  0  0  0  0  0
   37.1550   31.3290   44.9730 C   0  0  0  0  0  0  0  0  0  0  0  0
   36.1970   30.4280   45.4340 C   0  0  0  0  0  0  0  0  0  0  0  0
   35.3690   29.4330   47.0720 H   0  0  0  0  0  0  0  0  0  0  0  0
   38.6570   32.0840   47.9620 H   0  0  0  0  0  0  0  0  0  0  0  0
   39.6230   33.3110   45.6760 H   0  0  0  0  0  0  0  0  0  0  0  0
   35.5150   29.9730   44.7250 H   0  0  0  0  0  0  0  0  0  0  0  0
   37.5550   30.2480   51.3910 C   0  0  0  0  0  0  0  0  0  0  0  0
   37.7800   30.6380   50.0850 C   0  0  0  0  0  0  0  0  0  0  0  0
   36.8690   30.3580   49.0910 C   0  0  0  0  0  0  0  0  0  0  0  0
   35.7550   29.6850   49.4700 N   0  0  0  0  0  0  0  0  0  0  0  0
   35.5360   29.3030   50.7530 C   0  0  0  0  0  0  0  0  0  0  0  0
   36.4320   29.5840   51.6990 N   0  0  0  0  0  0  0  0  0  0  0  0
   38.3350   30.5190   52.0900 H   0  0  0  0  0  0  0  0  0  0  0  0
   38.6750   31.1750   49.8040 H   0  0  0  0  0  0  0  0  0  0  0  0
   34.6150   28.7590   50.9950 H   0  0  0  0  0  0  0  0  0  0  0  0
   39.1870   33.4160   42.9750 O   0  0  0  0  0  0  0  0  0  0  0  0
   39.1060   33.0240   41.6110 C   0  0  0  0  0  2  0  0  0  0  0  0
   38.2070   34.0150   40.9000 C   0  0  0  0  0  2  0  0  0  0  0  0
   37.5250   34.5550   41.5970 H   0  0  0  0  0  0  0  0  0  0  0  0
  1 10  1  0  0  0  0
  1  2  1  0  0  0  0
  2 16  1  0  0  0  0
  3  2  2  0  0  0  0
  3 11  1  0  0  0  0
  4  3  1  0  0  0  0
  5 12  1  0  0  0  0
  5  4  1  0  0  0  0
  6  5  1  0  0  0  0
  7  6  2  0  0  0  0
  7  8  1  0  0  0  0
  8  9  1  0  0  0  0
  8  4  2  0  0  0  0
  9  1  2  0  0  0  0
 13  9  1  0  0  0  0
 14 19  1  0  0  0  0
 14 20  1  0  0  0  0
 15 14  2  0  0  0  0
 16 17  2  0  0  0  0
 16 15  1  0  0  0  0
 17 18  1  0  0  0  0
 18 22  1  0  0  0  0
 18 19  2  0  0  0  0
 21 15  1  0  0  0  0
 23  6  1  0  0  0  0
 24 23  1  0  0  0  0
 25 26  1  0  0  0  0
 25 24  1  0  0  0  0
M  END
>  <minimizedAffinity>
-5.05443048

>  <minimizedRMSD>
1.1995374

$$$$
