
 OpenBabel03272508213D

 36 38  0  0  0  0  0  0  0  0999 V2000
   34.4300   28.7310   47.6510 C   0  0  0  0  0  0  0  0  0  0  0  0
   34.2880   28.4550   48.7160 H   0  0  0  0  0  0  0  0  0  0  0  0
   34.7210   27.7450   47.1710 H   0  0  0  0  0  0  0  0  0  0  0  0
   32.0090   28.5050   47.3100 C   0  0  0  0  0  0  0  0  0  0  0  0
   33.1960   29.1370   47.0630 C   0  0  0  0  0  0  0  0  0  0  0  0
   33.0840   30.1380   46.1540 C   0  0  0  0  0  0  0  0  0  0  0  0
   31.9430   30.4810   45.5530 N   0  0  0  0  0  0  0  0  0  0  0  0
   30.8030   29.8650   45.7930 C   0  0  0  0  0  0  0  0  0  0  0  0
   30.8170   28.8670   46.6770 N   0  0  0  0  0  0  0  0  0  0  0  0
   33.9510   30.7460   45.8470 H   0  0  0  0  0  0  0  0  0  0  0  0
   29.8120   30.0220   45.3940 H   0  0  0  0  0  0  0  0  0  0  0  0
   31.8920   27.4650   48.4210 C   0  0  0  0  0  0  0  0  0  0  0  0
   30.7820   26.6540   48.5920 C   0  0  0  0  0  0  0  0  0  0  0  0
   31.8440   26.0530   47.6920 C   0  0  0  0  0  0  0  0  0  0  0  0
   32.6420   27.4380   49.1700 H   0  0  0  0  0  0  0  0  0  0  0  0
   30.5540   26.0710   49.4780 H   0  0  0  0  0  0  0  0  0  0  0  0
   29.8340   26.8920   48.0190 H   0  0  0  0  0  0  0  0  0  0  0  0
   32.5230   25.2970   48.0890 H   0  0  0  0  0  0  0  0  0  0  0  0
   31.6930   26.0220   46.6270 H   0  0  0  0  0  0  0  0  0  0  0  0
   35.5930   29.6330   47.5020 C   0  0  0  0  0  0  0  0  0  0  0  0
   35.1940   30.6090   47.0900 H   0  0  0  0  0  0  0  0  0  0  0  0
   36.2910   29.2910   46.7040 H   0  0  0  0  0  0  0  0  0  0  0  0
   37.0980   31.9650   47.5290 F   0  0  0  0  0  0  0  0  0  0  0  0
   37.0680   31.1270   48.5990 C   0  0  0  0  0  0  0  0  0  0  0  0
   36.3440   29.9260   48.6750 C   0  0  0  0  0  0  0  0  0  0  0  0
   36.4720   29.2270   49.8260 C   0  0  0  0  0  0  0  0  0  0  0  0
   37.2340   29.6190   50.8790 C   0  0  0  0  0  0  0  0  0  0  0  0
   37.9560   30.8340   50.7840 C   0  0  0  0  0  0  0  0  0  0  0  0
   37.8670   31.6020   49.6030 C   0  0  0  0  0  0  0  0  0  0  0  0
   36.0660   28.2810   50.0070 H   0  0  0  0  0  0  0  0  0  0  0  0
   37.3570   29.0790   51.8300 H   0  0  0  0  0  0  0  0  0  0  0  0
   38.5720   31.1410   51.6490 H   0  0  0  0  0  0  0  0  0  0  0  0
   38.6150   32.7100   49.6470 O   0  0  0  0  0  0  0  0  0  0  0  0
   39.3180   33.7230   49.6940 C   0  0  0  0  0  0  0  0  0  0  0  0
   39.8290   34.3440   48.3670 C   0  0  0  0  0  0  0  0  0  0  0  0
   40.3510   35.2810   48.6700 H   0  0  0  0  0  0  0  0  0  0  0  0
  1  2  1  0  0  0  0
  3  1  1  0  0  0  0
  4 12  1  0  0  0  0
  5  4  1  0  0  0  0
  5  1  1  0  0  0  0
  6  5  2  0  0  0  0
  7  8  2  0  0  0  0
  7  6  1  0  0  0  0
  8  9  1  0  0  0  0
  9  4  2  0  0  0  0
 10  6  1  0  0  0  0
 11  8  1  0  0  0  0
 12 13  1  0  0  0  0
 12 15  1  0  0  0  0
 13 16  1  0  0  0  0
 14 18  1  0  0  0  0
 14 12  1  0  0  0  0
 14 13  1  0  0  0  0
 17 13  1  0  0  0  0
 19 14  1  0  0  0  0
 20  1  1  0  0  0  0
 20 25  1  0  0  0  0
 21 20  1  0  0  0  0
 22 20  1  0  0  0  0
 23 24  1  0  0  0  0
 24 25  2  0  0  0  0
 24 29  1  0  0  0  0
 25 26  1  0  0  0  0
 26 30  1  0  0  0  0
 26 27  2  0  0  0  0
 27 31  1  0  0  0  0
 28 27  1  0  0  0  0
 28 32  1  0  0  0  0
 29 33  1  0  0  0  0
 29 28  2  0  0  0  0
 33 34  1  0  0  0  0
 35 36  1  0  0  0  0
 35 34  1  0  0  0  0
M  END
>  <minimizedAffinity>
-5.28691769

>  <minimizedRMSD>
3.24473858

$$$$
