
 OpenBabel03272505433D

 18 18  0  0  0  0  0  0  0  0999 V2000
   37.3540   30.3620   51.3980 C   0  0  0  0  0  0  0  0  0  0  0  0
   38.0770   30.8670   50.2930 C   0  0  0  0  0  0  0  0  0  0  0  0
   37.7430   30.4040   49.0160 C   0  0  0  0  0  0  0  0  0  0  0  0
   36.7380   29.4930   48.9010 N   0  0  0  0  0  0  0  0  0  0  0  0
   36.0620   29.0270   49.9680 C   0  0  0  0  0  0  0  0  0  0  0  0
   36.3740   29.4650   51.2190 N   0  0  0  0  0  0  0  0  0  0  0  0
   37.5430   30.6650   52.4270 H   0  0  0  0  0  0  0  0  0  0  0  0
   38.8440   31.5760   50.4830 H   0  0  0  0  0  0  0  0  0  0  0  0
   38.2860   30.7790   48.1580 H   0  0  0  0  0  0  0  0  0  0  0  0
   35.0750   28.1020   49.6410 O   0  0  0  0  0  0  0  0  0  0  0  0
   32.5240   28.0780   49.0510 O   0  0  0  0  0  0  0  0  0  0  0  0
   33.8950   28.3640   48.4650 P   0  0  2  0  0  0  0  0  0  0  0  0
   34.0530   27.3190   47.1500 O   0  0  0  0  0  0  0  0  0  0  0  0
   34.2120   26.4130   47.5330 H   0  0  0  0  0  0  0  0  0  0  0  0
   33.8390   29.9410   47.8780 O   0  0  0  0  0  0  0  0  0  0  0  0
   33.9090   30.0070   46.5020 C   0  0  0  0  0  0  0  0  0  0  0  0
   32.6320   30.6120   45.9820 C   0  0  0  0  0  0  0  0  0  0  0  0
   31.9560   30.9050   46.8220 H   0  0  0  0  0  0  0  0  0  0  0  0
  1  7  1  0  0  0  0
  2  8  1  0  0  0  0
  2  1  2  0  0  0  0
  3  2  1  0  0  0  0
  4  3  2  0  0  0  0
  4  5  1  0  0  0  0
  5  6  2  0  0  0  0
  6  1  1  0  0  0  0
  9  3  1  0  0  0  0
 10  5  1  0  0  0  0
 12 11  2  1  0  0  0
 12 10  1  0  0  0  0
 13 14  1  0  0  0  0
 13 12  1  0  0  0  0
 15 12  1  0  0  0  0
 16 15  1  0  0  0  0
 17 16  1  0  0  0  0
 17 18  1  0  0  0  0
M  END
>  <minimizedAffinity>
-3.79514456

>  <minimizedRMSD>
0.274234295

$$$$
