
 OpenBabel03272505033D

 23 24  0  0  0  0  0  0  0  0999 V2000
   38.1360   23.7510   33.2170 Cl  0  0  0  0  0  0  0  0  0  0  0  0
   37.8810   25.3190   33.9500 C   0  0  0  0  0  0  0  0  0  0  0  0
   38.2930   25.5220   35.2310 C   0  0  0  0  0  0  0  0  0  0  0  0
   38.0650   26.7790   35.7570 C   0  0  0  0  0  0  0  0  0  0  0  0
   37.4460   27.7480   34.9730 C   0  0  0  0  0  0  0  0  0  0  0  0
   37.0510   27.4980   33.6980 C   0  0  0  0  0  0  0  0  0  0  0  0
   37.2720   26.2500   33.1620 C   0  0  0  0  0  0  0  0  0  0  0  0
   38.3790   26.9770   36.7730 H   0  0  0  0  0  0  0  0  0  0  0  0
   37.2990   28.7170   35.4540 H   0  0  0  0  0  0  0  0  0  0  0  0
   36.5850   28.3270   33.1960 H   0  0  0  0  0  0  0  0  0  0  0  0
   40.2170   23.9950   35.7230 C   0  0  0  0  0  0  0  0  0  0  0  0
   38.9490   24.4930   36.0560 C   0  0  0  0  0  0  0  0  0  0  0  0
   38.3330   23.9860   37.1910 C   0  0  0  0  0  0  0  0  0  0  0  0
   38.9970   23.0410   37.9040 N   0  0  0  0  0  0  0  0  0  0  0  0
   40.1990   22.5850   37.5670 C   0  0  0  0  0  0  0  0  0  0  0  0
   40.8130   23.0580   36.4780 N   0  0  0  0  0  0  0  0  0  0  0  0
   40.6650   24.4200   34.8270 H   0  0  0  0  0  0  0  0  0  0  0  0
   37.3420   24.3400   37.4970 H   0  0  0  0  0  0  0  0  0  0  0  0
   40.7480   21.8290   38.1230 H   0  0  0  0  0  0  0  0  0  0  0  0
   36.8660   26.0100   31.8620 O   0  0  0  0  0  0  0  0  0  0  0  0
   35.6270   26.3650   31.3300 C   0  0  0  0  0  2  0  0  0  0  0  0
   34.7880   25.2080   30.8570 C   0  0  0  0  0  2  0  0  0  0  0  0
   34.6400   25.2500   29.7430 H   0  0  0  0  0  0  0  0  0  0  0  0
  1  2  1  0  0  0  0
  2  3  1  0  0  0  0
  3  4  2  0  0  0  0
  3 12  1  0  0  0  0
  4  8  1  0  0  0  0
  5  9  1  0  0  0  0
  5  4  1  0  0  0  0
  6  5  2  0  0  0  0
  7  6  1  0  0  0  0
  7  2  2  0  0  0  0
 10  6  1  0  0  0  0
 11 12  2  0  0  0  0
 11 16  1  0  0  0  0
 12 13  1  0  0  0  0
 13 18  1  0  0  0  0
 13 14  2  0  0  0  0
 15 14  1  0  0  0  0
 15 19  1  0  0  0  0
 16 15  2  0  0  0  0
 17 11  1  0  0  0  0
 20  7  1  0  0  0  0
 21 20  1  0  0  0  0
 22 21  1  0  0  0  0
 23 22  1  0  0  0  0
M  END
>  <minimizedAffinity>
-4.60551691

$$$$

 OpenBabel03272505033D

 23 24  0  0  0  0  0  0  0  0999 V2000
   38.1400   23.8170   33.1580 Cl  0  0  0  0  0  0  0  0  0  0  0  0
   37.8740   25.3740   33.9100 C   0  0  0  0  0  0  0  0  0  0  0  0
   38.2820   25.5630   35.1940 C   0  0  0  0  0  0  0  0  0  0  0  0
   38.0440   26.8120   35.7360 C   0  0  0  0  0  0  0  0  0  0  0  0
   37.4190   27.7860   34.9640 C   0  0  0  0  0  0  0  0  0  0  0  0
   37.0290   27.5490   33.6850 C   0  0  0  0  0  0  0  0  0  0  0  0
   37.2590   26.3100   33.1330 C   0  0  0  0  0  0  0  0  0  0  0  0
   38.3550   26.9990   36.7560 H   0  0  0  0  0  0  0  0  0  0  0  0
   37.2640   28.7480   35.4570 H   0  0  0  0  0  0  0  0  0  0  0  0
   36.5570   28.3820   33.1920 H   0  0  0  0  0  0  0  0  0  0  0  0
   38.3300   24.0060   37.1560 C   0  0  0  0  0  0  0  0  0  0  0  0
   38.9430   24.5290   36.0080 C   0  0  0  0  0  0  0  0  0  0  0  0
   40.1940   24.0380   35.6620 C   0  0  0  0  0  0  0  0  0  0  0  0
   40.7420   23.0850   36.4590 N   0  0  0  0  0  0  0  0  0  0  0  0
   40.1410   22.6060   37.5420 C   0  0  0  0  0  0  0  0  0  0  0  0
   38.9350   23.0630   37.8960 N   0  0  0  0  0  0  0  0  0  0  0  0
   37.3500   24.4180   37.3910 H   0  0  0  0  0  0  0  0  0  0  0  0
   40.7180   24.4100   34.7750 H   0  0  0  0  0  0  0  0  0  0  0  0
   40.5630   21.8430   38.1930 H   0  0  0  0  0  0  0  0  0  0  0  0
   36.8570   26.0840   31.8290 O   0  0  0  0  0  0  0  0  0  0  0  0
   35.5930   26.3750   31.3180 C   0  0  0  0  0  2  0  0  0  0  0  0
   34.8040   25.1750   30.8660 C   0  0  0  0  0  2  0  0  0  0  0  0
   34.6340   25.2030   29.7550 H   0  0  0  0  0  0  0  0  0  0  0  0
  1  2  1  0  0  0  0
  2  3  1  0  0  0  0
  3  4  2  0  0  0  0
  3 12  1  0  0  0  0
  4  8  1  0  0  0  0
  5  9  1  0  0  0  0
  5  4  1  0  0  0  0
  6  5  2  0  0  0  0
  7  6  1  0  0  0  0
  7  2  2  0  0  0  0
 10  6  1  0  0  0  0
 11 17  1  0  0  0  0
 11 16  1  0  0  0  0
 12 11  2  0  0  0  0
 13 12  1  0  0  0  0
 13 14  2  0  0  0  0
 14 15  1  0  0  0  0
 15 16  2  0  0  0  0
 15 19  1  0  0  0  0
 18 13  1  0  0  0  0
 20  7  1  0  0  0  0
 21 20  1  0  0  0  0
 22 21  1  0  0  0  0
 23 22  1  0  0  0  0
M  END
>  <minimizedAffinity>
-4.58203554

$$$$

 OpenBabel03272505033D

 23 24  0  0  0  0  0  0  0  0999 V2000
   38.0010   23.2580   33.6510 Cl  0  0  0  0  0  0  0  0  0  0  0  0
   36.9700   24.2130   32.6090 C   0  0  0  0  0  0  0  0  0  0  0  0
   36.1330   23.5740   31.7480 C   0  0  0  0  0  0  0  0  0  0  0  0
   35.3430   24.3800   30.9490 C   0  0  0  0  0  0  0  0  0  0  0  0
   35.4390   25.7630   31.0640 C   0  0  0  0  0  0  0  0  0  0  0  0
   36.2920   26.3550   31.9400 C   0  0  0  0  0  0  0  0  0  0  0  0
   37.0850   25.5650   32.7400 C   0  0  0  0  0  0  0  0  0  0  0  0
   34.6640   23.9080   30.2520 H   0  0  0  0  0  0  0  0  0  0  0  0
   34.7850   26.3350   30.4030 H   0  0  0  0  0  0  0  0  0  0  0  0
   36.2740   27.4310   31.9350 H   0  0  0  0  0  0  0  0  0  0  0  0
   35.0350   21.3930   32.3070 C   0  0  0  0  0  0  0  0  0  0  0  0
   36.0340   22.1100   31.6310 C   0  0  0  0  0  0  0  0  0  0  0  0
   36.9240   21.3930   30.8450 C   0  0  0  0  0  0  0  0  0  0  0  0
   36.7720   20.0450   30.7840 N   0  0  0  0  0  0  0  0  0  0  0  0
   35.8170   19.3900   31.4350 C   0  0  0  0  0  0  0  0  0  0  0  0
   34.9470   20.0580   32.1980 N   0  0  0  0  0  0  0  0  0  0  0  0
   34.3570   21.9930   32.9110 H   0  0  0  0  0  0  0  0  0  0  0  0
   37.7230   21.9020   30.2950 H   0  0  0  0  0  0  0  0  0  0  0  0
   35.6780   18.3110   31.3990 H   0  0  0  0  0  0  0  0  0  0  0  0
   37.9470   26.1820   33.6280 O   0  0  0  0  0  0  0  0  0  0  0  0
   37.5660   26.7970   34.8190 C   0  0  0  0  0  2  0  0  0  0  0  0
   38.7080   27.2430   35.6930 C   0  0  0  0  0  2  0  0  0  0  0  0
   38.7210   26.6670   36.6590 H   0  0  0  0  0  0  0  0  0  0  0  0
  2  7  1  0  0  0  0
  2  1  1  0  0  0  0
  3  2  2  0  0  0  0
  4  5  2  0  0  0  0
  4  3  1  0  0  0  0
  5  6  1  0  0  0  0
  6  7  2  0  0  0  0
  7 20  1  0  0  0  0
  8  4  1  0  0  0  0
  9  5  1  0  0  0  0
 10  6  1  0  0  0  0
 11 17  1  0  0  0  0
 12  3  1  0  0  0  0
 12 11  2  0  0  0  0
 13 12  1  0  0  0  0
 14 13  2  0  0  0  0
 14 15  1  0  0  0  0
 15 16  2  0  0  0  0
 16 11  1  0  0  0  0
 18 13  1  0  0  0  0
 19 15  1  0  0  0  0
 20 21  1  0  0  0  0
 21 22  1  0  0  0  0
 22 23  1  0  0  0  0
M  END
>  <minimizedAffinity>
-4.2887063

$$$$

 OpenBabel03272505033D

 23 24  0  0  0  0  0  0  0  0999 V2000
   35.0640   29.9400   34.6450 Cl  0  0  0  0  0  0  0  0  0  0  0  0
   34.3590   31.0860   35.7640 C   0  0  0  0  0  0  0  0  0  0  0  0
   33.0720   30.9050   36.1680 C   0  0  0  0  0  0  0  0  0  0  0  0
   32.5690   31.8420   37.0510 C   0  0  0  0  0  0  0  0  0  0  0  0
   33.3800   32.8910   37.4730 C   0  0  0  0  0  0  0  0  0  0  0  0
   34.6600   33.0290   37.0410 C   0  0  0  0  0  0  0  0  0  0  0  0
   35.1730   32.1050   36.1610 C   0  0  0  0  0  0  0  0  0  0  0  0
   31.5490   31.7300   37.3940 H   0  0  0  0  0  0  0  0  0  0  0  0
   32.9160   33.5910   38.1700 H   0  0  0  0  0  0  0  0  0  0  0  0
   35.1840   33.8800   37.4390 H   0  0  0  0  0  0  0  0  0  0  0  0
   31.9580   28.6950   36.5530 C   0  0  0  0  0  0  0  0  0  0  0  0
   32.2180   29.7930   35.7190 C   0  0  0  0  0  0  0  0  0  0  0  0
   31.6410   29.7970   34.4570 C   0  0  0  0  0  0  0  0  0  0  0  0
   30.8650   28.7380   34.1120 N   0  0  0  0  0  0  0  0  0  0  0  0
   30.6340   27.7100   34.9200 C   0  0  0  0  0  0  0  0  0  0  0  0
   31.1780   27.6820   36.1410 N   0  0  0  0  0  0  0  0  0  0  0  0
   32.4280   28.7320   37.5330 H   0  0  0  0  0  0  0  0  0  0  0  0
   31.8110   30.6290   33.7650 H   0  0  0  0  0  0  0  0  0  0  0  0
   30.0160   26.8520   34.6630 H   0  0  0  0  0  0  0  0  0  0  0  0
   36.4790   32.2580   35.7310 O   0  0  0  0  0  0  0  0  0  0  0  0
   37.0210   33.4360   35.2200 C   0  0  0  0  0  2  0  0  0  0  0  0
   36.8940   33.5950   33.7280 C   0  0  0  0  0  2  0  0  0  0  0  0
   37.9060   33.5870   33.2380 H   0  0  0  0  0  0  0  0  0  0  0  0
  1  2  1  0  0  0  0
  2  7  2  0  0  0  0
  2  3  1  0  0  0  0
  3  4  2  0  0  0  0
  4  8  1  0  0  0  0
  4  5  1  0  0  0  0
  5  9  1  0  0  0  0
  6 10  1  0  0  0  0
  6  5  2  0  0  0  0
  7  6  1  0  0  0  0
 11 17  1  0  0  0  0
 12  3  1  0  0  0  0
 12 11  2  0  0  0  0
 13 12  1  0  0  0  0
 14 13  2  0  0  0  0
 14 15  1  0  0  0  0
 15 16  2  0  0  0  0
 16 11  1  0  0  0  0
 18 13  1  0  0  0  0
 19 15  1  0  0  0  0
 20  7  1  0  0  0  0
 21 20  1  0  0  0  0
 22 21  1  0  0  0  0
 23 22  1  0  0  0  0
M  END
>  <minimizedAffinity>
-4.12435436

$$$$

 OpenBabel03272505033D

 23 24  0  0  0  0  0  0  0  0999 V2000
   36.2660   32.1150   35.4670 Cl  0  0  0  0  0  0  0  0  0  0  0  0
   34.6910   31.4470   35.8360 C   0  0  0  0  0  0  0  0  0  0  0  0
   34.2120   30.4300   35.0690 C   0  0  0  0  0  0  0  0  0  0  0  0
   32.9630   29.9440   35.4070 C   0  0  0  0  0  0  0  0  0  0  0  0
   32.2780   30.5010   36.4820 C   0  0  0  0  0  0  0  0  0  0  0  0
   32.7980   31.5170   37.2170 C   0  0  0  0  0  0  0  0  0  0  0  0
   34.0410   32.0120   36.8920 C   0  0  0  0  0  0  0  0  0  0  0  0
   32.5500   29.1340   34.8190 H   0  0  0  0  0  0  0  0  0  0  0  0
   31.2990   30.0660   36.6900 H   0  0  0  0  0  0  0  0  0  0  0  0
   32.1730   31.8610   38.0230 H   0  0  0  0  0  0  0  0  0  0  0  0
   34.7130   30.2820   32.6190 C   0  0  0  0  0  0  0  0  0  0  0  0
   34.9410   29.8430   33.9330 C   0  0  0  0  0  0  0  0  0  0  0  0
   35.8790   28.8390   34.1250 C   0  0  0  0  0  0  0  0  0  0  0  0
   36.5130   28.3460   33.0300 N   0  0  0  0  0  0  0  0  0  0  0  0
   36.2780   28.7780   31.7960 C   0  0  0  0  0  0  0  0  0  0  0  0
   35.3790   29.7450   31.5850 N   0  0  0  0  0  0  0  0  0  0  0  0
   33.9700   31.0700   32.5130 H   0  0  0  0  0  0  0  0  0  0  0  0
   36.0970   28.4600   35.1290 H   0  0  0  0  0  0  0  0  0  0  0  0
   36.7740   28.3970   30.9060 H   0  0  0  0  0  0  0  0  0  0  0  0
   34.5580   33.0460   37.6510 O   0  0  0  0  0  0  0  0  0  0  0  0
   34.1980   34.3870   37.5290 C   0  0  0  0  0  2  0  0  0  0  0  0
   34.0260   35.1160   38.8350 C   0  0  0  0  0  2  0  0  0  0  0  0
   32.9560   35.4310   38.9790 H   0  0  0  0  0  0  0  0  0  0  0  0
  1  2  1  0  0  0  0
  2  7  1  0  0  0  0
  3  4  1  0  0  0  0
  3  2  2  0  0  0  0
  4  5  2  0  0  0  0
  5  9  1  0  0  0  0
  5  6  1  0  0  0  0
  6 10  1  0  0  0  0
  7  6  2  0  0  0  0
  7 20  1  0  0  0  0
  8  4  1  0  0  0  0
 11 12  1  0  0  0  0
 12 13  2  0  0  0  0
 12  3  1  0  0  0  0
 13 18  1  0  0  0  0
 14 13  1  0  0  0  0
 15 14  2  0  0  0  0
 16 15  1  0  0  0  0
 16 11  2  0  0  0  0
 17 11  1  0  0  0  0
 19 15  1  0  0  0  0
 21 20  1  0  0  0  0
 21 22  1  0  0  0  0
 22 23  1  0  0  0  0
M  END
>  <minimizedAffinity>
-4.11683893

$$$$

 OpenBabel03272505033D

 23 24  0  0  0  0  0  0  0  0999 V2000
   40.2920   23.1060   34.1980 Cl  0  0  0  0  0  0  0  0  0  0  0  0
   39.4110   23.6260   35.6190 C   0  0  0  0  0  0  0  0  0  0  0  0
   38.6490   24.7500   35.5460 C   0  0  0  0  0  0  0  0  0  0  0  0
   37.9770   25.1120   36.6990 C   0  0  0  0  0  0  0  0  0  0  0  0
   38.1090   24.3310   37.8420 C   0  0  0  0  0  0  0  0  0  0  0  0
   38.8840   23.2160   37.8670 C   0  0  0  0  0  0  0  0  0  0  0  0
   39.5590   22.8440   36.7260 C   0  0  0  0  0  0  0  0  0  0  0  0
   37.3600   26.0010   36.6780 H   0  0  0  0  0  0  0  0  0  0  0  0
   37.5500   24.6770   38.7140 H   0  0  0  0  0  0  0  0  0  0  0  0
   38.9050   22.6970   38.8090 H   0  0  0  0  0  0  0  0  0  0  0  0
   37.4250   25.4060   33.4610 C   0  0  0  0  0  0  0  0  0  0  0  0
   38.5110   25.5730   34.3330 C   0  0  0  0  0  0  0  0  0  0  0  0
   39.4520   26.5420   34.0150 C   0  0  0  0  0  0  0  0  0  0  0  0
   39.2600   27.2630   32.8800 N   0  0  0  0  0  0  0  0  0  0  0  0
   38.2220   27.0850   32.0710 C   0  0  0  0  0  0  0  0  0  0  0  0
   37.3010   26.1580   32.3560 N   0  0  0  0  0  0  0  0  0  0  0  0
   36.7100   24.6360   33.7470 H   0  0  0  0  0  0  0  0  0  0  0  0
   40.3190   26.7150   34.6600 H   0  0  0  0  0  0  0  0  0  0  0  0
   38.0490   27.6520   31.1580 H   0  0  0  0  0  0  0  0  0  0  0  0
   40.3430   21.7060   36.7650 O   0  0  0  0  0  0  0  0  0  0  0  0
   41.5320   21.5760   37.4810 C   0  0  0  0  0  2  0  0  0  0  0  0
   42.4780   20.5310   36.9510 C   0  0  0  0  0  2  0  0  0  0  0  0
   42.6050   19.6940   37.6910 H   0  0  0  0  0  0  0  0  0  0  0  0
  1  2  1  0  0  0  0
  2  7  1  0  0  0  0
  3  2  2  0  0  0  0
  3  4  1  0  0  0  0
  4  5  2  0  0  0  0
  5  6  1  0  0  0  0
  5  9  1  0  0  0  0
  6 10  1  0  0  0  0
  7 20  1  0  0  0  0
  7  6  2  0  0  0  0
  8  4  1  0  0  0  0
 11 17  1  0  0  0  0
 11 12  1  0  0  0  0
 12  3  1  0  0  0  0
 13 12  2  0  0  0  0
 13 18  1  0  0  0  0
 14 13  1  0  0  0  0
 15 16  1  0  0  0  0
 15 14  2  0  0  0  0
 16 11  2  0  0  0  0
 19 15  1  0  0  0  0
 20 21  1  0  0  0  0
 22 21  1  0  0  0  0
 22 23  1  0  0  0  0
M  END
>  <minimizedAffinity>
-4.11003876

$$$$

 OpenBabel03272505033D

 23 24  0  0  0  0  0  0  0  0999 V2000
   38.4790   27.0850   35.4410 Cl  0  0  0  0  0  0  0  0  0  0  0  0
   37.9850   25.9870   34.1710 C   0  0  0  0  0  0  0  0  0  0  0  0
   38.1180   24.6480   34.3710 C   0  0  0  0  0  0  0  0  0  0  0  0
   37.7130   23.8300   33.3330 C   0  0  0  0  0  0  0  0  0  0  0  0
   37.2020   24.4000   32.1710 C   0  0  0  0  0  0  0  0  0  0  0  0
   37.0890   25.7440   32.0180 C   0  0  0  0  0  0  0  0  0  0  0  0
   37.4890   26.5710   33.0430 C   0  0  0  0  0  0  0  0  0  0  0  0
   37.8040   22.7590   33.4560 H   0  0  0  0  0  0  0  0  0  0  0  0
   36.9020   23.6930   31.3950 H   0  0  0  0  0  0  0  0  0  0  0  0
   36.6790   26.0620   31.0750 H   0  0  0  0  0  0  0  0  0  0  0  0
   39.9740   23.5650   35.6580 C   0  0  0  0  0  0  0  0  0  0  0  0
   38.6590   24.0500   35.6030 C   0  0  0  0  0  0  0  0  0  0  0  0
   37.8840   23.9480   36.7490 C   0  0  0  0  0  0  0  0  0  0  0  0
   38.4490   23.3860   37.8480 N   0  0  0  0  0  0  0  0  0  0  0  0
   39.6980   22.9340   37.8740 C   0  0  0  0  0  0  0  0  0  0  0  0
   40.4650   23.0210   36.7830 N   0  0  0  0  0  0  0  0  0  0  0  0
   40.5470   23.6650   34.7380 H   0  0  0  0  0  0  0  0  0  0  0  0
   36.8510   24.3110   36.7620 H   0  0  0  0  0  0  0  0  0  0  0  0
   40.1700   22.4800   38.7440 H   0  0  0  0  0  0  0  0  0  0  0  0
   37.3670   27.9380   32.8740 O   0  0  0  0  0  0  0  0  0  0  0  0
   36.1630   28.6390   32.8610 C   0  0  0  0  0  2  0  0  0  0  0  0
   35.6530   29.0410   34.2200 C   0  0  0  0  0  2  0  0  0  0  0  0
   34.6880   28.5150   34.4570 H   0  0  0  0  0  0  0  0  0  0  0  0
  2  3  1  0  0  0  0
  2  1  1  0  0  0  0
  3 12  1  0  0  0  0
  4  8  1  0  0  0  0
  4  3  2  0  0  0  0
  5  4  1  0  0  0  0
  6  5  2  0  0  0  0
  6  7  1  0  0  0  0
  7  2  2  0  0  0  0
  9  5  1  0  0  0  0
 10  6  1  0  0  0  0
 11 16  1  0  0  0  0
 12 11  2  0  0  0  0
 12 13  1  0  0  0  0
 13 18  1  0  0  0  0
 13 14  2  0  0  0  0
 14 15  1  0  0  0  0
 15 19  1  0  0  0  0
 16 15  2  0  0  0  0
 17 11  1  0  0  0  0
 20  7  1  0  0  0  0
 21 20  1  0  0  0  0
 21 22  1  0  0  0  0
 22 23  1  0  0  0  0
M  END
>  <minimizedAffinity>
-4.01384687

$$$$

 OpenBabel03272505033D

 23 24  0  0  0  0  0  0  0  0999 V2000
   37.4170   24.3150   32.8070 Cl  0  0  0  0  0  0  0  0  0  0  0  0
   37.7920   25.3620   34.1580 C   0  0  0  0  0  0  0  0  0  0  0  0
   37.8230   26.7070   33.9580 C   0  0  0  0  0  0  0  0  0  0  0  0
   38.1250   27.4840   35.0610 C   0  0  0  0  0  0  0  0  0  0  0  0
   38.3740   26.8700   36.2840 C   0  0  0  0  0  0  0  0  0  0  0  0
   38.3320   25.5210   36.4340 C   0  0  0  0  0  0  0  0  0  0  0  0
   38.0330   24.7350   35.3440 C   0  0  0  0  0  0  0  0  0  0  0  0
   38.1590   28.5590   34.9410 H   0  0  0  0  0  0  0  0  0  0  0  0
   38.6050   27.5450   37.1100 H   0  0  0  0  0  0  0  0  0  0  0  0
   38.5410   25.1670   37.4280 H   0  0  0  0  0  0  0  0  0  0  0  0
   36.2800   27.8310   32.3360 C   0  0  0  0  0  0  0  0  0  0  0  0
   37.5580   27.3530   32.6620 C   0  0  0  0  0  0  0  0  0  0  0  0
   38.5660   27.5120   31.7220 C   0  0  0  0  0  0  0  0  0  0  0  0
   38.2490   28.1170   30.5490 N   0  0  0  0  0  0  0  0  0  0  0  0
   37.0300   28.5610   30.2640 C   0  0  0  0  0  0  0  0  0  0  0  0
   36.0410   28.4200   31.1530 N   0  0  0  0  0  0  0  0  0  0  0  0
   35.5190   27.6870   33.1000 H   0  0  0  0  0  0  0  0  0  0  0  0
   39.5830   27.1580   31.9250 H   0  0  0  0  0  0  0  0  0  0  0  0
   36.7550   29.0480   29.3310 H   0  0  0  0  0  0  0  0  0  0  0  0
   37.9920   23.3630   35.5110 O   0  0  0  0  0  0  0  0  0  0  0  0
   38.9940   22.5990   36.1070 C   0  0  0  0  0  2  0  0  0  0  0  0
   40.2540   22.4650   35.2930 C   0  0  0  0  0  2  0  0  0  0  0  0
   40.4150   21.3980   34.9780 H   0  0  0  0  0  0  0  0  0  0  0  0
  1  2  1  0  0  0  0
  2  7  1  0  0  0  0
  3  2  2  0  0  0  0
  3  4  1  0  0  0  0
  4  5  2  0  0  0  0
  5  6  1  0  0  0  0
  5  9  1  0  0  0  0
  6 10  1  0  0  0  0
  7 20  1  0  0  0  0
  7  6  2  0  0  0  0
  8  4  1  0  0  0  0
 11 12  1  0  0  0  0
 11 17  1  0  0  0  0
 12  3  1  0  0  0  0
 13 18  1  0  0  0  0
 13 12  2  0  0  0  0
 14 13  1  0  0  0  0
 15 14  2  0  0  0  0
 15 16  1  0  0  0  0
 16 11  2  0  0  0  0
 19 15  1  0  0  0  0
 20 21  1  0  0  0  0
 22 21  1  0  0  0  0
 23 22  1  0  0  0  0
M  END
>  <minimizedAffinity>
-4.01170015

$$$$

 OpenBabel03272505033D

 23 24  0  0  0  0  0  0  0  0999 V2000
   32.7220   29.4030   34.2130 Cl  0  0  0  0  0  0  0  0  0  0  0  0
   33.7380   30.4590   35.1690 C   0  0  0  0  0  0  0  0  0  0  0  0
   35.0820   30.4480   34.9570 C   0  0  0  0  0  0  0  0  0  0  0  0
   35.8340   31.3020   35.7430 C   0  0  0  0  0  0  0  0  0  0  0  0
   35.1980   32.1080   36.6810 C   0  0  0  0  0  0  0  0  0  0  0  0
   33.8510   32.0830   36.8570 C   0  0  0  0  0  0  0  0  0  0  0  0
   33.0910   31.2370   36.0820 C   0  0  0  0  0  0  0  0  0  0  0  0
   36.9070   31.3210   35.6020 H   0  0  0  0  0  0  0  0  0  0  0  0
   35.8540   32.7560   37.2650 H   0  0  0  0  0  0  0  0  0  0  0  0
   33.4790   32.7520   37.6130 H   0  0  0  0  0  0  0  0  0  0  0  0
   35.8720   29.9970   32.6230 C   0  0  0  0  0  0  0  0  0  0  0  0
   35.7510   29.5940   33.9620 C   0  0  0  0  0  0  0  0  0  0  0  0
   36.2840   28.3640   34.3170 C   0  0  0  0  0  0  0  0  0  0  0  0
   36.8870   27.6300   33.3460 N   0  0  0  0  0  0  0  0  0  0  0  0
   36.9890   28.0350   32.0850 C   0  0  0  0  0  0  0  0  0  0  0  0
   36.4830   29.2160   31.7180 N   0  0  0  0  0  0  0  0  0  0  0  0
   35.4410   30.9680   32.3870 H   0  0  0  0  0  0  0  0  0  0  0  0
   36.2180   28.0000   35.3480 H   0  0  0  0  0  0  0  0  0  0  0  0
   37.4670   27.4630   31.2930 H   0  0  0  0  0  0  0  0  0  0  0  0
   31.7210   31.2230   36.2710 O   0  0  0  0  0  0  0  0  0  0  0  0
   30.8190   32.0970   35.6640 C   0  0  0  0  0  2  0  0  0  0  0  0
   30.0870   33.0080   36.6130 C   0  0  0  0  0  2  0  0  0  0  0  0
   28.9860   32.7790   36.6170 H   0  0  0  0  0  0  0  0  0  0  0  0
  1  2  1  0  0  0  0
  2  7  1  0  0  0  0
  3  2  2  0  0  0  0
  3  4  1  0  0  0  0
  4  5  2  0  0  0  0
  5  6  1  0  0  0  0
  5  9  1  0  0  0  0
  6 10  1  0  0  0  0
  7 20  1  0  0  0  0
  7  6  2  0  0  0  0
  8  4  1  0  0  0  0
 11 12  1  0  0  0  0
 12 13  2  0  0  0  0
 12  3  1  0  0  0  0
 13 18  1  0  0  0  0
 14 13  1  0  0  0  0
 15 14  2  0  0  0  0
 16 15  1  0  0  0  0
 16 11  2  0  0  0  0
 17 11  1  0  0  0  0
 19 15  1  0  0  0  0
 21 20  1  0  0  0  0
 21 22  1  0  0  0  0
 22 23  1  0  0  0  0
M  END
>  <minimizedAffinity>
-4.0000968

$$$$
