
 OpenBabel03272510243D

 26 28  0  0  0  0  0  0  0  0999 V2000
   36.1290   30.1250   46.7940 C   0  0  0  0  0  0  0  0  0  0  0  0
   37.0060   30.7190   47.6930 C   0  0  0  0  0  0  0  0  0  0  0  0
   37.9720   31.6230   47.2660 C   0  0  0  0  0  0  0  0  0  0  0  0
   38.0070   31.8920   45.9040 C   0  0  0  0  0  0  0  0  0  0  0  0
   38.8490   32.7290   45.2440 N   0  0  0  0  0  0  0  0  0  0  0  0
   38.5110   32.6660   43.9540 C   0  0  0  0  0  0  0  0  0  0  0  0
   37.4930   31.8260   43.7600 N   0  0  0  0  0  0  0  0  0  0  0  0
   37.1560   31.3250   44.9720 C   0  0  0  0  0  0  0  0  0  0  0  0
   36.2000   30.4230   45.4340 C   0  0  0  0  0  0  0  0  0  0  0  0
   35.3730   29.4270   47.0710 H   0  0  0  0  0  0  0  0  0  0  0  0
   38.6540   32.0860   47.9610 H   0  0  0  0  0  0  0  0  0  0  0  0
   39.6190   33.3140   45.6760 H   0  0  0  0  0  0  0  0  0  0  0  0
   35.5200   29.9650   44.7240 H   0  0  0  0  0  0  0  0  0  0  0  0
   37.5570   30.2450   51.3900 C   0  0  0  0  0  0  0  0  0  0  0  0
   37.7820   30.6340   50.0840 C   0  0  0  0  0  0  0  0  0  0  0  0
   36.8700   30.3570   49.0910 C   0  0  0  0  0  0  0  0  0  0  0  0
   35.7530   29.6880   49.4710 N   0  0  0  0  0  0  0  0  0  0  0  0
   35.5340   29.3070   50.7540 C   0  0  0  0  0  0  0  0  0  0  0  0
   36.4310   29.5850   51.6990 N   0  0  0  0  0  0  0  0  0  0  0  0
   38.3390   30.5140   52.0890 H   0  0  0  0  0  0  0  0  0  0  0  0
   38.6790   31.1670   49.8020 H   0  0  0  0  0  0  0  0  0  0  0  0
   34.6110   28.7670   50.9970 H   0  0  0  0  0  0  0  0  0  0  0  0
   39.1840   33.4160   42.9740 O   0  0  0  0  0  0  0  0  0  0  0  0
   39.1020   33.0250   41.6100 C   0  0  0  0  0  2  0  0  0  0  0  0
   38.2050   34.0170   40.9000 C   0  0  0  0  0  2  0  0  0  0  0  0
   37.5240   34.5580   41.5970 H   0  0  0  0  0  0  0  0  0  0  0  0
  1 10  1  0  0  0  0
  1  2  1  0  0  0  0
  2 16  1  0  0  0  0
  3  2  2  0  0  0  0
  3 11  1  0  0  0  0
  4  3  1  0  0  0  0
  5 12  1  0  0  0  0
  5  4  1  0  0  0  0
  6  5  1  0  0  0  0
  7  6  2  0  0  0  0
  7  8  1  0  0  0  0
  8  9  1  0  0  0  0
  8  4  2  0  0  0  0
  9  1  2  0  0  0  0
 13  9  1  0  0  0  0
 14 19  1  0  0  0  0
 14 20  1  0  0  0  0
 15 14  2  0  0  0  0
 16 17  2  0  0  0  0
 16 15  1  0  0  0  0
 17 18  1  0  0  0  0
 18 22  1  0  0  0  0
 18 19  2  0  0  0  0
 21 15  1  0  0  0  0
 23  6  1  0  0  0  0
 24 23  1  0  0  0  0
 25 26  1  0  0  0  0
 25 24  1  0  0  0  0
M  END
>  <minimizedAffinity>
-5.05398655

>  <minimizedRMSD>
1.21334636

$$$$
