
 OpenBabel03272506423D

 26 27  0  0  1  0  0  0  0  0999 V2000
   32.3350   28.3660   47.4140 C   0  0  2  0  0  0  0  0  0  0  0  0
   33.5380   28.3850   48.3300 C   0  0  1  0  0  0  0  0  0  0  0  0
   34.0890   27.1200   48.3330 O   0  0  0  0  0  0  0  0  0  0  0  0
   33.4920   26.3710   47.3490 C   0  0  0  0  0  0  0  0  0  0  0  0
   32.8080   27.3710   46.3990 C   0  0  1  0  0  0  0  0  0  0  0  0
   31.4690   28.0110   47.9860 H   0  0  0  0  0  0  0  0  0  0  0  0
   33.2620   28.7540   49.3520 H   0  0  0  0  0  0  0  0  0  0  0  0
   34.2380   25.7790   46.7900 H   0  0  0  0  0  0  0  0  0  0  0  0
   32.6690   25.7490   47.7680 H   0  0  0  0  0  0  0  0  0  0  0  0
   33.6100   27.8110   45.7870 H   0  0  0  0  0  0  0  0  0  0  0  0
   32.1260   29.6200   46.8470 O   0  0  0  0  0  0  0  0  0  0  0  0
   32.8420   29.7170   46.1430 H   0  0  0  0  0  0  0  0  0  0  0  0
   34.7670   29.5150   47.5830 S   0  0  0  0  0  0  0  0  0  0  0  0
   37.3130   29.3120   50.6130 C   0  0  0  0  0  0  0  0  0  0  0  0
   37.8140   30.6020   50.7600 C   0  0  0  0  0  0  0  0  0  0  0  0
   37.3430   31.5800   49.8780 C   0  0  0  0  0  0  0  0  0  0  0  0
   36.4290   31.2310   48.9330 N   0  0  0  0  0  0  0  0  0  0  0  0
   35.9670   29.9610   48.8280 C   0  0  0  0  0  0  0  0  0  0  0  0
   36.3990   28.9960   49.6570 N   0  0  0  0  0  0  0  0  0  0  0  0
   37.6720   28.5470   51.2910 H   0  0  0  0  0  0  0  0  0  0  0  0
   38.5270   30.9100   51.4850 H   0  0  0  0  0  0  0  0  0  0  0  0
   37.6420   32.6200   49.8750 H   0  0  0  0  0  0  0  0  0  0  0  0
   31.8380   26.7240   45.6960 O   0  0  0  0  0  0  0  0  0  0  0  0
   31.7110   27.0270   44.3580 C   0  0  0  0  0  0  0  0  0  0  0  0
   30.4470   27.8690   44.1410 C   0  0  0  0  0  0  0  0  0  0  0  0
   30.0600   27.7830   43.1060 H   0  0  0  0  0  0  0  0  0  0  0  0
  1  6  1  1  0  0  0
  1  2  1  0  0  0  0
  2  3  1  0  0  0  0
  2  7  1  1  0  0  0
  4  9  1  0  0  0  0
  4  3  1  0  0  0  0
  5 10  1  6  0  0  0
  5  4  1  0  0  0  0
  5  1  1  0  0  0  0
  8  4  1  0  0  0  0
 11  1  1  0  0  0  0
 12 11  1  0  0  0  0
 13  2  1  0  0  0  0
 13 18  1  0  0  0  0
 14 15  1  0  0  0  0
 14 20  1  0  0  0  0
 15 21  1  0  0  0  0
 16 15  2  0  0  0  0
 17 16  1  0  0  0  0
 18 17  2  0  0  0  0
 18 19  1  0  0  0  0
 19 14  2  0  0  0  0
 22 16  1  0  0  0  0
 23  5  1  0  0  0  0
 24 23  1  0  0  0  0
 25 24  1  0  0  0  0
 26 25  1  0  0  0  0
M  END
>  <minimizedAffinity>
-3.65179539

>  <minimizedRMSD>
0.282215506

$$$$
