
 OpenBabel03272503513D

 31 32  0  0  1  0  0  0  0  0999 V2000
   37.7110   26.0180   31.6910 C   0  0  1  0  0  0  0  0  0  0  0  0
   37.5510   26.9060   32.9450 C   0  0  2  0  0  0  0  0  0  0  0  0
   36.7010   27.8830   32.5250 O   0  0  0  0  0  0  0  0  0  0  0  0
   35.7020   27.2130   31.8440 C   0  0  0  0  0  0  0  0  0  0  0  0
   36.3110   26.0500   31.1360 C   0  0  2  0  0  0  0  0  0  0  0  0
   38.0050   25.0260   32.0620 H   0  0  0  0  0  0  0  0  0  0  0  0
   37.1610   26.2190   33.7330 H   0  0  0  0  0  0  0  0  0  0  0  0
   35.2780   27.9020   31.0600 H   0  0  0  0  0  0  0  0  0  0  0  0
   34.8470   26.9420   32.5030 H   0  0  0  0  0  0  0  0  0  0  0  0
   36.3970   26.1590   30.0450 H   0  0  0  0  0  0  0  0  0  0  0  0
   38.6760   26.5440   30.8510 O   0  0  0  0  0  0  0  0  0  0  0  0
   38.4820   27.4740   30.6240 H   0  0  0  0  0  0  0  0  0  0  0  0
   38.8220   27.2860   33.2630 O   0  0  0  0  0  0  0  0  0  0  0  0
   40.8700   26.7850   34.8500 O   0  0  0  0  0  0  0  0  0  0  0  0
   39.3510   26.7220   34.7590 P   0  0  1  0  0  0  0  0  0  0  0  0
   38.7970   27.7410   35.9940 O   0  0  0  0  0  0  0  0  0  0  0  0
   39.2400   28.6150   35.8730 H   0  0  0  0  0  0  0  0  0  0  0  0
   38.7210   25.1490   34.9410 O   0  0  0  0  0  0  0  0  0  0  0  0
   38.8370   24.4450   36.1330 C   0  0  0  0  0  0  0  0  0  0  0  0
   39.7590   23.3990   36.3490 C   0  0  0  0  0  0  0  0  0  0  0  0
   39.7640   22.7830   37.5920 C   0  0  0  0  0  0  0  0  0  0  0  0
   38.8790   23.2170   38.5420 N   0  0  0  0  0  0  0  0  0  0  0  0
   38.0050   24.2260   38.3030 C   0  0  0  0  0  0  0  0  0  0  0  0
   37.9840   24.8430   37.0880 N   0  0  0  0  0  0  0  0  0  0  0  0
   40.4110   23.1400   35.5250 H   0  0  0  0  0  0  0  0  0  0  0  0
   40.4680   21.9800   37.7650 H   0  0  0  0  0  0  0  0  0  0  0  0
   37.3270   24.5290   39.0890 H   0  0  0  0  0  0  0  0  0  0  0  0
   35.6470   24.8740   31.4620 O   0  0  0  0  0  0  0  0  0  0  0  0
   36.3750   23.7290   31.2600 C   0  0  0  0  0  2  0  0  0  0  0  0
   35.5290   22.5700   31.7430 C   0  0  0  0  0  2  0  0  0  0  0  0
   34.4940   22.8920   32.0420 H   0  0  0  0  0  0  0  0  0  0  0  0
  1  6  1  1  0  0  0
  1  2  1  0  0  0  0
  2 13  1  0  0  0  0
  2  7  1  1  0  0  0
  3  2  1  0  0  0  0
  4  9  1  0  0  0  0
  4  3  1  0  0  0  0
  5 10  1  6  0  0  0
  5 28  1  0  0  0  0
  5  1  1  0  0  0  0
  5  4  1  0  0  0  0
  8  4  1  0  0  0  0
 11  1  1  0  0  0  0
 12 11  1  0  0  0  0
 13 15  1  0  0  0  0
 15 14  2  1  0  0  0
 15 18  1  0  0  0  0
 15 16  1  0  0  0  0
 17 16  1  0  0  0  0
 18 19  1  0  0  0  0
 19 20  2  0  0  0  0
 19 24  1  0  0  0  0
 20 21  1  0  0  0  0
 21 26  1  0  0  0  0
 21 22  2  0  0  0  0
 23 22  1  0  0  0  0
 23 27  1  0  0  0  0
 24 23  2  0  0  0  0
 25 20  1  0  0  0  0
 29 28  1  0  0  0  0
 29 30  1  0  0  0  0
 30 31  1  0  0  0  0
M  END
>  <minimizedAffinity>
-4.90191841

$$$$

 OpenBabel03272503513D

 31 32  0  0  1  0  0  0  0  0999 V2000
   38.0150   25.0110   32.2910 C   0  0  1  0  0  0  0  0  0  0  0  0
   37.1290   26.0460   33.0180 C   0  0  2  0  0  0  0  0  0  0  0  0
   36.2390   26.4210   32.0590 O   0  0  0  0  0  0  0  0  0  0  0  0
   35.8310   25.2360   31.4750 C   0  0  0  0  0  0  0  0  0  0  0  0
   36.9900   24.2980   31.4480 C   0  0  2  0  0  0  0  0  0  0  0  0
   38.4430   24.3760   33.0800 H   0  0  0  0  0  0  0  0  0  0  0  0
   36.7080   25.4960   33.8930 H   0  0  0  0  0  0  0  0  0  0  0  0
   35.5390   25.4430   30.4070 H   0  0  0  0  0  0  0  0  0  0  0  0
   34.9220   24.8140   31.9600 H   0  0  0  0  0  0  0  0  0  0  0  0
   37.4400   24.1380   30.4570 H   0  0  0  0  0  0  0  0  0  0  0  0
   39.0090   25.6520   31.5710 O   0  0  0  0  0  0  0  0  0  0  0  0
   38.6340   26.3140   30.9590 H   0  0  0  0  0  0  0  0  0  0  0  0
   38.0020   26.9980   33.4580 O   0  0  0  0  0  0  0  0  0  0  0  0
   39.8810   26.8910   35.3080 O   0  0  0  0  0  0  0  0  0  0  0  0
   38.3730   26.8820   35.0970 P   0  0  1  0  0  0  0  0  0  0  0  0
   37.8090   28.2510   35.9200 O   0  0  0  0  0  0  0  0  0  0  0  0
   38.3260   29.0240   35.5900 H   0  0  0  0  0  0  0  0  0  0  0  0
   37.6110   25.4700   35.6740 O   0  0  0  0  0  0  0  0  0  0  0  0
   38.2700   24.5640   36.4950 C   0  0  0  0  0  0  0  0  0  0  0  0
   38.0100   24.4070   37.8730 C   0  0  0  0  0  0  0  0  0  0  0  0
   38.7470   23.4610   38.5700 C   0  0  0  0  0  0  0  0  0  0  0  0
   39.6840   22.7300   37.8920 N   0  0  0  0  0  0  0  0  0  0  0  0
   39.9100   22.9050   36.5660 C   0  0  0  0  0  0  0  0  0  0  0  0
   39.1980   23.8290   35.8630 N   0  0  0  0  0  0  0  0  0  0  0  0
   37.2450   25.0400   38.3030 H   0  0  0  0  0  0  0  0  0  0  0  0
   38.5520   23.3360   39.6260 H   0  0  0  0  0  0  0  0  0  0  0  0
   40.6640   22.3000   36.0790 H   0  0  0  0  0  0  0  0  0  0  0  0
   36.6560   23.0850   32.0380 O   0  0  0  0  0  0  0  0  0  0  0  0
   35.6810   22.3770   31.3830 C   0  0  0  0  0  2  0  0  0  0  0  0
   35.1450   21.3490   32.3560 C   0  0  0  0  0  2  0  0  0  0  0  0
   35.5740   21.4730   33.3870 H   0  0  0  0  0  0  0  0  0  0  0  0
  1  2  1  0  0  0  0
  1  6  1  1  0  0  0
  2 13  1  0  0  0  0
  2  7  1  1  0  0  0
  3  2  1  0  0  0  0
  4  9  1  0  0  0  0
  4  3  1  0  0  0  0
  5 10  1  6  0  0  0
  5  4  1  0  0  0  0
  5 28  1  0  0  0  0
  5  1  1  0  0  0  0
  8  4  1  0  0  0  0
 11  1  1  0  0  0  0
 12 11  1  0  0  0  0
 13 15  1  0  0  0  0
 15 14  2  1  0  0  0
 15 18  1  0  0  0  0
 15 16  1  0  0  0  0
 17 16  1  0  0  0  0
 18 19  1  0  0  0  0
 19 20  1  0  0  0  0
 20 25  1  0  0  0  0
 20 21  2  0  0  0  0
 21 26  1  0  0  0  0
 22 21  1  0  0  0  0
 23 22  2  0  0  0  0
 24 19  2  0  0  0  0
 24 23  1  0  0  0  0
 27 23  1  0  0  0  0
 29 28  1  0  0  0  0
 29 30  1  0  0  0  0
 30 31  1  0  0  0  0
M  END
>  <minimizedAffinity>
-4.84812832

$$$$

 OpenBabel03272503513D

 31 32  0  0  1  0  0  0  0  0999 V2000
   36.1920   28.9370   32.5400 C   0  0  1  0  0  0  0  0  0  0  0  0
   37.0280   27.7040   32.9480 C   0  0  2  0  0  0  0  0  0  0  0  0
   36.4620   26.6950   32.2290 O   0  0  0  0  0  0  0  0  0  0  0  0
   36.3060   27.2140   30.9570 C   0  0  0  0  0  0  0  0  0  0  0  0
   35.9720   28.6630   31.0750 C   0  0  2  0  0  0  0  0  0  0  0  0
   36.8360   29.8090   32.7250 H   0  0  0  0  0  0  0  0  0  0  0  0
   38.0780   27.9700   32.6820 H   0  0  0  0  0  0  0  0  0  0  0  0
   35.4300   26.7050   30.4660 H   0  0  0  0  0  0  0  0  0  0  0  0
   37.1820   27.0060   30.3030 H   0  0  0  0  0  0  0  0  0  0  0  0
   34.9270   28.9230   30.8500 H   0  0  0  0  0  0  0  0  0  0  0  0
   35.0340   29.0020   33.2940 O   0  0  0  0  0  0  0  0  0  0  0  0
   34.5230   28.1730   33.2340 H   0  0  0  0  0  0  0  0  0  0  0  0
   36.9060   27.6390   34.3050 O   0  0  0  0  0  0  0  0  0  0  0  0
   39.4280   26.8690   34.1860 O   0  0  0  0  0  0  0  0  0  0  0  0
   38.1880   26.8590   35.0700 P   0  0  1  0  0  0  0  0  0  0  0  0
   38.6380   27.7090   36.4640 O   0  0  0  0  0  0  0  0  0  0  0  0
   39.0010   28.5790   36.1720 H   0  0  0  0  0  0  0  0  0  0  0  0
   37.6430   25.2920   35.4650 O   0  0  0  0  0  0  0  0  0  0  0  0
   38.3430   24.4700   36.3390 C   0  0  0  0  0  0  0  0  0  0  0  0
   37.9700   24.2390   37.6800 C   0  0  0  0  0  0  0  0  0  0  0  0
   38.7650   23.3920   38.4390 C   0  0  0  0  0  0  0  0  0  0  0  0
   39.8650   22.8260   37.8540 N   0  0  0  0  0  0  0  0  0  0  0  0
   40.1970   23.0690   36.5610 C   0  0  0  0  0  0  0  0  0  0  0  0
   39.4300   23.8980   35.7990 N   0  0  0  0  0  0  0  0  0  0  0  0
   37.0790   24.7390   38.0350 H   0  0  0  0  0  0  0  0  0  0  0  0
   38.4840   23.2100   39.4680 H   0  0  0  0  0  0  0  0  0  0  0  0
   41.0780   22.5960   36.1490 H   0  0  0  0  0  0  0  0  0  0  0  0
   36.8450   29.4320   30.3160 O   0  0  0  0  0  0  0  0  0  0  0  0
   37.7750   28.7150   29.6060 C   0  0  0  0  0  2  0  0  0  0  0  0
   37.9480   29.4050   28.2700 C   0  0  0  0  0  2  0  0  0  0  0  0
   37.3800   30.3730   28.2130 H   0  0  0  0  0  0  0  0  0  0  0  0
  1  6  1  1  0  0  0
  1  2  1  0  0  0  0
  1 11  1  0  0  0  0
  2  7  1  6  0  0  0
  2 13  1  0  0  0  0
  3  2  1  0  0  0  0
  4  5  1  0  0  0  0
  4  3  1  0  0  0  0
  5 10  1  6  0  0  0
  5  1  1  0  0  0  0
  8  4  1  0  0  0  0
  9  4  1  0  0  0  0
 12 11  1  0  0  0  0
 13 15  1  0  0  0  0
 15 14  2  6  0  0  0
 15 18  1  0  0  0  0
 15 16  1  0  0  0  0
 17 16  1  0  0  0  0
 18 19  1  0  0  0  0
 19 20  1  0  0  0  0
 20 25  1  0  0  0  0
 20 21  2  0  0  0  0
 21 26  1  0  0  0  0
 22 21  1  0  0  0  0
 23 22  2  0  0  0  0
 24 19  2  0  0  0  0
 24 23  1  0  0  0  0
 27 23  1  0  0  0  0
 28  5  1  0  0  0  0
 29 28  1  0  0  0  0
 30 29  1  0  0  0  0
 31 30  1  0  0  0  0
M  END
>  <minimizedAffinity>
-4.79040766

$$$$

 OpenBabel03272503513D

 31 32  0  0  1  0  0  0  0  0999 V2000
   38.8300   23.5630   36.0420 C   0  0  1  0  0  0  0  0  0  0  0  0
   38.2710   24.8030   36.7710 C   0  0  2  0  0  0  0  0  0  0  0  0
   37.7740   24.2840   37.9280 O   0  0  0  0  0  0  0  0  0  0  0  0
   38.7580   23.4230   38.3780 C   0  0  0  0  0  0  0  0  0  0  0  0
   39.4060   22.7860   37.1960 C   0  0  2  0  0  0  0  0  0  0  0  0
   39.5980   23.9420   35.3510 H   0  0  0  0  0  0  0  0  0  0  0  0
   39.1430   25.4910   36.8740 H   0  0  0  0  0  0  0  0  0  0  0  0
   38.2710   22.6050   38.9800 H   0  0  0  0  0  0  0  0  0  0  0  0
   39.4740   23.9220   39.0700 H   0  0  0  0  0  0  0  0  0  0  0  0
   39.1490   21.7280   37.0360 H   0  0  0  0  0  0  0  0  0  0  0  0
   37.8190   22.9120   35.3560 O   0  0  0  0  0  0  0  0  0  0  0  0
   37.0750   22.6890   35.9470 H   0  0  0  0  0  0  0  0  0  0  0  0
   37.3700   25.3400   35.8980 O   0  0  0  0  0  0  0  0  0  0  0  0
   36.9910   27.7800   34.9670 O   0  0  0  0  0  0  0  0  0  0  0  0
   37.9780   26.6200   34.9890 P   0  0  1  0  0  0  0  0  0  0  0  0
   39.3710   27.2460   35.7220 O   0  0  0  0  0  0  0  0  0  0  0  0
   39.0950   27.6460   36.5820 H   0  0  0  0  0  0  0  0  0  0  0  0
   38.3350   25.9980   33.4420 O   0  0  0  0  0  0  0  0  0  0  0  0
   37.3620   25.4070   32.6460 C   0  0  0  0  0  0  0  0  0  0  0  0
   36.4080   26.1250   31.8950 C   0  0  0  0  0  0  0  0  0  0  0  0
   35.4930   25.4020   31.1440 C   0  0  0  0  0  0  0  0  0  0  0  0
   35.5590   24.0350   31.1680 N   0  0  0  0  0  0  0  0  0  0  0  0
   36.4890   23.3740   31.9020 C   0  0  0  0  0  0  0  0  0  0  0  0
   37.3960   24.0660   32.6470 N   0  0  0  0  0  0  0  0  0  0  0  0
   36.4500   27.2050   31.9510 H   0  0  0  0  0  0  0  0  0  0  0  0
   34.7590   25.9460   30.5650 H   0  0  0  0  0  0  0  0  0  0  0  0
   36.4960   22.2920   31.8860 H   0  0  0  0  0  0  0  0  0  0  0  0
   40.7840   22.9550   37.2390 O   0  0  0  0  0  0  0  0  0  0  0  0
   41.4910   22.1290   36.4020 C   0  0  0  0  0  2  0  0  0  0  0  0
   42.1230   21.0560   37.2640 C   0  0  0  0  0  2  0  0  0  0  0  0
   41.7880   21.1160   38.3350 H   0  0  0  0  0  0  0  0  0  0  0  0
  1  6  1  6  0  0  0
  1  2  1  0  0  0  0
  1  5  1  0  0  0  0
  2  7  1  1  0  0  0
  2  3  1  0  0  0  0
  3  4  1  0  0  0  0
  4  8  1  0  0  0  0
  4  9  1  0  0  0  0
  5 10  1  6  0  0  0
  5 28  1  0  0  0  0
  5  4  1  0  0  0  0
 11 12  1  0  0  0  0
 11  1  1  0  0  0  0
 13  2  1  0  0  0  0
 15 14  2  6  0  0  0
 15 16  1  0  0  0  0
 15 13  1  0  0  0  0
 16 17  1  0  0  0  0
 18 15  1  0  0  0  0
 19 24  1  0  0  0  0
 19 18  1  0  0  0  0
 20 25  1  0  0  0  0
 20 19  2  0  0  0  0
 21 22  2  0  0  0  0
 21 20  1  0  0  0  0
 22 23  1  0  0  0  0
 23 24  2  0  0  0  0
 26 21  1  0  0  0  0
 27 23  1  0  0  0  0
 29 28  1  0  0  0  0
 29 30  1  0  0  0  0
 30 31  1  0  0  0  0
M  END
>  <minimizedAffinity>
-4.65476942

$$$$

 OpenBabel03272503513D

 31 32  0  0  1  0  0  0  0  0999 V2000
   38.7760   23.4370   36.3090 C   0  0  1  0  0  0  0  0  0  0  0  0
   38.2310   24.7620   36.8860 C   0  0  2  0  0  0  0  0  0  0  0  0
   37.6390   24.3730   38.0480 O   0  0  0  0  0  0  0  0  0  0  0  0
   38.5500   23.5180   38.6390 C   0  0  0  0  0  0  0  0  0  0  0  0
   39.2400   22.7470   37.5650 C   0  0  2  0  0  0  0  0  0  0  0  0
   39.6020   23.7190   35.6400 H   0  0  0  0  0  0  0  0  0  0  0  0
   39.1260   25.4200   36.9850 H   0  0  0  0  0  0  0  0  0  0  0  0
   37.9890   22.7790   39.2780 H   0  0  0  0  0  0  0  0  0  0  0  0
   39.2440   24.0480   39.3290 H   0  0  0  0  0  0  0  0  0  0  0  0
   38.9440   21.6900   37.4830 H   0  0  0  0  0  0  0  0  0  0  0  0
   37.7800   22.7690   35.6180 O   0  0  0  0  0  0  0  0  0  0  0  0
   36.9900   22.6330   36.1760 H   0  0  0  0  0  0  0  0  0  0  0  0
   37.4140   25.2530   35.9100 O   0  0  0  0  0  0  0  0  0  0  0  0
   36.8250   27.5660   34.7830 O   0  0  0  0  0  0  0  0  0  0  0  0
   37.9830   26.6620   35.1850 P   0  0  1  0  0  0  0  0  0  0  0  0
   38.8780   27.5700   36.2990 O   0  0  0  0  0  0  0  0  0  0  0  0
   38.2520   27.8730   37.0000 H   0  0  0  0  0  0  0  0  0  0  0  0
   38.9590   26.1790   33.8720 O   0  0  0  0  0  0  0  0  0  0  0  0
   40.3310   26.3960   33.8590 C   0  0  0  0  0  0  0  0  0  0  0  0
   40.9820   27.2960   32.9900 C   0  0  0  0  0  0  0  0  0  0  0  0
   42.3620   27.4110   33.0870 C   0  0  0  0  0  0  0  0  0  0  0  0
   43.0190   26.6490   34.0150 N   0  0  0  0  0  0  0  0  0  0  0  0
   42.3620   25.7920   34.8370 C   0  0  0  0  0  0  0  0  0  0  0  0
   41.0080   25.6640   34.7560 N   0  0  0  0  0  0  0  0  0  0  0  0
   40.3610   27.8470   32.2970 H   0  0  0  0  0  0  0  0  0  0  0  0
   42.8680   28.0990   32.4250 H   0  0  0  0  0  0  0  0  0  0  0  0
   42.9310   25.2130   35.5520 H   0  0  0  0  0  0  0  0  0  0  0  0
   40.6190   22.8630   37.6840 O   0  0  0  0  0  0  0  0  0  0  0  0
   41.3300   21.7930   37.2010 C   0  0  0  0  0  2  0  0  0  0  0  0
   42.5540   22.3480   36.5040 C   0  0  0  0  0  2  0  0  0  0  0  0
   42.6530   23.4590   36.6350 H   0  0  0  0  0  0  0  0  0  0  0  0
  1  6  1  6  0  0  0
  1  2  1  0  0  0  0
  1  5  1  0  0  0  0
  2  7  1  1  0  0  0
  2  3  1  0  0  0  0
  3  4  1  0  0  0  0
  4  8  1  0  0  0  0
  4  9  1  0  0  0  0
  5 10  1  1  0  0  0
  5 28  1  0  0  0  0
  5  4  1  0  0  0  0
 11 12  1  0  0  0  0
 11  1  1  0  0  0  0
 13  2  1  0  0  0  0
 15 14  2  6  0  0  0
 15 13  1  0  0  0  0
 15 16  1  0  0  0  0
 16 17  1  0  0  0  0
 18 15  1  0  0  0  0
 19 18  1  0  0  0  0
 19 24  1  0  0  0  0
 20 21  1  0  0  0  0
 20 19  2  0  0  0  0
 21 22  2  0  0  0  0
 22 23  1  0  0  0  0
 23 27  1  0  0  0  0
 24 23  2  0  0  0  0
 25 20  1  0  0  0  0
 26 21  1  0  0  0  0
 29 28  1  0  0  0  0
 30 31  1  0  0  0  0
 30 29  1  0  0  0  0
M  END
>  <minimizedAffinity>
-4.6461587

$$$$

 OpenBabel03272503513D

 31 32  0  0  1  0  0  0  0  0999 V2000
   36.0220   28.4320   32.4610 C   0  0  1  0  0  0  0  0  0  0  0  0
   36.5870   27.9250   33.8060 C   0  0  2  0  0  0  0  0  0  0  0  0
   36.5330   29.0300   34.6000 O   0  0  0  0  0  0  0  0  0  0  0  0
   35.2810   29.5690   34.3700 C   0  0  0  0  0  0  0  0  0  0  0  0
   34.9290   29.3520   32.9370 C   0  0  2  0  0  0  0  0  0  0  0  0
   35.6410   27.5410   31.9410 H   0  0  0  0  0  0  0  0  0  0  0  0
   35.9200   27.0790   34.0940 H   0  0  0  0  0  0  0  0  0  0  0  0
   35.3310   30.6800   34.5420 H   0  0  0  0  0  0  0  0  0  0  0  0
   34.5170   29.1860   35.0840 H   0  0  0  0  0  0  0  0  0  0  0  0
   34.9640   30.2530   32.3050 H   0  0  0  0  0  0  0  0  0  0  0  0
   37.0170   29.0510   31.7250 O   0  0  0  0  0  0  0  0  0  0  0  0
   37.4480   29.7620   32.2370 H   0  0  0  0  0  0  0  0  0  0  0  0
   37.8260   27.4430   33.5000 O   0  0  0  0  0  0  0  0  0  0  0  0
   40.1730   27.1070   34.6600 O   0  0  0  0  0  0  0  0  0  0  0  0
   38.6800   26.8570   34.8280 P   0  0  1  0  0  0  0  0  0  0  0  0
   38.2470   27.7150   36.2230 O   0  0  0  0  0  0  0  0  0  0  0  0
   38.5590   28.6440   36.1030 H   0  0  0  0  0  0  0  0  0  0  0  0
   38.2770   25.2080   34.9810 O   0  0  0  0  0  0  0  0  0  0  0  0
   38.5830   24.4800   36.1230 C   0  0  0  0  0  0  0  0  0  0  0  0
   39.5810   23.4840   36.1850 C   0  0  0  0  0  0  0  0  0  0  0  0
   39.7790   22.8360   37.3960 C   0  0  0  0  0  0  0  0  0  0  0  0
   39.0010   23.1910   38.4650 N   0  0  0  0  0  0  0  0  0  0  0  0
   38.0490   24.1540   38.3720 C   0  0  0  0  0  0  0  0  0  0  0  0
   37.8390   24.8020   37.1920 N   0  0  0  0  0  0  0  0  0  0  0  0
   40.1350   23.2870   35.2770 H   0  0  0  0  0  0  0  0  0  0  0  0
   40.5420   22.0720   37.4510 H   0  0  0  0  0  0  0  0  0  0  0  0
   37.4620   24.3950   39.2480 H   0  0  0  0  0  0  0  0  0  0  0  0
   33.6970   28.7200   32.8230 O   0  0  0  0  0  0  0  0  0  0  0  0
   32.6170   29.5660   32.8070 C   0  0  0  0  0  2  0  0  0  0  0  0
   31.4910   28.8650   33.5380 C   0  0  0  0  0  2  0  0  0  0  0  0
   31.8210   27.8980   34.0040 H   0  0  0  0  0  0  0  0  0  0  0  0
  1  6  1  6  0  0  0
  1  5  1  0  0  0  0
  1  2  1  0  0  0  0
  2  7  1  1  0  0  0
  2  3  1  0  0  0  0
  4  8  1  0  0  0  0
  4  3  1  0  0  0  0
  4  9  1  0  0  0  0
  5 10  1  6  0  0  0
  5  4  1  0  0  0  0
 11 12  1  0  0  0  0
 11  1  1  0  0  0  0
 13  2  1  0  0  0  0
 13 15  1  0  0  0  0
 15 14  2  6  0  0  0
 15 18  1  0  0  0  0
 15 16  1  0  0  0  0
 17 16  1  0  0  0  0
 18 19  1  0  0  0  0
 19 20  2  0  0  0  0
 19 24  1  0  0  0  0
 20 21  1  0  0  0  0
 21 26  1  0  0  0  0
 21 22  2  0  0  0  0
 23 22  1  0  0  0  0
 23 27  1  0  0  0  0
 24 23  2  0  0  0  0
 25 20  1  0  0  0  0
 28  5  1  0  0  0  0
 29 28  1  0  0  0  0
 29 30  1  0  0  0  0
 30 31  1  0  0  0  0
M  END
>  <minimizedAffinity>
-4.62273979

$$$$

 OpenBabel03272503513D

 31 32  0  0  1  0  0  0  0  0999 V2000
   39.1130   23.4610   35.9400 C   0  0  1  0  0  0  0  0  0  0  0  0
   38.3470   24.7190   36.4020 C   0  0  2  0  0  0  0  0  0  0  0  0
   37.4930   24.2330   37.3440 O   0  0  0  0  0  0  0  0  0  0  0  0
   38.2680   23.3950   38.1230 C   0  0  0  0  0  0  0  0  0  0  0  0
   39.2690   22.7250   37.2450 C   0  0  2  0  0  0  0  0  0  0  0  0
   40.0670   23.8240   35.5310 H   0  0  0  0  0  0  0  0  0  0  0  0
   39.1370   25.4170   36.7660 H   0  0  0  0  0  0  0  0  0  0  0  0
   37.6060   22.5920   38.5560 H   0  0  0  0  0  0  0  0  0  0  0  0
   38.7150   23.9210   38.9970 H   0  0  0  0  0  0  0  0  0  0  0  0
   39.0770   21.6600   37.0420 H   0  0  0  0  0  0  0  0  0  0  0  0
   38.3850   22.7810   34.9790 O   0  0  0  0  0  0  0  0  0  0  0  0
   37.4850   22.5710   35.2960 H   0  0  0  0  0  0  0  0  0  0  0  0
   37.7890   25.2210   35.2620 O   0  0  0  0  0  0  0  0  0  0  0  0
   38.6580   27.5060   36.2560 O   0  0  0  0  0  0  0  0  0  0  0  0
   38.1410   26.8450   34.9860 P   0  0  1  0  0  0  0  0  0  0  0  0
   39.4110   26.9840   33.8740 O   0  0  0  0  0  0  0  0  0  0  0  0
   40.2180   26.6120   34.3030 H   0  0  0  0  0  0  0  0  0  0  0  0
   36.7180   27.5580   34.3740 O   0  0  0  0  0  0  0  0  0  0  0  0
   36.5900   27.9110   33.0370 C   0  0  0  0  0  0  0  0  0  0  0  0
   36.0960   29.1540   32.5890 C   0  0  0  0  0  0  0  0  0  0  0  0
   36.0220   29.3690   31.2200 C   0  0  0  0  0  0  0  0  0  0  0  0
   36.4280   28.3710   30.3770 N   0  0  0  0  0  0  0  0  0  0  0  0
   36.8990   27.1850   30.8400 C   0  0  0  0  0  0  0  0  0  0  0  0
   36.9790   26.9550   32.1800 N   0  0  0  0  0  0  0  0  0  0  0  0
   35.8050   29.8690   33.3470 H   0  0  0  0  0  0  0  0  0  0  0  0
   35.6460   30.3200   30.8700 H   0  0  0  0  0  0  0  0  0  0  0  0
   37.2060   26.4300   30.1290 H   0  0  0  0  0  0  0  0  0  0  0  0
   40.5560   22.9070   37.7370 O   0  0  0  0  0  0  0  0  0  0  0  0
   41.5580   22.5340   36.8770 C   0  0  0  0  0  2  0  0  0  0  0  0
   41.9990   21.1430   37.2810 C   0  0  0  0  0  2  0  0  0  0  0  0
   41.3510   20.7080   38.0900 H   0  0  0  0  0  0  0  0  0  0  0  0
  1  6  1  6  0  0  0
  1  2  1  0  0  0  0
  1  5  1  0  0  0  0
  2  7  1  1  0  0  0
  2  3  1  0  0  0  0
  3  4  1  0  0  0  0
  4  8  1  0  0  0  0
  4  9  1  0  0  0  0
  5 10  1  6  0  0  0
  5 28  1  0  0  0  0
  5  4  1  0  0  0  0
 11 12  1  0  0  0  0
 11  1  1  0  0  0  0
 13  2  1  0  0  0  0
 15 13  1  0  0  0  0
 15 14  2  1  0  0  0
 16 17  1  0  0  0  0
 16 15  1  0  0  0  0
 18 15  1  0  0  0  0
 19 18  1  0  0  0  0
 20 19  1  0  0  0  0
 20 25  1  0  0  0  0
 21 20  2  0  0  0  0
 22 23  2  0  0  0  0
 22 21  1  0  0  0  0
 23 24  1  0  0  0  0
 24 19  2  0  0  0  0
 26 21  1  0  0  0  0
 27 23  1  0  0  0  0
 29 30  1  0  0  0  0
 29 28  1  0  0  0  0
 30 31  1  0  0  0  0
M  END
>  <minimizedAffinity>
-4.47838259

$$$$

 OpenBabel03272503513D

 31 32  0  0  1  0  0  0  0  0999 V2000
   39.1350   23.2250   34.2470 C   0  0  1  0  0  0  0  0  0  0  0  0
   37.7380   22.8960   33.6780 C   0  0  2  0  0  0  0  0  0  0  0  0
   37.3810   21.7740   34.3620 O   0  0  0  0  0  0  0  0  0  0  0  0
   37.7040   22.0470   35.6790 C   0  0  0  0  0  0  0  0  0  0  0  0
   38.9430   22.8760   35.7000 C   0  0  2  0  0  0  0  0  0  0  0  0
   39.2820   24.3020   34.0780 H   0  0  0  0  0  0  0  0  0  0  0  0
   37.1270   23.8080   33.8760 H   0  0  0  0  0  0  0  0  0  0  0  0
   37.9370   21.0760   36.2000 H   0  0  0  0  0  0  0  0  0  0  0  0
   36.8520   22.4940   36.2400 H   0  0  0  0  0  0  0  0  0  0  0  0
   39.8520   22.3520   36.0310 H   0  0  0  0  0  0  0  0  0  0  0  0
   40.1050   22.4800   33.5990 O   0  0  0  0  0  0  0  0  0  0  0  0
   39.9050   21.5250   33.6380 H   0  0  0  0  0  0  0  0  0  0  0  0
   37.9350   22.7640   32.3350 O   0  0  0  0  0  0  0  0  0  0  0  0
   36.4280   24.9230   32.1420 O   0  0  0  0  0  0  0  0  0  0  0  0
   36.8720   23.6720   31.3950 P   0  0  1  0  0  0  0  0  0  0  0  0
   37.6640   24.2470   30.0120 O   0  0  0  0  0  0  0  0  0  0  0  0
   38.3540   24.8850   30.3140 H   0  0  0  0  0  0  0  0  0  0  0  0
   35.5850   22.6370   30.9710 O   0  0  0  0  0  0  0  0  0  0  0  0
   35.6350   21.2690   31.2050 C   0  0  0  0  0  0  0  0  0  0  0  0
   34.8880   20.6080   32.2030 C   0  0  0  0  0  0  0  0  0  0  0  0
   35.0390   19.2340   32.3250 C   0  0  0  0  0  0  0  0  0  0  0  0
   35.8990   18.5910   31.4770 N   0  0  0  0  0  0  0  0  0  0  0  0
   36.6040   19.2570   30.5270 C   0  0  0  0  0  0  0  0  0  0  0  0
   36.4700   20.6060   30.3920 N   0  0  0  0  0  0  0  0  0  0  0  0
   34.2380   21.2180   32.8160 H   0  0  0  0  0  0  0  0  0  0  0  0
   34.4690   18.7210   33.0870 H   0  0  0  0  0  0  0  0  0  0  0  0
   37.2710   18.6990   29.8830 H   0  0  0  0  0  0  0  0  0  0  0  0
   38.7470   24.0350   36.4410 O   0  0  0  0  0  0  0  0  0  0  0  0
   37.6140   24.0360   37.2160 C   0  0  0  0  0  2  0  0  0  0  0  0
   38.0350   24.4130   38.6210 C   0  0  0  0  0  2  0  0  0  0  0  0
   39.1190   24.7030   38.6790 H   0  0  0  0  0  0  0  0  0  0  0  0
  1  6  1  6  0  0  0
  1  5  1  0  0  0  0
  2  7  1  1  0  0  0
  2  1  1  0  0  0  0
  2  3  1  0  0  0  0
  3  4  1  0  0  0  0
  4  5  1  0  0  0  0
  4  8  1  0  0  0  0
  4  9  1  0  0  0  0
  5 10  1  1  0  0  0
  5 28  1  0  0  0  0
 11 12  1  0  0  0  0
 11  1  1  0  0  0  0
 13  2  1  0  0  0  0
 15 14  2  1  0  0  0
 15 13  1  0  0  0  0
 16 17  1  0  0  0  0
 16 15  1  0  0  0  0
 18 19  1  0  0  0  0
 18 15  1  0  0  0  0
 19 20  1  0  0  0  0
 20 21  2  0  0  0  0
 20 25  1  0  0  0  0
 21 26  1  0  0  0  0
 22 21  1  0  0  0  0
 23 22  2  0  0  0  0
 24 23  1  0  0  0  0
 24 19  2  0  0  0  0
 27 23  1  0  0  0  0
 28 29  1  0  0  0  0
 29 30  1  0  0  0  0
 30 31  1  0  0  0  0
M  END
>  <minimizedAffinity>
-4.4468689

$$$$

 OpenBabel03272503513D

 31 32  0  0  1  0  0  0  0  0999 V2000
   37.5450   26.6340   35.5750 C   0  0  1  0  0  0  0  0  0  0  0  0
   37.4780   26.3870   34.0520 C   0  0  2  0  0  0  0  0  0  0  0  0
   38.7210   25.9140   33.7610 O   0  0  0  0  0  0  0  0  0  0  0  0
   38.9830   24.9820   34.7470 C   0  0  0  0  0  0  0  0  0  0  0  0
   38.3700   25.4560   36.0210 C   0  0  2  0  0  0  0  0  0  0  0  0
   36.5050   26.5930   35.9310 H   0  0  0  0  0  0  0  0  0  0  0  0
   36.6340   25.6710   33.9150 H   0  0  0  0  0  0  0  0  0  0  0  0
   40.0970   24.9300   34.9060 H   0  0  0  0  0  0  0  0  0  0  0  0
   38.6720   23.9540   34.4530 H   0  0  0  0  0  0  0  0  0  0  0  0
   39.0820   25.8250   36.7740 H   0  0  0  0  0  0  0  0  0  0  0  0
   38.1130   27.8680   35.8370 O   0  0  0  0  0  0  0  0  0  0  0  0
   38.9870   27.9550   35.4090 H   0  0  0  0  0  0  0  0  0  0  0  0
   37.1370   27.5970   33.5210 O   0  0  0  0  0  0  0  0  0  0  0  0
   37.1890   29.1320   31.3740 O   0  0  0  0  0  0  0  0  0  0  0  0
   37.3380   27.6930   31.8520 P   0  0  1  0  0  0  0  0  0  0  0  0
   38.9180   27.2540   31.4290 O   0  0  0  0  0  0  0  0  0  0  0  0
   39.5220   27.9400   31.8040 H   0  0  0  0  0  0  0  0  0  0  0  0
   36.2060   26.6230   31.1590 O   0  0  0  0  0  0  0  0  0  0  0  0
   36.4140   25.2500   31.1310 C   0  0  0  0  0  0  0  0  0  0  0  0
   35.4570   24.2940   31.5320 C   0  0  0  0  0  0  0  0  0  0  0  0
   35.8030   22.9530   31.4510 C   0  0  0  0  0  0  0  0  0  0  0  0
   37.0490   22.6250   30.9900 N   0  0  0  0  0  0  0  0  0  0  0  0
   37.9470   23.5690   30.6120 C   0  0  0  0  0  0  0  0  0  0  0  0
   37.6270   24.8910   30.6840 N   0  0  0  0  0  0  0  0  0  0  0  0
   34.5040   24.6700   31.8800 H   0  0  0  0  0  0  0  0  0  0  0  0
   35.0740   22.2160   31.7570 H   0  0  0  0  0  0  0  0  0  0  0  0
   38.9190   23.2530   30.2550 H   0  0  0  0  0  0  0  0  0  0  0  0
   37.5430   24.4790   36.5630 O   0  0  0  0  0  0  0  0  0  0  0  0
   38.1940   23.3540   37.0000 C   0  0  0  0  0  2  0  0  0  0  0  0
   38.5040   23.5590   38.4680 C   0  0  0  0  0  2  0  0  0  0  0  0
   38.0470   24.5020   38.8730 H   0  0  0  0  0  0  0  0  0  0  0  0
  1 11  1  0  0  0  0
  1  6  1  1  0  0  0
  1  5  1  0  0  0  0
  2  7  1  6  0  0  0
  2  1  1  0  0  0  0
  3  2  1  0  0  0  0
  3  4  1  0  0  0  0
  4  8  1  0  0  0  0
  4  5  1  0  0  0  0
  5 28  1  0  0  0  0
  5 10  1  1  0  0  0
  9  4  1  0  0  0  0
 12 11  1  0  0  0  0
 13  2  1  0  0  0  0
 15 14  2  6  0  0  0
 15 13  1  0  0  0  0
 16 17  1  0  0  0  0
 16 15  1  0  0  0  0
 18 15  1  0  0  0  0
 19 18  1  0  0  0  0
 19 20  1  0  0  0  0
 20 25  1  0  0  0  0
 21 20  2  0  0  0  0
 21 26  1  0  0  0  0
 22 21  1  0  0  0  0
 23 24  1  0  0  0  0
 23 22  2  0  0  0  0
 24 19  2  0  0  0  0
 27 23  1  0  0  0  0
 28 29  1  0  0  0  0
 29 30  1  0  0  0  0
 30 31  1  0  0  0  0
M  END
>  <minimizedAffinity>
-4.43629885

$$$$
