
 OpenBabel03262520343D

 23 23  0  0  0  0  0  0  0  0999 V2000
   38.0460   25.5590   32.7530 C   0  0  0  0  0  0  0  0  0  0  0  0
   38.2630   24.7160   32.0340 H   0  0  0  0  0  0  0  0  0  0  0  0
   38.7190   26.3710   32.4670 H   0  0  0  0  0  0  0  0  0  0  0  0
   38.2230   23.9320   34.5970 C   0  0  0  0  0  3  0  0  0  0  0  0
   38.3070   25.1360   34.1480 C   0  0  0  0  0  3  0  0  0  0  0  0
   39.8230   22.8080   37.7040 C   0  0  0  0  0  0  0  0  0  0  0  0
   38.9690   23.3530   38.6830 C   0  0  0  0  0  0  0  0  0  0  0  0
   37.8690   24.0900   38.2530 C   0  0  0  0  0  0  0  0  0  0  0  0
   37.6940   24.2330   36.9030 N   0  0  0  0  0  0  0  0  0  0  0  0
   38.5200   23.7060   36.0100 C   0  0  0  0  0  0  0  0  0  0  0  0
   39.5870   22.9920   36.4000 N   0  0  0  0  0  0  0  0  0  0  0  0
   40.7040   22.2190   38.0040 H   0  0  0  0  0  0  0  0  0  0  0  0
   39.1780   23.1930   39.7390 H   0  0  0  0  0  0  0  0  0  0  0  0
   37.1850   24.5280   38.9660 H   0  0  0  0  0  0  0  0  0  0  0  0
   36.6860   25.8430   32.5490 O   0  0  0  0  0  0  0  0  0  0  0  0
   37.4280   24.3880   30.5870 O   0  0  0  0  0  0  0  0  0  0  0  0
   36.1520   24.9320   31.2230 P   0  0  2  0  0  0  0  0  0  0  0  0
   35.3210   25.9630   30.1600 O   0  0  0  0  0  0  0  0  0  0  0  0
   34.7480   25.3750   29.5810 H   0  0  0  0  0  0  0  0  0  0  0  0
   35.1260   23.6590   31.7040 O   0  0  0  0  0  0  0  0  0  0  0  0
   35.9330   22.5410   31.8210 C   0  0  0  0  0  2  0  0  0  0  0  0
   35.1420   21.2990   32.2130 C   0  0  0  0  0  2  0  0  0  0  0  0
   34.4910   21.5190   33.0840 H   0  0  0  0  0  0  0  0  0  0  0  0
  1  5  1  0  0  0  0
  2  1  1  0  0  0  0
  3  1  1  0  0  0  0
  4 10  1  0  0  0  0
  5  4  2  0  0  0  0
  6 12  1  0  0  0  0
  6  7  1  0  0  0  0
  7 13  1  0  0  0  0
  8  7  2  0  0  0  0
  8 14  1  0  0  0  0
  9  8  1  0  0  0  0
 10 11  1  0  0  0  0
 10  9  2  0  0  0  0
 11  6  2  0  0  0  0
 15  1  1  0  0  0  0
 17 16  2  6  0  0  0
 17 20  1  0  0  0  0
 17 15  1  0  0  0  0
 18 17  1  0  0  0  0
 19 18  1  0  0  0  0
 20 21  1  0  0  0  0
 21 22  1  0  0  0  0
 22 23  1  0  0  0  0
M  END
>  <minimizedAffinity>
-4.1856451

$$$$

 OpenBabel03262520343D

 23 23  0  0  0  0  0  0  0  0999 V2000
   38.6300   25.3000   35.9670 C   0  0  0  0  0  0  0  0  0  0  0  0
   39.5190   25.9270   36.2680 H   0  0  0  0  0  0  0  0  0  0  0  0
   39.0330   24.5020   35.3370 H   0  0  0  0  0  0  0  0  0  0  0  0
   37.9250   27.1310   34.4750 C   0  0  0  0  0  3  0  0  0  0  0  0
   37.6490   26.1120   35.2130 C   0  0  0  0  0  3  0  0  0  0  0  0
   35.4780   28.1870   31.9510 C   0  0  0  0  0  0  0  0  0  0  0  0
   34.7270   29.1460   32.6580 C   0  0  0  0  0  0  0  0  0  0  0  0
   35.0800   29.4060   33.9790 C   0  0  0  0  0  0  0  0  0  0  0  0
   36.1350   28.7070   34.5000 N   0  0  0  0  0  0  0  0  0  0  0  0
   36.8190   27.8100   33.8040 C   0  0  0  0  0  0  0  0  0  0  0  0
   36.4980   27.5430   32.5280 N   0  0  0  0  0  0  0  0  0  0  0  0
   35.2310   27.9530   30.9020 H   0  0  0  0  0  0  0  0  0  0  0  0
   33.9010   29.6600   32.1700 H   0  0  0  0  0  0  0  0  0  0  0  0
   34.5340   30.1340   34.5630 H   0  0  0  0  0  0  0  0  0  0  0  0
   38.0970   24.8530   37.1870 O   0  0  0  0  0  0  0  0  0  0  0  0
   37.1670   22.5470   36.6080 O   0  0  0  0  0  0  0  0  0  0  0  0
   38.3700   23.1840   37.2990 P   0  0  2  0  0  0  0  0  0  0  0  0
   38.4360   22.7580   38.9420 O   0  0  0  0  0  0  0  0  0  0  0  0
   38.9130   21.8750   38.9900 H   0  0  0  0  0  0  0  0  0  0  0  0
   39.8200   22.7280   36.5310 O   0  0  0  0  0  0  0  0  0  0  0  0
   40.7050   22.4050   37.5450 C   0  0  0  0  0  2  0  0  0  0  0  0
   41.7510   21.3920   37.0950 C   0  0  0  0  0  2  0  0  0  0  0  0
   41.2610   20.5350   36.5900 H   0  0  0  0  0  0  0  0  0  0  0  0
  1  2  1  0  0  0  0
  1 15  1  0  0  0  0
  3  1  1  0  0  0  0
  4  5  2  0  0  0  0
  5  1  1  0  0  0  0
  6 11  2  0  0  0  0
  6  7  1  0  0  0  0
  7  8  2  0  0  0  0
  8  9  1  0  0  0  0
  8 14  1  0  0  0  0
 10  4  1  0  0  0  0
 10  9  2  0  0  0  0
 11 10  1  0  0  0  0
 12  6  1  0  0  0  0
 13  7  1  0  0  0  0
 15 17  1  0  0  0  0
 17 16  2  6  0  0  0
 17 18  1  0  0  0  0
 18 19  1  0  0  0  0
 20 17  1  0  0  0  0
 20 21  1  0  0  0  0
 22 21  1  0  0  0  0
 23 22  1  0  0  0  0
M  END
>  <minimizedAffinity>
-4.16754913

$$$$

 OpenBabel03262520343D

 23 23  0  0  0  0  0  0  0  0999 V2000
   38.6740   25.4900   36.0460 C   0  0  0  0  0  0  0  0  0  0  0  0
   38.9470   26.5430   36.3470 H   0  0  0  0  0  0  0  0  0  0  0  0
   39.6170   25.0080   35.7750 H   0  0  0  0  0  0  0  0  0  0  0  0
   38.0770   25.3220   33.6600 C   0  0  0  0  0  3  0  0  0  0  0  0
   37.7470   25.5000   34.8920 C   0  0  0  0  0  3  0  0  0  0  0  0
   35.5650   26.5270   31.2700 C   0  0  0  0  0  0  0  0  0  0  0  0
   35.0350   25.3200   30.7730 C   0  0  0  0  0  0  0  0  0  0  0  0
   35.5510   24.1260   31.2710 C   0  0  0  0  0  0  0  0  0  0  0  0
   36.5420   24.2110   32.2110 N   0  0  0  0  0  0  0  0  0  0  0  0
   37.0170   25.3660   32.6540 C   0  0  0  0  0  0  0  0  0  0  0  0
   36.5360   26.5300   32.1900 N   0  0  0  0  0  0  0  0  0  0  0  0
   35.1830   27.4920   30.9010 H   0  0  0  0  0  0  0  0  0  0  0  0
   34.2450   25.3380   30.0240 H   0  0  0  0  0  0  0  0  0  0  0  0
   35.1760   23.1750   30.9210 H   0  0  0  0  0  0  0  0  0  0  0  0
   38.0640   24.9520   37.1910 O   0  0  0  0  0  0  0  0  0  0  0  0
   37.1330   22.6060   36.8090 O   0  0  0  0  0  0  0  0  0  0  0  0
   38.4210   23.2960   37.2480 P   0  0  2  0  0  0  0  0  0  0  0  0
   38.8280   22.8880   38.8450 O   0  0  0  0  0  0  0  0  0  0  0  0
   39.3400   22.0250   38.7980 H   0  0  0  0  0  0  0  0  0  0  0  0
   39.7090   22.8920   36.2090 O   0  0  0  0  0  0  0  0  0  0  0  0
   40.5370   22.0540   36.9330 C   0  0  0  0  0  2  0  0  0  0  0  0
   42.0060   22.4330   36.7930 C   0  0  0  0  0  2  0  0  0  0  0  0
   42.2670   22.5630   35.7230 H   0  0  0  0  0  0  0  0  0  0  0  0
  1  2  1  0  0  0  0
  1 15  1  0  0  0  0
  3  1  1  0  0  0  0
  4  5  2  0  0  0  0
  5  1  1  0  0  0  0
  6 11  1  0  0  0  0
  7  6  2  0  0  0  0
  7  8  1  0  0  0  0
  8  9  2  0  0  0  0
  9 10  1  0  0  0  0
 10  4  1  0  0  0  0
 11 10  2  0  0  0  0
 12  6  1  0  0  0  0
 13  7  1  0  0  0  0
 14  8  1  0  0  0  0
 15 17  1  0  0  0  0
 17 16  2  6  0  0  0
 17 18  1  0  0  0  0
 19 18  1  0  0  0  0
 20 21  1  0  0  0  0
 20 17  1  0  0  0  0
 22 21  1  0  0  0  0
 23 22  1  0  0  0  0
M  END
>  <minimizedAffinity>
-4.14239883

$$$$

 OpenBabel03262520343D

 23 23  0  0  0  0  0  0  0  0999 V2000
   37.5650   27.0690   33.4860 C   0  0  0  0  0  0  0  0  0  0  0  0
   38.4410   27.0430   32.7740 H   0  0  0  0  0  0  0  0  0  0  0  0
   37.4220   28.1230   33.7380 H   0  0  0  0  0  0  0  0  0  0  0  0
   38.2140   25.0420   34.7290 C   0  0  0  0  0  3  0  0  0  0  0  0
   37.8560   26.2790   34.7030 C   0  0  0  0  0  3  0  0  0  0  0  0
   37.9970   24.1760   38.2890 C   0  0  0  0  0  0  0  0  0  0  0  0
   39.0140   23.2100   38.4150 C   0  0  0  0  0  0  0  0  0  0  0  0
   39.7480   22.8820   37.2780 C   0  0  0  0  0  0  0  0  0  0  0  0
   39.4260   23.5240   36.1130 N   0  0  0  0  0  0  0  0  0  0  0  0
   38.4600   24.4280   36.0320 C   0  0  0  0  0  0  0  0  0  0  0  0
   37.7390   24.7610   37.1150 N   0  0  0  0  0  0  0  0  0  0  0  0
   37.3940   24.4630   39.1660 H   0  0  0  0  0  0  0  0  0  0  0  0
   39.2080   22.7450   39.3800 H   0  0  0  0  0  0  0  0  0  0  0  0
   40.5390   22.1460   37.3250 H   0  0  0  0  0  0  0  0  0  0  0  0
   36.5090   26.5080   32.7490 O   0  0  0  0  0  0  0  0  0  0  0  0
   38.5470   26.5740   31.2130 O   0  0  0  0  0  0  0  0  0  0  0  0
   37.0650   26.2080   31.1770 P   0  0  2  0  0  0  0  0  0  0  0  0
   36.2080   27.2060   30.1030 O   0  0  0  0  0  0  0  0  0  0  0  0
   36.3030   26.7940   29.1920 H   0  0  0  0  0  0  0  0  0  0  0  0
   36.8550   24.5770   30.7330 O   0  0  0  0  0  0  0  0  0  0  0  0
   35.8190   24.0980   31.5150 C   0  0  0  0  0  2  0  0  0  0  0  0
   35.6990   22.5810   31.4470 C   0  0  0  0  0  2  0  0  0  0  0  0
   35.7020   22.2440   30.3900 H   0  0  0  0  0  0  0  0  0  0  0  0
  1  3  1  0  0  0  0
  1  5  1  0  0  0  0
  2  1  1  0  0  0  0
  4 10  1  0  0  0  0
  5  4  2  0  0  0  0
  6  7  1  0  0  0  0
  6 12  1  0  0  0  0
  7 13  1  0  0  0  0
  8 14  1  0  0  0  0
  8  7  2  0  0  0  0
  9  8  1  0  0  0  0
 10  9  2  0  0  0  0
 10 11  1  0  0  0  0
 11  6  2  0  0  0  0
 15  1  1  0  0  0  0
 17 16  2  6  0  0  0
 17 15  1  0  0  0  0
 18 17  1  0  0  0  0
 19 18  1  0  0  0  0
 20 17  1  0  0  0  0
 20 21  1  0  0  0  0
 22 21  1  0  0  0  0
 23 22  1  0  0  0  0
M  END
>  <minimizedAffinity>
-4.06452942

$$$$

 OpenBabel03262520343D

 23 23  0  0  0  0  0  0  0  0999 V2000
   35.4070   25.2040   31.0480 C   0  0  0  0  0  0  0  0  0  0  0  0
   34.8870   25.8730   31.7930 H   0  0  0  0  0  0  0  0  0  0  0  0
   34.8670   25.3370   30.1060 H   0  0  0  0  0  0  0  0  0  0  0  0
   36.1790   22.8650   31.1510 C   0  0  0  0  0  3  0  0  0  0  0  0
   35.3480   23.7910   31.4850 C   0  0  0  0  0  3  0  0  0  0  0  0
   35.7790   19.2260   31.4230 C   0  0  0  0  0  0  0  0  0  0  0  0
   35.5290   19.0640   32.7990 C   0  0  0  0  0  0  0  0  0  0  0  0
   35.5030   20.2050   33.5970 C   0  0  0  0  0  0  0  0  0  0  0  0
   35.7240   21.4090   32.9840 N   0  0  0  0  0  0  0  0  0  0  0  0
   35.9580   21.5220   31.6840 C   0  0  0  0  0  0  0  0  0  0  0  0
   35.9870   20.4370   30.8940 N   0  0  0  0  0  0  0  0  0  0  0  0
   35.8080   18.3480   30.7580 H   0  0  0  0  0  0  0  0  0  0  0  0
   35.3620   18.0700   33.2100 H   0  0  0  0  0  0  0  0  0  0  0  0
   35.3140   20.1310   34.6590 H   0  0  0  0  0  0  0  0  0  0  0  0
   36.7280   25.6790   31.0220 O   0  0  0  0  0  0  0  0  0  0  0  0
   35.4220   27.7080   31.8570 O   0  0  0  0  0  0  0  0  0  0  0  0
   36.6780   27.3730   31.0570 P   0  0  2  0  0  0  0  0  0  0  0  0
   36.5650   27.9410   29.4610 O   0  0  0  0  0  0  0  0  0  0  0  0
   36.8650   28.9000   29.4770 H   0  0  0  0  0  0  0  0  0  0  0  0
   38.0630   28.0300   31.8020 O   0  0  0  0  0  0  0  0  0  0  0  0
   38.7760   26.9540   32.3000 C   0  0  0  0  0  2  0  0  0  0  0  0
   38.8150   26.9440   33.8230 C   0  0  0  0  0  2  0  0  0  0  0  0
   39.1160   27.9410   34.2040 H   0  0  0  0  0  0  0  0  0  0  0  0
  1  5  1  0  0  0  0
  1  2  1  0  0  0  0
  3  1  1  0  0  0  0
  4  5  2  0  0  0  0
  4 10  1  0  0  0  0
  6  7  1  0  0  0  0
  7 13  1  0  0  0  0
  7  8  2  0  0  0  0
  8 14  1  0  0  0  0
  9  8  1  0  0  0  0
 10  9  2  0  0  0  0
 11  6  2  0  0  0  0
 11 10  1  0  0  0  0
 12  6  1  0  0  0  0
 15  1  1  0  0  0  0
 15 17  1  0  0  0  0
 17 20  1  0  0  0  0
 17 16  2  1  0  0  0
 18 19  1  0  0  0  0
 18 17  1  0  0  0  0
 20 21  1  0  0  0  0
 21 22  1  0  0  0  0
 22 23  1  0  0  0  0
M  END
>  <minimizedAffinity>
-4.0428319

$$$$

 OpenBabel03262520343D

 23 23  0  0  0  0  0  0  0  0999 V2000
   37.3980   25.0050   32.1910 C   0  0  0  0  0  0  0  0  0  0  0  0
   36.3170   24.7770   31.9550 H   0  0  0  0  0  0  0  0  0  0  0  0
   37.9850   24.3690   31.5230 H   0  0  0  0  0  0  0  0  0  0  0  0
   38.5190   23.7840   34.0160 C   0  0  0  0  0  3  0  0  0  0  0  0
   37.7010   24.6900   33.6060 C   0  0  0  0  0  3  0  0  0  0  0  0
   39.8240   22.7770   37.2960 C   0  0  0  0  0  0  0  0  0  0  0  0
   38.9020   23.3800   38.1730 C   0  0  0  0  0  0  0  0  0  0  0  0
   37.8580   24.1150   37.6180 C   0  0  0  0  0  0  0  0  0  0  0  0
   37.8020   24.2000   36.2520 N   0  0  0  0  0  0  0  0  0  0  0  0
   38.6900   23.6190   35.4580 C   0  0  0  0  0  0  0  0  0  0  0  0
   39.7050   22.9050   35.9700 N   0  0  0  0  0  0  0  0  0  0  0  0
   40.6650   22.1880   37.6960 H   0  0  0  0  0  0  0  0  0  0  0  0
   39.0170   23.2650   39.2490 H   0  0  0  0  0  0  0  0  0  0  0  0
   37.1250   24.5960   38.2490 H   0  0  0  0  0  0  0  0  0  0  0  0
   37.5230   26.3790   31.9320 O   0  0  0  0  0  0  0  0  0  0  0  0
   35.2600   25.6420   31.0100 O   0  0  0  0  0  0  0  0  0  0  0  0
   36.0940   26.9070   31.1900 P   0  0  2  0  0  0  0  0  0  0  0  0
   36.4900   27.6050   29.6940 O   0  0  0  0  0  0  0  0  0  0  0  0
   35.7130   28.1880   29.4350 H   0  0  0  0  0  0  0  0  0  0  0  0
   35.2670   28.0460   32.1510 O   0  0  0  0  0  0  0  0  0  0  0  0
   36.2410   28.7290   32.8580 C   0  0  0  0  0  2  0  0  0  0  0  0
   35.8560   28.9350   34.3170 C   0  0  0  0  0  2  0  0  0  0  0  0
   34.8280   29.3480   34.3880 H   0  0  0  0  0  0  0  0  0  0  0  0
  1  5  1  0  0  0  0
  2  1  1  0  0  0  0
  3  1  1  0  0  0  0
  4 10  1  0  0  0  0
  5  4  2  0  0  0  0
  6 12  1  0  0  0  0
  6  7  1  0  0  0  0
  7 13  1  0  0  0  0
  8  7  2  0  0  0  0
  8 14  1  0  0  0  0
  9  8  1  0  0  0  0
 10 11  1  0  0  0  0
 10  9  2  0  0  0  0
 11  6  2  0  0  0  0
 15  1  1  0  0  0  0
 17 16  2  6  0  0  0
 17 15  1  0  0  0  0
 17 20  1  0  0  0  0
 18 17  1  0  0  0  0
 19 18  1  0  0  0  0
 20 21  1  0  0  0  0
 21 22  1  0  0  0  0
 22 23  1  0  0  0  0
M  END
>  <minimizedAffinity>
-3.91378164

$$$$

 OpenBabel03262520343D

 23 23  0  0  0  0  0  0  0  0999 V2000
   37.1520   27.5620   34.0330 C   0  0  0  0  0  0  0  0  0  0  0  0
   36.8710   27.0130   33.0870 H   0  0  0  0  0  0  0  0  0  0  0  0
   38.0070   28.1890   33.7660 H   0  0  0  0  0  0  0  0  0  0  0  0
   38.2070   25.5260   34.9390 C   0  0  0  0  0  3  0  0  0  0  0  0
   37.5240   26.6060   35.1000 C   0  0  0  0  0  3  0  0  0  0  0  0
   38.0790   24.1000   38.3190 C   0  0  0  0  0  0  0  0  0  0  0  0
   39.0730   23.1050   38.2520 C   0  0  0  0  0  0  0  0  0  0  0  0
   39.7620   22.9500   37.0520 C   0  0  0  0  0  0  0  0  0  0  0  0
   39.4210   23.7790   36.0170 N   0  0  0  0  0  0  0  0  0  0  0  0
   38.4770   24.7040   36.1170 C   0  0  0  0  0  0  0  0  0  0  0  0
   37.8000   24.8730   37.2630 N   0  0  0  0  0  0  0  0  0  0  0  0
   37.5110   24.2540   39.2510 H   0  0  0  0  0  0  0  0  0  0  0  0
   39.2850   22.4860   39.1220 H   0  0  0  0  0  0  0  0  0  0  0  0
   40.5340   22.2000   36.9520 H   0  0  0  0  0  0  0  0  0  0  0  0
   35.9950   28.2830   34.3690 O   0  0  0  0  0  0  0  0  0  0  0  0
   34.1940   28.9300   32.6790 O   0  0  0  0  0  0  0  0  0  0  0  0
   35.6200   29.3080   33.0720 P   0  0  2  0  0  0  0  0  0  0  0  0
   36.7120   29.0010   31.8100 O   0  0  0  0  0  0  0  0  0  0  0  0
   36.6930   29.8090   31.2120 H   0  0  0  0  0  0  0  0  0  0  0  0
   35.7090   30.9490   33.5200 O   0  0  0  0  0  0  0  0  0  0  0  0
   35.1030   31.0410   34.7600 C   0  0  0  0  0  2  0  0  0  0  0  0
   36.0720   31.4990   35.8430 C   0  0  0  0  0  2  0  0  0  0  0  0
   37.0030   30.8950   35.8030 H   0  0  0  0  0  0  0  0  0  0  0  0
  1 15  1  0  0  0  0
  1  5  1  0  0  0  0
  2  1  1  0  0  0  0
  3  1  1  0  0  0  0
  4  5  2  0  0  0  0
  4 10  1  0  0  0  0
  6 12  1  0  0  0  0
  7  6  1  0  0  0  0
  7 13  1  0  0  0  0
  8  7  2  0  0  0  0
  9 10  2  0  0  0  0
  9  8  1  0  0  0  0
 10 11  1  0  0  0  0
 11  6  2  0  0  0  0
 14  8  1  0  0  0  0
 17 16  2  6  0  0  0
 17 20  1  0  0  0  0
 17 15  1  0  0  0  0
 18 17  1  0  0  0  0
 19 18  1  0  0  0  0
 20 21  1  0  0  0  0
 21 22  1  0  0  0  0
 23 22  1  0  0  0  0
M  END
>  <minimizedAffinity>
-3.87294841

$$$$

 OpenBabel03262520343D

 23 23  0  0  0  0  0  0  0  0999 V2000
   37.9810   22.9940   32.3300 C   0  0  0  0  0  0  0  0  0  0  0  0
   38.9410   23.1780   31.7650 H   0  0  0  0  0  0  0  0  0  0  0  0
   37.2720   23.7370   31.9550 H   0  0  0  0  0  0  0  0  0  0  0  0
   38.7290   22.3040   34.5760 C   0  0  0  0  0  3  0  0  0  0  0  0
   38.1900   23.1670   33.7860 C   0  0  0  0  0  3  0  0  0  0  0  0
   40.0580   22.7720   37.9650 C   0  0  0  0  0  0  0  0  0  0  0  0
   38.9590   23.3490   38.6310 C   0  0  0  0  0  0  0  0  0  0  0  0
   37.7920   23.5620   37.9010 C   0  0  0  0  0  0  0  0  0  0  0  0
   37.7970   23.1940   36.5820 N   0  0  0  0  0  0  0  0  0  0  0  0
   38.8520   22.6530   35.9900 C   0  0  0  0  0  0  0  0  0  0  0  0
   39.9880   22.4380   36.6720 N   0  0  0  0  0  0  0  0  0  0  0  0
   40.9990   22.5870   38.5080 H   0  0  0  0  0  0  0  0  0  0  0  0
   39.0360   23.6140   39.6830 H   0  0  0  0  0  0  0  0  0  0  0  0
   36.9220   24.0020   38.3670 H   0  0  0  0  0  0  0  0  0  0  0  0
   37.6450   21.6680   32.0130 O   0  0  0  0  0  0  0  0  0  0  0  0
   35.9440   20.5450   30.4760 O   0  0  0  0  0  0  0  0  0  0  0  0
   36.0180   21.6380   31.5390 P   0  0  2  0  0  0  0  0  0  0  0  0
   35.6170   23.1560   30.8930 O   0  0  0  0  0  0  0  0  0  0  0  0
   34.6150   23.2270   30.9300 H   0  0  0  0  0  0  0  0  0  0  0  0
   34.9860   21.2820   32.8460 O   0  0  0  0  0  0  0  0  0  0  0  0
   35.6440   20.3300   33.6050 C   0  0  0  0  0  2  0  0  0  0  0  0
   35.6130   20.6570   35.0930 C   0  0  0  0  0  2  0  0  0  0  0  0
   35.9250   21.7080   35.2600 H   0  0  0  0  0  0  0  0  0  0  0  0
  1  5  1  0  0  0  0
  2  1  1  0  0  0  0
  3  1  1  0  0  0  0
  4 10  1  0  0  0  0
  5  4  2  0  0  0  0
  6 12  1  0  0  0  0
  6  7  1  0  0  0  0
  7 13  1  0  0  0  0
  8 14  1  0  0  0  0
  8  7  2  0  0  0  0
  9  8  1  0  0  0  0
 10  9  2  0  0  0  0
 10 11  1  0  0  0  0
 11  6  2  0  0  0  0
 15  1  1  0  0  0  0
 17 16  2  6  0  0  0
 17 15  1  0  0  0  0
 17 20  1  0  0  0  0
 18 19  1  0  0  0  0
 18 17  1  0  0  0  0
 20 21  1  0  0  0  0
 21 22  1  0  0  0  0
 22 23  1  0  0  0  0
M  END
>  <minimizedAffinity>
-3.82579112

$$$$

 OpenBabel03262520343D

 23 23  0  0  0  0  0  0  0  0999 V2000
   38.2050   25.5160   36.3530 C   0  0  0  0  0  0  0  0  0  0  0  0
   37.2970   24.8860   36.5850 H   0  0  0  0  0  0  0  0  0  0  0  0
   38.3190   26.1910   37.2050 H   0  0  0  0  0  0  0  0  0  0  0  0
   36.9940   27.0440   34.8440 C   0  0  0  0  0  3  0  0  0  0  0  0
   38.0020   26.2860   35.1050 C   0  0  0  0  0  3  0  0  0  0  0  0
   37.7770   28.0700   31.4080 C   0  0  0  0  0  0  0  0  0  0  0  0
   36.8190   29.0770   31.1800 C   0  0  0  0  0  0  0  0  0  0  0  0
   35.9320   29.3790   32.2100 C   0  0  0  0  0  0  0  0  0  0  0  0
   36.0530   28.6710   33.3750 N   0  0  0  0  0  0  0  0  0  0  0  0
   36.9680   27.7280   33.5530 C   0  0  0  0  0  0  0  0  0  0  0  0
   37.8350   27.4200   32.5750 N   0  0  0  0  0  0  0  0  0  0  0  0
   38.4970   27.8020   30.6180 H   0  0  0  0  0  0  0  0  0  0  0  0
   36.7890   29.5950   30.2240 H   0  0  0  0  0  0  0  0  0  0  0  0
   35.1790   30.1440   32.0830 H   0  0  0  0  0  0  0  0  0  0  0  0
   39.2450   24.5820   36.2170 O   0  0  0  0  0  0  0  0  0  0  0  0
   37.2290   23.3380   37.1690 O   0  0  0  0  0  0  0  0  0  0  0  0
   38.6790   23.0820   36.7680 P   0  0  2  0  0  0  0  0  0  0  0  0
   39.6160   22.6100   38.1030 O   0  0  0  0  0  0  0  0  0  0  0  0
   39.4970   21.6170   38.1990 H   0  0  0  0  0  0  0  0  0  0  0  0
   38.7700   21.8890   35.5550 O   0  0  0  0  0  0  0  0  0  0  0  0
   37.6080   22.0080   34.8130 C   0  0  0  0  0  2  0  0  0  0  0  0
   37.8250   22.7910   33.5250 C   0  0  0  0  0  2  0  0  0  0  0  0
   38.3610   23.7390   33.7380 H   0  0  0  0  0  0  0  0  0  0  0  0
  1  2  1  0  0  0  0
  1  3  1  0  0  0  0
  4  5  2  0  0  0  0
  5  1  1  0  0  0  0
  6 11  1  0  0  0  0
  7  6  2  0  0  0  0
  7  8  1  0  0  0  0
  8  9  2  0  0  0  0
  9 10  1  0  0  0  0
 10  4  1  0  0  0  0
 11 10  2  0  0  0  0
 12  6  1  0  0  0  0
 13  7  1  0  0  0  0
 14  8  1  0  0  0  0
 15  1  1  0  0  0  0
 15 17  1  0  0  0  0
 17 16  2  1  0  0  0
 17 18  1  0  0  0  0
 18 19  1  0  0  0  0
 20 17  1  0  0  0  0
 21 20  1  0  0  0  0
 22 23  1  0  0  0  0
 22 21  1  0  0  0  0
M  END
>  <minimizedAffinity>
-3.7992177

$$$$
