
 OpenBabel03272509193D

 27 28  0  0  0  0  0  0  0  0999 V2000
   38.0710   24.7580   34.1000 C   0  0  0  0  0  0  0  0  0  0  0  0
   38.8310   25.0600   35.2140 C   0  0  0  0  0  0  0  0  0  0  0  0
   38.7930   26.4070   35.5680 C   0  0  0  0  0  0  0  0  0  0  0  0
   38.0490   27.3420   34.8500 C   0  0  0  0  0  0  0  0  0  0  0  0
   37.3110   26.9310   33.7320 C   0  0  0  0  0  0  0  0  0  0  0  0
   37.3380   25.6120   33.3730 C   0  0  0  0  0  0  0  0  0  0  0  0
   39.3600   26.7370   36.4310 H   0  0  0  0  0  0  0  0  0  0  0  0
   38.0290   28.3840   35.1370 H   0  0  0  0  0  0  0  0  0  0  0  0
   36.7320   27.6530   33.1720 H   0  0  0  0  0  0  0  0  0  0  0  0
   40.8930   23.7790   35.5540 C   0  0  0  0  0  0  0  0  0  0  0  0
   39.5950   24.1010   35.9510 C   0  0  0  0  0  0  0  0  0  0  0  0
   39.0780   23.4550   37.0830 C   0  0  0  0  0  0  0  0  0  0  0  0
   39.8680   22.5600   37.7230 N   0  0  0  0  0  0  0  0  0  0  0  0
   41.1290   22.2730   37.3070 C   0  0  0  0  0  0  0  0  0  0  0  0
   41.6380   22.8840   36.2210 N   0  0  0  0  0  0  0  0  0  0  0  0
   41.2730   24.2890   34.6770 H   0  0  0  0  0  0  0  0  0  0  0  0
   41.7290   21.5510   37.8450 H   0  0  0  0  0  0  0  0  0  0  0  0
   37.7150   23.7500   37.5550 C   0  0  0  0  0  0  0  0  0  0  0  0
   37.3610   24.6810   37.0690 H   0  0  0  0  0  0  0  0  0  0  0  0
   36.9780   22.9470   37.3750 H   0  0  0  0  0  0  0  0  0  0  0  0
   37.8100   23.9270   38.6640 H   0  0  0  0  0  0  0  0  0  0  0  0
   38.0430   23.4080   33.6560 O   0  0  0  0  0  0  0  0  0  0  0  0
   37.2920   22.7830   33.9340 H   0  0  0  0  0  0  0  0  0  0  0  0
   36.5890   25.2310   32.2530 O   0  0  0  0  0  0  0  0  0  0  0  0
   35.8630   26.1280   31.4740 C   0  0  0  0  0  2  0  0  0  0  0  0
   34.7560   25.3510   30.7530 C   0  0  0  0  0  2  0  0  0  0  0  0
   33.9300   25.1370   31.4510 H   0  0  0  0  0  0  0  0  0  0  0  0
  1  2  1  0  0  0  0
  2  3  2  0  0  0  0
  2 11  1  0  0  0  0
  3  7  1  0  0  0  0
  4  8  1  0  0  0  0
  4  3  1  0  0  0  0
  5  4  2  0  0  0  0
  6  5  1  0  0  0  0
  6  1  2  0  0  0  0
  9  5  1  0  0  0  0
 10 11  2  0  0  0  0
 10 15  1  0  0  0  0
 11 12  1  0  0  0  0
 12 18  1  0  0  0  0
 12 13  2  0  0  0  0
 14 13  1  0  0  0  0
 14 17  1  0  0  0  0
 15 14  2  0  0  0  0
 16 10  1  0  0  0  0
 18 21  1  0  0  0  0
 19 18  1  0  0  0  0
 20 18  1  0  0  0  0
 22 23  1  0  0  0  0
 22  1  1  0  0  0  0
 24  6  1  0  0  0  0
 25 24  1  0  0  0  0
 26 27  1  0  0  0  0
 26 25  1  0  0  0  0
M  END
>  <minimizedAffinity>
-4.75143623

$$$$

 OpenBabel03272509193D

 27 28  0  0  0  0  0  0  0  0999 V2000
   37.9920   24.9830   34.0160 C   0  0  0  0  0  0  0  0  0  0  0  0
   38.6040   25.2500   35.2270 C   0  0  0  0  0  0  0  0  0  0  0  0
   38.4220   26.5590   35.6680 C   0  0  0  0  0  0  0  0  0  0  0  0
   37.6870   27.4930   34.9390 C   0  0  0  0  0  0  0  0  0  0  0  0
   37.1060   27.1190   33.7190 C   0  0  0  0  0  0  0  0  0  0  0  0
   37.2760   25.8370   33.2730 C   0  0  0  0  0  0  0  0  0  0  0  0
   38.8660   26.8600   36.6100 H   0  0  0  0  0  0  0  0  0  0  0  0
   37.5550   28.5050   35.2940 H   0  0  0  0  0  0  0  0  0  0  0  0
   36.5350   27.8400   33.1490 H   0  0  0  0  0  0  0  0  0  0  0  0
   38.7710   23.6130   37.0430 C   0  0  0  0  0  0  0  0  0  0  0  0
   39.3580   24.2930   35.9750 C   0  0  0  0  0  0  0  0  0  0  0  0
   40.6960   24.0020   35.6720 C   0  0  0  0  0  0  0  0  0  0  0  0
   41.3370   23.0810   36.4310 N   0  0  0  0  0  0  0  0  0  0  0  0
   40.7310   22.4390   37.4640 C   0  0  0  0  0  0  0  0  0  0  0  0
   39.4470   22.7080   37.7670 N   0  0  0  0  0  0  0  0  0  0  0  0
   37.7370   23.8520   37.2600 H   0  0  0  0  0  0  0  0  0  0  0  0
   41.2770   21.7100   38.0480 H   0  0  0  0  0  0  0  0  0  0  0  0
   41.3740   24.6840   34.5580 C   0  0  0  0  0  0  0  0  0  0  0  0
   40.6120   25.1730   33.9190 H   0  0  0  0  0  0  0  0  0  0  0  0
   42.1260   25.4340   34.8610 H   0  0  0  0  0  0  0  0  0  0  0  0
   41.8800   23.8670   33.9660 H   0  0  0  0  0  0  0  0  0  0  0  0
   38.1190   23.6740   33.4790 O   0  0  0  0  0  0  0  0  0  0  0  0
   37.3950   22.9780   33.6260 H   0  0  0  0  0  0  0  0  0  0  0  0
   36.6830   25.4940   32.0530 O   0  0  0  0  0  0  0  0  0  0  0  0
   35.7280   26.2800   31.4150 C   0  0  0  0  0  2  0  0  0  0  0  0
   34.6890   25.3510   30.7770 C   0  0  0  0  0  2  0  0  0  0  0  0
   34.0010   24.9680   31.5490 H   0  0  0  0  0  0  0  0  0  0  0  0
  1  2  1  0  0  0  0
  2  3  2  0  0  0  0
  2 11  1  0  0  0  0
  3  7  1  0  0  0  0
  4  8  1  0  0  0  0
  4  3  1  0  0  0  0
  5  4  2  0  0  0  0
  6  5  1  0  0  0  0
  6  1  2  0  0  0  0
  9  5  1  0  0  0  0
 10 16  1  0  0  0  0
 10 15  1  0  0  0  0
 11 10  2  0  0  0  0
 12 11  1  0  0  0  0
 12 13  2  0  0  0  0
 13 14  1  0  0  0  0
 14 15  2  0  0  0  0
 14 17  1  0  0  0  0
 18 20  1  0  0  0  0
 18 12  1  0  0  0  0
 19 18  1  0  0  0  0
 21 18  1  0  0  0  0
 22 23  1  0  0  0  0
 22  1  1  0  0  0  0
 24  6  1  0  0  0  0
 25 24  1  0  0  0  0
 26 25  1  0  0  0  0
 26 27  1  0  0  0  0
M  END
>  <minimizedAffinity>
-4.59551239

$$$$

 OpenBabel03272509193D

 27 28  0  0  0  0  0  0  0  0999 V2000
   37.8010   25.4600   34.0700 C   0  0  0  0  0  0  0  0  0  0  0  0
   37.8130   26.8220   33.8300 C   0  0  0  0  0  0  0  0  0  0  0  0
   38.1050   27.5850   34.9580 C   0  0  0  0  0  0  0  0  0  0  0  0
   38.3570   27.0060   36.2020 C   0  0  0  0  0  0  0  0  0  0  0  0
   38.3180   25.6110   36.3380 C   0  0  0  0  0  0  0  0  0  0  0  0
   38.0340   24.8490   35.2390 C   0  0  0  0  0  0  0  0  0  0  0  0
   38.1370   28.6640   34.8650 H   0  0  0  0  0  0  0  0  0  0  0  0
   38.5820   27.6110   37.0680 H   0  0  0  0  0  0  0  0  0  0  0  0
   38.5130   25.1570   37.3000 H   0  0  0  0  0  0  0  0  0  0  0  0
   36.2700   27.8490   32.2270 C   0  0  0  0  0  0  0  0  0  0  0  0
   37.5550   27.4160   32.5550 C   0  0  0  0  0  0  0  0  0  0  0  0
   38.5660   27.5850   31.5980 C   0  0  0  0  0  0  0  0  0  0  0  0
   38.2360   28.1580   30.4160 N   0  0  0  0  0  0  0  0  0  0  0  0
   36.9720   28.5680   30.1330 C   0  0  0  0  0  0  0  0  0  0  0  0
   35.9910   28.4120   31.0410 N   0  0  0  0  0  0  0  0  0  0  0  0
   35.5040   27.7100   32.9810 H   0  0  0  0  0  0  0  0  0  0  0  0
   36.7480   29.0210   29.1750 H   0  0  0  0  0  0  0  0  0  0  0  0
   39.9430   27.1490   31.8810 C   0  0  0  0  0  0  0  0  0  0  0  0
   40.0460   26.9700   32.9700 H   0  0  0  0  0  0  0  0  0  0  0  0
   40.2650   26.2450   31.3350 H   0  0  0  0  0  0  0  0  0  0  0  0
   40.6010   28.0170   31.5870 H   0  0  0  0  0  0  0  0  0  0  0  0
   37.5120   24.5930   32.9810 O   0  0  0  0  0  0  0  0  0  0  0  0
   38.2610   24.1610   32.4470 H   0  0  0  0  0  0  0  0  0  0  0  0
   38.0050   23.4590   35.4060 O   0  0  0  0  0  0  0  0  0  0  0  0
   38.4400   22.8150   36.5600 C   0  0  0  0  0  2  0  0  0  0  0  0
   39.8220   22.2130   36.2830 C   0  0  0  0  0  2  0  0  0  0  0  0
   40.5910   23.0030   36.3150 H   0  0  0  0  0  0  0  0  0  0  0  0
  1  6  1  0  0  0  0
  2  1  2  0  0  0  0
  2  3  1  0  0  0  0
  3  4  2  0  0  0  0
  4  5  1  0  0  0  0
  4  8  1  0  0  0  0
  5  9  1  0  0  0  0
  6 24  1  0  0  0  0
  6  5  2  0  0  0  0
  7  3  1  0  0  0  0
 10 11  1  0  0  0  0
 10 16  1  0  0  0  0
 11  2  1  0  0  0  0
 12 18  1  0  0  0  0
 12 11  2  0  0  0  0
 13 12  1  0  0  0  0
 14 13  2  0  0  0  0
 14 15  1  0  0  0  0
 15 10  2  0  0  0  0
 17 14  1  0  0  0  0
 18 19  1  0  0  0  0
 20 18  1  0  0  0  0
 21 18  1  0  0  0  0
 22  1  1  0  0  0  0
 23 22  1  0  0  0  0
 24 25  1  0  0  0  0
 26 27  1  0  0  0  0
 26 25  1  0  0  0  0
M  END
>  <minimizedAffinity>
-4.36419487

$$$$

 OpenBabel03272509193D

 27 28  0  0  0  0  0  0  0  0999 V2000
   35.7320   29.8530   32.6810 C   0  0  0  0  0  0  0  0  0  0  0  0
   35.6990   29.5850   34.0370 C   0  0  0  0  0  0  0  0  0  0  0  0
   36.3080   28.3810   34.3840 C   0  0  0  0  0  0  0  0  0  0  0  0
   36.8900   27.5420   33.4330 C   0  0  0  0  0  0  0  0  0  0  0  0
   36.8690   27.9080   32.0800 C   0  0  0  0  0  0  0  0  0  0  0  0
   36.2750   29.0870   31.7240 C   0  0  0  0  0  0  0  0  0  0  0  0
   36.3310   28.0880   35.4270 H   0  0  0  0  0  0  0  0  0  0  0  0
   37.3590   26.6110   33.7170 H   0  0  0  0  0  0  0  0  0  0  0  0
   37.3180   27.2610   31.3390 H   0  0  0  0  0  0  0  0  0  0  0  0
   35.8870   31.3550   35.7220 C   0  0  0  0  0  0  0  0  0  0  0  0
   35.1030   30.4440   35.0120 C   0  0  0  0  0  0  0  0  0  0  0  0
   33.7290   30.4080   35.2910 C   0  0  0  0  0  0  0  0  0  0  0  0
   33.2460   31.2570   36.2290 N   0  0  0  0  0  0  0  0  0  0  0  0
   34.0410   32.1310   36.9000 C   0  0  0  0  0  0  0  0  0  0  0  0
   35.3620   32.1770   36.6430 N   0  0  0  0  0  0  0  0  0  0  0  0
   36.9450   31.3670   35.4910 H   0  0  0  0  0  0  0  0  0  0  0  0
   33.6170   32.7940   37.6440 H   0  0  0  0  0  0  0  0  0  0  0  0
   32.8470   29.4710   34.5770 C   0  0  0  0  0  0  0  0  0  0  0  0
   33.3810   29.0800   33.6890 H   0  0  0  0  0  0  0  0  0  0  0  0
   32.4860   28.6210   35.1830 H   0  0  0  0  0  0  0  0  0  0  0  0
   31.9650   30.0860   34.2350 H   0  0  0  0  0  0  0  0  0  0  0  0
   35.1360   31.0590   32.2240 O   0  0  0  0  0  0  0  0  0  0  0  0
   35.6970   31.8920   32.0700 H   0  0  0  0  0  0  0  0  0  0  0  0
   36.2710   29.4260   30.3660 O   0  0  0  0  0  0  0  0  0  0  0  0
   37.3630   29.9880   29.7120 C   0  0  0  0  0  2  0  0  0  0  0  0
   37.7720   29.0520   28.5690 C   0  0  0  0  0  2  0  0  0  0  0  0
   37.0790   29.1680   27.7200 H   0  0  0  0  0  0  0  0  0  0  0  0
  1  2  1  0  0  0  0
  2  3  2  0  0  0  0
  2 11  1  0  0  0  0
  3  7  1  0  0  0  0
  4  8  1  0  0  0  0
  4  3  1  0  0  0  0
  5  4  2  0  0  0  0
  6  5  1  0  0  0  0
  6  1  2  0  0  0  0
  9  5  1  0  0  0  0
 10 15  1  0  0  0  0
 11 12  1  0  0  0  0
 11 10  2  0  0  0  0
 12 13  2  0  0  0  0
 13 14  1  0  0  0  0
 14 17  1  0  0  0  0
 15 14  2  0  0  0  0
 16 10  1  0  0  0  0
 18 20  1  0  0  0  0
 18 12  1  0  0  0  0
 19 18  1  0  0  0  0
 21 18  1  0  0  0  0
 22  1  1  0  0  0  0
 23 22  1  0  0  0  0
 24  6  1  0  0  0  0
 25 24  1  0  0  0  0
 26 25  1  0  0  0  0
 27 26  1  0  0  0  0
M  END
>  <minimizedAffinity>
-4.34688568

$$$$

 OpenBabel03272509193D

 27 28  0  0  0  0  0  0  0  0999 V2000
   37.0750   24.0280   32.7120 C   0  0  0  0  0  0  0  0  0  0  0  0
   36.2470   23.3910   31.8070 C   0  0  0  0  0  0  0  0  0  0  0  0
   35.5260   24.2670   30.9970 C   0  0  0  0  0  0  0  0  0  0  0  0
   35.6480   25.6520   31.1100 C   0  0  0  0  0  0  0  0  0  0  0  0
   36.5180   26.1970   32.0650 C   0  0  0  0  0  0  0  0  0  0  0  0
   37.2320   25.3500   32.8660 C   0  0  0  0  0  0  0  0  0  0  0  0
   34.8510   23.8580   30.2560 H   0  0  0  0  0  0  0  0  0  0  0  0
   35.0820   26.3180   30.4750 H   0  0  0  0  0  0  0  0  0  0  0  0
   36.6150   27.2700   32.1560 H   0  0  0  0  0  0  0  0  0  0  0  0
   35.0460   21.3080   32.2800 C   0  0  0  0  0  0  0  0  0  0  0  0
   36.1230   21.9710   31.6910 C   0  0  0  0  0  0  0  0  0  0  0  0
   37.0620   21.2000   30.9920 C   0  0  0  0  0  0  0  0  0  0  0  0
   36.8690   19.8610   30.9300 N   0  0  0  0  0  0  0  0  0  0  0  0
   35.8060   19.2500   31.5160 C   0  0  0  0  0  0  0  0  0  0  0  0
   34.8960   19.9780   32.1910 N   0  0  0  0  0  0  0  0  0  0  0  0
   34.3310   21.9220   32.8150 H   0  0  0  0  0  0  0  0  0  0  0  0
   35.6870   18.1770   31.4450 H   0  0  0  0  0  0  0  0  0  0  0  0
   38.2210   21.8380   30.3470 C   0  0  0  0  0  0  0  0  0  0  0  0
   38.0420   22.9300   30.2860 H   0  0  0  0  0  0  0  0  0  0  0  0
   39.1890   21.6600   30.8500 H   0  0  0  0  0  0  0  0  0  0  0  0
   38.2590   21.4130   29.3030 H   0  0  0  0  0  0  0  0  0  0  0  0
   37.8540   23.2210   33.5860 O   0  0  0  0  0  0  0  0  0  0  0  0
   38.8180   22.9930   33.3620 H   0  0  0  0  0  0  0  0  0  0  0  0
   38.0940   25.9240   33.8080 O   0  0  0  0  0  0  0  0  0  0  0  0
   37.9040   27.1910   34.3510 C   0  0  0  0  0  2  0  0  0  0  0  0
   38.5650   27.2260   35.7330 C   0  0  0  0  0  2  0  0  0  0  0  0
   39.6570   27.3280   35.6260 H   0  0  0  0  0  0  0  0  0  0  0  0
  1  6  1  0  0  0  0
  1 22  1  0  0  0  0
  2  1  2  0  0  0  0
  3  4  2  0  0  0  0
  3  2  1  0  0  0  0
  4  5  1  0  0  0  0
  5  9  1  0  0  0  0
  5  6  2  0  0  0  0
  6 24  1  0  0  0  0
  7  3  1  0  0  0  0
  8  4  1  0  0  0  0
 10 16  1  0  0  0  0
 11  2  1  0  0  0  0
 11 10  2  0  0  0  0
 12 11  1  0  0  0  0
 13 12  2  0  0  0  0
 13 14  1  0  0  0  0
 14 15  2  0  0  0  0
 15 10  1  0  0  0  0
 17 14  1  0  0  0  0
 18 20  1  0  0  0  0
 18 12  1  0  0  0  0
 19 18  1  0  0  0  0
 21 18  1  0  0  0  0
 23 22  1  0  0  0  0
 24 25  1  0  0  0  0
 25 26  1  0  0  0  0
 27 26  1  0  0  0  0
M  END
>  <minimizedAffinity>
-4.31014299

$$$$

 OpenBabel03272509193D

 27 28  0  0  0  0  0  0  0  0999 V2000
   38.0380   26.1160   35.0830 C   0  0  0  0  0  0  0  0  0  0  0  0
   38.5150   24.8520   34.7930 C   0  0  0  0  0  0  0  0  0  0  0  0
   38.0930   24.3640   33.5580 C   0  0  0  0  0  0  0  0  0  0  0  0
   37.2660   25.1040   32.7120 C   0  0  0  0  0  0  0  0  0  0  0  0
   36.8370   26.3800   33.1020 C   0  0  0  0  0  0  0  0  0  0  0  0
   37.2430   26.8710   34.3120 C   0  0  0  0  0  0  0  0  0  0  0  0
   38.4180   23.3800   33.2450 H   0  0  0  0  0  0  0  0  0  0  0  0
   36.9470   24.7130   31.7570 H   0  0  0  0  0  0  0  0  0  0  0  0
   36.1960   26.9570   32.4490 H   0  0  0  0  0  0  0  0  0  0  0  0
   40.7330   24.0150   35.4130 C   0  0  0  0  0  0  0  0  0  0  0  0
   39.3620   24.0930   35.6610 C   0  0  0  0  0  0  0  0  0  0  0  0
   38.8590   23.4100   36.7760 C   0  0  0  0  0  0  0  0  0  0  0  0
   39.7310   22.7150   37.5460 N   0  0  0  0  0  0  0  0  0  0  0  0
   41.0610   22.6620   37.2730 C   0  0  0  0  0  0  0  0  0  0  0  0
   41.5580   23.3130   36.2050 N   0  0  0  0  0  0  0  0  0  0  0  0
   41.1020   24.5510   34.5470 H   0  0  0  0  0  0  0  0  0  0  0  0
   41.7260   22.0960   37.9130 H   0  0  0  0  0  0  0  0  0  0  0  0
   37.4220   23.4520   37.0930 C   0  0  0  0  0  0  0  0  0  0  0  0
   36.9520   24.2740   36.5170 H   0  0  0  0  0  0  0  0  0  0  0  0
   36.8750   22.5140   36.8940 H   0  0  0  0  0  0  0  0  0  0  0  0
   37.3620   23.6930   38.1930 H   0  0  0  0  0  0  0  0  0  0  0  0
   38.4110   26.7030   36.3220 O   0  0  0  0  0  0  0  0  0  0  0  0
   39.1980   27.3430   36.3790 H   0  0  0  0  0  0  0  0  0  0  0  0
   36.8000   28.1490   34.6730 O   0  0  0  0  0  0  0  0  0  0  0  0
   36.0080   28.9470   33.8530 C   0  0  0  0  0  2  0  0  0  0  0  0
   35.4760   30.1160   34.6880 C   0  0  0  0  0  2  0  0  0  0  0  0
   36.2660   30.8720   34.8270 H   0  0  0  0  0  0  0  0  0  0  0  0
  1 22  1  0  0  0  0
  2  1  1  0  0  0  0
  2 11  1  0  0  0  0
  3  2  2  0  0  0  0
  4  5  2  0  0  0  0
  4  3  1  0  0  0  0
  5  6  1  0  0  0  0
  6 24  1  0  0  0  0
  6  1  2  0  0  0  0
  7  3  1  0  0  0  0
  8  4  1  0  0  0  0
  9  5  1  0  0  0  0
 10 11  2  0  0  0  0
 10 15  1  0  0  0  0
 11 12  1  0  0  0  0
 12 18  1  0  0  0  0
 12 13  2  0  0  0  0
 14 13  1  0  0  0  0
 14 17  1  0  0  0  0
 15 14  2  0  0  0  0
 16 10  1  0  0  0  0
 18 21  1  0  0  0  0
 19 18  1  0  0  0  0
 20 18  1  0  0  0  0
 22 23  1  0  0  0  0
 25 24  1  0  0  0  0
 25 26  1  0  0  0  0
 26 27  1  0  0  0  0
M  END
>  <minimizedAffinity>
-4.30933905

$$$$

 OpenBabel03272509193D

 27 28  0  0  0  0  0  0  0  0999 V2000
   37.8110   27.4860   34.9870 C   0  0  0  0  0  0  0  0  0  0  0  0
   38.3270   26.4370   34.2490 C   0  0  0  0  0  0  0  0  0  0  0  0
   37.7530   26.3080   32.9860 C   0  0  0  0  0  0  0  0  0  0  0  0
   36.7530   27.1690   32.5330 C   0  0  0  0  0  0  0  0  0  0  0  0
   36.3000   28.2030   33.3630 C   0  0  0  0  0  0  0  0  0  0  0  0
   36.8540   28.3430   34.6060 C   0  0  0  0  0  0  0  0  0  0  0  0
   38.0950   25.5120   32.3350 H   0  0  0  0  0  0  0  0  0  0  0  0
   36.3180   27.0560   31.5510 H   0  0  0  0  0  0  0  0  0  0  0  0
   35.5250   28.8740   33.0170 H   0  0  0  0  0  0  0  0  0  0  0  0
   39.0160   24.3650   35.3620 C   0  0  0  0  0  0  0  0  0  0  0  0
   39.3510   25.5540   34.7130 C   0  0  0  0  0  0  0  0  0  0  0  0
   40.7130   25.8410   34.5370 C   0  0  0  0  0  0  0  0  0  0  0  0
   41.6180   24.9500   35.0060 N   0  0  0  0  0  0  0  0  0  0  0  0
   41.2530   23.8020   35.6340 C   0  0  0  0  0  0  0  0  0  0  0  0
   39.9500   23.5130   35.8100 N   0  0  0  0  0  0  0  0  0  0  0  0
   37.9590   24.1620   35.4870 H   0  0  0  0  0  0  0  0  0  0  0  0
   42.0070   23.1150   35.9950 H   0  0  0  0  0  0  0  0  0  0  0  0
   41.1340   27.0780   33.8600 C   0  0  0  0  0  0  0  0  0  0  0  0
   40.2620   27.5110   33.3280 H   0  0  0  0  0  0  0  0  0  0  0  0
   41.5680   27.8460   34.5240 H   0  0  0  0  0  0  0  0  0  0  0  0
   41.9060   26.7600   33.1010 H   0  0  0  0  0  0  0  0  0  0  0  0
   38.3310   27.7020   36.2920 O   0  0  0  0  0  0  0  0  0  0  0  0
   39.0690   28.3820   36.4520 H   0  0  0  0  0  0  0  0  0  0  0  0
   36.3820   29.3860   35.4110 O   0  0  0  0  0  0  0  0  0  0  0  0
   35.6950   30.4890   34.9140 C   0  0  0  0  0  2  0  0  0  0  0  0
   36.0000   31.6910   35.8140 C   0  0  0  0  0  2  0  0  0  0  0  0
   37.0030   32.0890   35.5850 H   0  0  0  0  0  0  0  0  0  0  0  0
  1 22  1  0  0  0  0
  2 11  1  0  0  0  0
  2  1  2  0  0  0  0
  3  2  1  0  0  0  0
  4  3  2  0  0  0  0
  4  5  1  0  0  0  0
  5  6  2  0  0  0  0
  6  1  1  0  0  0  0
  6 24  1  0  0  0  0
  7  3  1  0  0  0  0
  8  4  1  0  0  0  0
  9  5  1  0  0  0  0
 10 16  1  0  0  0  0
 10 15  1  0  0  0  0
 11 10  2  0  0  0  0
 12 11  1  0  0  0  0
 12 13  2  0  0  0  0
 13 14  1  0  0  0  0
 14 15  2  0  0  0  0
 14 17  1  0  0  0  0
 18 20  1  0  0  0  0
 18 12  1  0  0  0  0
 19 18  1  0  0  0  0
 21 18  1  0  0  0  0
 22 23  1  0  0  0  0
 25 24  1  0  0  0  0
 25 26  1  0  0  0  0
 27 26  1  0  0  0  0
M  END
>  <minimizedAffinity>
-4.24966383

$$$$

 OpenBabel03272509193D

 27 28  0  0  0  0  0  0  0  0999 V2000
   36.1320   28.7360   33.3970 C   0  0  0  0  0  0  0  0  0  0  0  0
   35.5640   29.9950   33.4480 C   0  0  0  0  0  0  0  0  0  0  0  0
   35.5260   30.6420   32.2140 C   0  0  0  0  0  0  0  0  0  0  0  0
   36.0220   30.0520   31.0520 C   0  0  0  0  0  0  0  0  0  0  0  0
   36.5800   28.7680   31.1090 C   0  0  0  0  0  0  0  0  0  0  0  0
   36.6230   28.1200   32.3130 C   0  0  0  0  0  0  0  0  0  0  0  0
   35.0970   31.6350   32.1580 H   0  0  0  0  0  0  0  0  0  0  0  0
   35.9860   30.5660   30.1020 H   0  0  0  0  0  0  0  0  0  0  0  0
   36.9650   28.3060   30.2100 H   0  0  0  0  0  0  0  0  0  0  0  0
   35.8790   31.4080   35.4260 C   0  0  0  0  0  0  0  0  0  0  0  0
   35.0560   30.6010   34.6400 C   0  0  0  0  0  0  0  0  0  0  0  0
   33.7320   30.4100   35.0610 C   0  0  0  0  0  0  0  0  0  0  0  0
   33.3320   31.0200   36.2020 N   0  0  0  0  0  0  0  0  0  0  0  0
   34.1620   31.8010   36.9410 C   0  0  0  0  0  0  0  0  0  0  0  0
   35.4360   31.9930   36.5490 N   0  0  0  0  0  0  0  0  0  0  0  0
   36.8970   31.5430   35.0820 H   0  0  0  0  0  0  0  0  0  0  0  0
   33.8050   32.2710   37.8480 H   0  0  0  0  0  0  0  0  0  0  0  0
   32.8130   29.5690   34.2770 C   0  0  0  0  0  0  0  0  0  0  0  0
   33.2480   29.4010   33.2720 H   0  0  0  0  0  0  0  0  0  0  0  0
   32.5730   28.5920   34.7340 H   0  0  0  0  0  0  0  0  0  0  0  0
   31.8660   30.1730   34.1710 H   0  0  0  0  0  0  0  0  0  0  0  0
   36.2180   27.9930   34.6050 O   0  0  0  0  0  0  0  0  0  0  0  0
   35.5100   27.3060   34.8450 H   0  0  0  0  0  0  0  0  0  0  0  0
   37.1850   26.8380   32.3380 O   0  0  0  0  0  0  0  0  0  0  0  0
   37.1010   25.9430   31.2760 C   0  0  0  0  0  2  0  0  0  0  0  0
   35.7980   25.1480   31.4190 C   0  0  0  0  0  2  0  0  0  0  0  0
   34.9430   25.7640   31.0960 H   0  0  0  0  0  0  0  0  0  0  0  0
  1  2  1  0  0  0  0
  1 22  1  0  0  0  0
  2 11  1  0  0  0  0
  3  2  2  0  0  0  0
  4  5  2  0  0  0  0
  4  3  1  0  0  0  0
  5  6  1  0  0  0  0
  6 24  1  0  0  0  0
  6  1  2  0  0  0  0
  7  3  1  0  0  0  0
  8  4  1  0  0  0  0
  9  5  1  0  0  0  0
 10 15  1  0  0  0  0
 11 12  1  0  0  0  0
 11 10  2  0  0  0  0
 12 13  2  0  0  0  0
 13 14  1  0  0  0  0
 14 17  1  0  0  0  0
 15 14  2  0  0  0  0
 16 10  1  0  0  0  0
 18 20  1  0  0  0  0
 18 12  1  0  0  0  0
 19 18  1  0  0  0  0
 21 18  1  0  0  0  0
 22 23  1  0  0  0  0
 25 26  1  0  0  0  0
 25 24  1  0  0  0  0
 27 26  1  0  0  0  0
M  END
>  <minimizedAffinity>
-4.24669886

$$$$

 OpenBabel03272509193D

 27 28  0  0  0  0  0  0  0  0999 V2000
   36.5900   27.8280   32.7830 C   0  0  0  0  0  0  0  0  0  0  0  0
   36.8330   27.3480   31.5090 C   0  0  0  0  0  0  0  0  0  0  0  0
   36.5660   28.2740   30.5030 C   0  0  0  0  0  0  0  0  0  0  0  0
   36.0990   29.5590   30.7810 C   0  0  0  0  0  0  0  0  0  0  0  0
   35.8850   29.9460   32.1110 C   0  0  0  0  0  0  0  0  0  0  0  0
   36.1420   29.0480   33.1100 C   0  0  0  0  0  0  0  0  0  0  0  0
   36.7280   27.9870   29.4710 H   0  0  0  0  0  0  0  0  0  0  0  0
   35.8970   30.2660   29.9900 H   0  0  0  0  0  0  0  0  0  0  0  0
   35.5220   30.9410   32.3320 H   0  0  0  0  0  0  0  0  0  0  0  0
   38.6830   25.7760   31.1780 C   0  0  0  0  0  0  0  0  0  0  0  0
   37.3120   26.0310   31.2230 C   0  0  0  0  0  0  0  0  0  0  0  0
   36.4390   24.9610   30.9810 C   0  0  0  0  0  0  0  0  0  0  0  0
   36.9760   23.7460   30.7180 N   0  0  0  0  0  0  0  0  0  0  0  0
   38.3180   23.5350   30.6830 C   0  0  0  0  0  0  0  0  0  0  0  0
   39.1690   24.5530   30.9140 N   0  0  0  0  0  0  0  0  0  0  0  0
   39.3400   26.6150   31.3690 H   0  0  0  0  0  0  0  0  0  0  0  0
   38.7090   22.5490   30.4700 H   0  0  0  0  0  0  0  0  0  0  0  0
   34.9820   25.1650   31.0140 C   0  0  0  0  0  0  0  0  0  0  0  0
   34.7650   26.1350   31.5040 H   0  0  0  0  0  0  0  0  0  0  0  0
   34.4870   25.1420   30.0260 H   0  0  0  0  0  0  0  0  0  0  0  0
   34.5740   24.3300   31.6540 H   0  0  0  0  0  0  0  0  0  0  0  0
   36.8310   26.9580   33.8810 O   0  0  0  0  0  0  0  0  0  0  0  0
   37.7090   26.9920   34.3890 H   0  0  0  0  0  0  0  0  0  0  0  0
   35.9200   29.4640   34.4270 O   0  0  0  0  0  0  0  0  0  0  0  0
   35.2040   30.6100   34.7600 C   0  0  0  0  0  2  0  0  0  0  0  0
   35.9840   31.3680   35.8400 C   0  0  0  0  0  2  0  0  0  0  0  0
   36.8300   31.9090   35.3860 H   0  0  0  0  0  0  0  0  0  0  0  0
  1  6  1  0  0  0  0
  1 22  1  0  0  0  0
  2  1  2  0  0  0  0
  3  4  2  0  0  0  0
  3  2  1  0  0  0  0
  4  5  1  0  0  0  0
  5  9  1  0  0  0  0
  5  6  2  0  0  0  0
  6 24  1  0  0  0  0
  7  3  1  0  0  0  0
  8  4  1  0  0  0  0
 10 11  1  0  0  0  0
 10 16  1  0  0  0  0
 11  2  1  0  0  0  0
 12 18  1  0  0  0  0
 12 11  2  0  0  0  0
 13 12  1  0  0  0  0
 14 13  2  0  0  0  0
 14 15  1  0  0  0  0
 15 10  2  0  0  0  0
 17 14  1  0  0  0  0
 18 19  1  0  0  0  0
 18 21  1  0  0  0  0
 20 18  1  0  0  0  0
 22 23  1  0  0  0  0
 24 25  1  0  0  0  0
 25 26  1  0  0  0  0
 27 26  1  0  0  0  0
M  END
>  <minimizedAffinity>
-4.20899963

$$$$
