
 OpenBabel03272501183D

 24 25  0  0  0  0  0  0  0  0999 V2000
   38.8700   31.8840   47.7760 C   0  0  0  0  0  0  0  0  0  0  0  0
   38.3470   32.1220   49.0360 C   0  0  0  0  0  0  0  0  0  0  0  0
   38.6670   33.3550   49.5790 C   0  0  0  0  0  0  0  0  0  0  0  0
   39.4600   34.2800   48.8980 C   0  0  0  0  0  0  0  0  0  0  0  0
   39.9410   33.9470   47.6300 C   0  0  0  0  0  0  0  0  0  0  0  0
   39.6400   32.7330   47.0650 C   0  0  0  0  0  0  0  0  0  0  0  0
   38.2830   33.5930   50.5660 H   0  0  0  0  0  0  0  0  0  0  0  0
   39.6660   35.2220   49.3930 H   0  0  0  0  0  0  0  0  0  0  0  0
   40.5350   34.7280   47.2000 H   0  0  0  0  0  0  0  0  0  0  0  0
   36.1890   30.9830   49.3880 C   0  0  0  0  0  0  0  0  0  0  0  0
   37.5300   31.1810   49.7490 C   0  0  0  0  0  0  0  0  0  0  0  0
   38.0170   30.4260   50.8210 C   0  0  0  0  0  0  0  0  0  0  0  0
   37.1700   29.5550   51.4410 N   0  0  0  0  0  0  0  0  0  0  0  0
   35.8900   29.4040   51.0540 C   0  0  0  0  0  0  0  0  0  0  0  0
   35.3950   30.1140   50.0300 N   0  0  0  0  0  0  0  0  0  0  0  0
   35.7310   31.5340   48.5620 H   0  0  0  0  0  0  0  0  0  0  0  0
   39.0510   30.5630   51.1170 H   0  0  0  0  0  0  0  0  0  0  0  0
   35.4300   28.6630   51.6960 H   0  0  0  0  0  0  0  0  0  0  0  0
   38.5900   30.6600   47.1600 O   0  0  0  0  0  0  0  0  0  0  0  0
   39.4040   30.1130   46.9090 H   0  0  0  0  0  0  0  0  0  0  0  0
   40.1370   32.4510   45.8130 O   0  0  0  0  0  0  0  0  0  0  0  0
   40.1570   33.3030   44.7190 C   0  0  0  0  0  0  0  0  0  0  0  0
   39.4930   32.7850   43.4780 C   0  0  0  0  0  0  0  0  0  0  0  0
   40.1530   32.7580   42.5960 H   0  0  0  0  0  0  0  0  0  0  0  0
  1  2  1  0  0  0  0
  2  3  2  0  0  0  0
  2 11  1  0  0  0  0
  3  7  1  0  0  0  0
  4  8  1  0  0  0  0
  4  3  1  0  0  0  0
  5  4  2  0  0  0  0
  6  5  1  0  0  0  0
  6  1  2  0  0  0  0
  9  5  1  0  0  0  0
 10 11  2  0  0  0  0
 10 15  1  0  0  0  0
 11 12  1  0  0  0  0
 12 17  1  0  0  0  0
 12 13  2  0  0  0  0
 14 13  1  0  0  0  0
 14 18  1  0  0  0  0
 15 14  2  0  0  0  0
 16 10  1  0  0  0  0
 19  1  1  0  0  0  0
 20 19  1  0  0  0  0
 21  6  1  0  0  0  0
 22 21  1  0  0  0  0
 23 22  1  0  0  0  0
 24 23  1  0  0  0  0
M  END
>  <minimizedAffinity>
-5.53072786

>  <minimizedRMSD>
0.543434978

$$$$
