
 OpenBabel03272508223D

 36 38  0  0  0  0  0  0  0  0999 V2000
   38.1910   24.2640   33.3890 C   0  0  0  0  0  0  0  0  0  0  0  0
   38.0310   23.2240   33.7390 H   0  0  0  0  0  0  0  0  0  0  0  0
   39.0990   24.1680   32.7150 H   0  0  0  0  0  0  0  0  0  0  0  0
   36.2760   23.8300   31.9140 C   0  0  0  0  0  0  0  0  0  0  0  0
   37.1050   24.6970   32.5720 C   0  0  0  0  0  0  0  0  0  0  0  0
   36.8280   25.9980   32.3100 C   0  0  0  0  0  0  0  0  0  0  0  0
   35.8520   26.4080   31.4960 N   0  0  0  0  0  0  0  0  0  0  0  0
   35.0580   25.5670   30.8620 C   0  0  0  0  0  0  0  0  0  0  0  0
   35.2580   24.2640   31.0620 N   0  0  0  0  0  0  0  0  0  0  0  0
   37.4040   26.8210   32.7640 H   0  0  0  0  0  0  0  0  0  0  0  0
   34.2390   25.7390   30.1810 H   0  0  0  0  0  0  0  0  0  0  0  0
   36.3190   22.3330   32.2050 C   0  0  0  0  0  0  0  0  0  0  0  0
   35.6740   21.3860   31.4260 C   0  0  0  0  0  0  0  0  0  0  0  0
   37.0950   21.6740   30.9840 C   0  0  0  0  0  0  0  0  0  0  0  0
   36.7640   22.0060   33.1110 H   0  0  0  0  0  0  0  0  0  0  0  0
   35.4850   20.3560   31.7080 H   0  0  0  0  0  0  0  0  0  0  0  0
   34.9180   21.7320   30.6550 H   0  0  0  0  0  0  0  0  0  0  0  0
   37.8950   20.9830   31.2550 H   0  0  0  0  0  0  0  0  0  0  0  0
   37.2770   22.2650   30.1030 H   0  0  0  0  0  0  0  0  0  0  0  0
   38.5920   25.1340   34.5170 C   0  0  0  0  0  0  0  0  0  0  0  0
   37.8390   25.9770   34.5580 H   0  0  0  0  0  0  0  0  0  0  0  0
   39.5520   25.6640   34.3190 H   0  0  0  0  0  0  0  0  0  0  0  0
   40.6050   23.2850   34.9930 F   0  0  0  0  0  0  0  0  0  0  0  0
   39.7070   23.6200   35.9570 C   0  0  0  0  0  0  0  0  0  0  0  0
   38.6540   24.5370   35.8080 C   0  0  0  0  0  0  0  0  0  0  0  0
   37.8580   24.7080   36.8870 C   0  0  0  0  0  0  0  0  0  0  0  0
   38.0230   24.0640   38.0710 C   0  0  0  0  0  0  0  0  0  0  0  0
   39.0920   23.1440   38.2030 C   0  0  0  0  0  0  0  0  0  0  0  0
   39.9520   22.9190   37.1060 C   0  0  0  0  0  0  0  0  0  0  0  0
   36.9890   25.2900   36.9110 H   0  0  0  0  0  0  0  0  0  0  0  0
   37.3990   24.1820   38.9700 H   0  0  0  0  0  0  0  0  0  0  0  0
   39.2160   22.6270   39.1720 H   0  0  0  0  0  0  0  0  0  0  0  0
   40.9000   22.0120   37.3680 O   0  0  0  0  0  0  0  0  0  0  0  0
   41.7850   21.1860   37.6050 C   0  0  0  0  0  2  0  0  0  0  0  0
   42.6960   20.7070   36.4440 C   0  0  0  0  0  2  0  0  0  0  0  0
   43.4550   20.0490   36.9270 H   0  0  0  0  0  0  0  0  0  0  0  0
  1  2  1  0  0  0  0
  1 20  1  0  0  0  0
  3  1  1  0  0  0  0
  4 12  1  0  0  0  0
  4  5  1  0  0  0  0
  5  1  1  0  0  0  0
  6  5  2  0  0  0  0
  6 10  1  0  0  0  0
  7  6  1  0  0  0  0
  8  9  1  0  0  0  0
  8  7  2  0  0  0  0
  9  4  2  0  0  0  0
 11  8  1  0  0  0  0
 12 15  1  0  0  0  0
 13 16  1  0  0  0  0
 13 12  1  0  0  0  0
 14 18  1  0  0  0  0
 14 13  1  0  0  0  0
 14 12  1  0  0  0  0
 17 13  1  0  0  0  0
 19 14  1  0  0  0  0
 20 21  1  0  0  0  0
 20 25  1  0  0  0  0
 22 20  1  0  0  0  0
 23 24  1  0  0  0  0
 24 29  1  0  0  0  0
 25 24  2  0  0  0  0
 25 26  1  0  0  0  0
 26 30  1  0  0  0  0
 26 27  2  0  0  0  0
 27 28  1  0  0  0  0
 27 31  1  0  0  0  0
 28 32  1  0  0  0  0
 29 33  1  0  0  0  0
 29 28  2  0  0  0  0
 33 34  1  0  0  0  0
 35 36  1  0  0  0  0
 35 34  1  0  0  0  0
M  END
>  <minimizedAffinity>
-5.11164713

$$$$

 OpenBabel03272508223D

 36 38  0  0  0  0  0  0  0  0999 V2000
   38.2810   27.1890   35.6020 C   0  0  0  0  0  0  0  0  0  0  0  0
   38.0650   27.3420   36.6790 H   0  0  0  0  0  0  0  0  0  0  0  0
   38.7790   28.1640   35.3030 H   0  0  0  0  0  0  0  0  0  0  0  0
   39.0890   24.8940   35.9310 C   0  0  0  0  0  0  0  0  0  0  0  0
   39.2430   26.1530   35.4190 C   0  0  0  0  0  0  0  0  0  0  0  0
   40.4290   26.3250   34.7840 C   0  0  0  0  0  0  0  0  0  0  0  0
   41.3600   25.3760   34.6640 N   0  0  0  0  0  0  0  0  0  0  0  0
   41.2070   24.1650   35.1630 C   0  0  0  0  0  0  0  0  0  0  0  0
   40.0670   23.9050   35.8050 N   0  0  0  0  0  0  0  0  0  0  0  0
   40.7060   27.2830   34.3140 H   0  0  0  0  0  0  0  0  0  0  0  0
   41.8570   23.3040   35.1520 H   0  0  0  0  0  0  0  0  0  0  0  0
   37.7590   24.4520   36.5350 C   0  0  0  0  0  0  0  0  0  0  0  0
   37.5860   23.2480   37.1990 C   0  0  0  0  0  0  0  0  0  0  0  0
   37.9930   24.3930   38.1070 C   0  0  0  0  0  0  0  0  0  0  0  0
   36.8950   25.0360   36.3390 H   0  0  0  0  0  0  0  0  0  0  0  0
   36.6320   22.7910   37.4440 H   0  0  0  0  0  0  0  0  0  0  0  0
   38.3980   22.4610   37.1300 H   0  0  0  0  0  0  0  0  0  0  0  0
   37.2370   24.8960   38.7130 H   0  0  0  0  0  0  0  0  0  0  0  0
   38.9980   24.4490   38.4860 H   0  0  0  0  0  0  0  0  0  0  0  0
   37.0220   27.1040   34.8280 C   0  0  0  0  0  0  0  0  0  0  0  0
   36.2260   27.6130   35.4510 H   0  0  0  0  0  0  0  0  0  0  0  0
   36.6480   26.0580   34.7490 H   0  0  0  0  0  0  0  0  0  0  0  0
   35.0280   28.9490   34.2640 F   0  0  0  0  0  0  0  0  0  0  0  0
   35.9730   28.6200   33.3430 C   0  0  0  0  0  0  0  0  0  0  0  0
   37.0130   27.6960   33.5340 C   0  0  0  0  0  0  0  0  0  0  0  0
   37.8320   27.4970   32.4770 C   0  0  0  0  0  0  0  0  0  0  0  0
   37.7080   28.1290   31.2830 C   0  0  0  0  0  0  0  0  0  0  0  0
   36.6540   29.0590   31.1080 C   0  0  0  0  0  0  0  0  0  0  0  0
   35.7620   29.3020   32.1750 C   0  0  0  0  0  0  0  0  0  0  0  0
   38.5990   26.7870   32.4330 H   0  0  0  0  0  0  0  0  0  0  0  0
   38.3590   27.9950   30.4040 H   0  0  0  0  0  0  0  0  0  0  0  0
   36.5650   29.5670   30.1310 H   0  0  0  0  0  0  0  0  0  0  0  0
   34.8070   30.1850   31.8620 O   0  0  0  0  0  0  0  0  0  0  0  0
   33.9160   30.9910   31.5820 C   0  0  0  0  0  2  0  0  0  0  0  0
   32.4760   30.7280   32.0970 C   0  0  0  0  0  2  0  0  0  0  0  0
   31.8940   31.6280   31.7950 H   0  0  0  0  0  0  0  0  0  0  0  0
  1  2  1  0  0  0  0
  3  1  1  0  0  0  0
  4 12  1  0  0  0  0
  5  1  1  0  0  0  0
  5  4  2  0  0  0  0
  6  5  1  0  0  0  0
  7  6  2  0  0  0  0
  7  8  1  0  0  0  0
  8  9  2  0  0  0  0
  9  4  1  0  0  0  0
 10  6  1  0  0  0  0
 11  8  1  0  0  0  0
 12 13  1  0  0  0  0
 12 14  1  0  0  0  0
 13 16  1  0  0  0  0
 13 14  1  0  0  0  0
 14 19  1  0  0  0  0
 14 18  1  0  0  0  0
 15 12  1  0  0  0  0
 17 13  1  0  0  0  0
 20 21  1  0  0  0  0
 20  1  1  0  0  0  0
 22 20  1  0  0  0  0
 24 25  1  0  0  0  0
 24 23  1  0  0  0  0
 25 20  1  0  0  0  0
 26 25  2  0  0  0  0
 27 26  1  0  0  0  0
 28 27  2  0  0  0  0
 28 29  1  0  0  0  0
 29 24  2  0  0  0  0
 30 26  1  0  0  0  0
 31 27  1  0  0  0  0
 32 28  1  0  0  0  0
 33 29  1  0  0  0  0
 34 33  1  0  0  0  0
 34 35  1  0  0  0  0
 36 35  1  0  0  0  0
M  END
>  <minimizedAffinity>
-5.00558805

$$$$

 OpenBabel03272508223D

 36 38  0  0  0  0  0  0  0  0999 V2000
   36.7240   27.4300   34.5800 C   0  0  0  0  0  0  0  0  0  0  0  0
   35.8040   27.5050   35.1950 H   0  0  0  0  0  0  0  0  0  0  0  0
   36.7280   26.3400   34.2630 H   0  0  0  0  0  0  0  0  0  0  0  0
   35.8520   29.3510   33.3230 C   0  0  0  0  0  0  0  0  0  0  0  0
   36.6060   28.2120   33.3930 C   0  0  0  0  0  0  0  0  0  0  0  0
   37.1680   27.8740   32.2060 C   0  0  0  0  0  0  0  0  0  0  0  0
   37.0100   28.5680   31.0770 N   0  0  0  0  0  0  0  0  0  0  0  0
   36.2790   29.6640   31.0150 C   0  0  0  0  0  0  0  0  0  0  0  0
   35.6880   30.0730   32.1380 N   0  0  0  0  0  0  0  0  0  0  0  0
   37.8070   26.9830   32.0960 H   0  0  0  0  0  0  0  0  0  0  0  0
   36.0560   30.3240   30.1910 H   0  0  0  0  0  0  0  0  0  0  0  0
   35.2740   29.9860   34.5840 C   0  0  0  0  0  0  0  0  0  0  0  0
   34.3120   30.9830   34.5640 C   0  0  0  0  0  0  0  0  0  0  0  0
   33.7370   29.5810   34.6110 C   0  0  0  0  0  0  0  0  0  0  0  0
   35.7100   29.7410   35.5200 H   0  0  0  0  0  0  0  0  0  0  0  0
   34.0370   31.6160   35.4010 H   0  0  0  0  0  0  0  0  0  0  0  0
   34.0770   31.4990   33.5820 H   0  0  0  0  0  0  0  0  0  0  0  0
   33.3750   29.1780   35.5590 H   0  0  0  0  0  0  0  0  0  0  0  0
   33.2970   29.1490   33.7300 H   0  0  0  0  0  0  0  0  0  0  0  0
   37.9260   27.6300   35.4190 C   0  0  0  0  0  0  0  0  0  0  0  0
   37.6070   27.4440   36.4890 H   0  0  0  0  0  0  0  0  0  0  0  0
   38.2550   28.6940   35.4370 H   0  0  0  0  0  0  0  0  0  0  0  0
   37.8950   25.0340   36.3980 F   0  0  0  0  0  0  0  0  0  0  0  0
   38.9450   25.5080   35.6770 C   0  0  0  0  0  0  0  0  0  0  0  0
   39.0530   26.8040   35.1480 C   0  0  0  0  0  0  0  0  0  0  0  0
   40.1970   27.0800   34.4810 C   0  0  0  0  0  0  0  0  0  0  0  0
   41.2080   26.1940   34.2970 C   0  0  0  0  0  0  0  0  0  0  0  0
   41.0810   24.8910   34.8360 C   0  0  0  0  0  0  0  0  0  0  0  0
   39.9120   24.5480   35.5490 C   0  0  0  0  0  0  0  0  0  0  0  0
   40.4630   28.0170   34.1000 H   0  0  0  0  0  0  0  0  0  0  0  0
   42.1490   26.3830   33.7560 H   0  0  0  0  0  0  0  0  0  0  0  0
   41.9120   24.1790   34.6780 H   0  0  0  0  0  0  0  0  0  0  0  0
   39.9390   23.2960   36.0180 O   0  0  0  0  0  0  0  0  0  0  0  0
   39.9790   22.1420   36.4550 C   0  0  0  0  0  2  0  0  0  0  0  0
   41.1290   21.7430   37.4160 C   0  0  0  0  0  2  0  0  0  0  0  0
   40.8910   20.7020   37.7330 H   0  0  0  0  0  0  0  0  0  0  0  0
  1  2  1  0  0  0  0
  1 20  1  0  0  0  0
  3  1  1  0  0  0  0
  4  5  1  0  0  0  0
  4 12  1  0  0  0  0
  5  1  1  0  0  0  0
  6  5  2  0  0  0  0
  7  6  1  0  0  0  0
  8  7  2  0  0  0  0
  8  9  1  0  0  0  0
  9  4  2  0  0  0  0
 10  6  1  0  0  0  0
 11  8  1  0  0  0  0
 12 14  1  0  0  0  0
 12 15  1  0  0  0  0
 13 12  1  0  0  0  0
 13 14  1  0  0  0  0
 13 16  1  0  0  0  0
 14 18  1  0  0  0  0
 17 13  1  0  0  0  0
 19 14  1  0  0  0  0
 20 22  1  0  0  0  0
 20 21  1  0  0  0  0
 24 23  1  0  0  0  0
 25 20  1  0  0  0  0
 25 24  2  0  0  0  0
 26 25  1  0  0  0  0
 27 26  2  0  0  0  0
 27 28  1  0  0  0  0
 28 29  2  0  0  0  0
 29 24  1  0  0  0  0
 29 33  1  0  0  0  0
 30 26  1  0  0  0  0
 31 27  1  0  0  0  0
 32 28  1  0  0  0  0
 33 34  1  0  0  0  0
 34 35  1  0  0  0  0
 35 36  1  0  0  0  0
M  END
>  <minimizedAffinity>
-4.99629116

$$$$

 OpenBabel03272508223D

 36 38  0  0  0  0  0  0  0  0999 V2000
   38.2690   27.1580   35.5210 C   0  0  0  0  0  0  0  0  0  0  0  0
   38.1080   27.3630   36.5990 H   0  0  0  0  0  0  0  0  0  0  0  0
   38.7300   28.1240   35.1450 H   0  0  0  0  0  0  0  0  0  0  0  0
   39.1080   24.8770   35.8690 C   0  0  0  0  0  0  0  0  0  0  0  0
   39.2410   26.1310   35.3390 C   0  0  0  0  0  0  0  0  0  0  0  0
   40.4170   26.3090   34.6870 C   0  0  0  0  0  0  0  0  0  0  0  0
   41.3580   25.3700   34.5680 N   0  0  0  0  0  0  0  0  0  0  0  0
   41.2250   24.1640   35.0840 C   0  0  0  0  0  0  0  0  0  0  0  0
   40.0970   23.8980   35.7430 N   0  0  0  0  0  0  0  0  0  0  0  0
   40.6760   27.2640   34.2020 H   0  0  0  0  0  0  0  0  0  0  0  0
   41.8850   23.3100   35.0750 H   0  0  0  0  0  0  0  0  0  0  0  0
   37.7910   24.4270   36.4960 C   0  0  0  0  0  0  0  0  0  0  0  0
   37.6430   23.2340   37.1840 C   0  0  0  0  0  0  0  0  0  0  0  0
   38.0430   24.4010   38.0650 C   0  0  0  0  0  0  0  0  0  0  0  0
   36.9170   24.9940   36.2980 H   0  0  0  0  0  0  0  0  0  0  0  0
   36.6990   22.7670   37.4470 H   0  0  0  0  0  0  0  0  0  0  0  0
   38.4660   22.4570   37.1200 H   0  0  0  0  0  0  0  0  0  0  0  0
   37.2860   24.9040   38.6700 H   0  0  0  0  0  0  0  0  0  0  0  0
   39.0510   24.4780   38.4330 H   0  0  0  0  0  0  0  0  0  0  0  0
   36.9720   27.0090   34.8240 C   0  0  0  0  0  0  0  0  0  0  0  0
   36.1860   26.8890   35.6290 H   0  0  0  0  0  0  0  0  0  0  0  0
   36.9040   26.0500   34.2610 H   0  0  0  0  0  0  0  0  0  0  0  0
   37.7350   26.8920   32.1590 F   0  0  0  0  0  0  0  0  0  0  0  0
   36.9940   27.9250   32.6400 C   0  0  0  0  0  0  0  0  0  0  0  0
   36.5670   28.0740   33.9700 C   0  0  0  0  0  0  0  0  0  0  0  0
   35.8580   29.1920   34.2450 C   0  0  0  0  0  0  0  0  0  0  0  0
   35.5420   30.1430   33.3290 C   0  0  0  0  0  0  0  0  0  0  0  0
   35.9790   29.9750   31.9930 C   0  0  0  0  0  0  0  0  0  0  0  0
   36.7310   28.8300   31.6480 C   0  0  0  0  0  0  0  0  0  0  0  0
   35.5400   29.4870   35.1960 H   0  0  0  0  0  0  0  0  0  0  0  0
   34.9630   31.0600   33.5160 H   0  0  0  0  0  0  0  0  0  0  0  0
   35.7140   30.7560   31.2570 H   0  0  0  0  0  0  0  0  0  0  0  0
   37.0920   28.8160   30.3610 O   0  0  0  0  0  0  0  0  0  0  0  0
   37.4390   28.7940   29.1770 C   0  0  0  0  0  2  0  0  0  0  0  0
   38.8320   28.2150   28.8130 C   0  0  0  0  0  2  0  0  0  0  0  0
   38.8650   28.2240   27.6990 H   0  0  0  0  0  0  0  0  0  0  0  0
  1  2  1  0  0  0  0
  3  1  1  0  0  0  0
  4 12  1  0  0  0  0
  5  1  1  0  0  0  0
  5  4  2  0  0  0  0
  6  5  1  0  0  0  0
  7  6  2  0  0  0  0
  7  8  1  0  0  0  0
  8  9  2  0  0  0  0
  9  4  1  0  0  0  0
 10  6  1  0  0  0  0
 11  8  1  0  0  0  0
 12 13  1  0  0  0  0
 12 14  1  0  0  0  0
 13 16  1  0  0  0  0
 13 14  1  0  0  0  0
 14 19  1  0  0  0  0
 14 18  1  0  0  0  0
 15 12  1  0  0  0  0
 17 13  1  0  0  0  0
 20  1  1  0  0  0  0
 20 21  1  0  0  0  0
 22 20  1  0  0  0  0
 23 24  1  0  0  0  0
 24 25  1  0  0  0  0
 25 26  2  0  0  0  0
 25 20  1  0  0  0  0
 26 30  1  0  0  0  0
 27 31  1  0  0  0  0
 27 26  1  0  0  0  0
 28 27  2  0  0  0  0
 29 28  1  0  0  0  0
 29 24  2  0  0  0  0
 32 28  1  0  0  0  0
 33 29  1  0  0  0  0
 34 33  1  0  0  0  0
 35 34  1  0  0  0  0
 36 35  1  0  0  0  0
M  END
>  <minimizedAffinity>
-4.97381163

$$$$

 OpenBabel03272508223D

 36 38  0  0  0  0  0  0  0  0999 V2000
   38.5980   24.3440   34.7340 C   0  0  0  0  0  0  0  0  0  0  0  0
   38.5170   23.9300   33.7080 H   0  0  0  0  0  0  0  0  0  0  0  0
   37.5850   24.1050   35.1850 H   0  0  0  0  0  0  0  0  0  0  0  0
   39.3640   23.2270   36.7830 C   0  0  0  0  0  0  0  0  0  0  0  0
   39.5740   23.6330   35.4930 C   0  0  0  0  0  0  0  0  0  0  0  0
   40.8210   23.3480   35.0450 C   0  0  0  0  0  0  0  0  0  0  0  0
   41.7600   22.7390   35.7730 N   0  0  0  0  0  0  0  0  0  0  0  0
   41.5520   22.3530   37.0160 C   0  0  0  0  0  0  0  0  0  0  0  0
   40.3500   22.5910   37.5410 N   0  0  0  0  0  0  0  0  0  0  0  0
   41.1480   23.6090   34.0250 H   0  0  0  0  0  0  0  0  0  0  0  0
   42.1990   21.8580   37.7240 H   0  0  0  0  0  0  0  0  0  0  0  0
   37.9760   23.3060   37.4130 C   0  0  0  0  0  0  0  0  0  0  0  0
   37.7430   23.1310   38.7670 C   0  0  0  0  0  0  0  0  0  0  0  0
   38.0060   24.5710   38.3750 C   0  0  0  0  0  0  0  0  0  0  0  0
   37.1330   23.3820   36.7730 H   0  0  0  0  0  0  0  0  0  0  0  0
   36.7750   22.9540   39.2250 H   0  0  0  0  0  0  0  0  0  0  0  0
   38.5720   22.7160   39.4180 H   0  0  0  0  0  0  0  0  0  0  0  0
   37.1690   25.2630   38.2660 H   0  0  0  0  0  0  0  0  0  0  0  0
   38.9530   25.0280   38.6050 H   0  0  0  0  0  0  0  0  0  0  0  0
   38.7030   25.8190   34.6900 C   0  0  0  0  0  0  0  0  0  0  0  0
   39.7320   26.0570   34.2840 H   0  0  0  0  0  0  0  0  0  0  0  0
   38.7240   26.2710   35.7080 H   0  0  0  0  0  0  0  0  0  0  0  0
   37.6010   28.1420   35.7340 F   0  0  0  0  0  0  0  0  0  0  0  0
   37.2490   27.6800   34.5040 C   0  0  0  0  0  0  0  0  0  0  0  0
   37.7460   26.5150   33.8970 C   0  0  0  0  0  0  0  0  0  0  0  0
   37.2450   26.2210   32.6770 C   0  0  0  0  0  0  0  0  0  0  0  0
   36.3210   26.9730   32.0270 C   0  0  0  0  0  0  0  0  0  0  0  0
   35.8320   28.1460   32.6540 C   0  0  0  0  0  0  0  0  0  0  0  0
   36.3140   28.4990   33.9330 C   0  0  0  0  0  0  0  0  0  0  0  0
   37.4510   25.3520   32.1320 H   0  0  0  0  0  0  0  0  0  0  0  0
   35.8950   26.7680   31.0330 H   0  0  0  0  0  0  0  0  0  0  0  0
   35.0810   28.7500   32.1140 H   0  0  0  0  0  0  0  0  0  0  0  0
   35.7510   29.6140   34.4100 O   0  0  0  0  0  0  0  0  0  0  0  0
   35.2440   30.6500   34.8490 C   0  0  0  0  0  2  0  0  0  0  0  0
   36.0260   31.4800   35.9020 C   0  0  0  0  0  2  0  0  0  0  0  0
   35.4090   32.3940   36.0630 H   0  0  0  0  0  0  0  0  0  0  0  0
  1  3  1  0  0  0  0
  1  5  1  0  0  0  0
  2  1  1  0  0  0  0
  4 12  1  0  0  0  0
  4  9  1  0  0  0  0
  5  4  2  0  0  0  0
  6  5  1  0  0  0  0
  6  7  2  0  0  0  0
  7  8  1  0  0  0  0
  8  9  2  0  0  0  0
  8 11  1  0  0  0  0
 10  6  1  0  0  0  0
 12 14  1  0  0  0  0
 12 13  1  0  0  0  0
 13 16  1  0  0  0  0
 13 17  1  0  0  0  0
 14 19  1  0  0  0  0
 14 13  1  0  0  0  0
 15 12  1  0  0  0  0
 18 14  1  0  0  0  0
 20  1  1  0  0  0  0
 20 22  1  0  0  0  0
 21 20  1  0  0  0  0
 24 23  1  0  0  0  0
 25 24  2  0  0  0  0
 25 20  1  0  0  0  0
 26 25  1  0  0  0  0
 27 28  1  0  0  0  0
 27 26  2  0  0  0  0
 28 29  2  0  0  0  0
 29 33  1  0  0  0  0
 29 24  1  0  0  0  0
 30 26  1  0  0  0  0
 31 27  1  0  0  0  0
 32 28  1  0  0  0  0
 33 34  1  0  0  0  0
 34 35  1  0  0  0  0
 35 36  1  0  0  0  0
M  END
>  <minimizedAffinity>
-4.94314814

$$$$

 OpenBabel03272508223D

 36 38  0  0  0  0  0  0  0  0999 V2000
   36.4330   29.1990   34.6510 C   0  0  0  0  0  0  0  0  0  0  0  0
   36.2340   28.8690   35.6910 H   0  0  0  0  0  0  0  0  0  0  0  0
   37.4980   29.5880   34.7080 H   0  0  0  0  0  0  0  0  0  0  0  0
   37.0860   26.9130   34.0350 C   0  0  0  0  0  0  0  0  0  0  0  0
   36.4400   28.0870   33.7580 C   0  0  0  0  0  0  0  0  0  0  0  0
   35.8730   28.1020   32.5260 C   0  0  0  0  0  0  0  0  0  0  0  0
   35.9300   27.0870   31.6610 N   0  0  0  0  0  0  0  0  0  0  0  0
   36.5570   25.9600   31.9330 C   0  0  0  0  0  0  0  0  0  0  0  0
   37.1450   25.8550   33.1250 N   0  0  0  0  0  0  0  0  0  0  0  0
   35.3140   28.9760   32.1530 H   0  0  0  0  0  0  0  0  0  0  0  0
   36.6910   25.0620   31.3480 H   0  0  0  0  0  0  0  0  0  0  0  0
   37.6450   26.6370   35.4270 C   0  0  0  0  0  0  0  0  0  0  0  0
   38.5830   25.6510   35.6900 C   0  0  0  0  0  0  0  0  0  0  0  0
   39.1910   26.9990   35.3550 C   0  0  0  0  0  0  0  0  0  0  0  0
   37.2130   27.1400   36.2550 H   0  0  0  0  0  0  0  0  0  0  0  0
   38.8400   25.2680   36.6720 H   0  0  0  0  0  0  0  0  0  0  0  0
   38.8090   24.8810   34.8900 H   0  0  0  0  0  0  0  0  0  0  0  0
   39.5610   27.6390   36.1590 H   0  0  0  0  0  0  0  0  0  0  0  0
   39.6440   27.1630   34.3930 H   0  0  0  0  0  0  0  0  0  0  0  0
   35.5780   30.3560   34.3030 C   0  0  0  0  0  0  0  0  0  0  0  0
   34.8990   30.0140   33.4650 H   0  0  0  0  0  0  0  0  0  0  0  0
   36.1590   31.1820   33.8340 H   0  0  0  0  0  0  0  0  0  0  0  0
   33.0080   29.3480   34.5830 F   0  0  0  0  0  0  0  0  0  0  0  0
   33.4830   30.3200   35.4060 C   0  0  0  0  0  0  0  0  0  0  0  0
   34.7630   30.8950   35.3370 C   0  0  0  0  0  0  0  0  0  0  0  0
   35.0260   31.8690   36.2380 C   0  0  0  0  0  0  0  0  0  0  0  0
   34.1470   32.2990   37.1780 C   0  0  0  0  0  0  0  0  0  0  0  0
   32.8610   31.7070   37.2340 C   0  0  0  0  0  0  0  0  0  0  0  0
   32.5280   30.6900   36.3130 C   0  0  0  0  0  0  0  0  0  0  0  0
   35.8960   32.4470   36.2650 H   0  0  0  0  0  0  0  0  0  0  0  0
   34.3290   33.0840   37.9290 H   0  0  0  0  0  0  0  0  0  0  0  0
   32.1560   32.0660   38.0050 H   0  0  0  0  0  0  0  0  0  0  0  0
   31.2780   30.2400   36.4690 O   0  0  0  0  0  0  0  0  0  0  0  0
   30.1240   29.8320   36.6260 C   0  0  0  0  0  2  0  0  0  0  0  0
   29.9010   28.4330   37.2580 C   0  0  0  0  0  2  0  0  0  0  0  0
   28.7970   28.3420   37.3730 H   0  0  0  0  0  0  0  0  0  0  0  0
  1  3  1  0  0  0  0
  1  2  1  0  0  0  0
  4 12  1  0  0  0  0
  5  4  1  0  0  0  0
  5  1  1  0  0  0  0
  6  5  2  0  0  0  0
  7  8  2  0  0  0  0
  7  6  1  0  0  0  0
  8  9  1  0  0  0  0
  9  4  2  0  0  0  0
 10  6  1  0  0  0  0
 11  8  1  0  0  0  0
 12 13  1  0  0  0  0
 12 15  1  0  0  0  0
 13 16  1  0  0  0  0
 14 12  1  0  0  0  0
 14 13  1  0  0  0  0
 14 18  1  0  0  0  0
 17 13  1  0  0  0  0
 19 14  1  0  0  0  0
 20  1  1  0  0  0  0
 20 25  1  0  0  0  0
 21 20  1  0  0  0  0
 22 20  1  0  0  0  0
 23 24  1  0  0  0  0
 24 29  1  0  0  0  0
 25 24  2  0  0  0  0
 25 26  1  0  0  0  0
 26 30  1  0  0  0  0
 26 27  2  0  0  0  0
 27 28  1  0  0  0  0
 27 31  1  0  0  0  0
 28 32  1  0  0  0  0
 29 33  1  0  0  0  0
 29 28  2  0  0  0  0
 33 34  1  0  0  0  0
 34 35  1  0  0  0  0
 35 36  1  0  0  0  0
M  END
>  <minimizedAffinity>
-4.92171049

$$$$

 OpenBabel03272508223D

 36 38  0  0  0  0  0  0  0  0999 V2000
   40.6310   24.8150   35.2660 C   0  0  0  0  0  0  0  0  0  0  0  0
   40.6970   24.9450   36.3660 H   0  0  0  0  0  0  0  0  0  0  0  0
   41.6360   24.3590   35.0040 H   0  0  0  0  0  0  0  0  0  0  0  0
   38.6930   23.4100   35.8180 C   0  0  0  0  0  0  0  0  0  0  0  0
   39.6340   23.8530   34.9280 C   0  0  0  0  0  0  0  0  0  0  0  0
   39.5570   23.2330   33.7240 C   0  0  0  0  0  0  0  0  0  0  0  0
   38.6660   22.2860   33.4240 N   0  0  0  0  0  0  0  0  0  0  0  0
   37.7640   21.8620   34.2860 C   0  0  0  0  0  0  0  0  0  0  0  0
   37.7630   22.4180   35.4990 N   0  0  0  0  0  0  0  0  0  0  0  0
   40.2440   23.4780   32.8980 H   0  0  0  0  0  0  0  0  0  0  0  0
   36.9890   21.1160   34.1970 H   0  0  0  0  0  0  0  0  0  0  0  0
   38.5080   24.0980   37.1680 C   0  0  0  0  0  0  0  0  0  0  0  0
   37.7660   23.5550   38.2040 C   0  0  0  0  0  0  0  0  0  0  0  0
   39.2310   23.1660   38.2340 C   0  0  0  0  0  0  0  0  0  0  0  0
   38.8630   25.0910   37.2830 H   0  0  0  0  0  0  0  0  0  0  0  0
   37.4190   24.0890   39.0830 H   0  0  0  0  0  0  0  0  0  0  0  0
   37.1000   22.6620   37.9940 H   0  0  0  0  0  0  0  0  0  0  0  0
   39.9110   23.6770   38.9180 H   0  0  0  0  0  0  0  0  0  0  0  0
   39.5320   22.1760   37.9410 H   0  0  0  0  0  0  0  0  0  0  0  0
   40.5740   26.1310   34.5910 C   0  0  0  0  0  0  0  0  0  0  0  0
   40.9100   25.9600   33.5240 H   0  0  0  0  0  0  0  0  0  0  0  0
   41.3380   26.8390   34.9850 H   0  0  0  0  0  0  0  0  0  0  0  0
   39.3660   26.4780   32.1180 F   0  0  0  0  0  0  0  0  0  0  0  0
   38.7760   26.9130   33.2630 C   0  0  0  0  0  0  0  0  0  0  0  0
   39.3120   26.7880   34.5550 C   0  0  0  0  0  0  0  0  0  0  0  0
   38.5720   27.3130   35.5580 C   0  0  0  0  0  0  0  0  0  0  0  0
   37.3740   27.9270   35.3850 C   0  0  0  0  0  0  0  0  0  0  0  0
   36.8480   28.0420   34.0750 C   0  0  0  0  0  0  0  0  0  0  0  0
   37.5810   27.5190   32.9870 C   0  0  0  0  0  0  0  0  0  0  0  0
   38.8670   27.3720   36.5590 H   0  0  0  0  0  0  0  0  0  0  0  0
   36.7430   28.3590   36.1770 H   0  0  0  0  0  0  0  0  0  0  0  0
   35.8720   28.5430   33.9480 H   0  0  0  0  0  0  0  0  0  0  0  0
   36.9760   27.7180   31.8110 O   0  0  0  0  0  0  0  0  0  0  0  0
   36.4040   27.9060   30.7340 C   0  0  0  0  0  2  0  0  0  0  0  0
   37.1700   28.6260   29.5930 C   0  0  0  0  0  2  0  0  0  0  0  0
   36.4820   28.5890   28.7170 H   0  0  0  0  0  0  0  0  0  0  0  0
  1  2  1  0  0  0  0
  3  1  1  0  0  0  0
  4 12  1  0  0  0  0
  5  1  1  0  0  0  0
  5  4  2  0  0  0  0
  6  5  1  0  0  0  0
  7  6  2  0  0  0  0
  7  8  1  0  0  0  0
  8  9  2  0  0  0  0
  9  4  1  0  0  0  0
 10  6  1  0  0  0  0
 11  8  1  0  0  0  0
 12 15  1  0  0  0  0
 12 13  1  0  0  0  0
 12 14  1  0  0  0  0
 13 14  1  0  0  0  0
 13 16  1  0  0  0  0
 14 18  1  0  0  0  0
 17 13  1  0  0  0  0
 19 14  1  0  0  0  0
 20 22  1  0  0  0  0
 20  1  1  0  0  0  0
 21 20  1  0  0  0  0
 23 24  1  0  0  0  0
 24 25  1  0  0  0  0
 25 20  1  0  0  0  0
 25 26  2  0  0  0  0
 26 30  1  0  0  0  0
 27 26  1  0  0  0  0
 27 31  1  0  0  0  0
 28 27  2  0  0  0  0
 29 24  2  0  0  0  0
 29 28  1  0  0  0  0
 32 28  1  0  0  0  0
 33 29  1  0  0  0  0
 34 33  1  0  0  0  0
 35 34  1  0  0  0  0
 36 35  1  0  0  0  0
M  END
>  <minimizedAffinity>
-4.85867977

$$$$

 OpenBabel03272508223D

 36 38  0  0  0  0  0  0  0  0999 V2000
   35.7710   28.7710   34.4590 C   0  0  0  0  0  0  0  0  0  0  0  0
   35.1070   28.8280   35.3470 H   0  0  0  0  0  0  0  0  0  0  0  0
   35.2660   27.9850   33.8160 H   0  0  0  0  0  0  0  0  0  0  0  0
   35.5840   31.2160   34.3210 C   0  0  0  0  0  0  0  0  0  0  0  0
   35.7440   29.9940   33.7260 C   0  0  0  0  0  0  0  0  0  0  0  0
   35.8050   30.0660   32.3730 C   0  0  0  0  0  0  0  0  0  0  0  0
   35.7170   31.2030   31.6780 N   0  0  0  0  0  0  0  0  0  0  0  0
   35.5600   32.3770   32.2570 C   0  0  0  0  0  0  0  0  0  0  0  0
   35.4910   32.4020   33.5880 N   0  0  0  0  0  0  0  0  0  0  0  0
   35.9350   29.1690   31.7470 H   0  0  0  0  0  0  0  0  0  0  0  0
   35.4720   33.3690   31.8400 H   0  0  0  0  0  0  0  0  0  0  0  0
   35.6590   31.3650   35.8370 C   0  0  0  0  0  0  0  0  0  0  0  0
   35.2810   32.5150   36.5100 C   0  0  0  0  0  0  0  0  0  0  0  0
   34.1570   31.5130   36.3350 C   0  0  0  0  0  0  0  0  0  0  0  0
   36.1330   30.5990   36.3980 H   0  0  0  0  0  0  0  0  0  0  0  0
   35.5210   32.7540   37.5410 H   0  0  0  0  0  0  0  0  0  0  0  0
   35.0930   33.4620   35.9160 H   0  0  0  0  0  0  0  0  0  0  0  0
   33.8740   30.8690   37.1700 H   0  0  0  0  0  0  0  0  0  0  0  0
   33.3830   31.6920   35.6100 H   0  0  0  0  0  0  0  0  0  0  0  0
   37.0930   28.2240   34.8370 C   0  0  0  0  0  0  0  0  0  0  0  0
   37.1620   28.2960   35.9640 H   0  0  0  0  0  0  0  0  0  0  0  0
   37.9310   28.8720   34.4920 H   0  0  0  0  0  0  0  0  0  0  0  0
   38.1300   26.5320   36.7750 F   0  0  0  0  0  0  0  0  0  0  0  0
   37.8850   26.0960   35.5110 C   0  0  0  0  0  0  0  0  0  0  0  0
   37.3690   26.8780   34.4640 C   0  0  0  0  0  0  0  0  0  0  0  0
   37.2250   26.2540   33.2730 C   0  0  0  0  0  0  0  0  0  0  0  0
   37.5350   24.9530   33.0470 C   0  0  0  0  0  0  0  0  0  0  0  0
   38.0530   24.1790   34.1150 C   0  0  0  0  0  0  0  0  0  0  0  0
   38.2330   24.7800   35.3810 C   0  0  0  0  0  0  0  0  0  0  0  0
   36.9320   26.7160   32.3820 H   0  0  0  0  0  0  0  0  0  0  0  0
   37.4260   24.4130   32.0940 H   0  0  0  0  0  0  0  0  0  0  0  0
   38.3010   23.1210   33.9180 H   0  0  0  0  0  0  0  0  0  0  0  0
   38.7480   23.9390   36.2850 O   0  0  0  0  0  0  0  0  0  0  0  0
   39.2260   23.1750   37.1280 C   0  0  0  0  0  2  0  0  0  0  0  0
   38.8270   23.3550   38.6160 C   0  0  0  0  0  2  0  0  0  0  0  0
   39.3100   22.5040   39.1480 H   0  0  0  0  0  0  0  0  0  0  0  0
  1 20  1  0  0  0  0
  1  2  1  0  0  0  0
  3  1  1  0  0  0  0
  4 12  1  0  0  0  0
  5  4  1  0  0  0  0
  5  1  1  0  0  0  0
  6  5  2  0  0  0  0
  7  8  2  0  0  0  0
  7  6  1  0  0  0  0
  8  9  1  0  0  0  0
  9  4  2  0  0  0  0
 10  6  1  0  0  0  0
 11  8  1  0  0  0  0
 12 14  1  0  0  0  0
 12 15  1  0  0  0  0
 12 13  1  0  0  0  0
 13 16  1  0  0  0  0
 14 13  1  0  0  0  0
 14 18  1  0  0  0  0
 17 13  1  0  0  0  0
 19 14  1  0  0  0  0
 20 21  1  0  0  0  0
 22 20  1  0  0  0  0
 24 23  1  0  0  0  0
 25 20  1  0  0  0  0
 25 24  2  0  0  0  0
 26 25  1  0  0  0  0
 27 26  2  0  0  0  0
 27 28  1  0  0  0  0
 28 29  2  0  0  0  0
 29 24  1  0  0  0  0
 29 33  1  0  0  0  0
 30 26  1  0  0  0  0
 31 27  1  0  0  0  0
 32 28  1  0  0  0  0
 33 34  1  0  0  0  0
 34 35  1  0  0  0  0
 35 36  1  0  0  0  0
M  END
>  <minimizedAffinity>
-4.83130836

$$$$

 OpenBabel03272508223D

 36 38  0  0  0  0  0  0  0  0999 V2000
   40.7010   24.2920   34.2070 C   0  0  0  0  0  0  0  0  0  0  0  0
   41.3490   24.0430   33.3410 H   0  0  0  0  0  0  0  0  0  0  0  0
   39.6600   24.0610   33.8180 H   0  0  0  0  0  0  0  0  0  0  0  0
   39.9510   22.9070   36.0910 C   0  0  0  0  0  0  0  0  0  0  0  0
   40.9470   23.4060   35.2970 C   0  0  0  0  0  0  0  0  0  0  0  0
   42.1860   23.0250   35.6970 C   0  0  0  0  0  0  0  0  0  0  0  0
   42.4260   22.2470   36.7550 N   0  0  0  0  0  0  0  0  0  0  0  0
   41.4620   21.7720   37.5180 C   0  0  0  0  0  0  0  0  0  0  0  0
   40.2080   22.0940   37.1980 N   0  0  0  0  0  0  0  0  0  0  0  0
   43.0950   23.3420   35.1610 H   0  0  0  0  0  0  0  0  0  0  0  0
   41.4940   21.1420   38.3940 H   0  0  0  0  0  0  0  0  0  0  0  0
   38.4840   23.0830   35.7110 C   0  0  0  0  0  0  0  0  0  0  0  0
   37.4350   22.5930   36.4720 C   0  0  0  0  0  0  0  0  0  0  0  0
   37.8500   24.0040   36.8410 C   0  0  0  0  0  0  0  0  0  0  0  0
   38.2530   23.4970   34.7610 H   0  0  0  0  0  0  0  0  0  0  0  0
   36.4060   22.4920   36.1420 H   0  0  0  0  0  0  0  0  0  0  0  0
   37.6580   21.8600   37.3070 H   0  0  0  0  0  0  0  0  0  0  0  0
   37.2620   24.8500   36.4800 H   0  0  0  0  0  0  0  0  0  0  0  0
   38.4090   24.1830   37.7420 H   0  0  0  0  0  0  0  0  0  0  0  0
   40.7380   25.7460   34.4800 C   0  0  0  0  0  0  0  0  0  0  0  0
   41.3130   26.2190   33.6280 H   0  0  0  0  0  0  0  0  0  0  0  0
   41.3600   25.9910   35.3700 H   0  0  0  0  0  0  0  0  0  0  0  0
   38.9990   25.6140   32.3220 F   0  0  0  0  0  0  0  0  0  0  0  0
   38.6730   26.2900   33.4560 C   0  0  0  0  0  0  0  0  0  0  0  0
   39.4880   26.4170   34.5930 C   0  0  0  0  0  0  0  0  0  0  0  0
   38.9820   27.1560   35.6060 C   0  0  0  0  0  0  0  0  0  0  0  0
   37.7650   27.7550   35.5830 C   0  0  0  0  0  0  0  0  0  0  0  0
   36.9560   27.6150   34.4290 C   0  0  0  0  0  0  0  0  0  0  0  0
   37.4350   26.8610   33.3360 C   0  0  0  0  0  0  0  0  0  0  0  0
   39.4940   27.4110   36.4810 H   0  0  0  0  0  0  0  0  0  0  0  0
   37.3200   28.3580   36.3910 H   0  0  0  0  0  0  0  0  0  0  0  0
   35.9670   28.1080   34.4240 H   0  0  0  0  0  0  0  0  0  0  0  0
   36.5770   26.8330   32.3100 O   0  0  0  0  0  0  0  0  0  0  0  0
   35.7760   26.8150   31.3720 C   0  0  0  0  0  2  0  0  0  0  0  0
   35.1340   25.4640   30.9580 C   0  0  0  0  0  2  0  0  0  0  0  0
   34.3950   25.7280   30.1670 H   0  0  0  0  0  0  0  0  0  0  0  0
  1 20  1  0  0  0  0
  1  5  1  0  0  0  0
  2  1  1  0  0  0  0
  3  1  1  0  0  0  0
  4  9  1  0  0  0  0
  5  6  1  0  0  0  0
  5  4  2  0  0  0  0
  6  7  2  0  0  0  0
  7  8  1  0  0  0  0
  8 11  1  0  0  0  0
  9  8  2  0  0  0  0
 10  6  1  0  0  0  0
 12  4  1  0  0  0  0
 12 13  1  0  0  0  0
 12 14  1  0  0  0  0
 13 14  1  0  0  0  0
 13 17  1  0  0  0  0
 14 19  1  0  0  0  0
 15 12  1  0  0  0  0
 16 13  1  0  0  0  0
 18 14  1  0  0  0  0
 20 25  1  0  0  0  0
 20 22  1  0  0  0  0
 21 20  1  0  0  0  0
 23 24  1  0  0  0  0
 24 25  1  0  0  0  0
 25 26  2  0  0  0  0
 26 30  1  0  0  0  0
 27 26  1  0  0  0  0
 27 31  1  0  0  0  0
 28 27  2  0  0  0  0
 29 24  2  0  0  0  0
 29 28  1  0  0  0  0
 32 28  1  0  0  0  0
 33 29  1  0  0  0  0
 34 33  1  0  0  0  0
 35 34  1  0  0  0  0
 36 35  1  0  0  0  0
M  END
>  <minimizedAffinity>
-4.80990601

$$$$
