
 OpenBabel03272505283D

 25 26  0  0  0  0  0  0  0  0999 V2000
   38.1010   23.3200   34.4930 N   0  0  0  0  0  0  0  0  0  0  0  0
   38.1300   24.5860   33.9930 C   0  0  0  0  0  0  0  0  0  0  0  0
   38.1860   25.6930   34.8300 C   0  0  0  0  0  0  0  0  0  0  0  0
   38.2130   25.4680   36.2130 C   0  0  0  0  0  0  0  0  0  0  0  0
   38.2640   26.4410   37.0090 O   0  0  0  0  0  0  0  0  0  0  0  0
   38.1840   24.1970   36.7000 N   0  0  0  0  0  0  0  0  0  0  0  0
   38.1290   23.1980   35.8030 C   0  0  0  0  0  0  0  0  0  0  0  0
   38.1030   22.0500   36.2960 O   0  0  0  0  0  0  0  0  0  0  0  0
   38.1090   24.7390   32.9210 H   0  0  0  0  0  0  0  0  0  0  0  0
   39.1040   20.5120   32.2770 C   0  0  0  0  0  0  0  0  0  0  0  0
   39.1700   21.6290   33.1200 C   0  0  0  0  0  0  0  0  0  0  0  0
   38.0420   22.2090   33.6440 C   0  0  0  0  0  0  0  0  0  0  0  0
   36.8660   21.6460   33.3010 N   0  0  0  0  0  0  0  0  0  0  0  0
   36.7460   20.5700   32.4920 C   0  0  0  0  0  0  0  0  0  0  0  0
   37.8730   19.9990   31.9770 N   0  0  0  0  0  0  0  0  0  0  0  0
   39.9570   20.0140   31.8370 H   0  0  0  0  0  0  0  0  0  0  0  0
   40.1800   21.9220   33.2540 H   0  0  0  0  0  0  0  0  0  0  0  0
   35.7490   20.1870   32.2730 H   0  0  0  0  0  0  0  0  0  0  0  0
   38.2150   23.9560   38.1300 C   0  0  0  0  0  0  0  0  0  0  0  0
   37.2410   23.0610   38.4700 F   0  0  0  0  0  0  0  0  0  0  0  0
   37.9970   25.0890   38.8750 F   0  0  0  0  0  0  0  0  0  0  0  0
   39.4450   23.3780   38.4630 F   0  0  0  0  0  0  0  0  0  0  0  0
   38.2130   27.0630   34.2640 C   0  0  0  0  0  2  0  0  0  0  0  0
   36.8140   27.5850   34.0150 C   0  0  0  0  0  2  0  0  0  0  0  0
   36.8460   28.6720   34.0150 H   0  0  0  0  0  0  0  0  0  0  0  0
  1  7  1  0  0  0  0
  2  1  1  0  0  0  0
  2  3  2  0  0  0  0
  3  4  1  0  0  0  0
  4  6  1  0  0  0  0
  4  5  2  0  0  0  0
  6 19  1  0  0  0  0
  7  8  2  0  0  0  0
  7  6  1  0  0  0  0
  9  2  1  0  0  0  0
 10 11  1  0  0  0  0
 11 17  1  0  0  0  0
 11 12  2  0  0  0  0
 12  1  1  0  0  0  0
 13 12  1  0  0  0  0
 14 13  2  0  0  0  0
 15 10  2  0  0  0  0
 15 14  1  0  0  0  0
 16 10  1  0  0  0  0
 18 14  1  0  0  0  0
 19 22  1  0  0  0  0
 19 20  1  0  0  0  0
 19 21  1  0  0  0  0
 23  3  1  0  0  0  0
 24 25  1  0  0  0  0
 24 23  1  0  0  0  0
M  END
>  <minimizedAffinity>
-5.17645884

$$$$

 OpenBabel03272505283D

 25 26  0  0  0  0  0  0  0  0999 V2000
   38.9870   24.4010   34.8250 N   0  0  0  0  0  0  0  0  0  0  0  0
   40.0270   23.5560   34.5820 C   0  0  0  0  0  0  0  0  0  0  0  0
   40.5730   22.7720   35.5900 C   0  0  0  0  0  0  0  0  0  0  0  0
   40.0200   22.8750   36.8740 C   0  0  0  0  0  0  0  0  0  0  0  0
   40.4820   22.1840   37.8170 O   0  0  0  0  0  0  0  0  0  0  0  0
   38.9790   23.7230   37.1030 N   0  0  0  0  0  0  0  0  0  0  0  0
   38.5270   24.4360   36.0590 C   0  0  0  0  0  0  0  0  0  0  0  0
   37.5730   25.2010   36.3170 O   0  0  0  0  0  0  0  0  0  0  0  0
   40.4400   23.4910   33.5840 H   0  0  0  0  0  0  0  0  0  0  0  0
   38.3760   27.2240   32.4900 C   0  0  0  0  0  0  0  0  0  0  0  0
   38.9200   26.4420   33.5170 C   0  0  0  0  0  0  0  0  0  0  0  0
   38.4420   25.1890   33.8060 C   0  0  0  0  0  0  0  0  0  0  0  0
   37.4170   24.7520   33.0490 N   0  0  0  0  0  0  0  0  0  0  0  0
   36.8540   25.4630   32.0470 C   0  0  0  0  0  0  0  0  0  0  0  0
   37.3370   26.7080   31.7660 N   0  0  0  0  0  0  0  0  0  0  0  0
   38.7110   28.2150   32.2170 H   0  0  0  0  0  0  0  0  0  0  0  0
   39.7050   26.9720   33.9970 H   0  0  0  0  0  0  0  0  0  0  0  0
   36.0270   25.0220   31.4900 H   0  0  0  0  0  0  0  0  0  0  0  0
   38.3980   23.8320   38.4280 C   0  0  0  0  0  0  0  0  0  0  0  0
   37.8720   25.0800   38.6010 F   0  0  0  0  0  0  0  0  0  0  0  0
   39.3090   23.6370   39.4370 F   0  0  0  0  0  0  0  0  0  0  0  0
   37.3440   22.9180   38.5340 F   0  0  0  0  0  0  0  0  0  0  0  0
   41.7080   21.8630   35.3030 C   0  0  0  0  0  2  0  0  0  0  0  0
   43.0360   22.5790   35.4320 C   0  0  0  0  0  2  0  0  0  0  0  0
   43.8080   21.8410   35.6340 H   0  0  0  0  0  0  0  0  0  0  0  0
  1  7  1  0  0  0  0
  2  1  1  0  0  0  0
  2  3  2  0  0  0  0
  3  4  1  0  0  0  0
  4  6  1  0  0  0  0
  4  5  2  0  0  0  0
  6 19  1  0  0  0  0
  7  8  2  0  0  0  0
  7  6  1  0  0  0  0
  9  2  1  0  0  0  0
 10 11  1  0  0  0  0
 11 12  2  0  0  0  0
 11 17  1  0  0  0  0
 12  1  1  0  0  0  0
 13 12  1  0  0  0  0
 14 13  2  0  0  0  0
 15 14  1  0  0  0  0
 15 10  2  0  0  0  0
 16 10  1  0  0  0  0
 18 14  1  0  0  0  0
 19 22  1  0  0  0  0
 19 20  1  0  0  0  0
 19 21  1  0  0  0  0
 23 24  1  0  0  0  0
 23  3  1  0  0  0  0
 24 25  1  0  0  0  0
M  END
>  <minimizedAffinity>
-5.0943079

$$$$

 OpenBabel03272505283D

 25 26  0  0  0  0  0  0  0  0999 V2000
   38.0490   24.2440   34.4710 N   0  0  0  0  0  0  0  0  0  0  0  0
   37.7650   23.3920   33.4470 C   0  0  0  0  0  0  0  0  0  0  0  0
   37.1900   23.8450   32.2670 C   0  0  0  0  0  0  0  0  0  0  0  0
   36.9090   25.2140   32.1580 C   0  0  0  0  0  0  0  0  0  0  0  0
   36.3880   25.6690   31.1080 O   0  0  0  0  0  0  0  0  0  0  0  0
   37.1990   26.0550   33.1890 N   0  0  0  0  0  0  0  0  0  0  0  0
   37.7530   25.5140   34.2860 C   0  0  0  0  0  0  0  0  0  0  0  0
   38.0000   26.3230   35.2050 O   0  0  0  0  0  0  0  0  0  0  0  0
   37.9890   22.3380   33.5510 H   0  0  0  0  0  0  0  0  0  0  0  0
   40.4960   22.8740   36.9070 C   0  0  0  0  0  0  0  0  0  0  0  0
   39.9210   23.3290   35.7140 C   0  0  0  0  0  0  0  0  0  0  0  0
   38.6270   23.7810   35.6580 C   0  0  0  0  0  0  0  0  0  0  0  0
   37.9360   23.7600   36.8160 N   0  0  0  0  0  0  0  0  0  0  0  0
   38.4410   23.3310   37.9940 C   0  0  0  0  0  0  0  0  0  0  0  0
   39.7300   22.8850   38.0400 N   0  0  0  0  0  0  0  0  0  0  0  0
   41.5080   22.5080   37.0110 H   0  0  0  0  0  0  0  0  0  0  0  0
   40.6230   23.2510   34.9220 H   0  0  0  0  0  0  0  0  0  0  0  0
   37.8030   23.3540   38.8770 H   0  0  0  0  0  0  0  0  0  0  0  0
   36.9150   27.4740   33.0830 C   0  0  0  0  0  0  0  0  0  0  0  0
   36.9170   28.0410   34.3250 F   0  0  0  0  0  0  0  0  0  0  0  0
   35.6900   27.7400   32.5220 F   0  0  0  0  0  0  0  0  0  0  0  0
   37.9360   28.0830   32.3450 F   0  0  0  0  0  0  0  0  0  0  0  0
   36.8850   22.8980   31.1690 C   0  0  0  0  0  2  0  0  0  0  0  0
   35.5980   22.1440   31.4300 C   0  0  0  0  0  2  0  0  0  0  0  0
   35.1970   21.8050   30.4770 H   0  0  0  0  0  0  0  0  0  0  0  0
  1 12  1  0  0  0  0
  2  9  1  0  0  0  0
  2  1  1  0  0  0  0
  3  2  2  0  0  0  0
  4  3  1  0  0  0  0
  4  6  1  0  0  0  0
  5  4  2  0  0  0  0
  6  7  1  0  0  0  0
  7  1  1  0  0  0  0
  7  8  2  0  0  0  0
 10 16  1  0  0  0  0
 10 15  1  0  0  0  0
 11 10  2  0  0  0  0
 12 11  1  0  0  0  0
 12 13  2  0  0  0  0
 13 14  1  0  0  0  0
 14 15  2  0  0  0  0
 14 18  1  0  0  0  0
 17 11  1  0  0  0  0
 19  6  1  0  0  0  0
 19 20  1  0  0  0  0
 21 19  1  0  0  0  0
 22 19  1  0  0  0  0
 23 24  1  0  0  0  0
 23  3  1  0  0  0  0
 25 24  1  0  0  0  0
M  END
>  <minimizedAffinity>
-4.99217987

$$$$

 OpenBabel03272505283D

 25 26  0  0  0  0  0  0  0  0999 V2000
   37.6330   22.3790   34.3630 N   0  0  0  0  0  0  0  0  0  0  0  0
   36.7820   21.3270   34.2040 C   0  0  0  0  0  0  0  0  0  0  0  0
   36.0570   21.1550   33.0320 C   0  0  0  0  0  0  0  0  0  0  0  0
   36.2260   22.1000   32.0110 C   0  0  0  0  0  0  0  0  0  0  0  0
   35.5900   21.9830   30.9330 O   0  0  0  0  0  0  0  0  0  0  0  0
   37.0800   23.1470   32.1830 N   0  0  0  0  0  0  0  0  0  0  0  0
   37.7330   23.2200   33.3550 C   0  0  0  0  0  0  0  0  0  0  0  0
   38.5030   24.1970   33.4680 O   0  0  0  0  0  0  0  0  0  0  0  0
   36.6650   20.6080   35.0040 H   0  0  0  0  0  0  0  0  0  0  0  0
   38.5730   23.3690   37.8170 C   0  0  0  0  0  0  0  0  0  0  0  0
   37.8440   23.2100   36.6320 C   0  0  0  0  0  0  0  0  0  0  0  0
   38.3590   22.5480   35.5470 C   0  0  0  0  0  0  0  0  0  0  0  0
   39.6080   22.0600   35.6820 N   0  0  0  0  0  0  0  0  0  0  0  0
   40.3560   22.1850   36.8010 C   0  0  0  0  0  0  0  0  0  0  0  0
   39.8350   22.8450   37.8760 N   0  0  0  0  0  0  0  0  0  0  0  0
   38.2200   23.8790   38.7030 H   0  0  0  0  0  0  0  0  0  0  0  0
   36.8950   23.6750   36.7270 H   0  0  0  0  0  0  0  0  0  0  0  0
   41.3580   21.7550   36.8140 H   0  0  0  0  0  0  0  0  0  0  0  0
   37.2640   24.1270   31.1290 C   0  0  0  0  0  0  0  0  0  0  0  0
   37.8750   23.5430   30.0560 F   0  0  0  0  0  0  0  0  0  0  0  0
   38.0480   25.1890   31.5080 F   0  0  0  0  0  0  0  0  0  0  0  0
   36.0070   24.5710   30.7030 F   0  0  0  0  0  0  0  0  0  0  0  0
   35.1340   20.0050   32.8830 C   0  0  0  0  0  2  0  0  0  0  0  0
   35.8720   18.7550   32.4520 C   0  0  0  0  0  2  0  0  0  0  0  0
   35.2890   17.8880   32.7550 H   0  0  0  0  0  0  0  0  0  0  0  0
  1 12  1  0  0  0  0
  2  1  1  0  0  0  0
  2  9  1  0  0  0  0
  3  2  2  0  0  0  0
  4  6  1  0  0  0  0
  4  3  1  0  0  0  0
  5  4  2  0  0  0  0
  6  7  1  0  0  0  0
  7  8  2  0  0  0  0
  7  1  1  0  0  0  0
 10 15  1  0  0  0  0
 10 16  1  0  0  0  0
 11 17  1  0  0  0  0
 11 10  2  0  0  0  0
 12 13  2  0  0  0  0
 12 11  1  0  0  0  0
 13 14  1  0  0  0  0
 14 18  1  0  0  0  0
 14 15  2  0  0  0  0
 19 21  1  0  0  0  0
 19  6  1  0  0  0  0
 20 19  1  0  0  0  0
 22 19  1  0  0  0  0
 23  3  1  0  0  0  0
 24 25  1  0  0  0  0
 24 23  1  0  0  0  0
M  END
>  <minimizedAffinity>
-4.98918581

$$$$

 OpenBabel03272505283D

 25 26  0  0  0  0  0  0  0  0999 V2000
   38.1300   24.1370   34.4110 N   0  0  0  0  0  0  0  0  0  0  0  0
   37.6990   23.2640   33.4580 C   0  0  0  0  0  0  0  0  0  0  0  0
   37.0020   23.7010   32.3390 C   0  0  0  0  0  0  0  0  0  0  0  0
   36.7530   25.0740   32.2170 C   0  0  0  0  0  0  0  0  0  0  0  0
   36.1250   25.5140   31.2200 O   0  0  0  0  0  0  0  0  0  0  0  0
   37.1900   25.9360   33.1760 N   0  0  0  0  0  0  0  0  0  0  0  0
   37.8540   25.4100   34.2180 C   0  0  0  0  0  0  0  0  0  0  0  0
   38.2340   26.2380   35.0730 O   0  0  0  0  0  0  0  0  0  0  0  0
   37.9020   22.2060   33.5710 H   0  0  0  0  0  0  0  0  0  0  0  0
   38.9370   23.1040   37.8860 C   0  0  0  0  0  0  0  0  0  0  0  0
   38.2330   23.5590   36.7640 C   0  0  0  0  0  0  0  0  0  0  0  0
   38.8300   23.6900   35.5370 C   0  0  0  0  0  0  0  0  0  0  0  0
   40.1350   23.3600   35.4690 N   0  0  0  0  0  0  0  0  0  0  0  0
   40.8630   22.9160   36.5190 C   0  0  0  0  0  0  0  0  0  0  0  0
   40.2590   22.7880   37.7360 N   0  0  0  0  0  0  0  0  0  0  0  0
   38.5200   22.9790   38.8760 H   0  0  0  0  0  0  0  0  0  0  0  0
   37.2290   23.7750   37.0320 H   0  0  0  0  0  0  0  0  0  0  0  0
   41.9140   22.6740   36.3630 H   0  0  0  0  0  0  0  0  0  0  0  0
   36.9400   27.3600   33.0540 C   0  0  0  0  0  0  0  0  0  0  0  0
   36.8360   27.9200   34.2960 F   0  0  0  0  0  0  0  0  0  0  0  0
   35.7760   27.6500   32.3850 F   0  0  0  0  0  0  0  0  0  0  0  0
   38.0340   27.9570   32.4190 F   0  0  0  0  0  0  0  0  0  0  0  0
   36.5390   22.7310   31.3180 C   0  0  0  0  0  2  0  0  0  0  0  0
   35.4400   21.8410   31.8590 C   0  0  0  0  0  2  0  0  0  0  0  0
   34.8570   21.4660   31.0210 H   0  0  0  0  0  0  0  0  0  0  0  0
  1 12  1  0  0  0  0
  2  9  1  0  0  0  0
  2  1  1  0  0  0  0
  3  2  2  0  0  0  0
  4  3  1  0  0  0  0
  4  6  1  0  0  0  0
  5  4  2  0  0  0  0
  6  7  1  0  0  0  0
  7  1  1  0  0  0  0
  7  8  2  0  0  0  0
 10 16  1  0  0  0  0
 11 17  1  0  0  0  0
 11 10  2  0  0  0  0
 12 11  1  0  0  0  0
 13 12  2  0  0  0  0
 13 14  1  0  0  0  0
 14 15  2  0  0  0  0
 15 10  1  0  0  0  0
 18 14  1  0  0  0  0
 19  6  1  0  0  0  0
 19 20  1  0  0  0  0
 21 19  1  0  0  0  0
 22 19  1  0  0  0  0
 23 24  1  0  0  0  0
 23  3  1  0  0  0  0
 25 24  1  0  0  0  0
M  END
>  <minimizedAffinity>
-4.92449474

$$$$

 OpenBabel03272505283D

 25 26  0  0  0  0  0  0  0  0999 V2000
   38.1670   23.6510   34.2890 N   0  0  0  0  0  0  0  0  0  0  0  0
   38.3080   24.8960   33.7550 C   0  0  0  0  0  0  0  0  0  0  0  0
   37.7150   25.2350   32.5450 C   0  0  0  0  0  0  0  0  0  0  0  0
   36.9630   24.2540   31.8850 C   0  0  0  0  0  0  0  0  0  0  0  0
   36.4090   24.5170   30.7870 O   0  0  0  0  0  0  0  0  0  0  0  0
   36.8300   23.0130   32.4300 N   0  0  0  0  0  0  0  0  0  0  0  0
   37.4430   22.7900   33.6040 C   0  0  0  0  0  0  0  0  0  0  0  0
   37.2940   21.6380   34.0650 O   0  0  0  0  0  0  0  0  0  0  0  0
   38.8930   25.6400   34.2800 H   0  0  0  0  0  0  0  0  0  0  0  0
   38.8260   23.3280   37.9300 C   0  0  0  0  0  0  0  0  0  0  0  0
   38.2240   23.6750   36.7140 C   0  0  0  0  0  0  0  0  0  0  0  0
   38.7670   23.3150   35.5070 C   0  0  0  0  0  0  0  0  0  0  0  0
   39.9150   22.6100   35.5550 N   0  0  0  0  0  0  0  0  0  0  0  0
   40.5380   22.2490   36.6990 C   0  0  0  0  0  0  0  0  0  0  0  0
   39.9900   22.6110   37.8950 N   0  0  0  0  0  0  0  0  0  0  0  0
   38.4440   23.5830   38.9090 H   0  0  0  0  0  0  0  0  0  0  0  0
   37.3410   24.2360   36.8950 H   0  0  0  0  0  0  0  0  0  0  0  0
   41.4650   21.6790   36.6340 H   0  0  0  0  0  0  0  0  0  0  0  0
   36.0490   21.9940   31.7550 C   0  0  0  0  0  0  0  0  0  0  0  0
   35.3110   22.5610   30.7560 F   0  0  0  0  0  0  0  0  0  0  0  0
   35.1680   21.3470   32.5870 F   0  0  0  0  0  0  0  0  0  0  0  0
   36.9240   21.0780   31.1580 F   0  0  0  0  0  0  0  0  0  0  0  0
   37.8870   26.5950   31.9810 C   0  0  0  0  0  2  0  0  0  0  0  0
   37.0810   27.6190   32.7530 C   0  0  0  0  0  2  0  0  0  0  0  0
   37.5350   28.5970   32.6060 H   0  0  0  0  0  0  0  0  0  0  0  0
  1 12  1  0  0  0  0
  2  9  1  0  0  0  0
  2  1  1  0  0  0  0
  3  2  2  0  0  0  0
  4  6  1  0  0  0  0
  4  3  1  0  0  0  0
  5  4  2  0  0  0  0
  6  7  1  0  0  0  0
  7  8  2  0  0  0  0
  7  1  1  0  0  0  0
 10 16  1  0  0  0  0
 11 17  1  0  0  0  0
 11 10  2  0  0  0  0
 12 13  2  0  0  0  0
 12 11  1  0  0  0  0
 13 14  1  0  0  0  0
 14 15  2  0  0  0  0
 15 10  1  0  0  0  0
 18 14  1  0  0  0  0
 19  6  1  0  0  0  0
 19 21  1  0  0  0  0
 20 19  1  0  0  0  0
 22 19  1  0  0  0  0
 23  3  1  0  0  0  0
 23 24  1  0  0  0  0
 25 24  1  0  0  0  0
M  END
>  <minimizedAffinity>
-4.89541006

$$$$

 OpenBabel03272505283D

 25 26  0  0  0  0  0  0  0  0999 V2000
   38.0740   23.3460   34.4050 N   0  0  0  0  0  0  0  0  0  0  0  0
   37.9650   23.2360   35.7590 C   0  0  0  0  0  0  0  0  0  0  0  0
   38.0210   24.3530   36.5820 C   0  0  0  0  0  0  0  0  0  0  0  0
   38.1940   25.6060   35.9770 C   0  0  0  0  0  0  0  0  0  0  0  0
   38.2500   26.6440   36.6830 O   0  0  0  0  0  0  0  0  0  0  0  0
   38.3010   25.7020   34.6220 N   0  0  0  0  0  0  0  0  0  0  0  0
   38.2340   24.5590   33.9190 C   0  0  0  0  0  0  0  0  0  0  0  0
   38.3380   24.6960   32.6820 O   0  0  0  0  0  0  0  0  0  0  0  0
   37.8320   22.2600   36.2070 H   0  0  0  0  0  0  0  0  0  0  0  0
   39.0880   20.4380   32.3280 C   0  0  0  0  0  0  0  0  0  0  0  0
   39.1500   21.5740   33.1460 C   0  0  0  0  0  0  0  0  0  0  0  0
   38.0190   22.2160   33.5820 C   0  0  0  0  0  0  0  0  0  0  0  0
   36.8430   21.6960   33.1780 N   0  0  0  0  0  0  0  0  0  0  0  0
   36.7250   20.6050   32.3890 C   0  0  0  0  0  0  0  0  0  0  0  0
   37.8560   19.9720   31.9610 N   0  0  0  0  0  0  0  0  0  0  0  0
   39.9430   19.8910   31.9550 H   0  0  0  0  0  0  0  0  0  0  0  0
   40.1630   21.8260   33.3370 H   0  0  0  0  0  0  0  0  0  0  0  0
   35.7280   20.2600   32.1150 H   0  0  0  0  0  0  0  0  0  0  0  0
   38.4750   26.9950   33.9880 C   0  0  0  0  0  0  0  0  0  0  0  0
   37.6460   27.9110   34.5700 F   0  0  0  0  0  0  0  0  0  0  0  0
   38.1830   26.9830   32.6470 F   0  0  0  0  0  0  0  0  0  0  0  0
   39.7890   27.4270   34.2020 F   0  0  0  0  0  0  0  0  0  0  0  0
   37.9050   24.2090   38.0520 C   0  0  0  0  0  2  0  0  0  0  0  0
   38.9910   23.3120   38.6070 C   0  0  0  0  0  2  0  0  0  0  0  0
   39.1390   23.5580   39.6560 H   0  0  0  0  0  0  0  0  0  0  0  0
  1  2  1  0  0  0  0
  2  9  1  0  0  0  0
  2  3  2  0  0  0  0
  3 23  1  0  0  0  0
  4  3  1  0  0  0  0
  4  5  2  0  0  0  0
  6  4  1  0  0  0  0
  7  1  1  0  0  0  0
  7  6  1  0  0  0  0
  8  7  2  0  0  0  0
 10 11  1  0  0  0  0
 11 17  1  0  0  0  0
 11 12  2  0  0  0  0
 12  1  1  0  0  0  0
 13 12  1  0  0  0  0
 14 13  2  0  0  0  0
 15 10  2  0  0  0  0
 15 14  1  0  0  0  0
 16 10  1  0  0  0  0
 18 14  1  0  0  0  0
 19 22  1  0  0  0  0
 19 20  1  0  0  0  0
 19  6  1  0  0  0  0
 21 19  1  0  0  0  0
 23 24  1  0  0  0  0
 24 25  1  0  0  0  0
M  END
>  <minimizedAffinity>
-4.81297874

$$$$

 OpenBabel03272505283D

 25 26  0  0  0  0  0  0  0  0999 V2000
   37.9410   23.4850   33.8110 N   0  0  0  0  0  0  0  0  0  0  0  0
   37.9670   24.7970   33.4470 C   0  0  0  0  0  0  0  0  0  0  0  0
   38.0800   25.8080   34.3930 C   0  0  0  0  0  0  0  0  0  0  0  0
   38.1670   25.4380   35.7410 C   0  0  0  0  0  0  0  0  0  0  0  0
   38.2710   26.3190   36.6310 O   0  0  0  0  0  0  0  0  0  0  0  0
   38.1400   24.1220   36.0920 N   0  0  0  0  0  0  0  0  0  0  0  0
   38.0280   23.2240   35.0990 C   0  0  0  0  0  0  0  0  0  0  0  0
   38.0060   22.0310   35.4680 O   0  0  0  0  0  0  0  0  0  0  0  0
   37.8980   25.0630   32.4000 H   0  0  0  0  0  0  0  0  0  0  0  0
   36.5090   21.1100   31.3400 C   0  0  0  0  0  0  0  0  0  0  0  0
   36.6180   22.1200   32.3040 C   0  0  0  0  0  0  0  0  0  0  0  0
   37.8240   22.4720   32.8540 C   0  0  0  0  0  0  0  0  0  0  0  0
   38.9010   21.7880   32.4170 N   0  0  0  0  0  0  0  0  0  0  0  0
   38.8540   20.8050   31.4910 C   0  0  0  0  0  0  0  0  0  0  0  0
   37.6490   20.4630   30.9490 N   0  0  0  0  0  0  0  0  0  0  0  0
   35.5870   20.7920   30.8720 H   0  0  0  0  0  0  0  0  0  0  0  0
   35.6580   22.5210   32.5160 H   0  0  0  0  0  0  0  0  0  0  0  0
   39.7810   20.3110   31.2030 H   0  0  0  0  0  0  0  0  0  0  0  0
   38.2350   23.7300   37.4850 C   0  0  0  0  0  0  0  0  0  0  0  0
   38.1240   24.8320   38.2850 F   0  0  0  0  0  0  0  0  0  0  0  0
   39.4270   23.1260   37.7990 F   0  0  0  0  0  0  0  0  0  0  0  0
   37.1610   22.8860   37.7900 F   0  0  0  0  0  0  0  0  0  0  0  0
   38.1020   27.2300   33.9730 C   0  0  0  0  0  2  0  0  0  0  0  0
   36.7350   27.6930   33.5180 C   0  0  0  0  0  2  0  0  0  0  0  0
   36.6830   28.7740   33.6260 H   0  0  0  0  0  0  0  0  0  0  0  0
  1  7  1  0  0  0  0
  2  1  1  0  0  0  0
  2  3  2  0  0  0  0
  3  4  1  0  0  0  0
  4  6  1  0  0  0  0
  4  5  2  0  0  0  0
  6 19  1  0  0  0  0
  7  8  2  0  0  0  0
  7  6  1  0  0  0  0
  9  2  1  0  0  0  0
 10 11  1  0  0  0  0
 11 17  1  0  0  0  0
 11 12  2  0  0  0  0
 12  1  1  0  0  0  0
 13 12  1  0  0  0  0
 14 13  2  0  0  0  0
 15 10  2  0  0  0  0
 15 14  1  0  0  0  0
 16 10  1  0  0  0  0
 18 14  1  0  0  0  0
 19 22  1  0  0  0  0
 19 21  1  0  0  0  0
 19 20  1  0  0  0  0
 23  3  1  0  0  0  0
 24 25  1  0  0  0  0
 24 23  1  0  0  0  0
M  END
>  <minimizedAffinity>
-4.80392075

$$$$

 OpenBabel03272505283D

 25 26  0  0  0  0  0  0  0  0999 V2000
   35.8870   27.8860   32.5440 N   0  0  0  0  0  0  0  0  0  0  0  0
   35.9620   26.8230   31.6950 C   0  0  0  0  0  0  0  0  0  0  0  0
   36.7410   25.7130   31.9920 C   0  0  0  0  0  0  0  0  0  0  0  0
   37.4530   25.7160   33.1990 C   0  0  0  0  0  0  0  0  0  0  0  0
   38.1720   24.7320   33.5090 O   0  0  0  0  0  0  0  0  0  0  0  0
   37.3700   26.7840   34.0390 N   0  0  0  0  0  0  0  0  0  0  0  0
   36.5870   27.8070   33.6560 C   0  0  0  0  0  0  0  0  0  0  0  0
   36.5430   28.7640   34.4570 O   0  0  0  0  0  0  0  0  0  0  0  0
   35.4040   26.8400   30.7670 H   0  0  0  0  0  0  0  0  0  0  0  0
   34.7500   31.1150   31.1020 C   0  0  0  0  0  0  0  0  0  0  0  0
   35.5450   30.0030   31.4110 C   0  0  0  0  0  0  0  0  0  0  0  0
   35.1020   29.0020   32.2380 C   0  0  0  0  0  0  0  0  0  0  0  0
   33.8590   29.1470   32.7390 N   0  0  0  0  0  0  0  0  0  0  0  0
   33.0500   30.1980   32.4740 C   0  0  0  0  0  0  0  0  0  0  0  0
   33.5000   31.1890   31.6500 N   0  0  0  0  0  0  0  0  0  0  0  0
   35.0460   31.9320   30.4580 H   0  0  0  0  0  0  0  0  0  0  0  0
   36.4860   30.0870   30.9290 H   0  0  0  0  0  0  0  0  0  0  0  0
   32.0600   30.2250   32.9290 H   0  0  0  0  0  0  0  0  0  0  0  0
   38.1010   26.7930   35.2920 C   0  0  0  0  0  0  0  0  0  0  0  0
   37.8730   27.9670   35.9530 F   0  0  0  0  0  0  0  0  0  0  0  0
   39.4600   26.6830   35.1270 F   0  0  0  0  0  0  0  0  0  0  0  0
   37.6180   25.7600   36.1030 F   0  0  0  0  0  0  0  0  0  0  0  0
   36.8100   24.5710   31.0500 C   0  0  0  0  0  2  0  0  0  0  0  0
   35.6240   23.6450   31.2160 C   0  0  0  0  0  2  0  0  0  0  0  0
   35.4810   23.0980   30.2870 H   0  0  0  0  0  0  0  0  0  0  0  0
  1  7  1  0  0  0  0
  2  3  2  0  0  0  0
  2  1  1  0  0  0  0
  3  4  1  0  0  0  0
  4  5  2  0  0  0  0
  4  6  1  0  0  0  0
  6 19  1  0  0  0  0
  7  6  1  0  0  0  0
  7  8  2  0  0  0  0
  9  2  1  0  0  0  0
 10 11  2  0  0  0  0
 10 15  1  0  0  0  0
 11 12  1  0  0  0  0
 12  1  1  0  0  0  0
 12 13  2  0  0  0  0
 14 13  1  0  0  0  0
 14 18  1  0  0  0  0
 15 14  2  0  0  0  0
 16 10  1  0  0  0  0
 17 11  1  0  0  0  0
 19 20  1  0  0  0  0
 19 22  1  0  0  0  0
 21 19  1  0  0  0  0
 23 24  1  0  0  0  0
 23  3  1  0  0  0  0
 25 24  1  0  0  0  0
M  END
>  <minimizedAffinity>
-4.79582024

$$$$
