
 OpenBabel03272506203D

 38 40  0  0  1  0  0  0  0  0999 V2000
   35.0240   29.4900   48.0630 C   0  0  0  0  0  0  0  0  0  0  0  0
   33.8900   29.5310   47.2500 C   0  0  0  0  0  0  0  0  0  0  0  0
   32.9960   28.4570   47.3570 C   0  0  0  0  0  0  0  0  0  0  0  0
   33.2730   27.4270   48.2440 N   0  0  0  0  0  0  0  0  0  0  0  0
   34.4010   27.4390   49.0190 C   0  0  0  0  0  0  0  0  0  0  0  0
   35.2500   28.4530   48.9210 N   0  0  0  0  0  0  0  0  0  0  0  0
   31.8200   28.3930   46.5750 N   0  0  0  0  0  0  0  0  0  0  0  0
   31.8600   28.3880   45.2080 C   0  0  0  0  0  0  0  0  0  0  0  0
   30.7130   28.3260   44.4640 C   0  0  0  0  0  0  0  0  0  0  0  0
   29.5190   28.2700   45.1310 C   0  0  0  0  0  0  0  0  0  0  0  0
   28.4370   28.2130   44.4700 O   0  0  0  0  0  0  0  0  0  0  0  0
   29.4700   28.2760   46.4780 N   0  0  0  0  0  0  0  0  0  0  0  0
   30.6290   28.3380   47.1620 C   0  0  0  0  0  0  0  0  0  0  0  0
   30.4770   28.3370   48.4270 O   0  0  0  0  0  0  0  0  0  0  0  0
   33.6090   30.2840   46.5500 H   0  0  0  0  0  0  0  0  0  0  0  0
   34.5480   26.6000   49.6870 H   0  0  0  0  0  0  0  0  0  0  0  0
   32.8520   28.4350   44.7500 H   0  0  0  0  0  0  0  0  0  0  0  0
   30.7850   28.3230   43.3850 H   0  0  0  0  0  0  0  0  0  0  0  0
   28.5340   28.2320   46.9480 H   0  0  0  0  0  0  0  0  0  0  0  0
   35.9590   30.6560   47.9350 C   0  0  2  0  0  0  0  0  0  0  0  0
   36.4140   30.7500   46.4800 C   0  0  0  0  0  0  0  0  0  0  0  0
   37.8500   30.4170   46.2880 C   0  0  0  0  0  0  0  0  0  0  0  0
   38.7690   31.2080   47.1840 C   0  0  0  0  0  0  0  0  0  0  0  0
   38.2740   31.3190   48.5950 C   0  0  0  0  0  0  0  0  0  0  0  0
   37.0690   30.4570   48.8840 C   0  0  1  0  0  0  0  0  0  0  0  0
   35.3930   31.5810   48.1690 H   0  0  0  0  0  0  0  0  0  0  0  0
   36.1790   31.7480   46.0700 H   0  0  0  0  0  0  0  0  0  0  0  0
   35.8210   30.0350   45.8650 H   0  0  0  0  0  0  0  0  0  0  0  0
   38.1020   30.6170   45.2390 H   0  0  0  0  0  0  0  0  0  0  0  0
   37.9850   29.3470   46.5260 H   0  0  0  0  0  0  0  0  0  0  0  0
   38.8920   32.2590   46.7910 H   0  0  0  0  0  0  0  0  0  0  0  0
   39.7770   30.7490   47.0910 H   0  0  0  0  0  0  0  0  0  0  0  0
   39.0980   30.9510   49.2430 H   0  0  0  0  0  0  0  0  0  0  0  0
   38.0840   32.3660   48.9120 H   0  0  0  0  0  0  0  0  0  0  0  0
   37.3340   29.3970   48.9630 H   0  0  0  0  0  0  0  0  0  0  0  0
   36.5600   30.9050   50.2610 C   0  0  0  0  0  2  0  0  0  0  0  0
   37.2650   30.2280   51.3900 C   0  0  0  0  0  2  0  0  0  0  0  0
   37.8910   30.9940   51.9330 H   0  0  0  0  0  0  0  0  0  0  0  0
  1  6  1  0  0  0  0
  2  3  1  0  0  0  0
  2  1  2  0  0  0  0
  3  4  2  0  0  0  0
  4  5  1  0  0  0  0
  5 16  1  0  0  0  0
  6  5  2  0  0  0  0
  7 13  1  0  0  0  0
  7  3  1  0  0  0  0
  8  7  1  0  0  0  0
  9 10  1  0  0  0  0
  9  8  2  0  0  0  0
 10 12  1  0  0  0  0
 11 10  2  0  0  0  0
 12 19  1  0  0  0  0
 12 13  1  0  0  0  0
 13 14  2  0  0  0  0
 15  2  1  0  0  0  0
 17  8  1  0  0  0  0
 18  9  1  0  0  0  0
 20  1  1  0  0  0  0
 20 26  1  1  0  0  0
 20 25  1  0  0  0  0
 21 20  1  0  0  0  0
 22 21  1  0  0  0  0
 22 30  1  0  0  0  0
 22 23  1  0  0  0  0
 23 24  1  0  0  0  0
 24 25  1  0  0  0  0
 24 34  1  0  0  0  0
 24 33  1  0  0  0  0
 25 35  1  1  0  0  0
 25 36  1  0  0  0  0
 27 21  1  0  0  0  0
 28 21  1  0  0  0  0
 29 22  1  0  0  0  0
 31 23  1  0  0  0  0
 32 23  1  0  0  0  0
 36 37  1  0  0  0  0
 37 38  1  0  0  0  0
M  END
>  <minimizedAffinity>
-5.31208992

>  <minimizedRMSD>
2.7221725

$$$$
