
 OpenBabel03272506203D

 38 40  0  0  1  0  0  0  0  0999 V2000
   34.4880   29.5260   47.9040 C   0  0  0  0  0  0  0  0  0  0  0  0
   33.6150   30.3510   47.1930 C   0  0  0  0  0  0  0  0  0  0  0  0
   32.7770   29.7270   46.2580 C   0  0  0  0  0  0  0  0  0  0  0  0
   32.8530   28.3520   46.0870 N   0  0  0  0  0  0  0  0  0  0  0  0
   33.7280   27.5920   46.8130 C   0  0  0  0  0  0  0  0  0  0  0  0
   34.5240   28.1770   47.6990 N   0  0  0  0  0  0  0  0  0  0  0  0
   31.8600   30.4670   45.4780 N   0  0  0  0  0  0  0  0  0  0  0  0
   32.2670   31.4650   44.6350 C   0  0  0  0  0  0  0  0  0  0  0  0
   31.3670   32.1730   43.8860 C   0  0  0  0  0  0  0  0  0  0  0  0
   30.0410   31.8540   44.0050 C   0  0  0  0  0  0  0  0  0  0  0  0
   29.1820   32.4920   43.3240 O   0  0  0  0  0  0  0  0  0  0  0  0
   29.6310   30.8720   44.8330 N   0  0  0  0  0  0  0  0  0  0  0  0
   30.5580   30.2060   45.5480 C   0  0  0  0  0  0  0  0  0  0  0  0
   30.0710   29.2990   46.2990 O   0  0  0  0  0  0  0  0  0  0  0  0
   33.4970   31.4070   47.2690 H   0  0  0  0  0  0  0  0  0  0  0  0
   33.7300   26.5260   46.6240 H   0  0  0  0  0  0  0  0  0  0  0  0
   33.3420   31.6600   44.5970 H   0  0  0  0  0  0  0  0  0  0  0  0
   31.7270   32.9550   43.2310 H   0  0  0  0  0  0  0  0  0  0  0  0
   28.6060   30.6600   44.8940 H   0  0  0  0  0  0  0  0  0  0  0  0
   35.3660   30.2190   48.9030 C   0  0  2  0  0  0  0  0  0  0  0  0
   36.4390   30.9960   48.1440 C   0  0  0  0  0  0  0  0  0  0  0  0
   37.8050   30.4350   48.3120 C   0  0  0  0  0  0  0  0  0  0  0  0
   38.2010   30.2560   49.7560 C   0  0  0  0  0  0  0  0  0  0  0  0
   37.1110   29.6710   50.6040 C   0  0  0  0  0  0  0  0  0  0  0  0
   35.9170   29.1970   49.8120 C   0  0  1  0  0  0  0  0  0  0  0  0
   34.7480   30.9540   49.4570 H   0  0  0  0  0  0  0  0  0  0  0  0
   36.4100   32.0630   48.4280 H   0  0  0  0  0  0  0  0  0  0  0  0
   36.2030   30.9770   47.0560 H   0  0  0  0  0  0  0  0  0  0  0  0
   38.5100   31.1190   47.8230 H   0  0  0  0  0  0  0  0  0  0  0  0
   37.8250   29.4420   47.8300 H   0  0  0  0  0  0  0  0  0  0  0  0
   38.4820   31.2480   50.2120 H   0  0  0  0  0  0  0  0  0  0  0  0
   39.1430   29.6650   49.7560 H   0  0  0  0  0  0  0  0  0  0  0  0
   37.5480   28.7770   51.0980 H   0  0  0  0  0  0  0  0  0  0  0  0
   36.7870   30.3430   51.4260 H   0  0  0  0  0  0  0  0  0  0  0  0
   36.1250   28.2640   49.2760 H   0  0  0  0  0  0  0  0  0  0  0  0
   34.8270   28.8930   50.8500 C   0  0  0  0  0  2  0  0  0  0  0  0
   33.7810   29.9570   50.9220 C   0  0  0  0  0  2  0  0  0  0  0  0
   32.8120   29.5350   50.5250 H   0  0  0  0  0  0  0  0  0  0  0  0
  1 20  1  0  0  0  0
  2 15  1  0  0  0  0
  2  1  2  0  0  0  0
  3  2  1  0  0  0  0
  4  3  2  0  0  0  0
  4  5  1  0  0  0  0
  5  6  2  0  0  0  0
  6  1  1  0  0  0  0
  7 13  1  0  0  0  0
  7  3  1  0  0  0  0
  8  7  1  0  0  0  0
  9 10  1  0  0  0  0
  9  8  2  0  0  0  0
 10 12  1  0  0  0  0
 11 10  2  0  0  0  0
 12 19  1  0  0  0  0
 12 13  1  0  0  0  0
 13 14  2  0  0  0  0
 16  5  1  0  0  0  0
 17  8  1  0  0  0  0
 18  9  1  0  0  0  0
 20 26  1  1  0  0  0
 20 25  1  0  0  0  0
 21 22  1  0  0  0  0
 21 27  1  0  0  0  0
 21 20  1  0  0  0  0
 22 23  1  0  0  0  0
 23 32  1  0  0  0  0
 23 31  1  0  0  0  0
 23 24  1  0  0  0  0
 24 33  1  0  0  0  0
 24 34  1  0  0  0  0
 25 35  1  6  0  0  0
 25 24  1  0  0  0  0
 25 36  1  0  0  0  0
 28 21  1  0  0  0  0
 29 22  1  0  0  0  0
 30 22  1  0  0  0  0
 36 37  1  0  0  0  0
 38 37  1  0  0  0  0
M  END
>  <minimizedAffinity>
-5.17028427

>  <minimizedRMSD>
1.26833725

$$$$
