
 OpenBabel03272506203D

 38 40  0  0  1  0  0  0  0  0999 V2000
   35.2440   29.5830   48.0820 C   0  0  0  0  0  0  0  0  0  0  0  0
   34.2040   29.5610   47.1500 C   0  0  0  0  0  0  0  0  0  0  0  0
   33.3170   28.4770   47.2190 C   0  0  0  0  0  0  0  0  0  0  0  0
   33.5100   27.5010   48.1870 N   0  0  0  0  0  0  0  0  0  0  0  0
   34.5470   27.5740   49.0760 C   0  0  0  0  0  0  0  0  0  0  0  0
   35.3890   28.5980   49.0140 N   0  0  0  0  0  0  0  0  0  0  0  0
   32.2340   28.3500   46.3210 N   0  0  0  0  0  0  0  0  0  0  0  0
   32.4210   28.2730   44.9680 C   0  0  0  0  0  0  0  0  0  0  0  0
   31.3620   28.1510   44.1100 C   0  0  0  0  0  0  0  0  0  0  0  0
   30.1030   28.1080   44.6470 C   0  0  0  0  0  0  0  0  0  0  0  0
   29.1000   27.9960   43.8790 O   0  0  0  0  0  0  0  0  0  0  0  0
   29.9100   28.1840   45.9800 N   0  0  0  0  0  0  0  0  0  0  0  0
   30.9870   28.3040   46.7790 C   0  0  0  0  0  0  0  0  0  0  0  0
   30.6990   28.3670   48.0190 O   0  0  0  0  0  0  0  0  0  0  0  0
   33.9910   30.2700   46.3850 H   0  0  0  0  0  0  0  0  0  0  0  0
   34.6330   26.7750   49.8000 H   0  0  0  0  0  0  0  0  0  0  0  0
   33.4560   28.3150   44.6170 H   0  0  0  0  0  0  0  0  0  0  0  0
   31.5500   28.0930   43.0470 H   0  0  0  0  0  0  0  0  0  0  0  0
   28.9290   28.1480   46.3480 H   0  0  0  0  0  0  0  0  0  0  0  0
   36.1720   30.7580   47.9910 C   0  0  2  0  0  0  0  0  0  0  0  0
   36.6750   30.8630   46.5530 C   0  0  0  0  0  0  0  0  0  0  0  0
   38.1200   30.5440   46.4090 C   0  0  0  0  0  0  0  0  0  0  0  0
   39.0010   31.3390   47.3390 C   0  0  0  0  0  0  0  0  0  0  0  0
   38.4570   31.4390   48.7330 C   0  0  0  0  0  0  0  0  0  0  0  0
   37.2510   30.5640   48.9760 C   0  0  1  0  0  0  0  0  0  0  0  0
   35.5900   31.6770   48.2100 H   0  0  0  0  0  0  0  0  0  0  0  0
   36.4460   31.8610   46.1390 H   0  0  0  0  0  0  0  0  0  0  0  0
   36.1100   30.1470   45.9140 H   0  0  0  0  0  0  0  0  0  0  0  0
   38.4060   30.7510   45.3690 H   0  0  0  0  0  0  0  0  0  0  0  0
   38.2560   29.4740   46.6450 H   0  0  0  0  0  0  0  0  0  0  0  0
   39.1280   32.3920   46.9550 H   0  0  0  0  0  0  0  0  0  0  0  0
   40.0150   30.8890   47.2790 H   0  0  0  0  0  0  0  0  0  0  0  0
   39.2620   31.0750   49.4060 H   0  0  0  0  0  0  0  0  0  0  0  0
   38.2470   32.4820   49.0480 H   0  0  0  0  0  0  0  0  0  0  0  0
   37.5230   29.5060   49.0600 H   0  0  0  0  0  0  0  0  0  0  0  0
   36.6910   31.0000   50.3380 C   0  0  0  0  0  2  0  0  0  0  0  0
   37.3160   30.2740   51.4820 C   0  0  0  0  0  2  0  0  0  0  0  0
   37.9420   31.0040   52.0730 H   0  0  0  0  0  0  0  0  0  0  0  0
  1  6  1  0  0  0  0
  2  3  1  0  0  0  0
  2  1  2  0  0  0  0
  3  4  2  0  0  0  0
  4  5  1  0  0  0  0
  5 16  1  0  0  0  0
  6  5  2  0  0  0  0
  7 13  1  0  0  0  0
  7  3  1  0  0  0  0
  8  7  1  0  0  0  0
  9 10  1  0  0  0  0
  9  8  2  0  0  0  0
 10 12  1  0  0  0  0
 11 10  2  0  0  0  0
 12 19  1  0  0  0  0
 12 13  1  0  0  0  0
 13 14  2  0  0  0  0
 15  2  1  0  0  0  0
 17  8  1  0  0  0  0
 18  9  1  0  0  0  0
 20  1  1  0  0  0  0
 20 26  1  1  0  0  0
 20 25  1  0  0  0  0
 21 20  1  0  0  0  0
 22 21  1  0  0  0  0
 22 30  1  0  0  0  0
 22 23  1  0  0  0  0
 23 24  1  0  0  0  0
 24 25  1  0  0  0  0
 24 34  1  0  0  0  0
 24 33  1  0  0  0  0
 25 35  1  1  0  0  0
 25 36  1  0  0  0  0
 27 21  1  0  0  0  0
 28 21  1  0  0  0  0
 29 22  1  0  0  0  0
 31 23  1  0  0  0  0
 32 23  1  0  0  0  0
 36 37  1  0  0  0  0
 37 38  1  0  0  0  0
M  END
>  <minimizedAffinity>
-5.40879679

>  <minimizedRMSD>
2.56345153

$$$$
