
 OpenBabel03272506203D

 38 40  0  0  1  0  0  0  0  0999 V2000
   34.6460   29.2440   48.0740 C   0  0  0  0  0  0  0  0  0  0  0  0
   33.5730   29.6950   47.3030 C   0  0  0  0  0  0  0  0  0  0  0  0
   32.6030   28.7460   46.9530 C   0  0  0  0  0  0  0  0  0  0  0  0
   32.7520   27.4330   47.3790 N   0  0  0  0  0  0  0  0  0  0  0  0
   33.8250   27.0460   48.1340 C   0  0  0  0  0  0  0  0  0  0  0  0
   34.7450   27.9420   48.4680 N   0  0  0  0  0  0  0  0  0  0  0  0
   31.4790   29.0910   46.1690 N   0  0  0  0  0  0  0  0  0  0  0  0
   31.6080   29.6090   44.9090 C   0  0  0  0  0  0  0  0  0  0  0  0
   30.5100   29.9390   44.1610 C   0  0  0  0  0  0  0  0  0  0  0  0
   29.2740   29.7360   44.7130 C   0  0  0  0  0  0  0  0  0  0  0  0
   28.2360   30.0320   44.0460 O   0  0  0  0  0  0  0  0  0  0  0  0
   29.1380   29.2260   45.9540 N   0  0  0  0  0  0  0  0  0  0  0  0
   30.2510   28.9180   46.6470 C   0  0  0  0  0  0  0  0  0  0  0  0
   30.0180   28.4430   47.8060 O   0  0  0  0  0  0  0  0  0  0  0  0
   33.3900   30.6800   46.9420 H   0  0  0  0  0  0  0  0  0  0  0  0
   33.8710   26.0060   48.4280 H   0  0  0  0  0  0  0  0  0  0  0  0
   32.6280   29.7420   44.5400 H   0  0  0  0  0  0  0  0  0  0  0  0
   30.6520   30.3460   43.1700 H   0  0  0  0  0  0  0  0  0  0  0  0
   28.1730   29.0870   46.3380 H   0  0  0  0  0  0  0  0  0  0  0  0
   35.6630   30.2830   48.4410 C   0  0  2  0  0  0  0  0  0  0  0  0
   36.2160   30.8920   47.1540 C   0  0  0  0  0  0  0  0  0  0  0  0
   37.6360   30.5350   46.8940 C   0  0  0  0  0  0  0  0  0  0  0  0
   38.5470   30.8360   48.0560 C   0  0  0  0  0  0  0  0  0  0  0  0
   37.9720   30.4360   49.3830 C   0  0  0  0  0  0  0  0  0  0  0  0
   36.6950   29.6370   49.2720 C   0  0  1  0  0  0  0  0  0  0  0  0
   35.1480   31.0910   48.9990 H   0  0  0  0  0  0  0  0  0  0  0  0
   36.0760   31.9870   47.1580 H   0  0  0  0  0  0  0  0  0  0  0  0
   35.6170   30.5250   46.2900 H   0  0  0  0  0  0  0  0  0  0  0  0
   37.9670   31.1020   46.0140 H   0  0  0  0  0  0  0  0  0  0  0  0
   37.6820   29.4490   46.6990 H   0  0  0  0  0  0  0  0  0  0  0  0
   38.7650   31.9420   48.1090 H   0  0  0  0  0  0  0  0  0  0  0  0
   39.5250   30.3620   47.8250 H   0  0  0  0  0  0  0  0  0  0  0  0
   38.7260   29.7760   49.8610 H   0  0  0  0  0  0  0  0  0  0  0  0
   37.8330   31.2910   50.0760 H   0  0  0  0  0  0  0  0  0  0  0  0
   36.8820   28.6100   48.9410 H   0  0  0  0  0  0  0  0  0  0  0  0
   36.1310   29.5610   50.6980 C   0  0  0  0  0  2  0  0  0  0  0  0
   37.1480   29.8810   51.7430 C   0  0  0  0  0  2  0  0  0  0  0  0
   36.8690   30.8620   52.2270 H   0  0  0  0  0  0  0  0  0  0  0  0
  1 20  1  0  0  0  0
  1  6  1  0  0  0  0
  2  1  2  0  0  0  0
  3  2  1  0  0  0  0
  3  4  2  0  0  0  0
  4  5  1  0  0  0  0
  5 16  1  0  0  0  0
  5  6  2  0  0  0  0
  7 13  1  0  0  0  0
  7  3  1  0  0  0  0
  8  7  1  0  0  0  0
  9 10  1  0  0  0  0
  9  8  2  0  0  0  0
 10 12  1  0  0  0  0
 11 10  2  0  0  0  0
 12 19  1  0  0  0  0
 12 13  1  0  0  0  0
 13 14  2  0  0  0  0
 15  2  1  0  0  0  0
 17  8  1  0  0  0  0
 18  9  1  0  0  0  0
 20 26  1  1  0  0  0
 20 25  1  0  0  0  0
 21 27  1  0  0  0  0
 21 20  1  0  0  0  0
 22 21  1  0  0  0  0
 22 23  1  0  0  0  0
 23 31  1  0  0  0  0
 23 24  1  0  0  0  0
 24 33  1  0  0  0  0
 24 34  1  0  0  0  0
 25 35  1  6  0  0  0
 25 24  1  0  0  0  0
 25 36  1  0  0  0  0
 28 21  1  0  0  0  0
 29 22  1  0  0  0  0
 30 22  1  0  0  0  0
 32 23  1  0  0  0  0
 36 37  1  0  0  0  0
 37 38  1  0  0  0  0
M  END
>  <minimizedAffinity>
-5.44076633

>  <minimizedRMSD>
2.01662588

$$$$
