
 OpenBabel03272506203D

 38 40  0  0  1  0  0  0  0  0999 V2000
   34.4880   29.5270   47.9040 C   0  0  0  0  0  0  0  0  0  0  0  0
   33.6150   30.3520   47.1930 C   0  0  0  0  0  0  0  0  0  0  0  0
   32.7770   29.7280   46.2580 C   0  0  0  0  0  0  0  0  0  0  0  0
   32.8540   28.3530   46.0870 N   0  0  0  0  0  0  0  0  0  0  0  0
   33.7290   27.5920   46.8130 C   0  0  0  0  0  0  0  0  0  0  0  0
   34.5240   28.1780   47.6990 N   0  0  0  0  0  0  0  0  0  0  0  0
   31.8600   30.4670   45.4780 N   0  0  0  0  0  0  0  0  0  0  0  0
   32.2670   31.4650   44.6350 C   0  0  0  0  0  0  0  0  0  0  0  0
   31.3670   32.1740   43.8860 C   0  0  0  0  0  0  0  0  0  0  0  0
   30.0410   31.8540   44.0050 C   0  0  0  0  0  0  0  0  0  0  0  0
   29.1820   32.4920   43.3250 O   0  0  0  0  0  0  0  0  0  0  0  0
   29.6310   30.8720   44.8340 N   0  0  0  0  0  0  0  0  0  0  0  0
   30.5590   30.2070   45.5480 C   0  0  0  0  0  0  0  0  0  0  0  0
   30.0720   29.2990   46.2990 O   0  0  0  0  0  0  0  0  0  0  0  0
   33.4980   31.4070   47.2690 H   0  0  0  0  0  0  0  0  0  0  0  0
   33.7310   26.5270   46.6230 H   0  0  0  0  0  0  0  0  0  0  0  0
   33.3420   31.6610   44.5970 H   0  0  0  0  0  0  0  0  0  0  0  0
   31.7270   32.9560   43.2310 H   0  0  0  0  0  0  0  0  0  0  0  0
   28.6070   30.6600   44.8940 H   0  0  0  0  0  0  0  0  0  0  0  0
   35.3670   30.2190   48.9030 C   0  0  2  0  0  0  0  0  0  0  0  0
   36.4390   30.9970   48.1440 C   0  0  0  0  0  0  0  0  0  0  0  0
   37.8060   30.4350   48.3120 C   0  0  0  0  0  0  0  0  0  0  0  0
   38.2020   30.2570   49.7560 C   0  0  0  0  0  0  0  0  0  0  0  0
   37.1120   29.6720   50.6040 C   0  0  0  0  0  0  0  0  0  0  0  0
   35.9170   29.1980   49.8120 C   0  0  1  0  0  0  0  0  0  0  0  0
   34.7480   30.9550   49.4570 H   0  0  0  0  0  0  0  0  0  0  0  0
   36.4110   32.0640   48.4270 H   0  0  0  0  0  0  0  0  0  0  0  0
   36.2030   30.9780   47.0560 H   0  0  0  0  0  0  0  0  0  0  0  0
   38.5110   31.1190   47.8230 H   0  0  0  0  0  0  0  0  0  0  0  0
   37.8260   29.4420   47.8300 H   0  0  0  0  0  0  0  0  0  0  0  0
   38.4820   31.2490   50.2120 H   0  0  0  0  0  0  0  0  0  0  0  0
   39.1430   29.6650   49.7560 H   0  0  0  0  0  0  0  0  0  0  0  0
   37.5490   28.7780   51.0980 H   0  0  0  0  0  0  0  0  0  0  0  0
   36.7870   30.3440   51.4260 H   0  0  0  0  0  0  0  0  0  0  0  0
   36.1260   28.2650   49.2760 H   0  0  0  0  0  0  0  0  0  0  0  0
   34.8270   28.8940   50.8500 C   0  0  0  0  0  2  0  0  0  0  0  0
   33.7810   29.9570   50.9210 C   0  0  0  0  0  2  0  0  0  0  0  0
   32.8120   29.5340   50.5250 H   0  0  0  0  0  0  0  0  0  0  0  0
  1 20  1  0  0  0  0
  2 15  1  0  0  0  0
  2  1  2  0  0  0  0
  3  2  1  0  0  0  0
  4  3  2  0  0  0  0
  4  5  1  0  0  0  0
  5  6  2  0  0  0  0
  6  1  1  0  0  0  0
  7 13  1  0  0  0  0
  7  3  1  0  0  0  0
  8  7  1  0  0  0  0
  9 10  1  0  0  0  0
  9  8  2  0  0  0  0
 10 12  1  0  0  0  0
 11 10  2  0  0  0  0
 12 19  1  0  0  0  0
 12 13  1  0  0  0  0
 13 14  2  0  0  0  0
 16  5  1  0  0  0  0
 17  8  1  0  0  0  0
 18  9  1  0  0  0  0
 20 26  1  1  0  0  0
 20 25  1  0  0  0  0
 21 22  1  0  0  0  0
 21 27  1  0  0  0  0
 21 20  1  0  0  0  0
 22 23  1  0  0  0  0
 23 32  1  0  0  0  0
 23 31  1  0  0  0  0
 23 24  1  0  0  0  0
 24 33  1  0  0  0  0
 24 34  1  0  0  0  0
 25 35  1  6  0  0  0
 25 24  1  0  0  0  0
 25 36  1  0  0  0  0
 28 21  1  0  0  0  0
 29 22  1  0  0  0  0
 30 22  1  0  0  0  0
 36 37  1  0  0  0  0
 38 37  1  0  0  0  0
M  END
>  <minimizedAffinity>
-5.17128801

>  <minimizedRMSD>
1.29633677

$$$$
