
 OpenBabel03272506203D

 38 40  0  0  1  0  0  0  0  0999 V2000
   34.6460   29.2450   48.0730 C   0  0  0  0  0  0  0  0  0  0  0  0
   33.5730   29.6960   47.3020 C   0  0  0  0  0  0  0  0  0  0  0  0
   32.6040   28.7460   46.9520 C   0  0  0  0  0  0  0  0  0  0  0  0
   32.7520   27.4330   47.3780 N   0  0  0  0  0  0  0  0  0  0  0  0
   33.8250   27.0470   48.1340 C   0  0  0  0  0  0  0  0  0  0  0  0
   34.7460   27.9420   48.4670 N   0  0  0  0  0  0  0  0  0  0  0  0
   31.4790   29.0910   46.1690 N   0  0  0  0  0  0  0  0  0  0  0  0
   31.6070   29.6090   44.9090 C   0  0  0  0  0  0  0  0  0  0  0  0
   30.5090   29.9390   44.1610 C   0  0  0  0  0  0  0  0  0  0  0  0
   29.2740   29.7350   44.7130 C   0  0  0  0  0  0  0  0  0  0  0  0
   28.2360   30.0310   44.0470 O   0  0  0  0  0  0  0  0  0  0  0  0
   29.1380   29.2260   45.9540 N   0  0  0  0  0  0  0  0  0  0  0  0
   30.2510   28.9180   46.6470 C   0  0  0  0  0  0  0  0  0  0  0  0
   30.0180   28.4440   47.8060 O   0  0  0  0  0  0  0  0  0  0  0  0
   33.3900   30.6810   46.9410 H   0  0  0  0  0  0  0  0  0  0  0  0
   33.8720   26.0070   48.4280 H   0  0  0  0  0  0  0  0  0  0  0  0
   32.6280   29.7420   44.5390 H   0  0  0  0  0  0  0  0  0  0  0  0
   30.6510   30.3450   43.1690 H   0  0  0  0  0  0  0  0  0  0  0  0
   28.1730   29.0870   46.3380 H   0  0  0  0  0  0  0  0  0  0  0  0
   35.6640   30.2840   48.4390 C   0  0  2  0  0  0  0  0  0  0  0  0
   36.2170   30.8920   47.1520 C   0  0  0  0  0  0  0  0  0  0  0  0
   37.6370   30.5350   46.8930 C   0  0  0  0  0  0  0  0  0  0  0  0
   38.5480   30.8360   48.0560 C   0  0  0  0  0  0  0  0  0  0  0  0
   37.9720   30.4370   49.3820 C   0  0  0  0  0  0  0  0  0  0  0  0
   36.6950   29.6390   49.2720 C   0  0  1  0  0  0  0  0  0  0  0  0
   35.1490   31.0930   48.9970 H   0  0  0  0  0  0  0  0  0  0  0  0
   36.0770   31.9870   47.1550 H   0  0  0  0  0  0  0  0  0  0  0  0
   35.6180   30.5240   46.2880 H   0  0  0  0  0  0  0  0  0  0  0  0
   37.9680   31.1010   46.0130 H   0  0  0  0  0  0  0  0  0  0  0  0
   37.6830   29.4490   46.6990 H   0  0  0  0  0  0  0  0  0  0  0  0
   38.7660   31.9420   48.1070 H   0  0  0  0  0  0  0  0  0  0  0  0
   39.5260   30.3620   47.8250 H   0  0  0  0  0  0  0  0  0  0  0  0
   38.7260   29.7780   49.8610 H   0  0  0  0  0  0  0  0  0  0  0  0
   37.8330   31.2930   50.0750 H   0  0  0  0  0  0  0  0  0  0  0  0
   36.8820   28.6110   48.9410 H   0  0  0  0  0  0  0  0  0  0  0  0
   36.1300   29.5630   50.6970 C   0  0  0  0  0  2  0  0  0  0  0  0
   37.1480   29.8810   51.7420 C   0  0  0  0  0  2  0  0  0  0  0  0
   36.8710   30.8630   52.2270 H   0  0  0  0  0  0  0  0  0  0  0  0
  1 20  1  0  0  0  0
  1  6  1  0  0  0  0
  2  1  2  0  0  0  0
  3  2  1  0  0  0  0
  3  4  2  0  0  0  0
  4  5  1  0  0  0  0
  5 16  1  0  0  0  0
  5  6  2  0  0  0  0
  7 13  1  0  0  0  0
  7  3  1  0  0  0  0
  8  7  1  0  0  0  0
  9 10  1  0  0  0  0
  9  8  2  0  0  0  0
 10 12  1  0  0  0  0
 11 10  2  0  0  0  0
 12 19  1  0  0  0  0
 12 13  1  0  0  0  0
 13 14  2  0  0  0  0
 15  2  1  0  0  0  0
 17  8  1  0  0  0  0
 18  9  1  0  0  0  0
 20 26  1  1  0  0  0
 20 25  1  0  0  0  0
 21 27  1  0  0  0  0
 21 20  1  0  0  0  0
 22 21  1  0  0  0  0
 22 23  1  0  0  0  0
 23 31  1  0  0  0  0
 23 24  1  0  0  0  0
 24 33  1  0  0  0  0
 24 34  1  0  0  0  0
 25 35  1  6  0  0  0
 25 24  1  0  0  0  0
 25 36  1  0  0  0  0
 28 21  1  0  0  0  0
 29 22  1  0  0  0  0
 30 22  1  0  0  0  0
 32 23  1  0  0  0  0
 36 37  1  0  0  0  0
 37 38  1  0  0  0  0
M  END
>  <minimizedAffinity>
-5.44331503

>  <minimizedRMSD>
2.01988268

$$$$
