
 OpenBabel03272502233D

 23 24  0  0  0  0  0  0  0  0999 V2000
   37.7040   31.1270   47.2750 C   0  0  0  0  0  0  0  0  0  0  0  0
   36.9990   30.7770   46.1490 C   0  0  0  0  0  0  0  0  0  0  0  0
   37.3480   31.2360   44.8870 C   0  0  0  0  0  0  0  0  0  0  0  0
   38.4100   32.0540   44.7510 N   0  0  0  0  0  0  0  0  0  0  0  0
   39.0850   32.3830   45.8620 C   0  0  0  0  0  0  0  0  0  0  0  0
   38.7590   31.9460   47.0850 N   0  0  0  0  0  0  0  0  0  0  0  0
   36.1390   30.1210   46.2350 H   0  0  0  0  0  0  0  0  0  0  0  0
   36.7920   30.9610   43.9950 H   0  0  0  0  0  0  0  0  0  0  0  0
   37.5640   30.3740   50.9730 C   0  0  0  0  0  0  0  0  0  0  0  0
   38.0350   30.9100   49.7570 C   0  0  0  0  0  0  0  0  0  0  0  0
   37.3190   30.6310   48.6030 C   0  0  0  0  0  0  0  0  0  0  0  0
   36.2150   29.8630   48.7110 N   0  0  0  0  0  0  0  0  0  0  0  0
   35.7850   29.3640   49.8800 C   0  0  0  0  0  0  0  0  0  0  0  0
   36.4620   29.6200   51.0170 N   0  0  0  0  0  0  0  0  0  0  0  0
   38.1430   30.6090   51.8590 H   0  0  0  0  0  0  0  0  0  0  0  0
   38.9170   31.5190   49.6870 H   0  0  0  0  0  0  0  0  0  0  0  0
   34.5620   28.5190   49.9730 C   0  0  0  0  0  0  0  0  0  0  0  0
   34.2880   27.8540   48.6350 C   0  0  0  0  0  0  0  0  0  0  0  0
   33.6540   26.9510   48.7560 H   0  0  0  0  0  0  0  0  0  0  0  0
   40.2640   33.2840   45.7460 C   0  0  0  0  0  0  0  0  0  0  0  0
   40.3830   33.9920   46.9400 F   0  0  0  0  0  0  0  0  0  0  0  0
   41.4220   32.5620   45.5020 F   0  0  0  0  0  0  0  0  0  0  0  0
   40.1160   34.2040   44.7550 F   0  0  0  0  0  0  0  0  0  0  0  0
  1 11  1  0  0  0  0
  2  7  1  0  0  0  0
  2  1  2  0  0  0  0
  3  2  1  0  0  0  0
  4  3  2  0  0  0  0
  4  5  1  0  0  0  0
  5  6  2  0  0  0  0
  6  1  1  0  0  0  0
  8  3  1  0  0  0  0
  9 14  1  0  0  0  0
  9 15  1  0  0  0  0
 10  9  2  0  0  0  0
 11 12  2  0  0  0  0
 11 10  1  0  0  0  0
 12 13  1  0  0  0  0
 13 17  1  0  0  0  0
 13 14  2  0  0  0  0
 16 10  1  0  0  0  0
 18 19  1  0  0  0  0
 18 17  1  0  0  0  0
 20  5  1  0  0  0  0
 20 21  1  0  0  0  0
 22 20  1  0  0  0  0
 23 20  1  0  0  0  0
M  END
>  <minimizedAffinity>
-6.13327646

>  <minimizedRMSD>
0.357925683

$$$$
