
 OpenBabel03272506203D

 38 40  0  0  1  0  0  0  0  0999 V2000
   34.4880   29.5270   47.9020 C   0  0  0  0  0  0  0  0  0  0  0  0
   33.6140   30.3520   47.1910 C   0  0  0  0  0  0  0  0  0  0  0  0
   32.7770   29.7290   46.2560 C   0  0  0  0  0  0  0  0  0  0  0  0
   32.8530   28.3540   46.0850 N   0  0  0  0  0  0  0  0  0  0  0  0
   33.7280   27.5930   46.8100 C   0  0  0  0  0  0  0  0  0  0  0  0
   34.5230   28.1780   47.6960 N   0  0  0  0  0  0  0  0  0  0  0  0
   31.8590   30.4690   45.4770 N   0  0  0  0  0  0  0  0  0  0  0  0
   32.2670   31.4670   44.6340 C   0  0  0  0  0  0  0  0  0  0  0  0
   31.3670   32.1760   43.8850 C   0  0  0  0  0  0  0  0  0  0  0  0
   30.0410   31.8560   44.0040 C   0  0  0  0  0  0  0  0  0  0  0  0
   29.1820   32.4950   43.3240 O   0  0  0  0  0  0  0  0  0  0  0  0
   29.6310   30.8740   44.8320 N   0  0  0  0  0  0  0  0  0  0  0  0
   30.5580   30.2080   45.5460 C   0  0  0  0  0  0  0  0  0  0  0  0
   30.0710   29.3010   46.2970 O   0  0  0  0  0  0  0  0  0  0  0  0
   33.4970   31.4080   47.2680 H   0  0  0  0  0  0  0  0  0  0  0  0
   33.7300   26.5280   46.6210 H   0  0  0  0  0  0  0  0  0  0  0  0
   33.3420   31.6630   44.5960 H   0  0  0  0  0  0  0  0  0  0  0  0
   31.7270   32.9580   43.2310 H   0  0  0  0  0  0  0  0  0  0  0  0
   28.6060   30.6630   44.8930 H   0  0  0  0  0  0  0  0  0  0  0  0
   35.3660   30.2190   48.9020 C   0  0  2  0  0  0  0  0  0  0  0  0
   36.4390   30.9970   48.1430 C   0  0  0  0  0  0  0  0  0  0  0  0
   37.8050   30.4350   48.3110 C   0  0  0  0  0  0  0  0  0  0  0  0
   38.2010   30.2550   49.7540 C   0  0  0  0  0  0  0  0  0  0  0  0
   37.1110   29.6700   50.6020 C   0  0  0  0  0  0  0  0  0  0  0  0
   35.9160   29.1970   49.8100 C   0  0  1  0  0  0  0  0  0  0  0  0
   34.7480   30.9540   49.4560 H   0  0  0  0  0  0  0  0  0  0  0  0
   36.4100   32.0630   48.4270 H   0  0  0  0  0  0  0  0  0  0  0  0
   36.2030   30.9780   47.0550 H   0  0  0  0  0  0  0  0  0  0  0  0
   38.5100   31.1190   47.8210 H   0  0  0  0  0  0  0  0  0  0  0  0
   37.8250   29.4420   47.8280 H   0  0  0  0  0  0  0  0  0  0  0  0
   38.4820   31.2480   50.2110 H   0  0  0  0  0  0  0  0  0  0  0  0
   39.1430   29.6640   49.7550 H   0  0  0  0  0  0  0  0  0  0  0  0
   37.5480   28.7760   51.0950 H   0  0  0  0  0  0  0  0  0  0  0  0
   36.7870   30.3420   51.4240 H   0  0  0  0  0  0  0  0  0  0  0  0
   36.1250   28.2640   49.2740 H   0  0  0  0  0  0  0  0  0  0  0  0
   34.8270   28.8920   50.8480 C   0  0  0  0  0  2  0  0  0  0  0  0
   33.7810   29.9570   50.9220 C   0  0  0  0  0  2  0  0  0  0  0  0
   32.8120   29.5380   50.5250 H   0  0  0  0  0  0  0  0  0  0  0  0
  1 20  1  0  0  0  0
  2 15  1  0  0  0  0
  2  1  2  0  0  0  0
  3  2  1  0  0  0  0
  4  3  2  0  0  0  0
  4  5  1  0  0  0  0
  5  6  2  0  0  0  0
  6  1  1  0  0  0  0
  7 13  1  0  0  0  0
  7  3  1  0  0  0  0
  8  7  1  0  0  0  0
  9 10  1  0  0  0  0
  9  8  2  0  0  0  0
 10 12  1  0  0  0  0
 11 10  2  0  0  0  0
 12 19  1  0  0  0  0
 12 13  1  0  0  0  0
 13 14  2  0  0  0  0
 16  5  1  0  0  0  0
 17  8  1  0  0  0  0
 18  9  1  0  0  0  0
 20 26  1  1  0  0  0
 20 25  1  0  0  0  0
 21 22  1  0  0  0  0
 21 27  1  0  0  0  0
 21 20  1  0  0  0  0
 22 23  1  0  0  0  0
 23 32  1  0  0  0  0
 23 31  1  0  0  0  0
 23 24  1  0  0  0  0
 24 33  1  0  0  0  0
 24 34  1  0  0  0  0
 25 35  1  6  0  0  0
 25 24  1  0  0  0  0
 25 36  1  0  0  0  0
 28 21  1  0  0  0  0
 29 22  1  0  0  0  0
 30 22  1  0  0  0  0
 36 37  1  0  0  0  0
 38 37  1  0  0  0  0
M  END
>  <minimizedAffinity>
-5.16658497

>  <minimizedRMSD>
1.28831732

$$$$
