
 OpenBabel03262520213D

 17 17  0  0  0  0  0  0  0  0999 V2000
   35.4760   29.8380   50.1400 C   0  0  0  0  0  0  0  0  0  0  0  0
   36.5990   30.4540   49.5510 C   0  0  0  0  0  0  0  0  0  0  0  0
   36.5270   30.7810   48.2120 C   0  0  0  0  0  0  0  0  0  0  0  0
   35.3660   30.4780   47.5590 N   0  0  0  0  0  0  0  0  0  0  0  0
   34.3140   29.8920   48.1270 C   0  0  0  0  0  0  0  0  0  0  0  0
   34.3980   29.5850   49.4250 N   0  0  0  0  0  0  0  0  0  0  0  0
   33.2050   29.5980   47.3150 N   0  0  0  0  0  0  0  0  0  0  0  0
   35.3850   29.5290   51.1710 H   0  0  0  0  0  0  0  0  0  0  0  0
   32.5190   30.3380   47.1180 H   0  0  0  0  0  0  0  0  0  0  0  0
   33.2030   28.5890   46.9800 H   0  0  0  0  0  0  0  0  0  0  0  0
   37.6720   31.4570   47.5810 C   0  0  0  0  0  0  0  0  0  0  0  0
   38.7350   30.6740   47.6660 F   0  0  0  0  0  0  0  0  0  0  0  0
   37.4230   31.8190   46.2760 F   0  0  0  0  0  0  0  0  0  0  0  0
   37.9890   32.6580   48.2710 F   0  0  0  0  0  0  0  0  0  0  0  0
   37.7030   30.6220   50.5320 C   0  0  0  0  0  0  0  0  0  0  0  0
   37.4440   29.9700   51.8670 C   0  0  0  0  0  0  0  0  0  0  0  0
   37.2010   30.7280   52.6590 H   0  0  0  0  0  0  0  0  0  0  0  0
  1  8  1  0  0  0  0
  2  1  1  0  0  0  0
  2 15  1  0  0  0  0
  3  2  2  0  0  0  0
  4  5  2  0  0  0  0
  4  3  1  0  0  0  0
  5  6  1  0  0  0  0
  6  1  2  0  0  0  0
  7  5  1  0  0  0  0
  9  7  1  0  0  0  0
 10  7  1  0  0  0  0
 11 12  1  0  0  0  0
 11  3  1  0  0  0  0
 11 14  1  0  0  0  0
 13 11  1  0  0  0  0
 15 16  1  0  0  0  0
 16 17  1  0  0  0  0
M  END
>  <minimizedAffinity>
-4.81437397

>  <minimizedRMSD>
1.96636176

$$$$
