
 OpenBabel03272506203D

 38 40  0  0  1  0  0  0  0  0999 V2000
   34.4950   29.4980   47.9360 C   0  0  0  0  0  0  0  0  0  0  0  0
   33.6080   30.3060   47.2220 C   0  0  0  0  0  0  0  0  0  0  0  0
   32.7680   29.6620   46.3030 C   0  0  0  0  0  0  0  0  0  0  0  0
   32.8550   28.2850   46.1500 N   0  0  0  0  0  0  0  0  0  0  0  0
   33.7440   27.5420   46.8780 C   0  0  0  0  0  0  0  0  0  0  0  0
   34.5420   28.1470   47.7490 N   0  0  0  0  0  0  0  0  0  0  0  0
   31.8370   30.3820   45.5210 N   0  0  0  0  0  0  0  0  0  0  0  0
   32.2280   31.3720   44.6620 C   0  0  0  0  0  0  0  0  0  0  0  0
   31.3150   32.0620   43.9110 C   0  0  0  0  0  0  0  0  0  0  0  0
   29.9930   31.7320   44.0460 C   0  0  0  0  0  0  0  0  0  0  0  0
   29.1220   32.3530   43.3650 O   0  0  0  0  0  0  0  0  0  0  0  0
   29.6000   30.7580   44.8910 N   0  0  0  0  0  0  0  0  0  0  0  0
   30.5390   30.1110   45.6070 C   0  0  0  0  0  0  0  0  0  0  0  0
   30.0670   29.2090   46.3740 O   0  0  0  0  0  0  0  0  0  0  0  0
   33.4820   31.3610   47.2850 H   0  0  0  0  0  0  0  0  0  0  0  0
   33.7540   26.4750   46.7040 H   0  0  0  0  0  0  0  0  0  0  0  0
   33.3010   31.5770   44.6110 H   0  0  0  0  0  0  0  0  0  0  0  0
   31.6620   32.8380   43.2420 H   0  0  0  0  0  0  0  0  0  0  0  0
   28.5780   30.5380   44.9640 H   0  0  0  0  0  0  0  0  0  0  0  0
   35.3760   30.2120   48.9180 C   0  0  2  0  0  0  0  0  0  0  0  0
   36.4370   30.9870   48.1390 C   0  0  0  0  0  0  0  0  0  0  0  0
   37.8090   30.4380   48.3050 C   0  0  0  0  0  0  0  0  0  0  0  0
   38.2180   30.2840   49.7470 C   0  0  0  0  0  0  0  0  0  0  0  0
   37.1390   29.7030   50.6130 C   0  0  0  0  0  0  0  0  0  0  0  0
   35.9420   29.2080   49.8370 C   0  0  1  0  0  0  0  0  0  0  0  0
   34.7570   30.9510   49.4660 H   0  0  0  0  0  0  0  0  0  0  0  0
   36.4020   32.0580   48.4070 H   0  0  0  0  0  0  0  0  0  0  0  0
   36.1920   30.9500   47.0530 H   0  0  0  0  0  0  0  0  0  0  0  0
   38.5040   31.1200   47.7990 H   0  0  0  0  0  0  0  0  0  0  0  0
   37.8330   29.4380   47.8370 H   0  0  0  0  0  0  0  0  0  0  0  0
   38.4940   31.2850   50.1870 H   0  0  0  0  0  0  0  0  0  0  0  0
   39.1640   29.7000   49.7490 H   0  0  0  0  0  0  0  0  0  0  0  0
   37.5870   28.8200   51.1160 H   0  0  0  0  0  0  0  0  0  0  0  0
   36.8160   30.3850   51.4270 H   0  0  0  0  0  0  0  0  0  0  0  0
   36.1540   28.2690   49.3140 H   0  0  0  0  0  0  0  0  0  0  0  0
   34.8630   28.9110   50.8880 C   0  0  0  0  0  2  0  0  0  0  0  0
   33.7930   29.9530   50.9320 C   0  0  0  0  0  2  0  0  0  0  0  0
   32.8320   29.4970   50.5530 H   0  0  0  0  0  0  0  0  0  0  0  0
  1 20  1  0  0  0  0
  2 15  1  0  0  0  0
  2  1  2  0  0  0  0
  3  2  1  0  0  0  0
  4  3  2  0  0  0  0
  4  5  1  0  0  0  0
  5  6  2  0  0  0  0
  6  1  1  0  0  0  0
  7 13  1  0  0  0  0
  7  3  1  0  0  0  0
  8  7  1  0  0  0  0
  9 10  1  0  0  0  0
  9  8  2  0  0  0  0
 10 12  1  0  0  0  0
 11 10  2  0  0  0  0
 12 19  1  0  0  0  0
 12 13  1  0  0  0  0
 13 14  2  0  0  0  0
 16  5  1  0  0  0  0
 17  8  1  0  0  0  0
 18  9  1  0  0  0  0
 20 26  1  1  0  0  0
 20 25  1  0  0  0  0
 21 22  1  0  0  0  0
 21 27  1  0  0  0  0
 21 20  1  0  0  0  0
 22 23  1  0  0  0  0
 23 32  1  0  0  0  0
 23 31  1  0  0  0  0
 23 24  1  0  0  0  0
 24 33  1  0  0  0  0
 24 34  1  0  0  0  0
 25 35  1  6  0  0  0
 25 24  1  0  0  0  0
 25 36  1  0  0  0  0
 28 21  1  0  0  0  0
 29 22  1  0  0  0  0
 30 22  1  0  0  0  0
 36 37  1  0  0  0  0
 38 37  1  0  0  0  0
M  END
>  <minimizedAffinity>
-5.17884636

>  <minimizedRMSD>
1.2591424

$$$$
