
 OpenBabel03272506203D

 38 40  0  0  1  0  0  0  0  0999 V2000
   34.6210   29.2200   48.0760 C   0  0  0  0  0  0  0  0  0  0  0  0
   33.4880   29.6800   47.4010 C   0  0  0  0  0  0  0  0  0  0  0  0
   32.5200   28.7230   47.0670 C   0  0  0  0  0  0  0  0  0  0  0  0
   32.7270   27.3960   47.4150 N   0  0  0  0  0  0  0  0  0  0  0  0
   33.8570   27.0010   48.0770 C   0  0  0  0  0  0  0  0  0  0  0  0
   34.7770   27.9030   48.3950 N   0  0  0  0  0  0  0  0  0  0  0  0
   31.3380   29.0770   46.3780 N   0  0  0  0  0  0  0  0  0  0  0  0
   31.3700   29.6600   45.1410 C   0  0  0  0  0  0  0  0  0  0  0  0
   30.2170   29.9980   44.4840 C   0  0  0  0  0  0  0  0  0  0  0  0
   29.0260   29.7340   45.1050 C   0  0  0  0  0  0  0  0  0  0  0  0
   27.9390   30.0350   44.5240 O   0  0  0  0  0  0  0  0  0  0  0  0
   28.9860   29.1600   46.3240 N   0  0  0  0  0  0  0  0  0  0  0  0
   30.1490   28.8480   46.9260 C   0  0  0  0  0  0  0  0  0  0  0  0
   30.0050   28.3100   48.0720 O   0  0  0  0  0  0  0  0  0  0  0  0
   33.2580   30.6770   47.1040 H   0  0  0  0  0  0  0  0  0  0  0  0
   33.9480   25.9490   48.3140 H   0  0  0  0  0  0  0  0  0  0  0  0
   32.3600   29.8390   44.7120 H   0  0  0  0  0  0  0  0  0  0  0  0
   30.2830   30.4570   43.5080 H   0  0  0  0  0  0  0  0  0  0  0  0
   28.0510   28.9760   46.7630 H   0  0  0  0  0  0  0  0  0  0  0  0
   35.6360   30.2670   48.4280 C   0  0  2  0  0  0  0  0  0  0  0  0
   36.1770   30.8680   47.1340 C   0  0  0  0  0  0  0  0  0  0  0  0
   37.5960   30.5160   46.8670 C   0  0  0  0  0  0  0  0  0  0  0  0
   38.5140   30.8300   48.0210 C   0  0  0  0  0  0  0  0  0  0  0  0
   37.9490   30.4370   49.3540 C   0  0  0  0  0  0  0  0  0  0  0  0
   36.6760   29.6320   49.2580 C   0  0  1  0  0  0  0  0  0  0  0  0
   35.1210   31.0770   48.9840 H   0  0  0  0  0  0  0  0  0  0  0  0
   36.0320   31.9630   47.1300 H   0  0  0  0  0  0  0  0  0  0  0  0
   35.5740   30.4920   46.2760 H   0  0  0  0  0  0  0  0  0  0  0  0
   37.9190   31.0780   45.9810 H   0  0  0  0  0  0  0  0  0  0  0  0
   37.6470   29.4290   46.6800 H   0  0  0  0  0  0  0  0  0  0  0  0
   38.7280   31.9370   48.0630 H   0  0  0  0  0  0  0  0  0  0  0  0
   39.4930   30.3580   47.7860 H   0  0  0  0  0  0  0  0  0  0  0  0
   38.7100   29.7840   49.8330 H   0  0  0  0  0  0  0  0  0  0  0  0
   37.8110   31.2970   50.0420 H   0  0  0  0  0  0  0  0  0  0  0  0
   36.8660   28.6030   48.9330 H   0  0  0  0  0  0  0  0  0  0  0  0
   36.1210   29.5640   50.6880 C   0  0  0  0  0  2  0  0  0  0  0  0
   37.1450   29.8900   51.7250 C   0  0  0  0  0  2  0  0  0  0  0  0
   36.8690   30.8730   52.2050 H   0  0  0  0  0  0  0  0  0  0  0  0
  1  6  1  0  0  0  0
  1 20  1  0  0  0  0
  2  1  2  0  0  0  0
  3  2  1  0  0  0  0
  3  4  2  0  0  0  0
  4  5  1  0  0  0  0
  5 16  1  0  0  0  0
  5  6  2  0  0  0  0
  7 13  1  0  0  0  0
  7  3  1  0  0  0  0
  8  7  1  0  0  0  0
  9 10  1  0  0  0  0
  9  8  2  0  0  0  0
 10 12  1  0  0  0  0
 11 10  2  0  0  0  0
 12 19  1  0  0  0  0
 12 13  1  0  0  0  0
 13 14  2  0  0  0  0
 15  2  1  0  0  0  0
 17  8  1  0  0  0  0
 18  9  1  0  0  0  0
 20 26  1  1  0  0  0
 20 25  1  0  0  0  0
 21 20  1  0  0  0  0
 22 21  1  0  0  0  0
 22 23  1  0  0  0  0
 23 31  1  0  0  0  0
 23 24  1  0  0  0  0
 24 33  1  0  0  0  0
 24 34  1  0  0  0  0
 25 35  1  6  0  0  0
 25 24  1  0  0  0  0
 25 36  1  0  0  0  0
 27 21  1  0  0  0  0
 28 21  1  0  0  0  0
 29 22  1  0  0  0  0
 30 22  1  0  0  0  0
 32 23  1  0  0  0  0
 36 37  1  0  0  0  0
 37 38  1  0  0  0  0
M  END
>  <minimizedAffinity>
-5.40481091

>  <minimizedRMSD>
2.19466305

$$$$
