
 OpenBabel03272508043D

 29 31  0  0  0  0  0  0  0  0999 V2000
   38.9100   30.9040   45.7870 C   0  0  0  0  0  0  0  0  0  0  0  0
   40.0970   31.5340   46.0440 C   0  0  0  0  0  0  0  0  0  0  0  0
   40.9520   31.4790   44.9350 C   0  0  0  0  0  0  0  0  0  0  0  0
   40.2020   30.7930   44.0370 N   0  0  0  0  0  0  0  0  0  0  0  0
   39.0260   30.4560   44.5140 N   0  0  0  0  0  0  0  0  0  0  0  0
   40.3870   32.0260   46.9720 H   0  0  0  0  0  0  0  0  0  0  0  0
   41.9320   31.8500   44.7690 H   0  0  0  0  0  0  0  0  0  0  0  0
   37.7740   30.7470   46.6770 C   0  0  0  0  0  0  0  0  0  0  0  0
   37.9940   30.9700   48.0640 C   0  0  0  0  0  0  0  0  0  0  0  0
   36.9050   30.8190   48.9170 C   0  0  0  0  0  0  0  0  0  0  0  0
   35.7010   30.4670   48.3740 N   0  0  0  0  0  0  0  0  0  0  0  0
   35.5240   30.2610   47.0470 C   0  0  0  0  0  0  0  0  0  0  0  0
   36.5730   30.4060   46.2120 N   0  0  0  0  0  0  0  0  0  0  0  0
   38.9700   31.2430   48.3950 H   0  0  0  0  0  0  0  0  0  0  0  0
   34.5360   29.9840   46.6970 H   0  0  0  0  0  0  0  0  0  0  0  0
   37.0970   31.0450   50.3790 C   0  0  0  0  0  0  0  0  0  0  0  0
   36.5700   32.2890   50.6300 F   0  0  0  0  0  0  0  0  0  0  0  0
   36.4150   30.1030   51.1490 F   0  0  0  0  0  0  0  0  0  0  0  0
   38.4460   31.0380   50.7230 F   0  0  0  0  0  0  0  0  0  0  0  0
   40.5610   30.4200   42.6640 C   0  0  0  0  0  0  0  0  0  0  0  0
   40.1860   31.2190   41.5700 C   0  0  0  0  0  0  0  0  0  0  0  0
   40.5540   30.8230   40.3150 C   0  0  0  0  0  0  0  0  0  0  0  0
   41.2960   29.6240   40.1510 C   0  0  0  0  0  0  0  0  0  0  0  0
   41.4850   29.0240   41.9010 S   0  0  0  0  0  0  0  0  0  0  0  0
   39.6200   32.1340   41.6750 H   0  0  0  0  0  0  0  0  0  0  0  0
   40.3510   31.3140   39.3770 H   0  0  0  0  0  0  0  0  0  0  0  0
   41.8300   28.9220   39.0630 C   0  0  0  0  0  2  0  0  0  0  0  0
   41.4830   29.6490   37.7580 C   0  0  0  0  0  2  0  0  0  0  0  0
   41.4130   30.7340   37.9830 H   0  0  0  0  0  0  0  0  0  0  0  0
  1  2  1  0  0  0  0
  1  8  1  0  0  0  0
  2  6  1  0  0  0  0
  3  2  2  0  0  0  0
  4  5  1  0  0  0  0
  4  3  1  0  0  0  0
  5  1  2  0  0  0  0
  7  3  1  0  0  0  0
  8  9  1  0  0  0  0
  9 14  1  0  0  0  0
  9 10  2  0  0  0  0
 10 16  1  0  0  0  0
 11 10  1  0  0  0  0
 12 11  2  0  0  0  0
 13  8  2  0  0  0  0
 13 12  1  0  0  0  0
 15 12  1  0  0  0  0
 16 17  1  0  0  0  0
 16 19  1  0  0  0  0
 16 18  1  0  0  0  0
 20  4  1  0  0  0  0
 21 25  1  0  0  0  0
 21 20  2  0  0  0  0
 22 21  1  0  0  0  0
 23 22  2  0  0  0  0
 23 24  1  0  0  0  0
 24 20  1  0  0  0  0
 26 22  1  0  0  0  0
 27 23  1  0  0  0  0
 28 29  1  0  0  0  0
 28 27  1  0  0  0  0
M  END
>  <minimizedAffinity>
-5.90824127

>  <minimizedRMSD>
0.0285024252

$$$$
