
 OpenBabel03272509003D

 22 23  0  0  0  0  0  0  0  0999 V2000
   37.7120   30.0680   49.3200 Cl  0  0  0  0  0  0  0  0  0  0  0  0
   36.4730   29.8920   48.1070 C   0  0  0  0  0  0  0  0  0  0  0  0
   36.7000   30.4020   46.8410 C   0  0  0  0  0  0  0  0  0  0  0  0
   35.7490   30.2880   45.8580 C   0  0  0  0  0  0  0  0  0  0  0  0
   34.5400   29.6620   46.1070 C   0  0  0  0  0  0  0  0  0  0  0  0
   34.2950   29.1430   47.3700 C   0  0  0  0  0  0  0  0  0  0  0  0
   32.8090   28.3280   47.8080 Cl  0  0  0  0  0  0  0  0  0  0  0  0
   35.2740   29.2780   48.3310 C   0  0  0  0  0  0  0  0  0  0  0  0
   35.9020   30.6780   44.8580 H   0  0  0  0  0  0  0  0  0  0  0  0
   33.7770   29.5580   45.3500 H   0  0  0  0  0  0  0  0  0  0  0  0
   39.3770   32.9090   46.7340 C   0  0  0  0  0  0  0  0  0  0  0  0
   40.3540   32.2900   45.9550 C   0  0  0  0  0  0  0  0  0  0  0  0
   40.0710   30.9890   45.4650 C   0  0  0  0  0  0  0  0  0  0  0  0
   38.8690   30.4240   45.7820 N   0  0  0  0  0  0  0  0  0  0  0  0
   37.9580   31.0700   46.5410 C   0  0  0  0  0  0  0  0  0  0  0  0
   38.2200   32.3030   47.0100 N   0  0  0  0  0  0  0  0  0  0  0  0
   39.5580   33.8970   47.1260 H   0  0  0  0  0  0  0  0  0  0  0  0
   41.2630   32.7950   45.7520 H   0  0  0  0  0  0  0  0  0  0  0  0
   40.8090   30.4850   44.8560 H   0  0  0  0  0  0  0  0  0  0  0  0
   35.1090   28.7540   49.7330 C   0  0  0  0  0  2  0  0  0  0  0  0
   34.3200   29.7150   50.5970 C   0  0  0  0  0  2  0  0  0  0  0  0
   34.9880   30.0380   51.4480 H   0  0  0  0  0  0  0  0  0  0  0  0
  2  8  1  0  0  0  0
  2  1  1  0  0  0  0
  3  2  2  0  0  0  0
  4  5  2  0  0  0  0
  4  3  1  0  0  0  0
  5  6  1  0  0  0  0
  6  7  1  0  0  0  0
  6  8  2  0  0  0  0
  8 20  1  0  0  0  0
  9  4  1  0  0  0  0
 10  5  1  0  0  0  0
 11 16  1  0  0  0  0
 11 17  1  0  0  0  0
 12 11  2  0  0  0  0
 13 14  2  0  0  0  0
 13 12  1  0  0  0  0
 14 15  1  0  0  0  0
 15  3  1  0  0  0  0
 15 16  2  0  0  0  0
 18 12  1  0  0  0  0
 19 13  1  0  0  0  0
 20 21  1  0  0  0  0
 21 22  1  0  0  0  0
M  END
>  <minimizedAffinity>
-4.7766819

>  <minimizedRMSD>
2.12315083

$$$$
