
 OpenBabel03262521293D

 27 28  0  0  1  0  0  0  0  0999 V2000
   38.1770   25.6180   34.0530 N   0  0  0  0  0  0  0  0  0  0  0  0
   39.5960   25.8750   33.9580 C   0  0  0  0  0  0  0  0  0  0  0  0
   39.8160   26.9410   35.0330 C   0  0  0  0  0  0  0  0  0  0  0  0
   38.4660   27.1670   35.6690 C   0  0  0  0  0  0  0  0  0  0  0  0
   37.7970   25.8380   35.4360 C   0  0  2  0  0  0  0  0  0  0  0  0
   39.8380   26.3090   32.9670 H   0  0  0  0  0  0  0  0  0  0  0  0
   40.2100   24.9770   34.1530 H   0  0  0  0  0  0  0  0  0  0  0  0
   40.5910   26.5890   35.7270 H   0  0  0  0  0  0  0  0  0  0  0  0
   40.1870   27.8790   34.5500 H   0  0  0  0  0  0  0  0  0  0  0  0
   37.9370   27.9230   35.0330 H   0  0  0  0  0  0  0  0  0  0  0  0
   38.5260   27.4490   36.7230 H   0  0  0  0  0  0  0  0  0  0  0  0
   36.6890   25.9610   35.5380 H   0  0  0  0  0  0  0  0  0  0  0  0
   37.3040   25.2250   33.0140 C   0  0  0  0  0  0  0  0  0  0  0  0
   36.6530   26.2460   32.3150 C   0  0  0  0  0  0  0  0  0  0  0  0
   35.7740   25.9300   31.2740 C   0  0  0  0  0  0  0  0  0  0  0  0
   35.6080   24.6050   31.0030 N   0  0  0  0  0  0  0  0  0  0  0  0
   36.2530   23.6410   31.6980 C   0  0  0  0  0  0  0  0  0  0  0  0
   37.1080   23.9470   32.7130 N   0  0  0  0  0  0  0  0  0  0  0  0
   36.7960   27.2800   32.5410 H   0  0  0  0  0  0  0  0  0  0  0  0
   35.2570   26.7030   30.7160 H   0  0  0  0  0  0  0  0  0  0  0  0
   35.9590   22.2590   31.2770 C   0  0  0  0  0  2  0  0  0  0  0  0
   35.1710   21.4840   32.2800 C   0  0  0  0  0  2  0  0  0  0  0  0
   35.9000   20.8480   32.8600 H   0  0  0  0  0  0  0  0  0  0  0  0
   38.2420   24.7740   36.3690 C   0  0  0  0  0  0  0  0  0  0  0  0
   38.1550   25.2300   37.6950 F   0  0  0  0  0  0  0  0  0  0  0  0
   39.4910   24.3190   36.1060 F   0  0  0  0  0  0  0  0  0  0  0  0
   37.4090   23.6510   36.2700 F   0  0  0  0  0  0  0  0  0  0  0  0
  1  5  1  0  0  0  0
  2  1  1  0  0  0  0
  2  7  1  0  0  0  0
  2  3  1  0  0  0  0
  3  4  1  0  0  0  0
  3  8  1  0  0  0  0
  4 11  1  0  0  0  0
  5 12  1  1  0  0  0
  5  4  1  0  0  0  0
  5 24  1  0  0  0  0
  6  2  1  0  0  0  0
  9  3  1  0  0  0  0
 10  4  1  0  0  0  0
 13  1  1  0  0  0  0
 14 19  1  0  0  0  0
 14 13  2  0  0  0  0
 15 14  1  0  0  0  0
 16 15  2  0  0  0  0
 16 17  1  0  0  0  0
 17 18  2  0  0  0  0
 18 13  1  0  0  0  0
 20 15  1  0  0  0  0
 21 17  1  0  0  0  0
 21 22  1  0  0  0  0
 22 23  1  0  0  0  0
 24 25  1  0  0  0  0
 26 24  1  0  0  0  0
 27 24  1  0  0  0  0
M  END
>  <minimizedAffinity>
-4.94856262

$$$$

 OpenBabel03262521293D

 27 28  0  0  1  0  0  0  0  0999 V2000
   38.2420   24.2340   35.1830 N   0  0  0  0  0  0  0  0  0  0  0  0
   38.1710   22.8360   34.8250 C   0  0  0  0  0  0  0  0  0  0  0  0
   39.4820   22.2780   35.3820 C   0  0  0  0  0  0  0  0  0  0  0  0
   40.1730   23.4450   36.0460 C   0  0  0  0  0  0  0  0  0  0  0  0
   39.0040   24.3180   36.4160 C   0  0  2  0  0  0  0  0  0  0  0  0
   38.1730   22.7250   33.7220 H   0  0  0  0  0  0  0  0  0  0  0  0
   37.2980   22.3220   35.2680 H   0  0  0  0  0  0  0  0  0  0  0  0
   39.2530   21.4430   36.0570 H   0  0  0  0  0  0  0  0  0  0  0  0
   40.0990   21.8810   34.5390 H   0  0  0  0  0  0  0  0  0  0  0  0
   40.7450   23.9760   35.2400 H   0  0  0  0  0  0  0  0  0  0  0  0
   40.7910   23.1540   36.8990 H   0  0  0  0  0  0  0  0  0  0  0  0
   39.3670   25.3620   36.5980 H   0  0  0  0  0  0  0  0  0  0  0  0
   37.6870   25.3290   34.4840 C   0  0  0  0  0  0  0  0  0  0  0  0
   37.5590   26.5300   35.1890 C   0  0  0  0  0  0  0  0  0  0  0  0
   37.0170   27.6540   34.5590 C   0  0  0  0  0  0  0  0  0  0  0  0
   36.6370   27.4970   33.2600 N   0  0  0  0  0  0  0  0  0  0  0  0
   36.7740   26.3210   32.6070 C   0  0  0  0  0  0  0  0  0  0  0  0
   37.3010   25.2250   33.2180 N   0  0  0  0  0  0  0  0  0  0  0  0
   37.8630   26.6350   36.2070 H   0  0  0  0  0  0  0  0  0  0  0  0
   36.9080   28.5980   35.0830 H   0  0  0  0  0  0  0  0  0  0  0  0
   36.3130   26.3240   31.2060 C   0  0  0  0  0  2  0  0  0  0  0  0
   35.1620   25.4070   30.9560 C   0  0  0  0  0  2  0  0  0  0  0  0
   35.5800   24.4560   30.5160 H   0  0  0  0  0  0  0  0  0  0  0  0
   38.2710   23.8560   37.6200 C   0  0  0  0  0  0  0  0  0  0  0  0
   39.0470   22.9210   38.3260 F   0  0  0  0  0  0  0  0  0  0  0  0
   37.0500   23.3390   37.3370 F   0  0  0  0  0  0  0  0  0  0  0  0
   38.0290   24.9260   38.4910 F   0  0  0  0  0  0  0  0  0  0  0  0
  1  5  1  0  0  0  0
  2  1  1  0  0  0  0
  2  7  1  0  0  0  0
  2  3  1  0  0  0  0
  3  4  1  0  0  0  0
  3  8  1  0  0  0  0
  4  5  1  0  0  0  0
  4 11  1  0  0  0  0
  5 12  1  1  0  0  0
  5 24  1  0  0  0  0
  6  2  1  0  0  0  0
  9  3  1  0  0  0  0
 10  4  1  0  0  0  0
 13  1  1  0  0  0  0
 13 14  1  0  0  0  0
 14 19  1  0  0  0  0
 15 20  1  0  0  0  0
 15 14  2  0  0  0  0
 16 15  1  0  0  0  0
 17 18  1  0  0  0  0
 17 16  2  0  0  0  0
 18 13  2  0  0  0  0
 21 17  1  0  0  0  0
 22 21  1  0  0  0  0
 23 22  1  0  0  0  0
 24 25  1  0  0  0  0
 24 27  1  0  0  0  0
 26 24  1  0  0  0  0
M  END
>  <minimizedAffinity>
-4.80185699

$$$$

 OpenBabel03262521293D

 27 28  0  0  1  0  0  0  0  0999 V2000
   38.2600   25.5660   33.5260 N   0  0  0  0  0  0  0  0  0  0  0  0
   39.2530   24.7450   34.1820 C   0  0  0  0  0  0  0  0  0  0  0  0
   40.4430   25.6980   34.3140 C   0  0  0  0  0  0  0  0  0  0  0  0
   39.9830   27.0110   33.7290 C   0  0  0  0  0  0  0  0  0  0  0  0
   38.4950   26.9350   33.9480 C   0  0  2  0  0  0  0  0  0  0  0  0
   39.5400   23.8990   33.5260 H   0  0  0  0  0  0  0  0  0  0  0  0
   38.9220   24.3790   35.1710 H   0  0  0  0  0  0  0  0  0  0  0  0
   40.7380   25.7510   35.3700 H   0  0  0  0  0  0  0  0  0  0  0  0
   41.3060   25.2880   33.7340 H   0  0  0  0  0  0  0  0  0  0  0  0
   40.1610   26.9470   32.6230 H   0  0  0  0  0  0  0  0  0  0  0  0
   40.4510   27.8810   34.1960 H   0  0  0  0  0  0  0  0  0  0  0  0
   37.9840   27.6620   33.2670 H   0  0  0  0  0  0  0  0  0  0  0  0
   37.2450   25.1420   32.6390 C   0  0  0  0  0  0  0  0  0  0  0  0
   36.4930   26.1420   32.0150 C   0  0  0  0  0  0  0  0  0  0  0  0
   35.4720   25.7940   31.1260 C   0  0  0  0  0  0  0  0  0  0  0  0
   35.2730   24.4620   30.9210 N   0  0  0  0  0  0  0  0  0  0  0  0
   36.0190   23.5200   31.5410 C   0  0  0  0  0  0  0  0  0  0  0  0
   37.0130   23.8560   32.4080 N   0  0  0  0  0  0  0  0  0  0  0  0
   36.6630   27.1830   32.1870 H   0  0  0  0  0  0  0  0  0  0  0  0
   34.8740   26.5500   30.6280 H   0  0  0  0  0  0  0  0  0  0  0  0
   35.6730   22.1250   31.2090 C   0  0  0  0  0  2  0  0  0  0  0  0
   35.1160   21.3580   32.3610 C   0  0  0  0  0  2  0  0  0  0  0  0
   35.9570   20.7440   32.7940 H   0  0  0  0  0  0  0  0  0  0  0  0
   38.0820   27.2240   35.3430 C   0  0  0  0  0  0  0  0  0  0  0  0
   39.2130   27.4840   36.1350 F   0  0  0  0  0  0  0  0  0  0  0  0
   37.3340   26.2370   35.8950 F   0  0  0  0  0  0  0  0  0  0  0  0
   37.2780   28.3710   35.3920 F   0  0  0  0  0  0  0  0  0  0  0  0
  1  5  1  0  0  0  0
  1  2  1  0  0  0  0
  2  3  1  0  0  0  0
  2  7  1  0  0  0  0
  3  8  1  0  0  0  0
  4  5  1  0  0  0  0
  4 11  1  0  0  0  0
  4  3  1  0  0  0  0
  5 12  1  6  0  0  0
  5 24  1  0  0  0  0
  6  2  1  0  0  0  0
  9  3  1  0  0  0  0
 10  4  1  0  0  0  0
 13  1  1  0  0  0  0
 14 19  1  0  0  0  0
 14 13  2  0  0  0  0
 15 14  1  0  0  0  0
 16 15  2  0  0  0  0
 16 17  1  0  0  0  0
 17 18  2  0  0  0  0
 18 13  1  0  0  0  0
 20 15  1  0  0  0  0
 21 17  1  0  0  0  0
 21 22  1  0  0  0  0
 22 23  1  0  0  0  0
 24 27  1  0  0  0  0
 24 26  1  0  0  0  0
 24 25  1  0  0  0  0
M  END
>  <minimizedAffinity>
-4.77136803

$$$$

 OpenBabel03262521293D

 27 28  0  0  1  0  0  0  0  0999 V2000
   38.6970   24.9570   34.6080 N   0  0  0  0  0  0  0  0  0  0  0  0
   39.5090   24.8500   33.4180 C   0  0  0  0  0  0  0  0  0  0  0  0
   38.4950   25.0860   32.2970 C   0  0  0  0  0  0  0  0  0  0  0  0
   37.1760   25.3400   32.9850 C   0  0  0  0  0  0  0  0  0  0  0  0
   37.6290   25.8930   34.3100 C   0  0  2  0  0  0  0  0  0  0  0  0
   39.9150   23.8220   33.3250 H   0  0  0  0  0  0  0  0  0  0  0  0
   40.3240   25.5960   33.3840 H   0  0  0  0  0  0  0  0  0  0  0  0
   38.8470   25.9170   31.6710 H   0  0  0  0  0  0  0  0  0  0  0  0
   38.4370   24.1720   31.6560 H   0  0  0  0  0  0  0  0  0  0  0  0
   36.7200   24.3340   33.1810 H   0  0  0  0  0  0  0  0  0  0  0  0
   36.5200   26.0160   32.4290 H   0  0  0  0  0  0  0  0  0  0  0  0
   36.7930   25.8040   35.0510 H   0  0  0  0  0  0  0  0  0  0  0  0
   38.8850   24.2890   35.8390 C   0  0  0  0  0  0  0  0  0  0  0  0
   37.9930   24.6000   36.8700 C   0  0  0  0  0  0  0  0  0  0  0  0
   38.1210   23.9760   38.1150 C   0  0  0  0  0  0  0  0  0  0  0  0
   39.1390   23.0800   38.2420 N   0  0  0  0  0  0  0  0  0  0  0  0
   39.9850   22.8020   37.2250 C   0  0  0  0  0  0  0  0  0  0  0  0
   39.8630   23.4070   36.0120 N   0  0  0  0  0  0  0  0  0  0  0  0
   37.2000   25.3050   36.7520 H   0  0  0  0  0  0  0  0  0  0  0  0
   37.4420   24.1990   38.9310 H   0  0  0  0  0  0  0  0  0  0  0  0
   41.0310   21.8080   37.5310 C   0  0  0  0  0  2  0  0  0  0  0  0
   42.2680   21.9730   36.7130 C   0  0  0  0  0  2  0  0  0  0  0  0
   42.2130   21.2290   35.8670 H   0  0  0  0  0  0  0  0  0  0  0  0
   38.0580   27.3110   34.2510 C   0  0  0  0  0  0  0  0  0  0  0  0
   37.7920   27.8410   32.9770 F   0  0  0  0  0  0  0  0  0  0  0  0
   39.3620   27.4900   34.5740 F   0  0  0  0  0  0  0  0  0  0  0  0
   37.3370   28.0840   35.1720 F   0  0  0  0  0  0  0  0  0  0  0  0
  1 13  1  0  0  0  0
  2  1  1  0  0  0  0
  3  4  1  0  0  0  0
  3  2  1  0  0  0  0
  4 10  1  0  0  0  0
  4  5  1  0  0  0  0
  5  1  1  0  0  0  0
  5 12  1  1  0  0  0
  6  2  1  0  0  0  0
  7  2  1  0  0  0  0
  8  3  1  0  0  0  0
  9  3  1  0  0  0  0
 11  4  1  0  0  0  0
 13 18  2  0  0  0  0
 13 14  1  0  0  0  0
 14 15  2  0  0  0  0
 15 16  1  0  0  0  0
 15 20  1  0  0  0  0
 17 21  1  0  0  0  0
 17 16  2  0  0  0  0
 18 17  1  0  0  0  0
 19 14  1  0  0  0  0
 22 21  1  0  0  0  0
 23 22  1  0  0  0  0
 24  5  1  0  0  0  0
 24 26  1  0  0  0  0
 24 27  1  0  0  0  0
 25 24  1  0  0  0  0
M  END
>  <minimizedAffinity>
-4.63927603

$$$$

 OpenBabel03262521293D

 27 28  0  0  1  0  0  0  0  0999 V2000
   38.4060   22.9730   35.4060 N   0  0  0  0  0  0  0  0  0  0  0  0
   38.5380   24.4110   35.3410 C   0  0  0  0  0  0  0  0  0  0  0  0
   38.0730   24.8540   36.7300 C   0  0  0  0  0  0  0  0  0  0  0  0
   37.7410   23.5840   37.4750 C   0  0  0  0  0  0  0  0  0  0  0  0
   38.6350   22.5880   36.7860 C   0  0  2  0  0  0  0  0  0  0  0  0
   37.8450   24.8230   34.5810 H   0  0  0  0  0  0  0  0  0  0  0  0
   39.5750   24.7380   35.1430 H   0  0  0  0  0  0  0  0  0  0  0  0
   38.8650   25.4570   37.1920 H   0  0  0  0  0  0  0  0  0  0  0  0
   37.1660   25.4990   36.6240 H   0  0  0  0  0  0  0  0  0  0  0  0
   36.6840   23.3250   37.2070 H   0  0  0  0  0  0  0  0  0  0  0  0
   37.9130   23.6560   38.5520 H   0  0  0  0  0  0  0  0  0  0  0  0
   38.2570   21.5530   36.9860 H   0  0  0  0  0  0  0  0  0  0  0  0
   38.1100   22.0890   34.3440 C   0  0  0  0  0  0  0  0  0  0  0  0
   39.1640   21.7520   33.4890 C   0  0  0  0  0  0  0  0  0  0  0  0
   38.9420   20.8830   32.4170 C   0  0  0  0  0  0  0  0  0  0  0  0
   37.6730   20.4080   32.2740 N   0  0  0  0  0  0  0  0  0  0  0  0
   36.6760   20.7530   33.1190 C   0  0  0  0  0  0  0  0  0  0  0  0
   36.8890   21.6000   34.1640 N   0  0  0  0  0  0  0  0  0  0  0  0
   40.1530   22.1340   33.6170 H   0  0  0  0  0  0  0  0  0  0  0  0
   39.7430   20.6050   31.7400 H   0  0  0  0  0  0  0  0  0  0  0  0
   35.3640   20.1490   32.8210 C   0  0  0  0  0  2  0  0  0  0  0  0
   35.3950   18.6590   32.7500 C   0  0  0  0  0  2  0  0  0  0  0  0
   35.4520   18.3760   31.6600 H   0  0  0  0  0  0  0  0  0  0  0  0
   40.0540   22.6620   37.2140 C   0  0  0  0  0  0  0  0  0  0  0  0
   40.6350   21.3840   37.1770 F   0  0  0  0  0  0  0  0  0  0  0  0
   40.2140   23.2190   38.4390 F   0  0  0  0  0  0  0  0  0  0  0  0
   40.7910   23.4710   36.3390 F   0  0  0  0  0  0  0  0  0  0  0  0
  1  5  1  0  0  0  0
  2  1  1  0  0  0  0
  2  3  1  0  0  0  0
  3  8  1  0  0  0  0
  3  4  1  0  0  0  0
  4 11  1  0  0  0  0
  5 12  1  1  0  0  0
  5 24  1  0  0  0  0
  5  4  1  0  0  0  0
  6  2  1  0  0  0  0
  7  2  1  0  0  0  0
  9  3  1  0  0  0  0
 10  4  1  0  0  0  0
 13  1  1  0  0  0  0
 14 19  1  0  0  0  0
 14 13  2  0  0  0  0
 15 14  1  0  0  0  0
 16 15  2  0  0  0  0
 16 17  1  0  0  0  0
 17 18  2  0  0  0  0
 18 13  1  0  0  0  0
 20 15  1  0  0  0  0
 21 17  1  0  0  0  0
 22 21  1  0  0  0  0
 23 22  1  0  0  0  0
 24 26  1  0  0  0  0
 25 24  1  0  0  0  0
 27 24  1  0  0  0  0
M  END
>  <minimizedAffinity>
-4.61970949

$$$$

 OpenBabel03262521293D

 27 28  0  0  1  0  0  0  0  0999 V2000
   38.4100   23.8720   35.3990 N   0  0  0  0  0  0  0  0  0  0  0  0
   38.4090   22.4380   35.2190 C   0  0  0  0  0  0  0  0  0  0  0  0
   39.6930   22.0100   35.9330 C   0  0  0  0  0  0  0  0  0  0  0  0
   40.2960   23.2780   36.4870 C   0  0  0  0  0  0  0  0  0  0  0  0
   39.0750   24.1420   36.6590 C   0  0  2  0  0  0  0  0  0  0  0  0
   38.4960   22.1890   34.1430 H   0  0  0  0  0  0  0  0  0  0  0  0
   37.5220   21.9490   35.6640 H   0  0  0  0  0  0  0  0  0  0  0  0
   39.4410   21.2580   36.6930 H   0  0  0  0  0  0  0  0  0  0  0  0
   40.3830   21.5350   35.1930 H   0  0  0  0  0  0  0  0  0  0  0  0
   40.9080   23.7260   35.6610 H   0  0  0  0  0  0  0  0  0  0  0  0
   40.8580   23.1230   37.4120 H   0  0  0  0  0  0  0  0  0  0  0  0
   39.3900   25.2140   36.7300 H   0  0  0  0  0  0  0  0  0  0  0  0
   37.8720   24.8460   34.5280 C   0  0  0  0  0  0  0  0  0  0  0  0
   37.7670   24.4990   33.1770 C   0  0  0  0  0  0  0  0  0  0  0  0
   37.2450   25.4140   32.2590 C   0  0  0  0  0  0  0  0  0  0  0  0
   36.8610   26.6220   32.7600 N   0  0  0  0  0  0  0  0  0  0  0  0
   36.9750   26.9270   34.0720 C   0  0  0  0  0  0  0  0  0  0  0  0
   37.4840   26.0380   34.9680 N   0  0  0  0  0  0  0  0  0  0  0  0
   38.0730   23.5460   32.8030 H   0  0  0  0  0  0  0  0  0  0  0  0
   37.1520   25.1690   31.2070 H   0  0  0  0  0  0  0  0  0  0  0  0
   36.5140   28.2770   34.4450 C   0  0  0  0  0  2  0  0  0  0  0  0
   35.8240   29.0000   33.3360 C   0  0  0  0  0  2  0  0  0  0  0  0
   36.5780   29.6980   32.8710 H   0  0  0  0  0  0  0  0  0  0  0  0
   38.2700   23.8060   37.8600 C   0  0  0  0  0  0  0  0  0  0  0  0
   37.0820   23.1630   37.4770 F   0  0  0  0  0  0  0  0  0  0  0  0
   37.9970   24.8820   38.6380 F   0  0  0  0  0  0  0  0  0  0  0  0
   38.9670   22.9160   38.6870 F   0  0  0  0  0  0  0  0  0  0  0  0
  1  5  1  0  0  0  0
  2  1  1  0  0  0  0
  2  7  1  0  0  0  0
  2  3  1  0  0  0  0
  3  4  1  0  0  0  0
  3  8  1  0  0  0  0
  4  5  1  0  0  0  0
  4 11  1  0  0  0  0
  5 12  1  1  0  0  0
  5 24  1  0  0  0  0
  6  2  1  0  0  0  0
  9  3  1  0  0  0  0
 10  4  1  0  0  0  0
 13 18  1  0  0  0  0
 13  1  1  0  0  0  0
 14 13  2  0  0  0  0
 15 16  2  0  0  0  0
 15 14  1  0  0  0  0
 16 17  1  0  0  0  0
 17 21  1  0  0  0  0
 17 18  2  0  0  0  0
 19 14  1  0  0  0  0
 20 15  1  0  0  0  0
 22 21  1  0  0  0  0
 23 22  1  0  0  0  0
 24 26  1  0  0  0  0
 24 27  1  0  0  0  0
 25 24  1  0  0  0  0
M  END
>  <minimizedAffinity>
-4.58367729

$$$$

 OpenBabel03262521293D

 27 28  0  0  1  0  0  0  0  0999 V2000
   37.2860   21.7800   33.0320 N   0  0  0  0  0  0  0  0  0  0  0  0
   36.4800   22.7970   32.3970 C   0  0  0  0  0  0  0  0  0  0  0  0
   36.0730   22.1300   31.0810 C   0  0  0  0  0  0  0  0  0  0  0  0
   36.6830   20.7500   31.1160 C   0  0  0  0  0  0  0  0  0  0  0  0
   36.7690   20.4950   32.5980 C   0  0  2  0  0  0  0  0  0  0  0  0
   37.0990   23.6880   32.1720 H   0  0  0  0  0  0  0  0  0  0  0  0
   35.5920   23.0780   32.9940 H   0  0  0  0  0  0  0  0  0  0  0  0
   34.9780   22.1390   31.0030 H   0  0  0  0  0  0  0  0  0  0  0  0
   36.4850   22.7230   30.2270 H   0  0  0  0  0  0  0  0  0  0  0  0
   37.7330   20.8560   30.7350 H   0  0  0  0  0  0  0  0  0  0  0  0
   36.0970   20.0030   30.5760 H   0  0  0  0  0  0  0  0  0  0  0  0
   37.5080   19.6760   32.7880 H   0  0  0  0  0  0  0  0  0  0  0  0
   38.3740   21.9720   33.9120 C   0  0  0  0  0  0  0  0  0  0  0  0
   39.6510   21.7040   33.4080 C   0  0  0  0  0  0  0  0  0  0  0  0
   40.7730   21.8730   34.2240 C   0  0  0  0  0  0  0  0  0  0  0  0
   40.5390   22.3020   35.4960 N   0  0  0  0  0  0  0  0  0  0  0  0
   39.2910   22.5520   35.9530 C   0  0  0  0  0  0  0  0  0  0  0  0
   38.1970   22.3880   35.1610 N   0  0  0  0  0  0  0  0  0  0  0  0
   39.8150   21.3690   32.4070 H   0  0  0  0  0  0  0  0  0  0  0  0
   41.7740   21.6730   33.8570 H   0  0  0  0  0  0  0  0  0  0  0  0
   39.2160   23.0090   37.3540 C   0  0  0  0  0  2  0  0  0  0  0  0
   37.8990   23.6120   37.7140 C   0  0  0  0  0  2  0  0  0  0  0  0
   38.0160   24.7330   37.6560 H   0  0  0  0  0  0  0  0  0  0  0  0
   35.4740   20.1170   33.2140 C   0  0  0  0  0  0  0  0  0  0  0  0
   35.4430   18.7330   33.4570 F   0  0  0  0  0  0  0  0  0  0  0  0
   34.4010   20.4920   32.4760 F   0  0  0  0  0  0  0  0  0  0  0  0
   35.3130   20.7510   34.4530 F   0  0  0  0  0  0  0  0  0  0  0  0
  1 13  1  0  0  0  0
  2  7  1  0  0  0  0
  2  1  1  0  0  0  0
  3  4  1  0  0  0  0
  3  2  1  0  0  0  0
  4  5  1  0  0  0  0
  5 12  1  1  0  0  0
  5  1  1  0  0  0  0
  5 24  1  0  0  0  0
  6  2  1  0  0  0  0
  8  3  1  0  0  0  0
  9  3  1  0  0  0  0
 10  4  1  0  0  0  0
 11  4  1  0  0  0  0
 13 18  1  0  0  0  0
 14 13  2  0  0  0  0
 14 15  1  0  0  0  0
 15 16  2  0  0  0  0
 16 17  1  0  0  0  0
 17 21  1  0  0  0  0
 18 17  2  0  0  0  0
 19 14  1  0  0  0  0
 20 15  1  0  0  0  0
 21 22  1  0  0  0  0
 23 22  1  0  0  0  0
 24 25  1  0  0  0  0
 24 27  1  0  0  0  0
 26 24  1  0  0  0  0
M  END
>  <minimizedAffinity>
-4.51429319

$$$$

 OpenBabel03262521293D

 27 28  0  0  1  0  0  0  0  0999 V2000
   39.1550   25.6040   34.8230 N   0  0  0  0  0  0  0  0  0  0  0  0
   39.6950   26.9450   34.8170 C   0  0  0  0  0  0  0  0  0  0  0  0
   40.1730   27.1090   33.3730 C   0  0  0  0  0  0  0  0  0  0  0  0
   39.8190   25.8180   32.6760 C   0  0  0  0  0  0  0  0  0  0  0  0
   38.6430   25.3480   33.4900 C   0  0  2  0  0  0  0  0  0  0  0  0
   40.5700   27.0050   35.4950 H   0  0  0  0  0  0  0  0  0  0  0  0
   38.9440   27.7120   35.0800 H   0  0  0  0  0  0  0  0  0  0  0  0
   39.6990   28.0010   32.9430 H   0  0  0  0  0  0  0  0  0  0  0  0
   41.2790   27.2700   33.3690 H   0  0  0  0  0  0  0  0  0  0  0  0
   40.6650   25.1080   32.8720 H   0  0  0  0  0  0  0  0  0  0  0  0
   39.5950   25.9460   31.6140 H   0  0  0  0  0  0  0  0  0  0  0  0
   38.4900   24.2520   33.3180 H   0  0  0  0  0  0  0  0  0  0  0  0
   39.1200   24.6970   35.9050 C   0  0  0  0  0  0  0  0  0  0  0  0
   38.0650   24.8340   36.8120 C   0  0  0  0  0  0  0  0  0  0  0  0
   37.9680   23.9700   37.9070 C   0  0  0  0  0  0  0  0  0  0  0  0
   38.9410   23.0230   38.0190 N   0  0  0  0  0  0  0  0  0  0  0  0
   39.9490   22.9170   37.1250 C   0  0  0  0  0  0  0  0  0  0  0  0
   40.0460   23.7570   36.0580 N   0  0  0  0  0  0  0  0  0  0  0  0
   37.3100   25.5830   36.7070 H   0  0  0  0  0  0  0  0  0  0  0  0
   37.1590   24.0550   38.6240 H   0  0  0  0  0  0  0  0  0  0  0  0
   40.9180   21.8380   37.3950 C   0  0  0  0  0  2  0  0  0  0  0  0
   42.2310   22.0310   36.7140 C   0  0  0  0  0  2  0  0  0  0  0  0
   42.2220   21.3990   35.7800 H   0  0  0  0  0  0  0  0  0  0  0  0
   37.3780   26.0560   33.1740 C   0  0  0  0  0  0  0  0  0  0  0  0
   37.6080   27.0410   32.1990 F   0  0  0  0  0  0  0  0  0  0  0  0
   36.7830   26.5990   34.2640 F   0  0  0  0  0  0  0  0  0  0  0  0
   36.4350   25.1670   32.6400 F   0  0  0  0  0  0  0  0  0  0  0  0
  1 13  1  0  0  0  0
  2  1  1  0  0  0  0
  2  7  1  0  0  0  0
  2  6  1  0  0  0  0
  3  2  1  0  0  0  0
  4 10  1  0  0  0  0
  4  3  1  0  0  0  0
  4  5  1  0  0  0  0
  5 12  1  6  0  0  0
  5  1  1  0  0  0  0
  8  3  1  0  0  0  0
  9  3  1  0  0  0  0
 11  4  1  0  0  0  0
 13 18  2  0  0  0  0
 13 14  1  0  0  0  0
 14 15  2  0  0  0  0
 15 16  1  0  0  0  0
 15 20  1  0  0  0  0
 17 21  1  0  0  0  0
 17 16  2  0  0  0  0
 18 17  1  0  0  0  0
 19 14  1  0  0  0  0
 22 21  1  0  0  0  0
 23 22  1  0  0  0  0
 24  5  1  0  0  0  0
 24 26  1  0  0  0  0
 25 24  1  0  0  0  0
 27 24  1  0  0  0  0
M  END
>  <minimizedAffinity>
-4.50319815

$$$$

 OpenBabel03262521293D

 27 28  0  0  1  0  0  0  0  0999 V2000
   38.5110   23.3600   35.2990 N   0  0  0  0  0  0  0  0  0  0  0  0
   38.6010   24.7750   35.5760 C   0  0  0  0  0  0  0  0  0  0  0  0
   38.0560   24.8740   37.0020 C   0  0  0  0  0  0  0  0  0  0  0  0
   37.7300   23.4590   37.4140 C   0  0  0  0  0  0  0  0  0  0  0  0
   38.6870   22.6680   36.5620 C   0  0  2  0  0  0  0  0  0  0  0  0
   37.9320   25.3400   34.8950 H   0  0  0  0  0  0  0  0  0  0  0  0
   39.6350   25.1610   35.5150 H   0  0  0  0  0  0  0  0  0  0  0  0
   38.8060   25.3680   37.6340 H   0  0  0  0  0  0  0  0  0  0  0  0
   37.1350   25.5070   37.0000 H   0  0  0  0  0  0  0  0  0  0  0  0
   36.6950   23.2480   37.0370 H   0  0  0  0  0  0  0  0  0  0  0  0
   37.8480   23.2820   38.4860 H   0  0  0  0  0  0  0  0  0  0  0  0
   38.3320   21.6080   36.4970 H   0  0  0  0  0  0  0  0  0  0  0  0
   38.2940   22.7420   34.0470 C   0  0  0  0  0  0  0  0  0  0  0  0
   39.2150   21.7650   33.6550 C   0  0  0  0  0  0  0  0  0  0  0  0
   39.0620   21.1130   32.4280 C   0  0  0  0  0  0  0  0  0  0  0  0
   37.9900   21.4860   31.6730 N   0  0  0  0  0  0  0  0  0  0  0  0
   37.1180   22.4350   32.0810 C   0  0  0  0  0  0  0  0  0  0  0  0
   37.2650   23.0720   33.2750 N   0  0  0  0  0  0  0  0  0  0  0  0
   40.0490   21.4850   34.2610 H   0  0  0  0  0  0  0  0  0  0  0  0
   39.7610   20.3510   32.1020 H   0  0  0  0  0  0  0  0  0  0  0  0
   36.0150   22.7180   31.1430 C   0  0  0  0  0  2  0  0  0  0  0  0
   35.5080   24.1190   31.2250 C   0  0  0  0  0  2  0  0  0  0  0  0
   34.5790   24.1040   31.8640 H   0  0  0  0  0  0  0  0  0  0  0  0
   40.0800   22.6690   37.0710 C   0  0  0  0  0  0  0  0  0  0  0  0
   40.1040   23.1090   38.4050 F   0  0  0  0  0  0  0  0  0  0  0  0
   40.9260   23.4090   36.3130 F   0  0  0  0  0  0  0  0  0  0  0  0
   40.6100   21.3720   37.0610 F   0  0  0  0  0  0  0  0  0  0  0  0
  1  2  1  0  0  0  0
  1  5  1  0  0  0  0
  2  3  1  0  0  0  0
  3  4  1  0  0  0  0
  3  8  1  0  0  0  0
  4 11  1  0  0  0  0
  5 12  1  6  0  0  0
  5 24  1  0  0  0  0
  5  4  1  0  0  0  0
  6  2  1  0  0  0  0
  7  2  1  0  0  0  0
  9  3  1  0  0  0  0
 10  4  1  0  0  0  0
 13  1  1  0  0  0  0
 14 13  1  0  0  0  0
 14 19  1  0  0  0  0
 15 14  2  0  0  0  0
 16 17  2  0  0  0  0
 16 15  1  0  0  0  0
 17 18  1  0  0  0  0
 18 13  2  0  0  0  0
 20 15  1  0  0  0  0
 21 22  1  0  0  0  0
 21 17  1  0  0  0  0
 22 23  1  0  0  0  0
 24 25  1  0  0  0  0
 26 24  1  0  0  0  0
 27 24  1  0  0  0  0
M  END
>  <minimizedAffinity>
-4.38722801

$$$$
