
 OpenBabel03272509003D

 22 23  0  0  0  0  0  0  0  0999 V2000
   38.0790   30.0980   49.5260 Cl  0  0  0  0  0  0  0  0  0  0  0  0
   36.7410   29.9010   48.4280 C   0  0  0  0  0  0  0  0  0  0  0  0
   36.8410   30.4240   47.1520 C   0  0  0  0  0  0  0  0  0  0  0  0
   35.8090   30.2940   46.2570 C   0  0  0  0  0  0  0  0  0  0  0  0
   34.6420   29.6380   46.6070 C   0  0  0  0  0  0  0  0  0  0  0  0
   34.5230   29.1050   47.8830 C   0  0  0  0  0  0  0  0  0  0  0  0
   33.1020   28.2520   48.4450 Cl  0  0  0  0  0  0  0  0  0  0  0  0
   35.5810   29.2570   48.7530 C   0  0  0  0  0  0  0  0  0  0  0  0
   35.8630   30.6950   45.2500 H   0  0  0  0  0  0  0  0  0  0  0  0
   33.8160   29.5220   45.9210 H   0  0  0  0  0  0  0  0  0  0  0  0
   39.4240   33.0070   46.8020 C   0  0  0  0  0  0  0  0  0  0  0  0
   40.3570   32.4050   45.9590 C   0  0  0  0  0  0  0  0  0  0  0  0
   40.0780   31.0880   45.5120 C   0  0  0  0  0  0  0  0  0  0  0  0
   38.9210   30.4930   45.9280 N   0  0  0  0  0  0  0  0  0  0  0  0
   38.0520   31.1250   46.7460 C   0  0  0  0  0  0  0  0  0  0  0  0
   38.3100   32.3720   47.1750 N   0  0  0  0  0  0  0  0  0  0  0  0
   39.6040   34.0070   47.1650 H   0  0  0  0  0  0  0  0  0  0  0  0
   41.2320   32.9330   45.6800 H   0  0  0  0  0  0  0  0  0  0  0  0
   40.7820   30.5960   44.8550 H   0  0  0  0  0  0  0  0  0  0  0  0
   35.5550   28.7200   50.1600 C   0  0  0  0  0  2  0  0  0  0  0  0
   34.8090   29.6480   51.0950 C   0  0  0  0  0  2  0  0  0  0  0  0
   35.5360   29.9890   51.8890 H   0  0  0  0  0  0  0  0  0  0  0  0
  2  8  1  0  0  0  0
  2  1  1  0  0  0  0
  3  2  2  0  0  0  0
  4  5  2  0  0  0  0
  4  3  1  0  0  0  0
  5  6  1  0  0  0  0
  6  7  1  0  0  0  0
  6  8  2  0  0  0  0
  8 20  1  0  0  0  0
  9  4  1  0  0  0  0
 10  5  1  0  0  0  0
 11 17  1  0  0  0  0
 11 16  1  0  0  0  0
 12 11  2  0  0  0  0
 13 14  2  0  0  0  0
 13 12  1  0  0  0  0
 14 15  1  0  0  0  0
 15  3  1  0  0  0  0
 15 16  2  0  0  0  0
 18 12  1  0  0  0  0
 19 13  1  0  0  0  0
 20 21  1  0  0  0  0
 21 22  1  0  0  0  0
M  END
>  <minimizedAffinity>
-4.81484127

>  <minimizedRMSD>
2.0333128

$$$$
