
 OpenBabel03272507573D

 26 27  0  0  0  0  0  0  0  0999 V2000
   35.2060   28.5640   49.8790 C   0  0  0  0  0  0  0  0  0  0  0  0
   36.2640   29.5110   49.7170 C   0  0  0  0  0  0  0  0  0  0  0  0
   36.1230   30.4610   48.7060 C   0  0  0  0  0  0  0  0  0  0  0  0
   35.0000   30.4450   47.9300 N   0  0  0  0  0  0  0  0  0  0  0  0
   34.0210   29.5160   48.1320 C   0  0  0  0  0  0  0  0  0  0  0  0
   34.1220   28.5850   49.0950 N   0  0  0  0  0  0  0  0  0  0  0  0
   32.9510   29.6980   47.2050 N   0  0  0  0  0  0  0  0  0  0  0  0
   35.2820   27.8110   50.6540 H   0  0  0  0  0  0  0  0  0  0  0  0
   32.9940   29.6360   46.1530 H   0  0  0  0  0  0  0  0  0  0  0  0
   32.1470   29.9040   47.8470 H   0  0  0  0  0  0  0  0  0  0  0  0
   37.1730   31.4470   48.5020 C   0  0  0  0  0  0  0  0  0  0  0  0
   37.2150   32.3950   49.5320 C   0  0  0  0  0  0  0  0  0  0  0  0
   38.1740   33.4030   49.4700 C   0  0  0  0  0  0  0  0  0  0  0  0
   39.0650   33.4670   48.4160 C   0  0  0  0  0  0  0  0  0  0  0  0
   38.9790   32.5120   47.4350 C   0  0  0  0  0  0  0  0  0  0  0  0
   38.0550   31.5420   47.4960 N   0  0  0  0  0  0  0  0  0  0  0  0
   36.5890   32.4750   50.4160 H   0  0  0  0  0  0  0  0  0  0  0  0
   38.2760   34.1710   50.2180 H   0  0  0  0  0  0  0  0  0  0  0  0
   39.8100   34.2480   48.3640 H   0  0  0  0  0  0  0  0  0  0  0  0
   39.9190   32.5530   46.2910 C   0  0  0  0  0  0  0  0  0  0  0  0
   40.2810   31.1820   45.8050 C   0  0  0  0  0  0  0  0  0  0  0  0
   39.3770   30.5780   45.5700 H   0  0  0  0  0  0  0  0  0  0  0  0
   37.4400   29.4400   50.6140 C   0  0  0  0  0  0  0  0  0  0  0  0
   38.5950   29.8670   49.9720 F   0  0  0  0  0  0  0  0  0  0  0  0
   37.2160   30.2630   51.6870 F   0  0  0  0  0  0  0  0  0  0  0  0
   37.6700   28.1710   51.1020 F   0  0  0  0  0  0  0  0  0  0  0  0
  1  8  1  0  0  0  0
  2  1  1  0  0  0  0
  2 23  1  0  0  0  0
  3  2  2  0  0  0  0
  4  5  2  0  0  0  0
  4  3  1  0  0  0  0
  5  6  1  0  0  0  0
  6  1  2  0  0  0  0
  7 10  1  0  0  0  0
  7  5  1  0  0  0  0
  9  7  1  0  0  0  0
 11  3  1  0  0  0  0
 11 12  1  0  0  0  0
 12 17  1  0  0  0  0
 13 12  2  0  0  0  0
 13 18  1  0  0  0  0
 14 13  1  0  0  0  0
 15 16  1  0  0  0  0
 15 14  2  0  0  0  0
 16 11  2  0  0  0  0
 19 14  1  0  0  0  0
 20 15  1  0  0  0  0
 21 20  1  0  0  0  0
 22 21  1  0  0  0  0
 23 26  1  0  0  0  0
 23 25  1  0  0  0  0
 24 23  1  0  0  0  0
M  END
>  <minimizedAffinity>
-6.60471964

>  <minimizedRMSD>
0.374355525

$$$$
