
 OpenBabel03272508053D

 29 31  0  0  0  0  0  0  0  0999 V2000
   38.9030   30.9060   45.7890 C   0  0  0  0  0  0  0  0  0  0  0  0
   40.0870   31.5410   46.0480 C   0  0  0  0  0  0  0  0  0  0  0  0
   40.9450   31.4870   44.9410 C   0  0  0  0  0  0  0  0  0  0  0  0
   40.2000   30.7960   44.0440 N   0  0  0  0  0  0  0  0  0  0  0  0
   39.0240   30.4550   44.5180 N   0  0  0  0  0  0  0  0  0  0  0  0
   40.3720   32.0370   46.9750 H   0  0  0  0  0  0  0  0  0  0  0  0
   41.9240   31.8620   44.7770 H   0  0  0  0  0  0  0  0  0  0  0  0
   37.7650   30.7460   46.6770 C   0  0  0  0  0  0  0  0  0  0  0  0
   37.9830   30.9670   48.0650 C   0  0  0  0  0  0  0  0  0  0  0  0
   36.8910   30.8140   48.9150 C   0  0  0  0  0  0  0  0  0  0  0  0
   35.6890   30.4620   48.3690 N   0  0  0  0  0  0  0  0  0  0  0  0
   35.5150   30.2570   47.0410 C   0  0  0  0  0  0  0  0  0  0  0  0
   36.5660   30.4050   46.2090 N   0  0  0  0  0  0  0  0  0  0  0  0
   38.9570   31.2400   48.3980 H   0  0  0  0  0  0  0  0  0  0  0  0
   34.5280   29.9810   46.6890 H   0  0  0  0  0  0  0  0  0  0  0  0
   37.0800   31.0380   50.3770 C   0  0  0  0  0  0  0  0  0  0  0  0
   36.5570   32.2840   50.6290 F   0  0  0  0  0  0  0  0  0  0  0  0
   36.3930   30.0980   51.1450 F   0  0  0  0  0  0  0  0  0  0  0  0
   38.4280   31.0260   50.7250 F   0  0  0  0  0  0  0  0  0  0  0  0
   40.5650   30.4200   42.6720 C   0  0  0  0  0  0  0  0  0  0  0  0
   40.1910   31.2160   41.5750 C   0  0  0  0  0  0  0  0  0  0  0  0
   40.5630   30.8180   40.3220 C   0  0  0  0  0  0  0  0  0  0  0  0
   41.3100   29.6200   40.1630 C   0  0  0  0  0  0  0  0  0  0  0  0
   41.4950   29.0250   41.9150 S   0  0  0  0  0  0  0  0  0  0  0  0
   39.6220   32.1290   41.6760 H   0  0  0  0  0  0  0  0  0  0  0  0
   40.3620   31.3060   39.3820 H   0  0  0  0  0  0  0  0  0  0  0  0
   41.8490   28.9180   39.0790 C   0  0  0  0  0  2  0  0  0  0  0  0
   40.7690   28.7120   38.0080 C   0  0  0  0  0  2  0  0  0  0  0  0
   40.0680   29.5700   38.0660 H   0  0  0  0  0  0  0  0  0  0  0  0
  1  2  1  0  0  0  0
  1  8  1  0  0  0  0
  2  6  1  0  0  0  0
  3  2  2  0  0  0  0
  4  5  1  0  0  0  0
  4  3  1  0  0  0  0
  5  1  2  0  0  0  0
  7  3  1  0  0  0  0
  8  9  1  0  0  0  0
  9 14  1  0  0  0  0
  9 10  2  0  0  0  0
 10 16  1  0  0  0  0
 11 10  1  0  0  0  0
 12 11  2  0  0  0  0
 13  8  2  0  0  0  0
 13 12  1  0  0  0  0
 15 12  1  0  0  0  0
 16 17  1  0  0  0  0
 16 19  1  0  0  0  0
 16 18  1  0  0  0  0
 20  4  1  0  0  0  0
 21 25  1  0  0  0  0
 21 20  2  0  0  0  0
 22 21  1  0  0  0  0
 23 22  2  0  0  0  0
 23 24  1  0  0  0  0
 24 20  1  0  0  0  0
 26 22  1  0  0  0  0
 27 23  1  0  0  0  0
 28 29  1  0  0  0  0
 28 27  1  0  0  0  0
M  END
>  <minimizedAffinity>
-5.90889549

>  <minimizedRMSD>
0.054153271

$$$$
