
 OpenBabel03262520233D

 26 27  0  0  0  0  0  0  0  0999 V2000
   40.5200   23.6140   35.4350 C   0  0  0  0  0  0  0  0  0  0  0  0
   39.3310   24.0190   36.1170 C   0  0  0  0  0  0  0  0  0  0  0  0
   39.0420   23.3590   37.2800 C   0  0  0  0  0  0  0  0  0  0  0  0
   39.9120   22.3790   37.6860 N   0  0  0  0  0  0  0  0  0  0  0  0
   41.0110   22.0210   37.0400 C   0  0  0  0  0  0  0  0  0  0  0  0
   41.3030   22.6620   35.8910 N   0  0  0  0  0  0  0  0  0  0  0  0
   41.7910   21.0160   37.6330 N   0  0  0  0  0  0  0  0  0  0  0  0
   40.8660   24.0470   34.5070 H   0  0  0  0  0  0  0  0  0  0  0  0
   41.8620   20.9110   38.6710 H   0  0  0  0  0  0  0  0  0  0  0  0
   42.3710   20.2830   37.1450 H   0  0  0  0  0  0  0  0  0  0  0  0
   38.6800   25.1140   35.4130 C   0  0  0  0  0  0  0  0  0  0  0  0
   38.7240   26.4090   35.9520 C   0  0  0  0  0  0  0  0  0  0  0  0
   38.1430   27.5150   35.4320 C   0  0  0  0  0  0  0  0  0  0  0  0
   37.4380   27.4270   34.2820 C   0  0  0  0  0  0  0  0  0  0  0  0
   37.3920   26.1880   33.7580 C   0  0  0  0  0  0  0  0  0  0  0  0
   37.9770   25.1500   34.3100 N   0  0  0  0  0  0  0  0  0  0  0  0
   39.3040   26.5520   36.9240 H   0  0  0  0  0  0  0  0  0  0  0  0
   38.2670   28.4910   35.9850 H   0  0  0  0  0  0  0  0  0  0  0  0
   36.9670   28.2700   33.8430 H   0  0  0  0  0  0  0  0  0  0  0  0
   36.6220   25.9590   32.4520 C   0  0  0  0  0  2  0  0  0  0  0  0
   36.7820   24.5200   32.0150 C   0  0  0  0  0  2  0  0  0  0  0  0
   35.8190   24.0820   31.6680 H   0  0  0  0  0  0  0  0  0  0  0  0
   37.8350   23.7200   38.0320 C   0  0  0  0  0  0  0  0  0  0  0  0
   36.8380   23.8980   37.1630 F   0  0  0  0  0  0  0  0  0  0  0  0
   37.4500   22.7720   38.9660 F   0  0  0  0  0  0  0  0  0  0  0  0
   38.0270   24.9230   38.7520 F   0  0  0  0  0  0  0  0  0  0  0  0
  1  6  2  0  0  0  0
  1  2  1  0  0  0  0
  2  3  2  0  0  0  0
  3  4  1  0  0  0  0
  3 23  1  0  0  0  0
  5  7  1  0  0  0  0
  5  4  2  0  0  0  0
  6  5  1  0  0  0  0
  7  9  1  0  0  0  0
  8  1  1  0  0  0  0
 10  7  1  0  0  0  0
 11 12  1  0  0  0  0
 11  2  1  0  0  0  0
 12 17  1  0  0  0  0
 13 12  2  0  0  0  0
 13 18  1  0  0  0  0
 14 13  1  0  0  0  0
 15 14  2  0  0  0  0
 15 16  1  0  0  0  0
 16 11  2  0  0  0  0
 19 14  1  0  0  0  0
 20 15  1  0  0  0  0
 21 20  1  0  0  0  0
 22 21  1  0  0  0  0
 23 26  1  0  0  0  0
 23 25  1  0  0  0  0
 24 23  1  0  0  0  0
M  END
>  <minimizedAffinity>
-5.78600931

$$$$

 OpenBabel03262520233D

 26 27  0  0  0  0  0  0  0  0999 V2000
   37.7720   24.0900   33.4640 C   0  0  0  0  0  0  0  0  0  0  0  0
   38.6870   24.8400   34.2660 C   0  0  0  0  0  0  0  0  0  0  0  0
   39.2090   25.9710   33.6980 C   0  0  0  0  0  0  0  0  0  0  0  0
   38.8110   26.2810   32.4230 N   0  0  0  0  0  0  0  0  0  0  0  0
   37.9600   25.5730   31.6970 C   0  0  0  0  0  0  0  0  0  0  0  0
   37.4410   24.4560   32.2460 N   0  0  0  0  0  0  0  0  0  0  0  0
   37.6510   26.0720   30.4220 N   0  0  0  0  0  0  0  0  0  0  0  0
   37.2880   23.1790   33.7850 H   0  0  0  0  0  0  0  0  0  0  0  0
   37.6200   27.0970   30.2220 H   0  0  0  0  0  0  0  0  0  0  0  0
   37.4240   25.5180   29.5540 H   0  0  0  0  0  0  0  0  0  0  0  0
   38.8420   24.2320   35.5790 C   0  0  0  0  0  0  0  0  0  0  0  0
   37.9790   24.6020   36.6220 C   0  0  0  0  0  0  0  0  0  0  0  0
   38.0200   24.1500   37.8960 C   0  0  0  0  0  0  0  0  0  0  0  0
   38.9600   23.2500   38.2600 C   0  0  0  0  0  0  0  0  0  0  0  0
   39.7900   22.8880   37.2660 C   0  0  0  0  0  0  0  0  0  0  0  0
   39.7030   23.3630   36.0450 N   0  0  0  0  0  0  0  0  0  0  0  0
   37.1610   25.3610   36.3810 H   0  0  0  0  0  0  0  0  0  0  0  0
   37.2540   24.5440   38.6260 H   0  0  0  0  0  0  0  0  0  0  0  0
   39.0250   22.8710   39.2500 H   0  0  0  0  0  0  0  0  0  0  0  0
   40.9010   21.8710   37.5540 C   0  0  0  0  0  2  0  0  0  0  0  0
   42.1480   22.2500   36.7870 C   0  0  0  0  0  2  0  0  0  0  0  0
   43.0650   22.1540   37.4110 H   0  0  0  0  0  0  0  0  0  0  0  0
   40.1580   26.7880   34.4620 C   0  0  0  0  0  0  0  0  0  0  0  0
   39.4790   27.4580   35.3950 F   0  0  0  0  0  0  0  0  0  0  0  0
   41.1610   26.0580   35.0770 F   0  0  0  0  0  0  0  0  0  0  0  0
   40.8120   27.7210   33.6220 F   0  0  0  0  0  0  0  0  0  0  0  0
  1  8  1  0  0  0  0
  1  2  1  0  0  0  0
  2 11  1  0  0  0  0
  3  2  2  0  0  0  0
  3 23  1  0  0  0  0
  4  3  1  0  0  0  0
  5  6  1  0  0  0  0
  5  4  2  0  0  0  0
  6  1  2  0  0  0  0
  7  5  1  0  0  0  0
  9  7  1  0  0  0  0
 10  7  1  0  0  0  0
 11 16  2  0  0  0  0
 11 12  1  0  0  0  0
 12 13  2  0  0  0  0
 13 14  1  0  0  0  0
 13 18  1  0  0  0  0
 14 19  1  0  0  0  0
 15 20  1  0  0  0  0
 15 14  2  0  0  0  0
 16 15  1  0  0  0  0
 17 12  1  0  0  0  0
 21 22  1  0  0  0  0
 21 20  1  0  0  0  0
 23 25  1  0  0  0  0
 23 24  1  0  0  0  0
 26 23  1  0  0  0  0
M  END
>  <minimizedAffinity>
-5.41581154

$$$$

 OpenBabel03262520233D

 26 27  0  0  0  0  0  0  0  0999 V2000
   38.2140   23.0880   35.0660 C   0  0  0  0  0  0  0  0  0  0  0  0
   38.1880   24.5090   34.9150 C   0  0  0  0  0  0  0  0  0  0  0  0
   38.2900   25.2450   36.0650 C   0  0  0  0  0  0  0  0  0  0  0  0
   38.4100   24.5590   37.2480 N   0  0  0  0  0  0  0  0  0  0  0  0
   38.4340   23.2410   37.3640 C   0  0  0  0  0  0  0  0  0  0  0  0
   38.3310   22.5070   36.2380 N   0  0  0  0  0  0  0  0  0  0  0  0
   38.5960   22.7260   38.6600 N   0  0  0  0  0  0  0  0  0  0  0  0
   38.1400   22.3890   34.2450 H   0  0  0  0  0  0  0  0  0  0  0  0
   39.1620   23.2210   39.3850 H   0  0  0  0  0  0  0  0  0  0  0  0
   38.1960   21.8310   39.0490 H   0  0  0  0  0  0  0  0  0  0  0  0
   38.0890   24.8790   33.5120 C   0  0  0  0  0  0  0  0  0  0  0  0
   39.2110   24.7490   32.6790 C   0  0  0  0  0  0  0  0  0  0  0  0
   39.2810   25.0790   31.3690 C   0  0  0  0  0  0  0  0  0  0  0  0
   38.1960   25.5870   30.7450 C   0  0  0  0  0  0  0  0  0  0  0  0
   37.1150   25.7140   31.5350 C   0  0  0  0  0  0  0  0  0  0  0  0
   37.1060   25.3760   32.8040 N   0  0  0  0  0  0  0  0  0  0  0  0
   40.1630   24.3260   33.1450 H   0  0  0  0  0  0  0  0  0  0  0  0
   40.2600   24.9160   30.8310 H   0  0  0  0  0  0  0  0  0  0  0  0
   38.2100   25.8580   29.7180 H   0  0  0  0  0  0  0  0  0  0  0  0
   35.8180   26.2790   30.9420 C   0  0  0  0  0  2  0  0  0  0  0  0
   34.7790   25.1830   30.8570 C   0  0  0  0  0  2  0  0  0  0  0  0
   33.7780   25.5330   31.1960 H   0  0  0  0  0  0  0  0  0  0  0  0
   38.2660   26.7090   35.9880 C   0  0  0  0  0  0  0  0  0  0  0  0
   39.3500   27.1120   35.3220 F   0  0  0  0  0  0  0  0  0  0  0  0
   37.1410   27.2210   35.3620 F   0  0  0  0  0  0  0  0  0  0  0  0
   38.2900   27.2850   37.2810 F   0  0  0  0  0  0  0  0  0  0  0  0
  1  6  1  0  0  0  0
  2  1  2  0  0  0  0
  2  3  1  0  0  0  0
  3  4  2  0  0  0  0
  4  5  1  0  0  0  0
  5  7  1  0  0  0  0
  6  5  2  0  0  0  0
  7 10  1  0  0  0  0
  7  9  1  0  0  0  0
  8  1  1  0  0  0  0
 11  2  1  0  0  0  0
 12 17  1  0  0  0  0
 12 11  2  0  0  0  0
 13 12  1  0  0  0  0
 14 13  2  0  0  0  0
 14 15  1  0  0  0  0
 15 16  2  0  0  0  0
 16 11  1  0  0  0  0
 18 13  1  0  0  0  0
 19 14  1  0  0  0  0
 20 15  1  0  0  0  0
 21 20  1  0  0  0  0
 21 22  1  0  0  0  0
 23  3  1  0  0  0  0
 23 26  1  0  0  0  0
 24 23  1  0  0  0  0
 25 23  1  0  0  0  0
M  END
>  <minimizedAffinity>
-5.34415102

$$$$

 OpenBabel03262520233D

 26 27  0  0  0  0  0  0  0  0999 V2000
   38.0780   23.8490   33.6230 C   0  0  0  0  0  0  0  0  0  0  0  0
   38.5430   24.7110   34.6640 C   0  0  0  0  0  0  0  0  0  0  0  0
   38.1270   26.0140   34.6060 C   0  0  0  0  0  0  0  0  0  0  0  0
   37.3070   26.3720   33.5660 N   0  0  0  0  0  0  0  0  0  0  0  0
   36.8860   25.5560   32.6120 C   0  0  0  0  0  0  0  0  0  0  0  0
   37.2920   24.2710   32.6580 N   0  0  0  0  0  0  0  0  0  0  0  0
   36.0240   26.1030   31.6500 N   0  0  0  0  0  0  0  0  0  0  0  0
   38.3290   22.8010   33.5440 H   0  0  0  0  0  0  0  0  0  0  0  0
   35.3420   26.8610   31.8840 H   0  0  0  0  0  0  0  0  0  0  0  0
   35.9510   25.8420   30.6310 H   0  0  0  0  0  0  0  0  0  0  0  0
   39.3630   23.9770   35.6160 C   0  0  0  0  0  0  0  0  0  0  0  0
   38.7680   23.4190   36.7580 C   0  0  0  0  0  0  0  0  0  0  0  0
   39.4010   22.7400   37.7420 C   0  0  0  0  0  0  0  0  0  0  0  0
   40.7370   22.5470   37.6740 C   0  0  0  0  0  0  0  0  0  0  0  0
   41.3150   23.0770   36.5810 C   0  0  0  0  0  0  0  0  0  0  0  0
   40.6470   23.7280   35.6560 N   0  0  0  0  0  0  0  0  0  0  0  0
   37.6400   23.5470   36.8770 H   0  0  0  0  0  0  0  0  0  0  0  0
   38.7830   22.3510   38.6030 H   0  0  0  0  0  0  0  0  0  0  0  0
   41.2700   22.0200   38.4250 H   0  0  0  0  0  0  0  0  0  0  0  0
   42.8290   22.9240   36.3880 C   0  0  0  0  0  2  0  0  0  0  0  0
   43.4440   24.2760   36.1050 C   0  0  0  0  0  2  0  0  0  0  0  0
   44.3880   24.4300   36.6750 H   0  0  0  0  0  0  0  0  0  0  0  0
   38.5690   26.9570   35.6390 C   0  0  0  0  0  0  0  0  0  0  0  0
   39.8960   27.0740   35.5610 F   0  0  0  0  0  0  0  0  0  0  0  0
   38.0020   28.2170   35.5300 F   0  0  0  0  0  0  0  0  0  0  0  0
   38.2320   26.4880   36.9310 F   0  0  0  0  0  0  0  0  0  0  0  0
  1  2  1  0  0  0  0
  2 11  1  0  0  0  0
  3  2  2  0  0  0  0
  3 23  1  0  0  0  0
  4  3  1  0  0  0  0
  5  6  1  0  0  0  0
  5  4  2  0  0  0  0
  6  1  2  0  0  0  0
  7  9  1  0  0  0  0
  7  5  1  0  0  0  0
  8  1  1  0  0  0  0
 10  7  1  0  0  0  0
 11 16  2  0  0  0  0
 11 12  1  0  0  0  0
 12 17  1  0  0  0  0
 12 13  2  0  0  0  0
 13 18  1  0  0  0  0
 14 13  1  0  0  0  0
 14 19  1  0  0  0  0
 15 14  2  0  0  0  0
 16 15  1  0  0  0  0
 20 15  1  0  0  0  0
 21 20  1  0  0  0  0
 21 22  1  0  0  0  0
 23 26  1  0  0  0  0
 24 23  1  0  0  0  0
 25 23  1  0  0  0  0
M  END
>  <minimizedAffinity>
-5.33151722

$$$$

 OpenBabel03262520233D

 26 27  0  0  0  0  0  0  0  0999 V2000
   38.0620   22.8200   34.2030 C   0  0  0  0  0  0  0  0  0  0  0  0
   38.4760   23.4070   35.4390 C   0  0  0  0  0  0  0  0  0  0  0  0
   37.8500   22.9520   36.5680 C   0  0  0  0  0  0  0  0  0  0  0  0
   36.8940   21.9810   36.4150 N   0  0  0  0  0  0  0  0  0  0  0  0
   36.5270   21.4480   35.2590 C   0  0  0  0  0  0  0  0  0  0  0  0
   37.1340   21.8920   34.1410 N   0  0  0  0  0  0  0  0  0  0  0  0
   35.5510   20.4410   35.3110 N   0  0  0  0  0  0  0  0  0  0  0  0
   38.4680   23.0870   33.2370 H   0  0  0  0  0  0  0  0  0  0  0  0
   35.4800   19.7810   36.1180 H   0  0  0  0  0  0  0  0  0  0  0  0
   34.8090   20.2290   34.5920 H   0  0  0  0  0  0  0  0  0  0  0  0
   39.5390   24.3760   35.2200 C   0  0  0  0  0  0  0  0  0  0  0  0
   39.2160   25.6890   34.8440 C   0  0  0  0  0  0  0  0  0  0  0  0
   40.0900   26.6860   34.5780 C   0  0  0  0  0  0  0  0  0  0  0  0
   41.4190   26.4570   34.6660 C   0  0  0  0  0  0  0  0  0  0  0  0
   41.7380   25.2010   35.0280 C   0  0  0  0  0  0  0  0  0  0  0  0
   40.8430   24.2730   35.2740 N   0  0  0  0  0  0  0  0  0  0  0  0
   38.1080   25.9490   34.7510 H   0  0  0  0  0  0  0  0  0  0  0  0
   39.6740   27.6940   34.2850 H   0  0  0  0  0  0  0  0  0  0  0  0
   42.1370   27.2120   34.4650 H   0  0  0  0  0  0  0  0  0  0  0  0
   43.2160   24.8160   35.1640 C   0  0  0  0  0  2  0  0  0  0  0  0
   43.3940   23.8960   36.3510 C   0  0  0  0  0  2  0  0  0  0  0  0
   44.0690   23.0420   36.1180 H   0  0  0  0  0  0  0  0  0  0  0  0
   38.2210   23.5120   37.8720 C   0  0  0  0  0  0  0  0  0  0  0  0
   37.4300   22.9720   38.8010 F   0  0  0  0  0  0  0  0  0  0  0  0
   39.5420   23.2900   38.2250 F   0  0  0  0  0  0  0  0  0  0  0  0
   38.0430   24.9160   37.8890 F   0  0  0  0  0  0  0  0  0  0  0  0
  1  2  1  0  0  0  0
  2  3  2  0  0  0  0
  3 23  1  0  0  0  0
  4  3  1  0  0  0  0
  5  7  1  0  0  0  0
  5  4  2  0  0  0  0
  6  1  2  0  0  0  0
  6  5  1  0  0  0  0
  7  9  1  0  0  0  0
  8  1  1  0  0  0  0
 10  7  1  0  0  0  0
 11 16  1  0  0  0  0
 11  2  1  0  0  0  0
 12 11  2  0  0  0  0
 13 14  2  0  0  0  0
 13 12  1  0  0  0  0
 14 15  1  0  0  0  0
 15 20  1  0  0  0  0
 15 16  2  0  0  0  0
 17 12  1  0  0  0  0
 18 13  1  0  0  0  0
 19 14  1  0  0  0  0
 20 21  1  0  0  0  0
 22 21  1  0  0  0  0
 23 26  1  0  0  0  0
 23 25  1  0  0  0  0
 23 24  1  0  0  0  0
M  END
>  <minimizedAffinity>
-5.24327993

$$$$

 OpenBabel03262520233D

 26 27  0  0  0  0  0  0  0  0999 V2000
   40.5020   22.5860   34.9450 C   0  0  0  0  0  0  0  0  0  0  0  0
   39.3690   23.1580   35.6040 C   0  0  0  0  0  0  0  0  0  0  0  0
   39.2410   22.8850   36.9390 C   0  0  0  0  0  0  0  0  0  0  0  0
   40.2020   22.0990   37.5210 N   0  0  0  0  0  0  0  0  0  0  0  0
   41.2460   21.5810   36.8920 C   0  0  0  0  0  0  0  0  0  0  0  0
   41.3810   21.8400   35.5760 N   0  0  0  0  0  0  0  0  0  0  0  0
   42.1390   20.8270   37.6690 N   0  0  0  0  0  0  0  0  0  0  0  0
   40.7250   22.7170   33.8960 H   0  0  0  0  0  0  0  0  0  0  0  0
   42.3240   21.0500   38.6730 H   0  0  0  0  0  0  0  0  0  0  0  0
   42.7060   19.9920   37.3650 H   0  0  0  0  0  0  0  0  0  0  0  0
   38.5870   23.9650   34.6800 C   0  0  0  0  0  0  0  0  0  0  0  0
   38.0550   23.3770   33.5220 C   0  0  0  0  0  0  0  0  0  0  0  0
   37.3390   24.0020   32.5610 C   0  0  0  0  0  0  0  0  0  0  0  0
   37.0750   25.3230   32.6710 C   0  0  0  0  0  0  0  0  0  0  0  0
   37.5800   25.8950   33.7780 C   0  0  0  0  0  0  0  0  0  0  0  0
   38.2700   25.2350   34.6800 N   0  0  0  0  0  0  0  0  0  0  0  0
   38.2430   22.2620   33.3690 H   0  0  0  0  0  0  0  0  0  0  0  0
   36.9780   23.3900   31.6830 H   0  0  0  0  0  0  0  0  0  0  0  0
   36.5170   25.8500   31.9380 H   0  0  0  0  0  0  0  0  0  0  0  0
   37.3470   27.3920   34.0180 C   0  0  0  0  0  2  0  0  0  0  0  0
   37.7780   27.7540   35.4210 C   0  0  0  0  0  2  0  0  0  0  0  0
   38.3560   28.7060   35.4460 H   0  0  0  0  0  0  0  0  0  0  0  0
   38.1000   23.4350   37.6800 C   0  0  0  0  0  0  0  0  0  0  0  0
   36.9840   23.1360   37.0130 F   0  0  0  0  0  0  0  0  0  0  0  0
   37.9880   22.9580   38.9750 F   0  0  0  0  0  0  0  0  0  0  0  0
   38.1980   24.8430   37.7890 F   0  0  0  0  0  0  0  0  0  0  0  0
  1  6  2  0  0  0  0
  1  2  1  0  0  0  0
  2  3  2  0  0  0  0
  3  4  1  0  0  0  0
  3 23  1  0  0  0  0
  5  4  2  0  0  0  0
  5  7  1  0  0  0  0
  6  5  1  0  0  0  0
  7  9  1  0  0  0  0
  8  1  1  0  0  0  0
 10  7  1  0  0  0  0
 11 16  1  0  0  0  0
 11  2  1  0  0  0  0
 12 11  2  0  0  0  0
 13 14  2  0  0  0  0
 13 12  1  0  0  0  0
 14 15  1  0  0  0  0
 15 20  1  0  0  0  0
 15 16  2  0  0  0  0
 17 12  1  0  0  0  0
 18 13  1  0  0  0  0
 19 14  1  0  0  0  0
 20 21  1  0  0  0  0
 21 22  1  0  0  0  0
 23 26  1  0  0  0  0
 23 25  1  0  0  0  0
 24 23  1  0  0  0  0
M  END
>  <minimizedAffinity>
-5.20772886

$$$$

 OpenBabel03262520233D

 26 27  0  0  0  0  0  0  0  0999 V2000
   38.4800   22.3230   34.3900 C   0  0  0  0  0  0  0  0  0  0  0  0
   38.8260   23.0520   35.5700 C   0  0  0  0  0  0  0  0  0  0  0  0
   37.9920   22.9020   36.6440 C   0  0  0  0  0  0  0  0  0  0  0  0
   36.9100   22.0720   36.4950 N   0  0  0  0  0  0  0  0  0  0  0  0
   36.6080   21.4040   35.3920 C   0  0  0  0  0  0  0  0  0  0  0  0
   37.4220   21.5460   34.3280 N   0  0  0  0  0  0  0  0  0  0  0  0
   35.4750   20.5780   35.4460 N   0  0  0  0  0  0  0  0  0  0  0  0
   39.0480   22.3500   33.4700 H   0  0  0  0  0  0  0  0  0  0  0  0
   35.1870   20.0890   36.3240 H   0  0  0  0  0  0  0  0  0  0  0  0
   34.8070   20.3550   34.6620 H   0  0  0  0  0  0  0  0  0  0  0  0
   40.0610   23.7970   35.3740 C   0  0  0  0  0  0  0  0  0  0  0  0
   41.2770   23.2550   35.8170 C   0  0  0  0  0  0  0  0  0  0  0  0
   42.4940   23.8390   35.7330 C   0  0  0  0  0  0  0  0  0  0  0  0
   42.6150   25.0640   35.1770 C   0  0  0  0  0  0  0  0  0  0  0  0
   41.4540   25.5920   34.7490 C   0  0  0  0  0  0  0  0  0  0  0  0
   40.2990   24.9760   34.8570 N   0  0  0  0  0  0  0  0  0  0  0  0
   41.2450   22.2200   36.2970 H   0  0  0  0  0  0  0  0  0  0  0  0
   43.3840   23.2740   36.1370 H   0  0  0  0  0  0  0  0  0  0  0  0
   43.5520   25.5570   35.0940 H   0  0  0  0  0  0  0  0  0  0  0  0
   41.4590   26.9800   34.0980 C   0  0  0  0  0  2  0  0  0  0  0  0
   40.2020   27.1610   33.2780 C   0  0  0  0  0  2  0  0  0  0  0  0
   39.7480   28.1670   33.4300 H   0  0  0  0  0  0  0  0  0  0  0  0
   38.2820   23.6230   37.8880 C   0  0  0  0  0  0  0  0  0  0  0  0
   37.3270   23.3340   38.7740 F   0  0  0  0  0  0  0  0  0  0  0  0
   39.5140   23.3150   38.4420 F   0  0  0  0  0  0  0  0  0  0  0  0
   38.2900   25.0220   37.6720 F   0  0  0  0  0  0  0  0  0  0  0  0
  1  2  1  0  0  0  0
  2  3  2  0  0  0  0
  3 23  1  0  0  0  0
  4  3  1  0  0  0  0
  5  7  1  0  0  0  0
  5  4  2  0  0  0  0
  6  1  2  0  0  0  0
  6  5  1  0  0  0  0
  7  9  1  0  0  0  0
  8  1  1  0  0  0  0
 10  7  1  0  0  0  0
 11  2  1  0  0  0  0
 11 12  1  0  0  0  0
 12 17  1  0  0  0  0
 13 12  2  0  0  0  0
 13 18  1  0  0  0  0
 14 13  1  0  0  0  0
 15 16  1  0  0  0  0
 15 14  2  0  0  0  0
 16 11  2  0  0  0  0
 19 14  1  0  0  0  0
 20 15  1  0  0  0  0
 21 22  1  0  0  0  0
 21 20  1  0  0  0  0
 23 25  1  0  0  0  0
 23 24  1  0  0  0  0
 26 23  1  0  0  0  0
M  END
>  <minimizedAffinity>
-5.15009356

$$$$

 OpenBabel03262520233D

 26 27  0  0  0  0  0  0  0  0999 V2000
   37.9420   24.1810   36.2960 C   0  0  0  0  0  0  0  0  0  0  0  0
   38.7800   24.9090   35.3940 C   0  0  0  0  0  0  0  0  0  0  0  0
   40.1050   24.5650   35.3820 C   0  0  0  0  0  0  0  0  0  0  0  0
   40.5060   23.5610   36.2260 N   0  0  0  0  0  0  0  0  0  0  0  0
   39.7130   22.8970   37.0530 C   0  0  0  0  0  0  0  0  0  0  0  0
   38.4070   23.2300   37.0740 N   0  0  0  0  0  0  0  0  0  0  0  0
   40.3060   21.8800   37.8150 N   0  0  0  0  0  0  0  0  0  0  0  0
   36.8810   24.3500   36.4090 H   0  0  0  0  0  0  0  0  0  0  0  0
   41.1030   21.3090   37.4510 H   0  0  0  0  0  0  0  0  0  0  0  0
   40.0450   21.5730   38.7900 H   0  0  0  0  0  0  0  0  0  0  0  0
   38.0020   25.8720   34.6300 C   0  0  0  0  0  0  0  0  0  0  0  0
   37.6390   27.0940   35.2180 C   0  0  0  0  0  0  0  0  0  0  0  0
   36.8970   28.0700   34.6470 C   0  0  0  0  0  0  0  0  0  0  0  0
   36.4310   27.9120   33.3890 C   0  0  0  0  0  0  0  0  0  0  0  0
   36.7750   26.7440   32.8170 C   0  0  0  0  0  0  0  0  0  0  0  0
   37.5000   25.8320   33.4220 N   0  0  0  0  0  0  0  0  0  0  0  0
   38.0010   27.2910   36.2820 H   0  0  0  0  0  0  0  0  0  0  0  0
   36.6870   29.0010   35.2510 H   0  0  0  0  0  0  0  0  0  0  0  0
   35.8450   28.6540   32.9060 H   0  0  0  0  0  0  0  0  0  0  0  0
   36.3070   26.4460   31.3870 C   0  0  0  0  0  2  0  0  0  0  0  0
   35.7060   25.0600   31.3290 C   0  0  0  0  0  2  0  0  0  0  0  0
   34.7640   25.0400   30.7350 H   0  0  0  0  0  0  0  0  0  0  0  0
   41.0240   25.2720   34.4850 C   0  0  0  0  0  0  0  0  0  0  0  0
   42.2450   24.7560   34.6430 F   0  0  0  0  0  0  0  0  0  0  0  0
   40.6760   25.1930   33.1460 F   0  0  0  0  0  0  0  0  0  0  0  0
   41.0740   26.6520   34.7950 F   0  0  0  0  0  0  0  0  0  0  0  0
  1  8  1  0  0  0  0
  1  6  1  0  0  0  0
  2  1  2  0  0  0  0
  3  2  1  0  0  0  0
  3  4  2  0  0  0  0
  4  5  1  0  0  0  0
  5  6  2  0  0  0  0
  5  7  1  0  0  0  0
  7 10  1  0  0  0  0
  9  7  1  0  0  0  0
 11 12  1  0  0  0  0
 11  2  1  0  0  0  0
 12 17  1  0  0  0  0
 13 12  2  0  0  0  0
 13 18  1  0  0  0  0
 14 13  1  0  0  0  0
 15 14  2  0  0  0  0
 15 16  1  0  0  0  0
 16 11  2  0  0  0  0
 19 14  1  0  0  0  0
 20 15  1  0  0  0  0
 21 20  1  0  0  0  0
 22 21  1  0  0  0  0
 23 24  1  0  0  0  0
 23 26  1  0  0  0  0
 23  3  1  0  0  0  0
 25 23  1  0  0  0  0
M  END
>  <minimizedAffinity>
-5.13655901

$$$$

 OpenBabel03262520233D

 26 27  0  0  0  0  0  0  0  0999 V2000
   38.0260   25.2860   33.9520 C   0  0  0  0  0  0  0  0  0  0  0  0
   37.9590   23.8850   34.2260 C   0  0  0  0  0  0  0  0  0  0  0  0
   37.5120   23.0870   33.2080 C   0  0  0  0  0  0  0  0  0  0  0  0
   37.1730   23.6960   32.0270 N   0  0  0  0  0  0  0  0  0  0  0  0
   37.2450   24.9980   31.7930 C   0  0  0  0  0  0  0  0  0  0  0  0
   37.6820   25.7930   32.7900 N   0  0  0  0  0  0  0  0  0  0  0  0
   36.8840   25.4270   30.5070 N   0  0  0  0  0  0  0  0  0  0  0  0
   38.3580   26.0290   34.6640 H   0  0  0  0  0  0  0  0  0  0  0  0
   37.0520   24.8400   29.6590 H   0  0  0  0  0  0  0  0  0  0  0  0
   36.4260   26.3390   30.2410 H   0  0  0  0  0  0  0  0  0  0  0  0
   38.4340   23.5980   35.5710 C   0  0  0  0  0  0  0  0  0  0  0  0
   37.7590   24.1400   36.6760 C   0  0  0  0  0  0  0  0  0  0  0  0
   38.0980   23.9890   37.9770 C   0  0  0  0  0  0  0  0  0  0  0  0
   39.1810   23.2530   38.3080 C   0  0  0  0  0  0  0  0  0  0  0  0
   39.8340   22.7280   37.2550 C   0  0  0  0  0  0  0  0  0  0  0  0
   39.4570   22.9100   36.0110 N   0  0  0  0  0  0  0  0  0  0  0  0
   36.8330   24.7730   36.4650 H   0  0  0  0  0  0  0  0  0  0  0  0
   37.4530   24.4900   38.7560 H   0  0  0  0  0  0  0  0  0  0  0  0
   39.4800   23.1110   39.3170 H   0  0  0  0  0  0  0  0  0  0  0  0
   41.0820   21.8710   37.5020 C   0  0  0  0  0  2  0  0  0  0  0  0
   42.2290   22.3940   36.6670 C   0  0  0  0  0  2  0  0  0  0  0  0
   43.1800   22.4330   37.2470 H   0  0  0  0  0  0  0  0  0  0  0  0
   37.4130   21.6380   33.4190 C   0  0  0  0  0  0  0  0  0  0  0  0
   38.6480   21.1370   33.4760 F   0  0  0  0  0  0  0  0  0  0  0  0
   36.7330   21.2830   34.5720 F   0  0  0  0  0  0  0  0  0  0  0  0
   36.7220   21.0170   32.3510 F   0  0  0  0  0  0  0  0  0  0  0  0
  1  2  1  0  0  0  0
  1  8  1  0  0  0  0
  2 11  1  0  0  0  0
  3 23  1  0  0  0  0
  3  2  2  0  0  0  0
  4  3  1  0  0  0  0
  5  4  2  0  0  0  0
  5  6  1  0  0  0  0
  6  1  2  0  0  0  0
  7  5  1  0  0  0  0
  9  7  1  0  0  0  0
 10  7  1  0  0  0  0
 11 16  2  0  0  0  0
 11 12  1  0  0  0  0
 12 13  2  0  0  0  0
 13 14  1  0  0  0  0
 13 18  1  0  0  0  0
 14 19  1  0  0  0  0
 15 20  1  0  0  0  0
 15 14  2  0  0  0  0
 16 15  1  0  0  0  0
 17 12  1  0  0  0  0
 21 22  1  0  0  0  0
 21 20  1  0  0  0  0
 23 24  1  0  0  0  0
 23 25  1  0  0  0  0
 26 23  1  0  0  0  0
M  END
>  <minimizedAffinity>
-5.06457329

$$$$
