
 OpenBabel03262520223D

 26 27  0  0  0  0  0  0  0  0999 V2000
   34.6750   29.9590   47.3630 C   0  0  0  0  0  0  0  0  0  0  0  0
   35.9660   30.3840   46.9190 C   0  0  0  0  0  0  0  0  0  0  0  0
   36.1610   30.4210   45.5650 C   0  0  0  0  0  0  0  0  0  0  0  0
   35.1110   30.0540   44.7620 N   0  0  0  0  0  0  0  0  0  0  0  0
   33.9210   29.6650   45.1950 C   0  0  0  0  0  0  0  0  0  0  0  0
   33.7190   29.6220   46.5270 N   0  0  0  0  0  0  0  0  0  0  0  0
   32.9640   29.3600   44.2160 N   0  0  0  0  0  0  0  0  0  0  0  0
   34.3850   29.8810   48.4020 H   0  0  0  0  0  0  0  0  0  0  0  0
   32.9330   29.8580   43.2970 H   0  0  0  0  0  0  0  0  0  0  0  0
   32.1980   28.6370   44.2710 H   0  0  0  0  0  0  0  0  0  0  0  0
   36.8130   30.7310   48.0500 C   0  0  0  0  0  0  0  0  0  0  0  0
   37.0390   29.7870   49.0630 C   0  0  0  0  0  0  0  0  0  0  0  0
   37.7730   29.9720   50.1840 C   0  0  0  0  0  0  0  0  0  0  0  0
   38.3740   31.1620   50.4050 C   0  0  0  0  0  0  0  0  0  0  0  0
   38.1630   32.0730   49.4380 C   0  0  0  0  0  0  0  0  0  0  0  0
   37.4390   31.8350   48.3690 N   0  0  0  0  0  0  0  0  0  0  0  0
   36.5590   28.7590   48.9380 H   0  0  0  0  0  0  0  0  0  0  0  0
   37.8620   29.1130   50.9110 H   0  0  0  0  0  0  0  0  0  0  0  0
   38.9580   31.3480   51.2720 H   0  0  0  0  0  0  0  0  0  0  0  0
   38.7940   33.4650   49.5730 C   0  0  0  0  0  0  0  0  0  0  0  0
   39.4810   33.8380   48.2780 C   0  0  0  0  0  0  0  0  0  0  0  0
   39.2720   34.8920   47.9860 H   0  0  0  0  0  0  0  0  0  0  0  0
   37.4630   30.8440   45.0360 C   0  0  0  0  0  0  0  0  0  0  0  0
   38.4160   30.1610   45.6740 F   0  0  0  0  0  0  0  0  0  0  0  0
   37.6070   30.6460   43.6730 F   0  0  0  0  0  0  0  0  0  0  0  0
   37.6740   32.2260   45.2550 F   0  0  0  0  0  0  0  0  0  0  0  0
  1  8  1  0  0  0  0
  2  1  1  0  0  0  0
  2 11  1  0  0  0  0
  3  2  2  0  0  0  0
  4  5  2  0  0  0  0
  4  3  1  0  0  0  0
  5  6  1  0  0  0  0
  6  1  2  0  0  0  0
  7 10  1  0  0  0  0
  7  5  1  0  0  0  0
  9  7  1  0  0  0  0
 11 16  2  0  0  0  0
 11 12  1  0  0  0  0
 12 13  2  0  0  0  0
 13 14  1  0  0  0  0
 13 18  1  0  0  0  0
 14 19  1  0  0  0  0
 15 20  1  0  0  0  0
 15 14  2  0  0  0  0
 16 15  1  0  0  0  0
 17 12  1  0  0  0  0
 21 20  1  0  0  0  0
 22 21  1  0  0  0  0
 23 26  1  0  0  0  0
 23  3  1  0  0  0  0
 23 24  1  0  0  0  0
 25 23  1  0  0  0  0
M  END
>  <minimizedAffinity>
-5.32225275

>  <minimizedRMSD>
1.35039806

$$$$
