
 OpenBabel03272504293D

 36 38  0  0  0  0  0  0  0  0999 V2000
   38.0430   25.8200   33.6390 C   0  0  0  0  0  0  0  0  0  0  0  0
   37.9940   26.9510   34.3740 C   0  0  0  0  0  0  0  0  0  0  0  0
   38.9470   27.2390   35.2670 C   0  0  0  0  0  0  0  0  0  0  0  0
   39.9770   26.3690   35.4290 N   0  0  0  0  0  0  0  0  0  0  0  0
   40.0170   25.2610   34.7010 C   0  0  0  0  0  0  0  0  0  0  0  0
   39.0660   24.9640   33.8040 N   0  0  0  0  0  0  0  0  0  0  0  0
   37.1680   27.6390   34.2380 H   0  0  0  0  0  0  0  0  0  0  0  0
   38.8900   28.1440   35.8440 H   0  0  0  0  0  0  0  0  0  0  0  0
   41.1110   23.4210   35.9080 C   0  0  0  0  0  0  0  0  0  0  0  0
   41.1720   24.4240   34.9390 C   0  0  0  0  0  0  0  0  0  0  0  0
   42.2940   24.7030   34.1830 C   0  0  0  0  0  0  0  0  0  0  0  0
   43.4340   23.9570   34.3850 C   0  0  0  0  0  0  0  0  0  0  0  0
   43.4700   22.9480   35.3190 C   0  0  0  0  0  0  0  0  0  0  0  0
   42.3210   22.7480   36.0110 C   0  0  0  0  0  0  0  0  0  0  0  0
   42.2960   25.4890   33.4430 H   0  0  0  0  0  0  0  0  0  0  0  0
   44.3190   24.1770   33.7900 H   0  0  0  0  0  0  0  0  0  0  0  0
   44.3440   22.3670   35.4850 H   0  0  0  0  0  0  0  0  0  0  0  0
   42.3530   21.9390   36.7590 H   0  0  0  0  0  0  0  0  0  0  0  0
   39.7710   23.0420   36.8230 S   0  0  0  0  0  0  0  0  0  0  0  0
   40.5170   22.1750   37.8910 O   0  0  0  0  0  0  0  0  0  0  0  0
   38.9060   22.1320   35.9910 O   0  0  0  0  0  0  0  0  0  0  0  0
   38.6800   23.3760   37.9390 C   0  0  0  0  0  0  0  0  0  0  0  0
   37.3480   22.9120   37.9380 F   0  0  0  0  0  0  0  0  0  0  0  0
   38.1880   24.7510   37.7560 F   0  0  0  0  0  0  0  0  0  0  0  0
   39.0540   23.7780   39.2520 F   0  0  0  0  0  0  0  0  0  0  0  0
   35.3780   26.0540   31.1210 C   0  0  0  0  0  0  0  0  0  0  0  0
   35.1320   24.6980   30.8080 C   0  0  0  0  0  0  0  0  0  0  0  0
   35.9010   23.7310   31.4840 C   0  0  0  0  0  0  0  0  0  0  0  0
   36.8150   24.1650   32.3790 N   0  0  0  0  0  0  0  0  0  0  0  0
   37.0260   25.4840   32.6570 C   0  0  0  0  0  0  0  0  0  0  0  0
   36.3050   26.4090   32.0240 N   0  0  0  0  0  0  0  0  0  0  0  0
   34.7560   26.7270   30.5680 H   0  0  0  0  0  0  0  0  0  0  0  0
   34.3940   24.3740   30.0870 H   0  0  0  0  0  0  0  0  0  0  0  0
   35.7070   22.2810   31.2140 C   0  0  0  0  0  2  0  0  0  0  0  0
   35.5180   21.5390   32.5430 C   0  0  0  0  0  2  0  0  0  0  0  0
   36.2310   21.9540   33.2730 H   0  0  0  0  0  0  0  0  0  0  0  0
  1  6  2  0  0  0  0
  1  2  1  0  0  0  0
  2  3  2  0  0  0  0
  3  4  1  0  0  0  0
  3  8  1  0  0  0  0
  5 10  1  0  0  0  0
  5  4  2  0  0  0  0
  6  5  1  0  0  0  0
  7  2  1  0  0  0  0
  9 14  1  0  0  0  0
  9 19  1  0  0  0  0
 10  9  2  0  0  0  0
 11 12  2  0  0  0  0
 11 10  1  0  0  0  0
 12 13  1  0  0  0  0
 13 17  1  0  0  0  0
 13 14  2  0  0  0  0
 14 18  1  0  0  0  0
 15 11  1  0  0  0  0
 16 12  1  0  0  0  0
 19 20  2  0  0  0  0
 19 22  1  0  0  0  0
 21 19  2  0  0  0  0
 22 25  1  0  0  0  0
 23 22  1  0  0  0  0
 24 22  1  0  0  0  0
 26 31  1  0  0  0  0
 27 26  2  0  0  0  0
 27 28  1  0  0  0  0
 28 29  2  0  0  0  0
 29 30  1  0  0  0  0
 30  1  1  0  0  0  0
 31 30  2  0  0  0  0
 32 26  1  0  0  0  0
 33 27  1  0  0  0  0
 34 28  1  0  0  0  0
 34 35  1  0  0  0  0
 35 36  1  0  0  0  0
M  END
>  <minimizedAffinity>
-6.51276922

$$$$

 OpenBabel03272504293D

 36 38  0  0  0  0  0  0  0  0999 V2000
   36.2190   28.2500   33.3450 C   0  0  0  0  0  0  0  0  0  0  0  0
   36.0800   28.7930   32.1180 C   0  0  0  0  0  0  0  0  0  0  0  0
   35.4610   29.9650   31.9450 C   0  0  0  0  0  0  0  0  0  0  0  0
   34.9660   30.6110   33.0310 N   0  0  0  0  0  0  0  0  0  0  0  0
   35.1080   30.0700   34.2340 C   0  0  0  0  0  0  0  0  0  0  0  0
   35.7270   28.8950   34.4170 N   0  0  0  0  0  0  0  0  0  0  0  0
   36.4780   28.2700   31.2560 H   0  0  0  0  0  0  0  0  0  0  0  0
   35.3590   30.3820   30.9590 H   0  0  0  0  0  0  0  0  0  0  0  0
   33.2350   30.6860   35.7000 C   0  0  0  0  0  0  0  0  0  0  0  0
   34.5660   30.8580   35.3190 C   0  0  0  0  0  0  0  0  0  0  0  0
   35.4270   31.7690   35.9000 C   0  0  0  0  0  0  0  0  0  0  0  0
   34.9600   32.5680   36.9200 C   0  0  0  0  0  0  0  0  0  0  0  0
   33.6610   32.4720   37.3630 C   0  0  0  0  0  0  0  0  0  0  0  0
   32.8930   31.5490   36.7330 C   0  0  0  0  0  0  0  0  0  0  0  0
   36.4510   31.8680   35.5730 H   0  0  0  0  0  0  0  0  0  0  0  0
   35.6370   33.2870   37.3780 H   0  0  0  0  0  0  0  0  0  0  0  0
   33.2880   33.0830   38.1480 H   0  0  0  0  0  0  0  0  0  0  0  0
   31.8530   31.4750   37.0910 H   0  0  0  0  0  0  0  0  0  0  0  0
   32.1750   29.5850   35.0380 S   0  0  0  0  0  0  0  0  0  0  0  0
   30.8730   30.4210   35.2690 O   0  0  0  0  0  0  0  0  0  0  0  0
   32.1430   28.3900   35.9540 O   0  0  0  0  0  0  0  0  0  0  0  0
   31.4440   28.8940   33.7980 C   0  0  0  0  0  0  0  0  0  0  0  0
   31.0090   27.5540   33.7540 F   0  0  0  0  0  0  0  0  0  0  0  0
   32.4280   28.5960   32.7450 F   0  0  0  0  0  0  0  0  0  0  0  0
   30.7570   29.6620   32.8150 F   0  0  0  0  0  0  0  0  0  0  0  0
   37.8380   24.9940   32.8160 C   0  0  0  0  0  0  0  0  0  0  0  0
   38.1770   24.6020   34.1300 C   0  0  0  0  0  0  0  0  0  0  0  0
   37.8310   25.4830   35.1740 C   0  0  0  0  0  0  0  0  0  0  0  0
   37.2040   26.6340   34.8470 N   0  0  0  0  0  0  0  0  0  0  0  0
   36.8910   26.9810   33.5650 C   0  0  0  0  0  0  0  0  0  0  0  0
   37.2130   26.1560   32.5680 N   0  0  0  0  0  0  0  0  0  0  0  0
   38.1320   24.2760   32.0800 H   0  0  0  0  0  0  0  0  0  0  0  0
   38.6790   23.6760   34.3690 H   0  0  0  0  0  0  0  0  0  0  0  0
   38.1510   25.1480   36.5880 C   0  0  0  0  0  2  0  0  0  0  0  0
   38.3920   23.6390   36.7090 C   0  0  0  0  0  2  0  0  0  0  0  0
   37.6400   23.1190   36.0940 H   0  0  0  0  0  0  0  0  0  0  0  0
  1 30  1  0  0  0  0
  1  6  1  0  0  0  0
  2  1  2  0  0  0  0
  3  2  1  0  0  0  0
  3  4  2  0  0  0  0
  4  5  1  0  0  0  0
  5  6  2  0  0  0  0
  5 10  1  0  0  0  0
  7  2  1  0  0  0  0
  8  3  1  0  0  0  0
  9 14  1  0  0  0  0
 10  9  2  0  0  0  0
 10 11  1  0  0  0  0
 11 12  2  0  0  0  0
 12 13  1  0  0  0  0
 12 16  1  0  0  0  0
 13 17  1  0  0  0  0
 14 18  1  0  0  0  0
 14 13  2  0  0  0  0
 15 11  1  0  0  0  0
 19 20  2  0  0  0  0
 19  9  1  0  0  0  0
 19 21  2  0  0  0  0
 22 19  1  0  0  0  0
 23 22  1  0  0  0  0
 24 22  1  0  0  0  0
 25 22  1  0  0  0  0
 26 27  1  0  0  0  0
 27 33  1  0  0  0  0
 27 28  2  0  0  0  0
 28 34  1  0  0  0  0
 29 28  1  0  0  0  0
 30 29  2  0  0  0  0
 31 26  2  0  0  0  0
 31 30  1  0  0  0  0
 32 26  1  0  0  0  0
 34 35  1  0  0  0  0
 36 35  1  0  0  0  0
M  END
>  <minimizedAffinity>
-6.18132067

$$$$

 OpenBabel03272504293D

 36 38  0  0  0  0  0  0  0  0999 V2000
   36.0190   28.3260   32.9750 C   0  0  0  0  0  0  0  0  0  0  0  0
   35.8320   28.9560   31.7960 C   0  0  0  0  0  0  0  0  0  0  0  0
   35.2340   30.1500   31.7350 C   0  0  0  0  0  0  0  0  0  0  0  0
   34.8080   30.7290   32.8870 N   0  0  0  0  0  0  0  0  0  0  0  0
   34.9970   30.1020   34.0420 C   0  0  0  0  0  0  0  0  0  0  0  0
   35.5960   28.9060   34.1120 N   0  0  0  0  0  0  0  0  0  0  0  0
   36.1750   28.4870   30.8820 H   0  0  0  0  0  0  0  0  0  0  0  0
   35.0930   30.6360   30.7860 H   0  0  0  0  0  0  0  0  0  0  0  0
   33.2320   30.6110   35.6730 C   0  0  0  0  0  0  0  0  0  0  0  0
   34.5280   30.8250   35.2040 C   0  0  0  0  0  0  0  0  0  0  0  0
   35.4180   31.7180   35.7670 C   0  0  0  0  0  0  0  0  0  0  0  0
   35.0190   32.4550   36.8590 C   0  0  0  0  0  0  0  0  0  0  0  0
   33.7580   32.3150   37.3910 C   0  0  0  0  0  0  0  0  0  0  0  0
   32.9560   31.4140   36.7720 C   0  0  0  0  0  0  0  0  0  0  0  0
   36.4140   31.8500   35.3710 H   0  0  0  0  0  0  0  0  0  0  0  0
   35.7200   33.1600   37.3030 H   0  0  0  0  0  0  0  0  0  0  0  0
   33.4380   32.8790   38.2340 H   0  0  0  0  0  0  0  0  0  0  0  0
   31.9480   31.3040   37.2020 H   0  0  0  0  0  0  0  0  0  0  0  0
   32.1390   29.5280   35.0330 S   0  0  0  0  0  0  0  0  0  0  0  0
   30.8620   30.4080   35.2480 O   0  0  0  0  0  0  0  0  0  0  0  0
   32.0710   28.3540   35.9740 O   0  0  0  0  0  0  0  0  0  0  0  0
   31.3860   28.8350   33.8080 C   0  0  0  0  0  0  0  0  0  0  0  0
   30.9770   27.4860   33.7630 F   0  0  0  0  0  0  0  0  0  0  0  0
   32.3450   28.5680   32.7240 F   0  0  0  0  0  0  0  0  0  0  0  0
   30.6540   29.5970   32.8540 F   0  0  0  0  0  0  0  0  0  0  0  0
   38.0330   25.4880   34.1540 C   0  0  0  0  0  0  0  0  0  0  0  0
   37.8420   24.5310   33.1320 C   0  0  0  0  0  0  0  0  0  0  0  0
   37.0150   24.8980   32.0520 C   0  0  0  0  0  0  0  0  0  0  0  0
   36.4650   26.1320   32.0690 N   0  0  0  0  0  0  0  0  0  0  0  0
   36.6720   27.0320   33.0730 C   0  0  0  0  0  0  0  0  0  0  0  0
   37.4520   26.6970   34.1000 N   0  0  0  0  0  0  0  0  0  0  0  0
   38.6710   25.1370   34.9370 H   0  0  0  0  0  0  0  0  0  0  0  0
   38.2920   23.5490   33.1400 H   0  0  0  0  0  0  0  0  0  0  0  0
   36.7600   23.9500   30.9340 C   0  0  0  0  0  2  0  0  0  0  0  0
   35.6550   22.9690   31.3430 C   0  0  0  0  0  2  0  0  0  0  0  0
   35.8270   22.6750   32.3910 H   0  0  0  0  0  0  0  0  0  0  0  0
  1 30  1  0  0  0  0
  1  6  1  0  0  0  0
  2  1  2  0  0  0  0
  3  2  1  0  0  0  0
  3  4  2  0  0  0  0
  4  5  1  0  0  0  0
  5  6  2  0  0  0  0
  5 10  1  0  0  0  0
  7  2  1  0  0  0  0
  8  3  1  0  0  0  0
  9 14  1  0  0  0  0
 10  9  2  0  0  0  0
 10 11  1  0  0  0  0
 11 12  2  0  0  0  0
 12 16  1  0  0  0  0
 12 13  1  0  0  0  0
 13 17  1  0  0  0  0
 14 18  1  0  0  0  0
 14 13  2  0  0  0  0
 15 11  1  0  0  0  0
 19 20  2  0  0  0  0
 19  9  1  0  0  0  0
 19 21  2  0  0  0  0
 22 19  1  0  0  0  0
 23 22  1  0  0  0  0
 24 22  1  0  0  0  0
 25 22  1  0  0  0  0
 26 32  1  0  0  0  0
 27 33  1  0  0  0  0
 27 26  2  0  0  0  0
 28 29  2  0  0  0  0
 28 27  1  0  0  0  0
 29 30  1  0  0  0  0
 30 31  2  0  0  0  0
 31 26  1  0  0  0  0
 34 35  1  0  0  0  0
 34 28  1  0  0  0  0
 35 36  1  0  0  0  0
M  END
>  <minimizedAffinity>
-6.12037516

$$$$

 OpenBabel03272504293D

 36 38  0  0  0  0  0  0  0  0999 V2000
   39.4700   25.6840   33.5200 C   0  0  0  0  0  0  0  0  0  0  0  0
   40.2610   26.7740   33.6050 C   0  0  0  0  0  0  0  0  0  0  0  0
   41.3950   26.7540   34.3130 C   0  0  0  0  0  0  0  0  0  0  0  0
   41.7450   25.6100   34.9550 N   0  0  0  0  0  0  0  0  0  0  0  0
   40.9620   24.5440   34.8650 C   0  0  0  0  0  0  0  0  0  0  0  0
   39.8240   24.5550   34.1580 N   0  0  0  0  0  0  0  0  0  0  0  0
   39.9730   27.6820   33.0900 H   0  0  0  0  0  0  0  0  0  0  0  0
   42.0120   27.6330   34.3700 H   0  0  0  0  0  0  0  0  0  0  0  0
   40.6870   22.8210   36.5960 C   0  0  0  0  0  0  0  0  0  0  0  0
   41.4480   23.3760   35.5670 C   0  0  0  0  0  0  0  0  0  0  0  0
   42.6810   22.8960   35.1710 C   0  0  0  0  0  0  0  0  0  0  0  0
   43.2100   21.8030   35.8210 C   0  0  0  0  0  0  0  0  0  0  0  0
   42.5320   21.1900   36.8490 C   0  0  0  0  0  0  0  0  0  0  0  0
   41.3300   21.7310   37.1660 C   0  0  0  0  0  0  0  0  0  0  0  0
   43.2370   23.3570   34.3680 H   0  0  0  0  0  0  0  0  0  0  0  0
   44.1820   21.4240   35.5100 H   0  0  0  0  0  0  0  0  0  0  0  0
   42.9300   20.3460   37.3590 H   0  0  0  0  0  0  0  0  0  0  0  0
   40.7910   21.2370   37.9900 H   0  0  0  0  0  0  0  0  0  0  0  0
   39.1880   23.3590   37.0870 S   0  0  0  0  0  0  0  0  0  0  0  0
   39.3480   22.9940   38.6000 O   0  0  0  0  0  0  0  0  0  0  0  0
   38.1620   22.4380   36.4810 O   0  0  0  0  0  0  0  0  0  0  0  0
   38.1730   24.5090   37.5300 C   0  0  0  0  0  0  0  0  0  0  0  0
   37.5590   24.6070   38.7950 F   0  0  0  0  0  0  0  0  0  0  0  0
   36.8550   24.2690   36.9220 F   0  0  0  0  0  0  0  0  0  0  0  0
   38.1470   25.7740   36.8770 F   0  0  0  0  0  0  0  0  0  0  0  0
   36.6400   24.6190   31.4320 C   0  0  0  0  0  0  0  0  0  0  0  0
   35.8660   25.7980   31.3390 C   0  0  0  0  0  0  0  0  0  0  0  0
   36.3500   26.9400   32.0070 C   0  0  0  0  0  0  0  0  0  0  0  0
   37.5130   26.8290   32.6850 N   0  0  0  0  0  0  0  0  0  0  0  0
   38.2360   25.6740   32.7530 C   0  0  0  0  0  0  0  0  0  0  0  0
   37.7890   24.5860   32.1260 N   0  0  0  0  0  0  0  0  0  0  0  0
   36.2090   23.7970   30.9000 H   0  0  0  0  0  0  0  0  0  0  0  0
   34.9380   25.8630   30.7900 H   0  0  0  0  0  0  0  0  0  0  0  0
   35.5980   28.2220   31.9620 C   0  0  0  0  0  2  0  0  0  0  0  0
   35.8780   29.0200   33.2400 C   0  0  0  0  0  2  0  0  0  0  0  0
   35.8780   28.3200   34.0910 H   0  0  0  0  0  0  0  0  0  0  0  0
  1  2  2  0  0  0  0
  1  6  1  0  0  0  0
  2  3  1  0  0  0  0
  3  8  1  0  0  0  0
  3  4  2  0  0  0  0
  5  4  1  0  0  0  0
  5 10  1  0  0  0  0
  6  5  2  0  0  0  0
  7  2  1  0  0  0  0
  9 19  1  0  0  0  0
  9 14  1  0  0  0  0
 10  9  2  0  0  0  0
 11 10  1  0  0  0  0
 11 12  2  0  0  0  0
 12 13  1  0  0  0  0
 13 14  2  0  0  0  0
 13 17  1  0  0  0  0
 14 18  1  0  0  0  0
 15 11  1  0  0  0  0
 16 12  1  0  0  0  0
 19 22  1  0  0  0  0
 19 20  2  0  0  0  0
 21 19  2  0  0  0  0
 22 23  1  0  0  0  0
 24 22  1  0  0  0  0
 25 22  1  0  0  0  0
 26 31  1  0  0  0  0
 27 26  2  0  0  0  0
 27 28  1  0  0  0  0
 28 29  2  0  0  0  0
 29 30  1  0  0  0  0
 30  1  1  0  0  0  0
 31 30  2  0  0  0  0
 32 26  1  0  0  0  0
 33 27  1  0  0  0  0
 34 28  1  0  0  0  0
 34 35  1  0  0  0  0
 35 36  1  0  0  0  0
M  END
>  <minimizedAffinity>
-5.98245525

$$$$

 OpenBabel03272504293D

 36 38  0  0  0  0  0  0  0  0999 V2000
   36.2490   28.3590   32.4470 C   0  0  0  0  0  0  0  0  0  0  0  0
   37.0670   28.8080   31.4720 C   0  0  0  0  0  0  0  0  0  0  0  0
   37.8700   27.9750   30.8030 C   0  0  0  0  0  0  0  0  0  0  0  0
   37.8540   26.6550   31.1200 N   0  0  0  0  0  0  0  0  0  0  0  0
   37.0460   26.2220   32.0790 C   0  0  0  0  0  0  0  0  0  0  0  0
   36.2390   27.0510   32.7550 N   0  0  0  0  0  0  0  0  0  0  0  0
   37.0730   29.8630   31.2260 H   0  0  0  0  0  0  0  0  0  0  0  0
   38.5150   28.3510   30.0290 H   0  0  0  0  0  0  0  0  0  0  0  0
   37.7960   24.2990   33.4120 C   0  0  0  0  0  0  0  0  0  0  0  0
   37.0950   24.7960   32.3120 C   0  0  0  0  0  0  0  0  0  0  0  0
   36.4440   24.0040   31.3870 C   0  0  0  0  0  0  0  0  0  0  0  0
   36.4780   22.6360   31.5400 C   0  0  0  0  0  0  0  0  0  0  0  0
   37.1460   22.0540   32.5930 C   0  0  0  0  0  0  0  0  0  0  0  0
   37.7540   22.9110   33.4490 C   0  0  0  0  0  0  0  0  0  0  0  0
   35.9120   24.4320   30.5500 H   0  0  0  0  0  0  0  0  0  0  0  0
   35.9660   22.0110   30.8110 H   0  0  0  0  0  0  0  0  0  0  0  0
   37.1810   20.9990   32.7220 H   0  0  0  0  0  0  0  0  0  0  0  0
   38.2870   22.4410   34.2910 H   0  0  0  0  0  0  0  0  0  0  0  0
   38.5750   25.2230   34.5590 S   0  0  0  0  0  0  0  0  0  0  0  0
   39.9380   24.4550   34.5190 O   0  0  0  0  0  0  0  0  0  0  0  0
   37.9100   24.9450   35.8820 O   0  0  0  0  0  0  0  0  0  0  0  0
   39.3840   26.5190   35.0200 C   0  0  0  0  0  0  0  0  0  0  0  0
   38.8990   27.5100   35.8980 F   0  0  0  0  0  0  0  0  0  0  0  0
   39.3970   27.5090   33.9300 F   0  0  0  0  0  0  0  0  0  0  0  0
   40.8050   26.5710   34.9650 F   0  0  0  0  0  0  0  0  0  0  0  0
   33.2730   30.1600   33.6320 C   0  0  0  0  0  0  0  0  0  0  0  0
   33.7910   30.9500   34.6830 C   0  0  0  0  0  0  0  0  0  0  0  0
   35.1690   30.8370   34.9550 C   0  0  0  0  0  0  0  0  0  0  0  0
   35.8940   29.9870   34.1960 N   0  0  0  0  0  0  0  0  0  0  0  0
   35.3610   29.2390   33.1870 C   0  0  0  0  0  0  0  0  0  0  0  0
   34.0590   29.3360   32.9200 N   0  0  0  0  0  0  0  0  0  0  0  0
   32.2230   30.3000   33.4860 H   0  0  0  0  0  0  0  0  0  0  0  0
   33.1900   31.6230   35.2780 H   0  0  0  0  0  0  0  0  0  0  0  0
   35.7950   31.6320   36.0450 C   0  0  0  0  0  2  0  0  0  0  0  0
   34.7140   32.0630   37.0440 C   0  0  0  0  0  2  0  0  0  0  0  0
   33.8220   32.3690   36.4740 H   0  0  0  0  0  0  0  0  0  0  0  0
  1  6  1  0  0  0  0
  1 30  1  0  0  0  0
  2  1  2  0  0  0  0
  3  4  2  0  0  0  0
  3  2  1  0  0  0  0
  4  5  1  0  0  0  0
  5 10  1  0  0  0  0
  5  6  2  0  0  0  0
  7  2  1  0  0  0  0
  8  3  1  0  0  0  0
  9 14  1  0  0  0  0
  9 19  1  0  0  0  0
 10  9  2  0  0  0  0
 11 12  2  0  0  0  0
 11 10  1  0  0  0  0
 12 13  1  0  0  0  0
 13 17  1  0  0  0  0
 13 14  2  0  0  0  0
 14 18  1  0  0  0  0
 15 11  1  0  0  0  0
 16 12  1  0  0  0  0
 19 22  1  0  0  0  0
 19 21  2  0  0  0  0
 20 19  2  0  0  0  0
 22 23  1  0  0  0  0
 24 22  1  0  0  0  0
 25 22  1  0  0  0  0
 26 27  1  0  0  0  0
 27 28  2  0  0  0  0
 27 33  1  0  0  0  0
 28 34  1  0  0  0  0
 29 28  1  0  0  0  0
 30 29  2  0  0  0  0
 31 30  1  0  0  0  0
 31 26  2  0  0  0  0
 32 26  1  0  0  0  0
 34 35  1  0  0  0  0
 36 35  1  0  0  0  0
M  END
>  <minimizedAffinity>
-5.90528822

$$$$

 OpenBabel03272504293D

 36 38  0  0  0  0  0  0  0  0999 V2000
   35.9380   29.1520   32.3060 C   0  0  0  0  0  0  0  0  0  0  0  0
   35.5120   29.9020   31.2680 C   0  0  0  0  0  0  0  0  0  0  0  0
   34.4780   30.7410   31.3980 C   0  0  0  0  0  0  0  0  0  0  0  0
   33.8530   30.8290   32.6000 N   0  0  0  0  0  0  0  0  0  0  0  0
   34.2810   30.0880   33.6150 C   0  0  0  0  0  0  0  0  0  0  0  0
   35.3150   29.2460   33.4940 N   0  0  0  0  0  0  0  0  0  0  0  0
   36.0160   29.8250   30.3130 H   0  0  0  0  0  0  0  0  0  0  0  0
   34.1520   31.3290   30.5600 H   0  0  0  0  0  0  0  0  0  0  0  0
   33.9970   31.2440   35.7640 C   0  0  0  0  0  0  0  0  0  0  0  0
   33.5570   30.2850   34.8520 C   0  0  0  0  0  0  0  0  0  0  0  0
   32.4640   29.4660   35.0560 C   0  0  0  0  0  0  0  0  0  0  0  0
   31.7510   29.5880   36.2280 C   0  0  0  0  0  0  0  0  0  0  0  0
   32.1110   30.5050   37.1880 C   0  0  0  0  0  0  0  0  0  0  0  0
   33.1960   31.2640   36.8990 C   0  0  0  0  0  0  0  0  0  0  0  0
   32.1580   28.7370   34.3200 H   0  0  0  0  0  0  0  0  0  0  0  0
   30.8890   28.9430   36.3900 H   0  0  0  0  0  0  0  0  0  0  0  0
   31.5700   30.6080   38.0980 H   0  0  0  0  0  0  0  0  0  0  0  0
   33.4810   31.9970   37.6700 H   0  0  0  0  0  0  0  0  0  0  0  0
   35.2980   32.2620   35.5440 S   0  0  0  0  0  0  0  0  0  0  0  0
   36.3990   31.2630   36.0340 O   0  0  0  0  0  0  0  0  0  0  0  0
   35.1750   33.3690   36.5580 O   0  0  0  0  0  0  0  0  0  0  0  0
   36.4130   32.9570   34.6370 C   0  0  0  0  0  0  0  0  0  0  0  0
   37.5630   33.6120   35.1230 F   0  0  0  0  0  0  0  0  0  0  0  0
   35.9090   34.2450   34.1310 F   0  0  0  0  0  0  0  0  0  0  0  0
   36.5980   32.5940   33.2740 F   0  0  0  0  0  0  0  0  0  0  0  0
   38.5920   26.9910   30.9690 C   0  0  0  0  0  0  0  0  0  0  0  0
   39.2090   26.5010   32.1420 C   0  0  0  0  0  0  0  0  0  0  0  0
   38.6840   26.9350   33.3750 C   0  0  0  0  0  0  0  0  0  0  0  0
   37.6340   27.7850   33.3500 N   0  0  0  0  0  0  0  0  0  0  0  0
   37.0620   28.2380   32.1980 C   0  0  0  0  0  0  0  0  0  0  0  0
   37.5490   27.8350   31.0240 N   0  0  0  0  0  0  0  0  0  0  0  0
   39.0450   26.6170   30.0750 H   0  0  0  0  0  0  0  0  0  0  0  0
   40.0490   25.8210   32.1370 H   0  0  0  0  0  0  0  0  0  0  0  0
   39.2740   26.4690   34.6590 C   0  0  0  0  0  2  0  0  0  0  0  0
   38.6600   27.2620   35.8170 C   0  0  0  0  0  2  0  0  0  0  0  0
   38.5790   28.3170   35.5080 H   0  0  0  0  0  0  0  0  0  0  0  0
  1  6  1  0  0  0  0
  2  3  1  0  0  0  0
  2  1  2  0  0  0  0
  3  4  2  0  0  0  0
  4  5  1  0  0  0  0
  5 10  1  0  0  0  0
  6  5  2  0  0  0  0
  7  2  1  0  0  0  0
  8  3  1  0  0  0  0
  9 14  1  0  0  0  0
 10 11  1  0  0  0  0
 10  9  2  0  0  0  0
 11 12  2  0  0  0  0
 12 16  1  0  0  0  0
 12 13  1  0  0  0  0
 13 17  1  0  0  0  0
 14 13  2  0  0  0  0
 14 18  1  0  0  0  0
 15 11  1  0  0  0  0
 19  9  1  0  0  0  0
 19 20  2  0  0  0  0
 19 21  2  0  0  0  0
 22 23  1  0  0  0  0
 22 19  1  0  0  0  0
 24 22  1  0  0  0  0
 25 22  1  0  0  0  0
 26 31  2  0  0  0  0
 26 27  1  0  0  0  0
 27 28  2  0  0  0  0
 28 34  1  0  0  0  0
 29 28  1  0  0  0  0
 30  1  1  0  0  0  0
 30 29  2  0  0  0  0
 31 30  1  0  0  0  0
 32 26  1  0  0  0  0
 33 27  1  0  0  0  0
 34 35  1  0  0  0  0
 36 35  1  0  0  0  0
M  END
>  <minimizedAffinity>
-5.7223587

$$$$

 OpenBabel03272504293D

 36 38  0  0  0  0  0  0  0  0999 V2000
   37.1360   23.4020   31.3750 C   0  0  0  0  0  0  0  0  0  0  0  0
   38.1840   23.6050   30.5500 C   0  0  0  0  0  0  0  0  0  0  0  0
   38.7560   24.8090   30.4400 C   0  0  0  0  0  0  0  0  0  0  0  0
   38.2630   25.8380   31.1750 N   0  0  0  0  0  0  0  0  0  0  0  0
   37.2320   25.6280   31.9840 C   0  0  0  0  0  0  0  0  0  0  0  0
   36.6540   24.4260   32.1010 N   0  0  0  0  0  0  0  0  0  0  0  0
   38.5710   22.7790   29.9670 H   0  0  0  0  0  0  0  0  0  0  0  0
   39.5900   24.9520   29.7760 H   0  0  0  0  0  0  0  0  0  0  0  0
   37.2730   26.9740   34.0390 C   0  0  0  0  0  0  0  0  0  0  0  0
   36.8100   26.7890   32.7370 C   0  0  0  0  0  0  0  0  0  0  0  0
   35.9320   27.6430   32.0980 C   0  0  0  0  0  0  0  0  0  0  0  0
   35.4730   28.7520   32.7740 C   0  0  0  0  0  0  0  0  0  0  0  0
   35.8730   29.0160   34.0630 C   0  0  0  0  0  0  0  0  0  0  0  0
   36.7360   28.1230   34.6060 C   0  0  0  0  0  0  0  0  0  0  0  0
   35.6000   27.4610   31.0870 H   0  0  0  0  0  0  0  0  0  0  0  0
   34.7800   29.4250   32.2720 H   0  0  0  0  0  0  0  0  0  0  0  0
   35.5240   29.8680   34.5960 H   0  0  0  0  0  0  0  0  0  0  0  0
   37.0540   28.3380   35.6380 H   0  0  0  0  0  0  0  0  0  0  0  0
   38.3470   25.9780   34.8340 S   0  0  0  0  0  0  0  0  0  0  0  0
   38.1690   26.6110   36.2540 O   0  0  0  0  0  0  0  0  0  0  0  0
   39.7260   26.3170   34.3310 O   0  0  0  0  0  0  0  0  0  0  0  0
   38.7380   24.6090   35.5550 C   0  0  0  0  0  0  0  0  0  0  0  0
   39.8950   23.8490   35.2850 F   0  0  0  0  0  0  0  0  0  0  0  0
   37.9100   23.5140   35.0230 F   0  0  0  0  0  0  0  0  0  0  0  0
   38.2170   24.2630   36.8340 F   0  0  0  0  0  0  0  0  0  0  0  0
   35.0400   20.6330   32.5760 C   0  0  0  0  0  0  0  0  0  0  0  0
   35.3590   19.5930   31.6730 C   0  0  0  0  0  0  0  0  0  0  0  0
   36.3000   19.8810   30.6650 C   0  0  0  0  0  0  0  0  0  0  0  0
   36.8290   21.1240   30.6320 N   0  0  0  0  0  0  0  0  0  0  0  0
   36.4980   22.1050   31.5210 C   0  0  0  0  0  0  0  0  0  0  0  0
   35.6090   21.8450   32.4790 N   0  0  0  0  0  0  0  0  0  0  0  0
   34.3200   20.3390   33.3100 H   0  0  0  0  0  0  0  0  0  0  0  0
   34.9220   18.6060   31.7190 H   0  0  0  0  0  0  0  0  0  0  0  0
   36.6930   18.8440   29.6740 C   0  0  0  0  0  2  0  0  0  0  0  0
   37.9200   19.3290   28.8920 C   0  0  0  0  0  2  0  0  0  0  0  0
   37.7830   20.3980   28.6640 H   0  0  0  0  0  0  0  0  0  0  0  0
  1 30  1  0  0  0  0
  1  6  1  0  0  0  0
  2  1  2  0  0  0  0
  3  2  1  0  0  0  0
  3  4  2  0  0  0  0
  4  5  1  0  0  0  0
  5  6  2  0  0  0  0
  5 10  1  0  0  0  0
  7  2  1  0  0  0  0
  8  3  1  0  0  0  0
  9 14  1  0  0  0  0
  9 19  1  0  0  0  0
 10  9  2  0  0  0  0
 11 10  1  0  0  0  0
 11 12  2  0  0  0  0
 12 13  1  0  0  0  0
 13 17  1  0  0  0  0
 13 14  2  0  0  0  0
 14 18  1  0  0  0  0
 15 11  1  0  0  0  0
 16 12  1  0  0  0  0
 19 22  1  0  0  0  0
 19 20  2  0  0  0  0
 21 19  2  0  0  0  0
 22 25  1  0  0  0  0
 23 22  1  0  0  0  0
 24 22  1  0  0  0  0
 26 32  1  0  0  0  0
 27 33  1  0  0  0  0
 27 26  2  0  0  0  0
 28 27  1  0  0  0  0
 29 28  2  0  0  0  0
 29 30  1  0  0  0  0
 30 31  2  0  0  0  0
 31 26  1  0  0  0  0
 34 28  1  0  0  0  0
 35 34  1  0  0  0  0
 36 35  1  0  0  0  0
M  END
>  <minimizedAffinity>
-5.71230364

$$$$

 OpenBabel03272504293D

 36 38  0  0  0  0  0  0  0  0999 V2000
   36.2360   23.7820   31.3840 C   0  0  0  0  0  0  0  0  0  0  0  0
   35.2250   24.6620   31.2280 C   0  0  0  0  0  0  0  0  0  0  0  0
   35.4600   25.9740   31.1220 C   0  0  0  0  0  0  0  0  0  0  0  0
   36.7420   26.4170   31.1750 N   0  0  0  0  0  0  0  0  0  0  0  0
   37.7290   25.5440   31.3270 C   0  0  0  0  0  0  0  0  0  0  0  0
   37.5030   24.2270   31.4350 N   0  0  0  0  0  0  0  0  0  0  0  0
   34.2050   24.3000   31.1870 H   0  0  0  0  0  0  0  0  0  0  0  0
   34.6420   26.6610   30.9990 H   0  0  0  0  0  0  0  0  0  0  0  0
   39.6440   26.4650   32.5610 C   0  0  0  0  0  0  0  0  0  0  0  0
   39.0530   26.1260   31.3440 C   0  0  0  0  0  0  0  0  0  0  0  0
   39.6440   26.3320   30.1120 C   0  0  0  0  0  0  0  0  0  0  0  0
   40.8940   26.9080   30.0620 C   0  0  0  0  0  0  0  0  0  0  0  0
   41.5540   27.2780   31.2110 C   0  0  0  0  0  0  0  0  0  0  0  0
   40.8960   27.0360   32.3710 C   0  0  0  0  0  0  0  0  0  0  0  0
   39.1490   26.0520   29.1930 H   0  0  0  0  0  0  0  0  0  0  0  0
   41.3600   27.0720   29.0920 H   0  0  0  0  0  0  0  0  0  0  0  0
   42.5180   27.7250   31.1850 H   0  0  0  0  0  0  0  0  0  0  0  0
   41.4280   27.3330   33.2890 H   0  0  0  0  0  0  0  0  0  0  0  0
   38.9720   26.2120   34.0650 S   0  0  0  0  0  0  0  0  0  0  0  0
   40.0100   27.0590   34.8750 O   0  0  0  0  0  0  0  0  0  0  0  0
   39.1730   24.7590   34.4060 O   0  0  0  0  0  0  0  0  0  0  0  0
   37.9050   26.5310   35.2090 C   0  0  0  0  0  0  0  0  0  0  0  0
   36.5860   26.9770   34.9880 F   0  0  0  0  0  0  0  0  0  0  0  0
   38.2230   27.8230   35.8390 F   0  0  0  0  0  0  0  0  0  0  0  0
   38.0170   25.9680   36.5120 F   0  0  0  0  0  0  0  0  0  0  0  0
   34.8820   20.5010   32.3360 C   0  0  0  0  0  0  0  0  0  0  0  0
   35.6980   19.6090   31.6060 C   0  0  0  0  0  0  0  0  0  0  0  0
   36.7060   20.1720   30.7970 C   0  0  0  0  0  0  0  0  0  0  0  0
   36.8190   21.5170   30.7770 N   0  0  0  0  0  0  0  0  0  0  0  0
   36.0130   22.3500   31.4960 C   0  0  0  0  0  0  0  0  0  0  0  0
   35.0560   21.8310   32.2640 N   0  0  0  0  0  0  0  0  0  0  0  0
   34.1420   20.0000   32.9240 H   0  0  0  0  0  0  0  0  0  0  0  0
   35.5880   18.5340   31.6380 H   0  0  0  0  0  0  0  0  0  0  0  0
   37.6100   19.3040   29.9950 C   0  0  0  0  0  2  0  0  0  0  0  0
   36.9200   18.9370   28.6760 C   0  0  0  0  0  2  0  0  0  0  0  0
   35.8620   18.7170   28.8900 H   0  0  0  0  0  0  0  0  0  0  0  0
  1  6  1  0  0  0  0
  1 30  1  0  0  0  0
  2  1  2  0  0  0  0
  3  4  2  0  0  0  0
  3  2  1  0  0  0  0
  4  5  1  0  0  0  0
  5 10  1  0  0  0  0
  5  6  2  0  0  0  0
  7  2  1  0  0  0  0
  8  3  1  0  0  0  0
  9 19  1  0  0  0  0
 10  9  2  0  0  0  0
 11 10  1  0  0  0  0
 12 11  2  0  0  0  0
 12 13  1  0  0  0  0
 13 14  2  0  0  0  0
 14  9  1  0  0  0  0
 14 18  1  0  0  0  0
 15 11  1  0  0  0  0
 16 12  1  0  0  0  0
 17 13  1  0  0  0  0
 19 21  2  0  0  0  0
 19 20  2  0  0  0  0
 19 22  1  0  0  0  0
 22 24  1  0  0  0  0
 22 25  1  0  0  0  0
 23 22  1  0  0  0  0
 26 32  1  0  0  0  0
 27 33  1  0  0  0  0
 27 26  2  0  0  0  0
 28 27  1  0  0  0  0
 29 28  2  0  0  0  0
 29 30  1  0  0  0  0
 30 31  2  0  0  0  0
 31 26  1  0  0  0  0
 34 28  1  0  0  0  0
 35 36  1  0  0  0  0
 35 34  1  0  0  0  0
M  END
>  <minimizedAffinity>
-5.65830612

$$$$

 OpenBabel03272504293D

 36 38  0  0  0  0  0  0  0  0999 V2000
   36.1540   28.8050   32.7420 C   0  0  0  0  0  0  0  0  0  0  0  0
   36.3850   29.0330   31.4330 C   0  0  0  0  0  0  0  0  0  0  0  0
   37.4120   28.4560   30.8000 C   0  0  0  0  0  0  0  0  0  0  0  0
   38.2320   27.6300   31.4990 N   0  0  0  0  0  0  0  0  0  0  0  0
   37.9970   27.4120   32.7860 C   0  0  0  0  0  0  0  0  0  0  0  0
   36.9700   27.9850   33.4280 N   0  0  0  0  0  0  0  0  0  0  0  0
   35.7260   29.6930   30.8830 H   0  0  0  0  0  0  0  0  0  0  0  0
   37.5810   28.6500   29.7560 H   0  0  0  0  0  0  0  0  0  0  0  0
   38.7520   25.1210   33.2510 C   0  0  0  0  0  0  0  0  0  0  0  0
   38.9180   26.4950   33.4210 C   0  0  0  0  0  0  0  0  0  0  0  0
   39.9110   27.0660   34.1930 C   0  0  0  0  0  0  0  0  0  0  0  0
   40.8030   26.2430   34.8450 C   0  0  0  0  0  0  0  0  0  0  0  0
   40.7170   24.8740   34.7380 C   0  0  0  0  0  0  0  0  0  0  0  0
   39.7100   24.4070   33.9590 C   0  0  0  0  0  0  0  0  0  0  0  0
   40.0030   28.1370   34.2950 H   0  0  0  0  0  0  0  0  0  0  0  0
   41.5850   26.6920   35.4540 H   0  0  0  0  0  0  0  0  0  0  0  0
   41.3980   24.2280   35.2370 H   0  0  0  0  0  0  0  0  0  0  0  0
   39.6450   23.3110   33.8760 H   0  0  0  0  0  0  0  0  0  0  0  0
   37.5800   24.3980   32.3130 S   0  0  0  0  0  0  0  0  0  0  0  0
   37.3640   23.1430   33.2230 O   0  0  0  0  0  0  0  0  0  0  0  0
   38.2430   23.9520   31.0360 O   0  0  0  0  0  0  0  0  0  0  0  0
   36.0730   24.2260   31.8150 C   0  0  0  0  0  0  0  0  0  0  0  0
   35.3000   23.0550   31.9530 F   0  0  0  0  0  0  0  0  0  0  0  0
   36.0490   24.0540   30.3530 F   0  0  0  0  0  0  0  0  0  0  0  0
   35.2230   25.3490   31.6090 F   0  0  0  0  0  0  0  0  0  0  0  0
   32.7750   29.7860   33.7990 C   0  0  0  0  0  0  0  0  0  0  0  0
   33.0310   30.6230   34.9080 C   0  0  0  0  0  0  0  0  0  0  0  0
   34.3790   30.8290   35.2620 C   0  0  0  0  0  0  0  0  0  0  0  0
   35.3260   30.2140   34.5220 N   0  0  0  0  0  0  0  0  0  0  0  0
   35.0430   29.4110   33.4560 C   0  0  0  0  0  0  0  0  0  0  0  0
   33.7720   29.2090   33.1100 N   0  0  0  0  0  0  0  0  0  0  0  0
   31.7300   29.6790   33.5920 H   0  0  0  0  0  0  0  0  0  0  0  0
   32.2550   31.1050   35.4870 H   0  0  0  0  0  0  0  0  0  0  0  0
   34.7370   31.6950   36.4170 C   0  0  0  0  0  2  0  0  0  0  0  0
   33.4960   31.9160   37.2890 C   0  0  0  0  0  2  0  0  0  0  0  0
   32.6320   32.0780   36.6250 H   0  0  0  0  0  0  0  0  0  0  0  0
  1  6  1  0  0  0  0
  1 30  1  0  0  0  0
  2  1  2  0  0  0  0
  3  2  1  0  0  0  0
  3  4  2  0  0  0  0
  4  5  1  0  0  0  0
  5 10  1  0  0  0  0
  5  6  2  0  0  0  0
  7  2  1  0  0  0  0
  8  3  1  0  0  0  0
  9 10  2  0  0  0  0
  9 14  1  0  0  0  0
 10 11  1  0  0  0  0
 11 15  1  0  0  0  0
 11 12  2  0  0  0  0
 12 16  1  0  0  0  0
 13 12  1  0  0  0  0
 13 17  1  0  0  0  0
 14 13  2  0  0  0  0
 18 14  1  0  0  0  0
 19 20  2  0  0  0  0
 19  9  1  0  0  0  0
 21 19  2  0  0  0  0
 22 23  1  0  0  0  0
 22 19  1  0  0  0  0
 24 22  1  0  0  0  0
 25 22  1  0  0  0  0
 26 27  1  0  0  0  0
 27 28  2  0  0  0  0
 27 33  1  0  0  0  0
 28 34  1  0  0  0  0
 29 28  1  0  0  0  0
 30 29  2  0  0  0  0
 31 30  1  0  0  0  0
 31 26  2  0  0  0  0
 32 26  1  0  0  0  0
 34 35  1  0  0  0  0
 36 35  1  0  0  0  0
M  END
>  <minimizedAffinity>
-5.61320353

$$$$
