
 OpenBabel03262522253D

 36 38  0  0  0  0  0  0  0  0999 V2000
   37.0220   25.4120   32.8000 C   0  0  0  0  0  0  0  0  0  0  0  0
   37.9180   25.4910   33.8840 C   0  0  0  0  0  0  0  0  0  0  0  0
   38.1190   26.7410   34.4710 C   0  0  0  0  0  0  0  0  0  0  0  0
   37.4280   27.7800   33.9410 N   0  0  0  0  0  0  0  0  0  0  0  0
   36.5990   27.6600   32.9260 C   0  0  0  0  0  0  0  0  0  0  0  0
   36.3580   26.4510   32.3030 N   0  0  0  0  0  0  0  0  0  0  0  0
   36.7820   24.4800   32.2590 H   0  0  0  0  0  0  0  0  0  0  0  0
   38.8140   26.7790   35.3050 H   0  0  0  0  0  0  0  0  0  0  0  0
   38.5060   24.3250   34.2570 O   0  0  0  0  0  0  0  0  0  0  0  0
   38.5660   24.0210   35.6280 C   0  0  0  0  0  0  0  0  0  0  0  0
   37.6950   24.4610   36.6190 C   0  0  0  0  0  0  0  0  0  0  0  0
   37.9090   24.0650   37.8920 C   0  0  0  0  0  0  0  0  0  0  0  0
   38.9830   23.2380   38.1640 C   0  0  0  0  0  0  0  0  0  0  0  0
   39.8410   22.8100   37.1570 C   0  0  0  0  0  0  0  0  0  0  0  0
   39.5970   23.2260   35.8990 N   0  0  0  0  0  0  0  0  0  0  0  0
   36.9180   25.1030   36.2130 H   0  0  0  0  0  0  0  0  0  0  0  0
   37.2020   24.4310   38.6280 H   0  0  0  0  0  0  0  0  0  0  0  0
   39.1130   22.9430   39.2140 H   0  0  0  0  0  0  0  0  0  0  0  0
   40.9900   21.9150   37.5110 C   0  0  0  0  0  0  0  0  0  0  0  0
   40.7540   21.4030   38.4650 H   0  0  0  0  0  0  0  0  0  0  0  0
   41.2090   21.2040   36.6960 H   0  0  0  0  0  0  0  0  0  0  0  0
   41.8530   22.5980   37.7160 H   0  0  0  0  0  0  0  0  0  0  0  0
   35.8850   29.2950   32.5430 S   0  0  0  0  0  0  0  0  0  0  0  0
   34.3240   29.3310   33.5040 C   0  0  0  0  0  0  0  0  0  0  0  0
   34.1620   28.3030   33.8740 H   0  0  0  0  0  0  0  0  0  0  0  0
   33.4660   29.6140   32.8870 H   0  0  0  0  0  0  0  0  0  0  0  0
   33.4220   30.5190   35.4010 C   0  0  0  0  0  0  0  0  0  0  0  0
   34.5570   30.2600   34.6410 C   0  0  0  0  0  0  0  0  0  0  0  0
   35.7370   30.8690   35.0050 C   0  0  0  0  0  0  0  0  0  0  0  0
   36.5780   30.6250   34.3700 H   0  0  0  0  0  0  0  0  0  0  0  0
   35.7680   31.7100   36.0980 C   0  0  0  0  0  0  0  0  0  0  0  0
   36.7450   32.1520   36.3150 H   0  0  0  0  0  0  0  0  0  0  0  0
   34.6440   31.9670   36.8510 C   0  0  0  0  0  3  0  0  0  0  0  0
   33.4310   31.3670   36.5120 C   0  0  0  0  0  3  0  0  0  0  0  0
   31.1050   29.4810   34.8660 N   0  0  0  0  0  0  0  0  0  0  0  0
   32.1340   29.9290   35.1030 C   0  0  0  0  0  0  0  0  0  0  0  0
  1  2  1  0  0  0  0
  2  9  1  0  0  0  0
  2  3  2  0  0  0  0
  3  8  1  0  0  0  0
  4  3  1  0  0  0  0
  5  4  2  0  0  0  0
  6  1  2  0  0  0  0
  6  5  1  0  0  0  0
  7  1  1  0  0  0  0
  9 10  1  0  0  0  0
 10 15  2  0  0  0  0
 10 11  1  0  0  0  0
 11 12  2  0  0  0  0
 12 13  1  0  0  0  0
 12 17  1  0  0  0  0
 13 18  1  0  0  0  0
 14 19  1  0  0  0  0
 14 13  2  0  0  0  0
 15 14  1  0  0  0  0
 16 11  1  0  0  0  0
 19 22  1  0  0  0  0
 19 20  1  0  0  0  0
 21 19  1  0  0  0  0
 23  5  1  0  0  0  0
 23 24  1  0  0  0  0
 24 25  1  0  0  0  0
 24 28  1  0  0  0  0
 26 24  1  0  0  0  0
 27 34  1  0  0  0  0
 28 29  1  0  0  0  0
 28 27  2  0  0  0  0
 29 31  2  0  0  0  0
 30 29  1  0  0  0  0
 31 32  1  0  0  0  0
 31 33  1  0  0  0  0
 34 33  2  0  0  0  0
 35 36  3  0  0  0  0
 36 27  1  0  0  0  0
M  END
>  <minimizedAffinity>
-5.86323214

$$$$

 OpenBabel03262522253D

 36 38  0  0  0  0  0  0  0  0999 V2000
   35.9240   27.9770   32.2590 C   0  0  0  0  0  0  0  0  0  0  0  0
   35.9480   28.7530   33.4340 C   0  0  0  0  0  0  0  0  0  0  0  0
   36.5580   28.2050   34.5630 C   0  0  0  0  0  0  0  0  0  0  0  0
   37.0800   26.9610   34.4280 N   0  0  0  0  0  0  0  0  0  0  0  0
   37.0360   26.2710   33.3090 C   0  0  0  0  0  0  0  0  0  0  0  0
   36.4460   26.7590   32.1580 N   0  0  0  0  0  0  0  0  0  0  0  0
   35.4720   28.3060   31.3070 H   0  0  0  0  0  0  0  0  0  0  0  0
   36.5640   28.8200   35.4580 H   0  0  0  0  0  0  0  0  0  0  0  0
   35.3650   29.9770   33.3520 O   0  0  0  0  0  0  0  0  0  0  0  0
   35.0460   30.6420   34.5490 C   0  0  0  0  0  0  0  0  0  0  0  0
   35.8660   31.5030   35.2690 C   0  0  0  0  0  0  0  0  0  0  0  0
   35.3880   32.0540   36.4060 C   0  0  0  0  0  0  0  0  0  0  0  0
   34.1040   31.7430   36.8110 C   0  0  0  0  0  0  0  0  0  0  0  0
   33.3010   30.8800   36.0740 C   0  0  0  0  0  0  0  0  0  0  0  0
   33.8110   30.3490   34.9460 N   0  0  0  0  0  0  0  0  0  0  0  0
   36.8370   31.6200   34.7960 H   0  0  0  0  0  0  0  0  0  0  0  0
   36.0640   32.7200   36.9290 H   0  0  0  0  0  0  0  0  0  0  0  0
   33.7610   32.2180   37.7400 H   0  0  0  0  0  0  0  0  0  0  0  0
   31.9160   30.5780   36.5630 C   0  0  0  0  0  0  0  0  0  0  0  0
   31.5940   31.4010   37.2310 H   0  0  0  0  0  0  0  0  0  0  0  0
   31.2190   30.4240   35.7210 H   0  0  0  0  0  0  0  0  0  0  0  0
   32.0140   29.6630   37.2010 H   0  0  0  0  0  0  0  0  0  0  0  0
   37.8560   24.6620   33.5680 S   0  0  0  0  0  0  0  0  0  0  0  0
   39.3250   25.0740   34.5840 C   0  0  0  0  0  0  0  0  0  0  0  0
   39.3640   26.1760   34.6440 H   0  0  0  0  0  0  0  0  0  0  0  0
   40.2560   24.7220   34.1270 H   0  0  0  0  0  0  0  0  0  0  0  0
   39.9720   23.4840   36.2790 C   0  0  0  0  0  0  0  0  0  0  0  0
   39.0780   24.4890   35.9290 C   0  0  0  0  0  0  0  0  0  0  0  0
   38.0910   24.8260   36.8270 C   0  0  0  0  0  0  0  0  0  0  0  0
   37.4310   25.6130   36.4880 H   0  0  0  0  0  0  0  0  0  0  0  0
   38.0110   24.1700   38.0380 C   0  0  0  0  0  0  0  0  0  0  0  0
   37.1970   24.5000   38.6900 H   0  0  0  0  0  0  0  0  0  0  0  0
   38.8950   23.1740   38.3870 C   0  0  0  0  0  3  0  0  0  0  0  0
   39.9090   22.8070   37.5010 C   0  0  0  0  0  3  0  0  0  0  0  0
   41.8840   22.7210   34.7000 N   0  0  0  0  0  0  0  0  0  0  0  0
   41.0450   23.0550   35.4070 C   0  0  0  0  0  0  0  0  0  0  0  0
  1  2  1  0  0  0  0
  2  3  2  0  0  0  0
  3  8  1  0  0  0  0
  4  3  1  0  0  0  0
  5 23  1  0  0  0  0
  5  4  2  0  0  0  0
  6  1  2  0  0  0  0
  6  5  1  0  0  0  0
  7  1  1  0  0  0  0
  9  2  1  0  0  0  0
  9 10  1  0  0  0  0
 10 15  2  0  0  0  0
 10 11  1  0  0  0  0
 11 12  2  0  0  0  0
 12 13  1  0  0  0  0
 12 17  1  0  0  0  0
 13 18  1  0  0  0  0
 14 19  1  0  0  0  0
 14 13  2  0  0  0  0
 15 14  1  0  0  0  0
 16 11  1  0  0  0  0
 19 22  1  0  0  0  0
 19 20  1  0  0  0  0
 21 19  1  0  0  0  0
 23 24  1  0  0  0  0
 24 25  1  0  0  0  0
 24 28  1  0  0  0  0
 26 24  1  0  0  0  0
 27 34  1  0  0  0  0
 28 27  2  0  0  0  0
 28 29  1  0  0  0  0
 29 31  2  0  0  0  0
 30 29  1  0  0  0  0
 31 33  1  0  0  0  0
 31 32  1  0  0  0  0
 34 33  2  0  0  0  0
 35 36  3  0  0  0  0
 36 27  1  0  0  0  0
M  END
>  <minimizedAffinity>
-5.71560144

$$$$

 OpenBabel03262522253D

 36 38  0  0  0  0  0  0  0  0999 V2000
   38.1350   27.2880   35.0640 C   0  0  0  0  0  0  0  0  0  0  0  0
   38.2810   26.1160   34.2970 C   0  0  0  0  0  0  0  0  0  0  0  0
   37.4320   25.9460   33.2030 C   0  0  0  0  0  0  0  0  0  0  0  0
   36.5320   26.9330   32.9720 N   0  0  0  0  0  0  0  0  0  0  0  0
   36.4310   28.0140   33.7150 C   0  0  0  0  0  0  0  0  0  0  0  0
   37.2420   28.2400   34.8110 N   0  0  0  0  0  0  0  0  0  0  0  0
   38.7500   27.5320   35.9480 H   0  0  0  0  0  0  0  0  0  0  0  0
   37.5620   25.0350   32.6250 H   0  0  0  0  0  0  0  0  0  0  0  0
   39.2490   25.2540   34.7040 O   0  0  0  0  0  0  0  0  0  0  0  0
   39.0550   24.5630   35.9120 C   0  0  0  0  0  0  0  0  0  0  0  0
   38.0300   24.7600   36.8310 C   0  0  0  0  0  0  0  0  0  0  0  0
   38.0030   23.9970   37.9450 C   0  0  0  0  0  0  0  0  0  0  0  0
   38.9940   23.0510   38.1320 C   0  0  0  0  0  0  0  0  0  0  0  0
   40.0100   22.8720   37.2000 C   0  0  0  0  0  0  0  0  0  0  0  0
   40.0040   23.6500   36.1010 N   0  0  0  0  0  0  0  0  0  0  0  0
   37.3520   25.5450   36.5120 H   0  0  0  0  0  0  0  0  0  0  0  0
   37.1830   24.1860   38.6290 H   0  0  0  0  0  0  0  0  0  0  0  0
   38.9270   22.4560   39.0530 H   0  0  0  0  0  0  0  0  0  0  0  0
   41.0580   21.8320   37.4570 C   0  0  0  0  0  0  0  0  0  0  0  0
   40.6440   21.0840   38.1620 H   0  0  0  0  0  0  0  0  0  0  0  0
   41.4050   21.3730   36.5150 H   0  0  0  0  0  0  0  0  0  0  0  0
   41.8840   22.3620   37.9950 H   0  0  0  0  0  0  0  0  0  0  0  0
   35.1030   29.0740   33.0500 S   0  0  0  0  0  0  0  0  0  0  0  0
   35.3710   30.6880   33.8780 C   0  0  0  0  0  0  0  0  0  0  0  0
   35.1640   31.4650   33.1210 H   0  0  0  0  0  0  0  0  0  0  0  0
   36.4030   30.8080   34.2220 H   0  0  0  0  0  0  0  0  0  0  0  0
   34.5960   31.8020   35.8720 C   0  0  0  0  0  0  0  0  0  0  0  0
   34.3760   30.7580   34.9810 C   0  0  0  0  0  0  0  0  0  0  0  0
   33.3010   29.9280   35.2020 C   0  0  0  0  0  0  0  0  0  0  0  0
   33.1910   29.1380   34.4710 H   0  0  0  0  0  0  0  0  0  0  0  0
   32.4770   30.1450   36.2870 C   0  0  0  0  0  0  0  0  0  0  0  0
   31.6480   29.4390   36.3870 H   0  0  0  0  0  0  0  0  0  0  0  0
   32.6940   31.1780   37.1710 C   0  0  0  0  0  3  0  0  0  0  0  0
   33.7740   32.0400   36.9780 C   0  0  0  0  0  3  0  0  0  0  0  0
   36.5740   33.4650   35.6370 N   0  0  0  0  0  0  0  0  0  0  0  0
   35.6980   32.7310   35.7300 C   0  0  0  0  0  0  0  0  0  0  0  0
  1  7  1  0  0  0  0
  2  9  1  0  0  0  0
  2  1  2  0  0  0  0
  3  2  1  0  0  0  0
  4  3  2  0  0  0  0
  4  5  1  0  0  0  0
  5  6  2  0  0  0  0
  6  1  1  0  0  0  0
  8  3  1  0  0  0  0
  9 10  1  0  0  0  0
 10 15  2  0  0  0  0
 10 11  1  0  0  0  0
 11 12  2  0  0  0  0
 12 13  1  0  0  0  0
 12 17  1  0  0  0  0
 13 18  1  0  0  0  0
 14 19  1  0  0  0  0
 14 13  2  0  0  0  0
 15 14  1  0  0  0  0
 16 11  1  0  0  0  0
 19 22  1  0  0  0  0
 19 20  1  0  0  0  0
 21 19  1  0  0  0  0
 23  5  1  0  0  0  0
 23 24  1  0  0  0  0
 24 26  1  0  0  0  0
 24 28  1  0  0  0  0
 25 24  1  0  0  0  0
 27 34  1  0  0  0  0
 28 29  1  0  0  0  0
 28 27  2  0  0  0  0
 29 31  2  0  0  0  0
 30 29  1  0  0  0  0
 31 32  1  0  0  0  0
 31 33  1  0  0  0  0
 34 33  2  0  0  0  0
 35 36  3  0  0  0  0
 36 27  1  0  0  0  0
M  END
>  <minimizedAffinity>
-5.62171936

$$$$

 OpenBabel03262522253D

 36 38  0  0  0  0  0  0  0  0999 V2000
   36.0700   27.8470   32.3830 C   0  0  0  0  0  0  0  0  0  0  0  0
   35.9630   28.6300   33.5480 C   0  0  0  0  0  0  0  0  0  0  0  0
   36.5840   28.1590   34.7060 C   0  0  0  0  0  0  0  0  0  0  0  0
   37.2420   26.9780   34.6070 N   0  0  0  0  0  0  0  0  0  0  0  0
   37.3170   26.2790   33.4950 C   0  0  0  0  0  0  0  0  0  0  0  0
   36.7240   26.6910   32.3170 N   0  0  0  0  0  0  0  0  0  0  0  0
   35.6230   28.1170   31.4100 H   0  0  0  0  0  0  0  0  0  0  0  0
   36.4880   28.7790   35.5940 H   0  0  0  0  0  0  0  0  0  0  0  0
   35.2560   29.7830   33.4290 O   0  0  0  0  0  0  0  0  0  0  0  0
   35.0090   30.5330   34.5910 C   0  0  0  0  0  0  0  0  0  0  0  0
   35.8850   31.4110   35.2190 C   0  0  0  0  0  0  0  0  0  0  0  0
   35.4730   32.0500   36.3360 C   0  0  0  0  0  0  0  0  0  0  0  0
   34.1980   31.8080   36.8130 C   0  0  0  0  0  0  0  0  0  0  0  0
   33.3390   30.9260   36.1680 C   0  0  0  0  0  0  0  0  0  0  0  0
   33.7840   30.3070   35.0580 N   0  0  0  0  0  0  0  0  0  0  0  0
   36.8370   31.4670   34.7000 H   0  0  0  0  0  0  0  0  0  0  0  0
   36.1900   32.7260   36.7870 H   0  0  0  0  0  0  0  0  0  0  0  0
   33.9110   32.3520   37.7230 H   0  0  0  0  0  0  0  0  0  0  0  0
   31.9690   30.7010   36.7330 C   0  0  0  0  0  0  0  0  0  0  0  0
   31.7000   31.5760   37.3580 H   0  0  0  0  0  0  0  0  0  0  0  0
   31.2310   30.5160   35.9330 H   0  0  0  0  0  0  0  0  0  0  0  0
   32.0660   29.8270   37.4250 H   0  0  0  0  0  0  0  0  0  0  0  0
   38.2950   24.7700   33.8050 S   0  0  0  0  0  0  0  0  0  0  0  0
   38.5490   24.7750   35.6200 C   0  0  0  0  0  0  0  0  0  0  0  0
   37.6420   24.3260   36.0630 H   0  0  0  0  0  0  0  0  0  0  0  0
   38.6620   25.7880   36.0190 H   0  0  0  0  0  0  0  0  0  0  0  0
   39.6460   23.1680   37.0470 C   0  0  0  0  0  0  0  0  0  0  0  0
   39.7330   23.9120   35.8760 C   0  0  0  0  0  0  0  0  0  0  0  0
   40.8640   23.7800   35.1030 C   0  0  0  0  0  0  0  0  0  0  0  0
   40.8650   24.3890   34.2080 H   0  0  0  0  0  0  0  0  0  0  0  0
   41.8720   22.9260   35.4990 C   0  0  0  0  0  0  0  0  0  0  0  0
   42.7330   22.8830   34.8260 H   0  0  0  0  0  0  0  0  0  0  0  0
   41.7880   22.1880   36.6580 C   0  0  0  0  0  3  0  0  0  0  0  0
   40.6550   22.2960   37.4670 C   0  0  0  0  0  3  0  0  0  0  0  0
   37.6060   23.2900   38.6450 N   0  0  0  0  0  0  0  0  0  0  0  0
   38.5010   23.2330   37.9300 C   0  0  0  0  0  0  0  0  0  0  0  0
  1  2  1  0  0  0  0
  2  3  2  0  0  0  0
  3  8  1  0  0  0  0
  4  3  1  0  0  0  0
  5 23  1  0  0  0  0
  5  4  2  0  0  0  0
  6  1  2  0  0  0  0
  6  5  1  0  0  0  0
  7  1  1  0  0  0  0
  9  2  1  0  0  0  0
  9 10  1  0  0  0  0
 10 15  2  0  0  0  0
 10 11  1  0  0  0  0
 11 12  2  0  0  0  0
 12 17  1  0  0  0  0
 12 13  1  0  0  0  0
 13 18  1  0  0  0  0
 14 19  1  0  0  0  0
 14 13  2  0  0  0  0
 15 14  1  0  0  0  0
 16 11  1  0  0  0  0
 19 20  1  0  0  0  0
 19 22  1  0  0  0  0
 21 19  1  0  0  0  0
 23 24  1  0  0  0  0
 24 28  1  0  0  0  0
 24 26  1  0  0  0  0
 24 25  1  0  0  0  0
 27 34  1  0  0  0  0
 27 36  1  0  0  0  0
 28 27  2  0  0  0  0
 29 31  2  0  0  0  0
 29 28  1  0  0  0  0
 30 29  1  0  0  0  0
 31 33  1  0  0  0  0
 32 31  1  0  0  0  0
 33 34  2  0  0  0  0
 36 35  3  0  0  0  0
M  END
>  <minimizedAffinity>
-5.54557943

$$$$

 OpenBabel03262522253D

 36 38  0  0  0  0  0  0  0  0999 V2000
   37.9080   26.1510   31.5530 C   0  0  0  0  0  0  0  0  0  0  0  0
   36.8410   25.3280   31.1420 C   0  0  0  0  0  0  0  0  0  0  0  0
   35.5610   25.8830   31.1290 C   0  0  0  0  0  0  0  0  0  0  0  0
   35.4550   27.1770   31.5170 N   0  0  0  0  0  0  0  0  0  0  0  0
   36.4810   27.9100   31.8940 C   0  0  0  0  0  0  0  0  0  0  0  0
   37.7720   27.4180   31.9290 N   0  0  0  0  0  0  0  0  0  0  0  0
   38.9610   25.8230   31.6020 H   0  0  0  0  0  0  0  0  0  0  0  0
   34.7530   25.2310   30.8080 H   0  0  0  0  0  0  0  0  0  0  0  0
   37.1690   24.0570   30.7930 O   0  0  0  0  0  0  0  0  0  0  0  0
   36.6860   23.0050   31.5910 C   0  0  0  0  0  0  0  0  0  0  0  0
   35.6440   22.1370   31.2850 C   0  0  0  0  0  0  0  0  0  0  0  0
   35.3160   21.1790   32.1790 C   0  0  0  0  0  0  0  0  0  0  0  0
   36.0260   21.0960   33.3620 C   0  0  0  0  0  0  0  0  0  0  0  0
   37.0650   21.9760   33.6460 C   0  0  0  0  0  0  0  0  0  0  0  0
   37.3640   22.9180   32.7320 N   0  0  0  0  0  0  0  0  0  0  0  0
   35.2080   22.3600   30.3160 H   0  0  0  0  0  0  0  0  0  0  0  0
   34.5000   20.5250   31.8940 H   0  0  0  0  0  0  0  0  0  0  0  0
   35.7210   20.3000   34.0540 H   0  0  0  0  0  0  0  0  0  0  0  0
   37.7980   21.8390   34.9470 C   0  0  0  0  0  0  0  0  0  0  0  0
   37.6650   20.8040   35.3170 H   0  0  0  0  0  0  0  0  0  0  0  0
   38.8630   22.1110   34.8360 H   0  0  0  0  0  0  0  0  0  0  0  0
   37.2660   22.5110   35.6660 H   0  0  0  0  0  0  0  0  0  0  0  0
   35.8920   29.5830   32.3250 S   0  0  0  0  0  0  0  0  0  0  0  0
   34.4700   29.2760   33.4400 C   0  0  0  0  0  0  0  0  0  0  0  0
   34.5590   28.2280   33.7790 H   0  0  0  0  0  0  0  0  0  0  0  0
   33.5100   29.3910   32.9260 H   0  0  0  0  0  0  0  0  0  0  0  0
   33.4560   30.4580   35.2830 C   0  0  0  0  0  0  0  0  0  0  0  0
   34.6330   30.2080   34.5870 C   0  0  0  0  0  0  0  0  0  0  0  0
   35.7860   30.8270   35.0140 C   0  0  0  0  0  0  0  0  0  0  0  0
   36.6630   30.5880   34.4270 H   0  0  0  0  0  0  0  0  0  0  0  0
   35.7500   31.6680   36.1060 C   0  0  0  0  0  0  0  0  0  0  0  0
   36.7100   32.1170   36.3760 H   0  0  0  0  0  0  0  0  0  0  0  0
   34.5850   31.9170   36.7960 C   0  0  0  0  0  3  0  0  0  0  0  0
   33.3970   31.3070   36.3920 C   0  0  0  0  0  3  0  0  0  0  0  0
   31.1800   29.4020   34.6240 N   0  0  0  0  0  0  0  0  0  0  0  0
   32.1900   29.8580   34.9150 C   0  0  0  0  0  0  0  0  0  0  0  0
  1  7  1  0  0  0  0
  1  6  1  0  0  0  0
  2  1  2  0  0  0  0
  3  2  1  0  0  0  0
  3  4  2  0  0  0  0
  4  5  1  0  0  0  0
  5  6  2  0  0  0  0
  5 23  1  0  0  0  0
  8  3  1  0  0  0  0
  9  2  1  0  0  0  0
  9 10  1  0  0  0  0
 10 15  1  0  0  0  0
 11 10  2  0  0  0  0
 11 12  1  0  0  0  0
 12 13  2  0  0  0  0
 13 14  1  0  0  0  0
 13 18  1  0  0  0  0
 14 19  1  0  0  0  0
 15 14  2  0  0  0  0
 16 11  1  0  0  0  0
 17 12  1  0  0  0  0
 19 20  1  0  0  0  0
 19 22  1  0  0  0  0
 21 19  1  0  0  0  0
 23 24  1  0  0  0  0
 24 25  1  0  0  0  0
 24 28  1  0  0  0  0
 26 24  1  0  0  0  0
 27 34  1  0  0  0  0
 28 29  1  0  0  0  0
 28 27  2  0  0  0  0
 29 31  2  0  0  0  0
 30 29  1  0  0  0  0
 31 32  1  0  0  0  0
 31 33  1  0  0  0  0
 34 33  2  0  0  0  0
 35 36  3  0  0  0  0
 36 27  1  0  0  0  0
M  END
>  <minimizedAffinity>
-5.39599323

$$$$

 OpenBabel03262522253D

 36 38  0  0  0  0  0  0  0  0999 V2000
   37.6060   26.7510   32.4290 C   0  0  0  0  0  0  0  0  0  0  0  0
   37.9980   26.6040   33.7740 C   0  0  0  0  0  0  0  0  0  0  0  0
   37.3420   27.3810   34.7300 C   0  0  0  0  0  0  0  0  0  0  0  0
   36.3770   28.2170   34.2770 N   0  0  0  0  0  0  0  0  0  0  0  0
   36.0430   28.3220   33.0090 C   0  0  0  0  0  0  0  0  0  0  0  0
   36.6540   27.5810   32.0150 N   0  0  0  0  0  0  0  0  0  0  0  0
   38.0510   26.1910   31.5880 H   0  0  0  0  0  0  0  0  0  0  0  0
   37.6600   27.2510   35.7610 H   0  0  0  0  0  0  0  0  0  0  0  0
   38.9890   25.7070   34.0110 O   0  0  0  0  0  0  0  0  0  0  0  0
   38.6420   24.4680   34.5770 C   0  0  0  0  0  0  0  0  0  0  0  0
   38.1570   23.3510   33.9050 C   0  0  0  0  0  0  0  0  0  0  0  0
   37.8740   22.2380   34.6170 C   0  0  0  0  0  0  0  0  0  0  0  0
   38.0760   22.2500   35.9850 C   0  0  0  0  0  0  0  0  0  0  0  0
   38.5620   23.3790   36.6350 C   0  0  0  0  0  0  0  0  0  0  0  0
   38.8320   24.4700   35.8940 N   0  0  0  0  0  0  0  0  0  0  0  0
   38.0640   23.5340   32.8390 H   0  0  0  0  0  0  0  0  0  0  0  0
   37.5030   21.3940   34.0490 H   0  0  0  0  0  0  0  0  0  0  0  0
   37.8330   21.3220   36.5180 H   0  0  0  0  0  0  0  0  0  0  0  0
   38.7590   23.3350   38.1210 C   0  0  0  0  0  0  0  0  0  0  0  0
   38.8650   22.2750   38.4280 H   0  0  0  0  0  0  0  0  0  0  0  0
   39.6230   23.9490   38.4280 H   0  0  0  0  0  0  0  0  0  0  0  0
   37.8010   23.7060   38.5640 H   0  0  0  0  0  0  0  0  0  0  0  0
   34.7040   29.5520   32.8450 S   0  0  0  0  0  0  0  0  0  0  0  0
   35.3620   31.0350   33.6990 C   0  0  0  0  0  0  0  0  0  0  0  0
   35.1940   31.8880   33.0170 H   0  0  0  0  0  0  0  0  0  0  0  0
   36.4360   30.9570   33.8940 H   0  0  0  0  0  0  0  0  0  0  0  0
   35.0580   32.1400   35.8210 C   0  0  0  0  0  0  0  0  0  0  0  0
   34.5540   31.1940   34.9370 C   0  0  0  0  0  0  0  0  0  0  0  0
   33.4030   30.5250   35.2850 C   0  0  0  0  0  0  0  0  0  0  0  0
   33.0690   29.8030   34.5510 H   0  0  0  0  0  0  0  0  0  0  0  0
   32.7820   30.8020   36.4850 C   0  0  0  0  0  0  0  0  0  0  0  0
   31.8750   30.2240   36.6810 H   0  0  0  0  0  0  0  0  0  0  0  0
   33.2800   31.7390   37.3620 C   0  0  0  0  0  3  0  0  0  0  0  0
   34.4450   32.4370   37.0420 C   0  0  0  0  0  3  0  0  0  0  0  0
   37.2150   33.5050   35.3570 N   0  0  0  0  0  0  0  0  0  0  0  0
   36.2610   32.8980   35.5510 C   0  0  0  0  0  0  0  0  0  0  0  0
  1  2  1  0  0  0  0
  2  9  1  0  0  0  0
  2  3  2  0  0  0  0
  3  8  1  0  0  0  0
  4  3  1  0  0  0  0
  5  4  2  0  0  0  0
  6  1  2  0  0  0  0
  6  5  1  0  0  0  0
  7  1  1  0  0  0  0
  9 10  1  0  0  0  0
 10 15  1  0  0  0  0
 11 10  2  0  0  0  0
 11 12  1  0  0  0  0
 12 13  2  0  0  0  0
 13 18  1  0  0  0  0
 13 14  1  0  0  0  0
 14 19  1  0  0  0  0
 15 14  2  0  0  0  0
 16 11  1  0  0  0  0
 17 12  1  0  0  0  0
 19 21  1  0  0  0  0
 19 20  1  0  0  0  0
 19 22  1  0  0  0  0
 23  5  1  0  0  0  0
 23 24  1  0  0  0  0
 24 26  1  0  0  0  0
 24 28  1  0  0  0  0
 25 24  1  0  0  0  0
 27 34  1  0  0  0  0
 28 29  1  0  0  0  0
 28 27  2  0  0  0  0
 29 31  2  0  0  0  0
 30 29  1  0  0  0  0
 31 32  1  0  0  0  0
 31 33  1  0  0  0  0
 34 33  2  0  0  0  0
 35 36  3  0  0  0  0
 36 27  1  0  0  0  0
M  END
>  <minimizedAffinity>
-5.29677582

$$$$

 OpenBabel03262522253D

 36 38  0  0  0  0  0  0  0  0999 V2000
   36.8270   27.8400   33.1580 C   0  0  0  0  0  0  0  0  0  0  0  0
   35.9630   27.7320   32.0510 C   0  0  0  0  0  0  0  0  0  0  0  0
   35.8050   26.4730   31.4700 C   0  0  0  0  0  0  0  0  0  0  0  0
   36.5040   25.4540   32.0290 N   0  0  0  0  0  0  0  0  0  0  0  0
   37.3000   25.6010   33.0660 C   0  0  0  0  0  0  0  0  0  0  0  0
   37.4980   26.8210   33.6840 N   0  0  0  0  0  0  0  0  0  0  0  0
   37.0280   28.7820   33.6980 H   0  0  0  0  0  0  0  0  0  0  0  0
   35.1350   26.4130   30.6170 H   0  0  0  0  0  0  0  0  0  0  0  0
   35.3600   28.8820   31.6510 O   0  0  0  0  0  0  0  0  0  0  0  0
   36.1500   29.8610   31.0250 C   0  0  0  0  0  0  0  0  0  0  0  0
   36.8660   29.7240   29.8410 C   0  0  0  0  0  0  0  0  0  0  0  0
   37.5750   30.7800   29.3860 C   0  0  0  0  0  0  0  0  0  0  0  0
   37.5620   31.9570   30.1120 C   0  0  0  0  0  0  0  0  0  0  0  0
   36.8390   32.0710   31.2940 C   0  0  0  0  0  0  0  0  0  0  0  0
   36.1450   30.9980   31.7170 N   0  0  0  0  0  0  0  0  0  0  0  0
   36.7550   28.7300   29.4190 H   0  0  0  0  0  0  0  0  0  0  0  0
   38.1130   30.6250   28.4580 H   0  0  0  0  0  0  0  0  0  0  0  0
   38.1530   32.7860   29.6990 H   0  0  0  0  0  0  0  0  0  0  0  0
   36.8640   33.3710   32.0400 C   0  0  0  0  0  0  0  0  0  0  0  0
   37.1360   34.1770   31.3300 H   0  0  0  0  0  0  0  0  0  0  0  0
   35.9000   33.5630   32.5420 H   0  0  0  0  0  0  0  0  0  0  0  0
   37.7080   33.2840   32.7700 H   0  0  0  0  0  0  0  0  0  0  0  0
   38.0300   23.9830   33.4900 S   0  0  0  0  0  0  0  0  0  0  0  0
   39.5100   24.4150   34.4830 C   0  0  0  0  0  0  0  0  0  0  0  0
   39.6840   25.4950   34.3300 H   0  0  0  0  0  0  0  0  0  0  0  0
   40.4010   23.8720   34.1530 H   0  0  0  0  0  0  0  0  0  0  0  0
   39.9410   23.1700   36.5040 C   0  0  0  0  0  0  0  0  0  0  0  0
   39.1520   24.1420   35.9000 C   0  0  0  0  0  0  0  0  0  0  0  0
   38.1590   24.7320   36.6480 C   0  0  0  0  0  0  0  0  0  0  0  0
   37.5840   25.4780   36.1160 H   0  0  0  0  0  0  0  0  0  0  0  0
   37.9680   24.3510   37.9600 C   0  0  0  0  0  0  0  0  0  0  0  0
   37.1570   24.8690   38.4790 H   0  0  0  0  0  0  0  0  0  0  0  0
   38.7470   23.3870   38.5590 C   0  0  0  0  0  3  0  0  0  0  0  0
   39.7650   22.7690   37.8320 C   0  0  0  0  0  3  0  0  0  0  0  0
   41.8690   21.9700   35.2500 N   0  0  0  0  0  0  0  0  0  0  0  0
   41.0120   22.4900   35.8060 C   0  0  0  0  0  0  0  0  0  0  0  0
  1  6  1  0  0  0  0
  1  7  1  0  0  0  0
  2  1  2  0  0  0  0
  3  4  2  0  0  0  0
  3  2  1  0  0  0  0
  4  5  1  0  0  0  0
  5 23  1  0  0  0  0
  5  6  2  0  0  0  0
  8  3  1  0  0  0  0
  9  2  1  0  0  0  0
 10  9  1  0  0  0  0
 10 15  1  0  0  0  0
 11 10  2  0  0  0  0
 12 11  1  0  0  0  0
 12 13  2  0  0  0  0
 13 14  1  0  0  0  0
 14 15  2  0  0  0  0
 14 19  1  0  0  0  0
 16 11  1  0  0  0  0
 17 12  1  0  0  0  0
 18 13  1  0  0  0  0
 19 21  1  0  0  0  0
 19 22  1  0  0  0  0
 20 19  1  0  0  0  0
 23 24  1  0  0  0  0
 24 28  1  0  0  0  0
 25 24  1  0  0  0  0
 26 24  1  0  0  0  0
 27 34  1  0  0  0  0
 28 27  2  0  0  0  0
 28 29  1  0  0  0  0
 29 31  2  0  0  0  0
 30 29  1  0  0  0  0
 31 32  1  0  0  0  0
 31 33  1  0  0  0  0
 34 33  2  0  0  0  0
 35 36  3  0  0  0  0
 36 27  1  0  0  0  0
M  END
>  <minimizedAffinity>
-5.25478554

$$$$

 OpenBabel03262522253D

 36 38  0  0  0  0  0  0  0  0999 V2000
   36.3590   29.3840   31.8420 C   0  0  0  0  0  0  0  0  0  0  0  0
   35.7680   29.5350   33.1110 C   0  0  0  0  0  0  0  0  0  0  0  0
   36.0290   28.5560   34.0700 C   0  0  0  0  0  0  0  0  0  0  0  0
   36.8370   27.5350   33.6920 N   0  0  0  0  0  0  0  0  0  0  0  0
   37.3690   27.4340   32.4930 C   0  0  0  0  0  0  0  0  0  0  0  0
   37.1480   28.3700   31.5010 N   0  0  0  0  0  0  0  0  0  0  0  0
   36.2260   30.0940   31.0060 H   0  0  0  0  0  0  0  0  0  0  0  0
   35.5630   28.6920   35.0420 H   0  0  0  0  0  0  0  0  0  0  0  0
   34.9900   30.6360   33.2790 O   0  0  0  0  0  0  0  0  0  0  0  0
   34.7940   31.1160   34.5850 C   0  0  0  0  0  0  0  0  0  0  0  0
   35.6960   31.8480   35.3490 C   0  0  0  0  0  0  0  0  0  0  0  0
   35.3340   32.2280   36.5940 C   0  0  0  0  0  0  0  0  0  0  0  0
   34.0810   31.8750   37.0620 C   0  0  0  0  0  0  0  0  0  0  0  0
   33.1950   31.1430   36.2800 C   0  0  0  0  0  0  0  0  0  0  0  0
   33.5910   30.7820   35.0450 N   0  0  0  0  0  0  0  0  0  0  0  0
   36.6240   32.0240   34.8140 H   0  0  0  0  0  0  0  0  0  0  0  0
   36.0690   32.7990   37.1490 H   0  0  0  0  0  0  0  0  0  0  0  0
   33.8340   32.2090   38.0790 H   0  0  0  0  0  0  0  0  0  0  0  0
   31.8510   30.7880   36.8410 C   0  0  0  0  0  0  0  0  0  0  0  0
   31.6100   31.5060   37.6510 H   0  0  0  0  0  0  0  0  0  0  0  0
   31.0800   30.7720   36.0520 H   0  0  0  0  0  0  0  0  0  0  0  0
   31.9800   29.7870   37.3240 H   0  0  0  0  0  0  0  0  0  0  0  0
   38.3850   25.9200   32.4170 S   0  0  0  0  0  0  0  0  0  0  0  0
   38.0260   25.2320   30.7560 C   0  0  0  0  0  0  0  0  0  0  0  0
   38.9640   25.3080   30.1770 H   0  0  0  0  0  0  0  0  0  0  0  0
   37.2520   25.8010   30.2320 H   0  0  0  0  0  0  0  0  0  0  0  0
   36.2930   23.5860   31.0830 C   0  0  0  0  0  0  0  0  0  0  0  0
   37.6600   23.8060   30.9680 C   0  0  0  0  0  0  0  0  0  0  0  0
   38.5040   22.7230   31.0590 C   0  0  0  0  0  0  0  0  0  0  0  0
   39.5540   22.9670   30.9620 H   0  0  0  0  0  0  0  0  0  0  0  0
   37.9850   21.4610   31.2590 C   0  0  0  0  0  0  0  0  0  0  0  0
   38.7260   20.6600   31.3210 H   0  0  0  0  0  0  0  0  0  0  0  0
   36.6300   21.2420   31.3740 C   0  0  0  0  0  3  0  0  0  0  0  0
   35.7450   22.3160   31.2860 C   0  0  0  0  0  3  0  0  0  0  0  0
   34.5440   25.4990   30.9550 N   0  0  0  0  0  0  0  0  0  0  0  0
   35.3210   24.6560   31.0010 C   0  0  0  0  0  0  0  0  0  0  0  0
  1  2  1  0  0  0  0
  2  9  1  0  0  0  0
  2  3  2  0  0  0  0
  3  8  1  0  0  0  0
  4  3  1  0  0  0  0
  5  4  2  0  0  0  0
  6  1  2  0  0  0  0
  6  5  1  0  0  0  0
  7  1  1  0  0  0  0
  9 10  1  0  0  0  0
 10 15  2  0  0  0  0
 10 11  1  0  0  0  0
 11 12  2  0  0  0  0
 12 13  1  0  0  0  0
 12 17  1  0  0  0  0
 13 18  1  0  0  0  0
 14 19  1  0  0  0  0
 14 13  2  0  0  0  0
 15 14  1  0  0  0  0
 16 11  1  0  0  0  0
 19 22  1  0  0  0  0
 19 20  1  0  0  0  0
 21 19  1  0  0  0  0
 23  5  1  0  0  0  0
 24 28  1  0  0  0  0
 24 23  1  0  0  0  0
 25 24  1  0  0  0  0
 26 24  1  0  0  0  0
 27 34  1  0  0  0  0
 28 29  1  0  0  0  0
 28 27  2  0  0  0  0
 29 31  2  0  0  0  0
 30 29  1  0  0  0  0
 31 32  1  0  0  0  0
 31 33  1  0  0  0  0
 34 33  2  0  0  0  0
 35 36  3  0  0  0  0
 36 27  1  0  0  0  0
M  END
>  <minimizedAffinity>
-5.23884344

$$$$

 OpenBabel03262522253D

 36 38  0  0  0  0  0  0  0  0999 V2000
   35.9590   24.9010   31.3310 C   0  0  0  0  0  0  0  0  0  0  0  0
   36.6590   26.1230   31.2870 C   0  0  0  0  0  0  0  0  0  0  0  0
   37.8870   26.1920   31.9450 C   0  0  0  0  0  0  0  0  0  0  0  0
   38.3040   25.0660   32.5750 N   0  0  0  0  0  0  0  0  0  0  0  0
   37.6170   23.9440   32.5890 C   0  0  0  0  0  0  0  0  0  0  0  0
   36.3950   23.8130   31.9580 N   0  0  0  0  0  0  0  0  0  0  0  0
   34.9820   24.7280   30.8480 H   0  0  0  0  0  0  0  0  0  0  0  0
   38.4090   27.1440   31.8990 H   0  0  0  0  0  0  0  0  0  0  0  0
   36.0590   27.1290   30.5990 O   0  0  0  0  0  0  0  0  0  0  0  0
   36.0120   28.4020   31.1920 C   0  0  0  0  0  0  0  0  0  0  0  0
   36.6240   29.5610   30.7280 C   0  0  0  0  0  0  0  0  0  0  0  0
   36.4690   30.7030   31.4330 C   0  0  0  0  0  0  0  0  0  0  0  0
   35.7080   30.6770   32.5880 C   0  0  0  0  0  0  0  0  0  0  0  0
   35.1060   29.5060   33.0330 C   0  0  0  0  0  0  0  0  0  0  0  0
   35.2830   28.3870   32.3050 N   0  0  0  0  0  0  0  0  0  0  0  0
   37.1780   29.3830   29.8120 H   0  0  0  0  0  0  0  0  0  0  0  0
   36.9610   31.5800   31.0300 H   0  0  0  0  0  0  0  0  0  0  0  0
   35.6120   31.6310   33.1240 H   0  0  0  0  0  0  0  0  0  0  0  0
   34.2940   29.5380   34.2930 C   0  0  0  0  0  0  0  0  0  0  0  0
   33.9650   30.5810   34.4710 H   0  0  0  0  0  0  0  0  0  0  0  0
   33.4460   28.8340   34.2410 H   0  0  0  0  0  0  0  0  0  0  0  0
   35.0060   29.2780   35.1170 H   0  0  0  0  0  0  0  0  0  0  0  0
   38.5420   22.6910   33.5400 S   0  0  0  0  0  0  0  0  0  0  0  0
   39.7790   23.6710   34.4740 C   0  0  0  0  0  0  0  0  0  0  0  0
   39.7860   24.6780   34.0200 H   0  0  0  0  0  0  0  0  0  0  0  0
   40.7860   23.2490   34.3930 H   0  0  0  0  0  0  0  0  0  0  0  0
   39.9950   22.9350   36.7620 C   0  0  0  0  0  0  0  0  0  0  0  0
   39.2840   23.7360   35.8750 C   0  0  0  0  0  0  0  0  0  0  0  0
   38.2350   24.4790   36.3660 C   0  0  0  0  0  0  0  0  0  0  0  0
   37.7260   25.0770   35.6210 H   0  0  0  0  0  0  0  0  0  0  0  0
   37.9140   24.4140   37.7060 C   0  0  0  0  0  0  0  0  0  0  0  0
   37.0670   25.0350   38.0100 H   0  0  0  0  0  0  0  0  0  0  0  0
   38.6170   23.6220   38.5850 C   0  0  0  0  0  3  0  0  0  0  0  0
   39.6880   22.8550   38.1230 C   0  0  0  0  0  3  0  0  0  0  0  0
   42.0150   21.4810   36.0290 N   0  0  0  0  0  0  0  0  0  0  0  0
   41.1150   22.1160   36.3480 C   0  0  0  0  0  0  0  0  0  0  0  0
  1  6  1  0  0  0  0
  2  1  2  0  0  0  0
  2  3  1  0  0  0  0
  3  4  2  0  0  0  0
  4  5  1  0  0  0  0
  5 23  1  0  0  0  0
  6  5  2  0  0  0  0
  7  1  1  0  0  0  0
  8  3  1  0  0  0  0
  9 10  1  0  0  0  0
  9  2  1  0  0  0  0
 10 15  1  0  0  0  0
 11 10  2  0  0  0  0
 11 12  1  0  0  0  0
 12 13  2  0  0  0  0
 13 14  1  0  0  0  0
 13 18  1  0  0  0  0
 14 19  1  0  0  0  0
 15 14  2  0  0  0  0
 16 11  1  0  0  0  0
 17 12  1  0  0  0  0
 19 20  1  0  0  0  0
 19 22  1  0  0  0  0
 21 19  1  0  0  0  0
 23 24  1  0  0  0  0
 24 28  1  0  0  0  0
 25 24  1  0  0  0  0
 26 24  1  0  0  0  0
 27 34  1  0  0  0  0
 28 29  1  0  0  0  0
 28 27  2  0  0  0  0
 29 31  2  0  0  0  0
 30 29  1  0  0  0  0
 31 32  1  0  0  0  0
 31 33  1  0  0  0  0
 34 33  2  0  0  0  0
 35 36  3  0  0  0  0
 36 27  1  0  0  0  0
M  END
>  <minimizedAffinity>
-5.2363472

$$$$
