
 OpenBabel03272508193D

 32 34  0  0  0  0  0  0  0  0999 V2000
   37.2080   26.6230   33.7970 C   0  0  0  0  0  0  0  0  0  0  0  0
   36.5250   27.4450   32.8980 C   0  0  0  0  0  0  0  0  0  0  0  0
   36.1400   26.8110   31.7440 C   0  0  0  0  0  0  0  0  0  0  0  0
   36.4010   25.5020   31.5060 N   0  0  0  0  0  0  0  0  0  0  0  0
   37.0630   24.7370   32.3970 C   0  0  0  0  0  0  0  0  0  0  0  0
   37.4660   25.3000   33.5410 N   0  0  0  0  0  0  0  0  0  0  0  0
   35.6270   27.2430   30.9110 H   0  0  0  0  0  0  0  0  0  0  0  0
   37.2850   23.6930   32.2330 H   0  0  0  0  0  0  0  0  0  0  0  0
   37.5810   27.2460   35.1310 C   0  0  0  0  0  0  0  0  0  0  0  0
   38.1980   26.4950   36.1580 C   0  0  0  0  0  0  0  0  0  0  0  0
   39.1480   27.2430   35.2530 C   0  0  0  0  0  0  0  0  0  0  0  0
   37.2440   28.3220   35.2850 H   0  0  0  0  0  0  0  0  0  0  0  0
   38.2570   25.3780   36.0220 H   0  0  0  0  0  0  0  0  0  0  0  0
   38.1090   26.7720   37.2210 H   0  0  0  0  0  0  0  0  0  0  0  0
   39.5840   28.1360   35.7190 H   0  0  0  0  0  0  0  0  0  0  0  0
   39.7310   26.7280   34.5050 H   0  0  0  0  0  0  0  0  0  0  0  0
   36.2670   28.8510   33.1160 C   0  0  0  0  0  0  0  0  0  0  0  0
   36.5450   29.4150   32.2030 H   0  0  0  0  0  0  0  0  0  0  0  0
   36.9640   29.1460   33.9680 H   0  0  0  0  0  0  0  0  0  0  0  0
   34.9320   29.2980   33.5510 C   0  0  0  0  0  0  0  0  0  0  0  0
   34.3100   28.4070   33.8730 H   0  0  0  0  0  0  0  0  0  0  0  0
   34.3290   29.6960   32.6830 H   0  0  0  0  0  0  0  0  0  0  0  0
   33.5620   30.3040   35.2200 C   0  0  0  0  0  0  0  0  0  0  0  0
   34.8540   30.2380   34.6770 C   0  0  0  0  0  0  0  0  0  0  0  0
   35.7480   31.0540   35.3290 C   0  0  0  0  0  0  0  0  0  0  0  0
   36.7460   30.9910   34.9270 H   0  0  0  0  0  0  0  0  0  0  0  0
   35.4850   31.8740   36.3980 C   0  0  0  0  0  0  0  0  0  0  0  0
   36.2970   32.4390   36.7800 H   0  0  0  0  0  0  0  0  0  0  0  0
   34.2060   31.9170   36.9060 C   0  0  0  0  0  3  0  0  0  0  0  0
   33.2510   31.1260   36.3080 C   0  0  0  0  0  3  0  0  0  0  0  0
   31.4930   28.9520   34.3810 N   0  0  0  0  0  0  0  0  0  0  0  0
   32.4160   29.5410   34.7510 C   0  0  0  0  0  0  0  0  0  0  0  0
  1  9  1  0  0  0  0
  2 17  1  0  0  0  0
  2  1  2  0  0  0  0
  3  2  1  0  0  0  0
  4  3  2  0  0  0  0
  4  5  1  0  0  0  0
  5  6  2  0  0  0  0
  6  1  1  0  0  0  0
  7  3  1  0  0  0  0
  8  5  1  0  0  0  0
  9 11  1  0  0  0  0
  9 12  1  0  0  0  0
  9 10  1  0  0  0  0
 10 14  1  0  0  0  0
 11 15  1  0  0  0  0
 11 10  1  0  0  0  0
 13 10  1  0  0  0  0
 16 11  1  0  0  0  0
 17 20  1  0  0  0  0
 17 19  1  0  0  0  0
 18 17  1  0  0  0  0
 20 21  1  0  0  0  0
 20 24  1  0  0  0  0
 22 20  1  0  0  0  0
 23 30  1  0  0  0  0
 24 23  2  0  0  0  0
 24 25  1  0  0  0  0
 25 27  2  0  0  0  0
 26 25  1  0  0  0  0
 27 28  1  0  0  0  0
 27 29  1  0  0  0  0
 30 29  2  0  0  0  0
 31 32  3  0  0  0  0
 32 23  1  0  0  0  0
M  END
>  <minimizedAffinity>
-5.12210131

$$$$

 OpenBabel03272508193D

 32 34  0  0  0  0  0  0  0  0999 V2000
   38.1250   25.1110   36.4270 C   0  0  0  0  0  0  0  0  0  0  0  0
   38.2750   23.7790   36.0340 C   0  0  0  0  0  0  0  0  0  0  0  0
   38.2970   22.8890   37.0780 C   0  0  0  0  0  0  0  0  0  0  0  0
   38.1820   23.2750   38.3720 N   0  0  0  0  0  0  0  0  0  0  0  0
   38.0380   24.5710   38.7160 C   0  0  0  0  0  0  0  0  0  0  0  0
   38.0100   25.4860   37.7420 N   0  0  0  0  0  0  0  0  0  0  0  0
   38.4230   21.8280   37.0180 H   0  0  0  0  0  0  0  0  0  0  0  0
   37.9440   24.9070   39.7380 H   0  0  0  0  0  0  0  0  0  0  0  0
   38.0040   26.1340   35.3100 C   0  0  0  0  0  0  0  0  0  0  0  0
   38.0090   27.5240   35.5700 C   0  0  0  0  0  0  0  0  0  0  0  0
   39.3550   26.9310   35.2270 C   0  0  0  0  0  0  0  0  0  0  0  0
   37.8090   25.7100   34.2730 H   0  0  0  0  0  0  0  0  0  0  0  0
   37.9410   27.8530   36.6460 H   0  0  0  0  0  0  0  0  0  0  0  0
   37.5320   28.2480   34.8910 H   0  0  0  0  0  0  0  0  0  0  0  0
   39.6940   27.1740   34.2120 H   0  0  0  0  0  0  0  0  0  0  0  0
   40.1060   26.7710   35.9860 H   0  0  0  0  0  0  0  0  0  0  0  0
   38.4360   23.3480   34.6640 C   0  0  0  0  0  0  0  0  0  0  0  0
   39.4080   23.7190   34.2790 H   0  0  0  0  0  0  0  0  0  0  0  0
   37.5870   23.8560   34.0970 H   0  0  0  0  0  0  0  0  0  0  0  0
   38.3150   21.9210   34.3200 C   0  0  0  0  0  0  0  0  0  0  0  0
   37.9450   21.3350   35.2160 H   0  0  0  0  0  0  0  0  0  0  0  0
   39.3280   21.4530   34.1430 H   0  0  0  0  0  0  0  0  0  0  0  0
   36.1870   21.0450   33.7030 C   0  0  0  0  0  0  0  0  0  0  0  0
   37.4060   21.5500   33.2270 C   0  0  0  0  0  0  0  0  0  0  0  0
   37.4630   21.5950   31.8540 C   0  0  0  0  0  0  0  0  0  0  0  0
   38.3910   22.0010   31.4840 H   0  0  0  0  0  0  0  0  0  0  0  0
   36.4830   21.2060   30.9760 C   0  0  0  0  0  0  0  0  0  0  0  0
   36.6960   21.3090   29.9430 H   0  0  0  0  0  0  0  0  0  0  0  0
   35.2980   20.7120   31.4760 C   0  0  0  0  0  3  0  0  0  0  0  0
   35.1620   20.6370   32.8440 C   0  0  0  0  0  3  0  0  0  0  0  0
   35.5330   20.7690   36.2150 N   0  0  0  0  0  0  0  0  0  0  0  0
   35.8310   20.8980   35.1060 C   0  0  0  0  0  0  0  0  0  0  0  0
  1  6  1  0  0  0  0
  2  1  2  0  0  0  0
  2  3  1  0  0  0  0
  3  4  2  0  0  0  0
  4  5  1  0  0  0  0
  5  8  1  0  0  0  0
  6  5  2  0  0  0  0
  7  3  1  0  0  0  0
  9 10  1  0  0  0  0
  9  1  1  0  0  0  0
 10 13  1  0  0  0  0
 11  9  1  0  0  0  0
 11 10  1  0  0  0  0
 11 16  1  0  0  0  0
 12  9  1  0  0  0  0
 14 10  1  0  0  0  0
 15 11  1  0  0  0  0
 17  2  1  0  0  0  0
 18 17  1  0  0  0  0
 19 17  1  0  0  0  0
 20 17  1  0  0  0  0
 20 21  1  0  0  0  0
 22 20  1  0  0  0  0
 23 32  1  0  0  0  0
 24 23  1  0  0  0  0
 24 20  1  0  0  0  0
 25 24  2  0  0  0  0
 26 25  1  0  0  0  0
 27 29  2  0  0  0  0
 27 25  1  0  0  0  0
 28 27  1  0  0  0  0
 29 30  1  0  0  0  0
 30 23  2  0  0  0  0
 32 31  3  0  0  0  0
M  END
>  <minimizedAffinity>
-5.03476429

$$$$

 OpenBabel03272508193D

 32 34  0  0  0  0  0  0  0  0999 V2000
   39.0960   25.1160   35.7370 C   0  0  0  0  0  0  0  0  0  0  0  0
   39.1420   26.4490   35.3210 C   0  0  0  0  0  0  0  0  0  0  0  0
   40.3190   26.8030   34.7110 C   0  0  0  0  0  0  0  0  0  0  0  0
   41.3410   25.9310   34.5310 N   0  0  0  0  0  0  0  0  0  0  0  0
   41.2630   24.6500   34.9460 C   0  0  0  0  0  0  0  0  0  0  0  0
   40.1400   24.2460   35.5480 N   0  0  0  0  0  0  0  0  0  0  0  0
   40.5850   27.7680   34.3340 H   0  0  0  0  0  0  0  0  0  0  0  0
   42.0620   23.9350   34.8160 H   0  0  0  0  0  0  0  0  0  0  0  0
   37.7840   24.6430   36.3380 C   0  0  0  0  0  0  0  0  0  0  0  0
   37.6440   23.3520   36.8970 C   0  0  0  0  0  0  0  0  0  0  0  0
   37.9960   24.4420   37.8820 C   0  0  0  0  0  0  0  0  0  0  0  0
   36.9020   25.3510   36.2180 H   0  0  0  0  0  0  0  0  0  0  0  0
   38.4880   22.6210   36.7390 H   0  0  0  0  0  0  0  0  0  0  0  0
   36.6700   22.8420   36.9590 H   0  0  0  0  0  0  0  0  0  0  0  0
   37.1530   24.7480   38.5150 H   0  0  0  0  0  0  0  0  0  0  0  0
   38.9920   24.5280   38.2900 H   0  0  0  0  0  0  0  0  0  0  0  0
   38.0790   27.4050   35.5340 C   0  0  0  0  0  0  0  0  0  0  0  0
   38.4990   28.4300   35.4930 H   0  0  0  0  0  0  0  0  0  0  0  0
   37.7040   27.1930   36.5900 H   0  0  0  0  0  0  0  0  0  0  0  0
   36.8700   27.3640   34.6920 C   0  0  0  0  0  0  0  0  0  0  0  0
   36.0480   27.9870   35.1610 H   0  0  0  0  0  0  0  0  0  0  0  0
   36.4050   26.3350   34.6900 H   0  0  0  0  0  0  0  0  0  0  0  0
   36.0690   28.8970   33.0540 C   0  0  0  0  0  0  0  0  0  0  0  0
   36.9750   27.8580   33.3130 C   0  0  0  0  0  0  0  0  0  0  0  0
   37.7600   27.5530   32.2250 C   0  0  0  0  0  0  0  0  0  0  0  0
   38.4700   26.7680   32.4260 H   0  0  0  0  0  0  0  0  0  0  0  0
   37.7200   28.1480   30.9890 C   0  0  0  0  0  0  0  0  0  0  0  0
   38.4000   27.7850   30.2600 H   0  0  0  0  0  0  0  0  0  0  0  0
   36.8170   29.1630   30.7660 C   0  0  0  0  0  3  0  0  0  0  0  0
   35.9960   29.5300   31.8090 C   0  0  0  0  0  3  0  0  0  0  0  0
   34.3950   29.8900   34.7940 N   0  0  0  0  0  0  0  0  0  0  0  0
   35.1270   29.4480   34.0160 C   0  0  0  0  0  0  0  0  0  0  0  0
  1  9  1  0  0  0  0
  2 17  1  0  0  0  0
  2  1  2  0  0  0  0
  3  2  1  0  0  0  0
  4  3  2  0  0  0  0
  4  5  1  0  0  0  0
  5  6  2  0  0  0  0
  6  1  1  0  0  0  0
  7  3  1  0  0  0  0
  8  5  1  0  0  0  0
  9 10  1  0  0  0  0
  9 11  1  0  0  0  0
 10 14  1  0  0  0  0
 10 11  1  0  0  0  0
 11 16  1  0  0  0  0
 11 15  1  0  0  0  0
 12  9  1  0  0  0  0
 13 10  1  0  0  0  0
 17 19  1  0  0  0  0
 18 17  1  0  0  0  0
 20 21  1  0  0  0  0
 20 17  1  0  0  0  0
 22 20  1  0  0  0  0
 23 24  1  0  0  0  0
 23 32  1  0  0  0  0
 24 20  1  0  0  0  0
 25 26  1  0  0  0  0
 25 24  2  0  0  0  0
 27 25  1  0  0  0  0
 28 27  1  0  0  0  0
 29 27  2  0  0  0  0
 29 30  1  0  0  0  0
 30 23  2  0  0  0  0
 32 31  3  0  0  0  0
M  END
>  <minimizedAffinity>
-4.95934772

$$$$

 OpenBabel03272508193D

 32 34  0  0  0  0  0  0  0  0999 V2000
   37.0310   26.9540   33.9740 C   0  0  0  0  0  0  0  0  0  0  0  0
   36.3500   28.1160   33.6020 C   0  0  0  0  0  0  0  0  0  0  0  0
   35.7900   28.0580   32.3510 C   0  0  0  0  0  0  0  0  0  0  0  0
   35.8910   26.9670   31.5530 N   0  0  0  0  0  0  0  0  0  0  0  0
   36.5560   25.8610   31.9440 C   0  0  0  0  0  0  0  0  0  0  0  0
   37.1250   25.8580   33.1550 N   0  0  0  0  0  0  0  0  0  0  0  0
   35.2440   28.8310   31.8530 H   0  0  0  0  0  0  0  0  0  0  0  0
   36.6530   24.9780   31.3300 H   0  0  0  0  0  0  0  0  0  0  0  0
   37.5950   26.9260   35.3840 C   0  0  0  0  0  0  0  0  0  0  0  0
   38.4310   25.8760   35.8300 C   0  0  0  0  0  0  0  0  0  0  0  0
   39.1560   27.0860   35.2900 C   0  0  0  0  0  0  0  0  0  0  0  0
   37.2230   27.7440   36.0810 H   0  0  0  0  0  0  0  0  0  0  0  0
   38.5360   24.9740   35.1620 H   0  0  0  0  0  0  0  0  0  0  0  0
   38.5160   25.6070   36.8950 H   0  0  0  0  0  0  0  0  0  0  0  0
   39.6110   27.7080   36.0720 H   0  0  0  0  0  0  0  0  0  0  0  0
   39.6270   27.0700   34.3200 H   0  0  0  0  0  0  0  0  0  0  0  0
   36.2600   29.3030   34.4220 C   0  0  0  0  0  0  0  0  0  0  0  0
   37.2520   29.7960   34.4560 H   0  0  0  0  0  0  0  0  0  0  0  0
   35.9930   28.9200   35.4620 H   0  0  0  0  0  0  0  0  0  0  0  0
   35.2430   30.3280   34.1270 C   0  0  0  0  0  0  0  0  0  0  0  0
   34.5970   29.9960   33.2570 H   0  0  0  0  0  0  0  0  0  0  0  0
   35.7140   31.2690   33.7170 H   0  0  0  0  0  0  0  0  0  0  0  0
   34.7050   31.8000   35.9210 C   0  0  0  0  0  0  0  0  0  0  0  0
   34.2900   30.6780   35.1890 C   0  0  0  0  0  0  0  0  0  0  0  0
   33.0860   30.1750   35.6230 C   0  0  0  0  0  0  0  0  0  0  0  0
   32.7550   29.3230   35.0510 H   0  0  0  0  0  0  0  0  0  0  0  0
   32.3160   30.6570   36.6520 C   0  0  0  0  0  0  0  0  0  0  0  0
   31.4110   30.1430   36.8540 H   0  0  0  0  0  0  0  0  0  0  0  0
   32.7520   31.7590   37.3530 C   0  0  0  0  0  3  0  0  0  0  0  0
   33.9510   32.3240   36.9760 C   0  0  0  0  0  3  0  0  0  0  0  0
   36.8920   33.1510   35.4660 N   0  0  0  0  0  0  0  0  0  0  0  0
   35.9250   32.5550   35.6790 C   0  0  0  0  0  0  0  0  0  0  0  0
  1  9  1  0  0  0  0
  2  1  1  0  0  0  0
  2 17  1  0  0  0  0
  3  2  2  0  0  0  0
  4  5  2  0  0  0  0
  4  3  1  0  0  0  0
  5  6  1  0  0  0  0
  6  1  2  0  0  0  0
  7  3  1  0  0  0  0
  8  5  1  0  0  0  0
  9 10  1  0  0  0  0
  9 12  1  0  0  0  0
 10 14  1  0  0  0  0
 11  9  1  0  0  0  0
 11 10  1  0  0  0  0
 11 15  1  0  0  0  0
 13 10  1  0  0  0  0
 16 11  1  0  0  0  0
 17 18  1  0  0  0  0
 17 19  1  0  0  0  0
 20 17  1  0  0  0  0
 20 24  1  0  0  0  0
 21 20  1  0  0  0  0
 22 20  1  0  0  0  0
 23 30  1  0  0  0  0
 24 25  1  0  0  0  0
 24 23  2  0  0  0  0
 25 27  2  0  0  0  0
 26 25  1  0  0  0  0
 27 28  1  0  0  0  0
 27 29  1  0  0  0  0
 30 29  2  0  0  0  0
 31 32  3  0  0  0  0
 32 23  1  0  0  0  0
M  END
>  <minimizedAffinity>
-4.95528221

$$$$

 OpenBabel03272508193D

 32 34  0  0  0  0  0  0  0  0999 V2000
   36.2230   22.2870   32.2770 C   0  0  0  0  0  0  0  0  0  0  0  0
   37.4250   22.6840   32.8680 C   0  0  0  0  0  0  0  0  0  0  0  0
   37.8060   23.9640   32.5540 C   0  0  0  0  0  0  0  0  0  0  0  0
   37.0750   24.7660   31.7420 N   0  0  0  0  0  0  0  0  0  0  0  0
   35.9180   24.3510   31.1870 C   0  0  0  0  0  0  0  0  0  0  0  0
   35.4950   23.1110   31.4560 N   0  0  0  0  0  0  0  0  0  0  0  0
   38.6930   24.4690   32.8720 H   0  0  0  0  0  0  0  0  0  0  0  0
   35.3160   24.9680   30.5370 H   0  0  0  0  0  0  0  0  0  0  0  0
   35.7050   20.9120   32.6600 C   0  0  0  0  0  0  0  0  0  0  0  0
   34.5590   20.3510   32.0500 C   0  0  0  0  0  0  0  0  0  0  0  0
   35.8750   19.9610   31.4210 C   0  0  0  0  0  0  0  0  0  0  0  0
   36.2350   20.4100   33.5320 H   0  0  0  0  0  0  0  0  0  0  0  0
   33.9420   21.0210   31.3860 H   0  0  0  0  0  0  0  0  0  0  0  0
   33.9380   19.5930   32.5540 H   0  0  0  0  0  0  0  0  0  0  0  0
   36.1850   18.9340   31.6560 H   0  0  0  0  0  0  0  0  0  0  0  0
   36.1910   20.3800   30.4780 H   0  0  0  0  0  0  0  0  0  0  0  0
   38.2380   21.8330   33.7080 C   0  0  0  0  0  0  0  0  0  0  0  0
   38.6840   21.0310   33.0860 H   0  0  0  0  0  0  0  0  0  0  0  0
   37.5060   21.3720   34.4510 H   0  0  0  0  0  0  0  0  0  0  0  0
   39.3010   22.4190   34.5420 C   0  0  0  0  0  0  0  0  0  0  0  0
   39.7480   23.3220   34.0250 H   0  0  0  0  0  0  0  0  0  0  0  0
   40.1940   21.7310   34.6140 H   0  0  0  0  0  0  0  0  0  0  0  0
   39.8890   22.5290   36.8480 C   0  0  0  0  0  0  0  0  0  0  0  0
   38.9400   22.8960   35.8840 C   0  0  0  0  0  0  0  0  0  0  0  0
   37.9000   23.6260   36.4110 C   0  0  0  0  0  0  0  0  0  0  0  0
   37.1780   23.9260   35.6700 H   0  0  0  0  0  0  0  0  0  0  0  0
   37.7360   23.9930   37.7230 C   0  0  0  0  0  0  0  0  0  0  0  0
   36.8700   24.5590   37.9580 H   0  0  0  0  0  0  0  0  0  0  0  0
   38.6850   23.6150   38.6460 C   0  0  0  0  0  3  0  0  0  0  0  0
   39.7600   22.8820   38.1960 C   0  0  0  0  0  3  0  0  0  0  0  0
   42.0780   21.1860   36.3800 N   0  0  0  0  0  0  0  0  0  0  0  0
   41.1030   21.7710   36.5840 C   0  0  0  0  0  0  0  0  0  0  0  0
  1  9  1  0  0  0  0
  1  2  1  0  0  0  0
  2 17  1  0  0  0  0
  3  2  2  0  0  0  0
  3  7  1  0  0  0  0
  4  3  1  0  0  0  0
  5  6  1  0  0  0  0
  5  4  2  0  0  0  0
  6  1  2  0  0  0  0
  8  5  1  0  0  0  0
  9 12  1  0  0  0  0
 10 14  1  0  0  0  0
 10  9  1  0  0  0  0
 11 15  1  0  0  0  0
 11 10  1  0  0  0  0
 11  9  1  0  0  0  0
 13 10  1  0  0  0  0
 16 11  1  0  0  0  0
 17 19  1  0  0  0  0
 17 20  1  0  0  0  0
 18 17  1  0  0  0  0
 20 22  1  0  0  0  0
 20 24  1  0  0  0  0
 21 20  1  0  0  0  0
 23 30  1  0  0  0  0
 24 25  1  0  0  0  0
 24 23  2  0  0  0  0
 25 27  2  0  0  0  0
 26 25  1  0  0  0  0
 27 28  1  0  0  0  0
 27 29  1  0  0  0  0
 30 29  2  0  0  0  0
 31 32  3  0  0  0  0
 32 23  1  0  0  0  0
M  END
>  <minimizedAffinity>
-4.86344957

$$$$

 OpenBabel03272508193D

 32 34  0  0  0  0  0  0  0  0999 V2000
   38.3470   24.9690   35.8970 C   0  0  0  0  0  0  0  0  0  0  0  0
   38.6510   23.8060   35.1840 C   0  0  0  0  0  0  0  0  0  0  0  0
   38.6960   22.6740   35.9580 C   0  0  0  0  0  0  0  0  0  0  0  0
   38.4640   22.6900   37.2930 N   0  0  0  0  0  0  0  0  0  0  0  0
   38.1730   23.8310   37.9500 C   0  0  0  0  0  0  0  0  0  0  0  0
   38.1150   24.9680   37.2490 N   0  0  0  0  0  0  0  0  0  0  0  0
   38.9290   21.6810   35.6350 H   0  0  0  0  0  0  0  0  0  0  0  0
   37.9840   23.8730   39.0120 H   0  0  0  0  0  0  0  0  0  0  0  0
   38.1940   26.2390   35.0790 C   0  0  0  0  0  0  0  0  0  0  0  0
   38.1380   27.5150   35.6880 C   0  0  0  0  0  0  0  0  0  0  0  0
   39.5110   27.0820   35.2320 C   0  0  0  0  0  0  0  0  0  0  0  0
   38.0280   26.0920   33.9630 H   0  0  0  0  0  0  0  0  0  0  0  0
   38.0450   27.5520   36.8110 H   0  0  0  0  0  0  0  0  0  0  0  0
   37.6380   28.3710   35.2090 H   0  0  0  0  0  0  0  0  0  0  0  0
   39.8500   27.5920   34.3210 H   0  0  0  0  0  0  0  0  0  0  0  0
   40.2600   26.7600   35.9390 H   0  0  0  0  0  0  0  0  0  0  0  0
   38.9370   23.7710   33.7680 C   0  0  0  0  0  0  0  0  0  0  0  0
   39.5950   22.9060   33.5520 H   0  0  0  0  0  0  0  0  0  0  0  0
   39.5040   24.7380   33.5620 H   0  0  0  0  0  0  0  0  0  0  0  0
   37.8320   23.7690   32.7920 C   0  0  0  0  0  0  0  0  0  0  0  0
   38.1820   24.2110   31.8090 H   0  0  0  0  0  0  0  0  0  0  0  0
   37.0180   24.4920   33.0920 H   0  0  0  0  0  0  0  0  0  0  0  0
   36.0760   22.6290   31.6570 C   0  0  0  0  0  0  0  0  0  0  0  0
   37.2340   22.4770   32.4330 C   0  0  0  0  0  0  0  0  0  0  0  0
   37.5490   21.1580   32.6650 C   0  0  0  0  0  0  0  0  0  0  0  0
   38.4500   21.0370   33.2450 H   0  0  0  0  0  0  0  0  0  0  0  0
   36.8580   20.0570   32.2260 C   0  0  0  0  0  0  0  0  0  0  0  0
   37.2440   19.1080   32.5000 H   0  0  0  0  0  0  0  0  0  0  0  0
   35.7230   20.2410   31.4680 C   0  0  0  0  0  3  0  0  0  0  0  0
   35.3410   21.5340   31.1890 C   0  0  0  0  0  3  0  0  0  0  0  0
   35.0580   24.9050   30.8820 N   0  0  0  0  0  0  0  0  0  0  0  0
   35.5100   23.9020   31.2360 C   0  0  0  0  0  0  0  0  0  0  0  0
  1  6  1  0  0  0  0
  2  1  2  0  0  0  0
  2  3  1  0  0  0  0
  3  4  2  0  0  0  0
  4  5  1  0  0  0  0
  5  8  1  0  0  0  0
  6  5  2  0  0  0  0
  7  3  1  0  0  0  0
  9 11  1  0  0  0  0
  9 10  1  0  0  0  0
  9  1  1  0  0  0  0
 10 13  1  0  0  0  0
 11 10  1  0  0  0  0
 11 16  1  0  0  0  0
 12  9  1  0  0  0  0
 14 10  1  0  0  0  0
 15 11  1  0  0  0  0
 17  2  1  0  0  0  0
 18 17  1  0  0  0  0
 19 17  1  0  0  0  0
 20 22  1  0  0  0  0
 20 17  1  0  0  0  0
 21 20  1  0  0  0  0
 23 24  1  0  0  0  0
 24 25  2  0  0  0  0
 24 20  1  0  0  0  0
 25 26  1  0  0  0  0
 27 28  1  0  0  0  0
 27 25  1  0  0  0  0
 29 27  2  0  0  0  0
 30 29  1  0  0  0  0
 30 23  2  0  0  0  0
 31 32  3  0  0  0  0
 32 23  1  0  0  0  0
M  END
>  <minimizedAffinity>
-4.81339121

$$$$

 OpenBabel03272508193D

 32 34  0  0  0  0  0  0  0  0999 V2000
   39.9180   26.0020   34.9820 C   0  0  0  0  0  0  0  0  0  0  0  0
   38.6850   26.2650   35.5840 C   0  0  0  0  0  0  0  0  0  0  0  0
   38.1660   25.2020   36.2790 C   0  0  0  0  0  0  0  0  0  0  0  0
   38.8000   24.0070   36.3700 N   0  0  0  0  0  0  0  0  0  0  0  0
   39.9900   23.7880   35.7760 C   0  0  0  0  0  0  0  0  0  0  0  0
   40.5460   24.7870   35.0830 N   0  0  0  0  0  0  0  0  0  0  0  0
   37.2310   25.1650   36.7990 H   0  0  0  0  0  0  0  0  0  0  0  0
   40.5170   22.8470   35.8320 H   0  0  0  0  0  0  0  0  0  0  0  0
   40.5840   27.1690   34.2730 C   0  0  0  0  0  0  0  0  0  0  0  0
   41.9130   27.0900   33.7970 C   0  0  0  0  0  0  0  0  0  0  0  0
   40.8480   26.7510   32.7820 C   0  0  0  0  0  0  0  0  0  0  0  0
   39.9840   28.1350   34.2410 H   0  0  0  0  0  0  0  0  0  0  0  0
   42.5230   26.1930   34.1020 H   0  0  0  0  0  0  0  0  0  0  0  0
   42.5420   27.9850   33.6640 H   0  0  0  0  0  0  0  0  0  0  0  0
   40.6850   27.5410   32.0380 H   0  0  0  0  0  0  0  0  0  0  0  0
   40.6630   25.7300   32.4830 H   0  0  0  0  0  0  0  0  0  0  0  0
   37.9740   27.5190   35.4700 C   0  0  0  0  0  0  0  0  0  0  0  0
   38.6640   28.2900   35.0730 H   0  0  0  0  0  0  0  0  0  0  0  0
   37.6840   27.7870   36.5390 H   0  0  0  0  0  0  0  0  0  0  0  0
   36.7140   27.5860   34.7100 C   0  0  0  0  0  0  0  0  0  0  0  0
   35.9920   28.2970   35.2170 H   0  0  0  0  0  0  0  0  0  0  0  0
   36.1500   26.6090   34.7620 H   0  0  0  0  0  0  0  0  0  0  0  0
   35.9520   29.1580   33.0900 C   0  0  0  0  0  0  0  0  0  0  0  0
   36.7750   28.0450   33.3160 C   0  0  0  0  0  0  0  0  0  0  0  0
   37.4570   27.6490   32.1880 C   0  0  0  0  0  0  0  0  0  0  0  0
   38.1040   26.8060   32.3630 H   0  0  0  0  0  0  0  0  0  0  0  0
   37.3910   28.2240   30.9440 C   0  0  0  0  0  0  0  0  0  0  0  0
   37.9870   27.7880   30.1830 H   0  0  0  0  0  0  0  0  0  0  0  0
   36.5720   29.3140   30.7540 C   0  0  0  0  0  3  0  0  0  0  0  0
   35.8560   29.7730   31.8370 C   0  0  0  0  0  3  0  0  0  0  0  0
   34.4900   30.3280   34.9090 N   0  0  0  0  0  0  0  0  0  0  0  0
   35.1280   29.8090   34.0960 C   0  0  0  0  0  0  0  0  0  0  0  0
  1  6  2  0  0  0  0
  1  2  1  0  0  0  0
  2  3  2  0  0  0  0
  3  4  1  0  0  0  0
  3  7  1  0  0  0  0
  5  8  1  0  0  0  0
  5  4  2  0  0  0  0
  6  5  1  0  0  0  0
  9  1  1  0  0  0  0
 10 13  1  0  0  0  0
 10  9  1  0  0  0  0
 11 10  1  0  0  0  0
 11  9  1  0  0  0  0
 12  9  1  0  0  0  0
 14 10  1  0  0  0  0
 15 11  1  0  0  0  0
 16 11  1  0  0  0  0
 17  2  1  0  0  0  0
 17 19  1  0  0  0  0
 18 17  1  0  0  0  0
 20 22  1  0  0  0  0
 20 21  1  0  0  0  0
 20 17  1  0  0  0  0
 23 24  1  0  0  0  0
 23 32  1  0  0  0  0
 24 20  1  0  0  0  0
 25 26  1  0  0  0  0
 25 24  2  0  0  0  0
 27 25  1  0  0  0  0
 28 27  1  0  0  0  0
 29 27  2  0  0  0  0
 29 30  1  0  0  0  0
 30 23  2  0  0  0  0
 32 31  3  0  0  0  0
M  END
>  <minimizedAffinity>
-4.76758003

$$$$

 OpenBabel03272508193D

 32 34  0  0  0  0  0  0  0  0999 V2000
   34.3940   30.9590   34.0960 C   0  0  0  0  0  0  0  0  0  0  0  0
   34.5180   29.9180   33.1730 C   0  0  0  0  0  0  0  0  0  0  0  0
   33.3260   29.3350   32.8260 C   0  0  0  0  0  0  0  0  0  0  0  0
   32.1370   29.7410   33.3350 N   0  0  0  0  0  0  0  0  0  0  0  0
   32.0530   30.7500   34.2260 C   0  0  0  0  0  0  0  0  0  0  0  0
   33.1830   31.3570   34.6040 N   0  0  0  0  0  0  0  0  0  0  0  0
   33.1810   28.5130   32.1570 H   0  0  0  0  0  0  0  0  0  0  0  0
   31.1200   31.0930   34.6480 H   0  0  0  0  0  0  0  0  0  0  0  0
   35.6710   31.7020   34.4510 C   0  0  0  0  0  0  0  0  0  0  0  0
   35.7200   32.6320   35.5150 C   0  0  0  0  0  0  0  0  0  0  0  0
   36.1350   31.2250   35.8750 C   0  0  0  0  0  0  0  0  0  0  0  0
   36.5490   31.5370   33.7480 H   0  0  0  0  0  0  0  0  0  0  0  0
   34.7430   32.9310   35.9910 H   0  0  0  0  0  0  0  0  0  0  0  0
   36.4550   33.4520   35.5430 H   0  0  0  0  0  0  0  0  0  0  0  0
   37.2190   31.1080   35.9990 H   0  0  0  0  0  0  0  0  0  0  0  0
   35.4880   30.5800   36.4480 H   0  0  0  0  0  0  0  0  0  0  0  0
   35.7780   29.4470   32.6440 C   0  0  0  0  0  0  0  0  0  0  0  0
   36.6000   30.0610   33.0640 H   0  0  0  0  0  0  0  0  0  0  0  0
   35.7080   29.6270   31.5210 H   0  0  0  0  0  0  0  0  0  0  0  0
   36.1480   28.0260   32.7740 C   0  0  0  0  0  0  0  0  0  0  0  0
   36.4940   27.6210   31.7740 H   0  0  0  0  0  0  0  0  0  0  0  0
   35.2420   27.3830   32.9810 H   0  0  0  0  0  0  0  0  0  0  0  0
   38.3840   27.2520   33.0510 C   0  0  0  0  0  0  0  0  0  0  0  0
   37.2220   27.6770   33.7130 C   0  0  0  0  0  0  0  0  0  0  0  0
   37.3620   27.6830   35.0810 C   0  0  0  0  0  0  0  0  0  0  0  0
   36.4770   28.0280   35.5920 H   0  0  0  0  0  0  0  0  0  0  0  0
   38.4770   27.3250   35.7960 C   0  0  0  0  0  0  0  0  0  0  0  0
   38.4100   27.3890   36.8520 H   0  0  0  0  0  0  0  0  0  0  0  0
   39.6000   26.9100   35.1160 C   0  0  0  0  0  3  0  0  0  0  0  0
   39.5410   26.8780   33.7410 C   0  0  0  0  0  3  0  0  0  0  0  0
   38.6680   27.0690   30.4620 N   0  0  0  0  0  0  0  0  0  0  0  0
   38.5400   27.1620   31.6070 C   0  0  0  0  0  0  0  0  0  0  0  0
  1  9  1  0  0  0  0
  1  6  1  0  0  0  0
  2  1  2  0  0  0  0
  3  2  1  0  0  0  0
  3  4  2  0  0  0  0
  4  5  1  0  0  0  0
  5  6  2  0  0  0  0
  5  8  1  0  0  0  0
  7  3  1  0  0  0  0
  9 10  1  0  0  0  0
  9 11  1  0  0  0  0
 10 14  1  0  0  0  0
 10 11  1  0  0  0  0
 10 13  1  0  0  0  0
 11 15  1  0  0  0  0
 11 16  1  0  0  0  0
 12  9  1  0  0  0  0
 17 20  1  0  0  0  0
 17 18  1  0  0  0  0
 17  2  1  0  0  0  0
 19 17  1  0  0  0  0
 20 22  1  0  0  0  0
 20 24  1  0  0  0  0
 21 20  1  0  0  0  0
 23 24  2  0  0  0  0
 23 30  1  0  0  0  0
 24 25  1  0  0  0  0
 25 26  1  0  0  0  0
 25 27  2  0  0  0  0
 27 28  1  0  0  0  0
 29 27  1  0  0  0  0
 30 29  2  0  0  0  0
 31 32  3  0  0  0  0
 32 23  1  0  0  0  0
M  END
>  <minimizedAffinity>
-4.73623514

$$$$

 OpenBabel03272508193D

 32 34  0  0  0  0  0  0  0  0999 V2000
   37.1880   26.1260   33.1200 C   0  0  0  0  0  0  0  0  0  0  0  0
   36.9890   27.3640   33.7360 C   0  0  0  0  0  0  0  0  0  0  0  0
   37.3680   27.3970   35.0540 C   0  0  0  0  0  0  0  0  0  0  0  0
   37.8890   26.3220   35.6940 N   0  0  0  0  0  0  0  0  0  0  0  0
   38.0680   25.1410   35.0680 C   0  0  0  0  0  0  0  0  0  0  0  0
   37.7160   25.0460   33.7810 N   0  0  0  0  0  0  0  0  0  0  0  0
   37.2880   28.2260   35.7270 H   0  0  0  0  0  0  0  0  0  0  0  0
   38.4800   24.2690   35.5530 H   0  0  0  0  0  0  0  0  0  0  0  0
   36.8710   26.0530   31.6360 C   0  0  0  0  0  0  0  0  0  0  0  0
   36.9600   24.8400   30.9140 C   0  0  0  0  0  0  0  0  0  0  0  0
   35.5870   25.1650   31.4520 C   0  0  0  0  0  0  0  0  0  0  0  0
   36.6560   27.0470   31.1270 H   0  0  0  0  0  0  0  0  0  0  0  0
   37.4320   23.9580   31.4340 H   0  0  0  0  0  0  0  0  0  0  0  0
   37.1400   24.8170   29.8280 H   0  0  0  0  0  0  0  0  0  0  0  0
   34.8860   25.5090   30.6810 H   0  0  0  0  0  0  0  0  0  0  0  0
   35.1830   24.6450   32.3070 H   0  0  0  0  0  0  0  0  0  0  0  0
   36.4020   28.5120   33.0830 C   0  0  0  0  0  0  0  0  0  0  0  0
   36.3960   28.3420   31.9880 H   0  0  0  0  0  0  0  0  0  0  0  0
   37.1040   29.3760   33.3270 H   0  0  0  0  0  0  0  0  0  0  0  0
   35.0670   28.9870   33.4870 C   0  0  0  0  0  0  0  0  0  0  0  0
   34.4450   28.1210   33.8710 H   0  0  0  0  0  0  0  0  0  0  0  0
   34.4630   29.3240   32.5940 H   0  0  0  0  0  0  0  0  0  0  0  0
   33.6770   30.1810   35.0100 C   0  0  0  0  0  0  0  0  0  0  0  0
   34.9880   30.0040   34.5450 C   0  0  0  0  0  0  0  0  0  0  0  0
   35.8960   30.8080   35.1920 C   0  0  0  0  0  0  0  0  0  0  0  0
   36.9080   30.6610   34.8500 H   0  0  0  0  0  0  0  0  0  0  0  0
   35.6300   31.7120   36.1900 C   0  0  0  0  0  0  0  0  0  0  0  0
   36.4550   32.2530   36.5790 H   0  0  0  0  0  0  0  0  0  0  0  0
   34.3320   31.8640   36.6230 C   0  0  0  0  0  3  0  0  0  0  0  0
   33.3620   31.0910   36.0250 C   0  0  0  0  0  3  0  0  0  0  0  0
   31.5870   28.8660   34.1620 N   0  0  0  0  0  0  0  0  0  0  0  0
   32.5110   29.4560   34.5290 C   0  0  0  0  0  0  0  0  0  0  0  0
  1  2  2  0  0  0  0
  1  6  1  0  0  0  0
  2  3  1  0  0  0  0
  3  4  2  0  0  0  0
  3  7  1  0  0  0  0
  5  8  1  0  0  0  0
  5  4  1  0  0  0  0
  6  5  2  0  0  0  0
  9  1  1  0  0  0  0
 10 13  1  0  0  0  0
 10 11  1  0  0  0  0
 10  9  1  0  0  0  0
 11  9  1  0  0  0  0
 11 16  1  0  0  0  0
 12  9  1  0  0  0  0
 14 10  1  0  0  0  0
 15 11  1  0  0  0  0
 17 19  1  0  0  0  0
 17 20  1  0  0  0  0
 17  2  1  0  0  0  0
 18 17  1  0  0  0  0
 20 21  1  0  0  0  0
 20 24  1  0  0  0  0
 22 20  1  0  0  0  0
 23 30  1  0  0  0  0
 24 23  2  0  0  0  0
 24 25  1  0  0  0  0
 25 27  2  0  0  0  0
 26 25  1  0  0  0  0
 27 28  1  0  0  0  0
 27 29  1  0  0  0  0
 30 29  2  0  0  0  0
 31 32  3  0  0  0  0
 32 23  1  0  0  0  0
M  END
>  <minimizedAffinity>
-4.72609615

$$$$
