
 OpenBabel03272507373D

 24 25  0  0  0  0  0  0  0  0999 V2000
   37.0330   31.0440   49.6240 C   0  0  0  0  0  0  0  0  0  0  0  0
   36.4630   29.8670   49.1210 C   0  0  0  0  0  0  0  0  0  0  0  0
   36.3430   28.7520   49.9250 C   0  0  0  0  0  0  0  0  0  0  0  0
   36.7980   28.8540   51.2090 N   0  0  0  0  0  0  0  0  0  0  0  0
   37.3480   30.0000   51.6860 C   0  0  0  0  0  0  0  0  0  0  0  0
   37.4530   31.0590   50.8950 N   0  0  0  0  0  0  0  0  0  0  0  0
   35.9050   27.8150   49.5730 H   0  0  0  0  0  0  0  0  0  0  0  0
   37.6940   30.0290   52.7120 H   0  0  0  0  0  0  0  0  0  0  0  0
   34.6330   29.3540   47.5890 C   0  0  0  0  0  0  0  0  0  0  0  0
   33.6140   29.1210   48.3330 O   0  0  0  0  0  0  0  0  0  0  0  0
   35.9780   29.7060   47.8070 N   0  0  0  0  0  0  0  0  0  0  0  0
   34.1420   29.1920   46.6320 H   0  0  0  0  0  0  0  0  0  0  0  0
   36.5300   29.8250   46.9250 H   0  0  0  0  0  0  0  0  0  0  0  0
   37.0640   32.0360   48.6800 O   0  0  0  0  0  0  0  0  0  0  0  0
   38.9280   32.5450   47.1440 C   0  0  0  0  0  0  0  0  0  0  0  0
   38.2000   32.7270   48.3030 C   0  0  0  0  0  0  0  0  0  0  0  0
   38.5780   33.6800   49.2350 C   0  0  0  0  0  0  0  0  0  0  0  0
   38.0500   33.8810   50.1760 H   0  0  0  0  0  0  0  0  0  0  0  0
   39.7070   34.4580   48.9920 C   0  0  0  0  0  0  0  0  0  0  0  0
   40.0200   35.2100   49.7100 H   0  0  0  0  0  0  0  0  0  0  0  0
   40.4380   34.2700   47.8230 C   0  0  0  0  0  0  0  0  0  0  0  0
   40.0330   33.3090   46.9120 C   0  0  0  0  0  0  0  0  0  0  0  0
   38.0750   30.7330   45.5030 N   0  0  0  0  0  0  0  0  0  0  0  0
   38.4570   31.5360   46.2440 C   0  0  0  0  0  0  0  0  0  0  0  0
  1  6  1  0  0  0  0
  2  1  2  0  0  0  0
  2  3  1  0  0  0  0
  3  4  2  0  0  0  0
  4  5  1  0  0  0  0
  5  8  1  0  0  0  0
  6  5  2  0  0  0  0
  7  3  1  0  0  0  0
  9 11  1  0  0  0  0
  9 10  2  0  0  0  0
 11  2  1  0  0  0  0
 12  9  1  0  0  0  0
 13 11  1  0  0  0  0
 14  1  1  0  0  0  0
 15 16  1  0  0  0  0
 16 14  1  0  0  0  0
 16 17  2  0  0  0  0
 17 18  1  0  0  0  0
 19 17  1  0  0  0  0
 19 20  1  0  0  0  0
 21 19  2  0  0  0  0
 22 15  2  0  0  0  0
 22 21  1  0  0  0  0
 23 24  3  0  0  0  0
 24 15  1  0  0  0  0
M  END
>  <minimizedAffinity>
-4.45023108

>  <minimizedRMSD>
6.13102198

$$$$
