
 OpenBabel03272501573D

 32 34  0  0  0  0  0  0  0  0999 V2000
   32.6240   28.1160   47.8450 C   0  0  0  0  0  0  0  0  0  0  0  0
   31.9960   27.0160   48.3610 C   0  0  0  0  0  0  0  0  0  0  0  0
   30.6650   27.0220   48.0220 C   0  0  0  0  0  0  0  0  0  0  0  0
   30.5010   28.1430   47.2940 N   0  0  0  0  0  0  0  0  0  0  0  0
   31.6690   28.7890   47.1930 N   0  0  0  0  0  0  0  0  0  0  0  0
   32.4720   26.2300   48.9620 H   0  0  0  0  0  0  0  0  0  0  0  0
   29.8610   26.3320   48.2420 H   0  0  0  0  0  0  0  0  0  0  0  0
   28.3030   29.2620   47.3540 C   0  0  0  0  0  0  0  0  0  0  0  0
   29.3430   28.6980   46.6640 C   0  0  0  0  0  0  0  0  0  0  0  0
   29.2260   28.6840   45.2720 C   0  0  0  0  0  0  0  0  0  0  0  0
   30.0610   28.2340   44.7450 H   0  0  0  0  0  0  0  0  0  0  0  0
   28.1570   29.1890   44.5600 C   0  0  0  0  0  0  0  0  0  0  0  0
   28.2130   29.1050   43.4850 H   0  0  0  0  0  0  0  0  0  0  0  0
   27.1240   29.7520   45.2890 C   0  0  0  0  0  3  0  0  0  0  0  0
   27.2170   29.7780   46.6810 C   0  0  0  0  0  3  0  0  0  0  0  0
   28.3520   29.3760   49.9160 N   0  0  0  0  0  0  0  0  0  0  0  0
   28.3380   29.3180   48.7670 C   0  0  0  0  0  0  0  0  0  0  0  0
   34.0800   28.4870   47.9830 C   0  0  0  0  0  0  0  0  0  0  0  0
   34.1840   29.5270   47.6800 H   0  0  0  0  0  0  0  0  0  0  0  0
   34.6700   27.8220   47.3240 H   0  0  0  0  0  0  0  0  0  0  0  0
   34.4090   28.2990   49.4420 C   0  0  0  0  0  0  0  0  0  0  0  0
   34.6740   27.2320   49.6500 H   0  0  0  0  0  0  0  0  0  0  0  0
   33.5670   28.5370   50.1250 H   0  0  0  0  0  0  0  0  0  0  0  0
   37.0570   30.0310   51.3480 C   0  0  0  0  0  0  0  0  0  0  0  0
   37.8840   30.5310   50.3280 C   0  0  0  0  0  0  0  0  0  0  0  0
   37.5230   30.2690   49.0040 C   0  0  0  0  0  0  0  0  0  0  0  0
   36.3960   29.5460   48.7620 N   0  0  0  0  0  0  0  0  0  0  0  0
   35.6290   29.0840   49.7830 C   0  0  0  0  0  0  0  0  0  0  0  0
   35.9680   29.3300   51.0480 N   0  0  0  0  0  0  0  0  0  0  0  0
   37.4080   30.2790   52.3380 H   0  0  0  0  0  0  0  0  0  0  0  0
   38.7880   31.1080   50.4010 H   0  0  0  0  0  0  0  0  0  0  0  0
   38.0540   30.5850   48.1160 H   0  0  0  0  0  0  0  0  0  0  0  0
  1 18  1  0  0  0  0
  1  2  1  0  0  0  0
  2  6  1  0  0  0  0
  3  7  1  0  0  0  0
  3  2  2  0  0  0  0
  4  3  1  0  0  0  0
  5  4  1  0  0  0  0
  5  1  2  0  0  0  0
  8 17  1  0  0  0  0
  9  4  1  0  0  0  0
  9  8  2  0  0  0  0
 10  9  1  0  0  0  0
 11 10  1  0  0  0  0
 12 10  2  0  0  0  0
 12 14  1  0  0  0  0
 13 12  1  0  0  0  0
 14 15  2  0  0  0  0
 15  8  1  0  0  0  0
 17 16  3  0  0  0  0
 18 21  1  0  0  0  0
 19 18  1  0  0  0  0
 20 18  1  0  0  0  0
 21 22  1  0  0  0  0
 21 28  1  0  0  0  0
 21 23  1  0  0  0  0
 24 30  1  0  0  0  0
 25 31  1  0  0  0  0
 25 24  2  0  0  0  0
 26 25  1  0  0  0  0
 27 26  2  0  0  0  0
 27 28  1  0  0  0  0
 28 29  2  0  0  0  0
 29 24  1  0  0  0  0
 32 26  1  0  0  0  0
M  END
>  <minimizedAffinity>
-5.08595276

>  <minimizedRMSD>
0.914389908

$$$$
