
 OpenBabel03272507523D

 33 35  0  0  0  0  0  0  0  0999 V2000
   36.2540   31.1300   48.8740 N   0  0  0  0  0  0  0  0  0  0  0  0
   36.3890   31.8770   49.9660 C   0  0  0  0  0  0  0  0  0  0  0  0
   37.4950   32.7190   50.0920 C   0  0  0  0  0  0  0  0  0  0  0  0
   38.3630   32.6920   49.0430 C   0  0  0  0  0  0  0  0  0  0  0  0
   39.3660   33.4630   49.1720 O   0  0  0  0  0  0  0  0  0  0  0  0
   38.2670   31.9620   47.9360 N   0  0  0  0  0  0  0  0  0  0  0  0
   37.1760   31.1650   47.8690 C   0  0  0  0  0  0  0  0  0  0  0  0
   37.0680   30.4560   46.8110 O   0  0  0  0  0  0  0  0  0  0  0  0
   35.6420   31.8330   50.7530 H   0  0  0  0  0  0  0  0  0  0  0  0
   37.6280   33.3290   50.9550 H   0  0  0  0  0  0  0  0  0  0  0  0
   34.8360   29.3440   49.7190 C   0  0  0  0  0  0  0  0  0  0  0  0
   35.1490   30.2390   48.6720 C   0  0  0  0  0  0  0  0  0  0  0  0
   34.3770   30.2120   47.4980 C   0  0  0  0  0  0  0  0  0  0  0  0
   33.3600   29.3190   47.4360 N   0  0  0  0  0  0  0  0  0  0  0  0
   33.0680   28.4820   48.4170 C   0  0  0  0  0  0  0  0  0  0  0  0
   33.7990   28.4950   49.5470 N   0  0  0  0  0  0  0  0  0  0  0  0
   34.6600   30.9130   46.7390 H   0  0  0  0  0  0  0  0  0  0  0  0
   32.2420   27.7740   48.3300 H   0  0  0  0  0  0  0  0  0  0  0  0
   36.9010   28.9710   51.2650 C   0  0  0  0  0  0  0  0  0  0  0  0
   37.7390   28.6860   50.3840 O   0  0  0  0  0  0  0  0  0  0  0  0
   35.5410   29.2980   50.9390 N   0  0  0  0  0  0  0  0  0  0  0  0
   37.2660   28.9540   52.2790 H   0  0  0  0  0  0  0  0  0  0  0  0
   35.0040   29.5510   51.8250 H   0  0  0  0  0  0  0  0  0  0  0  0
   40.0030   33.0630   46.5090 C   0  0  0  0  0  0  0  0  0  0  0  0
   39.2190   31.9850   46.8770 C   0  0  0  0  0  0  0  0  0  0  0  0
   39.2870   30.7710   46.2200 C   0  0  0  0  0  0  0  0  0  0  0  0
   38.7120   29.8910   46.4470 H   0  0  0  0  0  0  0  0  0  0  0  0
   40.1720   30.6190   45.1500 C   0  0  0  0  0  0  0  0  0  0  0  0
   40.2570   29.6830   44.6070 H   0  0  0  0  0  0  0  0  0  0  0  0
   40.9690   31.7060   44.7710 C   0  0  0  0  0  3  0  0  0  0  0  0
   40.8830   32.9200   45.4490 C   0  0  0  0  0  3  0  0  0  0  0  0
   39.7220   35.2390   47.8710 N   0  0  0  0  0  0  0  0  0  0  0  0
   39.8390   34.2610   47.2660 C   0  0  0  0  0  0  0  0  0  0  0  0
  1  2  1  0  0  0  0
  2  3  2  0  0  0  0
  2  9  1  0  0  0  0
  3 10  1  0  0  0  0
  4  5  2  0  0  0  0
  4  3  1  0  0  0  0
  6  4  1  0  0  0  0
  7  6  1  0  0  0  0
  7  1  1  0  0  0  0
  8  7  2  0  0  0  0
 11 21  1  0  0  0  0
 12  1  1  0  0  0  0
 12 11  2  0  0  0  0
 13 12  1  0  0  0  0
 14 13  2  0  0  0  0
 14 15  1  0  0  0  0
 15 16  2  0  0  0  0
 16 11  1  0  0  0  0
 17 13  1  0  0  0  0
 18 15  1  0  0  0  0
 19 22  1  0  0  0  0
 20 19  2  0  0  0  0
 21 19  1  0  0  0  0
 21 23  1  0  0  0  0
 24 25  1  0  0  0  0
 24 33  1  0  0  0  0
 25  6  1  0  0  0  0
 26 27  1  0  0  0  0
 26 25  2  0  0  0  0
 28 26  1  0  0  0  0
 29 28  1  0  0  0  0
 30 28  2  0  0  0  0
 30 31  1  0  0  0  0
 31 24  2  0  0  0  0
 33 32  3  0  0  0  0
M  END
>  <minimizedAffinity>
-5.02100706

>  <minimizedRMSD>
1.10951066

$$$$
