
 OpenBabel03272504393D

 43 45  0  0  0  0  0  0  0  0999 V2000
   34.9340   29.4500   48.8740 C   0  0  0  0  0  0  0  0  0  0  0  0
   34.2510   30.2600   49.2690 H   0  0  0  0  0  0  0  0  0  0  0  0
   35.8380   29.5440   49.5090 H   0  0  0  0  0  0  0  0  0  0  0  0
   37.6760   30.4910   48.5110 Cl  0  0  0  0  0  0  0  0  0  0  0  0
   36.5140   30.3290   47.1930 C   0  0  0  0  0  0  0  0  0  0  0  0
   36.8740   30.6990   45.9330 C   0  0  0  0  0  0  0  0  0  0  0  0
   35.9790   30.5760   44.9060 C   0  0  0  0  0  0  0  0  0  0  0  0
   34.7220   30.0740   45.1780 C   0  0  0  0  0  0  0  0  0  0  0  0
   34.4000   29.7090   46.4860 C   0  0  0  0  0  0  0  0  0  0  0  0
   35.2750   29.8230   47.5210 C   0  0  0  0  0  0  0  0  0  0  0  0
   36.3090   30.8860   43.9090 H   0  0  0  0  0  0  0  0  0  0  0  0
   34.0910   30.0190   44.2930 H   0  0  0  0  0  0  0  0  0  0  0  0
   33.4280   29.3620   46.4820 H   0  0  0  0  0  0  0  0  0  0  0  0
   39.8930   32.8300   45.9470 C   0  0  0  0  0  0  0  0  0  0  0  0
   40.7440   32.0990   45.0680 C   0  0  0  0  0  0  0  0  0  0  0  0
   40.2430   30.9170   44.5160 C   0  0  0  0  0  0  0  0  0  0  0  0
   38.9880   30.5220   44.8350 N   0  0  0  0  0  0  0  0  0  0  0  0
   38.2070   31.2290   45.6660 C   0  0  0  0  0  0  0  0  0  0  0  0
   38.6620   32.3730   46.2140 N   0  0  0  0  0  0  0  0  0  0  0  0
   40.2540   33.7450   46.3860 H   0  0  0  0  0  0  0  0  0  0  0  0
   41.7300   32.4980   44.8760 H   0  0  0  0  0  0  0  0  0  0  0  0
   41.1080   30.2240   43.6540 N   0  0  0  0  0  0  0  0  0  0  0  0
   41.0620   30.1940   42.5960 H   0  0  0  0  0  0  0  0  0  0  0  0
   41.7760   29.7690   44.3060 H   0  0  0  0  0  0  0  0  0  0  0  0
   34.3060   28.1590   49.1230 C   0  0  0  0  0  0  0  0  0  0  0  0
   34.4140   27.4910   48.2340 H   0  0  0  0  0  0  0  0  0  0  0  0
   34.7970   27.5940   49.9500 H   0  0  0  0  0  0  0  0  0  0  0  0
   32.9800   28.2890   49.4700 O   0  0  0  0  0  0  0  0  0  0  0  0
   32.7220   26.6930   47.3980 O   0  0  0  0  0  0  0  0  0  0  0  0
   31.9800   27.6590   48.2470 P   0  0  2  0  0  0  0  0  0  0  0  0
   31.4460   29.0380   47.3810 O   0  0  0  0  0  0  0  0  0  0  0  0
   31.4540   29.8480   47.9320 H   0  0  0  0  0  0  0  0  0  0  0  0
   30.6390   26.9300   48.8900 O   0  0  0  0  0  0  0  0  0  0  0  0
   28.1380   27.2130   49.2230 C   0  0  0  0  0  0  0  0  0  0  0  0
   29.3420   27.0960   48.5800 C   0  0  0  0  0  0  0  0  0  0  0  0
   29.2680   27.1600   47.1760 C   0  0  0  0  0  0  0  0  0  0  0  0
   30.0620   27.0960   46.4130 H   0  0  0  0  0  0  0  0  0  0  0  0
   28.0550   27.3300   46.4910 C   0  0  0  0  0  0  0  0  0  0  0  0
   27.9040   27.3890   45.4310 H   0  0  0  0  0  0  0  0  0  0  0  0
   26.8810   27.4410   47.2080 C   0  0  0  0  0  3  0  0  0  0  0  0
   26.9320   27.3810   48.5830 C   0  0  0  0  0  3  0  0  0  0  0  0
   28.2580   27.0990   51.7780 N   0  0  0  0  0  0  0  0  0  0  0  0
   28.2150   27.1480   50.6350 C   0  0  0  0  0  0  0  0  0  0  0  0
  1 25  1  0  0  0  0
  1  2  1  0  0  0  0
  1  3  1  0  0  0  0
  5 10  1  0  0  0  0
  5  4  1  0  0  0  0
  6  5  2  0  0  0  0
  7  8  2  0  0  0  0
  7  6  1  0  0  0  0
  8  9  1  0  0  0  0
  9 10  2  0  0  0  0
 10  1  1  0  0  0  0
 11  7  1  0  0  0  0
 12  8  1  0  0  0  0
 13  9  1  0  0  0  0
 14 19  1  0  0  0  0
 14 20  1  0  0  0  0
 15 14  2  0  0  0  0
 16 17  2  0  0  0  0
 16 15  1  0  0  0  0
 17 18  1  0  0  0  0
 18  6  1  0  0  0  0
 18 19  2  0  0  0  0
 21 15  1  0  0  0  0
 22 24  1  0  0  0  0
 22 16  1  0  0  0  0
 23 22  1  0  0  0  0
 25 28  1  0  0  0  0
 25 27  1  0  0  0  0
 26 25  1  0  0  0  0
 30 29  2  6  0  0  0
 30 33  1  0  0  0  0
 30 28  1  0  0  0  0
 31 32  1  0  0  0  0
 31 30  1  0  0  0  0
 34 43  1  0  0  0  0
 35 33  1  0  0  0  0
 35 34  2  0  0  0  0
 36 35  1  0  0  0  0
 37 36  1  0  0  0  0
 38 36  2  0  0  0  0
 38 40  1  0  0  0  0
 39 38  1  0  0  0  0
 40 41  2  0  0  0  0
 41 34  1  0  0  0  0
 43 42  3  0  0  0  0
M  END
>  <minimizedAffinity>
-6.39801121

>  <minimizedRMSD>
1.1558888

$$$$
