
 OpenBabel03272501573D

 32 34  0  0  0  0  0  0  0  0999 V2000
   32.7940   27.9910   48.0840 C   0  0  0  0  0  0  0  0  0  0  0  0
   31.9230   27.9770   49.1370 C   0  0  0  0  0  0  0  0  0  0  0  0
   30.6790   27.5650   48.7240 C   0  0  0  0  0  0  0  0  0  0  0  0
   30.8160   27.3320   47.4040 N   0  0  0  0  0  0  0  0  0  0  0  0
   32.0760   27.5870   47.0310 N   0  0  0  0  0  0  0  0  0  0  0  0
   32.1640   28.2520   50.1730 H   0  0  0  0  0  0  0  0  0  0  0  0
   29.7490   27.4300   49.2590 H   0  0  0  0  0  0  0  0  0  0  0  0
   29.2490   27.7240   45.5390 C   0  0  0  0  0  0  0  0  0  0  0  0
   29.8770   26.8850   46.4230 C   0  0  0  0  0  0  0  0  0  0  0  0
   29.5520   25.5310   46.3250 C   0  0  0  0  0  0  0  0  0  0  0  0
   30.0600   24.8840   47.0330 H   0  0  0  0  0  0  0  0  0  0  0  0
   28.6630   24.9910   45.4180 C   0  0  0  0  0  0  0  0  0  0  0  0
   28.5170   23.9210   45.4660 H   0  0  0  0  0  0  0  0  0  0  0  0
   28.0470   25.8670   44.5400 C   0  0  0  0  0  3  0  0  0  0  0  0
   28.3540   27.2260   44.6180 C   0  0  0  0  0  3  0  0  0  0  0  0
   29.7290   30.2440   45.5740 N   0  0  0  0  0  0  0  0  0  0  0  0
   29.5180   29.1130   45.5680 C   0  0  0  0  0  0  0  0  0  0  0  0
   34.2530   28.3780   48.1080 C   0  0  0  0  0  0  0  0  0  0  0  0
   34.3230   29.4130   47.7820 H   0  0  0  0  0  0  0  0  0  0  0  0
   34.8000   27.7080   47.4180 H   0  0  0  0  0  0  0  0  0  0  0  0
   34.6900   28.2160   49.5420 C   0  0  0  0  0  0  0  0  0  0  0  0
   35.0510   27.1740   49.7270 H   0  0  0  0  0  0  0  0  0  0  0  0
   33.8780   28.3880   50.2790 H   0  0  0  0  0  0  0  0  0  0  0  0
   37.2780   30.1980   51.2810 C   0  0  0  0  0  0  0  0  0  0  0  0
   38.0320   30.7130   50.2120 C   0  0  0  0  0  0  0  0  0  0  0  0
   37.6420   30.3740   48.9130 C   0  0  0  0  0  0  0  0  0  0  0  0
   36.5600   29.5680   48.7410 N   0  0  0  0  0  0  0  0  0  0  0  0
   35.8640   29.0950   49.8070 C   0  0  0  0  0  0  0  0  0  0  0  0
   36.2300   29.4130   51.0480 N   0  0  0  0  0  0  0  0  0  0  0  0
   37.6460   30.5080   52.2460 H   0  0  0  0  0  0  0  0  0  0  0  0
   38.8950   31.3520   50.2280 H   0  0  0  0  0  0  0  0  0  0  0  0
   38.1180   30.6910   47.9940 H   0  0  0  0  0  0  0  0  0  0  0  0
  1 18  1  0  0  0  0
  1  2  1  0  0  0  0
  2  6  1  0  0  0  0
  3  2  2  0  0  0  0
  3  7  1  0  0  0  0
  4  3  1  0  0  0  0
  5  4  1  0  0  0  0
  5  1  2  0  0  0  0
  8 17  1  0  0  0  0
  8  9  1  0  0  0  0
  9  4  1  0  0  0  0
 10  9  2  0  0  0  0
 10 11  1  0  0  0  0
 12 13  1  0  0  0  0
 12 10  1  0  0  0  0
 14 15  1  0  0  0  0
 14 12  2  0  0  0  0
 15  8  2  0  0  0  0
 17 16  3  0  0  0  0
 18 21  1  0  0  0  0
 19 18  1  0  0  0  0
 20 18  1  0  0  0  0
 21 22  1  0  0  0  0
 21 28  1  0  0  0  0
 21 23  1  0  0  0  0
 24 30  1  0  0  0  0
 25 31  1  0  0  0  0
 25 24  2  0  0  0  0
 26 25  1  0  0  0  0
 27 26  2  0  0  0  0
 27 28  1  0  0  0  0
 28 29  2  0  0  0  0
 29 24  1  0  0  0  0
 32 26  1  0  0  0  0
M  END
>  <minimizedAffinity>
-4.6103363

>  <minimizedRMSD>
2.23297739

$$$$
