
 OpenBabel03272503133D

 47 51  0  0  0  0  0  0  0  0999 V2000
   38.6110   31.2690   42.4790 C   0  0  0  0  0  0  0  0  0  0  0  0
   39.5040   31.0280   43.4960 C   0  0  0  0  0  0  0  0  0  0  0  0
   40.6790   30.3320   43.3070 C   0  0  0  0  0  0  0  0  0  0  0  0
   40.9850   29.8470   42.0300 C   0  0  0  0  0  0  0  0  0  0  0  0
   42.0170   29.1590   41.5520 N   0  0  0  0  0  0  0  0  0  0  0  0
   41.8030   28.9570   40.2600 C   0  0  0  0  0  0  0  0  0  0  0  0
   40.6260   29.5220   39.9140 N   0  0  0  0  0  0  0  0  0  0  0  0
   40.0770   30.0970   41.0110 C   0  0  0  0  0  0  0  0  0  0  0  0
   38.8990   30.7920   41.1930 C   0  0  0  0  0  0  0  0  0  0  0  0
   37.7020   31.8420   42.7050 H   0  0  0  0  0  0  0  0  0  0  0  0
   41.3700   30.1490   44.1130 H   0  0  0  0  0  0  0  0  0  0  0  0
   42.8520   28.8330   42.0990 H   0  0  0  0  0  0  0  0  0  0  0  0
   42.4820   28.4170   39.6000 H   0  0  0  0  0  0  0  0  0  0  0  0
   39.1730   31.5330   44.8090 C   0  0  0  0  0  0  0  0  0  0  0  0
   38.0160   32.0650   44.9770 O   0  0  0  0  0  0  0  0  0  0  0  0
   40.0010   31.5020   45.9480 N   0  0  0  0  0  0  0  0  0  0  0  0
   40.9390   31.0790   45.8440 H   0  0  0  0  0  0  0  0  0  0  0  0
   38.2560   30.0800   47.4820 F   0  0  0  0  0  0  0  0  0  0  0  0
   38.5130   31.3470   47.8830 C   0  0  0  0  0  0  0  0  0  0  0  0
   37.9130   31.8530   48.9970 C   0  0  0  0  0  0  0  0  0  0  0  0
   38.2220   33.1490   49.3400 C   0  0  0  0  0  0  0  0  0  0  0  0
   39.0910   33.9190   48.6130 C   0  0  0  0  0  0  0  0  0  0  0  0
   39.6950   33.3840   47.4750 C   0  0  0  0  0  0  0  0  0  0  0  0
   39.3950   32.0820   47.1150 C   0  0  0  0  0  0  0  0  0  0  0  0
   37.7500   33.5570   50.2250 H   0  0  0  0  0  0  0  0  0  0  0  0
   39.2790   34.9290   48.9540 H   0  0  0  0  0  0  0  0  0  0  0  0
   40.3820   33.9860   46.8960 H   0  0  0  0  0  0  0  0  0  0  0  0
   36.4520   29.4880   51.5770 C   0  0  0  0  0  0  0  0  0  0  0  0
   37.3720   30.3180   50.8870 C   0  0  0  0  0  0  0  0  0  0  0  0
   36.9930   30.9870   49.7380 C   0  0  0  0  0  0  0  0  0  0  0  0
   35.7050   30.8120   49.3050 N   0  0  0  0  0  0  0  0  0  0  0  0
   34.8380   30.0230   49.9640 C   0  0  0  0  0  0  0  0  0  0  0  0
   35.2010   29.3770   51.0710 N   0  0  0  0  0  0  0  0  0  0  0  0
   36.8010   28.9870   52.4720 H   0  0  0  0  0  0  0  0  0  0  0  0
   38.3950   30.4550   51.2340 H   0  0  0  0  0  0  0  0  0  0  0  0
   33.8390   29.9510   49.5380 H   0  0  0  0  0  0  0  0  0  0  0  0
   38.0100   31.0260   40.1760 O   0  0  0  0  0  0  0  0  0  0  0  0
   35.9270   32.2150   40.0340 C   0  0  0  0  0  0  0  0  0  0  0  0
   36.6390   31.0350   40.2810 C   0  0  0  0  0  0  0  0  0  0  0  0
   35.8660   29.9320   40.6290 C   0  0  0  0  0  0  0  0  0  0  0  0
   36.4030   29.0040   40.8250 H   0  0  0  0  0  0  0  0  0  0  0  0
   34.4810   29.9940   40.7250 C   0  0  0  0  0  0  0  0  0  0  0  0
   33.9180   29.1080   40.9980 H   0  0  0  0  0  0  0  0  0  0  0  0
   33.8200   31.1780   40.4710 C   0  0  0  0  0  3  0  0  0  0  0  0
   34.5500   32.2960   40.1240 C   0  0  0  0  0  3  0  0  0  0  0  0
   37.1240   34.4490   39.4060 N   0  0  0  0  0  0  0  0  0  0  0  0
   36.5840   33.4650   39.6840 C   0  0  0  0  0  0  0  0  0  0  0  0
  1 10  1  0  0  0  0
  1  2  1  0  0  0  0
  2 14  1  0  0  0  0
  3  2  2  0  0  0  0
  3 11  1  0  0  0  0
  4  3  1  0  0  0  0
  5  4  1  0  0  0  0
  5 12  1  0  0  0  0
  6  5  1  0  0  0  0
  7  6  2  0  0  0  0
  7  8  1  0  0  0  0
  8  9  1  0  0  0  0
  8  4  2  0  0  0  0
  9  1  2  0  0  0  0
 13  6  1  0  0  0  0
 14 15  2  0  0  0  0
 14 16  1  0  0  0  0
 16 24  1  0  0  0  0
 17 16  1  0  0  0  0
 18 19  1  0  0  0  0
 19 20  1  0  0  0  0
 20 21  2  0  0  0  0
 20 30  1  0  0  0  0
 21 25  1  0  0  0  0
 22 26  1  0  0  0  0
 22 21  1  0  0  0  0
 23 22  2  0  0  0  0
 24 23  1  0  0  0  0
 24 19  2  0  0  0  0
 27 23  1  0  0  0  0
 28 34  1  0  0  0  0
 29 35  1  0  0  0  0
 29 28  2  0  0  0  0
 30 29  1  0  0  0  0
 31 30  2  0  0  0  0
 31 32  1  0  0  0  0
 32 33  2  0  0  0  0
 33 28  1  0  0  0  0
 36 32  1  0  0  0  0
 37 39  1  0  0  0  0
 37  9  1  0  0  0  0
 38 45  2  0  0  0  0
 38 39  1  0  0  0  0
 39 40  2  0  0  0  0
 40 42  1  0  0  0  0
 40 41  1  0  0  0  0
 42 43  1  0  0  0  0
 44 42  2  0  0  0  0
 45 44  1  0  0  0  0
 46 47  3  0  0  0  0
 47 38  1  0  0  0  0
M  END
>  <minimizedAffinity>
-6.60055923

>  <minimizedRMSD>
2.0953064

$$$$
