
 OpenBabel03272508193D

 32 34  0  0  0  0  0  0  0  0999 V2000
   35.6170   29.5780   49.4580 C   0  0  0  0  0  0  0  0  0  0  0  0
   35.6520   29.9960   48.1250 C   0  0  0  0  0  0  0  0  0  0  0  0
   34.6730   29.4410   47.3410 C   0  0  0  0  0  0  0  0  0  0  0  0
   33.7560   28.5670   47.8240 N   0  0  0  0  0  0  0  0  0  0  0  0
   33.7510   28.1850   49.1170 C   0  0  0  0  0  0  0  0  0  0  0  0
   34.6830   28.6920   49.9310 N   0  0  0  0  0  0  0  0  0  0  0  0
   34.5200   29.5970   46.2940 H   0  0  0  0  0  0  0  0  0  0  0  0
   33.0340   27.4910   49.5280 H   0  0  0  0  0  0  0  0  0  0  0  0
   36.6220   30.2270   50.3940 C   0  0  0  0  0  0  0  0  0  0  0  0
   36.7960   29.7810   51.7250 C   0  0  0  0  0  0  0  0  0  0  0  0
   37.7440   29.1750   50.7160 C   0  0  0  0  0  0  0  0  0  0  0  0
   37.1470   31.1520   49.9910 H   0  0  0  0  0  0  0  0  0  0  0  0
   36.0530   29.0340   52.1250 H   0  0  0  0  0  0  0  0  0  0  0  0
   37.1790   30.4410   52.5190 H   0  0  0  0  0  0  0  0  0  0  0  0
   38.7620   29.5790   50.7760 H   0  0  0  0  0  0  0  0  0  0  0  0
   37.6220   28.1580   50.3740 H   0  0  0  0  0  0  0  0  0  0  0  0
   36.6420   30.8980   47.5820 C   0  0  0  0  0  0  0  0  0  0  0  0
   36.5970   31.8590   48.1320 H   0  0  0  0  0  0  0  0  0  0  0  0
   36.3200   31.0670   46.5010 H   0  0  0  0  0  0  0  0  0  0  0  0
   38.0520   30.4800   47.4930 C   0  0  0  0  0  0  0  0  0  0  0  0
   38.1150   29.3790   47.2330 H   0  0  0  0  0  0  0  0  0  0  0  0
   38.5530   30.5050   48.5050 H   0  0  0  0  0  0  0  0  0  0  0  0
   39.3290   32.4130   46.9410 C   0  0  0  0  0  0  0  0  0  0  0  0
   38.9080   31.1490   46.5040 C   0  0  0  0  0  0  0  0  0  0  0  0
   39.4020   30.8230   45.2630 C   0  0  0  0  0  0  0  0  0  0  0  0
   39.0950   29.8440   44.9320 H   0  0  0  0  0  0  0  0  0  0  0  0
   40.2180   31.5940   44.4740 C   0  0  0  0  0  0  0  0  0  0  0  0
   40.5060   31.1850   43.5380 H   0  0  0  0  0  0  0  0  0  0  0  0
   40.6130   32.8310   44.9310 C   0  0  0  0  0  3  0  0  0  0  0  0
   40.1610   33.2310   46.1690 C   0  0  0  0  0  3  0  0  0  0  0  0
   38.7240   33.5120   49.2310 N   0  0  0  0  0  0  0  0  0  0  0  0
   38.9840   33.0170   48.2190 C   0  0  0  0  0  0  0  0  0  0  0  0
  1  6  1  0  0  0  0
  1  9  1  0  0  0  0
  2  1  2  0  0  0  0
  3  4  2  0  0  0  0
  3  2  1  0  0  0  0
  4  5  1  0  0  0  0
  5  8  1  0  0  0  0
  5  6  2  0  0  0  0
  7  3  1  0  0  0  0
  9 11  1  0  0  0  0
  9 10  1  0  0  0  0
 10 13  1  0  0  0  0
 10 14  1  0  0  0  0
 11 15  1  0  0  0  0
 11 10  1  0  0  0  0
 12  9  1  0  0  0  0
 16 11  1  0  0  0  0
 17  2  1  0  0  0  0
 17 18  1  0  0  0  0
 19 17  1  0  0  0  0
 20 17  1  0  0  0  0
 20 22  1  0  0  0  0
 21 20  1  0  0  0  0
 23 32  1  0  0  0  0
 24 23  1  0  0  0  0
 24 20  1  0  0  0  0
 25 24  2  0  0  0  0
 26 25  1  0  0  0  0
 27 29  2  0  0  0  0
 27 25  1  0  0  0  0
 28 27  1  0  0  0  0
 29 30  1  0  0  0  0
 30 23  2  0  0  0  0
 32 31  3  0  0  0  0
M  END
>  <minimizedAffinity>
-6.17943859

>  <minimizedRMSD>
4.28838253

$$$$
