
 OpenBabel03262522243D

 36 38  0  0  0  0  0  0  0  0999 V2000
   38.0850   32.4310   45.2520 C   0  0  0  0  0  0  0  0  0  0  0  0
   38.8330   31.8350   46.2860 C   0  0  0  0  0  0  0  0  0  0  0  0
   39.9110   31.0270   45.9250 C   0  0  0  0  0  0  0  0  0  0  0  0
   40.1480   30.8850   44.5980 N   0  0  0  0  0  0  0  0  0  0  0  0
   39.4230   31.4630   43.6650 C   0  0  0  0  0  0  0  0  0  0  0  0
   38.3430   32.2740   43.9580 N   0  0  0  0  0  0  0  0  0  0  0  0
   37.2140   33.0900   45.4160 H   0  0  0  0  0  0  0  0  0  0  0  0
   40.4740   30.5760   46.7390 H   0  0  0  0  0  0  0  0  0  0  0  0
   38.4230   32.1090   47.5520 O   0  0  0  0  0  0  0  0  0  0  0  0
   37.5550   31.1990   48.1790 C   0  0  0  0  0  0  0  0  0  0  0  0
   36.5050   30.5050   47.5890 C   0  0  0  0  0  0  0  0  0  0  0  0
   35.7710   29.6660   48.3520 C   0  0  0  0  0  0  0  0  0  0  0  0
   36.0900   29.5290   49.6910 C   0  0  0  0  0  0  0  0  0  0  0  0
   37.1440   30.2340   50.2600 C   0  0  0  0  0  0  0  0  0  0  0  0
   37.8530   31.0610   49.4690 N   0  0  0  0  0  0  0  0  0  0  0  0
   36.4090   30.7450   46.5340 H   0  0  0  0  0  0  0  0  0  0  0  0
   34.9670   29.1460   47.8460 H   0  0  0  0  0  0  0  0  0  0  0  0
   35.4640   28.8350   50.2680 H   0  0  0  0  0  0  0  0  0  0  0  0
   37.4420   30.0470   51.7170 C   0  0  0  0  0  0  0  0  0  0  0  0
   37.0270   29.0700   52.0370 H   0  0  0  0  0  0  0  0  0  0  0  0
   38.5240   30.1280   51.9180 H   0  0  0  0  0  0  0  0  0  0  0  0
   36.8550   30.8370   52.2500 H   0  0  0  0  0  0  0  0  0  0  0  0
   40.0900   31.0110   42.0270 S   0  0  0  0  0  0  0  0  0  0  0  0
   41.2180   29.6100   42.3820 C   0  0  0  0  0  0  0  0  0  0  0  0
   41.4320   29.6480   43.4650 H   0  0  0  0  0  0  0  0  0  0  0  0
   42.1660   29.6960   41.8410 H   0  0  0  0  0  0  0  0  0  0  0  0
   40.7650   27.8530   40.7920 C   0  0  0  0  0  0  0  0  0  0  0  0
   40.4630   28.3740   42.0450 C   0  0  0  0  0  0  0  0  0  0  0  0
   39.5310   27.7170   42.8160 C   0  0  0  0  0  0  0  0  0  0  0  0
   39.3450   28.1780   43.7770 H   0  0  0  0  0  0  0  0  0  0  0  0
   38.9250   26.5740   42.3370 C   0  0  0  0  0  0  0  0  0  0  0  0
   38.1980   26.1180   43.0140 H   0  0  0  0  0  0  0  0  0  0  0  0
   39.2230   26.0570   41.0960 C   0  0  0  0  0  3  0  0  0  0  0  0
   40.1630   26.6960   40.2880 C   0  0  0  0  0  3  0  0  0  0  0  0
   42.4970   28.9340   39.1910 N   0  0  0  0  0  0  0  0  0  0  0  0
   41.7300   28.4670   39.9040 C   0  0  0  0  0  0  0  0  0  0  0  0
  1  7  1  0  0  0  0
  1  2  1  0  0  0  0
  2  9  1  0  0  0  0
  3  2  2  0  0  0  0
  3  8  1  0  0  0  0
  4  3  1  0  0  0  0
  5  6  1  0  0  0  0
  5  4  2  0  0  0  0
  6  1  2  0  0  0  0
  9 10  1  0  0  0  0
 10 15  1  0  0  0  0
 11 10  2  0  0  0  0
 11 12  1  0  0  0  0
 12 13  2  0  0  0  0
 13 14  1  0  0  0  0
 13 18  1  0  0  0  0
 14 19  1  0  0  0  0
 15 14  2  0  0  0  0
 16 11  1  0  0  0  0
 17 12  1  0  0  0  0
 19 21  1  0  0  0  0
 19 20  1  0  0  0  0
 19 22  1  0  0  0  0
 23 24  1  0  0  0  0
 23  5  1  0  0  0  0
 24 25  1  0  0  0  0
 26 24  1  0  0  0  0
 27 28  1  0  0  0  0
 28 24  1  0  0  0  0
 28 29  2  0  0  0  0
 29 30  1  0  0  0  0
 31 29  1  0  0  0  0
 31 32  1  0  0  0  0
 33 31  2  0  0  0  0
 34 27  2  0  0  0  0
 34 33  1  0  0  0  0
 35 36  3  0  0  0  0
 36 27  1  0  0  0  0
M  END
>  <minimizedAffinity>
-5.70886183

>  <minimizedRMSD>
8.92570877

$$$$
