
 OpenBabel03272504183D

 27 28  0  0  0  0  0  0  0  0999 V2000
   31.4030   29.1900   44.4530 O   0  0  0  0  0  0  0  0  0  0  0  0
   31.9530   29.7770   45.7370 P   0  0  1  0  0  0  0  0  0  0  0  0
   30.9030   29.4700   47.0330 O   0  0  0  0  0  0  0  0  0  0  0  0
   30.5570   30.3440   47.3570 H   0  0  0  0  0  0  0  0  0  0  0  0
   33.4590   29.0840   46.1700 O   0  0  0  0  0  0  0  0  0  0  0  0
   33.6360   27.7090   46.2980 C   0  0  0  0  0  0  0  0  0  0  0  0
   33.4620   26.9740   47.4680 C   0  0  0  0  0  0  0  0  0  0  0  0
   33.6830   25.5990   47.4100 C   0  0  0  0  0  0  0  0  0  0  0  0
   34.0540   25.0340   46.2320 N   0  0  0  0  0  0  0  0  0  0  0  0
   34.2110   25.7840   45.1170 C   0  0  0  0  0  0  0  0  0  0  0  0
   34.0010   27.1290   45.1460 N   0  0  0  0  0  0  0  0  0  0  0  0
   33.5380   25.0690   48.3430 H   0  0  0  0  0  0  0  0  0  0  0  0
   34.5100   25.2740   44.2030 H   0  0  0  0  0  0  0  0  0  0  0  0
   33.0750   27.7260   48.5990 N   0  0  0  0  0  0  0  0  0  0  0  0
   33.6000   28.5580   48.9620 H   0  0  0  0  0  0  0  0  0  0  0  0
   32.2390   27.5790   49.2300 H   0  0  0  0  0  0  0  0  0  0  0  0
   32.1290   31.4340   45.4770 O   0  0  0  0  0  0  0  0  0  0  0  0
   32.3320   32.2110   43.2820 C   0  0  0  0  0  0  0  0  0  0  0  0
   31.5060   32.0530   44.4010 C   0  0  0  0  0  0  0  0  0  0  0  0
   30.2010   32.5150   44.3280 C   0  0  0  0  0  0  0  0  0  0  0  0
   29.6190   32.3620   45.2270 H   0  0  0  0  0  0  0  0  0  0  0  0
   29.7480   33.1090   43.1730 C   0  0  0  0  0  0  0  0  0  0  0  0
   28.7170   33.4540   43.1640 H   0  0  0  0  0  0  0  0  0  0  0  0
   30.5860   33.2420   42.1040 C   0  0  0  0  0  3  0  0  0  0  0  0
   31.8930   32.8050   42.1120 C   0  0  0  0  0  3  0  0  0  0  0  0
   34.8010   31.3830   43.2580 N   0  0  0  0  0  0  0  0  0  0  0  0
   33.7080   31.7580   43.2710 C   0  0  0  0  0  0  0  0  0  0  0  0
  2  1  2  6  0  0  0
  2  5  1  0  0  0  0
  2  3  1  0  0  0  0
  3  4  1  0  0  0  0
  5  6  1  0  0  0  0
  6  7  1  0  0  0  0
  7 14  1  0  0  0  0
  8  7  2  0  0  0  0
  8 12  1  0  0  0  0
  9  8  1  0  0  0  0
 10 11  1  0  0  0  0
 10  9  2  0  0  0  0
 11  6  2  0  0  0  0
 13 10  1  0  0  0  0
 14 15  1  0  0  0  0
 14 16  1  0  0  0  0
 17  2  1  0  0  0  0
 18 19  1  0  0  0  0
 19 17  1  0  0  0  0
 20 19  2  0  0  0  0
 20 21  1  0  0  0  0
 22 20  1  0  0  0  0
 23 22  1  0  0  0  0
 24 25  1  0  0  0  0
 24 22  2  0  0  0  0
 25 18  2  0  0  0  0
 26 27  3  0  0  0  0
 27 18  1  0  0  0  0
M  END
>  <minimizedAffinity>
-2.66879344

>  <minimizedRMSD>
5.29047346

$$$$
