
 OpenBabel03272507523D

 33 35  0  0  0  0  0  0  0  0999 V2000
   37.3180   31.2650   47.0960 N   0  0  0  0  0  0  0  0  0  0  0  0
   37.9450   32.1990   47.8060 C   0  0  0  0  0  0  0  0  0  0  0  0
   39.0280   32.8780   47.2450 C   0  0  0  0  0  0  0  0  0  0  0  0
   39.3510   32.5020   45.9770 C   0  0  0  0  0  0  0  0  0  0  0  0
   40.3390   33.1280   45.4800 O   0  0  0  0  0  0  0  0  0  0  0  0
   38.7540   31.5750   45.2350 N   0  0  0  0  0  0  0  0  0  0  0  0
   37.7110   30.9510   45.8290 C   0  0  0  0  0  0  0  0  0  0  0  0
   37.1240   30.0560   45.1290 O   0  0  0  0  0  0  0  0  0  0  0  0
   37.6140   32.4320   48.8130 H   0  0  0  0  0  0  0  0  0  0  0  0
   39.5480   33.6310   47.7910 H   0  0  0  0  0  0  0  0  0  0  0  0
   36.1230   30.3360   49.0010 C   0  0  0  0  0  0  0  0  0  0  0  0
   36.2010   30.5220   47.6030 C   0  0  0  0  0  0  0  0  0  0  0  0
   35.1960   29.9760   46.7850 C   0  0  0  0  0  0  0  0  0  0  0  0
   34.1950   29.2940   47.3920 N   0  0  0  0  0  0  0  0  0  0  0  0
   34.1240   29.1210   48.7010 C   0  0  0  0  0  0  0  0  0  0  0  0
   35.0790   29.6370   49.4970 N   0  0  0  0  0  0  0  0  0  0  0  0
   35.3080   30.1490   45.7340 H   0  0  0  0  0  0  0  0  0  0  0  0
   33.3020   28.5630   49.1540 H   0  0  0  0  0  0  0  0  0  0  0  0
   37.6540   30.3250   51.1100 C   0  0  0  0  0  0  0  0  0  0  0  0
   37.3780   29.1820   51.5310 O   0  0  0  0  0  0  0  0  0  0  0  0
   37.0720   30.8510   49.9070 N   0  0  0  0  0  0  0  0  0  0  0  0
   38.3540   30.8840   51.7090 H   0  0  0  0  0  0  0  0  0  0  0  0
   37.4710   31.8190   49.7020 H   0  0  0  0  0  0  0  0  0  0  0  0
   38.5080   31.6140   42.7450 C   0  0  0  0  0  0  0  0  0  0  0  0
   39.1490   31.2340   43.9100 C   0  0  0  0  0  0  0  0  0  0  0  0
   40.2870   30.4500   43.8980 C   0  0  0  0  0  0  0  0  0  0  0  0
   40.8400   30.1150   44.7580 H   0  0  0  0  0  0  0  0  0  0  0  0
   40.8130   30.0240   42.6750 C   0  0  0  0  0  0  0  0  0  0  0  0
   41.7050   29.4070   42.6200 H   0  0  0  0  0  0  0  0  0  0  0  0
   40.1680   30.4040   41.4920 C   0  0  0  0  0  3  0  0  0  0  0  0
   39.0230   31.1950   41.5300 C   0  0  0  0  0  3  0  0  0  0  0  0
   36.3860   33.0650   43.0040 N   0  0  0  0  0  0  0  0  0  0  0  0
   37.3410   32.4230   42.8920 C   0  0  0  0  0  0  0  0  0  0  0  0
  1 12  1  0  0  0  0
  1  2  1  0  0  0  0
  2  9  1  0  0  0  0
  3 10  1  0  0  0  0
  3  2  2  0  0  0  0
  4  3  1  0  0  0  0
  5  4  2  0  0  0  0
  6  7  1  0  0  0  0
  6  4  1  0  0  0  0
  7  1  1  0  0  0  0
  8  7  2  0  0  0  0
 11 16  1  0  0  0  0
 11 21  1  0  0  0  0
 12 11  2  0  0  0  0
 13 14  2  0  0  0  0
 13 12  1  0  0  0  0
 14 15  1  0  0  0  0
 15 18  1  0  0  0  0
 15 16  2  0  0  0  0
 17 13  1  0  0  0  0
 19 20  2  0  0  0  0
 19 22  1  0  0  0  0
 21 19  1  0  0  0  0
 23 21  1  0  0  0  0
 24 33  1  0  0  0  0
 24 25  1  0  0  0  0
 25  6  1  0  0  0  0
 26 25  2  0  0  0  0
 26 27  1  0  0  0  0
 28 26  1  0  0  0  0
 29 28  1  0  0  0  0
 30 31  1  0  0  0  0
 30 28  2  0  0  0  0
 31 24  2  0  0  0  0
 33 32  3  0  0  0  0
M  END
>  <minimizedAffinity>
-5.45940161

>  <minimizedRMSD>
3.11649871

$$$$
