
 OpenBabel03272501133D

 29 31  0  0  1  0  0  0  0  0999 V2000
   36.2760   27.9710   33.3590 C   0  0  1  0  0  0  0  0  0  0  0  0
   35.8110   29.3310   33.5120 C   0  0  1  0  0  0  0  0  0  0  0  0
   36.4240   28.9590   32.2050 C   0  0  0  0  0  0  0  0  0  0  0  0
   35.5920   27.1160   33.1840 H   0  0  0  0  0  0  0  0  0  0  0  0
   36.4810   29.9930   34.1480 H   0  0  0  0  0  0  0  0  0  0  0  0
   37.4360   29.3310   31.9550 H   0  0  0  0  0  0  0  0  0  0  0  0
   35.7500   28.7620   31.3600 H   0  0  0  0  0  0  0  0  0  0  0  0
   37.6090   27.5250   33.9150 C   0  0  0  0  0  0  0  0  0  0  0  0
   37.7280   27.5680   35.3050 C   0  0  0  0  0  0  0  0  0  0  0  0
   39.0050   27.1730   35.7750 C   0  0  0  0  0  0  0  0  0  0  0  0
   39.9960   26.7950   34.9230 N   0  0  0  0  0  0  0  0  0  0  0  0
   39.7980   26.7810   33.5790 C   0  0  0  0  0  0  0  0  0  0  0  0
   38.5740   27.1570   33.0890 N   0  0  0  0  0  0  0  0  0  0  0  0
   36.9820   27.8570   36.0070 H   0  0  0  0  0  0  0  0  0  0  0  0
   39.2580   27.1510   36.8220 H   0  0  0  0  0  0  0  0  0  0  0  0
   40.5510   26.4880   32.8630 H   0  0  0  0  0  0  0  0  0  0  0  0
   34.3220   29.5600   33.6340 C   0  0  0  0  0  0  0  0  0  0  0  0
   33.7510   28.6320   33.6160 H   0  0  0  0  0  0  0  0  0  0  0  0
   34.0290   30.2200   32.7760 H   0  0  0  0  0  0  0  0  0  0  0  0
   32.9430   30.3760   35.5980 C   0  0  0  0  0  0  0  0  0  0  0  0
   34.1140   30.3450   34.9010 C   0  0  0  0  0  0  0  0  0  0  0  0
   35.2250   31.0820   35.3230 C   0  0  0  0  0  0  0  0  0  0  0  0
   36.1690   31.0760   34.7850 H   0  0  0  0  0  0  0  0  0  0  0  0
   35.1790   31.8720   36.4660 C   0  0  0  0  0  0  0  0  0  0  0  0
   36.0500   32.4380   36.7790 H   0  0  0  0  0  0  0  0  0  0  0  0
   33.9960   31.8950   37.1600 C   0  0  0  0  0  3  0  0  0  0  0  0
   32.8980   31.1570   36.7310 C   0  0  0  0  0  3  0  0  0  0  0  0
   30.9130   28.9750   34.7740 N   0  0  0  0  0  0  0  0  0  0  0  0
   31.8250   29.6050   35.1530 C   0  0  0  0  0  0  0  0  0  0  0  0
  1  4  1  6  0  0  0
  1  2  1  0  0  0  0
  1  8  1  0  0  0  0
  2 17  1  0  0  0  0
  2  5  1  1  0  0  0
  3  1  1  0  0  0  0
  3  2  1  0  0  0  0
  6  3  1  0  0  0  0
  7  3  1  0  0  0  0
  8  9  1  0  0  0  0
  9 10  2  0  0  0  0
  9 14  1  0  0  0  0
 10 15  1  0  0  0  0
 11 10  1  0  0  0  0
 12 11  2  0  0  0  0
 13 12  1  0  0  0  0
 13  8  2  0  0  0  0
 16 12  1  0  0  0  0
 17 21  1  0  0  0  0
 18 17  1  0  0  0  0
 19 17  1  0  0  0  0
 20 27  1  0  0  0  0
 21 22  1  0  0  0  0
 21 20  2  0  0  0  0
 22 24  2  0  0  0  0
 23 22  1  0  0  0  0
 24 25  1  0  0  0  0
 24 26  1  0  0  0  0
 27 26  2  0  0  0  0
 28 29  3  0  0  0  0
 29 20  1  0  0  0  0
M  END
>  <minimizedAffinity>
-4.81021404

$$$$

 OpenBabel03272501133D

 29 31  0  0  1  0  0  0  0  0999 V2000
   38.5770   22.6460   33.0640 C   0  0  1  0  0  0  0  0  0  0  0  0
   39.4310   22.1490   34.1180 C   0  0  1  0  0  0  0  0  0  0  0  0
   39.7650   21.7530   32.7210 C   0  0  0  0  0  0  0  0  0  0  0  0
   38.6260   23.6880   32.6900 H   0  0  0  0  0  0  0  0  0  0  0  0
   38.9870   21.3000   34.7300 H   0  0  0  0  0  0  0  0  0  0  0  0
   39.5680   20.7150   32.3900 H   0  0  0  0  0  0  0  0  0  0  0  0
   40.5900   22.2800   32.2220 H   0  0  0  0  0  0  0  0  0  0  0  0
   37.2510   21.9920   32.7490 C   0  0  0  0  0  0  0  0  0  0  0  0
   36.6680   21.2750   33.7950 C   0  0  0  0  0  0  0  0  0  0  0  0
   35.4440   20.6540   33.4410 C   0  0  0  0  0  0  0  0  0  0  0  0
   34.9190   20.7670   32.1910 N   0  0  0  0  0  0  0  0  0  0  0  0
   35.5510   21.4870   31.2270 C   0  0  0  0  0  0  0  0  0  0  0  0
   36.7380   22.1020   31.5350 N   0  0  0  0  0  0  0  0  0  0  0  0
   37.0430   21.1590   34.7840 H   0  0  0  0  0  0  0  0  0  0  0  0
   34.8700   20.0630   34.1350 H   0  0  0  0  0  0  0  0  0  0  0  0
   35.1750   21.6080   30.2230 H   0  0  0  0  0  0  0  0  0  0  0  0
   40.2840   23.1470   34.8680 C   0  0  0  0  0  0  0  0  0  0  0  0
   40.4790   24.0500   34.2900 H   0  0  0  0  0  0  0  0  0  0  0  0
   41.2430   22.6240   35.1170 H   0  0  0  0  0  0  0  0  0  0  0  0
   39.8820   22.8370   37.3510 C   0  0  0  0  0  0  0  0  0  0  0  0
   39.5710   23.4290   36.1630 C   0  0  0  0  0  0  0  0  0  0  0  0
   38.5220   24.3490   36.0670 C   0  0  0  0  0  0  0  0  0  0  0  0
   38.2530   24.8330   35.1320 H   0  0  0  0  0  0  0  0  0  0  0  0
   37.7580   24.6950   37.1760 C   0  0  0  0  0  0  0  0  0  0  0  0
   36.9480   25.4100   37.0840 H   0  0  0  0  0  0  0  0  0  0  0  0
   38.0800   24.0940   38.3660 C   0  0  0  0  0  3  0  0  0  0  0  0
   39.1260   23.1810   38.4490 C   0  0  0  0  0  3  0  0  0  0  0  0
   41.8520   21.1440   37.4730 N   0  0  0  0  0  0  0  0  0  0  0  0
   40.9650   21.9090   37.4260 C   0  0  0  0  0  0  0  0  0  0  0  0
  1  4  1  6  0  0  0
  1  2  1  0  0  0  0
  2  5  1  1  0  0  0
  2 17  1  0  0  0  0
  3  1  1  0  0  0  0
  3  2  1  0  0  0  0
  6  3  1  0  0  0  0
  7  3  1  0  0  0  0
  8  1  1  0  0  0  0
  8  9  1  0  0  0  0
  9 14  1  0  0  0  0
 10  9  2  0  0  0  0
 10 15  1  0  0  0  0
 11 10  1  0  0  0  0
 12 13  1  0  0  0  0
 12 11  2  0  0  0  0
 13  8  2  0  0  0  0
 16 12  1  0  0  0  0
 17 19  1  0  0  0  0
 17 21  1  0  0  0  0
 18 17  1  0  0  0  0
 20 29  1  0  0  0  0
 20 27  1  0  0  0  0
 21 20  2  0  0  0  0
 22 21  1  0  0  0  0
 22 24  2  0  0  0  0
 23 22  1  0  0  0  0
 24 26  1  0  0  0  0
 25 24  1  0  0  0  0
 26 27  2  0  0  0  0
 29 28  3  0  0  0  0
M  END
>  <minimizedAffinity>
-4.75465679

$$$$

 OpenBabel03272501133D

 29 31  0  0  1  0  0  0  0  0999 V2000
   36.5640   28.3090   33.0280 C   0  0  1  0  0  0  0  0  0  0  0  0
   35.4750   28.9170   33.7570 C   0  0  1  0  0  0  0  0  0  0  0  0
   36.5130   28.1980   34.5490 C   0  0  0  0  0  0  0  0  0  0  0  0
   37.4090   28.8910   32.6090 H   0  0  0  0  0  0  0  0  0  0  0  0
   34.4890   28.3540   33.6970 H   0  0  0  0  0  0  0  0  0  0  0  0
   36.2680   27.2180   35.0000 H   0  0  0  0  0  0  0  0  0  0  0  0
   37.2720   28.8020   35.0660 H   0  0  0  0  0  0  0  0  0  0  0  0
   36.4050   26.9690   32.3450 C   0  0  0  0  0  0  0  0  0  0  0  0
   37.4150   26.0390   32.5980 C   0  0  0  0  0  0  0  0  0  0  0  0
   37.2390   24.8130   31.9100 C   0  0  0  0  0  0  0  0  0  0  0  0
   36.1750   24.5990   31.0900 N   0  0  0  0  0  0  0  0  0  0  0  0
   35.2330   25.5580   30.8980 C   0  0  0  0  0  0  0  0  0  0  0  0
   35.3720   26.7580   31.5480 N   0  0  0  0  0  0  0  0  0  0  0  0
   38.2630   26.1650   33.2290 H   0  0  0  0  0  0  0  0  0  0  0  0
   37.9320   23.9920   31.9990 H   0  0  0  0  0  0  0  0  0  0  0  0
   34.3710   25.4360   30.2590 H   0  0  0  0  0  0  0  0  0  0  0  0
   35.3910   30.4260   33.7750 C   0  0  0  0  0  0  0  0  0  0  0  0
   34.9950   30.8360   32.8470 H   0  0  0  0  0  0  0  0  0  0  0  0
   36.4320   30.8010   33.9590 H   0  0  0  0  0  0  0  0  0  0  0  0
   34.8820   31.7800   35.8570 C   0  0  0  0  0  0  0  0  0  0  0  0
   34.5580   30.7930   34.9740 C   0  0  0  0  0  0  0  0  0  0  0  0
   33.4050   30.0210   35.1460 C   0  0  0  0  0  0  0  0  0  0  0  0
   33.1260   29.2270   34.4580 H   0  0  0  0  0  0  0  0  0  0  0  0
   32.5470   30.2280   36.2190 C   0  0  0  0  0  0  0  0  0  0  0  0
   31.6570   29.6200   36.3370 H   0  0  0  0  0  0  0  0  0  0  0  0
   32.8820   31.2240   37.1010 C   0  0  0  0  0  3  0  0  0  0  0  0
   34.0310   31.9860   36.9190 C   0  0  0  0  0  3  0  0  0  0  0  0
   37.0200   33.2160   35.4950 N   0  0  0  0  0  0  0  0  0  0  0  0
   36.0600   32.5630   35.6540 C   0  0  0  0  0  0  0  0  0  0  0  0
  1  4  1  6  0  0  0
  1  2  1  0  0  0  0
  1  3  1  0  0  0  0
  2  5  1  6  0  0  0
  2 17  1  0  0  0  0
  2  3  1  0  0  0  0
  3  6  1  0  0  0  0
  3  7  1  0  0  0  0
  8  9  1  0  0  0  0
  8  1  1  0  0  0  0
  9 14  1  0  0  0  0
 10 15  1  0  0  0  0
 10  9  2  0  0  0  0
 11 10  1  0  0  0  0
 12 11  2  0  0  0  0
 12 13  1  0  0  0  0
 13  8  2  0  0  0  0
 16 12  1  0  0  0  0
 17 19  1  0  0  0  0
 17 21  1  0  0  0  0
 18 17  1  0  0  0  0
 20 27  1  0  0  0  0
 21 22  1  0  0  0  0
 21 20  2  0  0  0  0
 22 24  2  0  0  0  0
 23 22  1  0  0  0  0
 24 25  1  0  0  0  0
 24 26  1  0  0  0  0
 27 26  2  0  0  0  0
 28 29  3  0  0  0  0
 29 20  1  0  0  0  0
M  END
>  <minimizedAffinity>
-4.74298954

$$$$

 OpenBabel03272501133D

 29 31  0  0  1  0  0  0  0  0999 V2000
   39.2420   25.4490   34.4210 C   0  0  1  0  0  0  0  0  0  0  0  0
   38.5430   26.6970   34.2140 C   0  0  1  0  0  0  0  0  0  0  0  0
   39.9500   26.7720   34.7000 C   0  0  0  0  0  0  0  0  0  0  0  0
   39.6520   24.8430   33.5890 H   0  0  0  0  0  0  0  0  0  0  0  0
   37.7780   26.9520   35.0160 H   0  0  0  0  0  0  0  0  0  0  0  0
   40.1460   27.0560   35.7510 H   0  0  0  0  0  0  0  0  0  0  0  0
   40.7310   27.0220   33.9690 H   0  0  0  0  0  0  0  0  0  0  0  0
   39.0370   24.6280   35.6740 C   0  0  0  0  0  0  0  0  0  0  0  0
   37.8990   24.9390   36.4200 C   0  0  0  0  0  0  0  0  0  0  0  0
   37.7680   24.1660   37.6000 C   0  0  0  0  0  0  0  0  0  0  0  0
   38.6840   23.2200   37.9410 N   0  0  0  0  0  0  0  0  0  0  0  0
   39.7670   22.9770   37.1580 C   0  0  0  0  0  0  0  0  0  0  0  0
   39.9260   23.7080   36.0070 N   0  0  0  0  0  0  0  0  0  0  0  0
   37.1590   25.6700   36.1920 H   0  0  0  0  0  0  0  0  0  0  0  0
   36.9440   24.2850   38.2840 H   0  0  0  0  0  0  0  0  0  0  0  0
   40.5200   22.2380   37.3850 H   0  0  0  0  0  0  0  0  0  0  0  0
   38.1890   27.0820   32.7960 C   0  0  0  0  0  0  0  0  0  0  0  0
   37.9670   26.2190   32.1690 H   0  0  0  0  0  0  0  0  0  0  0  0
   39.0670   27.6480   32.3900 H   0  0  0  0  0  0  0  0  0  0  0  0
   36.5300   28.7390   31.8330 C   0  0  0  0  0  0  0  0  0  0  0  0
   37.0350   28.0430   32.8910 C   0  0  0  0  0  0  0  0  0  0  0  0
   36.5080   28.2020   34.1760 C   0  0  0  0  0  0  0  0  0  0  0  0
   36.8930   27.6610   35.0370 H   0  0  0  0  0  0  0  0  0  0  0  0
   35.4510   29.0710   34.4260 C   0  0  0  0  0  0  0  0  0  0  0  0
   35.0550   29.1810   35.4290 H   0  0  0  0  0  0  0  0  0  0  0  0
   34.9510   29.7650   33.3530 C   0  0  0  0  0  3  0  0  0  0  0  0
   35.4830   29.5990   32.0790 C   0  0  0  0  0  3  0  0  0  0  0  0
   37.5220   28.4110   29.4520 N   0  0  0  0  0  0  0  0  0  0  0  0
   37.0780   28.5520   30.5270 C   0  0  0  0  0  0  0  0  0  0  0  0
  1  4  1  6  0  0  0
  1  3  1  0  0  0  0
  1  8  1  0  0  0  0
  2  1  1  0  0  0  0
  2  3  1  0  0  0  0
  2  5  1  1  0  0  0
  3  6  1  0  0  0  0
  7  3  1  0  0  0  0
  8 13  2  0  0  0  0
  8  9  1  0  0  0  0
  9 10  2  0  0  0  0
 10 11  1  0  0  0  0
 10 15  1  0  0  0  0
 12 16  1  0  0  0  0
 12 11  2  0  0  0  0
 13 12  1  0  0  0  0
 14  9  1  0  0  0  0
 17 21  1  0  0  0  0
 17  2  1  0  0  0  0
 18 17  1  0  0  0  0
 19 17  1  0  0  0  0
 20 27  2  0  0  0  0
 20 21  1  0  0  0  0
 21 22  2  0  0  0  0
 22 24  1  0  0  0  0
 22 23  1  0  0  0  0
 24 25  1  0  0  0  0
 26 24  2  0  0  0  0
 27 26  1  0  0  0  0
 28 29  3  0  0  0  0
 29 20  1  0  0  0  0
M  END
>  <minimizedAffinity>
-4.71954727

$$$$

 OpenBabel03272501133D

 29 31  0  0  1  0  0  0  0  0999 V2000
   35.7950   29.1590   33.9840 C   0  0  1  0  0  0  0  0  0  0  0  0
   35.6110   30.5280   34.4060 C   0  0  1  0  0  0  0  0  0  0  0  0
   34.3850   29.7190   34.1500 C   0  0  0  0  0  0  0  0  0  0  0  0
   36.0820   28.3460   34.6810 H   0  0  0  0  0  0  0  0  0  0  0  0
   35.8110   31.3050   33.6010 H   0  0  0  0  0  0  0  0  0  0  0  0
   33.7850   29.9180   33.2420 H   0  0  0  0  0  0  0  0  0  0  0  0
   33.8450   29.3190   35.0190 H   0  0  0  0  0  0  0  0  0  0  0  0
   36.1140   28.8120   32.5480 C   0  0  0  0  0  0  0  0  0  0  0  0
   36.4230   29.8920   31.7200 C   0  0  0  0  0  0  0  0  0  0  0  0
   36.6820   29.5200   30.3780 C   0  0  0  0  0  0  0  0  0  0  0  0
   36.6240   28.2230   29.9710 N   0  0  0  0  0  0  0  0  0  0  0  0
   36.3160   27.2280   30.8420 C   0  0  0  0  0  0  0  0  0  0  0  0
   36.0590   27.5520   32.1500 N   0  0  0  0  0  0  0  0  0  0  0  0
   36.4780   30.9190   31.9950 H   0  0  0  0  0  0  0  0  0  0  0  0
   36.9360   30.2370   29.6140 H   0  0  0  0  0  0  0  0  0  0  0  0
   36.2590   26.1850   30.5680 H   0  0  0  0  0  0  0  0  0  0  0  0
   36.0190   30.8950   35.8150 C   0  0  0  0  0  0  0  0  0  0  0  0
   37.0600   30.6530   36.0270 H   0  0  0  0  0  0  0  0  0  0  0  0
   35.3350   30.3330   36.5020 H   0  0  0  0  0  0  0  0  0  0  0  0
   34.5900   32.8500   36.5650 C   0  0  0  0  0  0  0  0  0  0  0  0
   35.7190   32.3610   35.9770 C   0  0  0  0  0  0  0  0  0  0  0  0
   36.6900   33.2200   35.4520 C   0  0  0  0  0  0  0  0  0  0  0  0
   37.5970   32.8560   34.9770 H   0  0  0  0  0  0  0  0  0  0  0  0
   36.5430   34.6020   35.5090 C   0  0  0  0  0  0  0  0  0  0  0  0
   37.3050   35.2530   35.0960 H   0  0  0  0  0  0  0  0  0  0  0  0
   35.4040   35.0820   36.1030 C   0  0  0  0  0  3  0  0  0  0  0  0
   34.4460   34.2180   36.6220 C   0  0  0  0  0  3  0  0  0  0  0  0
   32.8320   31.2080   37.5510 N   0  0  0  0  0  0  0  0  0  0  0  0
   33.6190   31.9520   37.1040 C   0  0  0  0  0  0  0  0  0  0  0  0
  1  3  1  0  0  0  0
  1  2  1  0  0  0  0
  1  4  1  1  0  0  0
  2  5  1  6  0  0  0
  2 17  1  0  0  0  0
  3  2  1  0  0  0  0
  3  7  1  0  0  0  0
  6  3  1  0  0  0  0
  8  1  1  0  0  0  0
  9 14  1  0  0  0  0
  9  8  2  0  0  0  0
 10  9  1  0  0  0  0
 11 10  2  0  0  0  0
 11 12  1  0  0  0  0
 12 13  2  0  0  0  0
 13  8  1  0  0  0  0
 15 10  1  0  0  0  0
 16 12  1  0  0  0  0
 17 21  1  0  0  0  0
 17 18  1  0  0  0  0
 17 19  1  0  0  0  0
 20 27  1  0  0  0  0
 20 29  1  0  0  0  0
 21 20  2  0  0  0  0
 22 24  2  0  0  0  0
 22 21  1  0  0  0  0
 23 22  1  0  0  0  0
 24 26  1  0  0  0  0
 25 24  1  0  0  0  0
 26 27  2  0  0  0  0
 29 28  3  0  0  0  0
M  END
>  <minimizedAffinity>
-4.71408987

$$$$

 OpenBabel03272501133D

 29 31  0  0  1  0  0  0  0  0999 V2000
   36.6870   28.2350   32.8590 C   0  0  1  0  0  0  0  0  0  0  0  0
   35.5560   28.9040   33.4620 C   0  0  1  0  0  0  0  0  0  0  0  0
   36.4890   28.1790   34.3710 C   0  0  0  0  0  0  0  0  0  0  0  0
   37.5880   28.7750   32.5050 H   0  0  0  0  0  0  0  0  0  0  0  0
   34.5610   28.3730   33.3250 H   0  0  0  0  0  0  0  0  0  0  0  0
   36.1670   27.2230   34.8270 H   0  0  0  0  0  0  0  0  0  0  0  0
   37.2170   28.7740   34.9390 H   0  0  0  0  0  0  0  0  0  0  0  0
   36.5440   26.8800   32.2060 C   0  0  0  0  0  0  0  0  0  0  0  0
   37.6530   26.0390   32.3130 C   0  0  0  0  0  0  0  0  0  0  0  0
   37.4840   24.7940   31.6570 C   0  0  0  0  0  0  0  0  0  0  0  0
   36.3360   24.4840   30.9960 N   0  0  0  0  0  0  0  0  0  0  0  0
   35.3000   25.3600   30.9390 C   0  0  0  0  0  0  0  0  0  0  0  0
   35.4300   26.5750   31.5620 N   0  0  0  0  0  0  0  0  0  0  0  0
   38.5680   26.2400   32.8170 H   0  0  0  0  0  0  0  0  0  0  0  0
   38.2470   24.0330   31.6470 H   0  0  0  0  0  0  0  0  0  0  0  0
   34.3700   25.1610   30.4290 H   0  0  0  0  0  0  0  0  0  0  0  0
   35.5270   30.4160   33.4250 C   0  0  0  0  0  0  0  0  0  0  0  0
   35.0750   30.8040   32.5130 H   0  0  0  0  0  0  0  0  0  0  0  0
   36.5910   30.7580   33.5150 H   0  0  0  0  0  0  0  0  0  0  0  0
   33.4590   30.7200   34.8580 C   0  0  0  0  0  0  0  0  0  0  0  0
   34.8020   30.8580   34.6670 C   0  0  0  0  0  0  0  0  0  0  0  0
   35.6110   31.4570   35.6370 C   0  0  0  0  0  0  0  0  0  0  0  0
   36.6830   31.5800   35.5080 H   0  0  0  0  0  0  0  0  0  0  0  0
   35.0810   31.9340   36.8310 C   0  0  0  0  0  0  0  0  0  0  0  0
   35.7240   32.3960   37.5720 H   0  0  0  0  0  0  0  0  0  0  0  0
   33.7290   31.7900   37.0120 C   0  0  0  0  0  3  0  0  0  0  0  0
   32.9340   31.1910   36.0410 C   0  0  0  0  0  3  0  0  0  0  0  0
   31.9850   29.5770   33.0470 N   0  0  0  0  0  0  0  0  0  0  0  0
   32.6550   30.0940   33.8580 C   0  0  0  0  0  0  0  0  0  0  0  0
  1  4  1  6  0  0  0
  1  2  1  0  0  0  0
  1  3  1  0  0  0  0
  2  5  1  6  0  0  0
  2  3  1  0  0  0  0
  3  6  1  0  0  0  0
  3  7  1  0  0  0  0
  8  9  1  0  0  0  0
  8  1  1  0  0  0  0
  9 14  1  0  0  0  0
 10  9  2  0  0  0  0
 11 10  1  0  0  0  0
 12 11  2  0  0  0  0
 12 13  1  0  0  0  0
 13  8  2  0  0  0  0
 15 10  1  0  0  0  0
 16 12  1  0  0  0  0
 17  2  1  0  0  0  0
 17 19  1  0  0  0  0
 17 21  1  0  0  0  0
 18 17  1  0  0  0  0
 20 27  1  0  0  0  0
 21 20  2  0  0  0  0
 21 22  1  0  0  0  0
 22 24  2  0  0  0  0
 23 22  1  0  0  0  0
 24 26  1  0  0  0  0
 24 25  1  0  0  0  0
 27 26  2  0  0  0  0
 28 29  3  0  0  0  0
 29 20  1  0  0  0  0
M  END
>  <minimizedAffinity>
-4.69730139

$$$$

 OpenBabel03272501133D

 29 31  0  0  1  0  0  0  0  0999 V2000
   35.5240   30.2470   33.1200 C   0  0  1  0  0  0  0  0  0  0  0  0
   35.5770   28.8610   33.5250 C   0  0  1  0  0  0  0  0  0  0  0  0
   34.2740   29.3780   33.0190 C   0  0  0  0  0  0  0  0  0  0  0  0
   35.9430   30.6110   32.1600 H   0  0  0  0  0  0  0  0  0  0  0  0
   35.5870   28.6940   34.6490 H   0  0  0  0  0  0  0  0  0  0  0  0
   33.4480   29.5560   33.7340 H   0  0  0  0  0  0  0  0  0  0  0  0
   33.9880   29.1260   31.9890 H   0  0  0  0  0  0  0  0  0  0  0  0
   35.3760   31.3590   34.1320 C   0  0  0  0  0  0  0  0  0  0  0  0
   35.7590   31.0430   35.4370 C   0  0  0  0  0  0  0  0  0  0  0  0
   35.5700   32.1070   36.3550 C   0  0  0  0  0  0  0  0  0  0  0  0
   35.0620   33.3070   35.9650 N   0  0  0  0  0  0  0  0  0  0  0  0
   34.7140   33.5350   34.6720 C   0  0  0  0  0  0  0  0  0  0  0  0
   34.8820   32.5270   33.7560 N   0  0  0  0  0  0  0  0  0  0  0  0
   36.1580   30.1210   35.7860 H   0  0  0  0  0  0  0  0  0  0  0  0
   35.8160   32.0230   37.4000 H   0  0  0  0  0  0  0  0  0  0  0  0
   34.3080   34.4690   34.3140 H   0  0  0  0  0  0  0  0  0  0  0  0
   36.4120   27.9130   32.6940 C   0  0  0  0  0  0  0  0  0  0  0  0
   36.6940   28.3360   31.7310 H   0  0  0  0  0  0  0  0  0  0  0  0
   35.7960   26.9860   32.5520 H   0  0  0  0  0  0  0  0  0  0  0  0
   38.8100   27.1660   33.0300 C   0  0  0  0  0  0  0  0  0  0  0  0
   37.6020   27.5420   33.5370 C   0  0  0  0  0  0  0  0  0  0  0  0
   37.3810   27.5890   34.9170 C   0  0  0  0  0  0  0  0  0  0  0  0
   36.4270   27.8840   35.3460 H   0  0  0  0  0  0  0  0  0  0  0  0
   38.3810   27.2550   35.8230 C   0  0  0  0  0  0  0  0  0  0  0  0
   38.1920   27.2960   36.8900 H   0  0  0  0  0  0  0  0  0  0  0  0
   39.5920   26.8770   35.3020 C   0  0  0  0  0  3  0  0  0  0  0  0
   39.8010   26.8360   33.9280 C   0  0  0  0  0  3  0  0  0  0  0  0
   39.1980   27.1160   30.4590 N   0  0  0  0  0  0  0  0  0  0  0  0
   39.0150   27.1370   31.6170 C   0  0  0  0  0  0  0  0  0  0  0  0
  1  4  1  6  0  0  0
  1  2  1  0  0  0  0
  1  8  1  0  0  0  0
  2  5  1  1  0  0  0
  3  1  1  0  0  0  0
  3  2  1  0  0  0  0
  3  6  1  0  0  0  0
  7  3  1  0  0  0  0
  8  9  1  0  0  0  0
  9 14  1  0  0  0  0
  9 10  2  0  0  0  0
 10 15  1  0  0  0  0
 11 10  1  0  0  0  0
 12 11  2  0  0  0  0
 13  8  2  0  0  0  0
 13 12  1  0  0  0  0
 16 12  1  0  0  0  0
 17  2  1  0  0  0  0
 17 21  1  0  0  0  0
 18 17  1  0  0  0  0
 19 17  1  0  0  0  0
 20 21  2  0  0  0  0
 20 27  1  0  0  0  0
 21 22  1  0  0  0  0
 22 23  1  0  0  0  0
 22 24  2  0  0  0  0
 24 25  1  0  0  0  0
 26 24  1  0  0  0  0
 27 26  2  0  0  0  0
 28 29  3  0  0  0  0
 29 20  1  0  0  0  0
M  END
>  <minimizedAffinity>
-4.66187382

$$$$

 OpenBabel03272501133D

 29 31  0  0  1  0  0  0  0  0999 V2000
   37.1270   24.4120   31.4610 C   0  0  1  0  0  0  0  0  0  0  0  0
   38.4640   24.9300   31.6460 C   0  0  1  0  0  0  0  0  0  0  0  0
   38.1710   24.2330   30.3620 C   0  0  0  0  0  0  0  0  0  0  0  0
   36.2610   25.0560   31.2110 H   0  0  0  0  0  0  0  0  0  0  0  0
   39.1170   24.3190   32.3480 H   0  0  0  0  0  0  0  0  0  0  0  0
   38.5860   23.2220   30.1860 H   0  0  0  0  0  0  0  0  0  0  0  0
   37.9920   24.8520   29.4720 H   0  0  0  0  0  0  0  0  0  0  0  0
   36.6990   23.0980   32.0720 C   0  0  0  0  0  0  0  0  0  0  0  0
   35.5780   22.5000   31.4930 C   0  0  0  0  0  0  0  0  0  0  0  0
   35.1960   21.2880   32.1210 C   0  0  0  0  0  0  0  0  0  0  0  0
   35.8810   20.7860   33.1840 N   0  0  0  0  0  0  0  0  0  0  0  0
   36.9650   21.4300   33.6870 C   0  0  0  0  0  0  0  0  0  0  0  0
   37.3630   22.6070   33.1050 N   0  0  0  0  0  0  0  0  0  0  0  0
   35.0130   22.8570   30.6650 H   0  0  0  0  0  0  0  0  0  0  0  0
   34.3510   20.7050   31.7940 H   0  0  0  0  0  0  0  0  0  0  0  0
   37.5420   21.0720   34.5270 H   0  0  0  0  0  0  0  0  0  0  0  0
   38.6410   26.4310   31.6930 C   0  0  0  0  0  0  0  0  0  0  0  0
   37.9720   26.9530   31.0110 H   0  0  0  0  0  0  0  0  0  0  0  0
   39.7110   26.6340   31.4290 H   0  0  0  0  0  0  0  0  0  0  0  0
   37.3420   27.4990   33.5900 C   0  0  0  0  0  0  0  0  0  0  0  0
   38.4420   26.8380   33.1280 C   0  0  0  0  0  0  0  0  0  0  0  0
   39.4960   26.5060   33.9840 C   0  0  0  0  0  0  0  0  0  0  0  0
   40.3850   25.9820   33.6410 H   0  0  0  0  0  0  0  0  0  0  0  0
   39.4660   26.8350   35.3340 C   0  0  0  0  0  0  0  0  0  0  0  0
   40.2930   26.5700   35.9840 H   0  0  0  0  0  0  0  0  0  0  0  0
   38.3540   27.4990   35.7880 C   0  0  0  0  0  3  0  0  0  0  0  0
   37.3110   27.8230   34.9280 C   0  0  0  0  0  3  0  0  0  0  0  0
   35.4000   28.0680   31.9570 N   0  0  0  0  0  0  0  0  0  0  0  0
   36.2720   27.8170   32.6980 C   0  0  0  0  0  0  0  0  0  0  0  0
  1  4  1  6  0  0  0
  1  2  1  0  0  0  0
  1  8  1  0  0  0  0
  2 17  1  0  0  0  0
  2  5  1  1  0  0  0
  3  1  1  0  0  0  0
  3  2  1  0  0  0  0
  6  3  1  0  0  0  0
  7  3  1  0  0  0  0
  8 13  1  0  0  0  0
  9  8  2  0  0  0  0
  9 10  1  0  0  0  0
 10 11  2  0  0  0  0
 11 12  1  0  0  0  0
 12 16  1  0  0  0  0
 13 12  2  0  0  0  0
 14  9  1  0  0  0  0
 15 10  1  0  0  0  0
 17 21  1  0  0  0  0
 18 17  1  0  0  0  0
 19 17  1  0  0  0  0
 20 27  1  0  0  0  0
 21 20  2  0  0  0  0
 21 22  1  0  0  0  0
 22 24  2  0  0  0  0
 23 22  1  0  0  0  0
 24 26  1  0  0  0  0
 24 25  1  0  0  0  0
 27 26  2  0  0  0  0
 28 29  3  0  0  0  0
 29 20  1  0  0  0  0
M  END
>  <minimizedAffinity>
-4.63938379

$$$$

 OpenBabel03272501133D

 29 31  0  0  1  0  0  0  0  0999 V2000
   39.6150   25.3070   34.5380 C   0  0  1  0  0  0  0  0  0  0  0  0
   38.7370   26.3190   33.9970 C   0  0  1  0  0  0  0  0  0  0  0  0
   39.8670   26.7790   34.8530 C   0  0  0  0  0  0  0  0  0  0  0  0
   40.3920   24.7980   33.9350 H   0  0  0  0  0  0  0  0  0  0  0  0
   37.7260   26.3960   34.5110 H   0  0  0  0  0  0  0  0  0  0  0  0
   39.6580   27.1440   35.8770 H   0  0  0  0  0  0  0  0  0  0  0  0
   40.7520   27.1970   34.3530 H   0  0  0  0  0  0  0  0  0  0  0  0
   39.2370   24.5100   35.7660 C   0  0  0  0  0  0  0  0  0  0  0  0
   38.0030   24.8270   36.3350 C   0  0  0  0  0  0  0  0  0  0  0  0
   37.7080   24.0760   37.5010 C   0  0  0  0  0  0  0  0  0  0  0  0
   38.5710   23.1440   37.9880 N   0  0  0  0  0  0  0  0  0  0  0  0
   39.7550   22.8940   37.3730 C   0  0  0  0  0  0  0  0  0  0  0  0
   40.0740   23.6030   36.2420 N   0  0  0  0  0  0  0  0  0  0  0  0
   37.2990   25.5470   35.9900 H   0  0  0  0  0  0  0  0  0  0  0  0
   36.7950   24.2020   38.0580 H   0  0  0  0  0  0  0  0  0  0  0  0
   40.4720   22.1650   37.7190 H   0  0  0  0  0  0  0  0  0  0  0  0
   38.7540   26.5440   32.5020 C   0  0  0  0  0  0  0  0  0  0  0  0
   39.6400   26.1280   32.0250 H   0  0  0  0  0  0  0  0  0  0  0  0
   38.7060   27.6530   32.3460 H   0  0  0  0  0  0  0  0  0  0  0  0
   36.4260   26.6950   31.5110 C   0  0  0  0  0  0  0  0  0  0  0  0
   37.4760   25.9550   31.9690 C   0  0  0  0  0  0  0  0  0  0  0  0
   37.4190   24.5580   31.9910 C   0  0  0  0  0  0  0  0  0  0  0  0
   38.2410   23.9460   32.3520 H   0  0  0  0  0  0  0  0  0  0  0  0
   36.2950   23.8710   31.5480 C   0  0  0  0  0  0  0  0  0  0  0  0
   36.2680   22.7870   31.5730 H   0  0  0  0  0  0  0  0  0  0  0  0
   35.2440   24.6250   31.0900 C   0  0  0  0  0  3  0  0  0  0  0  0
   35.3120   26.0140   31.0720 C   0  0  0  0  0  3  0  0  0  0  0  0
   36.5690   29.2910   31.4750 N   0  0  0  0  0  0  0  0  0  0  0  0
   36.5120   28.1210   31.4880 C   0  0  0  0  0  0  0  0  0  0  0  0
  1  4  1  6  0  0  0
  1  3  1  0  0  0  0
  1  8  1  0  0  0  0
  2  5  1  1  0  0  0
  2  1  1  0  0  0  0
  2  3  1  0  0  0  0
  3  6  1  0  0  0  0
  7  3  1  0  0  0  0
  8 13  2  0  0  0  0
  8  9  1  0  0  0  0
  9 10  2  0  0  0  0
 10 11  1  0  0  0  0
 10 15  1  0  0  0  0
 12 16  1  0  0  0  0
 12 11  2  0  0  0  0
 13 12  1  0  0  0  0
 14  9  1  0  0  0  0
 17  2  1  0  0  0  0
 18 17  1  0  0  0  0
 19 17  1  0  0  0  0
 20 21  1  0  0  0  0
 21 22  2  0  0  0  0
 21 17  1  0  0  0  0
 22 23  1  0  0  0  0
 24 25  1  0  0  0  0
 24 22  1  0  0  0  0
 26 24  2  0  0  0  0
 27 26  1  0  0  0  0
 27 20  2  0  0  0  0
 28 29  3  0  0  0  0
 29 20  1  0  0  0  0
M  END
>  <minimizedAffinity>
-4.62908983

$$$$
