
 OpenBabel03272503123D

 47 51  0  0  0  0  0  0  0  0999 V2000
   39.2120   32.1770   42.4510 C   0  0  0  0  0  0  0  0  0  0  0  0
   39.7700   31.5080   43.5130 C   0  0  0  0  0  0  0  0  0  0  0  0
   40.6710   30.4760   43.3550 C   0  0  0  0  0  0  0  0  0  0  0  0
   41.0400   30.0870   42.0610 C   0  0  0  0  0  0  0  0  0  0  0  0
   41.8650   29.1510   41.6040 N   0  0  0  0  0  0  0  0  0  0  0  0
   41.8450   29.2090   40.2800 C   0  0  0  0  0  0  0  0  0  0  0  0
   41.0010   30.1890   39.8940 N   0  0  0  0  0  0  0  0  0  0  0  0
   40.4710   30.7710   40.9970 C   0  0  0  0  0  0  0  0  0  0  0  0
   39.5680   31.8030   41.1480 C   0  0  0  0  0  0  0  0  0  0  0  0
   38.5110   32.9960   42.6580 H   0  0  0  0  0  0  0  0  0  0  0  0
   41.1010   29.9590   44.1970 H   0  0  0  0  0  0  0  0  0  0  0  0
   42.4310   28.4850   42.1860 H   0  0  0  0  0  0  0  0  0  0  0  0
   42.4260   28.5580   39.6270 H   0  0  0  0  0  0  0  0  0  0  0  0
   39.3780   31.9190   44.8430 C   0  0  0  0  0  0  0  0  0  0  0  0
   38.2610   32.5390   44.9780 O   0  0  0  0  0  0  0  0  0  0  0  0
   40.1060   31.7080   46.0300 N   0  0  0  0  0  0  0  0  0  0  0  0
   41.0100   31.2100   45.9540 H   0  0  0  0  0  0  0  0  0  0  0  0
   38.2990   30.2210   47.4260 F   0  0  0  0  0  0  0  0  0  0  0  0
   38.5460   31.4650   47.8990 C   0  0  0  0  0  0  0  0  0  0  0  0
   37.9070   31.9180   49.0140 C   0  0  0  0  0  0  0  0  0  0  0  0
   38.2080   33.1930   49.4320 C   0  0  0  0  0  0  0  0  0  0  0  0
   39.1070   33.9930   48.7780 C   0  0  0  0  0  0  0  0  0  0  0  0
   39.7510   33.5120   47.6380 C   0  0  0  0  0  0  0  0  0  0  0  0
   39.4590   32.2320   47.2020 C   0  0  0  0  0  0  0  0  0  0  0  0
   37.7050   33.5590   50.3190 H   0  0  0  0  0  0  0  0  0  0  0  0
   39.2860   34.9840   49.1750 H   0  0  0  0  0  0  0  0  0  0  0  0
   40.4610   34.1380   47.1150 H   0  0  0  0  0  0  0  0  0  0  0  0
   36.3350   29.4490   51.4260 C   0  0  0  0  0  0  0  0  0  0  0  0
   37.2840   30.3090   50.8130 C   0  0  0  0  0  0  0  0  0  0  0  0
   36.9570   31.0210   49.6760 C   0  0  0  0  0  0  0  0  0  0  0  0
   35.6910   30.8610   49.1750 N   0  0  0  0  0  0  0  0  0  0  0  0
   34.7970   30.0440   49.7610 C   0  0  0  0  0  0  0  0  0  0  0  0
   35.1100   29.3560   50.8580 N   0  0  0  0  0  0  0  0  0  0  0  0
   36.6440   28.9140   52.3160 H   0  0  0  0  0  0  0  0  0  0  0  0
   38.2880   30.4330   51.2140 H   0  0  0  0  0  0  0  0  0  0  0  0
   33.8190   29.9880   49.2860 H   0  0  0  0  0  0  0  0  0  0  0  0
   39.0110   32.4650   40.0840 O   0  0  0  0  0  0  0  0  0  0  0  0
   37.4320   33.9590   39.0610 C   0  0  0  0  0  0  0  0  0  0  0  0
   37.7460   33.0020   40.0340 C   0  0  0  0  0  0  0  0  0  0  0  0
   36.7110   32.6690   40.9000 C   0  0  0  0  0  0  0  0  0  0  0  0
   36.9370   31.9250   41.6650 H   0  0  0  0  0  0  0  0  0  0  0  0
   35.4480   33.2430   40.8090 C   0  0  0  0  0  0  0  0  0  0  0  0
   34.6710   32.9520   41.5060 H   0  0  0  0  0  0  0  0  0  0  0  0
   35.1820   34.1810   39.8340 C   0  0  0  0  0  0  0  0  0  0  0  0
   36.1830   34.5410   38.9540 C   0  0  0  0  0  0  0  0  0  0  0  0
   39.1950   34.8050   37.3310 N   0  0  0  0  0  0  0  0  0  0  0  0
   38.4070   34.4370   38.0920 C   0  0  0  0  0  0  0  0  0  0  0  0
  1 10  1  0  0  0  0
  1  2  1  0  0  0  0
  2 14  1  0  0  0  0
  3  2  2  0  0  0  0
  3 11  1  0  0  0  0
  4  3  1  0  0  0  0
  5  4  1  0  0  0  0
  5 12  1  0  0  0  0
  6  5  1  0  0  0  0
  7  6  2  0  0  0  0
  7  8  1  0  0  0  0
  8  9  1  0  0  0  0
  8  4  2  0  0  0  0
  9  1  2  0  0  0  0
 13  6  1  0  0  0  0
 14 15  2  0  0  0  0
 14 16  1  0  0  0  0
 16 24  1  0  0  0  0
 17 16  1  0  0  0  0
 18 19  1  0  0  0  0
 19 20  1  0  0  0  0
 20 21  2  0  0  0  0
 20 30  1  0  0  0  0
 21 25  1  0  0  0  0
 22 26  1  0  0  0  0
 22 21  1  0  0  0  0
 23 22  2  0  0  0  0
 24 23  1  0  0  0  0
 24 19  2  0  0  0  0
 27 23  1  0  0  0  0
 28 34  1  0  0  0  0
 29 35  1  0  0  0  0
 29 28  2  0  0  0  0
 30 29  1  0  0  0  0
 31 30  2  0  0  0  0
 31 32  1  0  0  0  0
 32 33  2  0  0  0  0
 33 28  1  0  0  0  0
 36 32  1  0  0  0  0
 37  9  1  0  0  0  0
 38 39  1  0  0  0  0
 39 37  1  0  0  0  0
 39 40  2  0  0  0  0
 40 41  1  0  0  0  0
 42 40  1  0  0  0  0
 42 43  1  0  0  0  0
 44 42  2  0  0  0  0
 45 38  2  0  0  0  0
 45 44  1  0  0  0  0
 46 47  3  0  0  0  0
 47 38  1  0  0  0  0
M  END
>  <minimizedAffinity>
-7.17555189

>  <minimizedRMSD>
0.693590343

$$$$
