
 OpenBabel03272503053D

 33 35  0  0  0  0  0  0  0  0999 V2000
   37.9800   30.0740   47.3140 F   0  0  0  0  0  0  0  0  0  0  0  0
   38.3950   31.2950   47.7510 C   0  0  0  0  0  0  0  0  0  0  0  0
   37.9600   31.7680   48.9680 C   0  0  0  0  0  0  0  0  0  0  0  0
   38.4100   32.9950   49.3490 C   0  0  0  0  0  0  0  0  0  0  0  0
   39.2610   33.7600   48.5840 C   0  0  0  0  0  0  0  0  0  0  0  0
   39.6860   33.2670   47.3650 C   0  0  0  0  0  0  0  0  0  0  0  0
   39.2470   32.0190   46.9450 C   0  0  0  0  0  0  0  0  0  0  0  0
   38.0690   33.3850   50.3160 H   0  0  0  0  0  0  0  0  0  0  0  0
   39.5970   34.7340   48.9380 H   0  0  0  0  0  0  0  0  0  0  0  0
   40.3540   33.8220   46.7210 H   0  0  0  0  0  0  0  0  0  0  0  0
   36.5790   29.4690   51.6430 C   0  0  0  0  0  0  0  0  0  0  0  0
   37.4690   30.2800   50.9110 C   0  0  0  0  0  0  0  0  0  0  0  0
   37.0540   30.9160   49.7520 C   0  0  0  0  0  0  0  0  0  0  0  0
   35.7650   30.7250   49.3620 N   0  0  0  0  0  0  0  0  0  0  0  0
   34.9270   29.9470   50.0700 C   0  0  0  0  0  0  0  0  0  0  0  0
   35.3160   29.3300   51.1840 N   0  0  0  0  0  0  0  0  0  0  0  0
   37.0950   29.0670   52.5050 H   0  0  0  0  0  0  0  0  0  0  0  0
   38.5130   30.4750   51.1710 H   0  0  0  0  0  0  0  0  0  0  0  0
   33.9040   29.7560   49.8140 H   0  0  0  0  0  0  0  0  0  0  0  0
   38.7890   31.8040   44.5960 C   0  0  0  0  0  0  0  0  0  0  0  0
   37.7720   32.5260   44.9100 O   0  0  0  0  0  0  0  0  0  0  0  0
   39.6660   31.4750   45.6920 N   0  0  0  0  0  0  0  0  0  0  0  0
   40.4690   30.8950   45.4080 H   0  0  0  0  0  0  0  0  0  0  0  0
   37.9800   30.5060   42.7670 C   0  0  0  0  0  0  0  0  0  0  0  0
   38.9080   31.4240   43.1960 C   0  0  0  0  0  0  0  0  0  0  0  0
   39.8850   31.9590   42.3880 C   0  0  0  0  0  0  0  0  0  0  0  0
   40.5940   32.6730   42.7570 H   0  0  0  0  0  0  0  0  0  0  0  0
   39.8590   31.4840   41.0740 C   0  0  0  0  0  0  0  0  0  0  0  0
   40.6080   31.8710   40.3750 H   0  0  0  0  0  0  0  0  0  0  0  0
   38.9500   30.5720   40.6200 C   0  0  0  0  0  3  0  0  0  0  0  0
   37.9690   30.0470   41.4610 C   0  0  0  0  0  3  0  0  0  0  0  0
   36.1210   29.5060   44.3010 N   0  0  0  0  0  0  0  0  0  0  0  0
   36.9510   29.9450   43.6300 C   0  0  0  0  0  0  0  0  0  0  0  0
  1  2  1  0  0  0  0
  2  3  1  0  0  0  0
  3  4  2  0  0  0  0
  3 13  1  0  0  0  0
  4  8  1  0  0  0  0
  5  9  1  0  0  0  0
  5  4  1  0  0  0  0
  6  5  2  0  0  0  0
  7  6  1  0  0  0  0
  7  2  2  0  0  0  0
 10  6  1  0  0  0  0
 11 17  1  0  0  0  0
 12 18  1  0  0  0  0
 12 11  2  0  0  0  0
 13 12  1  0  0  0  0
 14 13  2  0  0  0  0
 14 15  1  0  0  0  0
 15 16  2  0  0  0  0
 16 11  1  0  0  0  0
 19 15  1  0  0  0  0
 20 21  2  0  0  0  0
 20 22  1  0  0  0  0
 22  7  1  0  0  0  0
 23 22  1  0  0  0  0
 24 25  1  0  0  0  0
 24 33  1  0  0  0  0
 25 20  1  0  0  0  0
 26 27  1  0  0  0  0
 26 25  2  0  0  0  0
 28 26  1  0  0  0  0
 29 28  1  0  0  0  0
 30 28  2  0  0  0  0
 30 31  1  0  0  0  0
 31 24  2  0  0  0  0
 33 32  3  0  0  0  0
M  END
>  <minimizedAffinity>
-6.14088726

>  <minimizedRMSD>
1.69997478

$$$$
