
 OpenBabel03272503043D

 33 35  0  0  0  0  0  0  0  0999 V2000
   38.3260   30.5410   46.9020 F   0  0  0  0  0  0  0  0  0  0  0  0
   38.7440   31.7270   47.4240 C   0  0  0  0  0  0  0  0  0  0  0  0
   38.3460   32.0940   48.6890 C   0  0  0  0  0  0  0  0  0  0  0  0
   38.7980   33.2900   49.1550 C   0  0  0  0  0  0  0  0  0  0  0  0
   39.6150   34.1260   48.4280 C   0  0  0  0  0  0  0  0  0  0  0  0
   40.0030   33.7400   47.1590 C   0  0  0  0  0  0  0  0  0  0  0  0
   39.5620   32.5250   46.6530 C   0  0  0  0  0  0  0  0  0  0  0  0
   38.4870   33.5960   50.1620 H   0  0  0  0  0  0  0  0  0  0  0  0
   39.9540   35.0710   48.8500 H   0  0  0  0  0  0  0  0  0  0  0  0
   40.6430   34.3540   46.5410 H   0  0  0  0  0  0  0  0  0  0  0  0
   37.0860   29.5490   51.1960 C   0  0  0  0  0  0  0  0  0  0  0  0
   37.9430   30.4270   50.5040 C   0  0  0  0  0  0  0  0  0  0  0  0
   37.4760   31.1690   49.4310 C   0  0  0  0  0  0  0  0  0  0  0  0
   36.1700   31.0120   49.0830 N   0  0  0  0  0  0  0  0  0  0  0  0
   35.3640   30.1690   49.7520 C   0  0  0  0  0  0  0  0  0  0  0  0
   35.8020   29.4500   50.7840 N   0  0  0  0  0  0  0  0  0  0  0  0
   37.6400   29.0690   51.9920 H   0  0  0  0  0  0  0  0  0  0  0  0
   38.9980   30.6000   50.7330 H   0  0  0  0  0  0  0  0  0  0  0  0
   34.3300   30.0000   49.5260 H   0  0  0  0  0  0  0  0  0  0  0  0
   38.9450   32.3460   44.3370 C   0  0  0  0  0  0  0  0  0  0  0  0
   37.8740   32.9170   44.7630 O   0  0  0  0  0  0  0  0  0  0  0  0
   39.9430   32.0910   45.3460 N   0  0  0  0  0  0  0  0  0  0  0  0
   40.7870   31.6320   44.9730 H   0  0  0  0  0  0  0  0  0  0  0  0
   39.0280   30.7000   42.6130 C   0  0  0  0  0  0  0  0  0  0  0  0
   38.9970   32.0420   42.9150 C   0  0  0  0  0  0  0  0  0  0  0  0
   39.0160   33.0390   41.9670 C   0  0  0  0  0  0  0  0  0  0  0  0
   38.9920   34.0750   42.2380 H   0  0  0  0  0  0  0  0  0  0  0  0
   39.0710   32.5730   40.6510 C   0  0  0  0  0  0  0  0  0  0  0  0
   39.0860   33.3130   39.8450 H   0  0  0  0  0  0  0  0  0  0  0  0
   39.1040   31.2470   40.3220 C   0  0  0  0  0  3  0  0  0  0  0  0
   39.0820   30.2580   41.3040 C   0  0  0  0  0  3  0  0  0  0  0  0
   38.9800   28.8330   44.4350 N   0  0  0  0  0  0  0  0  0  0  0  0
   39.0090   29.6530   43.6230 C   0  0  0  0  0  0  0  0  0  0  0  0
  1  2  1  0  0  0  0
  2  3  1  0  0  0  0
  3  4  2  0  0  0  0
  3 13  1  0  0  0  0
  4  8  1  0  0  0  0
  5  9  1  0  0  0  0
  5  4  1  0  0  0  0
  6  5  2  0  0  0  0
  7  6  1  0  0  0  0
  7  2  2  0  0  0  0
 10  6  1  0  0  0  0
 11 17  1  0  0  0  0
 12 18  1  0  0  0  0
 12 11  2  0  0  0  0
 13 12  1  0  0  0  0
 14 13  2  0  0  0  0
 14 15  1  0  0  0  0
 15 16  2  0  0  0  0
 16 11  1  0  0  0  0
 19 15  1  0  0  0  0
 20 21  2  0  0  0  0
 20 22  1  0  0  0  0
 22  7  1  0  0  0  0
 23 22  1  0  0  0  0
 24 25  1  0  0  0  0
 24 33  1  0  0  0  0
 25 20  1  0  0  0  0
 26 27  1  0  0  0  0
 26 25  2  0  0  0  0
 28 26  1  0  0  0  0
 29 28  1  0  0  0  0
 30 28  2  0  0  0  0
 30 31  1  0  0  0  0
 31 24  2  0  0  0  0
 33 32  3  0  0  0  0
M  END
>  <minimizedAffinity>
-5.85513592

>  <minimizedRMSD>
0.989205837

$$$$
