
 OpenBabel03272508503D

 30 32  0  0  1  0  0  0  0  0999 V2000
   38.0000   30.6620   46.5150 C   0  0  2  0  0  0  0  0  0  0  0  0
   39.3740   30.8610   46.0640 C   0  0  0  0  0  0  0  0  0  0  0  0
   38.2700   31.8710   45.7320 C   0  0  1  0  0  0  0  0  0  0  0  0
   37.3190   29.9310   45.9760 H   0  0  0  0  0  0  0  0  0  0  0  0
   40.1860   31.1550   46.7450 H   0  0  0  0  0  0  0  0  0  0  0  0
   39.7380   30.2850   45.1880 H   0  0  0  0  0  0  0  0  0  0  0  0
   38.5900   32.8650   46.0860 H   0  0  0  0  0  0  0  0  0  0  0  0
   35.8870   30.8050   49.5550 C   0  0  0  0  0  0  0  0  0  0  0  0
   36.8450   31.0490   50.5710 C   0  0  0  0  0  0  0  0  0  0  0  0
   38.2230   31.1610   50.1710 C   0  0  0  0  0  0  0  0  0  0  0  0
   38.5150   31.0270   48.8540 N   0  0  0  0  0  0  0  0  0  0  0  0
   37.5660   30.7950   47.9360 C   0  0  0  0  0  0  0  0  0  0  0  0
   36.2470   30.6780   48.2520 N   0  0  0  0  0  0  0  0  0  0  0  0
   34.8720   30.7400   49.9250 H   0  0  0  0  0  0  0  0  0  0  0  0
   36.5600   31.1500   51.6050 H   0  0  0  0  0  0  0  0  0  0  0  0
   38.9650   31.3410   50.9310 H   0  0  0  0  0  0  0  0  0  0  0  0
   38.4630   32.7570   43.4270 C   0  0  0  0  0  0  0  0  0  0  0  0
   39.4840   33.4210   43.8290 O   0  0  0  0  0  0  0  0  0  0  0  0
   37.8520   31.8540   44.3250 N   0  0  0  0  0  0  0  0  0  0  0  0
   37.0980   31.1120   44.1700 H   0  0  0  0  0  0  0  0  0  0  0  0
   38.1130   31.9720   41.0800 C   0  0  0  0  0  0  0  0  0  0  0  0
   37.6180   32.5890   42.2100 C   0  0  0  0  0  0  0  0  0  0  0  0
   36.3570   33.1440   42.3350 C   0  0  0  0  0  0  0  0  0  0  0  0
   35.9870   33.6240   43.2270 H   0  0  0  0  0  0  0  0  0  0  0  0
   35.5170   33.0780   41.2370 C   0  0  0  0  0  0  0  0  0  0  0  0
   34.4960   33.4850   41.2120 H   0  0  0  0  0  0  0  0  0  0  0  0
   36.0140   32.4610   40.1090 C   0  0  0  0  0  3  0  0  0  0  0  0
   37.2640   31.9080   39.9790 C   0  0  0  0  0  3  0  0  0  0  0  0
   40.5080   31.0190   41.1770 N   0  0  0  0  0  0  0  0  0  0  0  0
   39.4390   31.4540   41.1340 C   0  0  0  0  0  0  0  0  0  0  0  0
  1  4  1  6  0  0  0
  1 12  1  0  0  0  0
  2  1  1  0  0  0  0
  2  5  1  0  0  0  0
  3  2  1  0  0  0  0
  3  7  1  1  0  0  0
  3  1  1  0  0  0  0
  6  2  1  0  0  0  0
  8 14  1  0  0  0  0
  8  9  1  0  0  0  0
  9 15  1  0  0  0  0
 10  9  2  0  0  0  0
 10 16  1  0  0  0  0
 11 10  1  0  0  0  0
 12 13  1  0  0  0  0
 12 11  2  0  0  0  0
 13  8  2  0  0  0  0
 17 18  2  0  0  0  0
 17 19  1  0  0  0  0
 19  3  1  0  0  0  0
 20 19  1  0  0  0  0
 21 30  1  0  0  0  0
 21 22  1  0  0  0  0
 22 23  2  0  0  0  0
 22 17  1  0  0  0  0
 23 24  1  0  0  0  0
 25 23  1  0  0  0  0
 26 25  1  0  0  0  0
 27 25  2  0  0  0  0
 28 27  1  0  0  0  0
 28 21  2  0  0  0  0
 30 29  3  0  0  0  0
M  END
>  <minimizedAffinity>
-4.43078804

>  <minimizedRMSD>
8.58411407

$$$$
