
 OpenBabel03272508193D

 32 34  0  0  0  0  0  0  0  0999 V2000
   34.9000   30.0710   47.7800 C   0  0  0  0  0  0  0  0  0  0  0  0
   36.0460   30.1660   46.9870 C   0  0  0  0  0  0  0  0  0  0  0  0
   35.7890   30.2310   45.6410 C   0  0  0  0  0  0  0  0  0  0  0  0
   34.5320   30.2070   45.1340 N   0  0  0  0  0  0  0  0  0  0  0  0
   33.4470   30.1150   45.9290 C   0  0  0  0  0  0  0  0  0  0  0  0
   33.6340   30.0470   47.2510 N   0  0  0  0  0  0  0  0  0  0  0  0
   36.5070   30.2850   44.8500 H   0  0  0  0  0  0  0  0  0  0  0  0
   32.4350   30.0930   45.5520 H   0  0  0  0  0  0  0  0  0  0  0  0
   35.1170   30.0860   49.2840 C   0  0  0  0  0  0  0  0  0  0  0  0
   34.1020   29.6940   50.1870 C   0  0  0  0  0  0  0  0  0  0  0  0
   35.0720   28.6020   49.8000 C   0  0  0  0  0  0  0  0  0  0  0  0
   36.1060   30.5250   49.6350 H   0  0  0  0  0  0  0  0  0  0  0  0
   33.0690   29.5240   49.7680 H   0  0  0  0  0  0  0  0  0  0  0  0
   34.0660   30.0620   51.2240 H   0  0  0  0  0  0  0  0  0  0  0  0
   35.7940   28.3590   50.5910 H   0  0  0  0  0  0  0  0  0  0  0  0
   34.7890   27.8180   49.1160 H   0  0  0  0  0  0  0  0  0  0  0  0
   37.3960   30.1570   47.5050 C   0  0  0  0  0  0  0  0  0  0  0  0
   37.7950   29.1230   47.4580 H   0  0  0  0  0  0  0  0  0  0  0  0
   37.2920   30.4730   48.5950 H   0  0  0  0  0  0  0  0  0  0  0  0
   38.4070   31.0700   46.9440 C   0  0  0  0  0  0  0  0  0  0  0  0
   38.0320   31.5150   45.9710 H   0  0  0  0  0  0  0  0  0  0  0  0
   39.3240   30.5080   46.6010 H   0  0  0  0  0  0  0  0  0  0  0  0
   39.6930   33.0720   47.0600 C   0  0  0  0  0  0  0  0  0  0  0  0
   38.8140   32.2270   47.7530 C   0  0  0  0  0  0  0  0  0  0  0  0
   38.5280   32.6780   49.0200 C   0  0  0  0  0  0  0  0  0  0  0  0
   37.8400   32.0420   49.5490 H   0  0  0  0  0  0  0  0  0  0  0  0
   39.0090   33.8190   49.6150 C   0  0  0  0  0  0  0  0  0  0  0  0
   38.6840   34.0170   50.6040 H   0  0  0  0  0  0  0  0  0  0  0  0
   39.8710   34.6280   48.9090 C   0  0  0  0  0  3  0  0  0  0  0  0
   40.2060   34.2430   47.6280 C   0  0  0  0  0  3  0  0  0  0  0  0
   40.5090   32.6930   44.6100 N   0  0  0  0  0  0  0  0  0  0  0  0
   40.1580   32.8630   45.6990 C   0  0  0  0  0  0  0  0  0  0  0  0
  1  9  1  0  0  0  0
  2 17  1  0  0  0  0
  2  1  2  0  0  0  0
  3  2  1  0  0  0  0
  4  3  2  0  0  0  0
  4  5  1  0  0  0  0
  5  6  2  0  0  0  0
  6  1  1  0  0  0  0
  7  3  1  0  0  0  0
  8  5  1  0  0  0  0
  9 12  1  0  0  0  0
  9 11  1  0  0  0  0
  9 10  1  0  0  0  0
 10 14  1  0  0  0  0
 11 10  1  0  0  0  0
 11 15  1  0  0  0  0
 13 10  1  0  0  0  0
 16 11  1  0  0  0  0
 17 19  1  0  0  0  0
 18 17  1  0  0  0  0
 20 17  1  0  0  0  0
 20 24  1  0  0  0  0
 21 20  1  0  0  0  0
 22 20  1  0  0  0  0
 23 30  2  0  0  0  0
 23 24  1  0  0  0  0
 24 25  2  0  0  0  0
 25 26  1  0  0  0  0
 25 27  1  0  0  0  0
 27 28  1  0  0  0  0
 29 27  2  0  0  0  0
 30 29  1  0  0  0  0
 31 32  3  0  0  0  0
 32 23  1  0  0  0  0
M  END
>  <minimizedAffinity>
-5.35530043

>  <minimizedRMSD>
3.21766138

$$$$
