
 OpenBabel03272506393D

 38 40  0  0  1  0  0  0  0  0999 V2000
   34.7490   29.2370   50.0930 O   0  0  0  0  0  0  0  0  0  0  0  0
   34.4940   29.3660   48.8750 C   0  0  0  0  0  0  0  0  0  0  0  0
   35.2420   30.2890   48.0540 C   0  0  2  0  0  0  0  0  0  0  0  0
   34.6990   29.9250   46.6350 C   0  0  0  0  0  0  0  0  0  0  0  0
   33.3230   29.4060   46.9220 C   0  0  0  0  0  0  0  0  0  0  0  0
   33.4680   28.6440   48.1520 N   0  0  0  0  0  0  0  0  0  0  0  0
   35.0310   31.3350   48.2530 H   0  0  0  0  0  0  0  0  0  0  0  0
   35.3660   29.1960   46.1450 H   0  0  0  0  0  0  0  0  0  0  0  0
   34.6230   30.8970   46.1110 H   0  0  0  0  0  0  0  0  0  0  0  0
   33.0730   28.6600   46.1340 H   0  0  0  0  0  0  0  0  0  0  0  0
   32.5480   30.1620   46.9260 H   0  0  0  0  0  0  0  0  0  0  0  0
   32.7840   27.4350   48.5780 C   0  0  0  0  0  0  0  0  0  0  0  0
   32.2810   27.6830   49.5420 H   0  0  0  0  0  0  0  0  0  0  0  0
   33.6020   26.6750   48.7690 H   0  0  0  0  0  0  0  0  0  0  0  0
   30.5710   27.0370   47.9130 C   0  0  0  0  0  0  0  0  0  0  0  0
   31.8940   26.9040   47.5470 C   0  0  0  0  0  0  0  0  0  0  0  0
   32.2160   26.3300   46.3470 C   0  0  0  0  0  0  0  0  0  0  0  0
   33.2650   26.2550   46.1140 H   0  0  0  0  0  0  0  0  0  0  0  0
   31.2450   25.8770   45.4900 C   0  0  0  0  0  0  0  0  0  0  0  0
   31.5640   25.4410   44.5730 H   0  0  0  0  0  0  0  0  0  0  0  0
   29.9160   25.9950   45.8290 C   0  0  0  0  0  3  0  0  0  0  0  0
   29.5760   26.5770   47.0420 C   0  0  0  0  0  3  0  0  0  0  0  0
   29.7080   28.0820   50.1320 N   0  0  0  0  0  0  0  0  0  0  0  0
   30.0830   27.6280   49.1460 C   0  0  0  0  0  0  0  0  0  0  0  0
   36.6480   30.0440   48.0000 O   0  0  0  0  0  0  0  0  0  0  0  0
   37.4990   31.1410   48.1200 C   0  0  0  0  0  0  0  0  0  0  0  0
   37.6450   31.6890   49.3780 C   0  0  0  0  0  0  0  0  0  0  0  0
   38.4770   32.7770   49.5430 C   0  0  0  0  0  0  0  0  0  0  0  0
   39.1230   33.2670   48.4510 N   0  0  0  0  0  0  0  0  0  0  0  0
   38.9720   32.7220   47.2220 C   0  0  0  0  0  0  0  0  0  0  0  0
   38.1710   31.6810   47.0860 N   0  0  0  0  0  0  0  0  0  0  0  0
   40.5240   32.3120   45.4710 C   0  0  0  0  0  0  0  0  0  0  0  0
   40.7240   31.1180   45.7940 O   0  0  0  0  0  0  0  0  0  0  0  0
   39.6650   33.2640   46.0930 N   0  0  0  0  0  0  0  0  0  0  0  0
   37.1140   31.2740   50.2330 H   0  0  0  0  0  0  0  0  0  0  0  0
   38.6000   33.2150   50.5140 H   0  0  0  0  0  0  0  0  0  0  0  0
   41.1810   32.3770   44.6160 H   0  0  0  0  0  0  0  0  0  0  0  0
   39.6850   34.1730   45.6300 H   0  0  0  0  0  0  0  0  0  0  0  0
  2  1  2  0  0  0  0
  3  7  1  1  0  0  0
  3  2  1  0  0  0  0
  4  5  1  0  0  0  0
  4  3  1  0  0  0  0
  5 11  1  0  0  0  0
  5  6  1  0  0  0  0
  6 12  1  0  0  0  0
  6  2  1  0  0  0  0
  8  4  1  0  0  0  0
  9  4  1  0  0  0  0
 10  5  1  0  0  0  0
 12 14  1  0  0  0  0
 12 13  1  0  0  0  0
 15 24  1  0  0  0  0
 16 15  1  0  0  0  0
 16 12  1  0  0  0  0
 17 16  2  0  0  0  0
 18 17  1  0  0  0  0
 19 21  2  0  0  0  0
 19 17  1  0  0  0  0
 20 19  1  0  0  0  0
 21 22  1  0  0  0  0
 22 15  2  0  0  0  0
 24 23  3  0  0  0  0
 25  3  1  0  0  0  0
 25 26  1  0  0  0  0
 26 27  1  0  0  0  0
 27 28  2  0  0  0  0
 27 35  1  0  0  0  0
 28 36  1  0  0  0  0
 29 28  1  0  0  0  0
 30 29  2  0  0  0  0
 31 30  1  0  0  0  0
 31 26  2  0  0  0  0
 32 33  2  0  0  0  0
 32 34  1  0  0  0  0
 34 30  1  0  0  0  0
 37 32  1  0  0  0  0
 38 34  1  0  0  0  0
M  END
>  <minimizedAffinity>
-5.84315348

>  <minimizedRMSD>
2.35307097

$$$$
