
 OpenBabel03272504393D

 43 45  0  0  0  0  0  0  0  0999 V2000
   34.7450   29.4030   48.7800 C   0  0  0  0  0  0  0  0  0  0  0  0
   34.0860   30.2330   49.1760 H   0  0  0  0  0  0  0  0  0  0  0  0
   35.6430   29.4560   49.4290 H   0  0  0  0  0  0  0  0  0  0  0  0
   37.4880   30.4660   48.4890 Cl  0  0  0  0  0  0  0  0  0  0  0  0
   36.3610   30.2940   47.1410 C   0  0  0  0  0  0  0  0  0  0  0  0
   36.7510   30.6660   45.8910 C   0  0  0  0  0  0  0  0  0  0  0  0
   35.8850   30.5350   44.8410 C   0  0  0  0  0  0  0  0  0  0  0  0
   34.6250   30.0230   45.0790 C   0  0  0  0  0  0  0  0  0  0  0  0
   34.2730   29.6560   46.3790 C   0  0  0  0  0  0  0  0  0  0  0  0
   35.1190   29.7780   47.4360 C   0  0  0  0  0  0  0  0  0  0  0  0
   36.2380   30.8470   43.8530 H   0  0  0  0  0  0  0  0  0  0  0  0
   34.0190   29.9620   44.1780 H   0  0  0  0  0  0  0  0  0  0  0  0
   33.3040   29.3010   46.3500 H   0  0  0  0  0  0  0  0  0  0  0  0
   39.7550   32.8170   45.9900 C   0  0  0  0  0  0  0  0  0  0  0  0
   40.6310   32.0980   45.1250 C   0  0  0  0  0  0  0  0  0  0  0  0
   40.1510   30.9170   44.5540 C   0  0  0  0  0  0  0  0  0  0  0  0
   38.8920   30.5110   44.8410 N   0  0  0  0  0  0  0  0  0  0  0  0
   38.0870   31.2070   45.6590 C   0  0  0  0  0  0  0  0  0  0  0  0
   38.5210   32.3500   46.2250 N   0  0  0  0  0  0  0  0  0  0  0  0
   40.0990   33.7310   46.4430 H   0  0  0  0  0  0  0  0  0  0  0  0
   41.6180   32.5050   44.9590 H   0  0  0  0  0  0  0  0  0  0  0  0
   41.0410   30.2360   43.7070 N   0  0  0  0  0  0  0  0  0  0  0  0
   41.0190   30.2130   42.6490 H   0  0  0  0  0  0  0  0  0  0  0  0
   41.6960   29.7810   44.3720 H   0  0  0  0  0  0  0  0  0  0  0  0
   34.0680   28.1330   49.0060 C   0  0  0  0  0  0  0  0  0  0  0  0
   34.1210   27.4910   48.0940 H   0  0  0  0  0  0  0  0  0  0  0  0
   34.5560   27.5200   49.8000 H   0  0  0  0  0  0  0  0  0  0  0  0
   32.7580   28.3090   49.3960 O   0  0  0  0  0  0  0  0  0  0  0  0
   32.4300   26.5360   47.4830 O   0  0  0  0  0  0  0  0  0  0  0  0
   31.7050   27.5360   48.3060 P   0  0  2  0  0  0  0  0  0  0  0  0
   31.0430   28.8140   47.3760 O   0  0  0  0  0  0  0  0  0  0  0  0
   31.0510   29.6680   47.8590 H   0  0  0  0  0  0  0  0  0  0  0  0
   30.4520   26.8070   49.1060 O   0  0  0  0  0  0  0  0  0  0  0  0
   28.0360   27.0210   48.3540 C   0  0  0  0  0  0  0  0  0  0  0  0
   29.1500   27.1390   49.1430 C   0  0  0  0  0  0  0  0  0  0  0  0
   28.9350   27.7920   50.3710 C   0  0  0  0  0  0  0  0  0  0  0  0
   29.6350   28.0240   51.1910 H   0  0  0  0  0  0  0  0  0  0  0  0
   27.6770   28.2840   50.7540 C   0  0  0  0  0  0  0  0  0  0  0  0
   27.4210   28.7910   51.6650 H   0  0  0  0  0  0  0  0  0  0  0  0
   26.6010   28.1280   49.9060 C   0  0  0  0  0  3  0  0  0  0  0  0
   26.7900   27.4910   48.6980 C   0  0  0  0  0  3  0  0  0  0  0  0
   28.4130   25.8360   46.1160 N   0  0  0  0  0  0  0  0  0  0  0  0
   28.2560   26.3640   47.1200 C   0  0  0  0  0  0  0  0  0  0  0  0
  1 25  1  0  0  0  0
  1  2  1  0  0  0  0
  1  3  1  0  0  0  0
  5 10  1  0  0  0  0
  5  4  1  0  0  0  0
  6  5  2  0  0  0  0
  7  8  2  0  0  0  0
  7  6  1  0  0  0  0
  8  9  1  0  0  0  0
  9 10  2  0  0  0  0
 10  1  1  0  0  0  0
 11  7  1  0  0  0  0
 12  8  1  0  0  0  0
 13  9  1  0  0  0  0
 14 19  1  0  0  0  0
 14 20  1  0  0  0  0
 15 14  2  0  0  0  0
 16 17  2  0  0  0  0
 16 15  1  0  0  0  0
 17 18  1  0  0  0  0
 18  6  1  0  0  0  0
 18 19  2  0  0  0  0
 21 15  1  0  0  0  0
 22 24  1  0  0  0  0
 22 16  1  0  0  0  0
 23 22  1  0  0  0  0
 25 28  1  0  0  0  0
 25 27  1  0  0  0  0
 26 25  1  0  0  0  0
 30 29  2  6  0  0  0
 30 33  1  0  0  0  0
 30 28  1  0  0  0  0
 31 32  1  0  0  0  0
 31 30  1  0  0  0  0
 33 35  1  0  0  0  0
 34 41  2  0  0  0  0
 34 35  1  0  0  0  0
 35 36  2  0  0  0  0
 36 38  1  0  0  0  0
 36 37  1  0  0  0  0
 38 39  1  0  0  0  0
 40 38  2  0  0  0  0
 41 40  1  0  0  0  0
 42 43  3  0  0  0  0
 43 34  1  0  0  0  0
M  END
>  <minimizedAffinity>
-6.55817556

>  <minimizedRMSD>
1.44043744

$$$$
