
 OpenBabel03272504173D

 27 28  0  0  0  0  0  0  0  0999 V2000
   31.9240   27.2120   43.1250 O   0  0  0  0  0  0  0  0  0  0  0  0
   30.6250   27.6090   43.7940 P   0  0  1  0  0  0  0  0  0  0  0  0
   29.6980   26.2370   44.1630 O   0  0  0  0  0  0  0  0  0  0  0  0
   28.8640   26.2800   43.6230 H   0  0  0  0  0  0  0  0  0  0  0  0
   30.8860   28.4210   45.2810 O   0  0  0  0  0  0  0  0  0  0  0  0
   31.8330   27.9910   46.2060 C   0  0  0  0  0  0  0  0  0  0  0  0
   31.6400   26.9950   47.1610 C   0  0  0  0  0  0  0  0  0  0  0  0
   32.7050   26.6920   48.0080 C   0  0  0  0  0  0  0  0  0  0  0  0
   33.8740   27.3710   47.8740 N   0  0  0  0  0  0  0  0  0  0  0  0
   34.0200   28.3310   46.9340 C   0  0  0  0  0  0  0  0  0  0  0  0
   32.9970   28.6450   46.0930 N   0  0  0  0  0  0  0  0  0  0  0  0
   32.5090   25.9140   48.7340 H   0  0  0  0  0  0  0  0  0  0  0  0
   34.9810   28.8400   46.8750 H   0  0  0  0  0  0  0  0  0  0  0  0
   30.3610   26.3960   47.1560 N   0  0  0  0  0  0  0  0  0  0  0  0
   29.4610   26.9280   47.2370 H   0  0  0  0  0  0  0  0  0  0  0  0
   30.1170   25.3710   47.0740 H   0  0  0  0  0  0  0  0  0  0  0  0
   29.8120   28.6190   42.7160 O   0  0  0  0  0  0  0  0  0  0  0  0
   30.1660   30.9270   42.6400 C   0  0  0  0  0  0  0  0  0  0  0  0
   29.3740   29.8760   43.1140 C   0  0  0  0  0  0  0  0  0  0  0  0
   28.2740   30.1810   43.9010 C   0  0  0  0  0  0  0  0  0  0  0  0
   27.7070   29.3220   44.2320 H   0  0  0  0  0  0  0  0  0  0  0  0
   27.9870   31.4920   44.1980 C   0  0  0  0  0  0  0  0  0  0  0  0
   27.1140   31.6820   44.8190 H   0  0  0  0  0  0  0  0  0  0  0  0
   28.7860   32.4890   43.7160 C   0  0  0  0  0  3  0  0  0  0  0  0
   29.8910   32.2540   42.9290 C   0  0  0  0  0  3  0  0  0  0  0  0
   32.2540   30.5230   41.1380 N   0  0  0  0  0  0  0  0  0  0  0  0
   31.3320   30.7000   41.8120 C   0  0  0  0  0  0  0  0  0  0  0  0
  2  1  2  6  0  0  0
  2  3  1  0  0  0  0
  2  5  1  0  0  0  0
  4  3  1  0  0  0  0
  5  6  1  0  0  0  0
  6  7  1  0  0  0  0
  7  8  2  0  0  0  0
  8 12  1  0  0  0  0
  9  8  1  0  0  0  0
 10  9  2  0  0  0  0
 11  6  2  0  0  0  0
 11 10  1  0  0  0  0
 13 10  1  0  0  0  0
 14  7  1  0  0  0  0
 14 15  1  0  0  0  0
 16 14  1  0  0  0  0
 17 19  1  0  0  0  0
 17  2  1  0  0  0  0
 18 25  2  0  0  0  0
 18 19  1  0  0  0  0
 19 20  2  0  0  0  0
 20 22  1  0  0  0  0
 20 21  1  0  0  0  0
 22 23  1  0  0  0  0
 24 22  2  0  0  0  0
 25 24  1  0  0  0  0
 26 27  3  0  0  0  0
 27 18  1  0  0  0  0
M  END
>  <minimizedAffinity>
-1.72561407

>  <minimizedRMSD>
5.71724463

$$$$
