
 OpenBabel03272506393D

 38 40  0  0  1  0  0  0  0  0999 V2000
   35.2740   28.6010   49.9900 O   0  0  0  0  0  0  0  0  0  0  0  0
   35.0760   28.9970   48.8200 C   0  0  0  0  0  0  0  0  0  0  0  0
   35.7760   30.1470   48.2970 C   0  0  2  0  0  0  0  0  0  0  0  0
   35.3490   30.0920   46.7960 C   0  0  0  0  0  0  0  0  0  0  0  0
   34.0160   29.4100   46.8480 C   0  0  0  0  0  0  0  0  0  0  0  0
   34.1650   28.3900   47.8720 N   0  0  0  0  0  0  0  0  0  0  0  0
   35.4550   31.0940   48.7190 H   0  0  0  0  0  0  0  0  0  0  0  0
   36.1100   29.5570   46.2000 H   0  0  0  0  0  0  0  0  0  0  0  0
   35.2090   31.1510   46.5090 H   0  0  0  0  0  0  0  0  0  0  0  0
   33.8830   28.8580   45.8900 H   0  0  0  0  0  0  0  0  0  0  0  0
   33.1730   30.0790   46.9690 H   0  0  0  0  0  0  0  0  0  0  0  0
   33.5780   27.0630   47.9500 C   0  0  0  0  0  0  0  0  0  0  0  0
   34.1270   26.5250   48.7580 H   0  0  0  0  0  0  0  0  0  0  0  0
   33.8050   26.5720   46.9550 H   0  0  0  0  0  0  0  0  0  0  0  0
   31.4840   26.4210   47.1120 C   0  0  0  0  0  0  0  0  0  0  0  0
   32.1270   27.1030   48.1230 C   0  0  0  0  0  0  0  0  0  0  0  0
   31.3980   27.7060   49.1130 C   0  0  0  0  0  0  0  0  0  0  0  0
   31.9540   28.2210   49.8780 H   0  0  0  0  0  0  0  0  0  0  0  0
   30.0270   27.6480   49.1240 C   0  0  0  0  0  0  0  0  0  0  0  0
   29.5210   28.1370   49.9220 H   0  0  0  0  0  0  0  0  0  0  0  0
   29.3570   26.9740   48.1260 C   0  0  0  0  0  3  0  0  0  0  0  0
   30.0860   26.3600   47.1180 C   0  0  0  0  0  3  0  0  0  0  0  0
   32.6420   25.2050   45.1280 N   0  0  0  0  0  0  0  0  0  0  0  0
   32.1250   25.7330   46.0060 C   0  0  0  0  0  0  0  0  0  0  0  0
   37.2000   30.0360   48.2950 O   0  0  0  0  0  0  0  0  0  0  0  0
   37.9390   31.2160   48.2560 C   0  0  0  0  0  0  0  0  0  0  0  0
   38.1020   31.8960   49.4460 C   0  0  0  0  0  0  0  0  0  0  0  0
   38.8260   33.0700   49.4540 C   0  0  0  0  0  0  0  0  0  0  0  0
   39.3530   33.5110   48.2810 N   0  0  0  0  0  0  0  0  0  0  0  0
   39.1870   32.8370   47.1190 C   0  0  0  0  0  0  0  0  0  0  0  0
   38.4900   31.7160   47.1330 N   0  0  0  0  0  0  0  0  0  0  0  0
   40.6660   32.4110   45.3100 C   0  0  0  0  0  0  0  0  0  0  0  0
   41.0060   31.2790   45.7260 O   0  0  0  0  0  0  0  0  0  0  0  0
   39.7520   33.3310   45.9010 N   0  0  0  0  0  0  0  0  0  0  0  0
   37.6680   31.5170   50.3700 H   0  0  0  0  0  0  0  0  0  0  0  0
   38.9610   33.6110   50.3710 H   0  0  0  0  0  0  0  0  0  0  0  0
   41.2610   32.4550   44.4100 H   0  0  0  0  0  0  0  0  0  0  0  0
   39.6510   34.1880   45.3560 H   0  0  0  0  0  0  0  0  0  0  0  0
  2  1  2  0  0  0  0
  3  7  1  1  0  0  0
  3  2  1  0  0  0  0
  4  5  1  0  0  0  0
  4  3  1  0  0  0  0
  5 11  1  0  0  0  0
  5  6  1  0  0  0  0
  6 12  1  0  0  0  0
  6  2  1  0  0  0  0
  8  4  1  0  0  0  0
  9  4  1  0  0  0  0
 10  5  1  0  0  0  0
 12 16  1  0  0  0  0
 12 13  1  0  0  0  0
 14 12  1  0  0  0  0
 15 22  2  0  0  0  0
 15 16  1  0  0  0  0
 16 17  2  0  0  0  0
 17 19  1  0  0  0  0
 17 18  1  0  0  0  0
 19 20  1  0  0  0  0
 21 19  2  0  0  0  0
 22 21  1  0  0  0  0
 23 24  3  0  0  0  0
 24 15  1  0  0  0  0
 25  3  1  0  0  0  0
 26 25  1  0  0  0  0
 26 27  1  0  0  0  0
 27 28  2  0  0  0  0
 27 35  1  0  0  0  0
 28 36  1  0  0  0  0
 29 28  1  0  0  0  0
 30 31  1  0  0  0  0
 30 29  2  0  0  0  0
 31 26  2  0  0  0  0
 32 33  2  0  0  0  0
 32 34  1  0  0  0  0
 34 30  1  0  0  0  0
 37 32  1  0  0  0  0
 38 34  1  0  0  0  0
M  END
>  <minimizedAffinity>
-5.95053005

>  <minimizedRMSD>
1.10148036

$$$$
