
 OpenBabel03272507173D

 27 29  0  0  1  0  0  0  0  0999 V2000
   39.0970   24.3060   34.5130 C   0  0  1  0  0  0  0  0  0  0  0  0
   38.3220   23.5770   33.5310 C   0  0  2  0  0  0  0  0  0  0  0  0
   37.7980   24.9250   33.9810 C   0  0  0  0  0  0  0  0  0  0  0  0
   39.9940   24.9400   34.2780 H   0  0  0  0  0  0  0  0  0  0  0  0
   38.7380   23.4750   32.5080 H   0  0  0  0  0  0  0  0  0  0  0  0
   36.9170   24.9670   34.6210 H   0  0  0  0  0  0  0  0  0  0  0  0
   37.8790   25.7070   33.2000 H   0  0  0  0  0  0  0  0  0  0  0  0
   39.0120   23.9780   35.9780 C   0  0  0  0  0  0  0  0  0  0  0  0
   39.9850   23.1060   36.4720 C   0  0  0  0  0  0  0  0  0  0  0  0
   39.8690   22.7920   37.8330 C   0  0  0  0  0  0  0  0  0  0  0  0
   38.8500   23.3290   38.5930 N   0  0  0  0  0  0  0  0  0  0  0  0
   37.9340   24.1730   38.0510 C   0  0  0  0  0  0  0  0  0  0  0  0
   38.0290   24.4930   36.7260 N   0  0  0  0  0  0  0  0  0  0  0  0
   40.7790   22.6890   35.8690 H   0  0  0  0  0  0  0  0  0  0  0  0
   40.5990   22.1230   38.2560 H   0  0  0  0  0  0  0  0  0  0  0  0
   37.1690   24.5500   38.7140 H   0  0  0  0  0  0  0  0  0  0  0  0
   37.5570   22.4750   33.9470 O   0  0  0  0  0  0  0  0  0  0  0  0
   35.9390   20.7890   33.7960 C   0  0  0  0  0  0  0  0  0  0  0  0
   36.8630   21.6090   33.1500 C   0  0  0  0  0  0  0  0  0  0  0  0
   36.9650   21.4500   31.7830 C   0  0  0  0  0  0  0  0  0  0  0  0
   37.6790   22.0850   31.2910 H   0  0  0  0  0  0  0  0  0  0  0  0
   36.2040   20.5360   31.0990 C   0  0  0  0  0  0  0  0  0  0  0  0
   36.3620   20.4900   30.0320 H   0  0  0  0  0  0  0  0  0  0  0  0
   35.2860   19.7180   31.7200 C   0  0  0  0  0  3  0  0  0  0  0  0
   35.1790   19.8760   33.0960 C   0  0  0  0  0  3  0  0  0  0  0  0
   35.5560   20.8770   36.3670 N   0  0  0  0  0  0  0  0  0  0  0  0
   35.7210   20.8410   35.2120 C   0  0  0  0  0  0  0  0  0  0  0  0
  1  4  1  6  0  0  0
  1  8  1  0  0  0  0
  2  5  1  6  0  0  0
  2 17  1  0  0  0  0
  2  3  1  0  0  0  0
  2  1  1  0  0  0  0
  3  1  1  0  0  0  0
  3  6  1  0  0  0  0
  7  3  1  0  0  0  0
  8  9  2  0  0  0  0
  8 13  1  0  0  0  0
  9 10  1  0  0  0  0
 10 15  1  0  0  0  0
 10 11  2  0  0  0  0
 12 11  1  0  0  0  0
 12 16  1  0  0  0  0
 13 12  2  0  0  0  0
 14  9  1  0  0  0  0
 18 27  1  0  0  0  0
 19 18  1  0  0  0  0
 19 17  1  0  0  0  0
 20 19  2  0  0  0  0
 21 20  1  0  0  0  0
 22 24  2  0  0  0  0
 22 20  1  0  0  0  0
 23 22  1  0  0  0  0
 24 25  1  0  0  0  0
 25 18  2  0  0  0  0
 27 26  3  0  0  0  0
M  END
>  <minimizedAffinity>
-4.89221716

$$$$

 OpenBabel03272507173D

 27 29  0  0  1  0  0  0  0  0999 V2000
   38.0610   22.1350   34.5380 C   0  0  1  0  0  0  0  0  0  0  0  0
   37.8640   23.1450   33.5210 C   0  0  2  0  0  0  0  0  0  0  0  0
   39.1620   22.3650   33.4960 C   0  0  0  0  0  0  0  0  0  0  0  0
   37.6480   21.0900   34.4920 H   0  0  0  0  0  0  0  0  0  0  0  0
   37.1060   22.9540   32.7340 H   0  0  0  0  0  0  0  0  0  0  0  0
   40.0870   22.8630   33.7880 H   0  0  0  0  0  0  0  0  0  0  0  0
   39.2290   21.6570   32.6480 H   0  0  0  0  0  0  0  0  0  0  0  0
   38.5060   22.4980   35.9280 C   0  0  0  0  0  0  0  0  0  0  0  0
   37.5640   23.1490   36.7270 C   0  0  0  0  0  0  0  0  0  0  0  0
   38.0120   23.5040   38.0070 C   0  0  0  0  0  0  0  0  0  0  0  0
   39.2990   23.2120   38.4070 N   0  0  0  0  0  0  0  0  0  0  0  0
   40.1680   22.5750   37.5800 C   0  0  0  0  0  0  0  0  0  0  0  0
   39.7530   22.2200   36.3280 N   0  0  0  0  0  0  0  0  0  0  0  0
   36.5580   23.3750   36.4050 H   0  0  0  0  0  0  0  0  0  0  0  0
   37.3160   24.0080   38.6580 H   0  0  0  0  0  0  0  0  0  0  0  0
   41.1580   22.3830   37.9700 H   0  0  0  0  0  0  0  0  0  0  0  0
   37.9920   24.4990   33.8700 O   0  0  0  0  0  0  0  0  0  0  0  0
   37.3100   26.7310   34.0580 C   0  0  0  0  0  0  0  0  0  0  0  0
   37.3410   25.5590   33.3050 C   0  0  0  0  0  0  0  0  0  0  0  0
   36.7100   25.6080   32.0770 C   0  0  0  0  0  0  0  0  0  0  0  0
   36.7370   24.7010   31.5020 H   0  0  0  0  0  0  0  0  0  0  0  0
   36.0890   26.7440   31.6260 C   0  0  0  0  0  0  0  0  0  0  0  0
   35.6250   26.6770   30.6520 H   0  0  0  0  0  0  0  0  0  0  0  0
   36.0480   27.9120   32.3550 C   0  0  0  0  0  3  0  0  0  0  0  0
   36.6820   27.8670   33.5910 C   0  0  0  0  0  3  0  0  0  0  0  0
   38.4200   26.9300   36.4020 N   0  0  0  0  0  0  0  0  0  0  0  0
   37.9210   26.8330   35.3500 C   0  0  0  0  0  0  0  0  0  0  0  0
  1  4  1  6  0  0  0
  1  8  1  0  0  0  0
  2  5  1  6  0  0  0
  2 17  1  0  0  0  0
  2  1  1  0  0  0  0
  3  2  1  0  0  0  0
  3  6  1  0  0  0  0
  3  1  1  0  0  0  0
  7  3  1  0  0  0  0
  8 13  2  0  0  0  0
  8  9  1  0  0  0  0
  9 10  2  0  0  0  0
 10 11  1  0  0  0  0
 10 15  1  0  0  0  0
 12 16  1  0  0  0  0
 12 11  2  0  0  0  0
 13 12  1  0  0  0  0
 14  9  1  0  0  0  0
 18 27  1  0  0  0  0
 19 17  1  0  0  0  0
 19 18  2  0  0  0  0
 20 19  1  0  0  0  0
 21 20  1  0  0  0  0
 22 20  2  0  0  0  0
 22 24  1  0  0  0  0
 23 22  1  0  0  0  0
 24 25  2  0  0  0  0
 25 18  1  0  0  0  0
 27 26  3  0  0  0  0
M  END
>  <minimizedAffinity>
-4.61870289

$$$$

 OpenBabel03272507173D

 27 29  0  0  1  0  0  0  0  0999 V2000
   37.5470   26.9330   34.9680 C   0  0  1  0  0  0  0  0  0  0  0  0
   37.9850   25.9890   35.9740 C   0  0  2  0  0  0  0  0  0  0  0  0
   38.9520   27.0800   35.5650 C   0  0  0  0  0  0  0  0  0  0  0  0
   36.9060   27.8330   35.1710 H   0  0  0  0  0  0  0  0  0  0  0  0
   37.5110   26.0350   36.9750 H   0  0  0  0  0  0  0  0  0  0  0  0
   39.8240   26.8210   34.9650 H   0  0  0  0  0  0  0  0  0  0  0  0
   39.1030   27.8450   36.3510 H   0  0  0  0  0  0  0  0  0  0  0  0
   37.5830   26.5920   33.5040 C   0  0  0  0  0  0  0  0  0  0  0  0
   38.2400   27.5020   32.6740 C   0  0  0  0  0  0  0  0  0  0  0  0
   38.2360   27.1780   31.3100 C   0  0  0  0  0  0  0  0  0  0  0  0
   37.6140   26.0300   30.8640 N   0  0  0  0  0  0  0  0  0  0  0  0
   36.9920   25.1840   31.7250 C   0  0  0  0  0  0  0  0  0  0  0  0
   36.9840   25.4810   33.0580 N   0  0  0  0  0  0  0  0  0  0  0  0
   38.7240   28.4000   33.0320 H   0  0  0  0  0  0  0  0  0  0  0  0
   38.7320   27.8540   30.6340 H   0  0  0  0  0  0  0  0  0  0  0  0
   36.5300   24.3060   31.2940 H   0  0  0  0  0  0  0  0  0  0  0  0
   38.3520   24.6920   35.5780 O   0  0  0  0  0  0  0  0  0  0  0  0
   39.5790   23.3190   37.0250 C   0  0  0  0  0  0  0  0  0  0  0  0
   39.5320   24.0560   35.8420 C   0  0  0  0  0  0  0  0  0  0  0  0
   40.6810   24.0530   35.0780 C   0  0  0  0  0  0  0  0  0  0  0  0
   40.6380   24.6240   34.1680 H   0  0  0  0  0  0  0  0  0  0  0  0
   41.8060   23.3680   35.4600 C   0  0  0  0  0  0  0  0  0  0  0  0
   42.6510   23.4310   34.7920 H   0  0  0  0  0  0  0  0  0  0  0  0
   41.8720   22.6340   36.6250 C   0  0  0  0  0  3  0  0  0  0  0  0
   40.7160   22.6330   37.3960 C   0  0  0  0  0  3  0  0  0  0  0  0
   37.5460   23.1450   38.6380 N   0  0  0  0  0  0  0  0  0  0  0  0
   38.4630   23.2270   37.9200 C   0  0  0  0  0  0  0  0  0  0  0  0
  1  4  1  1  0  0  0
  1  3  1  0  0  0  0
  1  2  1  0  0  0  0
  2  5  1  1  0  0  0
  3  2  1  0  0  0  0
  3  7  1  0  0  0  0
  6  3  1  0  0  0  0
  8  1  1  0  0  0  0
  9 14  1  0  0  0  0
  9  8  2  0  0  0  0
 10  9  1  0  0  0  0
 11 10  2  0  0  0  0
 11 12  1  0  0  0  0
 12 13  2  0  0  0  0
 13  8  1  0  0  0  0
 15 10  1  0  0  0  0
 16 12  1  0  0  0  0
 17 19  1  0  0  0  0
 17  2  1  0  0  0  0
 18 25  1  0  0  0  0
 18 27  1  0  0  0  0
 19 18  2  0  0  0  0
 20 22  2  0  0  0  0
 20 19  1  0  0  0  0
 21 20  1  0  0  0  0
 22 24  1  0  0  0  0
 23 22  1  0  0  0  0
 24 25  2  0  0  0  0
 27 26  3  0  0  0  0
M  END
>  <minimizedAffinity>
-4.58097267

$$$$

 OpenBabel03272507173D

 27 29  0  0  1  0  0  0  0  0999 V2000
   37.7740   22.1230   34.5000 C   0  0  1  0  0  0  0  0  0  0  0  0
   37.9750   22.9590   33.3350 C   0  0  2  0  0  0  0  0  0  0  0  0
   38.7290   21.6460   33.3980 C   0  0  0  0  0  0  0  0  0  0  0  0
   36.9090   21.4200   34.6410 H   0  0  0  0  0  0  0  0  0  0  0  0
   37.1370   23.0650   32.6170 H   0  0  0  0  0  0  0  0  0  0  0  0
   39.8040   21.6580   33.5720 H   0  0  0  0  0  0  0  0  0  0  0  0
   38.3530   20.8930   32.6770 H   0  0  0  0  0  0  0  0  0  0  0  0
   38.4890   22.3960   35.7940 C   0  0  0  0  0  0  0  0  0  0  0  0
   37.7800   23.1280   36.7480 C   0  0  0  0  0  0  0  0  0  0  0  0
   38.4780   23.3960   37.9340 C   0  0  0  0  0  0  0  0  0  0  0  0
   39.7720   22.9490   38.1040 N   0  0  0  0  0  0  0  0  0  0  0  0
   40.4060   22.2400   37.1350 C   0  0  0  0  0  0  0  0  0  0  0  0
   39.7450   21.9680   35.9710 N   0  0  0  0  0  0  0  0  0  0  0  0
   36.7670   23.4760   36.6060 H   0  0  0  0  0  0  0  0  0  0  0  0
   37.9670   23.9590   38.6980 H   0  0  0  0  0  0  0  0  0  0  0  0
   41.4190   21.9260   37.3470 H   0  0  0  0  0  0  0  0  0  0  0  0
   38.7750   24.1070   33.4500 O   0  0  0  0  0  0  0  0  0  0  0  0
   39.4550   25.8740   34.8270 C   0  0  0  0  0  0  0  0  0  0  0  0
   38.4470   25.2790   34.0700 C   0  0  0  0  0  0  0  0  0  0  0  0
   37.2380   25.9440   34.0370 C   0  0  0  0  0  0  0  0  0  0  0  0
   36.4650   25.4790   33.4530 H   0  0  0  0  0  0  0  0  0  0  0  0
   37.0380   27.1220   34.7100 C   0  0  0  0  0  0  0  0  0  0  0  0
   36.0560   27.5610   34.6200 H   0  0  0  0  0  0  0  0  0  0  0  0
   38.0220   27.7260   35.4630 C   0  0  0  0  0  3  0  0  0  0  0  0
   39.2410   27.0610   35.4980 C   0  0  0  0  0  3  0  0  0  0  0  0
   41.8340   24.8470   35.0510 N   0  0  0  0  0  0  0  0  0  0  0  0
   40.7620   25.3020   34.9550 C   0  0  0  0  0  0  0  0  0  0  0  0
  1  4  1  1  0  0  0
  1  8  1  0  0  0  0
  2  5  1  6  0  0  0
  2  3  1  0  0  0  0
  2 17  1  0  0  0  0
  2  1  1  0  0  0  0
  3  6  1  0  0  0  0
  3  1  1  0  0  0  0
  7  3  1  0  0  0  0
  8 13  2  0  0  0  0
  8  9  1  0  0  0  0
  9 10  2  0  0  0  0
 10 11  1  0  0  0  0
 10 15  1  0  0  0  0
 12 16  1  0  0  0  0
 12 11  2  0  0  0  0
 13 12  1  0  0  0  0
 14  9  1  0  0  0  0
 17 19  1  0  0  0  0
 18 27  1  0  0  0  0
 18 25  1  0  0  0  0
 19 18  2  0  0  0  0
 20 19  1  0  0  0  0
 20 22  2  0  0  0  0
 21 20  1  0  0  0  0
 22 24  1  0  0  0  0
 23 22  1  0  0  0  0
 24 25  2  0  0  0  0
 27 26  3  0  0  0  0
M  END
>  <minimizedAffinity>
-4.57496881

$$$$

 OpenBabel03272507173D

 27 29  0  0  1  0  0  0  0  0999 V2000
   36.8770   25.4070   31.2780 C   0  0  1  0  0  0  0  0  0  0  0  0
   36.6890   23.9830   31.0990 C   0  0  2  0  0  0  0  0  0  0  0  0
   35.4640   24.8700   31.0170 C   0  0  0  0  0  0  0  0  0  0  0  0
   37.2150   26.1140   30.4730 H   0  0  0  0  0  0  0  0  0  0  0  0
   37.0800   23.5170   30.1720 H   0  0  0  0  0  0  0  0  0  0  0  0
   34.7360   24.8470   31.8270 H   0  0  0  0  0  0  0  0  0  0  0  0
   35.0580   24.9580   29.9900 H   0  0  0  0  0  0  0  0  0  0  0  0
   37.0120   26.0140   32.6470 C   0  0  0  0  0  0  0  0  0  0  0  0
   36.5440   27.3210   32.7910 C   0  0  0  0  0  0  0  0  0  0  0  0
   36.7070   27.8750   34.0690 C   0  0  0  0  0  0  0  0  0  0  0  0
   37.2930   27.1450   35.0820 N   0  0  0  0  0  0  0  0  0  0  0  0
   37.7270   25.8740   34.8760 C   0  0  0  0  0  0  0  0  0  0  0  0
   37.5780   25.3150   33.6390 N   0  0  0  0  0  0  0  0  0  0  0  0
   36.0880   27.8870   31.9920 H   0  0  0  0  0  0  0  0  0  0  0  0
   36.3600   28.8830   34.2240 H   0  0  0  0  0  0  0  0  0  0  0  0
   38.1740   25.3710   35.7210 H   0  0  0  0  0  0  0  0  0  0  0  0
   36.7380   23.1420   32.2220 O   0  0  0  0  0  0  0  0  0  0  0  0
   36.4180   21.2370   33.5460 C   0  0  0  0  0  0  0  0  0  0  0  0
   36.1610   21.9110   32.3530 C   0  0  0  0  0  0  0  0  0  0  0  0
   35.3520   21.2550   31.4470 C   0  0  0  0  0  0  0  0  0  0  0  0
   35.1580   21.7790   30.5290 H   0  0  0  0  0  0  0  0  0  0  0  0
   34.8330   20.0120   31.7040 C   0  0  0  0  0  0  0  0  0  0  0  0
   34.2130   19.5860   30.9290 H   0  0  0  0  0  0  0  0  0  0  0  0
   35.0750   19.3300   32.8760 C   0  0  0  0  0  3  0  0  0  0  0  0
   35.8880   19.9870   33.7920 C   0  0  0  0  0  3  0  0  0  0  0  0
   37.9040   22.2320   35.4350 N   0  0  0  0  0  0  0  0  0  0  0  0
   37.2380   21.7910   34.5820 C   0  0  0  0  0  0  0  0  0  0  0  0
  1  4  1  6  0  0  0
  1  8  1  0  0  0  0
  2  5  1  6  0  0  0
  2  1  1  0  0  0  0
  2 17  1  0  0  0  0
  3  2  1  0  0  0  0
  3  1  1  0  0  0  0
  3  6  1  0  0  0  0
  7  3  1  0  0  0  0
  8  9  2  0  0  0  0
  8 13  1  0  0  0  0
  9 10  1  0  0  0  0
 10 15  1  0  0  0  0
 10 11  2  0  0  0  0
 12 11  1  0  0  0  0
 12 16  1  0  0  0  0
 13 12  2  0  0  0  0
 14  9  1  0  0  0  0
 17 19  1  0  0  0  0
 18 25  1  0  0  0  0
 18 27  1  0  0  0  0
 19 18  2  0  0  0  0
 20 22  2  0  0  0  0
 20 19  1  0  0  0  0
 21 20  1  0  0  0  0
 22 24  1  0  0  0  0
 23 22  1  0  0  0  0
 24 25  2  0  0  0  0
 27 26  3  0  0  0  0
M  END
>  <minimizedAffinity>
-4.56432438

$$$$

 OpenBabel03272507173D

 27 29  0  0  1  0  0  0  0  0999 V2000
   41.2010   26.8990   34.2420 C   0  0  1  0  0  0  0  0  0  0  0  0
   41.8330   25.6570   34.6350 C   0  0  2  0  0  0  0  0  0  0  0  0
   41.7130   25.9480   33.1530 C   0  0  0  0  0  0  0  0  0  0  0  0
   41.7160   27.8970   34.2070 H   0  0  0  0  0  0  0  0  0  0  0  0
   42.8320   25.7090   35.1140 H   0  0  0  0  0  0  0  0  0  0  0  0
   41.0020   25.3780   32.5560 H   0  0  0  0  0  0  0  0  0  0  0  0
   42.6830   26.1830   32.6750 H   0  0  0  0  0  0  0  0  0  0  0  0
   39.7040   27.0420   34.2160 C   0  0  0  0  0  0  0  0  0  0  0  0
   39.0720   27.1390   35.4570 C   0  0  0  0  0  0  0  0  0  0  0  0
   37.6740   27.2410   35.4080 C   0  0  0  0  0  0  0  0  0  0  0  0
   37.0120   27.2430   34.1980 N   0  0  0  0  0  0  0  0  0  0  0  0
   37.6880   27.1460   33.0240 C   0  0  0  0  0  0  0  0  0  0  0  0
   39.0500   27.0450   33.0480 N   0  0  0  0  0  0  0  0  0  0  0  0
   39.5980   27.1360   36.4010 H   0  0  0  0  0  0  0  0  0  0  0  0
   37.1460   27.3190   36.3440 H   0  0  0  0  0  0  0  0  0  0  0  0
   37.0950   27.1540   32.1200 H   0  0  0  0  0  0  0  0  0  0  0  0
   41.0330   24.6010   35.0990 O   0  0  0  0  0  0  0  0  0  0  0  0
   40.5000   22.9370   36.6570 C   0  0  0  0  0  0  0  0  0  0  0  0
   41.4450   23.5070   35.8060 C   0  0  0  0  0  0  0  0  0  0  0  0
   42.6840   22.8980   35.7770 C   0  0  0  0  0  0  0  0  0  0  0  0
   43.4080   23.3430   35.1190 H   0  0  0  0  0  0  0  0  0  0  0  0
   42.9700   21.7970   36.5430 C   0  0  0  0  0  0  0  0  0  0  0  0
   43.9680   21.3980   36.4470 H   0  0  0  0  0  0  0  0  0  0  0  0
   42.0490   21.2190   37.3890 C   0  0  0  0  0  3  0  0  0  0  0  0
   40.8010   21.8280   37.4210 C   0  0  0  0  0  3  0  0  0  0  0  0
   38.0940   23.8910   36.9120 N   0  0  0  0  0  0  0  0  0  0  0  0
   39.1720   23.4570   36.7920 C   0  0  0  0  0  0  0  0  0  0  0  0
  1  4  1  1  0  0  0
  1  2  1  0  0  0  0
  2 17  1  0  0  0  0
  2  5  1  1  0  0  0
  3  1  1  0  0  0  0
  3  2  1  0  0  0  0
  6  3  1  0  0  0  0
  7  3  1  0  0  0  0
  8  1  1  0  0  0  0
  8  9  1  0  0  0  0
  9 14  1  0  0  0  0
 10  9  2  0  0  0  0
 10 15  1  0  0  0  0
 11 10  1  0  0  0  0
 12 13  1  0  0  0  0
 12 11  2  0  0  0  0
 13  8  2  0  0  0  0
 16 12  1  0  0  0  0
 17 19  1  0  0  0  0
 18 27  1  0  0  0  0
 18 25  1  0  0  0  0
 19 18  2  0  0  0  0
 20 19  1  0  0  0  0
 20 22  2  0  0  0  0
 21 20  1  0  0  0  0
 22 24  1  0  0  0  0
 23 22  1  0  0  0  0
 24 25  2  0  0  0  0
 27 26  3  0  0  0  0
M  END
>  <minimizedAffinity>
-4.54497528

$$$$

 OpenBabel03272507173D

 27 29  0  0  1  0  0  0  0  0999 V2000
   37.4380   27.3120   34.3900 C   0  0  1  0  0  0  0  0  0  0  0  0
   37.4800   26.5070   35.5930 C   0  0  2  0  0  0  0  0  0  0  0  0
   38.6900   27.3620   35.2740 C   0  0  0  0  0  0  0  0  0  0  0  0
   36.9390   28.3160   34.3090 H   0  0  0  0  0  0  0  0  0  0  0  0
   36.8240   26.7970   36.4390 H   0  0  0  0  0  0  0  0  0  0  0  0
   39.6080   26.8790   34.9380 H   0  0  0  0  0  0  0  0  0  0  0  0
   38.8070   28.2240   35.9580 H   0  0  0  0  0  0  0  0  0  0  0  0
   37.7180   26.7160   33.0380 C   0  0  0  0  0  0  0  0  0  0  0  0
   38.7530   27.3020   32.3080 C   0  0  0  0  0  0  0  0  0  0  0  0
   38.9760   26.7480   31.0390 C   0  0  0  0  0  0  0  0  0  0  0  0
   38.2040   25.6990   30.5850 N   0  0  0  0  0  0  0  0  0  0  0  0
   37.2100   25.1730   31.3470 C   0  0  0  0  0  0  0  0  0  0  0  0
   36.9750   25.6980   32.5860 N   0  0  0  0  0  0  0  0  0  0  0  0
   39.3530   28.1240   32.6710 H   0  0  0  0  0  0  0  0  0  0  0  0
   39.7670   27.1710   30.4410 H   0  0  0  0  0  0  0  0  0  0  0  0
   36.6510   24.3530   30.9180 H   0  0  0  0  0  0  0  0  0  0  0  0
   37.6860   25.1230   35.4800 O   0  0  0  0  0  0  0  0  0  0  0  0
   39.5560   23.7360   35.7330 C   0  0  0  0  0  0  0  0  0  0  0  0
   38.4340   24.3330   36.3070 C   0  0  0  0  0  0  0  0  0  0  0  0
   38.2140   24.0570   37.6410 C   0  0  0  0  0  0  0  0  0  0  0  0
   37.3470   24.5200   38.0770 H   0  0  0  0  0  0  0  0  0  0  0  0
   39.0480   23.2410   38.3610 C   0  0  0  0  0  0  0  0  0  0  0  0
   38.7860   23.0880   39.3980 H   0  0  0  0  0  0  0  0  0  0  0  0
   40.1610   22.6420   37.8120 C   0  0  0  0  0  3  0  0  0  0  0  0
   40.3870   22.9190   36.4690 C   0  0  0  0  0  3  0  0  0  0  0  0
   40.2180   24.0820   33.2420 N   0  0  0  0  0  0  0  0  0  0  0  0
   39.9140   23.9310   34.3590 C   0  0  0  0  0  0  0  0  0  0  0  0
  1  4  1  1  0  0  0
  1  3  1  0  0  0  0
  1  2  1  0  0  0  0
  2  5  1  1  0  0  0
  3  2  1  0  0  0  0
  3  7  1  0  0  0  0
  6  3  1  0  0  0  0
  8  1  1  0  0  0  0
  9 14  1  0  0  0  0
  9  8  2  0  0  0  0
 10  9  1  0  0  0  0
 11 10  2  0  0  0  0
 11 12  1  0  0  0  0
 12 13  2  0  0  0  0
 13  8  1  0  0  0  0
 15 10  1  0  0  0  0
 16 12  1  0  0  0  0
 17  2  1  0  0  0  0
 17 19  1  0  0  0  0
 18 19  2  0  0  0  0
 18 25  1  0  0  0  0
 19 20  1  0  0  0  0
 20 21  1  0  0  0  0
 20 22  2  0  0  0  0
 22 23  1  0  0  0  0
 24 22  1  0  0  0  0
 25 24  2  0  0  0  0
 26 27  3  0  0  0  0
 27 18  1  0  0  0  0
M  END
>  <minimizedAffinity>
-4.54156923

$$$$

 OpenBabel03272507173D

 27 29  0  0  1  0  0  0  0  0999 V2000
   39.4860   26.1910   35.3440 C   0  0  1  0  0  0  0  0  0  0  0  0
   39.0220   27.2130   34.4290 C   0  0  2  0  0  0  0  0  0  0  0  0
   38.5920   27.3170   35.8780 C   0  0  0  0  0  0  0  0  0  0  0  0
   40.4950   26.1840   35.8370 H   0  0  0  0  0  0  0  0  0  0  0  0
   39.7640   27.9360   34.0340 H   0  0  0  0  0  0  0  0  0  0  0  0
   37.5560   27.1060   36.1420 H   0  0  0  0  0  0  0  0  0  0  0  0
   39.0780   28.1530   36.4180 H   0  0  0  0  0  0  0  0  0  0  0  0
   38.8160   24.8470   35.4220 C   0  0  0  0  0  0  0  0  0  0  0  0
   38.3070   24.4830   36.6700 C   0  0  0  0  0  0  0  0  0  0  0  0
   37.7140   23.2140   36.7250 C   0  0  0  0  0  0  0  0  0  0  0  0
   37.6590   22.4150   35.6020 N   0  0  0  0  0  0  0  0  0  0  0  0
   38.1730   22.8300   34.4150 C   0  0  0  0  0  0  0  0  0  0  0  0
   38.7560   24.0630   34.3390 N   0  0  0  0  0  0  0  0  0  0  0  0
   38.3550   25.1150   37.5450 H   0  0  0  0  0  0  0  0  0  0  0  0
   37.3070   22.8930   37.6700 H   0  0  0  0  0  0  0  0  0  0  0  0
   38.0900   22.1440   33.5840 H   0  0  0  0  0  0  0  0  0  0  0  0
   37.9920   26.9040   33.5260 O   0  0  0  0  0  0  0  0  0  0  0  0
   36.7340   28.4150   32.2550 C   0  0  0  0  0  0  0  0  0  0  0  0
   37.7660   27.4800   32.3080 C   0  0  0  0  0  0  0  0  0  0  0  0
   38.4380   27.2470   31.1250 C   0  0  0  0  0  0  0  0  0  0  0  0
   39.2320   26.5240   31.1730 H   0  0  0  0  0  0  0  0  0  0  0  0
   38.1090   27.8970   29.9630 C   0  0  0  0  0  0  0  0  0  0  0  0
   38.6960   27.6430   29.0930 H   0  0  0  0  0  0  0  0  0  0  0  0
   37.0930   28.8250   29.8910 C   0  0  0  0  0  3  0  0  0  0  0  0
   36.4150   29.0630   31.0800 C   0  0  0  0  0  3  0  0  0  0  0  0
   35.3080   29.0580   34.3320 N   0  0  0  0  0  0  0  0  0  0  0  0
   35.9490   28.7620   33.4020 C   0  0  0  0  0  0  0  0  0  0  0  0
  1  8  1  0  0  0  0
  1  4  1  1  0  0  0
  1  3  1  0  0  0  0
  2  5  1  6  0  0  0
  2  1  1  0  0  0  0
  2  3  1  0  0  0  0
  3  6  1  0  0  0  0
  3  7  1  0  0  0  0
  8  9  1  0  0  0  0
  9 10  2  0  0  0  0
  9 14  1  0  0  0  0
 10 15  1  0  0  0  0
 11 10  1  0  0  0  0
 12 11  2  0  0  0  0
 13 12  1  0  0  0  0
 13  8  2  0  0  0  0
 16 12  1  0  0  0  0
 17  2  1  0  0  0  0
 18 19  1  0  0  0  0
 18 27  1  0  0  0  0
 19 17  1  0  0  0  0
 20 21  1  0  0  0  0
 20 19  2  0  0  0  0
 22 20  1  0  0  0  0
 23 22  1  0  0  0  0
 24 22  2  0  0  0  0
 24 25  1  0  0  0  0
 25 18  2  0  0  0  0
 27 26  3  0  0  0  0
M  END
>  <minimizedAffinity>
-4.46903181

$$$$

 OpenBabel03272507173D

 27 29  0  0  1  0  0  0  0  0999 V2000
   40.1130   24.3470   34.4930 C   0  0  1  0  0  0  0  0  0  0  0  0
   39.2750   25.0430   33.5400 C   0  0  2  0  0  0  0  0  0  0  0  0
   40.2820   25.8610   34.3210 C   0  0  0  0  0  0  0  0  0  0  0  0
   41.0500   23.7850   34.2310 H   0  0  0  0  0  0  0  0  0  0  0  0
   39.4500   24.8610   32.4600 H   0  0  0  0  0  0  0  0  0  0  0  0
   39.9280   26.5370   35.1000 H   0  0  0  0  0  0  0  0  0  0  0  0
   41.1260   26.2210   33.7010 H   0  0  0  0  0  0  0  0  0  0  0  0
   39.6060   23.9820   35.8610 C   0  0  0  0  0  0  0  0  0  0  0  0
   40.3810   23.0720   36.5830 C   0  0  0  0  0  0  0  0  0  0  0  0
   39.8740   22.7250   37.8430 C   0  0  0  0  0  0  0  0  0  0  0  0
   38.6900   23.2690   38.2980 N   0  0  0  0  0  0  0  0  0  0  0  0
   37.9830   24.1510   37.5450 C   0  0  0  0  0  0  0  0  0  0  0  0
   38.4590   24.5030   36.3140 N   0  0  0  0  0  0  0  0  0  0  0  0
   41.3060   22.6500   36.2190 H   0  0  0  0  0  0  0  0  0  0  0  0
   40.4400   22.0250   38.4350 H   0  0  0  0  0  0  0  0  0  0  0  0
   37.0670   24.5300   37.9740 H   0  0  0  0  0  0  0  0  0  0  0  0
   37.9310   25.2890   33.8640 O   0  0  0  0  0  0  0  0  0  0  0  0
   36.5590   26.3140   32.2680 C   0  0  0  0  0  0  0  0  0  0  0  0
   37.1860   26.3780   33.5110 C   0  0  0  0  0  0  0  0  0  0  0  0
   36.9800   27.5340   34.2380 C   0  0  0  0  0  0  0  0  0  0  0  0
   37.4660   27.5770   35.1950 H   0  0  0  0  0  0  0  0  0  0  0  0
   36.2030   28.5600   33.7640 C   0  0  0  0  0  0  0  0  0  0  0  0
   36.1060   29.4200   34.4100 H   0  0  0  0  0  0  0  0  0  0  0  0
   35.5750   28.5150   32.5390 C   0  0  0  0  0  3  0  0  0  0  0  0
   35.7790   27.3540   31.8040 C   0  0  0  0  0  3  0  0  0  0  0  0
   36.7920   24.2540   30.6970 N   0  0  0  0  0  0  0  0  0  0  0  0
   36.6790   25.1790   31.4010 C   0  0  0  0  0  0  0  0  0  0  0  0
  1  4  1  6  0  0  0
  1  8  1  0  0  0  0
  2  5  1  6  0  0  0
  2 17  1  0  0  0  0
  2  3  1  0  0  0  0
  2  1  1  0  0  0  0
  3  1  1  0  0  0  0
  3  6  1  0  0  0  0
  7  3  1  0  0  0  0
  8 13  2  0  0  0  0
  8  9  1  0  0  0  0
  9 10  2  0  0  0  0
 10 11  1  0  0  0  0
 10 15  1  0  0  0  0
 12 16  1  0  0  0  0
 12 11  2  0  0  0  0
 13 12  1  0  0  0  0
 14  9  1  0  0  0  0
 18 19  1  0  0  0  0
 19 17  1  0  0  0  0
 19 20  2  0  0  0  0
 20 21  1  0  0  0  0
 22 20  1  0  0  0  0
 22 23  1  0  0  0  0
 24 22  2  0  0  0  0
 25 18  2  0  0  0  0
 25 24  1  0  0  0  0
 26 27  3  0  0  0  0
 27 18  1  0  0  0  0
M  END
>  <minimizedAffinity>
-4.45693207

$$$$
