
 OpenBabel03272503003D

 35 37  0  0  1  0  0  0  0  0999 V2000
   39.1340   24.3530   35.8000 N   0  0  0  0  0  0  0  0  0  0  0  0
   38.0090   24.8700   36.5500 C   0  0  0  0  0  0  0  0  0  0  0  0
   37.9390   24.5500   37.9740 C   0  0  0  0  0  0  0  0  0  0  0  0
   38.5850   23.3180   38.4500 C   0  0  0  0  0  0  0  0  0  0  0  0
   39.6790   22.8060   37.5560 C   0  0  0  0  0  0  0  0  0  0  0  0
   39.2560   22.9380   36.0880 C   0  0  1  0  0  0  0  0  0  0  0  0
   37.9420   25.9620   36.3500 H   0  0  0  0  0  0  0  0  0  0  0  0
   37.1030   24.4310   36.0360 H   0  0  0  0  0  0  0  0  0  0  0  0
   38.3400   25.4300   38.5430 H   0  0  0  0  0  0  0  0  0  0  0  0
   36.8570   24.4990   38.2890 H   0  0  0  0  0  0  0  0  0  0  0  0
   39.0670   23.5010   39.4540 H   0  0  0  0  0  0  0  0  0  0  0  0
   37.8570   22.4840   38.6500 H   0  0  0  0  0  0  0  0  0  0  0  0
   40.5860   23.4230   37.6630 H   0  0  0  0  0  0  0  0  0  0  0  0
   39.8610   21.7310   37.7480 H   0  0  0  0  0  0  0  0  0  0  0  0
   40.0680   22.4650   35.5190 H   0  0  0  0  0  0  0  0  0  0  0  0
   39.9690   25.1200   34.9320 C   0  0  0  0  0  0  0  0  0  0  0  0
   40.0530   26.5080   34.9470 C   0  0  0  0  0  0  0  0  0  0  0  0
   40.8990   27.1480   34.0580 C   0  0  0  0  0  0  0  0  0  0  0  0
   41.6140   26.3710   33.2010 N   0  0  0  0  0  0  0  0  0  0  0  0
   41.5080   25.0250   33.2120 C   0  0  0  0  0  0  0  0  0  0  0  0
   40.6880   24.4120   34.0760 N   0  0  0  0  0  0  0  0  0  0  0  0
   39.4590   27.0390   35.6510 H   0  0  0  0  0  0  0  0  0  0  0  0
   40.9720   28.2320   34.0620 H   0  0  0  0  0  0  0  0  0  0  0  0
   42.1180   24.4600   32.4900 H   0  0  0  0  0  0  0  0  0  0  0  0
   38.0170   22.3010   36.0200 O   0  0  0  0  0  0  0  0  0  0  0  0
   36.2640   21.1040   35.1040 C   0  0  0  0  0  0  0  0  0  0  0  0
   37.4710   21.7450   34.8760 C   0  0  0  0  0  0  0  0  0  0  0  0
   37.9580   21.7490   33.5950 C   0  0  0  0  0  0  0  0  0  0  0  0
   38.9020   22.2630   33.4760 H   0  0  0  0  0  0  0  0  0  0  0  0
   37.2700   21.1370   32.5720 C   0  0  0  0  0  0  0  0  0  0  0  0
   37.7370   21.1950   31.5980 H   0  0  0  0  0  0  0  0  0  0  0  0
   36.0840   20.5040   32.7840 C   0  0  0  0  0  3  0  0  0  0  0  0
   35.5740   20.4880   34.0660 C   0  0  0  0  0  3  0  0  0  0  0  0
   35.1420   20.9410   37.4370 N   0  0  0  0  0  0  0  0  0  0  0  0
   35.6320   21.0190   36.4000 C   0  0  0  0  0  0  0  0  0  0  0  0
  1  6  1  0  0  0  0
  1  2  1  0  0  0  0
  2  3  1  0  0  0  0
  3 10  1  0  0  0  0
  3  4  1  0  0  0  0
  3  9  1  0  0  0  0
  4 12  1  0  0  0  0
  4 11  1  0  0  0  0
  5 13  1  0  0  0  0
  5 14  1  0  0  0  0
  5  4  1  0  0  0  0
  6 15  1  6  0  0  0
  6  5  1  0  0  0  0
  7  2  1  0  0  0  0
  8  2  1  0  0  0  0
 16 17  1  0  0  0  0
 16  1  1  0  0  0  0
 17 22  1  0  0  0  0
 18 23  1  0  0  0  0
 18 17  2  0  0  0  0
 19 20  2  0  0  0  0
 19 18  1  0  0  0  0
 20 21  1  0  0  0  0
 21 16  2  0  0  0  0
 24 20  1  0  0  0  0
 25  6  1  0  0  0  0
 26 35  1  0  0  0  0
 27 26  1  0  0  0  0
 27 25  1  0  0  0  0
 28 27  2  0  0  0  0
 29 28  1  0  0  0  0
 30 32  2  0  0  0  0
 30 28  1  0  0  0  0
 31 30  1  0  0  0  0
 32 33  1  0  0  0  0
 33 26  2  0  0  0  0
 35 34  3  0  0  0  0
M  END
>  <minimizedAffinity>
-5.58432293

$$$$

 OpenBabel03272503003D

 35 37  0  0  1  0  0  0  0  0999 V2000
   37.8020   25.4030   33.8910 N   0  0  0  0  0  0  0  0  0  0  0  0
   37.4620   26.2290   35.0290 C   0  0  0  0  0  0  0  0  0  0  0  0
   38.4180   27.2600   35.4290 C   0  0  0  0  0  0  0  0  0  0  0  0
   39.8400   27.0570   35.1180 C   0  0  0  0  0  0  0  0  0  0  0  0
   40.0980   26.1080   33.9810 C   0  0  0  0  0  0  0  0  0  0  0  0
   39.1510   24.9060   34.0820 C   0  0  1  0  0  0  0  0  0  0  0  0
   36.4390   26.6330   34.8600 H   0  0  0  0  0  0  0  0  0  0  0  0
   37.3410   25.4970   35.8820 H   0  0  0  0  0  0  0  0  0  0  0  0
   38.0720   28.2350   34.9960 H   0  0  0  0  0  0  0  0  0  0  0  0
   38.3420   27.4210   36.5430 H   0  0  0  0  0  0  0  0  0  0  0  0
   40.3100   28.0360   34.8150 H   0  0  0  0  0  0  0  0  0  0  0  0
   40.4470   26.7320   36.0080 H   0  0  0  0  0  0  0  0  0  0  0  0
   39.8690   26.5900   33.0170 H   0  0  0  0  0  0  0  0  0  0  0  0
   41.1310   25.7150   34.0350 H   0  0  0  0  0  0  0  0  0  0  0  0
   39.4660   24.2330   33.2730 H   0  0  0  0  0  0  0  0  0  0  0  0
   36.9460   25.1340   32.7800 C   0  0  0  0  0  0  0  0  0  0  0  0
   36.6920   23.8630   32.2740 C   0  0  0  0  0  0  0  0  0  0  0  0
   35.8420   23.7210   31.1910 C   0  0  0  0  0  0  0  0  0  0  0  0
   35.2910   24.8500   30.6720 N   0  0  0  0  0  0  0  0  0  0  0  0
   35.5590   26.0690   31.1880 C   0  0  0  0  0  0  0  0  0  0  0  0
   36.3820   26.2000   32.2360 N   0  0  0  0  0  0  0  0  0  0  0  0
   37.1650   23.0330   32.7410 H   0  0  0  0  0  0  0  0  0  0  0  0
   35.6380   22.7320   30.7880 H   0  0  0  0  0  0  0  0  0  0  0  0
   35.0760   26.9390   30.7160 H   0  0  0  0  0  0  0  0  0  0  0  0
   39.3310   24.4230   35.3770 O   0  0  0  0  0  0  0  0  0  0  0  0
   40.0060   22.9080   36.9890 C   0  0  0  0  0  0  0  0  0  0  0  0
   40.2630   23.4680   35.7470 C   0  0  0  0  0  0  0  0  0  0  0  0
   41.3650   23.0260   35.0640 C   0  0  0  0  0  0  0  0  0  0  0  0
   41.5160   23.4970   34.1030 H   0  0  0  0  0  0  0  0  0  0  0  0
   42.1880   22.0580   35.5950 C   0  0  0  0  0  0  0  0  0  0  0  0
   43.0320   21.7770   34.9790 H   0  0  0  0  0  0  0  0  0  0  0  0
   41.9470   21.5010   36.8130 C   0  0  0  0  0  3  0  0  0  0  0  0
   40.8410   21.9310   37.5180 C   0  0  0  0  0  3  0  0  0  0  0  0
   37.9900   23.5520   38.4870 N   0  0  0  0  0  0  0  0  0  0  0  0
   38.8840   23.2760   37.8190 C   0  0  0  0  0  0  0  0  0  0  0  0
  1  6  1  0  0  0  0
  1  2  1  0  0  0  0
  2  3  1  0  0  0  0
  2  8  1  0  0  0  0
  3 10  1  0  0  0  0
  4  3  1  0  0  0  0
  4 12  1  0  0  0  0
  5 14  1  0  0  0  0
  5  6  1  0  0  0  0
  5  4  1  0  0  0  0
  6 15  1  6  0  0  0
  6 25  1  0  0  0  0
  7  2  1  0  0  0  0
  9  3  1  0  0  0  0
 11  4  1  0  0  0  0
 13  5  1  0  0  0  0
 16  1  1  0  0  0  0
 17 22  1  0  0  0  0
 17 16  1  0  0  0  0
 18 17  2  0  0  0  0
 19 20  2  0  0  0  0
 19 18  1  0  0  0  0
 20 21  1  0  0  0  0
 21 16  2  0  0  0  0
 23 18  1  0  0  0  0
 24 20  1  0  0  0  0
 25 27  1  0  0  0  0
 26 33  1  0  0  0  0
 26 35  1  0  0  0  0
 27 26  2  0  0  0  0
 28 30  2  0  0  0  0
 28 27  1  0  0  0  0
 29 28  1  0  0  0  0
 30 32  1  0  0  0  0
 31 30  1  0  0  0  0
 32 33  2  0  0  0  0
 35 34  3  0  0  0  0
M  END
>  <minimizedAffinity>
-5.43011379

$$$$

 OpenBabel03272503003D

 35 37  0  0  1  0  0  0  0  0999 V2000
   38.0440   24.3800   35.7190 N   0  0  0  0  0  0  0  0  0  0  0  0
   37.6280   23.9190   37.0270 C   0  0  0  0  0  0  0  0  0  0  0  0
   38.6390   23.2980   37.8800 C   0  0  0  0  0  0  0  0  0  0  0  0
   39.7870   22.6360   37.2420 C   0  0  0  0  0  0  0  0  0  0  0  0
   40.0830   23.1160   35.8490 C   0  0  0  0  0  0  0  0  0  0  0  0
   38.7740   23.3060   35.0740 C   0  0  1  0  0  0  0  0  0  0  0  0
   37.0980   24.7590   37.5290 H   0  0  0  0  0  0  0  0  0  0  0  0
   36.8190   23.1590   36.8130 H   0  0  0  0  0  0  0  0  0  0  0  0
   39.0060   24.0760   38.6000 H   0  0  0  0  0  0  0  0  0  0  0  0
   38.1430   22.5330   38.5450 H   0  0  0  0  0  0  0  0  0  0  0  0
   40.7230   22.8300   37.8410 H   0  0  0  0  0  0  0  0  0  0  0  0
   39.7020   21.5150   37.2310 H   0  0  0  0  0  0  0  0  0  0  0  0
   40.5630   24.1070   35.8760 H   0  0  0  0  0  0  0  0  0  0  0  0
   40.6790   22.3600   35.3010 H   0  0  0  0  0  0  0  0  0  0  0  0
   39.0870   23.5690   34.0550 H   0  0  0  0  0  0  0  0  0  0  0  0
   37.7730   25.6720   35.1760 C   0  0  0  0  0  0  0  0  0  0  0  0
   37.9530   26.8670   35.8640 C   0  0  0  0  0  0  0  0  0  0  0  0
   37.6580   28.0650   35.2360 C   0  0  0  0  0  0  0  0  0  0  0  0
   37.2000   28.0070   33.9570 N   0  0  0  0  0  0  0  0  0  0  0  0
   37.0360   26.8290   33.3180 C   0  0  0  0  0  0  0  0  0  0  0  0
   37.3240   25.6740   33.9310 N   0  0  0  0  0  0  0  0  0  0  0  0
   38.3160   26.8220   36.8630 H   0  0  0  0  0  0  0  0  0  0  0  0
   37.7950   29.0040   35.7650 H   0  0  0  0  0  0  0  0  0  0  0  0
   36.6620   26.8590   32.2830 H   0  0  0  0  0  0  0  0  0  0  0  0
   38.1040   22.0900   35.2080 O   0  0  0  0  0  0  0  0  0  0  0  0
   36.2290   20.8850   34.5940 C   0  0  0  0  0  0  0  0  0  0  0  0
   37.4350   21.4340   34.1890 C   0  0  0  0  0  0  0  0  0  0  0  0
   37.8050   21.2670   32.8800 C   0  0  0  0  0  0  0  0  0  0  0  0
   38.7530   21.7160   32.6210 H   0  0  0  0  0  0  0  0  0  0  0  0
   37.0030   20.5770   31.9990 C   0  0  0  0  0  0  0  0  0  0  0  0
   37.3820   20.4990   30.9890 H   0  0  0  0  0  0  0  0  0  0  0  0
   35.8170   20.0320   32.3850 C   0  0  0  0  0  3  0  0  0  0  0  0
   35.4250   20.1890   33.6990 C   0  0  0  0  0  3  0  0  0  0  0  0
   35.2880   21.0520   37.0050 N   0  0  0  0  0  0  0  0  0  0  0  0
   35.7140   20.9820   35.9390 C   0  0  0  0  0  0  0  0  0  0  0  0
  1  2  1  0  0  0  0
  2  7  1  0  0  0  0
  2  3  1  0  0  0  0
  3 10  1  0  0  0  0
  3  9  1  0  0  0  0
  4 11  1  0  0  0  0
  4  3  1  0  0  0  0
  5 13  1  0  0  0  0
  5  4  1  0  0  0  0
  6 15  1  6  0  0  0
  6 25  1  0  0  0  0
  6  1  1  0  0  0  0
  6  5  1  0  0  0  0
  8  2  1  0  0  0  0
 12  4  1  0  0  0  0
 14  5  1  0  0  0  0
 16  1  1  0  0  0  0
 16 17  1  0  0  0  0
 17 22  1  0  0  0  0
 18 23  1  0  0  0  0
 18 17  2  0  0  0  0
 19 18  1  0  0  0  0
 20 21  1  0  0  0  0
 20 19  2  0  0  0  0
 21 16  2  0  0  0  0
 24 20  1  0  0  0  0
 26 35  1  0  0  0  0
 27 26  1  0  0  0  0
 27 25  1  0  0  0  0
 28 27  2  0  0  0  0
 29 28  1  0  0  0  0
 30 32  2  0  0  0  0
 30 28  1  0  0  0  0
 31 30  1  0  0  0  0
 32 33  1  0  0  0  0
 33 26  2  0  0  0  0
 35 34  3  0  0  0  0
M  END
>  <minimizedAffinity>
-5.2705121

$$$$

 OpenBabel03272503003D

 35 37  0  0  1  0  0  0  0  0999 V2000
   38.8430   24.7150   34.7430 N   0  0  0  0  0  0  0  0  0  0  0  0
   40.0270   24.9090   33.9320 C   0  0  0  0  0  0  0  0  0  0  0  0
   40.1630   26.1800   33.2250 C   0  0  0  0  0  0  0  0  0  0  0  0
   38.9440   26.9170   32.8620 C   0  0  0  0  0  0  0  0  0  0  0  0
   37.7420   26.5790   33.7000 C   0  0  0  0  0  0  0  0  0  0  0  0
   37.6860   25.0660   33.9430 C   0  0  1  0  0  0  0  0  0  0  0  0
   40.9110   24.6690   34.5630 H   0  0  0  0  0  0  0  0  0  0  0  0
   39.9850   24.0740   33.1710 H   0  0  0  0  0  0  0  0  0  0  0  0
   40.8360   26.8410   33.8340 H   0  0  0  0  0  0  0  0  0  0  0  0
   40.7440   26.0130   32.2730 H   0  0  0  0  0  0  0  0  0  0  0  0
   39.1100   28.0250   32.9960 H   0  0  0  0  0  0  0  0  0  0  0  0
   38.6700   26.8160   31.7760 H   0  0  0  0  0  0  0  0  0  0  0  0
   37.8240   27.0400   34.6980 H   0  0  0  0  0  0  0  0  0  0  0  0
   36.8120   26.8590   33.1680 H   0  0  0  0  0  0  0  0  0  0  0  0
   36.7420   24.9030   34.4800 H   0  0  0  0  0  0  0  0  0  0  0  0
   38.8350   24.2560   36.0950 C   0  0  0  0  0  0  0  0  0  0  0  0
   37.9490   24.7020   37.0700 C   0  0  0  0  0  0  0  0  0  0  0  0
   38.0320   24.1860   38.3510 C   0  0  0  0  0  0  0  0  0  0  0  0
   38.9940   23.2550   38.5920 N   0  0  0  0  0  0  0  0  0  0  0  0
   39.8390   22.8450   37.6220 C   0  0  0  0  0  0  0  0  0  0  0  0
   39.7520   23.3480   36.3840 N   0  0  0  0  0  0  0  0  0  0  0  0
   37.2260   25.4330   36.7960 H   0  0  0  0  0  0  0  0  0  0  0  0
   37.3450   24.5270   39.1200 H   0  0  0  0  0  0  0  0  0  0  0  0
   40.5920   22.0870   37.8900 H   0  0  0  0  0  0  0  0  0  0  0  0
   37.7630   24.5020   32.6700 O   0  0  0  0  0  0  0  0  0  0  0  0
   36.1520   23.2580   31.5730 C   0  0  0  0  0  0  0  0  0  0  0  0
   37.3110   23.2380   32.3310 C   0  0  0  0  0  0  0  0  0  0  0  0
   37.8480   22.0160   32.6430 C   0  0  0  0  0  0  0  0  0  0  0  0
   38.7510   22.0610   33.2360 H   0  0  0  0  0  0  0  0  0  0  0  0
   37.2540   20.8500   32.2150 C   0  0  0  0  0  0  0  0  0  0  0  0
   37.7540   19.9380   32.5130 H   0  0  0  0  0  0  0  0  0  0  0  0
   36.1150   20.8570   31.4700 C   0  0  0  0  0  3  0  0  0  0  0  0
   35.5580   22.0770   31.1440 C   0  0  0  0  0  3  0  0  0  0  0  0
   34.9260   25.4310   30.8640 N   0  0  0  0  0  0  0  0  0  0  0  0
   35.4770   24.4690   31.1710 C   0  0  0  0  0  0  0  0  0  0  0  0
  1 16  1  0  0  0  0
  2  7  1  0  0  0  0
  2  1  1  0  0  0  0
  3  9  1  0  0  0  0
  3  2  1  0  0  0  0
  4 11  1  0  0  0  0
  4  3  1  0  0  0  0
  4  5  1  0  0  0  0
  5  6  1  0  0  0  0
  5 13  1  0  0  0  0
  6 15  1  1  0  0  0
  6  1  1  0  0  0  0
  8  2  1  0  0  0  0
 10  3  1  0  0  0  0
 12  4  1  0  0  0  0
 14  5  1  0  0  0  0
 16 21  2  0  0  0  0
 16 17  1  0  0  0  0
 17 18  2  0  0  0  0
 18 19  1  0  0  0  0
 18 23  1  0  0  0  0
 20 24  1  0  0  0  0
 20 19  2  0  0  0  0
 21 20  1  0  0  0  0
 22 17  1  0  0  0  0
 25  6  1  0  0  0  0
 26 27  1  0  0  0  0
 27 28  2  0  0  0  0
 27 25  1  0  0  0  0
 28 29  1  0  0  0  0
 30 31  1  0  0  0  0
 30 28  1  0  0  0  0
 32 30  2  0  0  0  0
 33 32  1  0  0  0  0
 33 26  2  0  0  0  0
 34 35  3  0  0  0  0
 35 26  1  0  0  0  0
M  END
>  <minimizedAffinity>
-5.21109676

$$$$

 OpenBabel03272503003D

 35 37  0  0  1  0  0  0  0  0999 V2000
   40.1710   24.5080   35.2010 N   0  0  0  0  0  0  0  0  0  0  0  0
   40.7260   25.7020   34.5980 C   0  0  0  0  0  0  0  0  0  0  0  0
   40.1250   26.9850   34.9590 C   0  0  0  0  0  0  0  0  0  0  0  0
   38.7160   27.0080   35.3780 C   0  0  0  0  0  0  0  0  0  0  0  0
   38.2030   25.6960   35.9020 C   0  0  0  0  0  0  0  0  0  0  0  0
   38.7310   24.5470   35.0350 C   0  0  1  0  0  0  0  0  0  0  0  0
   41.8260   25.6810   34.7590 H   0  0  0  0  0  0  0  0  0  0  0  0
   40.5970   25.5420   33.4870 H   0  0  0  0  0  0  0  0  0  0  0  0
   40.7640   27.4500   35.7550 H   0  0  0  0  0  0  0  0  0  0  0  0
   40.2240   27.6960   34.0890 H   0  0  0  0  0  0  0  0  0  0  0  0
   38.5780   27.7500   36.2160 H   0  0  0  0  0  0  0  0  0  0  0  0
   38.0210   27.3770   34.5750 H   0  0  0  0  0  0  0  0  0  0  0  0
   38.5890   25.5080   36.9170 H   0  0  0  0  0  0  0  0  0  0  0  0
   37.0980   25.6660   35.8460 H   0  0  0  0  0  0  0  0  0  0  0  0
   38.2410   23.6480   35.4320 H   0  0  0  0  0  0  0  0  0  0  0  0
   40.9260   23.4800   35.8430 C   0  0  0  0  0  0  0  0  0  0  0  0
   42.2460   23.1690   35.5370 C   0  0  0  0  0  0  0  0  0  0  0  0
   42.8820   22.1510   36.2270 C   0  0  0  0  0  0  0  0  0  0  0  0
   42.1670   21.4980   37.1810 N   0  0  0  0  0  0  0  0  0  0  0  0
   40.8860   21.8250   37.4530 C   0  0  0  0  0  0  0  0  0  0  0  0
   40.2770   22.8120   36.7830 N   0  0  0  0  0  0  0  0  0  0  0  0
   42.7310   23.7300   34.7750 H   0  0  0  0  0  0  0  0  0  0  0  0
   43.9130   21.8990   35.9950 H   0  0  0  0  0  0  0  0  0  0  0  0
   40.3700   21.2540   38.2400 H   0  0  0  0  0  0  0  0  0  0  0  0
   38.3830   24.9000   33.7310 O   0  0  0  0  0  0  0  0  0  0  0  0
   36.6540   25.0140   32.2000 C   0  0  0  0  0  0  0  0  0  0  0  0
   37.5080   24.1960   32.9230 C   0  0  0  0  0  0  0  0  0  0  0  0
   37.3860   22.8410   32.7560 C   0  0  0  0  0  0  0  0  0  0  0  0
   38.0760   22.2530   33.3440 H   0  0  0  0  0  0  0  0  0  0  0  0
   36.4460   22.3140   31.8990 C   0  0  0  0  0  0  0  0  0  0  0  0
   36.4290   21.2340   31.8370 H   0  0  0  0  0  0  0  0  0  0  0  0
   35.6020   23.1070   31.1840 C   0  0  0  0  0  3  0  0  0  0  0  0
   35.7080   24.4740   31.3360 C   0  0  0  0  0  3  0  0  0  0  0  0
   36.6640   27.6030   32.3450 N   0  0  0  0  0  0  0  0  0  0  0  0
   36.6690   26.4560   32.2760 C   0  0  0  0  0  0  0  0  0  0  0  0
  1 16  1  0  0  0  0
  2  7  1  0  0  0  0
  2  3  1  0  0  0  0
  2  1  1  0  0  0  0
  3  4  1  0  0  0  0
  3  9  1  0  0  0  0
  4  5  1  0  0  0  0
  4 11  1  0  0  0  0
  5 13  1  0  0  0  0
  6  1  1  0  0  0  0
  6 15  1  1  0  0  0
  6  5  1  0  0  0  0
  8  2  1  0  0  0  0
 10  3  1  0  0  0  0
 12  4  1  0  0  0  0
 14  5  1  0  0  0  0
 16 21  1  0  0  0  0
 17 16  2  0  0  0  0
 17 18  1  0  0  0  0
 18 19  2  0  0  0  0
 19 20  1  0  0  0  0
 20 24  1  0  0  0  0
 21 20  2  0  0  0  0
 22 17  1  0  0  0  0
 23 18  1  0  0  0  0
 25  6  1  0  0  0  0
 26 35  1  0  0  0  0
 26 27  1  0  0  0  0
 27 25  1  0  0  0  0
 28 27  2  0  0  0  0
 28 29  1  0  0  0  0
 30 28  1  0  0  0  0
 31 30  1  0  0  0  0
 32 33  1  0  0  0  0
 32 30  2  0  0  0  0
 33 26  2  0  0  0  0
 35 34  3  0  0  0  0
M  END
>  <minimizedAffinity>
-5.09899473

$$$$

 OpenBabel03272503003D

 35 37  0  0  1  0  0  0  0  0999 V2000
   37.2910   27.4980   33.4420 N   0  0  0  0  0  0  0  0  0  0  0  0
   37.1090   27.2390   34.8540 C   0  0  0  0  0  0  0  0  0  0  0  0
   38.3020   27.2030   35.6960 C   0  0  0  0  0  0  0  0  0  0  0  0
   39.5850   26.8310   35.0820 C   0  0  0  0  0  0  0  0  0  0  0  0
   39.6460   27.0470   33.5960 C   0  0  0  0  0  0  0  0  0  0  0  0
   38.3260   26.6090   32.9510 C   0  0  1  0  0  0  0  0  0  0  0  0
   36.3370   27.9470   35.2310 H   0  0  0  0  0  0  0  0  0  0  0  0
   36.6080   26.2260   34.8920 H   0  0  0  0  0  0  0  0  0  0  0  0
   38.4000   28.2020   36.1970 H   0  0  0  0  0  0  0  0  0  0  0  0
   38.1280   26.4910   36.5540 H   0  0  0  0  0  0  0  0  0  0  0  0
   40.4160   27.4570   35.5190 H   0  0  0  0  0  0  0  0  0  0  0  0
   39.8970   25.7750   35.3090 H   0  0  0  0  0  0  0  0  0  0  0  0
   39.7510   28.1200   33.3650 H   0  0  0  0  0  0  0  0  0  0  0  0
   40.4490   26.4280   33.1500 H   0  0  0  0  0  0  0  0  0  0  0  0
   38.4920   26.7190   31.8710 H   0  0  0  0  0  0  0  0  0  0  0  0
   36.5680   28.4650   32.6800 C   0  0  0  0  0  0  0  0  0  0  0  0
   35.5240   29.2360   33.1790 C   0  0  0  0  0  0  0  0  0  0  0  0
   34.8930   30.1460   32.3480 C   0  0  0  0  0  0  0  0  0  0  0  0
   35.3360   30.2360   31.0660 N   0  0  0  0  0  0  0  0  0  0  0  0
   36.3520   29.4710   30.6130 C   0  0  0  0  0  0  0  0  0  0  0  0
   36.9580   28.5940   31.4230 N   0  0  0  0  0  0  0  0  0  0  0  0
   35.2410   29.1010   34.1950 H   0  0  0  0  0  0  0  0  0  0  0  0
   34.0760   30.7530   32.7280 H   0  0  0  0  0  0  0  0  0  0  0  0
   36.6570   29.6000   29.5630 H   0  0  0  0  0  0  0  0  0  0  0  0
   38.1280   25.3050   33.4040 O   0  0  0  0  0  0  0  0  0  0  0  0
   37.6000   23.0620   33.2090 C   0  0  0  0  0  0  0  0  0  0  0  0
   37.3480   24.3530   32.7710 C   0  0  0  0  0  0  0  0  0  0  0  0
   36.3950   24.5220   31.8010 C   0  0  0  0  0  0  0  0  0  0  0  0
   36.2410   25.5480   31.4980 H   0  0  0  0  0  0  0  0  0  0  0  0
   35.7120   23.4450   31.2820 C   0  0  0  0  0  0  0  0  0  0  0  0
   34.9810   23.6830   30.5210 H   0  0  0  0  0  0  0  0  0  0  0  0
   35.9510   22.1740   31.7030 C   0  0  0  0  0  3  0  0  0  0  0  0
   36.9060   21.9800   32.6800 C   0  0  0  0  0  3  0  0  0  0  0  0
   39.3460   22.4560   35.0290 N   0  0  0  0  0  0  0  0  0  0  0  0
   38.5750   22.7350   34.2230 C   0  0  0  0  0  0  0  0  0  0  0  0
  1  2  1  0  0  0  0
  2  8  1  0  0  0  0
  2  7  1  0  0  0  0
  2  3  1  0  0  0  0
  3  9  1  0  0  0  0
  3 10  1  0  0  0  0
  4 12  1  0  0  0  0
  4 11  1  0  0  0  0
  4  3  1  0  0  0  0
  5  4  1  0  0  0  0
  6 15  1  6  0  0  0
  6 25  1  0  0  0  0
  6  1  1  0  0  0  0
  6  5  1  0  0  0  0
 13  5  1  0  0  0  0
 14  5  1  0  0  0  0
 16 17  1  0  0  0  0
 16  1  1  0  0  0  0
 17 22  1  0  0  0  0
 18 23  1  0  0  0  0
 18 17  2  0  0  0  0
 19 18  1  0  0  0  0
 20 19  2  0  0  0  0
 20 21  1  0  0  0  0
 21 16  2  0  0  0  0
 24 20  1  0  0  0  0
 26 35  1  0  0  0  0
 27 26  1  0  0  0  0
 27 25  1  0  0  0  0
 28 27  2  0  0  0  0
 29 28  1  0  0  0  0
 30 32  2  0  0  0  0
 30 28  1  0  0  0  0
 31 30  1  0  0  0  0
 32 33  1  0  0  0  0
 33 26  2  0  0  0  0
 35 34  3  0  0  0  0
M  END
>  <minimizedAffinity>
-5.08758593

$$$$

 OpenBabel03272503003D

 35 37  0  0  1  0  0  0  0  0999 V2000
   37.3030   27.5360   33.3300 N   0  0  0  0  0  0  0  0  0  0  0  0
   37.0680   27.3370   34.7450 C   0  0  0  0  0  0  0  0  0  0  0  0
   38.2340   27.3010   35.6260 C   0  0  0  0  0  0  0  0  0  0  0  0
   39.5240   26.8700   35.0690 C   0  0  0  0  0  0  0  0  0  0  0  0
   39.6380   27.0270   33.5780 C   0  0  0  0  0  0  0  0  0  0  0  0
   38.3270   26.6010   32.9070 C   0  0  1  0  0  0  0  0  0  0  0  0
   36.3060   28.0800   35.0690 H   0  0  0  0  0  0  0  0  0  0  0  0
   36.5380   26.3410   34.8050 H   0  0  0  0  0  0  0  0  0  0  0  0
   38.3430   28.3160   36.0920 H   0  0  0  0  0  0  0  0  0  0  0  0
   38.0120   26.6280   36.5040 H   0  0  0  0  0  0  0  0  0  0  0  0
   40.3580   27.4890   35.5090 H   0  0  0  0  0  0  0  0  0  0  0  0
   39.7970   25.8160   35.3460 H   0  0  0  0  0  0  0  0  0  0  0  0
   39.7810   28.0870   33.3110 H   0  0  0  0  0  0  0  0  0  0  0  0
   40.4360   26.3690   33.1820 H   0  0  0  0  0  0  0  0  0  0  0  0
   38.5300   26.6640   31.8300 H   0  0  0  0  0  0  0  0  0  0  0  0
   36.6320   28.4920   32.5090 C   0  0  0  0  0  0  0  0  0  0  0  0
   37.0370   28.8470   31.2260 C   0  0  0  0  0  0  0  0  0  0  0  0
   36.3080   29.7870   30.5190 C   0  0  0  0  0  0  0  0  0  0  0  0
   35.2180   30.3240   31.1280 N   0  0  0  0  0  0  0  0  0  0  0  0
   34.8530   29.9580   32.3760 C   0  0  0  0  0  0  0  0  0  0  0  0
   35.5620   29.0460   33.0540 N   0  0  0  0  0  0  0  0  0  0  0  0
   37.9030   28.3770   30.8250 H   0  0  0  0  0  0  0  0  0  0  0  0
   36.6160   30.0720   29.5170 H   0  0  0  0  0  0  0  0  0  0  0  0
   33.9570   30.4340   32.8050 H   0  0  0  0  0  0  0  0  0  0  0  0
   38.0770   25.3220   33.4030 O   0  0  0  0  0  0  0  0  0  0  0  0
   37.5800   23.0710   33.2170 C   0  0  0  0  0  0  0  0  0  0  0  0
   37.3210   24.3550   32.7640 C   0  0  0  0  0  0  0  0  0  0  0  0
   36.3840   24.5050   31.7750 C   0  0  0  0  0  0  0  0  0  0  0  0
   36.2230   25.5260   31.4600 H   0  0  0  0  0  0  0  0  0  0  0  0
   35.7240   23.4150   31.2520 C   0  0  0  0  0  0  0  0  0  0  0  0
   35.0040   23.6380   30.4760 H   0  0  0  0  0  0  0  0  0  0  0  0
   35.9700   22.1500   31.6890 C   0  0  0  0  0  3  0  0  0  0  0  0
   36.9090   21.9760   32.6850 C   0  0  0  0  0  3  0  0  0  0  0  0
   39.3160   22.5170   35.0630 N   0  0  0  0  0  0  0  0  0  0  0  0
   38.5390   22.7640   34.2520 C   0  0  0  0  0  0  0  0  0  0  0  0
  1  2  1  0  0  0  0
  2  8  1  0  0  0  0
  2  7  1  0  0  0  0
  2  3  1  0  0  0  0
  3  9  1  0  0  0  0
  3 10  1  0  0  0  0
  4 12  1  0  0  0  0
  4 11  1  0  0  0  0
  4  3  1  0  0  0  0
  5  4  1  0  0  0  0
  6 15  1  6  0  0  0
  6  1  1  0  0  0  0
  6 25  1  0  0  0  0
  6  5  1  0  0  0  0
 13  5  1  0  0  0  0
 14  5  1  0  0  0  0
 16 21  1  0  0  0  0
 16  1  1  0  0  0  0
 17 16  2  0  0  0  0
 18 19  2  0  0  0  0
 18 17  1  0  0  0  0
 19 20  1  0  0  0  0
 20 24  1  0  0  0  0
 20 21  2  0  0  0  0
 22 17  1  0  0  0  0
 23 18  1  0  0  0  0
 26 35  1  0  0  0  0
 27 26  1  0  0  0  0
 27 25  1  0  0  0  0
 28 27  2  0  0  0  0
 29 28  1  0  0  0  0
 30 32  2  0  0  0  0
 30 28  1  0  0  0  0
 31 30  1  0  0  0  0
 32 33  1  0  0  0  0
 33 26  2  0  0  0  0
 35 34  3  0  0  0  0
M  END
>  <minimizedAffinity>
-5.06379843

$$$$

 OpenBabel03272503003D

 35 37  0  0  1  0  0  0  0  0999 V2000
   39.0430   25.0500   34.8450 N   0  0  0  0  0  0  0  0  0  0  0  0
   39.2940   24.3720   33.5900 C   0  0  0  0  0  0  0  0  0  0  0  0
   40.3420   24.9110   32.7260 C   0  0  0  0  0  0  0  0  0  0  0  0
   40.6620   26.3420   32.8180 C   0  0  0  0  0  0  0  0  0  0  0  0
   40.2790   26.9800   34.1240 C   0  0  0  0  0  0  0  0  0  0  0  0
   38.9050   26.4670   34.5710 C   0  0  1  0  0  0  0  0  0  0  0  0
   39.4320   23.2900   33.8120 H   0  0  0  0  0  0  0  0  0  0  0  0
   38.3080   24.4260   33.0400 H   0  0  0  0  0  0  0  0  0  0  0  0
   41.2710   24.3050   32.8960 H   0  0  0  0  0  0  0  0  0  0  0  0
   40.0790   24.6990   31.6490 H   0  0  0  0  0  0  0  0  0  0  0  0
   41.7750   26.4940   32.7160 H   0  0  0  0  0  0  0  0  0  0  0  0
   40.2300   26.9490   31.9760 H   0  0  0  0  0  0  0  0  0  0  0  0
   40.9830   26.6860   34.9200 H   0  0  0  0  0  0  0  0  0  0  0  0
   40.1930   28.0780   34.0050 H   0  0  0  0  0  0  0  0  0  0  0  0
   38.6700   27.0440   35.4750 H   0  0  0  0  0  0  0  0  0  0  0  0
   38.9510   24.4160   36.1210 C   0  0  0  0  0  0  0  0  0  0  0  0
   38.0040   24.7340   37.0890 C   0  0  0  0  0  0  0  0  0  0  0  0
   38.0080   24.0520   38.2930 C   0  0  0  0  0  0  0  0  0  0  0  0
   38.9550   23.0920   38.4680 N   0  0  0  0  0  0  0  0  0  0  0  0
   39.8610   22.8090   37.5080 C   0  0  0  0  0  0  0  0  0  0  0  0
   39.8510   23.4720   36.3440 N   0  0  0  0  0  0  0  0  0  0  0  0
   37.2990   25.4990   36.8690 H   0  0  0  0  0  0  0  0  0  0  0  0
   37.2730   24.2930   39.0560 H   0  0  0  0  0  0  0  0  0  0  0  0
   40.5980   22.0190   37.7190 H   0  0  0  0  0  0  0  0  0  0  0  0
   38.0710   26.6900   33.4760 O   0  0  0  0  0  0  0  0  0  0  0  0
   37.0640   28.2320   32.0780 C   0  0  0  0  0  0  0  0  0  0  0  0
   37.1640   27.7300   33.3660 C   0  0  0  0  0  0  0  0  0  0  0  0
   36.3840   28.3020   34.3360 C   0  0  0  0  0  0  0  0  0  0  0  0
   36.5030   27.8700   35.3200 H   0  0  0  0  0  0  0  0  0  0  0  0
   35.5300   29.3400   34.0390 C   0  0  0  0  0  0  0  0  0  0  0  0
   34.9570   29.7230   34.8730 H   0  0  0  0  0  0  0  0  0  0  0  0
   35.4230   29.8430   32.7790 C   0  0  0  0  0  3  0  0  0  0  0  0
   36.1990   29.2810   31.7860 C   0  0  0  0  0  3  0  0  0  0  0  0
   38.4410   27.3440   30.0680 N   0  0  0  0  0  0  0  0  0  0  0  0
   37.8250   27.7290   30.9590 C   0  0  0  0  0  0  0  0  0  0  0  0
  1 16  1  0  0  0  0
  2  7  1  0  0  0  0
  2  1  1  0  0  0  0
  3  4  1  0  0  0  0
  3  9  1  0  0  0  0
  3  2  1  0  0  0  0
  4  5  1  0  0  0  0
  5  6  1  0  0  0  0
  5 13  1  0  0  0  0
  6  1  1  0  0  0  0
  6 15  1  1  0  0  0
  8  2  1  0  0  0  0
 10  3  1  0  0  0  0
 11  4  1  0  0  0  0
 12  4  1  0  0  0  0
 14  5  1  0  0  0  0
 16 21  2  0  0  0  0
 16 17  1  0  0  0  0
 17 18  2  0  0  0  0
 18 19  1  0  0  0  0
 18 23  1  0  0  0  0
 20 24  1  0  0  0  0
 20 19  2  0  0  0  0
 21 20  1  0  0  0  0
 22 17  1  0  0  0  0
 25  6  1  0  0  0  0
 26 27  1  0  0  0  0
 27 25  1  0  0  0  0
 27 28  2  0  0  0  0
 28 29  1  0  0  0  0
 30 28  1  0  0  0  0
 30 31  1  0  0  0  0
 32 30  2  0  0  0  0
 33 26  2  0  0  0  0
 33 32  1  0  0  0  0
 34 35  3  0  0  0  0
 35 26  1  0  0  0  0
M  END
>  <minimizedAffinity>
-5.01022148

$$$$

 OpenBabel03272503003D

 35 37  0  0  1  0  0  0  0  0999 V2000
   38.7590   25.9950   33.2190 N   0  0  0  0  0  0  0  0  0  0  0  0
   37.4730   26.0010   33.8850 C   0  0  0  0  0  0  0  0  0  0  0  0
   37.3520   26.7790   35.1160 C   0  0  0  0  0  0  0  0  0  0  0  0
   38.5560   27.0040   35.9280 C   0  0  0  0  0  0  0  0  0  0  0  0
   39.8470   26.8840   35.1670 C   0  0  0  0  0  0  0  0  0  0  0  0
   39.7770   25.6930   34.2050 C   0  0  1  0  0  0  0  0  0  0  0  0
   36.7020   26.2660   33.1290 H   0  0  0  0  0  0  0  0  0  0  0  0
   37.2760   24.9140   34.1240 H   0  0  0  0  0  0  0  0  0  0  0  0
   36.8840   27.7650   34.8530 H   0  0  0  0  0  0  0  0  0  0  0  0
   36.5860   26.2920   35.7870 H   0  0  0  0  0  0  0  0  0  0  0  0
   38.5440   28.0490   36.3510 H   0  0  0  0  0  0  0  0  0  0  0  0
   38.6070   26.3460   36.8380 H   0  0  0  0  0  0  0  0  0  0  0  0
   40.0070   27.7720   34.5340 H   0  0  0  0  0  0  0  0  0  0  0  0
   40.6870   26.6920   35.8640 H   0  0  0  0  0  0  0  0  0  0  0  0
   40.7800   25.6300   33.7630 H   0  0  0  0  0  0  0  0  0  0  0  0
   38.9690   26.2470   31.8290 C   0  0  0  0  0  0  0  0  0  0  0  0
   38.7420   27.4720   31.2100 C   0  0  0  0  0  0  0  0  0  0  0  0
   38.9810   27.6020   29.8530 C   0  0  0  0  0  0  0  0  0  0  0  0
   39.4320   26.5060   29.1870 N   0  0  0  0  0  0  0  0  0  0  0  0
   39.6410   25.3310   29.8180 C   0  0  0  0  0  0  0  0  0  0  0  0
   39.4080   25.2120   31.1320 N   0  0  0  0  0  0  0  0  0  0  0  0
   38.3880   28.2780   31.8060 H   0  0  0  0  0  0  0  0  0  0  0  0
   38.8060   28.5540   29.3590 H   0  0  0  0  0  0  0  0  0  0  0  0
   40.0070   24.4860   29.2150 H   0  0  0  0  0  0  0  0  0  0  0  0
   39.3980   24.6150   35.0060 O   0  0  0  0  0  0  0  0  0  0  0  0
   39.8140   23.1900   36.7790 C   0  0  0  0  0  0  0  0  0  0  0  0
   40.2700   23.7020   35.5750 C   0  0  0  0  0  0  0  0  0  0  0  0
   41.4820   23.2610   35.1120 C   0  0  0  0  0  0  0  0  0  0  0  0
   41.7870   23.6940   34.1690 H   0  0  0  0  0  0  0  0  0  0  0  0
   42.2190   22.3390   35.8210 C   0  0  0  0  0  0  0  0  0  0  0  0
   43.1610   22.0540   35.3730 H   0  0  0  0  0  0  0  0  0  0  0  0
   41.7820   21.8290   37.0050 C   0  0  0  0  0  3  0  0  0  0  0  0
   40.5630   22.2590   37.4890 C   0  0  0  0  0  3  0  0  0  0  0  0
   37.5610   23.8490   37.8830 N   0  0  0  0  0  0  0  0  0  0  0  0
   38.5580   23.5640   37.3860 C   0  0  0  0  0  0  0  0  0  0  0  0
  1  2  1  0  0  0  0
  1  6  1  0  0  0  0
  2  8  1  0  0  0  0
  2  3  1  0  0  0  0
  3 10  1  0  0  0  0
  3  4  1  0  0  0  0
  4 11  1  0  0  0  0
  4 12  1  0  0  0  0
  5 14  1  0  0  0  0
  5  4  1  0  0  0  0
  6 15  1  6  0  0  0
  6 25  1  0  0  0  0
  6  5  1  0  0  0  0
  7  2  1  0  0  0  0
  9  3  1  0  0  0  0
 13  5  1  0  0  0  0
 16  1  1  0  0  0  0
 17 22  1  0  0  0  0
 17 16  1  0  0  0  0
 18 17  2  0  0  0  0
 19 20  2  0  0  0  0
 19 18  1  0  0  0  0
 20 21  1  0  0  0  0
 21 16  2  0  0  0  0
 23 18  1  0  0  0  0
 24 20  1  0  0  0  0
 25 27  1  0  0  0  0
 26 35  1  0  0  0  0
 26 33  1  0  0  0  0
 27 26  2  0  0  0  0
 28 27  1  0  0  0  0
 28 30  2  0  0  0  0
 29 28  1  0  0  0  0
 30 32  1  0  0  0  0
 31 30  1  0  0  0  0
 32 33  2  0  0  0  0
 35 34  3  0  0  0  0
M  END
>  <minimizedAffinity>
-4.94083309

$$$$
