
 OpenBabel03272501583D

 32 34  0  0  0  0  0  0  0  0999 V2000
   32.9320   27.9730   48.0180 C   0  0  0  0  0  0  0  0  0  0  0  0
   31.9330   27.8040   48.9360 C   0  0  0  0  0  0  0  0  0  0  0  0
   30.7060   27.8260   48.3170 C   0  0  0  0  0  0  0  0  0  0  0  0
   30.9840   28.0110   47.0120 N   0  0  0  0  0  0  0  0  0  0  0  0
   32.3090   28.0970   46.8410 N   0  0  0  0  0  0  0  0  0  0  0  0
   32.0710   27.6690   50.0170 H   0  0  0  0  0  0  0  0  0  0  0  0
   29.7010   27.7280   48.7040 H   0  0  0  0  0  0  0  0  0  0  0  0
   30.0990   29.2150   45.0480 C   0  0  0  0  0  0  0  0  0  0  0  0
   30.1270   28.1210   45.8720 C   0  0  0  0  0  0  0  0  0  0  0  0
   29.2570   27.0790   45.5440 C   0  0  0  0  0  0  0  0  0  0  0  0
   29.2940   26.2220   46.2080 H   0  0  0  0  0  0  0  0  0  0  0  0
   28.3900   27.0760   44.4700 C   0  0  0  0  0  0  0  0  0  0  0  0
   27.7780   26.1940   44.3470 H   0  0  0  0  0  0  0  0  0  0  0  0
   28.3880   28.1990   43.6590 C   0  0  0  0  0  3  0  0  0  0  0  0
   29.2490   29.2530   43.9650 C   0  0  0  0  0  3  0  0  0  0  0  0
   31.6360   31.2210   45.4980 N   0  0  0  0  0  0  0  0  0  0  0  0
   30.9490   30.3170   45.3060 C   0  0  0  0  0  0  0  0  0  0  0  0
   34.4180   28.0080   48.2800 C   0  0  0  0  0  0  0  0  0  0  0  0
   34.8450   28.7800   47.6430 H   0  0  0  0  0  0  0  0  0  0  0  0
   34.8370   27.0140   48.0310 H   0  0  0  0  0  0  0  0  0  0  0  0
   34.5630   28.3510   49.7410 C   0  0  0  0  0  0  0  0  0  0  0  0
   34.7150   27.4230   50.3470 H   0  0  0  0  0  0  0  0  0  0  0  0
   33.6710   28.8490   50.1740 H   0  0  0  0  0  0  0  0  0  0  0  0
   37.3310   30.2030   51.3380 C   0  0  0  0  0  0  0  0  0  0  0  0
   38.0680   30.6570   50.2300 C   0  0  0  0  0  0  0  0  0  0  0  0
   37.6060   30.3220   48.9550 C   0  0  0  0  0  0  0  0  0  0  0  0
   36.4740   29.5780   48.8410 N   0  0  0  0  0  0  0  0  0  0  0  0
   35.7960   29.1630   49.9420 C   0  0  0  0  0  0  0  0  0  0  0  0
   36.2310   29.4780   51.1610 N   0  0  0  0  0  0  0  0  0  0  0  0
   37.7560   30.5060   52.2810 H   0  0  0  0  0  0  0  0  0  0  0  0
   38.9670   31.2450   50.2010 H   0  0  0  0  0  0  0  0  0  0  0  0
   38.0620   30.5960   48.0120 H   0  0  0  0  0  0  0  0  0  0  0  0
  1 18  1  0  0  0  0
  1  2  1  0  0  0  0
  2  6  1  0  0  0  0
  3  7  1  0  0  0  0
  3  2  2  0  0  0  0
  4  3  1  0  0  0  0
  5  4  1  0  0  0  0
  5  1  2  0  0  0  0
  8 17  1  0  0  0  0
  8  9  1  0  0  0  0
  9  4  1  0  0  0  0
 10  9  2  0  0  0  0
 10 11  1  0  0  0  0
 12 10  1  0  0  0  0
 13 12  1  0  0  0  0
 14 15  1  0  0  0  0
 14 12  2  0  0  0  0
 15  8  2  0  0  0  0
 17 16  3  0  0  0  0
 18 21  1  0  0  0  0
 19 18  1  0  0  0  0
 20 18  1  0  0  0  0
 21 28  1  0  0  0  0
 21 23  1  0  0  0  0
 21 22  1  0  0  0  0
 24 30  1  0  0  0  0
 25 24  2  0  0  0  0
 26 25  1  0  0  0  0
 27 26  2  0  0  0  0
 27 28  1  0  0  0  0
 28 29  2  0  0  0  0
 29 24  1  0  0  0  0
 31 25  1  0  0  0  0
 32 26  1  0  0  0  0
M  END
>  <minimizedAffinity>
-4.48062897

>  <minimizedRMSD>
1.10186279

$$$$
