
 OpenBabel03272507553D

 24 25  0  0  0  0  0  0  0  0999 V2000
   35.4110   28.7060   49.7110 C   0  0  0  0  0  0  0  0  0  0  0  0
   36.4570   29.6810   49.6450 C   0  0  0  0  0  0  0  0  0  0  0  0
   36.3630   30.7080   48.7200 C   0  0  0  0  0  0  0  0  0  0  0  0
   35.2470   30.7160   47.9130 N   0  0  0  0  0  0  0  0  0  0  0  0
   34.2760   29.7810   47.9980 C   0  0  0  0  0  0  0  0  0  0  0  0
   34.3450   28.7790   48.8870 N   0  0  0  0  0  0  0  0  0  0  0  0
   33.2540   29.9560   47.0530 N   0  0  0  0  0  0  0  0  0  0  0  0
   35.4900   27.8970   50.4430 H   0  0  0  0  0  0  0  0  0  0  0  0
   32.8510   30.8300   46.7220 H   0  0  0  0  0  0  0  0  0  0  0  0
   32.8050   29.1170   46.5960 H   0  0  0  0  0  0  0  0  0  0  0  0
   38.2750   31.8340   47.5710 C   0  0  0  0  0  0  0  0  0  0  0  0
   37.3520   31.7660   48.6190 C   0  0  0  0  0  0  0  0  0  0  0  0
   37.4930   32.7470   49.5730 C   0  0  0  0  0  0  0  0  0  0  0  0
   36.9010   32.8380   50.4660 H   0  0  0  0  0  0  0  0  0  0  0  0
   38.4580   33.7380   49.5330 C   0  0  0  0  0  0  0  0  0  0  0  0
   38.6040   34.5190   50.2540 H   0  0  0  0  0  0  0  0  0  0  0  0
   39.3490   33.7490   48.4590 C   0  0  0  0  0  3  0  0  0  0  0  0
   39.2670   32.7890   47.4560 C   0  0  0  0  0  3  0  0  0  0  0  0
   38.0870   30.0380   45.6990 N   0  0  0  0  0  0  0  0  0  0  0  0
   38.1760   30.8350   46.5400 C   0  0  0  0  0  0  0  0  0  0  0  0
   37.6020   29.5400   50.5940 C   0  0  0  0  0  0  0  0  0  0  0  0
   38.7810   29.9320   50.0000 F   0  0  0  0  0  0  0  0  0  0  0  0
   37.3570   30.3360   51.6830 F   0  0  0  0  0  0  0  0  0  0  0  0
   37.7700   28.2420   51.0430 F   0  0  0  0  0  0  0  0  0  0  0  0
  1  8  1  0  0  0  0
  2  1  1  0  0  0  0
  2 21  1  0  0  0  0
  3  2  2  0  0  0  0
  4  5  2  0  0  0  0
  4  3  1  0  0  0  0
  5  6  1  0  0  0  0
  6  1  2  0  0  0  0
  7  5  1  0  0  0  0
  9  7  1  0  0  0  0
 10  7  1  0  0  0  0
 11 12  1  0  0  0  0
 12  3  1  0  0  0  0
 12 13  2  0  0  0  0
 13 14  1  0  0  0  0
 15 13  1  0  0  0  0
 15 16  1  0  0  0  0
 17 15  2  0  0  0  0
 18 11  2  0  0  0  0
 18 17  1  0  0  0  0
 19 20  3  0  0  0  0
 20 11  1  0  0  0  0
 21 24  1  0  0  0  0
 21 23  1  0  0  0  0
 22 21  1  0  0  0  0
M  END
>  <minimizedAffinity>
-5.94846964

>  <minimizedRMSD>
1.59967411

$$$$
