
 OpenBabel03272504393D

 43 45  0  0  0  0  0  0  0  0999 V2000
   34.7720   29.4270   48.6010 C   0  0  0  0  0  0  0  0  0  0  0  0
   34.0020   30.1790   48.9500 H   0  0  0  0  0  0  0  0  0  0  0  0
   35.6300   29.6020   49.2820 H   0  0  0  0  0  0  0  0  0  0  0  0
   37.5340   30.4450   48.3270 Cl  0  0  0  0  0  0  0  0  0  0  0  0
   36.4040   30.3170   46.9770 C   0  0  0  0  0  0  0  0  0  0  0  0
   36.8010   30.7030   45.7330 C   0  0  0  0  0  0  0  0  0  0  0  0
   35.9320   30.6060   44.6810 C   0  0  0  0  0  0  0  0  0  0  0  0
   34.6630   30.1120   44.9110 C   0  0  0  0  0  0  0  0  0  0  0  0
   34.3040   29.7290   46.2040 C   0  0  0  0  0  0  0  0  0  0  0  0
   35.1530   29.8180   47.2630 C   0  0  0  0  0  0  0  0  0  0  0  0
   36.2910   30.9280   43.6980 H   0  0  0  0  0  0  0  0  0  0  0  0
   34.0550   30.0770   44.0100 H   0  0  0  0  0  0  0  0  0  0  0  0
   33.3290   29.3920   46.1690 H   0  0  0  0  0  0  0  0  0  0  0  0
   39.8300   32.8170   45.8380 C   0  0  0  0  0  0  0  0  0  0  0  0
   40.7070   32.0750   44.9940 C   0  0  0  0  0  0  0  0  0  0  0  0
   40.2190   30.8920   44.4330 C   0  0  0  0  0  0  0  0  0  0  0  0
   38.9510   30.5060   44.7110 N   0  0  0  0  0  0  0  0  0  0  0  0
   38.1450   31.2240   45.5090 C   0  0  0  0  0  0  0  0  0  0  0  0
   38.5870   32.3690   46.0650 N   0  0  0  0  0  0  0  0  0  0  0  0
   40.1810   33.7330   46.2830 H   0  0  0  0  0  0  0  0  0  0  0  0
   41.7010   32.4670   44.8340 H   0  0  0  0  0  0  0  0  0  0  0  0
   41.1100   30.1880   43.6070 N   0  0  0  0  0  0  0  0  0  0  0  0
   41.1000   30.1510   42.5480 H   0  0  0  0  0  0  0  0  0  0  0  0
   41.7520   29.7340   44.2860 H   0  0  0  0  0  0  0  0  0  0  0  0
   34.2450   28.0890   48.8320 C   0  0  0  0  0  0  0  0  0  0  0  0
   34.3300   27.4680   47.9080 H   0  0  0  0  0  0  0  0  0  0  0  0
   34.8270   27.5230   49.5970 H   0  0  0  0  0  0  0  0  0  0  0  0
   32.9410   28.1180   49.2750 O   0  0  0  0  0  0  0  0  0  0  0  0
   32.5600   26.7410   47.0690 O   0  0  0  0  0  0  0  0  0  0  0  0
   31.8800   27.6410   48.0330 P   0  0  2  0  0  0  0  0  0  0  0  0
   31.3650   29.1140   47.3250 O   0  0  0  0  0  0  0  0  0  0  0  0
   31.4180   29.8660   47.9510 H   0  0  0  0  0  0  0  0  0  0  0  0
   30.5380   26.8940   48.6520 O   0  0  0  0  0  0  0  0  0  0  0  0
   28.0840   27.3150   49.1520 C   0  0  0  0  0  0  0  0  0  0  0  0
   29.2370   27.1500   48.4310 C   0  0  0  0  0  0  0  0  0  0  0  0
   29.0810   27.2710   47.0370 C   0  0  0  0  0  0  0  0  0  0  0  0
   29.8210   27.1890   46.2250 H   0  0  0  0  0  0  0  0  0  0  0  0
   27.8410   27.5410   46.4380 C   0  0  0  0  0  0  0  0  0  0  0  0
   27.6290   27.6500   45.3910 H   0  0  0  0  0  0  0  0  0  0  0  0
   26.7220   27.6960   47.2300 C   0  0  0  0  0  3  0  0  0  0  0  0
   26.8530   27.5790   48.5980 C   0  0  0  0  0  3  0  0  0  0  0  0
   28.3530   27.0950   51.6890 N   0  0  0  0  0  0  0  0  0  0  0  0
   28.2440   27.1910   50.5540 C   0  0  0  0  0  0  0  0  0  0  0  0
  1 25  1  0  0  0  0
  1  2  1  0  0  0  0
  1  3  1  0  0  0  0
  5 10  1  0  0  0  0
  5  4  1  0  0  0  0
  6  5  2  0  0  0  0
  7  8  2  0  0  0  0
  7  6  1  0  0  0  0
  8  9  1  0  0  0  0
  9 10  2  0  0  0  0
 10  1  1  0  0  0  0
 11  7  1  0  0  0  0
 12  8  1  0  0  0  0
 13  9  1  0  0  0  0
 14 19  1  0  0  0  0
 14 20  1  0  0  0  0
 15 14  2  0  0  0  0
 16 17  2  0  0  0  0
 16 15  1  0  0  0  0
 17 18  1  0  0  0  0
 18  6  1  0  0  0  0
 18 19  2  0  0  0  0
 21 15  1  0  0  0  0
 22 24  1  0  0  0  0
 22 16  1  0  0  0  0
 23 22  1  0  0  0  0
 25 28  1  0  0  0  0
 25 27  1  0  0  0  0
 26 25  1  0  0  0  0
 30 29  2  6  0  0  0
 30 33  1  0  0  0  0
 30 28  1  0  0  0  0
 31 32  1  0  0  0  0
 31 30  1  0  0  0  0
 34 43  1  0  0  0  0
 35 33  1  0  0  0  0
 35 34  2  0  0  0  0
 36 35  1  0  0  0  0
 37 36  1  0  0  0  0
 38 36  2  0  0  0  0
 38 40  1  0  0  0  0
 39 38  1  0  0  0  0
 40 41  2  0  0  0  0
 41 34  1  0  0  0  0
 43 42  3  0  0  0  0
M  END
>  <minimizedAffinity>
-6.28063583

>  <minimizedRMSD>
1.1899389

$$$$
