
 OpenBabel03272506403D

 38 40  0  0  1  0  0  0  0  0999 V2000
   37.4270   26.0720   34.9210 O   0  0  0  0  0  0  0  0  0  0  0  0
   38.1930   26.2440   33.9470 C   0  0  0  0  0  0  0  0  0  0  0  0
   39.5170   25.6670   33.9330 C   0  0  2  0  0  0  0  0  0  0  0  0
   39.9590   25.9840   32.4690 C   0  0  0  0  0  0  0  0  0  0  0  0
   39.1760   27.2180   32.1390 C   0  0  0  0  0  0  0  0  0  0  0  0
   37.8770   27.0040   32.7560 N   0  0  0  0  0  0  0  0  0  0  0  0
   40.2150   26.1350   34.6200 H   0  0  0  0  0  0  0  0  0  0  0  0
   39.7510   25.1240   31.8100 H   0  0  0  0  0  0  0  0  0  0  0  0
   41.0320   26.2420   32.5550 H   0  0  0  0  0  0  0  0  0  0  0  0
   38.9920   27.2160   31.0400 H   0  0  0  0  0  0  0  0  0  0  0  0
   39.6710   28.1470   32.3940 H   0  0  0  0  0  0  0  0  0  0  0  0
   36.5590   27.4170   32.3050 C   0  0  0  0  0  0  0  0  0  0  0  0
   35.8610   26.5960   32.5880 H   0  0  0  0  0  0  0  0  0  0  0  0
   36.6290   27.4750   31.1770 H   0  0  0  0  0  0  0  0  0  0  0  0
   36.3000   29.7000   31.8310 C   0  0  0  0  0  0  0  0  0  0  0  0
   36.1840   28.7370   32.8120 C   0  0  0  0  0  0  0  0  0  0  0  0
   35.7620   29.0870   34.0670 C   0  0  0  0  0  0  0  0  0  0  0  0
   35.6890   28.2910   34.7900 H   0  0  0  0  0  0  0  0  0  0  0  0
   35.4510   30.3850   34.3770 C   0  0  0  0  0  0  0  0  0  0  0  0
   35.1290   30.5900   35.3710 H   0  0  0  0  0  0  0  0  0  0  0  0
   35.5590   31.3700   33.4190 C   0  0  0  0  0  3  0  0  0  0  0  0
   35.9840   31.0270   32.1430 C   0  0  0  0  0  3  0  0  0  0  0  0
   37.0460   29.3030   29.3730 N   0  0  0  0  0  0  0  0  0  0  0  0
   36.7270   29.4750   30.4610 C   0  0  0  0  0  0  0  0  0  0  0  0
   39.5550   24.2430   34.0440 O   0  0  0  0  0  0  0  0  0  0  0  0
   39.9840   23.7030   35.2550 C   0  0  0  0  0  0  0  0  0  0  0  0
   41.3330   23.4440   35.3850 C   0  0  0  0  0  0  0  0  0  0  0  0
   41.8020   22.9080   36.5670 C   0  0  0  0  0  0  0  0  0  0  0  0
   40.9080   22.6560   37.5600 N   0  0  0  0  0  0  0  0  0  0  0  0
   39.5870   22.9130   37.4220 C   0  0  0  0  0  0  0  0  0  0  0  0
   39.1600   23.4260   36.2830 N   0  0  0  0  0  0  0  0  0  0  0  0
   37.9790   23.7970   38.9310 C   0  0  0  0  0  0  0  0  0  0  0  0
   38.0840   24.9720   38.5090 O   0  0  0  0  0  0  0  0  0  0  0  0
   38.6730   22.6340   38.4860 N   0  0  0  0  0  0  0  0  0  0  0  0
   42.0240   23.6560   34.5710 H   0  0  0  0  0  0  0  0  0  0  0  0
   42.8480   22.7000   36.6840 H   0  0  0  0  0  0  0  0  0  0  0  0
   37.2340   23.9490   39.6980 H   0  0  0  0  0  0  0  0  0  0  0  0
   38.4010   21.7950   39.0000 H   0  0  0  0  0  0  0  0  0  0  0  0
  2  1  2  0  0  0  0
  3  2  1  0  0  0  0
  3 25  1  0  0  0  0
  3  7  1  1  0  0  0
  4  9  1  0  0  0  0
  4  3  1  0  0  0  0
  5 11  1  0  0  0  0
  5  4  1  0  0  0  0
  5  6  1  0  0  0  0
  6  2  1  0  0  0  0
  8  4  1  0  0  0  0
 10  5  1  0  0  0  0
 12 13  1  0  0  0  0
 12  6  1  0  0  0  0
 12 16  1  0  0  0  0
 14 12  1  0  0  0  0
 15 22  2  0  0  0  0
 15 16  1  0  0  0  0
 16 17  2  0  0  0  0
 17 19  1  0  0  0  0
 17 18  1  0  0  0  0
 19 20  1  0  0  0  0
 21 19  2  0  0  0  0
 22 21  1  0  0  0  0
 23 24  3  0  0  0  0
 24 15  1  0  0  0  0
 25 26  1  0  0  0  0
 26 27  2  0  0  0  0
 26 31  1  0  0  0  0
 27 28  1  0  0  0  0
 28 36  1  0  0  0  0
 28 29  2  0  0  0  0
 30 29  1  0  0  0  0
 30 34  1  0  0  0  0
 31 30  2  0  0  0  0
 32 37  1  0  0  0  0
 33 32  2  0  0  0  0
 34 32  1  0  0  0  0
 34 38  1  0  0  0  0
 35 27  1  0  0  0  0
M  END
>  <minimizedAffinity>
-5.66425514

$$$$

 OpenBabel03272506403D

 38 40  0  0  1  0  0  0  0  0999 V2000
   37.3070   27.6110   35.5200 O   0  0  0  0  0  0  0  0  0  0  0  0
   37.1950   27.6060   34.2740 C   0  0  0  0  0  0  0  0  0  0  0  0
   37.9850   26.7110   33.4610 C   0  0  2  0  0  0  0  0  0  0  0  0
   37.3390   26.9410   32.0580 C   0  0  0  0  0  0  0  0  0  0  0  0
   36.8160   28.3420   32.1530 C   0  0  0  0  0  0  0  0  0  0  0  0
   36.3030   28.4520   33.5090 N   0  0  0  0  0  0  0  0  0  0  0  0
   39.0380   26.9670   33.4090 H   0  0  0  0  0  0  0  0  0  0  0  0
   36.5640   26.1790   31.8630 H   0  0  0  0  0  0  0  0  0  0  0  0
   38.1910   26.9140   31.3540 H   0  0  0  0  0  0  0  0  0  0  0  0
   35.9250   28.4140   31.4870 H   0  0  0  0  0  0  0  0  0  0  0  0
   37.5210   29.1070   31.8530 H   0  0  0  0  0  0  0  0  0  0  0  0
   35.1620   29.1990   34.0090 C   0  0  0  0  0  0  0  0  0  0  0  0
   34.6990   28.5670   34.8030 H   0  0  0  0  0  0  0  0  0  0  0  0
   34.4470   29.2830   33.1350 H   0  0  0  0  0  0  0  0  0  0  0  0
   35.2140   31.4820   33.4730 C   0  0  0  0  0  0  0  0  0  0  0  0
   35.5240   30.5490   34.4400 C   0  0  0  0  0  0  0  0  0  0  0  0
   36.0980   30.9490   35.6170 C   0  0  0  0  0  0  0  0  0  0  0  0
   36.3150   30.1760   36.3360 H   0  0  0  0  0  0  0  0  0  0  0  0
   36.3760   32.2690   35.8600 C   0  0  0  0  0  0  0  0  0  0  0  0
   36.8220   32.5140   36.7950 H   0  0  0  0  0  0  0  0  0  0  0  0
   36.0800   33.2250   34.9120 C   0  0  0  0  0  3  0  0  0  0  0  0
   35.4970   32.8300   33.7160 C   0  0  0  0  0  3  0  0  0  0  0  0
   34.1340   30.9920   31.1600 N   0  0  0  0  0  0  0  0  0  0  0  0
   34.6010   31.2050   32.1860 C   0  0  0  0  0  0  0  0  0  0  0  0
   37.8030   25.3220   33.7430 O   0  0  0  0  0  0  0  0  0  0  0  0
   38.7610   24.6940   34.5360 C   0  0  0  0  0  0  0  0  0  0  0  0
   40.0800   24.8300   34.1550 C   0  0  0  0  0  0  0  0  0  0  0  0
   41.0630   24.2250   34.9110 C   0  0  0  0  0  0  0  0  0  0  0  0
   40.6870   23.5150   36.0080 N   0  0  0  0  0  0  0  0  0  0  0  0
   39.3900   23.3880   36.3730 C   0  0  0  0  0  0  0  0  0  0  0  0
   38.4660   23.9750   35.6360 N   0  0  0  0  0  0  0  0  0  0  0  0
   38.3340   23.4130   38.5010 C   0  0  0  0  0  0  0  0  0  0  0  0
   38.0270   24.6260   38.4440 O   0  0  0  0  0  0  0  0  0  0  0  0
   39.0290   22.6310   37.5320 N   0  0  0  0  0  0  0  0  0  0  0  0
   40.3500   25.4050   33.2710 H   0  0  0  0  0  0  0  0  0  0  0  0
   42.0930   24.3200   34.6270 H   0  0  0  0  0  0  0  0  0  0  0  0
   37.9230   23.1710   39.4700 H   0  0  0  0  0  0  0  0  0  0  0  0
   39.1510   21.6610   37.8260 H   0  0  0  0  0  0  0  0  0  0  0  0
  2  1  2  0  0  0  0
  3  7  1  1  0  0  0
  3 25  1  0  0  0  0
  3  2  1  0  0  0  0
  4  5  1  0  0  0  0
  4  3  1  0  0  0  0
  5  6  1  0  0  0  0
  6 12  1  0  0  0  0
  6  2  1  0  0  0  0
  8  4  1  0  0  0  0
  9  4  1  0  0  0  0
 10  5  1  0  0  0  0
 11  5  1  0  0  0  0
 12 16  1  0  0  0  0
 12 13  1  0  0  0  0
 14 12  1  0  0  0  0
 15 22  2  0  0  0  0
 15 16  1  0  0  0  0
 16 17  2  0  0  0  0
 17 19  1  0  0  0  0
 17 18  1  0  0  0  0
 19 20  1  0  0  0  0
 21 19  2  0  0  0  0
 22 21  1  0  0  0  0
 23 24  3  0  0  0  0
 24 15  1  0  0  0  0
 25 26  1  0  0  0  0
 26 31  1  0  0  0  0
 27 26  2  0  0  0  0
 27 28  1  0  0  0  0
 28 29  2  0  0  0  0
 29 30  1  0  0  0  0
 30 34  1  0  0  0  0
 31 30  2  0  0  0  0
 32 37  1  0  0  0  0
 33 32  2  0  0  0  0
 34 38  1  0  0  0  0
 34 32  1  0  0  0  0
 35 27  1  0  0  0  0
 36 28  1  0  0  0  0
M  END
>  <minimizedAffinity>
-5.64665604

$$$$

 OpenBabel03272506403D

 38 40  0  0  1  0  0  0  0  0999 V2000
   37.0780   27.9270   34.7630 O   0  0  0  0  0  0  0  0  0  0  0  0
   38.2060   27.4080   34.6060 C   0  0  0  0  0  0  0  0  0  0  0  0
   38.9400   26.8750   35.7290 C   0  0  2  0  0  0  0  0  0  0  0  0
   40.1320   26.1820   34.9970 C   0  0  0  0  0  0  0  0  0  0  0  0
   40.2660   26.9800   33.7360 C   0  0  0  0  0  0  0  0  0  0  0  0
   38.8970   27.2740   33.3410 N   0  0  0  0  0  0  0  0  0  0  0  0
   39.3330   27.6290   36.4040 H   0  0  0  0  0  0  0  0  0  0  0  0
   39.9140   25.1120   34.8360 H   0  0  0  0  0  0  0  0  0  0  0  0
   41.0060   26.3750   35.6470 H   0  0  0  0  0  0  0  0  0  0  0  0
   40.6670   26.3020   32.9490 H   0  0  0  0  0  0  0  0  0  0  0  0
   40.9260   27.8340   33.8120 H   0  0  0  0  0  0  0  0  0  0  0  0
   38.3220   27.3890   32.0120 C   0  0  0  0  0  0  0  0  0  0  0  0
   39.1630   27.6480   31.3290 H   0  0  0  0  0  0  0  0  0  0  0  0
   37.6040   28.2640   32.0680 H   0  0  0  0  0  0  0  0  0  0  0  0
   36.2150   26.4620   31.5600 C   0  0  0  0  0  0  0  0  0  0  0  0
   37.5680   26.1980   31.6250 C   0  0  0  0  0  0  0  0  0  0  0  0
   38.0330   24.9410   31.3430 C   0  0  0  0  0  0  0  0  0  0  0  0
   39.0980   24.7950   31.4090 H   0  0  0  0  0  0  0  0  0  0  0  0
   37.1780   23.9270   30.9960 C   0  0  0  0  0  0  0  0  0  0  0  0
   37.6040   22.9740   30.7890 H   0  0  0  0  0  0  0  0  0  0  0  0
   35.8220   24.1600   30.9240 C   0  0  0  0  0  3  0  0  0  0  0  0
   35.3390   25.4300   31.2060 C   0  0  0  0  0  3  0  0  0  0  0  0
   35.1010   28.7620   32.0350 N   0  0  0  0  0  0  0  0  0  0  0  0
   35.5830   27.7420   31.8250 C   0  0  0  0  0  0  0  0  0  0  0  0
   38.2740   25.8340   36.4460 O   0  0  0  0  0  0  0  0  0  0  0  0
   38.5110   24.5210   36.0450 C   0  0  0  0  0  0  0  0  0  0  0  0
   37.8870   24.0950   34.8900 C   0  0  0  0  0  0  0  0  0  0  0  0
   38.0940   22.8010   34.4550 C   0  0  0  0  0  0  0  0  0  0  0  0
   38.9080   21.9960   35.1880 N   0  0  0  0  0  0  0  0  0  0  0  0
   39.5140   22.4250   36.3200 C   0  0  0  0  0  0  0  0  0  0  0  0
   39.3030   23.6660   36.7180 N   0  0  0  0  0  0  0  0  0  0  0  0
   41.6930   22.0490   37.1880 C   0  0  0  0  0  0  0  0  0  0  0  0
   42.1660   23.1140   36.7280 O   0  0  0  0  0  0  0  0  0  0  0  0
   40.3630   21.5510   37.0690 N   0  0  0  0  0  0  0  0  0  0  0  0
   37.2410   24.7630   34.3240 H   0  0  0  0  0  0  0  0  0  0  0  0
   37.6150   22.4540   33.5590 H   0  0  0  0  0  0  0  0  0  0  0  0
   42.5740   21.6590   37.6740 H   0  0  0  0  0  0  0  0  0  0  0  0
   40.2370   20.6540   37.5390 H   0  0  0  0  0  0  0  0  0  0  0  0
  2  1  2  0  0  0  0
  2  3  1  0  0  0  0
  3  7  1  1  0  0  0
  3 25  1  0  0  0  0
  4  9  1  0  0  0  0
  4  3  1  0  0  0  0
  5 11  1  0  0  0  0
  5  4  1  0  0  0  0
  6  5  1  0  0  0  0
  6  2  1  0  0  0  0
  8  4  1  0  0  0  0
 10  5  1  0  0  0  0
 12 14  1  0  0  0  0
 12  6  1  0  0  0  0
 13 12  1  0  0  0  0
 15 16  1  0  0  0  0
 15 24  1  0  0  0  0
 16 12  1  0  0  0  0
 17 18  1  0  0  0  0
 17 16  2  0  0  0  0
 19 17  1  0  0  0  0
 20 19  1  0  0  0  0
 21 19  2  0  0  0  0
 21 22  1  0  0  0  0
 22 15  2  0  0  0  0
 24 23  3  0  0  0  0
 26 25  1  0  0  0  0
 26 31  1  0  0  0  0
 27 26  2  0  0  0  0
 28 27  1  0  0  0  0
 28 29  2  0  0  0  0
 29 30  1  0  0  0  0
 30 31  2  0  0  0  0
 30 34  1  0  0  0  0
 32 37  1  0  0  0  0
 33 32  2  0  0  0  0
 34 32  1  0  0  0  0
 34 38  1  0  0  0  0
 35 27  1  0  0  0  0
 36 28  1  0  0  0  0
M  END
>  <minimizedAffinity>
-5.62756634

$$$$

 OpenBabel03272506403D

 38 40  0  0  1  0  0  0  0  0999 V2000
   37.0010   25.0500   32.8790 O   0  0  0  0  0  0  0  0  0  0  0  0
   37.7580   25.5740   33.7260 C   0  0  0  0  0  0  0  0  0  0  0  0
   37.9100   27.0090   33.7990 C   0  0  2  0  0  0  0  0  0  0  0  0
   38.7580   27.1480   35.1030 C   0  0  0  0  0  0  0  0  0  0  0  0
   39.5040   25.8500   35.1620 C   0  0  0  0  0  0  0  0  0  0  0  0
   38.5460   24.8560   34.7050 N   0  0  0  0  0  0  0  0  0  0  0  0
   38.4640   27.4410   32.9720 H   0  0  0  0  0  0  0  0  0  0  0  0
   38.1000   27.3340   35.9700 H   0  0  0  0  0  0  0  0  0  0  0  0
   39.4670   27.9690   34.8850 H   0  0  0  0  0  0  0  0  0  0  0  0
   39.6900   25.6170   36.2350 H   0  0  0  0  0  0  0  0  0  0  0  0
   40.4570   25.8550   34.6490 H   0  0  0  0  0  0  0  0  0  0  0  0
   38.3760   23.4740   35.1210 C   0  0  0  0  0  0  0  0  0  0  0  0
   37.8990   22.9460   34.2640 H   0  0  0  0  0  0  0  0  0  0  0  0
   37.6500   23.5070   35.9900 H   0  0  0  0  0  0  0  0  0  0  0  0
   39.6670   22.8140   36.9650 C   0  0  0  0  0  0  0  0  0  0  0  0
   39.6250   22.8730   35.5880 C   0  0  0  0  0  0  0  0  0  0  0  0
   40.6780   22.4010   34.8510 C   0  0  0  0  0  0  0  0  0  0  0  0
   40.5870   22.4730   33.7790 H   0  0  0  0  0  0  0  0  0  0  0  0
   41.7860   21.8660   35.4550 C   0  0  0  0  0  0  0  0  0  0  0  0
   42.5700   21.5170   34.8240 H   0  0  0  0  0  0  0  0  0  0  0  0
   41.8590   21.7950   36.8290 C   0  0  0  0  0  3  0  0  0  0  0  0
   40.7960   22.2690   37.5860 C   0  0  0  0  0  3  0  0  0  0  0  0
   37.8100   23.6130   38.5990 N   0  0  0  0  0  0  0  0  0  0  0  0
   38.6270   23.2690   37.8710 C   0  0  0  0  0  0  0  0  0  0  0  0
   36.7030   27.7310   34.0480 O   0  0  0  0  0  0  0  0  0  0  0  0
   36.2290   28.5630   33.0350 C   0  0  0  0  0  0  0  0  0  0  0  0
   36.9300   28.5690   31.8460 C   0  0  0  0  0  0  0  0  0  0  0  0
   36.4960   29.3780   30.8160 C   0  0  0  0  0  0  0  0  0  0  0  0
   35.3880   30.1400   31.0170 N   0  0  0  0  0  0  0  0  0  0  0  0
   34.7080   30.1270   32.1880 C   0  0  0  0  0  0  0  0  0  0  0  0
   35.1400   29.3460   33.1600 N   0  0  0  0  0  0  0  0  0  0  0  0
   32.3830   30.1800   32.6680 C   0  0  0  0  0  0  0  0  0  0  0  0
   32.2780   28.9370   32.7840 O   0  0  0  0  0  0  0  0  0  0  0  0
   33.5480   30.9440   32.3660 N   0  0  0  0  0  0  0  0  0  0  0  0
   37.8130   27.9470   31.7160 H   0  0  0  0  0  0  0  0  0  0  0  0
   37.0300   29.3940   29.8860 H   0  0  0  0  0  0  0  0  0  0  0  0
   31.3580   30.4630   32.8600 H   0  0  0  0  0  0  0  0  0  0  0  0
   33.3610   31.9460   32.3310 H   0  0  0  0  0  0  0  0  0  0  0  0
  1  2  2  0  0  0  0
  2  3  1  0  0  0  0
  2  6  1  0  0  0  0
  3  7  1  6  0  0  0
  3 25  1  0  0  0  0
  3  4  1  0  0  0  0
  4  5  1  0  0  0  0
  4  8  1  0  0  0  0
  5 10  1  0  0  0  0
  6 12  1  0  0  0  0
  6  5  1  0  0  0  0
  9  4  1  0  0  0  0
 11  5  1  0  0  0  0
 12 16  1  0  0  0  0
 12 14  1  0  0  0  0
 13 12  1  0  0  0  0
 15 22  1  0  0  0  0
 15 24  1  0  0  0  0
 16 15  2  0  0  0  0
 17 19  2  0  0  0  0
 17 16  1  0  0  0  0
 18 17  1  0  0  0  0
 19 21  1  0  0  0  0
 20 19  1  0  0  0  0
 21 22  2  0  0  0  0
 24 23  3  0  0  0  0
 26 31  1  0  0  0  0
 26 25  1  0  0  0  0
 27 26  2  0  0  0  0
 28 29  2  0  0  0  0
 28 27  1  0  0  0  0
 29 30  1  0  0  0  0
 30 34  1  0  0  0  0
 30 31  2  0  0  0  0
 32 33  2  0  0  0  0
 32 37  1  0  0  0  0
 34 32  1  0  0  0  0
 35 27  1  0  0  0  0
 36 28  1  0  0  0  0
 38 34  1  0  0  0  0
M  END
>  <minimizedAffinity>
-5.59294939

$$$$

 OpenBabel03272506403D

 38 40  0  0  1  0  0  0  0  0999 V2000
   36.6280   25.8290   32.8400 O   0  0  0  0  0  0  0  0  0  0  0  0
   37.3270   26.3510   33.7370 C   0  0  0  0  0  0  0  0  0  0  0  0
   37.2440   27.7670   34.0130 C   0  0  2  0  0  0  0  0  0  0  0  0
   38.1150   27.8650   35.3050 C   0  0  0  0  0  0  0  0  0  0  0  0
   39.0670   26.7170   35.1590 C   0  0  0  0  0  0  0  0  0  0  0  0
   38.2670   25.6480   34.5840 N   0  0  0  0  0  0  0  0  0  0  0  0
   37.6800   28.3970   33.2460 H   0  0  0  0  0  0  0  0  0  0  0  0
   37.4770   27.8140   36.2040 H   0  0  0  0  0  0  0  0  0  0  0  0
   38.6680   28.8160   35.1930 H   0  0  0  0  0  0  0  0  0  0  0  0
   39.3390   26.3720   36.1830 H   0  0  0  0  0  0  0  0  0  0  0  0
   39.9820   26.9550   34.6320 H   0  0  0  0  0  0  0  0  0  0  0  0
   38.3460   24.2130   34.8000 C   0  0  0  0  0  0  0  0  0  0  0  0
   39.1690   23.8440   34.1440 H   0  0  0  0  0  0  0  0  0  0  0  0
   37.3600   23.7960   34.4310 H   0  0  0  0  0  0  0  0  0  0  0  0
   39.6910   23.2250   36.4480 C   0  0  0  0  0  0  0  0  0  0  0  0
   38.4930   23.8680   36.2130 C   0  0  0  0  0  0  0  0  0  0  0  0
   37.6270   24.0990   37.2480 C   0  0  0  0  0  0  0  0  0  0  0  0
   36.7080   24.6070   37.0040 H   0  0  0  0  0  0  0  0  0  0  0  0
   37.9230   23.7010   38.5260 C   0  0  0  0  0  0  0  0  0  0  0  0
   37.2060   23.9110   39.2840 H   0  0  0  0  0  0  0  0  0  0  0  0
   39.1100   23.0540   38.7920 C   0  0  0  0  0  3  0  0  0  0  0  0
   39.9960   22.8160   37.7510 C   0  0  0  0  0  3  0  0  0  0  0  0
   41.5170   22.6700   34.6830 N   0  0  0  0  0  0  0  0  0  0  0  0
   40.7040   22.9190   35.4540 C   0  0  0  0  0  0  0  0  0  0  0  0
   35.9460   28.2320   34.3900 O   0  0  0  0  0  0  0  0  0  0  0  0
   35.6460   29.5700   34.1480 C   0  0  0  0  0  0  0  0  0  0  0  0
   35.2080   29.8970   32.8810 C   0  0  0  0  0  0  0  0  0  0  0  0
   34.8990   31.2110   32.5960 C   0  0  0  0  0  0  0  0  0  0  0  0
   35.0400   32.1350   33.5830 N   0  0  0  0  0  0  0  0  0  0  0  0
   35.4700   31.8040   34.8230 C   0  0  0  0  0  0  0  0  0  0  0  0
   35.7600   30.5410   35.0740 N   0  0  0  0  0  0  0  0  0  0  0  0
   34.7990   32.5380   36.9800 C   0  0  0  0  0  0  0  0  0  0  0  0
   34.0200   31.5750   37.1730 O   0  0  0  0  0  0  0  0  0  0  0  0
   35.6090   32.8030   35.8380 N   0  0  0  0  0  0  0  0  0  0  0  0
   35.1060   29.1340   32.1110 H   0  0  0  0  0  0  0  0  0  0  0  0
   34.5590   31.4810   31.6150 H   0  0  0  0  0  0  0  0  0  0  0  0
   34.6590   33.0680   37.9100 H   0  0  0  0  0  0  0  0  0  0  0  0
   36.1560   33.6590   35.9350 H   0  0  0  0  0  0  0  0  0  0  0  0
  1  2  2  0  0  0  0
  2  3  1  0  0  0  0
  2  6  1  0  0  0  0
  3  7  1  6  0  0  0
  3 25  1  0  0  0  0
  3  4  1  0  0  0  0
  4  8  1  0  0  0  0
  5  4  1  0  0  0  0
  5 10  1  0  0  0  0
  6 12  1  0  0  0  0
  6  5  1  0  0  0  0
  9  4  1  0  0  0  0
 11  5  1  0  0  0  0
 12 16  1  0  0  0  0
 13 12  1  0  0  0  0
 14 12  1  0  0  0  0
 15 22  1  0  0  0  0
 16 15  2  0  0  0  0
 16 17  1  0  0  0  0
 17 19  2  0  0  0  0
 18 17  1  0  0  0  0
 19 21  1  0  0  0  0
 19 20  1  0  0  0  0
 22 21  2  0  0  0  0
 23 24  3  0  0  0  0
 24 15  1  0  0  0  0
 26 25  1  0  0  0  0
 26 31  1  0  0  0  0
 27 26  2  0  0  0  0
 28 27  1  0  0  0  0
 28 29  2  0  0  0  0
 29 30  1  0  0  0  0
 30 31  2  0  0  0  0
 30 34  1  0  0  0  0
 32 33  2  0  0  0  0
 32 37  1  0  0  0  0
 34 38  1  0  0  0  0
 34 32  1  0  0  0  0
 35 27  1  0  0  0  0
 36 28  1  0  0  0  0
M  END
>  <minimizedAffinity>
-5.56396961

$$$$

 OpenBabel03272506403D

 38 40  0  0  1  0  0  0  0  0999 V2000
   36.7710   24.9120   32.6070 O   0  0  0  0  0  0  0  0  0  0  0  0
   37.7620   25.4700   33.1280 C   0  0  0  0  0  0  0  0  0  0  0  0
   37.9600   26.8950   33.0050 C   0  0  2  0  0  0  0  0  0  0  0  0
   39.1690   27.1070   33.9710 C   0  0  0  0  0  0  0  0  0  0  0  0
   39.8690   25.7830   33.9330 C   0  0  0  0  0  0  0  0  0  0  0  0
   38.7960   24.8020   33.8900 N   0  0  0  0  0  0  0  0  0  0  0  0
   38.2440   27.2230   32.0110 H   0  0  0  0  0  0  0  0  0  0  0  0
   38.8120   27.4030   34.9730 H   0  0  0  0  0  0  0  0  0  0  0  0
   39.7950   27.8680   33.4680 H   0  0  0  0  0  0  0  0  0  0  0  0
   40.3700   25.6380   34.9170 H   0  0  0  0  0  0  0  0  0  0  0  0
   40.6190   25.6930   33.1580 H   0  0  0  0  0  0  0  0  0  0  0  0
   38.7320   23.4740   34.4750 C   0  0  0  0  0  0  0  0  0  0  0  0
   39.5880   22.9020   34.0470 H   0  0  0  0  0  0  0  0  0  0  0  0
   37.7610   23.0260   34.1040 H   0  0  0  0  0  0  0  0  0  0  0  0
   39.7680   22.8360   36.4810 C   0  0  0  0  0  0  0  0  0  0  0  0
   38.6940   23.5090   35.9370 C   0  0  0  0  0  0  0  0  0  0  0  0
   37.7680   24.0960   36.7570 C   0  0  0  0  0  0  0  0  0  0  0  0
   36.9520   24.6090   36.2750 H   0  0  0  0  0  0  0  0  0  0  0  0
   37.8830   24.0290   38.1220 C   0  0  0  0  0  0  0  0  0  0  0  0
   37.1290   24.5070   38.7020 H   0  0  0  0  0  0  0  0  0  0  0  0
   38.9440   23.3630   38.6950 C   0  0  0  0  0  3  0  0  0  0  0  0
   39.8890   22.7650   37.8730 C   0  0  0  0  0  3  0  0  0  0  0  0
   41.6630   21.6380   35.1660 N   0  0  0  0  0  0  0  0  0  0  0  0
   40.8250   22.1740   35.7370 C   0  0  0  0  0  0  0  0  0  0  0  0
   36.9030   27.6990   33.5340 O   0  0  0  0  0  0  0  0  0  0  0  0
   36.3060   28.6220   32.6780 C   0  0  0  0  0  0  0  0  0  0  0  0
   36.9000   28.8150   31.4480 C   0  0  0  0  0  0  0  0  0  0  0  0
   36.3420   29.7200   30.5690 C   0  0  0  0  0  0  0  0  0  0  0  0
   35.2230   30.3890   30.9540 N   0  0  0  0  0  0  0  0  0  0  0  0
   34.6480   30.1920   32.1640 C   0  0  0  0  0  0  0  0  0  0  0  0
   35.1980   29.3210   32.9900 N   0  0  0  0  0  0  0  0  0  0  0  0
   32.3730   30.0550   32.8320 C   0  0  0  0  0  0  0  0  0  0  0  0
   32.3360   28.8030   32.7950 O   0  0  0  0  0  0  0  0  0  0  0  0
   33.4720   30.9140   32.5390 N   0  0  0  0  0  0  0  0  0  0  0  0
   37.7960   28.2640   31.1670 H   0  0  0  0  0  0  0  0  0  0  0  0
   36.7930   29.8820   29.6080 H   0  0  0  0  0  0  0  0  0  0  0  0
   31.3580   30.2540   33.1410 H   0  0  0  0  0  0  0  0  0  0  0  0
   33.2380   31.9020   32.6480 H   0  0  0  0  0  0  0  0  0  0  0  0
  1  2  2  0  0  0  0
  2  6  1  0  0  0  0
  3  7  1  6  0  0  0
  3  2  1  0  0  0  0
  3 25  1  0  0  0  0
  3  4  1  0  0  0  0
  4  8  1  0  0  0  0
  5  4  1  0  0  0  0
  5 10  1  0  0  0  0
  6  5  1  0  0  0  0
  6 12  1  0  0  0  0
  9  4  1  0  0  0  0
 11  5  1  0  0  0  0
 12 16  1  0  0  0  0
 13 12  1  0  0  0  0
 14 12  1  0  0  0  0
 15 22  1  0  0  0  0
 16 15  2  0  0  0  0
 16 17  1  0  0  0  0
 17 19  2  0  0  0  0
 18 17  1  0  0  0  0
 19 21  1  0  0  0  0
 19 20  1  0  0  0  0
 22 21  2  0  0  0  0
 23 24  3  0  0  0  0
 24 15  1  0  0  0  0
 26 31  1  0  0  0  0
 26 25  1  0  0  0  0
 27 26  2  0  0  0  0
 28 29  2  0  0  0  0
 28 27  1  0  0  0  0
 29 30  1  0  0  0  0
 30 34  1  0  0  0  0
 30 31  2  0  0  0  0
 32 37  1  0  0  0  0
 33 32  2  0  0  0  0
 34 38  1  0  0  0  0
 34 32  1  0  0  0  0
 35 27  1  0  0  0  0
 36 28  1  0  0  0  0
M  END
>  <minimizedAffinity>
-5.55784369

$$$$

 OpenBabel03272506403D

 38 40  0  0  1  0  0  0  0  0999 V2000
   38.1960   24.8480   32.4430 O   0  0  0  0  0  0  0  0  0  0  0  0
   38.0990   25.5450   33.4770 C   0  0  0  0  0  0  0  0  0  0  0  0
   37.8400   26.9630   33.3950 C   0  0  2  0  0  0  0  0  0  0  0  0
   37.6070   27.3060   34.9010 C   0  0  0  0  0  0  0  0  0  0  0  0
   38.4160   26.2660   35.6140 C   0  0  0  0  0  0  0  0  0  0  0  0
   38.2240   25.0540   34.8340 N   0  0  0  0  0  0  0  0  0  0  0  0
   38.6750   27.5490   33.0260 H   0  0  0  0  0  0  0  0  0  0  0  0
   36.5290   27.2840   35.1370 H   0  0  0  0  0  0  0  0  0  0  0  0
   38.0820   28.2960   35.0350 H   0  0  0  0  0  0  0  0  0  0  0  0
   37.9260   26.0730   36.5950 H   0  0  0  0  0  0  0  0  0  0  0  0
   39.4440   26.5460   35.8020 H   0  0  0  0  0  0  0  0  0  0  0  0
   38.1480   23.6720   35.2740 C   0  0  0  0  0  0  0  0  0  0  0  0
   37.6270   23.1130   34.4630 H   0  0  0  0  0  0  0  0  0  0  0  0
   37.4930   23.6840   36.1980 H   0  0  0  0  0  0  0  0  0  0  0  0
   39.5820   23.0200   37.0130 C   0  0  0  0  0  0  0  0  0  0  0  0
   39.4550   23.1300   35.6430 C   0  0  0  0  0  0  0  0  0  0  0  0
   40.4880   22.7510   34.8290 C   0  0  0  0  0  0  0  0  0  0  0  0
   40.3310   22.8590   33.7680 H   0  0  0  0  0  0  0  0  0  0  0  0
   41.6600   22.2620   35.3460 C   0  0  0  0  0  0  0  0  0  0  0  0
   42.4230   21.9850   34.6580 H   0  0  0  0  0  0  0  0  0  0  0  0
   41.8170   22.1420   36.7100 C   0  0  0  0  0  3  0  0  0  0  0  0
   40.7760   22.5210   37.5450 C   0  0  0  0  0  3  0  0  0  0  0  0
   37.7740   23.6750   38.7610 N   0  0  0  0  0  0  0  0  0  0  0  0
   38.5720   23.3760   37.9940 C   0  0  0  0  0  0  0  0  0  0  0  0
   36.6250   27.3160   32.7300 O   0  0  0  0  0  0  0  0  0  0  0  0
   36.7100   28.2120   31.6660 C   0  0  0  0  0  0  0  0  0  0  0  0
   36.2730   29.5010   31.8930 C   0  0  0  0  0  0  0  0  0  0  0  0
   36.3380   30.4210   30.8670 C   0  0  0  0  0  0  0  0  0  0  0  0
   36.8340   30.0170   29.6680 N   0  0  0  0  0  0  0  0  0  0  0  0
   37.2600   28.7490   29.4560 C   0  0  0  0  0  0  0  0  0  0  0  0
   37.1890   27.8850   30.4510 N   0  0  0  0  0  0  0  0  0  0  0  0
   39.1160   27.8830   28.2540 C   0  0  0  0  0  0  0  0  0  0  0  0
   39.8500   27.7850   29.2640 O   0  0  0  0  0  0  0  0  0  0  0  0
   37.7740   28.3560   28.1800 N   0  0  0  0  0  0  0  0  0  0  0  0
   35.8810   29.7950   32.8650 H   0  0  0  0  0  0  0  0  0  0  0  0
   36.0010   31.4270   31.0270 H   0  0  0  0  0  0  0  0  0  0  0  0
   39.7990   27.5140   27.5020 H   0  0  0  0  0  0  0  0  0  0  0  0
   37.4010   28.3330   27.2300 H   0  0  0  0  0  0  0  0  0  0  0  0
  1  2  2  0  0  0  0
  2  6  1  0  0  0  0
  3  7  1  6  0  0  0
  3  2  1  0  0  0  0
  3  4  1  0  0  0  0
  4  9  1  0  0  0  0
  4  8  1  0  0  0  0
  4  5  1  0  0  0  0
  5 11  1  0  0  0  0
  5 10  1  0  0  0  0
  6 12  1  0  0  0  0
  6  5  1  0  0  0  0
 12 16  1  0  0  0  0
 12 14  1  0  0  0  0
 13 12  1  0  0  0  0
 15 22  1  0  0  0  0
 15 24  1  0  0  0  0
 16 15  2  0  0  0  0
 17 19  2  0  0  0  0
 17 16  1  0  0  0  0
 18 17  1  0  0  0  0
 19 21  1  0  0  0  0
 20 19  1  0  0  0  0
 21 22  2  0  0  0  0
 24 23  3  0  0  0  0
 25  3  1  0  0  0  0
 26 27  1  0  0  0  0
 26 25  1  0  0  0  0
 27 35  1  0  0  0  0
 28 36  1  0  0  0  0
 28 27  2  0  0  0  0
 29 28  1  0  0  0  0
 30 29  2  0  0  0  0
 30 31  1  0  0  0  0
 31 26  2  0  0  0  0
 32 33  2  0  0  0  0
 34 32  1  0  0  0  0
 34 30  1  0  0  0  0
 37 32  1  0  0  0  0
 38 34  1  0  0  0  0
M  END
>  <minimizedAffinity>
-5.51830721

$$$$

 OpenBabel03272506403D

 38 40  0  0  1  0  0  0  0  0999 V2000
   36.9070   24.7900   32.3750 O   0  0  0  0  0  0  0  0  0  0  0  0
   37.0600   25.8420   33.0340 C   0  0  0  0  0  0  0  0  0  0  0  0
   37.8330   25.8490   34.2530 C   0  0  2  0  0  0  0  0  0  0  0  0
   37.8940   27.3800   34.5540 C   0  0  0  0  0  0  0  0  0  0  0  0
   36.6430   27.9000   33.9140 C   0  0  0  0  0  0  0  0  0  0  0  0
   36.5160   27.1370   32.6830 N   0  0  0  0  0  0  0  0  0  0  0  0
   37.3550   25.3450   35.0870 H   0  0  0  0  0  0  0  0  0  0  0  0
   38.8250   27.8130   34.1500 H   0  0  0  0  0  0  0  0  0  0  0  0
   37.8000   27.4490   35.6540 H   0  0  0  0  0  0  0  0  0  0  0  0
   36.8380   28.9510   33.5990 H   0  0  0  0  0  0  0  0  0  0  0  0
   35.7740   27.8990   34.5600 H   0  0  0  0  0  0  0  0  0  0  0  0
   35.9960   27.5470   31.3900 C   0  0  0  0  0  0  0  0  0  0  0  0
   35.0210   28.0500   31.5900 H   0  0  0  0  0  0  0  0  0  0  0  0
   35.8090   26.5860   30.8200 H   0  0  0  0  0  0  0  0  0  0  0  0
   36.5360   29.6660   30.5430 C   0  0  0  0  0  0  0  0  0  0  0  0
   36.9520   28.3540   30.6330 C   0  0  0  0  0  0  0  0  0  0  0  0
   38.1270   27.9670   30.0470 C   0  0  0  0  0  0  0  0  0  0  0  0
   38.4000   26.9300   30.1530 H   0  0  0  0  0  0  0  0  0  0  0  0
   38.9100   28.8610   29.3640 C   0  0  0  0  0  0  0  0  0  0  0  0
   39.8120   28.4960   28.9330 H   0  0  0  0  0  0  0  0  0  0  0  0
   38.5210   30.1790   29.2550 C   0  0  0  0  0  3  0  0  0  0  0  0
   37.3320   30.5820   29.8460 C   0  0  0  0  0  3  0  0  0  0  0  0
   34.3640   30.6410   31.5850 N   0  0  0  0  0  0  0  0  0  0  0  0
   35.3220   30.2180   31.1160 C   0  0  0  0  0  0  0  0  0  0  0  0
   39.1930   25.4330   34.1080 O   0  0  0  0  0  0  0  0  0  0  0  0
   39.7060   24.5620   35.0660 C   0  0  0  0  0  0  0  0  0  0  0  0
   41.0540   24.2740   34.9950 C   0  0  0  0  0  0  0  0  0  0  0  0
   41.6050   23.4150   35.9240 C   0  0  0  0  0  0  0  0  0  0  0  0
   40.7920   22.8850   36.8760 N   0  0  0  0  0  0  0  0  0  0  0  0
   39.4710   23.1740   36.9360 C   0  0  0  0  0  0  0  0  0  0  0  0
   38.9640   23.9980   36.0380 N   0  0  0  0  0  0  0  0  0  0  0  0
   38.0210   23.5810   38.7730 C   0  0  0  0  0  0  0  0  0  0  0  0
   38.1220   24.8270   38.7030 O   0  0  0  0  0  0  0  0  0  0  0  0
   38.6430   22.5970   37.9490 N   0  0  0  0  0  0  0  0  0  0  0  0
   41.6800   24.7140   34.2210 H   0  0  0  0  0  0  0  0  0  0  0  0
   42.6520   23.1800   35.8820 H   0  0  0  0  0  0  0  0  0  0  0  0
   37.3480   23.5040   39.6130 H   0  0  0  0  0  0  0  0  0  0  0  0
   38.3930   21.6450   38.2180 H   0  0  0  0  0  0  0  0  0  0  0  0
  1  2  2  0  0  0  0
  2  3  1  0  0  0  0
  3  4  1  0  0  0  0
  3  7  1  1  0  0  0
  4  9  1  0  0  0  0
  5  4  1  0  0  0  0
  5 11  1  0  0  0  0
  6  2  1  0  0  0  0
  6  5  1  0  0  0  0
  8  4  1  0  0  0  0
 10  5  1  0  0  0  0
 12 13  1  0  0  0  0
 12  6  1  0  0  0  0
 14 12  1  0  0  0  0
 15 16  1  0  0  0  0
 15 24  1  0  0  0  0
 16 12  1  0  0  0  0
 17 18  1  0  0  0  0
 17 16  2  0  0  0  0
 19 17  1  0  0  0  0
 20 19  1  0  0  0  0
 21 19  2  0  0  0  0
 21 22  1  0  0  0  0
 22 15  2  0  0  0  0
 24 23  3  0  0  0  0
 25  3  1  0  0  0  0
 25 26  1  0  0  0  0
 26 31  1  0  0  0  0
 27 26  2  0  0  0  0
 27 28  1  0  0  0  0
 28 29  2  0  0  0  0
 29 30  1  0  0  0  0
 30 34  1  0  0  0  0
 31 30  2  0  0  0  0
 32 37  1  0  0  0  0
 33 32  2  0  0  0  0
 34 38  1  0  0  0  0
 34 32  1  0  0  0  0
 35 27  1  0  0  0  0
 36 28  1  0  0  0  0
M  END
>  <minimizedAffinity>
-5.46808243

$$$$

 OpenBabel03272506403D

 38 40  0  0  1  0  0  0  0  0999 V2000
   39.2730   23.9630   30.5190 O   0  0  0  0  0  0  0  0  0  0  0  0
   38.1020   23.9860   30.9590 C   0  0  0  0  0  0  0  0  0  0  0  0
   37.3280   22.7730   31.0720 C   0  0  2  0  0  0  0  0  0  0  0  0
   36.0740   23.2970   31.8420 C   0  0  0  0  0  0  0  0  0  0  0  0
   36.0080   24.7380   31.4400 C   0  0  0  0  0  0  0  0  0  0  0  0
   37.3950   25.1710   31.3970 N   0  0  0  0  0  0  0  0  0  0  0  0
   37.0090   22.3570   30.1230 H   0  0  0  0  0  0  0  0  0  0  0  0
   36.1940   23.1330   32.9270 H   0  0  0  0  0  0  0  0  0  0  0  0
   35.2250   22.7500   31.3910 H   0  0  0  0  0  0  0  0  0  0  0  0
   35.5420   25.3020   32.2800 H   0  0  0  0  0  0  0  0  0  0  0  0
   35.4280   24.9300   30.5460 H   0  0  0  0  0  0  0  0  0  0  0  0
   37.9720   26.4630   31.7270 C   0  0  0  0  0  0  0  0  0  0  0  0
   37.2710   27.2310   31.3250 H   0  0  0  0  0  0  0  0  0  0  0  0
   38.9480   26.5140   31.1550 H   0  0  0  0  0  0  0  0  0  0  0  0
   37.3720   27.4440   33.7710 C   0  0  0  0  0  0  0  0  0  0  0  0
   38.2670   26.5950   33.1530 C   0  0  0  0  0  0  0  0  0  0  0  0
   39.2670   26.0080   33.8810 C   0  0  0  0  0  0  0  0  0  0  0  0
   39.9340   25.3540   33.3440 H   0  0  0  0  0  0  0  0  0  0  0  0
   39.4040   26.2470   35.2240 C   0  0  0  0  0  0  0  0  0  0  0  0
   40.2020   25.7590   35.7310 H   0  0  0  0  0  0  0  0  0  0  0  0
   38.5260   27.0910   35.8700 C   0  0  0  0  0  3  0  0  0  0  0  0
   37.5080   27.6900   35.1420 C   0  0  0  0  0  3  0  0  0  0  0  0
   35.3890   28.6560   32.6080 N   0  0  0  0  0  0  0  0  0  0  0  0
   36.2640   28.1290   33.1300 C   0  0  0  0  0  0  0  0  0  0  0  0
   37.9000   21.7680   31.9120 O   0  0  0  0  0  0  0  0  0  0  0  0
   37.4470   21.6920   33.2270 C   0  0  0  0  0  0  0  0  0  0  0  0
   36.3630   20.8720   33.4720 C   0  0  0  0  0  0  0  0  0  0  0  0
   35.8800   20.7660   34.7600 C   0  0  0  0  0  0  0  0  0  0  0  0
   36.4960   21.4780   35.7400 N   0  0  0  0  0  0  0  0  0  0  0  0
   37.5580   22.2790   35.4900 C   0  0  0  0  0  0  0  0  0  0  0  0
   38.0040   22.3660   34.2500 N   0  0  0  0  0  0  0  0  0  0  0  0
   39.5570   22.6850   36.7060 C   0  0  0  0  0  0  0  0  0  0  0  0
   40.2370   21.8580   36.0550 O   0  0  0  0  0  0  0  0  0  0  0  0
   38.1810   23.0170   36.5450 N   0  0  0  0  0  0  0  0  0  0  0  0
   35.8910   20.3140   32.6650 H   0  0  0  0  0  0  0  0  0  0  0  0
   35.0380   20.1340   34.9660 H   0  0  0  0  0  0  0  0  0  0  0  0
   40.3150   23.0390   37.3880 H   0  0  0  0  0  0  0  0  0  0  0  0
   37.8690   23.7280   37.2080 H   0  0  0  0  0  0  0  0  0  0  0  0
  1  2  2  0  0  0  0
  2  3  1  0  0  0  0
  2  6  1  0  0  0  0
  3  7  1  6  0  0  0
  3  4  1  0  0  0  0
  3 25  1  0  0  0  0
  4  8  1  0  0  0  0
  5  4  1  0  0  0  0
  5 10  1  0  0  0  0
  6  5  1  0  0  0  0
  6 12  1  0  0  0  0
  9  4  1  0  0  0  0
 11  5  1  0  0  0  0
 12 16  1  0  0  0  0
 13 12  1  0  0  0  0
 14 12  1  0  0  0  0
 15 22  1  0  0  0  0
 16 15  2  0  0  0  0
 16 17  1  0  0  0  0
 17 19  2  0  0  0  0
 18 17  1  0  0  0  0
 19 20  1  0  0  0  0
 19 21  1  0  0  0  0
 22 21  2  0  0  0  0
 23 24  3  0  0  0  0
 24 15  1  0  0  0  0
 25 26  1  0  0  0  0
 26 27  2  0  0  0  0
 26 31  1  0  0  0  0
 27 28  1  0  0  0  0
 28 36  1  0  0  0  0
 28 29  2  0  0  0  0
 30 29  1  0  0  0  0
 30 34  1  0  0  0  0
 31 30  2  0  0  0  0
 32 37  1  0  0  0  0
 33 32  2  0  0  0  0
 34 32  1  0  0  0  0
 34 38  1  0  0  0  0
 35 27  1  0  0  0  0
M  END
>  <minimizedAffinity>
-5.38683176

$$$$
