
 OpenBabel03272507563D

 24 25  0  0  0  0  0  0  0  0999 V2000
   40.2050   22.4500   37.5330 C   0  0  0  0  0  0  0  0  0  0  0  0
   39.3330   23.4980   37.1010 C   0  0  0  0  0  0  0  0  0  0  0  0
   39.6880   24.2580   35.9980 C   0  0  0  0  0  0  0  0  0  0  0  0
   40.8810   23.9430   35.3850 N   0  0  0  0  0  0  0  0  0  0  0  0
   41.6850   22.9480   35.8180 C   0  0  0  0  0  0  0  0  0  0  0  0
   41.3600   22.1970   36.8820 N   0  0  0  0  0  0  0  0  0  0  0  0
   42.8690   22.8290   35.0750 N   0  0  0  0  0  0  0  0  0  0  0  0
   39.9210   21.8530   38.4050 H   0  0  0  0  0  0  0  0  0  0  0  0
   42.9930   22.9490   34.0720 H   0  0  0  0  0  0  0  0  0  0  0  0
   43.7750   22.5830   35.5580 H   0  0  0  0  0  0  0  0  0  0  0  0
   38.0020   25.1030   34.3590 C   0  0  0  0  0  0  0  0  0  0  0  0
   38.8400   25.3060   35.4600 C   0  0  0  0  0  0  0  0  0  0  0  0
   38.8380   26.5900   35.9550 C   0  0  0  0  0  0  0  0  0  0  0  0
   39.4390   26.9440   36.7730 H   0  0  0  0  0  0  0  0  0  0  0  0
   38.0800   27.6230   35.4310 C   0  0  0  0  0  0  0  0  0  0  0  0
   38.0470   28.6360   35.7850 H   0  0  0  0  0  0  0  0  0  0  0  0
   37.2640   27.3520   34.3320 C   0  0  0  0  0  3  0  0  0  0  0  0
   37.2150   26.0790   33.7770 C   0  0  0  0  0  3  0  0  0  0  0  0
   37.9190   22.7140   33.3330 N   0  0  0  0  0  0  0  0  0  0  0  0
   37.9610   23.7780   33.7980 C   0  0  0  0  0  0  0  0  0  0  0  0
   38.0680   23.7140   37.8660 C   0  0  0  0  0  0  0  0  0  0  0  0
   36.9710   23.5720   37.0460 F   0  0  0  0  0  0  0  0  0  0  0  0
   38.0080   22.7810   38.8680 F   0  0  0  0  0  0  0  0  0  0  0  0
   38.0000   24.9690   38.4450 F   0  0  0  0  0  0  0  0  0  0  0  0
  1  8  1  0  0  0  0
  2  1  1  0  0  0  0
  2 21  1  0  0  0  0
  3  2  2  0  0  0  0
  4  5  2  0  0  0  0
  4  3  1  0  0  0  0
  5  6  1  0  0  0  0
  6  1  2  0  0  0  0
  7 10  1  0  0  0  0
  7  5  1  0  0  0  0
  9  7  1  0  0  0  0
 11 12  1  0  0  0  0
 12 13  2  0  0  0  0
 12  3  1  0  0  0  0
 13 14  1  0  0  0  0
 15 16  1  0  0  0  0
 15 13  1  0  0  0  0
 17 15  2  0  0  0  0
 18 17  1  0  0  0  0
 18 11  2  0  0  0  0
 19 20  3  0  0  0  0
 20 11  1  0  0  0  0
 21 24  1  0  0  0  0
 21 23  1  0  0  0  0
 22 21  1  0  0  0  0
M  END
>  <minimizedAffinity>
-5.13816595

$$$$

 OpenBabel03272507563D

 24 25  0  0  0  0  0  0  0  0999 V2000
   38.9810   25.7940   32.5750 C   0  0  0  0  0  0  0  0  0  0  0  0
   39.1490   25.5650   33.9770 C   0  0  0  0  0  0  0  0  0  0  0  0
   38.5340   24.4680   34.5590 C   0  0  0  0  0  0  0  0  0  0  0  0
   37.7880   23.6620   33.7290 N   0  0  0  0  0  0  0  0  0  0  0  0
   37.6460   23.9050   32.4080 C   0  0  0  0  0  0  0  0  0  0  0  0
   38.2340   24.9600   31.8220 N   0  0  0  0  0  0  0  0  0  0  0  0
   36.8090   22.9830   31.7610 N   0  0  0  0  0  0  0  0  0  0  0  0
   39.4680   26.6620   32.1210 H   0  0  0  0  0  0  0  0  0  0  0  0
   36.7330   21.9820   31.9280 H   0  0  0  0  0  0  0  0  0  0  0  0
   36.1570   23.3050   30.9960 H   0  0  0  0  0  0  0  0  0  0  0  0
   39.6710   23.2390   36.4140 C   0  0  0  0  0  0  0  0  0  0  0  0
   38.6930   24.1320   35.9630 C   0  0  0  0  0  0  0  0  0  0  0  0
   37.8610   24.6180   36.9440 C   0  0  0  0  0  0  0  0  0  0  0  0
   37.0340   25.2860   36.7860 H   0  0  0  0  0  0  0  0  0  0  0  0
   37.9550   24.2750   38.2820 C   0  0  0  0  0  0  0  0  0  0  0  0
   37.3300   24.6290   39.0790 H   0  0  0  0  0  0  0  0  0  0  0  0
   38.9540   23.3800   38.6660 C   0  0  0  0  0  3  0  0  0  0  0  0
   39.8310   22.8450   37.7290 C   0  0  0  0  0  3  0  0  0  0  0  0
   41.3120   22.2680   34.6460 N   0  0  0  0  0  0  0  0  0  0  0  0
   40.5730   22.6970   35.4310 C   0  0  0  0  0  0  0  0  0  0  0  0
   39.9970   26.5270   34.7450 C   0  0  0  0  0  0  0  0  0  0  0  0
   41.0980   25.8930   35.2760 F   0  0  0  0  0  0  0  0  0  0  0  0
   40.4100   27.5130   33.8880 F   0  0  0  0  0  0  0  0  0  0  0  0
   39.3140   27.1260   35.7890 F   0  0  0  0  0  0  0  0  0  0  0  0
  1  2  1  0  0  0  0
  2  3  2  0  0  0  0
  2 21  1  0  0  0  0
  3 12  1  0  0  0  0
  4  3  1  0  0  0  0
  5  4  2  0  0  0  0
  6  5  1  0  0  0  0
  6  1  2  0  0  0  0
  7  9  1  0  0  0  0
  7  5  1  0  0  0  0
  8  1  1  0  0  0  0
 10  7  1  0  0  0  0
 11 18  1  0  0  0  0
 12 11  2  0  0  0  0
 12 13  1  0  0  0  0
 13 15  2  0  0  0  0
 14 13  1  0  0  0  0
 15 17  1  0  0  0  0
 15 16  1  0  0  0  0
 18 17  2  0  0  0  0
 19 20  3  0  0  0  0
 20 11  1  0  0  0  0
 21 22  1  0  0  0  0
 21 24  1  0  0  0  0
 23 21  1  0  0  0  0
M  END
>  <minimizedAffinity>
-5.09203815

$$$$

 OpenBabel03272507563D

 24 25  0  0  0  0  0  0  0  0999 V2000
   37.1800   26.7490   33.6020 C   0  0  0  0  0  0  0  0  0  0  0  0
   38.0140   26.1530   34.6010 C   0  0  0  0  0  0  0  0  0  0  0  0
   38.3320   24.8080   34.4980 C   0  0  0  0  0  0  0  0  0  0  0  0
   37.8120   24.1290   33.4190 N   0  0  0  0  0  0  0  0  0  0  0  0
   37.0260   24.7180   32.4930 C   0  0  0  0  0  0  0  0  0  0  0  0
   36.7060   26.0200   32.5710 N   0  0  0  0  0  0  0  0  0  0  0  0
   36.5710   23.8310   31.5050 N   0  0  0  0  0  0  0  0  0  0  0  0
   36.9310   27.8110   33.6890 H   0  0  0  0  0  0  0  0  0  0  0  0
   37.0770   23.0610   31.0750 H   0  0  0  0  0  0  0  0  0  0  0  0
   35.5930   23.9260   31.1190 H   0  0  0  0  0  0  0  0  0  0  0  0
   40.5850   23.9970   35.2120 C   0  0  0  0  0  0  0  0  0  0  0  0
   39.2110   24.1360   35.4370 C   0  0  0  0  0  0  0  0  0  0  0  0
   38.7540   23.5350   36.5870 C   0  0  0  0  0  0  0  0  0  0  0  0
   37.7290   23.5060   36.9100 H   0  0  0  0  0  0  0  0  0  0  0  0
   39.5580   22.8420   37.4740 C   0  0  0  0  0  0  0  0  0  0  0  0
   39.2450   22.3600   38.3800 H   0  0  0  0  0  0  0  0  0  0  0  0
   40.9210   22.7420   37.1910 C   0  0  0  0  0  3  0  0  0  0  0  0
   41.4560   23.3220   36.0460 C   0  0  0  0  0  3  0  0  0  0  0  0
   41.5710   25.0990   33.0720 N   0  0  0  0  0  0  0  0  0  0  0  0
   41.1230   24.6070   34.0230 C   0  0  0  0  0  0  0  0  0  0  0  0
   38.5080   27.0250   35.7100 C   0  0  0  0  0  0  0  0  0  0  0  0
   39.8710   27.1990   35.6240 F   0  0  0  0  0  0  0  0  0  0  0  0
   37.8870   28.2430   35.6070 F   0  0  0  0  0  0  0  0  0  0  0  0
   38.2280   26.5080   36.9630 F   0  0  0  0  0  0  0  0  0  0  0  0
  1  8  1  0  0  0  0
  1  2  1  0  0  0  0
  2 21  1  0  0  0  0
  3  2  2  0  0  0  0
  3 12  1  0  0  0  0
  4  3  1  0  0  0  0
  5  6  1  0  0  0  0
  5  4  2  0  0  0  0
  6  1  2  0  0  0  0
  7  5  1  0  0  0  0
  9  7  1  0  0  0  0
 10  7  1  0  0  0  0
 11 12  2  0  0  0  0
 11 18  1  0  0  0  0
 12 13  1  0  0  0  0
 13 14  1  0  0  0  0
 13 15  2  0  0  0  0
 15 16  1  0  0  0  0
 17 15  1  0  0  0  0
 18 17  2  0  0  0  0
 19 20  3  0  0  0  0
 20 11  1  0  0  0  0
 21 24  1  0  0  0  0
 22 21  1  0  0  0  0
 23 21  1  0  0  0  0
M  END
>  <minimizedAffinity>
-5.08518791

$$$$

 OpenBabel03272507563D

 24 25  0  0  0  0  0  0  0  0999 V2000
   37.1590   26.4300   33.6960 C   0  0  0  0  0  0  0  0  0  0  0  0
   38.1800   25.9210   34.5600 C   0  0  0  0  0  0  0  0  0  0  0  0
   38.6980   24.6580   34.3190 C   0  0  0  0  0  0  0  0  0  0  0  0
   38.1810   23.9700   33.2440 N   0  0  0  0  0  0  0  0  0  0  0  0
   37.2160   24.4760   32.4470 C   0  0  0  0  0  0  0  0  0  0  0  0
   36.7010   25.6980   32.6590 N   0  0  0  0  0  0  0  0  0  0  0  0
   36.8070   23.5900   31.4390 N   0  0  0  0  0  0  0  0  0  0  0  0
   36.7530   27.4270   33.8900 H   0  0  0  0  0  0  0  0  0  0  0  0
   37.3810   22.9450   30.9020 H   0  0  0  0  0  0  0  0  0  0  0  0
   35.7910   23.5420   31.1560 H   0  0  0  0  0  0  0  0  0  0  0  0
   39.5280   23.2900   36.2380 C   0  0  0  0  0  0  0  0  0  0  0  0
   39.7700   24.0850   35.1130 C   0  0  0  0  0  0  0  0  0  0  0  0
   41.0990   24.3270   34.8550 C   0  0  0  0  0  0  0  0  0  0  0  0
   41.4780   24.9400   34.0570 H   0  0  0  0  0  0  0  0  0  0  0  0
   42.1410   23.8390   35.6240 C   0  0  0  0  0  0  0  0  0  0  0  0
   43.1890   24.0010   35.4590 H   0  0  0  0  0  0  0  0  0  0  0  0
   41.8310   23.0500   36.7330 C   0  0  0  0  0  3  0  0  0  0  0  0
   40.5100   22.7650   37.0570 C   0  0  0  0  0  3  0  0  0  0  0  0
   37.0510   22.7550   36.8240 N   0  0  0  0  0  0  0  0  0  0  0  0
   38.1540   23.0010   36.5590 C   0  0  0  0  0  0  0  0  0  0  0  0
   38.6430   26.7920   35.6820 C   0  0  0  0  0  0  0  0  0  0  0  0
   39.9910   27.0510   35.5750 F   0  0  0  0  0  0  0  0  0  0  0  0
   37.9480   27.9710   35.6250 F   0  0  0  0  0  0  0  0  0  0  0  0
   38.4220   26.2250   36.9250 F   0  0  0  0  0  0  0  0  0  0  0  0
  1  8  1  0  0  0  0
  1  2  1  0  0  0  0
  2 21  1  0  0  0  0
  3  2  2  0  0  0  0
  3 12  1  0  0  0  0
  4  3  1  0  0  0  0
  5  6  1  0  0  0  0
  5  4  2  0  0  0  0
  6  1  2  0  0  0  0
  7  5  1  0  0  0  0
  9  7  1  0  0  0  0
 10  7  1  0  0  0  0
 11 20  1  0  0  0  0
 11 18  1  0  0  0  0
 12 11  2  0  0  0  0
 13 12  1  0  0  0  0
 13 15  2  0  0  0  0
 14 13  1  0  0  0  0
 15 17  1  0  0  0  0
 16 15  1  0  0  0  0
 17 18  2  0  0  0  0
 20 19  3  0  0  0  0
 21 24  1  0  0  0  0
 22 21  1  0  0  0  0
 23 21  1  0  0  0  0
M  END
>  <minimizedAffinity>
-5.00673199

$$$$

 OpenBabel03272507563D

 24 25  0  0  0  0  0  0  0  0999 V2000
   42.2170   23.8350   35.4280 C   0  0  0  0  0  0  0  0  0  0  0  0
   41.2310   24.7680   34.9750 C   0  0  0  0  0  0  0  0  0  0  0  0
   39.9460   24.6910   35.4870 C   0  0  0  0  0  0  0  0  0  0  0  0
   39.7050   23.7010   36.4140 N   0  0  0  0  0  0  0  0  0  0  0  0
   40.6570   22.8340   36.8210 C   0  0  0  0  0  0  0  0  0  0  0  0
   41.9090   22.8900   36.3400 N   0  0  0  0  0  0  0  0  0  0  0  0
   40.1840   21.8810   37.7370 N   0  0  0  0  0  0  0  0  0  0  0  0
   43.2300   23.8990   35.0200 H   0  0  0  0  0  0  0  0  0  0  0  0
   39.5090   22.0150   38.4860 H   0  0  0  0  0  0  0  0  0  0  0  0
   40.5370   20.8870   37.6960 H   0  0  0  0  0  0  0  0  0  0  0  0
   38.0350   25.4060   34.0450 C   0  0  0  0  0  0  0  0  0  0  0  0
   38.8980   25.6280   35.1230 C   0  0  0  0  0  0  0  0  0  0  0  0
   38.7140   26.8280   35.7700 C   0  0  0  0  0  0  0  0  0  0  0  0
   39.3000   27.1870   36.5970 H   0  0  0  0  0  0  0  0  0  0  0  0
   37.7590   27.7640   35.4130 C   0  0  0  0  0  0  0  0  0  0  0  0
   37.5800   28.7090   35.8890 H   0  0  0  0  0  0  0  0  0  0  0  0
   36.9280   27.4800   34.3290 C   0  0  0  0  0  3  0  0  0  0  0  0
   37.0570   26.2880   33.6250 C   0  0  0  0  0  3  0  0  0  0  0  0
   38.2910   23.1730   32.7380 N   0  0  0  0  0  0  0  0  0  0  0  0
   38.1800   24.1660   33.3280 C   0  0  0  0  0  0  0  0  0  0  0  0
   41.6480   25.7910   33.9690 C   0  0  0  0  0  0  0  0  0  0  0  0
   41.5040   27.0630   34.4770 F   0  0  0  0  0  0  0  0  0  0  0  0
   42.9640   25.5740   33.6560 F   0  0  0  0  0  0  0  0  0  0  0  0
   40.9130   25.7210   32.7980 F   0  0  0  0  0  0  0  0  0  0  0  0
  1  6  1  0  0  0  0
  2  1  2  0  0  0  0
  2  3  1  0  0  0  0
  3  4  2  0  0  0  0
  4  5  1  0  0  0  0
  5  7  1  0  0  0  0
  6  5  2  0  0  0  0
  7  9  1  0  0  0  0
  8  1  1  0  0  0  0
 10  7  1  0  0  0  0
 11 12  1  0  0  0  0
 12  3  1  0  0  0  0
 12 13  2  0  0  0  0
 13 14  1  0  0  0  0
 15 13  1  0  0  0  0
 15 16  1  0  0  0  0
 17 15  2  0  0  0  0
 18 11  2  0  0  0  0
 18 17  1  0  0  0  0
 19 20  3  0  0  0  0
 20 11  1  0  0  0  0
 21 22  1  0  0  0  0
 21  2  1  0  0  0  0
 23 21  1  0  0  0  0
 24 21  1  0  0  0  0
M  END
>  <minimizedAffinity>
-4.66894579

$$$$

 OpenBabel03272507563D

 24 25  0  0  0  0  0  0  0  0999 V2000
   36.9490   22.0100   36.3980 C   0  0  0  0  0  0  0  0  0  0  0  0
   38.0540   22.9170   36.4130 C   0  0  0  0  0  0  0  0  0  0  0  0
   38.7210   23.1870   35.2280 C   0  0  0  0  0  0  0  0  0  0  0  0
   38.2610   22.5490   34.0980 N   0  0  0  0  0  0  0  0  0  0  0  0
   37.2150   21.6950   34.1150 C   0  0  0  0  0  0  0  0  0  0  0  0
   36.5530   21.4200   35.2500 N   0  0  0  0  0  0  0  0  0  0  0  0
   36.9440   21.1240   32.8620 N   0  0  0  0  0  0  0  0  0  0  0  0
   36.4260   21.7990   37.3350 H   0  0  0  0  0  0  0  0  0  0  0  0
   37.0020   21.5650   31.9480 H   0  0  0  0  0  0  0  0  0  0  0  0
   36.6350   20.1170   32.7950 H   0  0  0  0  0  0  0  0  0  0  0  0
   39.6240   25.4840   34.8400 C   0  0  0  0  0  0  0  0  0  0  0  0
   39.8190   24.1330   35.1440 C   0  0  0  0  0  0  0  0  0  0  0  0
   41.1350   23.7630   35.2970 C   0  0  0  0  0  0  0  0  0  0  0  0
   41.4830   22.7650   35.4990 H   0  0  0  0  0  0  0  0  0  0  0  0
   42.2060   24.6300   35.1700 C   0  0  0  0  0  0  0  0  0  0  0  0
   43.2450   24.3850   35.2820 H   0  0  0  0  0  0  0  0  0  0  0  0
   41.9420   25.9660   34.8670 C   0  0  0  0  0  3  0  0  0  0  0  0
   40.6370   26.4140   34.6950 C   0  0  0  0  0  3  0  0  0  0  0  0
   37.1740   26.3050   34.5400 N   0  0  0  0  0  0  0  0  0  0  0  0
   38.2660   25.9320   34.6680 C   0  0  0  0  0  0  0  0  0  0  0  0
   38.4300   23.5380   37.7190 C   0  0  0  0  0  0  0  0  0  0  0  0
   38.2650   24.9040   37.6760 F   0  0  0  0  0  0  0  0  0  0  0  0
   37.6200   23.0140   38.6920 F   0  0  0  0  0  0  0  0  0  0  0  0
   39.7430   23.2850   38.0740 F   0  0  0  0  0  0  0  0  0  0  0  0
  1  2  1  0  0  0  0
  1  8  1  0  0  0  0
  2 21  1  0  0  0  0
  3  2  2  0  0  0  0
  4  5  2  0  0  0  0
  4  3  1  0  0  0  0
  5  6  1  0  0  0  0
  6  1  2  0  0  0  0
  7  5  1  0  0  0  0
  9  7  1  0  0  0  0
 10  7  1  0  0  0  0
 11 12  1  0  0  0  0
 12  3  1  0  0  0  0
 12 13  2  0  0  0  0
 13 14  1  0  0  0  0
 15 16  1  0  0  0  0
 15 13  1  0  0  0  0
 17 15  2  0  0  0  0
 18 11  2  0  0  0  0
 18 17  1  0  0  0  0
 19 20  3  0  0  0  0
 20 11  1  0  0  0  0
 21 24  1  0  0  0  0
 21 23  1  0  0  0  0
 22 21  1  0  0  0  0
M  END
>  <minimizedAffinity>
-4.60137367

$$$$

 OpenBabel03272507563D

 24 25  0  0  0  0  0  0  0  0999 V2000
   38.2230   24.5040   36.1840 C   0  0  0  0  0  0  0  0  0  0  0  0
   38.1750   25.5680   35.2280 C   0  0  0  0  0  0  0  0  0  0  0  0
   38.0020   25.2610   33.8870 C   0  0  0  0  0  0  0  0  0  0  0  0
   37.8870   23.9270   33.5660 N   0  0  0  0  0  0  0  0  0  0  0  0
   37.9380   22.9450   34.4910 C   0  0  0  0  0  0  0  0  0  0  0  0
   38.1030   23.2180   35.7950 N   0  0  0  0  0  0  0  0  0  0  0  0
   37.8440   21.6580   33.9390 N   0  0  0  0  0  0  0  0  0  0  0  0
   38.3600   24.7510   37.2400 H   0  0  0  0  0  0  0  0  0  0  0  0
   37.2700   21.3530   33.1570 H   0  0  0  0  0  0  0  0  0  0  0  0
   38.4120   20.8650   34.3440 H   0  0  0  0  0  0  0  0  0  0  0  0
   38.9950   26.7390   32.1340 C   0  0  0  0  0  0  0  0  0  0  0  0
   37.8900   26.2790   32.8580 C   0  0  0  0  0  0  0  0  0  0  0  0
   36.7040   26.9070   32.5570 C   0  0  0  0  0  0  0  0  0  0  0  0
   35.7580   26.7140   33.0300 H   0  0  0  0  0  0  0  0  0  0  0  0
   36.5760   27.9160   31.6180 C   0  0  0  0  0  0  0  0  0  0  0  0
   35.6730   28.4320   31.3520 H   0  0  0  0  0  0  0  0  0  0  0  0
   37.7180   28.3270   30.9300 C   0  0  0  0  0  3  0  0  0  0  0  0
   38.9530   27.7400   31.1820 C   0  0  0  0  0  3  0  0  0  0  0  0
   41.2830   25.6040   32.6310 N   0  0  0  0  0  0  0  0  0  0  0  0
   40.2660   26.1170   32.4050 C   0  0  0  0  0  0  0  0  0  0  0  0
   38.3070   26.9680   35.7330 C   0  0  0  0  0  0  0  0  0  0  0  0
   38.3140   26.9920   37.1100 F   0  0  0  0  0  0  0  0  0  0  0  0
   39.4870   27.4840   35.2650 F   0  0  0  0  0  0  0  0  0  0  0  0
   37.2800   27.7910   35.3040 F   0  0  0  0  0  0  0  0  0  0  0  0
  1  8  1  0  0  0  0
  2 21  1  0  0  0  0
  2  1  2  0  0  0  0
  3  2  1  0  0  0  0
  4  3  2  0  0  0  0
  4  5  1  0  0  0  0
  5  6  2  0  0  0  0
  6  1  1  0  0  0  0
  7 10  1  0  0  0  0
  7  5  1  0  0  0  0
  9  7  1  0  0  0  0
 11 20  1  0  0  0  0
 11 12  1  0  0  0  0
 12  3  1  0  0  0  0
 13 12  2  0  0  0  0
 13 14  1  0  0  0  0
 15 13  1  0  0  0  0
 16 15  1  0  0  0  0
 17 18  1  0  0  0  0
 17 15  2  0  0  0  0
 18 11  2  0  0  0  0
 20 19  3  0  0  0  0
 21 22  1  0  0  0  0
 23 21  1  0  0  0  0
 24 21  1  0  0  0  0
M  END
>  <minimizedAffinity>
-4.60033417

$$$$

 OpenBabel03272507563D

 24 25  0  0  0  0  0  0  0  0999 V2000
   36.0230   28.6030   32.2780 C   0  0  0  0  0  0  0  0  0  0  0  0
   36.9530   27.8640   33.0760 C   0  0  0  0  0  0  0  0  0  0  0  0
   38.0380   27.2610   32.4610 C   0  0  0  0  0  0  0  0  0  0  0  0
   38.1450   27.4180   31.0970 N   0  0  0  0  0  0  0  0  0  0  0  0
   37.2490   28.1200   30.3690 C   0  0  0  0  0  0  0  0  0  0  0  0
   36.1920   28.7150   30.9440 N   0  0  0  0  0  0  0  0  0  0  0  0
   37.5260   28.1150   28.9940 N   0  0  0  0  0  0  0  0  0  0  0  0
   35.1680   29.0770   32.7680 H   0  0  0  0  0  0  0  0  0  0  0  0
   38.4340   28.1570   28.5380 H   0  0  0  0  0  0  0  0  0  0  0  0
   36.7360   28.0680   28.2950 H   0  0  0  0  0  0  0  0  0  0  0  0
   38.9900   25.1560   33.4140 C   0  0  0  0  0  0  0  0  0  0  0  0
   39.0570   26.5370   33.1990 C   0  0  0  0  0  0  0  0  0  0  0  0
   40.1310   27.1590   33.7920 C   0  0  0  0  0  0  0  0  0  0  0  0
   40.3320   28.2150   33.7660 H   0  0  0  0  0  0  0  0  0  0  0  0
   41.0890   26.5050   34.5460 C   0  0  0  0  0  0  0  0  0  0  0  0
   41.9410   26.9490   35.0240 H   0  0  0  0  0  0  0  0  0  0  0  0
   40.9650   25.1250   34.7200 C   0  0  0  0  0  3  0  0  0  0  0  0
   39.9040   24.4290   34.1520 C   0  0  0  0  0  3  0  0  0  0  0  0
   36.9910   23.8930   32.3320 N   0  0  0  0  0  0  0  0  0  0  0  0
   37.8870   24.4490   32.8160 C   0  0  0  0  0  0  0  0  0  0  0  0
   36.7060   27.7900   34.5480 C   0  0  0  0  0  0  0  0  0  0  0  0
   37.7250   28.3970   35.2460 F   0  0  0  0  0  0  0  0  0  0  0  0
   35.5260   28.4330   34.8170 F   0  0  0  0  0  0  0  0  0  0  0  0
   36.5980   26.4890   35.0070 F   0  0  0  0  0  0  0  0  0  0  0  0
  1  8  1  0  0  0  0
  1  2  1  0  0  0  0
  2 21  1  0  0  0  0
  3  2  2  0  0  0  0
  3 12  1  0  0  0  0
  4  3  1  0  0  0  0
  5  6  1  0  0  0  0
  5  4  2  0  0  0  0
  6  1  2  0  0  0  0
  7  5  1  0  0  0  0
  9  7  1  0  0  0  0
 10  7  1  0  0  0  0
 11 18  1  0  0  0  0
 12 11  2  0  0  0  0
 12 13  1  0  0  0  0
 13 15  2  0  0  0  0
 14 13  1  0  0  0  0
 15 17  1  0  0  0  0
 15 16  1  0  0  0  0
 18 17  2  0  0  0  0
 19 20  3  0  0  0  0
 20 11  1  0  0  0  0
 21 23  1  0  0  0  0
 21 24  1  0  0  0  0
 21 22  1  0  0  0  0
M  END
>  <minimizedAffinity>
-4.59518862

$$$$

 OpenBabel03272507563D

 24 25  0  0  0  0  0  0  0  0999 V2000
   36.8930   21.8520   36.4030 C   0  0  0  0  0  0  0  0  0  0  0  0
   37.8350   22.9270   36.3370 C   0  0  0  0  0  0  0  0  0  0  0  0
   38.3210   23.3220   35.1010 C   0  0  0  0  0  0  0  0  0  0  0  0
   37.8510   22.6380   34.0020 N   0  0  0  0  0  0  0  0  0  0  0  0
   36.9610   21.6270   34.0950 C   0  0  0  0  0  0  0  0  0  0  0  0
   36.4760   21.2270   35.2820 N   0  0  0  0  0  0  0  0  0  0  0  0
   36.6530   21.0420   32.8570 N   0  0  0  0  0  0  0  0  0  0  0  0
   36.5130   21.5430   37.3810 H   0  0  0  0  0  0  0  0  0  0  0  0
   36.5430   21.5040   31.9580 H   0  0  0  0  0  0  0  0  0  0  0  0
   36.5030   20.0000   32.7860 H   0  0  0  0  0  0  0  0  0  0  0  0
   40.6280   24.2660   34.9250 C   0  0  0  0  0  0  0  0  0  0  0  0
   39.2390   24.4350   34.9370 C   0  0  0  0  0  0  0  0  0  0  0  0
   38.8180   25.7410   34.8410 C   0  0  0  0  0  0  0  0  0  0  0  0
   37.7940   26.0690   34.8660 H   0  0  0  0  0  0  0  0  0  0  0  0
   39.6700   26.8260   34.7380 C   0  0  0  0  0  0  0  0  0  0  0  0
   39.3850   27.8580   34.6600 H   0  0  0  0  0  0  0  0  0  0  0  0
   41.0450   26.5890   34.7290 C   0  0  0  0  0  3  0  0  0  0  0  0
   41.5450   25.2950   34.8250 C   0  0  0  0  0  3  0  0  0  0  0  0
   41.5430   21.8390   35.1110 N   0  0  0  0  0  0  0  0  0  0  0  0
   41.1290   22.9200   35.0220 C   0  0  0  0  0  0  0  0  0  0  0  0
   38.2440   23.5760   37.6190 C   0  0  0  0  0  0  0  0  0  0  0  0
   37.9700   24.9250   37.5930 F   0  0  0  0  0  0  0  0  0  0  0  0
   37.5420   22.9910   38.6400 F   0  0  0  0  0  0  0  0  0  0  0  0
   39.5940   23.4270   37.8880 F   0  0  0  0  0  0  0  0  0  0  0  0
  1  8  1  0  0  0  0
  2  1  1  0  0  0  0
  2 21  1  0  0  0  0
  3  2  2  0  0  0  0
  4  5  2  0  0  0  0
  4  3  1  0  0  0  0
  5  6  1  0  0  0  0
  6  1  2  0  0  0  0
  7  5  1  0  0  0  0
  9  7  1  0  0  0  0
 10  7  1  0  0  0  0
 11 12  1  0  0  0  0
 11 20  1  0  0  0  0
 12  3  1  0  0  0  0
 13 14  1  0  0  0  0
 13 12  2  0  0  0  0
 15 13  1  0  0  0  0
 16 15  1  0  0  0  0
 17 15  2  0  0  0  0
 17 18  1  0  0  0  0
 18 11  2  0  0  0  0
 20 19  3  0  0  0  0
 21 24  1  0  0  0  0
 21 23  1  0  0  0  0
 22 21  1  0  0  0  0
M  END
>  <minimizedAffinity>
-4.5780139

$$$$
