
 OpenBabel03272504393D

 43 45  0  0  0  0  0  0  0  0999 V2000
   34.9330   29.4510   48.8720 C   0  0  0  0  0  0  0  0  0  0  0  0
   34.2490   30.2610   49.2670 H   0  0  0  0  0  0  0  0  0  0  0  0
   35.8380   29.5450   49.5080 H   0  0  0  0  0  0  0  0  0  0  0  0
   37.6760   30.4910   48.5100 Cl  0  0  0  0  0  0  0  0  0  0  0  0
   36.5140   30.3290   47.1920 C   0  0  0  0  0  0  0  0  0  0  0  0
   36.8740   30.6990   45.9320 C   0  0  0  0  0  0  0  0  0  0  0  0
   35.9790   30.5760   44.9050 C   0  0  0  0  0  0  0  0  0  0  0  0
   34.7220   30.0740   45.1760 C   0  0  0  0  0  0  0  0  0  0  0  0
   34.4000   29.7090   46.4840 C   0  0  0  0  0  0  0  0  0  0  0  0
   35.2750   29.8230   47.5190 C   0  0  0  0  0  0  0  0  0  0  0  0
   36.3090   30.8850   43.9080 H   0  0  0  0  0  0  0  0  0  0  0  0
   34.0910   30.0190   44.2910 H   0  0  0  0  0  0  0  0  0  0  0  0
   33.4280   29.3620   46.4800 H   0  0  0  0  0  0  0  0  0  0  0  0
   39.8930   32.8300   45.9460 C   0  0  0  0  0  0  0  0  0  0  0  0
   40.7440   32.0980   45.0660 C   0  0  0  0  0  0  0  0  0  0  0  0
   40.2430   30.9170   44.5140 C   0  0  0  0  0  0  0  0  0  0  0  0
   38.9880   30.5210   44.8340 N   0  0  0  0  0  0  0  0  0  0  0  0
   38.2070   31.2290   45.6650 C   0  0  0  0  0  0  0  0  0  0  0  0
   38.6620   32.3730   46.2130 N   0  0  0  0  0  0  0  0  0  0  0  0
   40.2550   33.7440   46.3850 H   0  0  0  0  0  0  0  0  0  0  0  0
   41.7300   32.4970   44.8750 H   0  0  0  0  0  0  0  0  0  0  0  0
   41.1080   30.2240   43.6530 N   0  0  0  0  0  0  0  0  0  0  0  0
   41.0620   30.1930   42.5950 H   0  0  0  0  0  0  0  0  0  0  0  0
   41.7760   29.7680   44.3050 H   0  0  0  0  0  0  0  0  0  0  0  0
   34.3070   28.1600   49.1220 C   0  0  0  0  0  0  0  0  0  0  0  0
   34.4130   27.4920   48.2330 H   0  0  0  0  0  0  0  0  0  0  0  0
   34.7990   27.5940   49.9480 H   0  0  0  0  0  0  0  0  0  0  0  0
   32.9800   28.2890   49.4710 O   0  0  0  0  0  0  0  0  0  0  0  0
   32.7200   26.6910   47.4000 O   0  0  0  0  0  0  0  0  0  0  0  0
   31.9790   27.6590   48.2480 P   0  0  2  0  0  0  0  0  0  0  0  0
   31.4470   29.0380   47.3810 O   0  0  0  0  0  0  0  0  0  0  0  0
   31.4570   29.8490   47.9320 H   0  0  0  0  0  0  0  0  0  0  0  0
   30.6380   26.9320   48.8930 O   0  0  0  0  0  0  0  0  0  0  0  0
   28.1360   27.2150   49.2230 C   0  0  0  0  0  0  0  0  0  0  0  0
   29.3410   27.0980   48.5810 C   0  0  0  0  0  0  0  0  0  0  0  0
   29.2680   27.1640   47.1770 C   0  0  0  0  0  0  0  0  0  0  0  0
   30.0630   27.1000   46.4160 H   0  0  0  0  0  0  0  0  0  0  0  0
   28.0560   27.3340   46.4930 C   0  0  0  0  0  0  0  0  0  0  0  0
   27.9050   27.3950   45.4310 H   0  0  0  0  0  0  0  0  0  0  0  0
   26.8810   27.4440   47.2070 C   0  0  0  0  0  3  0  0  0  0  0  0
   26.9300   27.3820   48.5830 C   0  0  0  0  0  3  0  0  0  0  0  0
   28.2530   27.0980   51.7780 N   0  0  0  0  0  0  0  0  0  0  0  0
   28.2120   27.1490   50.6360 C   0  0  0  0  0  0  0  0  0  0  0  0
  1 25  1  0  0  0  0
  1  2  1  0  0  0  0
  1  3  1  0  0  0  0
  5 10  1  0  0  0  0
  5  4  1  0  0  0  0
  6  5  2  0  0  0  0
  7  8  2  0  0  0  0
  7  6  1  0  0  0  0
  8  9  1  0  0  0  0
  9 10  2  0  0  0  0
 10  1  1  0  0  0  0
 11  7  1  0  0  0  0
 12  8  1  0  0  0  0
 13  9  1  0  0  0  0
 14 19  1  0  0  0  0
 14 20  1  0  0  0  0
 15 14  2  0  0  0  0
 16 17  2  0  0  0  0
 16 15  1  0  0  0  0
 17 18  1  0  0  0  0
 18  6  1  0  0  0  0
 18 19  2  0  0  0  0
 21 15  1  0  0  0  0
 22 24  1  0  0  0  0
 22 16  1  0  0  0  0
 23 22  1  0  0  0  0
 25 28  1  0  0  0  0
 25 27  1  0  0  0  0
 26 25  1  0  0  0  0
 30 29  2  6  0  0  0
 30 33  1  0  0  0  0
 30 28  1  0  0  0  0
 31 32  1  0  0  0  0
 31 30  1  0  0  0  0
 34 43  1  0  0  0  0
 35 33  1  0  0  0  0
 35 34  2  0  0  0  0
 36 35  1  0  0  0  0
 37 36  1  0  0  0  0
 38 36  2  0  0  0  0
 38 40  1  0  0  0  0
 39 38  1  0  0  0  0
 40 41  2  0  0  0  0
 41 34  1  0  0  0  0
 43 42  3  0  0  0  0
M  END
>  <minimizedAffinity>
-6.40386534

>  <minimizedRMSD>
1.0655098

$$$$
