
 OpenBabel03272509303D

 39 41  0  0  1  0  0  0  0  0999 V2000
   35.7590   30.4910   48.9270 C   0  0  2  0  0  0  0  0  0  0  0  0
   37.0240   31.1020   49.4450 C   0  0  0  0  0  0  0  0  0  0  0  0
   37.9160   30.1080   50.1540 C   0  0  0  0  0  0  0  0  0  0  0  0
   37.1740   29.4010   51.2840 C   0  0  0  0  0  0  0  0  0  0  0  0
   35.7100   29.1570   50.9920 C   0  0  0  0  0  0  0  0  0  0  0  0
   35.5370   29.1180   49.4620 C   0  0  1  0  0  0  0  0  0  0  0  0
   34.8320   31.0650   49.1850 H   0  0  0  0  0  0  0  0  0  0  0  0
   36.6780   31.7970   50.2830 H   0  0  0  0  0  0  0  0  0  0  0  0
   37.5910   31.7220   48.7760 H   0  0  0  0  0  0  0  0  0  0  0  0
   38.7030   30.7270   50.6770 H   0  0  0  0  0  0  0  0  0  0  0  0
   38.4310   29.4040   49.5090 H   0  0  0  0  0  0  0  0  0  0  0  0
   37.2480   29.9490   52.2320 H   0  0  0  0  0  0  0  0  0  0  0  0
   37.6570   28.3860   51.3690 H   0  0  0  0  0  0  0  0  0  0  0  0
   35.0990   29.9890   51.3560 H   0  0  0  0  0  0  0  0  0  0  0  0
   35.3750   28.1950   51.4280 H   0  0  0  0  0  0  0  0  0  0  0  0
   36.3210   28.4550   49.1990 H   0  0  0  0  0  0  0  0  0  0  0  0
   35.7620   30.4300   47.4400 C   0  0  0  0  0  0  0  0  0  0  0  0
   36.9990   30.6530   46.8270 C   0  0  0  0  0  0  0  0  0  0  0  0
   37.0270   30.6010   45.4290 C   0  0  0  0  0  0  0  0  0  0  0  0
   35.8590   30.3360   44.7490 N   0  0  0  0  0  0  0  0  0  0  0  0
   34.6720   30.1230   45.4030 C   0  0  0  0  0  0  0  0  0  0  0  0
   34.6470   30.1760   46.7460 N   0  0  0  0  0  0  0  0  0  0  0  0
   37.9770   30.8580   47.2140 H   0  0  0  0  0  0  0  0  0  0  0  0
   37.8910   30.7500   44.8150 H   0  0  0  0  0  0  0  0  0  0  0  0
   33.8040   29.9220   44.8060 H   0  0  0  0  0  0  0  0  0  0  0  0
   33.0420   28.6420   49.5450 C   0  0  0  0  0  0  0  0  0  0  0  0
   32.5790   29.3820   50.4550 O   0  0  0  0  0  0  0  0  0  0  0  0
   34.3490   28.4840   49.0140 N   0  0  0  0  0  0  0  0  0  0  0  0
   34.3150   27.7970   48.1960 H   0  0  0  0  0  0  0  0  0  0  0  0
   32.0320   27.0250   47.9880 C   0  0  0  0  0  0  0  0  0  0  0  0
   31.8580   27.8840   49.0760 C   0  0  0  0  0  0  0  0  0  0  0  0
   30.5980   27.9880   49.6580 C   0  0  0  0  0  0  0  0  0  0  0  0
   30.5120   28.6540   50.4850 H   0  0  0  0  0  0  0  0  0  0  0  0
   29.5520   27.2320   49.1350 C   0  0  0  0  0  0  0  0  0  0  0  0
   28.5660   27.3240   49.6030 H   0  0  0  0  0  0  0  0  0  0  0  0
   29.7430   26.3870   48.0570 C   0  0  0  0  0  3  0  0  0  0  0  0
   30.9930   26.2630   47.4550 C   0  0  0  0  0  3  0  0  0  0  0  0
   34.3520   26.7630   46.8350 N   0  0  0  0  0  0  0  0  0  0  0  0
   33.3170   26.8840   47.3540 C   0  0  0  0  0  0  0  0  0  0  0  0
  1  7  1  1  0  0  0
  1  2  1  0  0  0  0
  1  6  1  0  0  0  0
  2  3  1  0  0  0  0
  2  8  1  0  0  0  0
  3 10  1  0  0  0  0
  3  4  1  0  0  0  0
  4 13  1  0  0  0  0
  4 12  1  0  0  0  0
  5  4  1  0  0  0  0
  5 14  1  0  0  0  0
  5 15  1  0  0  0  0
  6 16  1  6  0  0  0
  6  5  1  0  0  0  0
  9  2  1  0  0  0  0
 11  3  1  0  0  0  0
 17  1  1  0  0  0  0
 18 23  1  0  0  0  0
 18 17  1  0  0  0  0
 19 18  2  0  0  0  0
 20 21  2  0  0  0  0
 20 19  1  0  0  0  0
 21 22  1  0  0  0  0
 22 17  2  0  0  0  0
 24 19  1  0  0  0  0
 25 21  1  0  0  0  0
 26 27  2  0  0  0  0
 28  6  1  0  0  0  0
 28 26  1  0  0  0  0
 29 28  1  0  0  0  0
 30 31  1  0  0  0  0
 31 26  1  0  0  0  0
 31 32  2  0  0  0  0
 32 33  1  0  0  0  0
 34 35  1  0  0  0  0
 34 32  1  0  0  0  0
 36 34  2  0  0  0  0
 37 30  2  0  0  0  0
 37 36  1  0  0  0  0
 38 39  3  0  0  0  0
 39 30  1  0  0  0  0
M  END
>  <minimizedAffinity>
-4.75918007

>  <minimizedRMSD>
1.32025242

$$$$
