
 OpenBabel03272509303D

 39 41  0  0  1  0  0  0  0  0999 V2000
   35.7570   30.4900   48.9250 C   0  0  2  0  0  0  0  0  0  0  0  0
   37.0220   31.1000   49.4430 C   0  0  0  0  0  0  0  0  0  0  0  0
   37.9150   30.1060   50.1510 C   0  0  0  0  0  0  0  0  0  0  0  0
   37.1730   29.3980   51.2810 C   0  0  0  0  0  0  0  0  0  0  0  0
   35.7090   29.1540   50.9900 C   0  0  0  0  0  0  0  0  0  0  0  0
   35.5350   29.1170   49.4600 C   0  0  1  0  0  0  0  0  0  0  0  0
   34.8290   31.0630   49.1840 H   0  0  0  0  0  0  0  0  0  0  0  0
   36.6760   31.7950   50.2820 H   0  0  0  0  0  0  0  0  0  0  0  0
   37.5880   31.7210   48.7740 H   0  0  0  0  0  0  0  0  0  0  0  0
   38.7020   30.7250   50.6730 H   0  0  0  0  0  0  0  0  0  0  0  0
   38.4300   29.4020   49.5040 H   0  0  0  0  0  0  0  0  0  0  0  0
   37.2480   29.9460   52.2290 H   0  0  0  0  0  0  0  0  0  0  0  0
   37.6560   28.3830   51.3650 H   0  0  0  0  0  0  0  0  0  0  0  0
   35.0980   29.9870   51.3540 H   0  0  0  0  0  0  0  0  0  0  0  0
   35.3740   28.1930   51.4250 H   0  0  0  0  0  0  0  0  0  0  0  0
   36.3190   28.4530   49.1960 H   0  0  0  0  0  0  0  0  0  0  0  0
   35.7590   30.4300   47.4380 C   0  0  0  0  0  0  0  0  0  0  0  0
   36.9960   30.6510   46.8250 C   0  0  0  0  0  0  0  0  0  0  0  0
   37.0230   30.5990   45.4270 C   0  0  0  0  0  0  0  0  0  0  0  0
   35.8540   30.3370   44.7470 N   0  0  0  0  0  0  0  0  0  0  0  0
   34.6670   30.1270   45.4020 C   0  0  0  0  0  0  0  0  0  0  0  0
   34.6430   30.1780   46.7440 N   0  0  0  0  0  0  0  0  0  0  0  0
   37.9750   30.8530   47.2110 H   0  0  0  0  0  0  0  0  0  0  0  0
   37.8870   30.7460   44.8120 H   0  0  0  0  0  0  0  0  0  0  0  0
   33.7990   29.9270   44.8050 H   0  0  0  0  0  0  0  0  0  0  0  0
   33.0400   28.6410   49.5440 C   0  0  0  0  0  0  0  0  0  0  0  0
   32.5780   29.3800   50.4540 O   0  0  0  0  0  0  0  0  0  0  0  0
   34.3470   28.4830   49.0120 N   0  0  0  0  0  0  0  0  0  0  0  0
   34.3120   27.7970   48.1940 H   0  0  0  0  0  0  0  0  0  0  0  0
   32.0290   27.0220   47.9880 C   0  0  0  0  0  0  0  0  0  0  0  0
   31.8550   27.8830   49.0760 C   0  0  0  0  0  0  0  0  0  0  0  0
   30.5950   27.9890   49.6570 C   0  0  0  0  0  0  0  0  0  0  0  0
   30.5100   28.6560   50.4830 H   0  0  0  0  0  0  0  0  0  0  0  0
   29.5500   27.2320   49.1340 C   0  0  0  0  0  0  0  0  0  0  0  0
   28.5630   27.3260   49.6010 H   0  0  0  0  0  0  0  0  0  0  0  0
   29.7390   26.3860   48.0570 C   0  0  0  0  0  3  0  0  0  0  0  0
   30.9900   26.2600   47.4560 C   0  0  0  0  0  3  0  0  0  0  0  0
   34.3550   26.7750   46.8430 N   0  0  0  0  0  0  0  0  0  0  0  0
   33.3150   26.8810   47.3550 C   0  0  0  0  0  0  0  0  0  0  0  0
  1  7  1  1  0  0  0
  1  2  1  0  0  0  0
  1  6  1  0  0  0  0
  2  3  1  0  0  0  0
  2  8  1  0  0  0  0
  3 10  1  0  0  0  0
  3  4  1  0  0  0  0
  4 13  1  0  0  0  0
  4 12  1  0  0  0  0
  5  4  1  0  0  0  0
  5 14  1  0  0  0  0
  5 15  1  0  0  0  0
  6 16  1  6  0  0  0
  6  5  1  0  0  0  0
  9  2  1  0  0  0  0
 11  3  1  0  0  0  0
 17  1  1  0  0  0  0
 18 23  1  0  0  0  0
 18 17  1  0  0  0  0
 19 18  2  0  0  0  0
 20 21  2  0  0  0  0
 20 19  1  0  0  0  0
 21 22  1  0  0  0  0
 22 17  2  0  0  0  0
 24 19  1  0  0  0  0
 25 21  1  0  0  0  0
 26 27  2  0  0  0  0
 28  6  1  0  0  0  0
 28 26  1  0  0  0  0
 29 28  1  0  0  0  0
 30 31  1  0  0  0  0
 31 26  1  0  0  0  0
 31 32  2  0  0  0  0
 32 33  1  0  0  0  0
 34 35  1  0  0  0  0
 34 32  1  0  0  0  0
 36 34  2  0  0  0  0
 37 30  2  0  0  0  0
 37 36  1  0  0  0  0
 38 39  3  0  0  0  0
 39 30  1  0  0  0  0
M  END
>  <minimizedAffinity>
-4.75182819

>  <minimizedRMSD>
1.39160287

$$$$
