
 OpenBabel03272506393D

 38 40  0  0  1  0  0  0  0  0999 V2000
   34.4870   28.7670   50.0220 O   0  0  0  0  0  0  0  0  0  0  0  0
   34.2620   29.0610   48.8270 C   0  0  0  0  0  0  0  0  0  0  0  0
   35.0230   30.0930   48.1620 C   0  0  2  0  0  0  0  0  0  0  0  0
   34.5200   29.9260   46.6930 C   0  0  0  0  0  0  0  0  0  0  0  0
   33.1420   29.3650   46.8680 C   0  0  0  0  0  0  0  0  0  0  0  0
   33.2620   28.4410   47.9840 N   0  0  0  0  0  0  0  0  0  0  0  0
   34.7980   31.1000   48.4980 H   0  0  0  0  0  0  0  0  0  0  0  0
   35.2070   29.2760   46.1240 H   0  0  0  0  0  0  0  0  0  0  0  0
   34.4480   30.9600   46.3060 H   0  0  0  0  0  0  0  0  0  0  0  0
   32.9200   28.7340   45.9780 H   0  0  0  0  0  0  0  0  0  0  0  0
   32.3610   30.1090   46.9560 H   0  0  0  0  0  0  0  0  0  0  0  0
   32.5790   27.1810   48.2200 C   0  0  0  0  0  0  0  0  0  0  0  0
   33.1780   26.6400   48.9900 H   0  0  0  0  0  0  0  0  0  0  0  0
   32.6350   26.6160   47.2400 H   0  0  0  0  0  0  0  0  0  0  0  0
   30.3450   26.8490   47.5880 C   0  0  0  0  0  0  0  0  0  0  0  0
   31.1700   27.3650   48.5650 C   0  0  0  0  0  0  0  0  0  0  0  0
   30.6280   27.9550   49.6750 C   0  0  0  0  0  0  0  0  0  0  0  0
   31.3220   28.3390   50.4050 H   0  0  0  0  0  0  0  0  0  0  0  0
   29.2700   28.0490   49.8400 C   0  0  0  0  0  0  0  0  0  0  0  0
   28.9140   28.5190   50.7260 H   0  0  0  0  0  0  0  0  0  0  0  0
   28.4200   27.5440   48.8810 C   0  0  0  0  0  3  0  0  0  0  0  0
   28.9580   26.9420   47.7520 C   0  0  0  0  0  3  0  0  0  0  0  0
   31.1300   25.6910   45.3970 N   0  0  0  0  0  0  0  0  0  0  0  0
   30.7760   26.1930   46.3660 C   0  0  0  0  0  0  0  0  0  0  0  0
   36.4330   29.8660   48.1120 O   0  0  0  0  0  0  0  0  0  0  0  0
   37.2680   30.9740   48.2310 C   0  0  0  0  0  0  0  0  0  0  0  0
   37.4010   31.5300   49.4880 C   0  0  0  0  0  0  0  0  0  0  0  0
   38.2190   32.6290   49.6520 C   0  0  0  0  0  0  0  0  0  0  0  0
   38.8640   33.1210   48.5620 N   0  0  0  0  0  0  0  0  0  0  0  0
   38.7280   32.5690   47.3340 C   0  0  0  0  0  0  0  0  0  0  0  0
   37.9400   31.5180   47.1990 N   0  0  0  0  0  0  0  0  0  0  0  0
   40.2940   32.1700   45.5930 C   0  0  0  0  0  0  0  0  0  0  0  0
   40.5070   30.9800   45.9240 O   0  0  0  0  0  0  0  0  0  0  0  0
   39.4200   33.1140   46.2070 N   0  0  0  0  0  0  0  0  0  0  0  0
   36.8700   31.1120   50.3420 H   0  0  0  0  0  0  0  0  0  0  0  0
   38.3310   33.0730   50.6220 H   0  0  0  0  0  0  0  0  0  0  0  0
   40.9540   32.2390   44.7420 H   0  0  0  0  0  0  0  0  0  0  0  0
   39.4310   34.0210   45.7390 H   0  0  0  0  0  0  0  0  0  0  0  0
  2  1  2  0  0  0  0
  3  7  1  1  0  0  0
  3  2  1  0  0  0  0
  4  5  1  0  0  0  0
  4  3  1  0  0  0  0
  5 11  1  0  0  0  0
  5  6  1  0  0  0  0
  6 12  1  0  0  0  0
  6  2  1  0  0  0  0
  8  4  1  0  0  0  0
  9  4  1  0  0  0  0
 10  5  1  0  0  0  0
 12 16  1  0  0  0  0
 12 13  1  0  0  0  0
 14 12  1  0  0  0  0
 15 22  2  0  0  0  0
 15 16  1  0  0  0  0
 16 17  2  0  0  0  0
 17 19  1  0  0  0  0
 17 18  1  0  0  0  0
 19 20  1  0  0  0  0
 21 19  2  0  0  0  0
 22 21  1  0  0  0  0
 23 24  3  0  0  0  0
 24 15  1  0  0  0  0
 25  3  1  0  0  0  0
 25 26  1  0  0  0  0
 26 27  1  0  0  0  0
 27 28  2  0  0  0  0
 27 35  1  0  0  0  0
 28 36  1  0  0  0  0
 29 28  1  0  0  0  0
 30 29  2  0  0  0  0
 31 30  1  0  0  0  0
 31 26  2  0  0  0  0
 32 33  2  0  0  0  0
 32 34  1  0  0  0  0
 34 30  1  0  0  0  0
 37 32  1  0  0  0  0
 38 34  1  0  0  0  0
M  END
>  <minimizedAffinity>
-6.07053185

>  <minimizedRMSD>
2.10091281

$$$$
