
 OpenBabel03272507163D

 27 29  0  0  1  0  0  0  0  0999 V2000
   38.3740   32.9850   48.0350 C   0  0  1  0  0  0  0  0  0  0  0  0
   37.5900   32.1930   48.9580 C   0  0  2  0  0  0  0  0  0  0  0  0
   38.9640   32.6420   49.4080 C   0  0  0  0  0  0  0  0  0  0  0  0
   38.2630   34.0940   47.8880 H   0  0  0  0  0  0  0  0  0  0  0  0
   36.6940   32.6590   49.4160 H   0  0  0  0  0  0  0  0  0  0  0  0
   39.7660   31.9070   49.4830 H   0  0  0  0  0  0  0  0  0  0  0  0
   38.9320   33.4210   50.1950 H   0  0  0  0  0  0  0  0  0  0  0  0
   39.1400   32.3470   46.9090 C   0  0  0  0  0  0  0  0  0  0  0  0
   40.1120   33.1400   46.2970 C   0  0  0  0  0  0  0  0  0  0  0  0
   40.7930   32.5330   45.2320 C   0  0  0  0  0  0  0  0  0  0  0  0
   40.4920   31.2430   44.8500 N   0  0  0  0  0  0  0  0  0  0  0  0
   39.5330   30.5230   45.4890 C   0  0  0  0  0  0  0  0  0  0  0  0
   38.8570   31.0950   46.5290 N   0  0  0  0  0  0  0  0  0  0  0  0
   40.3410   34.1510   46.6020 H   0  0  0  0  0  0  0  0  0  0  0  0
   41.5520   33.1110   44.7310 H   0  0  0  0  0  0  0  0  0  0  0  0
   39.3580   29.5190   45.1280 H   0  0  0  0  0  0  0  0  0  0  0  0
   37.4610   30.8130   48.7340 O   0  0  0  0  0  0  0  0  0  0  0  0
   35.9810   29.5170   50.0060 C   0  0  0  0  0  0  0  0  0  0  0  0
   36.3100   30.0770   48.7720 C   0  0  0  0  0  0  0  0  0  0  0  0
   35.4340   29.8230   47.7360 C   0  0  0  0  0  0  0  0  0  0  0  0
   35.6930   30.2570   46.7870 H   0  0  0  0  0  0  0  0  0  0  0  0
   34.3060   29.0630   47.9090 C   0  0  0  0  0  0  0  0  0  0  0  0
   33.6870   28.9240   47.0350 H   0  0  0  0  0  0  0  0  0  0  0  0
   33.9640   28.5020   49.1200 C   0  0  0  0  0  0  0  0  0  0  0  0
   34.8420   28.7560   50.1660 C   0  0  0  0  0  0  0  0  0  0  0  0
   37.4540   29.8550   52.1220 N   0  0  0  0  0  0  0  0  0  0  0  0
   36.7930   29.6950   51.1730 C   0  0  0  0  0  0  0  0  0  0  0  0
  1  4  1  6  0  0  0
  1  2  1  0  0  0  0
  1  3  1  0  0  0  0
  2  3  1  0  0  0  0
  2  5  1  1  0  0  0
  3  6  1  0  0  0  0
  3  7  1  0  0  0  0
  8  1  1  0  0  0  0
  9 14  1  0  0  0  0
  9  8  2  0  0  0  0
 10  9  1  0  0  0  0
 11 10  2  0  0  0  0
 11 12  1  0  0  0  0
 12 13  2  0  0  0  0
 13  8  1  0  0  0  0
 15 10  1  0  0  0  0
 16 12  1  0  0  0  0
 17 19  1  0  0  0  0
 17  2  1  0  0  0  0
 18 25  1  0  0  0  0
 18 27  1  0  0  0  0
 19 18  2  0  0  0  0
 20 22  2  0  0  0  0
 20 19  1  0  0  0  0
 21 20  1  0  0  0  0
 22 24  1  0  0  0  0
 23 22  1  0  0  0  0
 24 25  2  0  0  0  0
 27 26  3  0  0  0  0
M  END
>  <minimizedAffinity>
-5.79934549

>  <minimizedRMSD>
3.04686713

$$$$
