
 OpenBabel03272510243D

 33 36  0  0  0  0  0  0  0  0999 V2000
   35.0830   29.9750   47.1440 C   0  0  0  0  0  0  0  0  0  0  0  0
   36.4210   30.2800   47.4080 C   0  0  0  0  0  0  0  0  0  0  0  0
   37.3260   30.5300   46.3750 C   0  0  0  0  0  0  0  0  0  0  0  0
   36.7980   30.4540   45.0810 C   0  0  0  0  0  0  0  0  0  0  0  0
   37.4660   30.6550   43.9110 N   0  0  0  0  0  0  0  0  0  0  0  0
   36.5680   30.4800   42.9330 C   0  0  0  0  0  0  0  0  0  0  0  0
   35.3770   30.1820   43.4280 N   0  0  0  0  0  0  0  0  0  0  0  0
   35.4870   30.1580   44.7790 C   0  0  0  0  0  0  0  0  0  0  0  0
   34.6100   29.9120   45.8390 C   0  0  0  0  0  0  0  0  0  0  0  0
   34.3680   29.7770   47.9400 H   0  0  0  0  0  0  0  0  0  0  0  0
   38.3500   30.7650   46.5670 H   0  0  0  0  0  0  0  0  0  0  0  0
   38.4940   30.9000   43.8170 H   0  0  0  0  0  0  0  0  0  0  0  0
   33.5990   29.6830   45.6050 H   0  0  0  0  0  0  0  0  0  0  0  0
   38.2360   30.9680   50.6360 C   0  0  0  0  0  0  0  0  0  0  0  0
   37.9460   31.0050   49.2770 C   0  0  0  0  0  0  0  0  0  0  0  0
   36.8450   30.3280   48.8020 C   0  0  0  0  0  0  0  0  0  0  0  0
   36.0830   29.6420   49.7070 N   0  0  0  0  0  0  0  0  0  0  0  0
   36.3740   29.6100   51.0230 C   0  0  0  0  0  0  0  0  0  0  0  0
   37.4450   30.2720   51.4770 N   0  0  0  0  0  0  0  0  0  0  0  0
   39.1250   31.5390   50.8800 H   0  0  0  0  0  0  0  0  0  0  0  0
   38.5400   31.5450   48.5420 H   0  0  0  0  0  0  0  0  0  0  0  0
   35.7700   29.0670   51.7380 H   0  0  0  0  0  0  0  0  0  0  0  0
   36.9210   30.6130   41.5940 O   0  0  0  0  0  0  0  0  0  0  0  0
   38.3480   32.3200   40.6360 C   0  0  0  0  0  0  0  0  0  0  0  0
   37.0970   31.8030   40.9460 C   0  0  0  0  0  0  0  0  0  0  0  0
   36.0520   32.6080   40.5350 C   0  0  0  0  0  0  0  0  0  0  0  0
   35.0380   32.2450   40.7560 H   0  0  0  0  0  0  0  0  0  0  0  0
   36.1900   33.8130   39.8790 C   0  0  0  0  0  0  0  0  0  0  0  0
   35.2790   34.3460   39.6130 H   0  0  0  0  0  0  0  0  0  0  0  0
   37.4590   34.2670   39.6040 C   0  0  0  0  0  3  0  0  0  0  0  0
   38.5480   33.5190   39.9830 C   0  0  0  0  0  3  0  0  0  0  0  0
   40.4760   30.9930   41.3190 N   0  0  0  0  0  0  0  0  0  0  0  0
   39.5310   31.5820   41.0080 C   0  0  0  0  0  0  0  0  0  0  0  0
  1  2  1  0  0  0  0
  1 10  1  0  0  0  0
  2 16  1  0  0  0  0
  3 11  1  0  0  0  0
  3  2  2  0  0  0  0
  4  3  1  0  0  0  0
  5  4  1  0  0  0  0
  6  7  2  0  0  0  0
  6  5  1  0  0  0  0
  7  8  1  0  0  0  0
  8  4  2  0  0  0  0
  8  9  1  0  0  0  0
  9  1  2  0  0  0  0
 12  5  1  0  0  0  0
 13  9  1  0  0  0  0
 14 20  1  0  0  0  0
 14 19  1  0  0  0  0
 15 14  2  0  0  0  0
 16 15  1  0  0  0  0
 16 17  2  0  0  0  0
 17 18  1  0  0  0  0
 18 19  2  0  0  0  0
 18 22  1  0  0  0  0
 21 15  1  0  0  0  0
 23  6  1  0  0  0  0
 24 25  1  0  0  0  0
 24 33  1  0  0  0  0
 25 23  1  0  0  0  0
 26 27  1  0  0  0  0
 26 25  2  0  0  0  0
 28 26  1  0  0  0  0
 29 28  1  0  0  0  0
 30 28  2  0  0  0  0
 30 31  1  0  0  0  0
 31 24  2  0  0  0  0
 33 32  3  0  0  0  0
M  END
>  <minimizedAffinity>
-4.76833916

>  <minimizedRMSD>
3.61317873

$$$$
