
 OpenBabel03272504183D

 27 28  0  0  0  0  0  0  0  0999 V2000
   40.2380   21.3540   33.3080 O   0  0  0  0  0  0  0  0  0  0  0  0
   39.3320   22.4830   33.7540 P   0  0  1  0  0  0  0  0  0  0  0  0
   39.0900   23.5900   32.4920 O   0  0  0  0  0  0  0  0  0  0  0  0
   39.4910   24.4570   32.7670 H   0  0  0  0  0  0  0  0  0  0  0  0
   37.7750   21.9240   34.2020 O   0  0  0  0  0  0  0  0  0  0  0  0
   36.9170   21.3090   33.2950 C   0  0  0  0  0  0  0  0  0  0  0  0
   35.7730   20.5860   33.6230 C   0  0  0  0  0  0  0  0  0  0  0  0
   35.0300   20.0370   32.5790 C   0  0  0  0  0  0  0  0  0  0  0  0
   35.4430   20.2250   31.2990 N   0  0  0  0  0  0  0  0  0  0  0  0
   36.5610   20.9340   31.0230 C   0  0  0  0  0  0  0  0  0  0  0  0
   37.3040   21.4800   32.0230 N   0  0  0  0  0  0  0  0  0  0  0  0
   34.1500   19.4840   32.8810 H   0  0  0  0  0  0  0  0  0  0  0  0
   36.8410   21.0500   29.9770 H   0  0  0  0  0  0  0  0  0  0  0  0
   35.4950   20.4930   35.0040 N   0  0  0  0  0  0  0  0  0  0  0  0
   36.1720   20.1300   35.7190 H   0  0  0  0  0  0  0  0  0  0  0  0
   34.6080   20.7580   35.5150 H   0  0  0  0  0  0  0  0  0  0  0  0
   40.0860   23.2200   35.0710 O   0  0  0  0  0  0  0  0  0  0  0  0
   39.7300   22.9820   37.3680 C   0  0  0  0  0  0  0  0  0  0  0  0
   39.3490   23.6150   36.1800 C   0  0  0  0  0  0  0  0  0  0  0  0
   38.3160   24.5380   36.2270 C   0  0  0  0  0  0  0  0  0  0  0  0
   38.0730   24.9890   35.2740 H   0  0  0  0  0  0  0  0  0  0  0  0
   37.6930   24.8100   37.4220 C   0  0  0  0  0  0  0  0  0  0  0  0
   36.8880   25.5410   37.4080 H   0  0  0  0  0  0  0  0  0  0  0  0
   38.0960   24.1680   38.5590 C   0  0  0  0  0  3  0  0  0  0  0  0
   39.1150   23.2420   38.5810 C   0  0  0  0  0  3  0  0  0  0  0  0
   41.6490   21.2240   37.4600 N   0  0  0  0  0  0  0  0  0  0  0  0
   40.7990   22.0050   37.4100 C   0  0  0  0  0  0  0  0  0  0  0  0
  2  1  2  6  0  0  0
  2  5  1  0  0  0  0
  2 17  1  0  0  0  0
  3  4  1  0  0  0  0
  3  2  1  0  0  0  0
  6  7  1  0  0  0  0
  6  5  1  0  0  0  0
  7 14  1  0  0  0  0
  8 12  1  0  0  0  0
  8  7  2  0  0  0  0
  9  8  1  0  0  0  0
 10  9  2  0  0  0  0
 10 11  1  0  0  0  0
 11  6  2  0  0  0  0
 13 10  1  0  0  0  0
 14 16  1  0  0  0  0
 14 15  1  0  0  0  0
 17 19  1  0  0  0  0
 18 27  1  0  0  0  0
 18 25  1  0  0  0  0
 19 20  1  0  0  0  0
 19 18  2  0  0  0  0
 20 22  2  0  0  0  0
 21 20  1  0  0  0  0
 22 24  1  0  0  0  0
 23 22  1  0  0  0  0
 24 25  2  0  0  0  0
 27 26  3  0  0  0  0
M  END
>  <minimizedAffinity>
-5.01037455

$$$$

 OpenBabel03272504183D

 27 28  0  0  0  0  0  0  0  0999 V2000
   36.8040   26.9050   35.0870 O   0  0  0  0  0  0  0  0  0  0  0  0
   38.0390   26.0500   34.8900 P   0  0  1  0  0  0  0  0  0  0  0  0
   39.4240   26.8630   35.4360 O   0  0  0  0  0  0  0  0  0  0  0  0
   40.0100   27.0260   34.6490 H   0  0  0  0  0  0  0  0  0  0  0  0
   37.9620   24.5900   35.7840 O   0  0  0  0  0  0  0  0  0  0  0  0
   39.1040   23.9230   36.2180 C   0  0  0  0  0  0  0  0  0  0  0  0
   39.1920   23.1160   37.3500 C   0  0  0  0  0  0  0  0  0  0  0  0
   40.4220   22.5240   37.6310 C   0  0  0  0  0  0  0  0  0  0  0  0
   41.4750   22.7530   36.8040 N   0  0  0  0  0  0  0  0  0  0  0  0
   41.3480   23.5430   35.7140 C   0  0  0  0  0  0  0  0  0  0  0  0
   40.1570   24.1330   35.4160 N   0  0  0  0  0  0  0  0  0  0  0  0
   40.4440   21.9070   38.5200 H   0  0  0  0  0  0  0  0  0  0  0  0
   42.2270   23.6890   35.0890 H   0  0  0  0  0  0  0  0  0  0  0  0
   37.9980   22.9890   38.0930 N   0  0  0  0  0  0  0  0  0  0  0  0
   37.4490   23.8010   38.4680 H   0  0  0  0  0  0  0  0  0  0  0  0
   37.4920   22.1060   38.3780 H   0  0  0  0  0  0  0  0  0  0  0  0
   38.1400   25.7160   33.2400 O   0  0  0  0  0  0  0  0  0  0  0  0
   36.3210   25.1980   31.8680 C   0  0  0  0  0  0  0  0  0  0  0  0
   37.3620   24.7170   32.6700 C   0  0  0  0  0  0  0  0  0  0  0  0
   37.5090   23.3450   32.8070 C   0  0  0  0  0  0  0  0  0  0  0  0
   38.3330   23.0430   33.4390 H   0  0  0  0  0  0  0  0  0  0  0  0
   36.6410   22.4960   32.1640 C   0  0  0  0  0  0  0  0  0  0  0  0
   36.7960   21.4280   32.3030 H   0  0  0  0  0  0  0  0  0  0  0  0
   35.6370   23.0070   31.3910 C   0  0  0  0  0  3  0  0  0  0  0  0
   35.4370   24.3580   31.2130 C   0  0  0  0  0  3  0  0  0  0  0  0
   35.9100   27.7460   31.5270 N   0  0  0  0  0  0  0  0  0  0  0  0
   36.0960   26.6150   31.6700 C   0  0  0  0  0  0  0  0  0  0  0  0
  2  1  2  1  0  0  0
  2  3  1  0  0  0  0
  2  5  1  0  0  0  0
  4  3  1  0  0  0  0
  5  6  1  0  0  0  0
  6  7  1  0  0  0  0
  7  8  2  0  0  0  0
  7 14  1  0  0  0  0
  8 12  1  0  0  0  0
  9  8  1  0  0  0  0
 10  9  2  0  0  0  0
 11 10  1  0  0  0  0
 11  6  2  0  0  0  0
 13 10  1  0  0  0  0
 14 16  1  0  0  0  0
 14 15  1  0  0  0  0
 17  2  1  0  0  0  0
 18 19  1  0  0  0  0
 19 20  2  0  0  0  0
 19 17  1  0  0  0  0
 20 21  1  0  0  0  0
 22 23  1  0  0  0  0
 22 20  1  0  0  0  0
 24 22  2  0  0  0  0
 25 24  1  0  0  0  0
 25 18  2  0  0  0  0
 26 27  3  0  0  0  0
 27 18  1  0  0  0  0
M  END
>  <minimizedAffinity>
-5.00580931

$$$$

 OpenBabel03272504183D

 27 28  0  0  0  0  0  0  0  0999 V2000
   36.8220   26.8760   35.0190 O   0  0  0  0  0  0  0  0  0  0  0  0
   38.0880   26.0460   34.9580 P   0  0  1  0  0  0  0  0  0  0  0  0
   39.4200   26.9430   35.5050 O   0  0  0  0  0  0  0  0  0  0  0  0
   40.0430   27.0590   34.7390 H   0  0  0  0  0  0  0  0  0  0  0  0
   38.0010   24.6620   35.9650 O   0  0  0  0  0  0  0  0  0  0  0  0
   39.1320   23.9390   36.3340 C   0  0  0  0  0  0  0  0  0  0  0  0
   39.2280   23.0880   37.4320 C   0  0  0  0  0  0  0  0  0  0  0  0
   40.4450   22.4430   37.6500 C   0  0  0  0  0  0  0  0  0  0  0  0
   41.4770   22.6670   36.7950 N   0  0  0  0  0  0  0  0  0  0  0  0
   41.3430   23.5010   35.7400 C   0  0  0  0  0  0  0  0  0  0  0  0
   40.1650   24.1430   35.5050 N   0  0  0  0  0  0  0  0  0  0  0  0
   40.4730   21.7930   38.5140 H   0  0  0  0  0  0  0  0  0  0  0  0
   42.2060   23.6400   35.0910 H   0  0  0  0  0  0  0  0  0  0  0  0
   38.0560   22.9750   38.2110 N   0  0  0  0  0  0  0  0  0  0  0  0
   37.5490   23.7910   38.6340 H   0  0  0  0  0  0  0  0  0  0  0  0
   37.5280   22.1000   38.4810 H   0  0  0  0  0  0  0  0  0  0  0  0
   38.2870   25.5820   33.3490 O   0  0  0  0  0  0  0  0  0  0  0  0
   36.8130   24.1230   32.2730 C   0  0  0  0  0  0  0  0  0  0  0  0
   37.1900   25.4500   32.5070 C   0  0  0  0  0  0  0  0  0  0  0  0
   36.4580   26.4600   31.9030 C   0  0  0  0  0  0  0  0  0  0  0  0
   36.8030   27.4600   32.1270 H   0  0  0  0  0  0  0  0  0  0  0  0
   35.3920   26.1450   31.0940 C   0  0  0  0  0  0  0  0  0  0  0  0
   34.8500   26.9710   30.6420 H   0  0  0  0  0  0  0  0  0  0  0  0
   35.0580   24.8360   30.8900 C   0  0  0  0  0  3  0  0  0  0  0  0
   35.7430   23.7860   31.4620 C   0  0  0  0  0  3  0  0  0  0  0  0
   38.0890   22.1250   33.3500 N   0  0  0  0  0  0  0  0  0  0  0  0
   37.5210   23.0060   32.8640 C   0  0  0  0  0  0  0  0  0  0  0  0
  2  1  2  1  0  0  0
  2  3  1  0  0  0  0
  2  5  1  0  0  0  0
  4  3  1  0  0  0  0
  5  6  1  0  0  0  0
  6  7  1  0  0  0  0
  7  8  2  0  0  0  0
  7 14  1  0  0  0  0
  8 12  1  0  0  0  0
  9  8  1  0  0  0  0
 10  9  2  0  0  0  0
 11 10  1  0  0  0  0
 11  6  2  0  0  0  0
 13 10  1  0  0  0  0
 14 16  1  0  0  0  0
 14 15  1  0  0  0  0
 17  2  1  0  0  0  0
 18 19  1  0  0  0  0
 18 27  1  0  0  0  0
 19 17  1  0  0  0  0
 20 21  1  0  0  0  0
 20 19  2  0  0  0  0
 22 20  1  0  0  0  0
 23 22  1  0  0  0  0
 24 22  2  0  0  0  0
 24 25  1  0  0  0  0
 25 18  2  0  0  0  0
 27 26  3  0  0  0  0
M  END
>  <minimizedAffinity>
-4.97330809

$$$$

 OpenBabel03272504183D

 27 28  0  0  0  0  0  0  0  0999 V2000
   39.6980   27.1530   33.5280 O   0  0  0  0  0  0  0  0  0  0  0  0
   38.7320   26.6710   34.5910 P   0  0  1  0  0  0  0  0  0  0  0  0
   38.9140   27.5710   36.0170 O   0  0  0  0  0  0  0  0  0  0  0  0
   39.2370   26.9540   36.7260 H   0  0  0  0  0  0  0  0  0  0  0  0
   37.0980   26.8630   34.1120 O   0  0  0  0  0  0  0  0  0  0  0  0
   36.6030   28.0690   33.6240 C   0  0  0  0  0  0  0  0  0  0  0  0
   36.6310   28.4780   32.2920 C   0  0  0  0  0  0  0  0  0  0  0  0
   36.0870   29.7230   31.9840 C   0  0  0  0  0  0  0  0  0  0  0  0
   35.5580   30.4820   32.9790 N   0  0  0  0  0  0  0  0  0  0  0  0
   35.5500   30.0490   34.2590 C   0  0  0  0  0  0  0  0  0  0  0  0
   36.0750   28.8360   34.5880 N   0  0  0  0  0  0  0  0  0  0  0  0
   36.1310   29.9990   30.9390 H   0  0  0  0  0  0  0  0  0  0  0  0
   35.1120   30.7020   35.0120 H   0  0  0  0  0  0  0  0  0  0  0  0
   37.2190   27.5610   31.3940 N   0  0  0  0  0  0  0  0  0  0  0  0
   38.1850   27.1670   31.5020 H   0  0  0  0  0  0  0  0  0  0  0  0
   36.8050   27.1460   30.5140 H   0  0  0  0  0  0  0  0  0  0  0  0
   39.0730   25.0400   34.8530 O   0  0  0  0  0  0  0  0  0  0  0  0
   39.8960   23.5440   36.4490 C   0  0  0  0  0  0  0  0  0  0  0  0
   38.9070   24.4750   36.1110 C   0  0  0  0  0  0  0  0  0  0  0  0
   37.9010   24.7310   37.0300 C   0  0  0  0  0  0  0  0  0  0  0  0
   37.1720   25.4600   36.7060 H   0  0  0  0  0  0  0  0  0  0  0  0
   37.8940   24.0750   38.2380 C   0  0  0  0  0  0  0  0  0  0  0  0
   37.0840   24.3090   38.9260 H   0  0  0  0  0  0  0  0  0  0  0  0
   38.8780   23.1730   38.5280 C   0  0  0  0  0  3  0  0  0  0  0  0
   39.9040   22.8740   37.6600 C   0  0  0  0  0  3  0  0  0  0  0  0
   41.8600   22.9620   34.8420 N   0  0  0  0  0  0  0  0  0  0  0  0
   40.9830   23.2170   35.5490 C   0  0  0  0  0  0  0  0  0  0  0  0
  2  1  2  6  0  0  0
  2 17  1  0  0  0  0
  2  3  1  0  0  0  0
  3  4  1  0  0  0  0
  5  2  1  0  0  0  0
  6  5  1  0  0  0  0
  6 11  1  0  0  0  0
  7  6  2  0  0  0  0
  8  7  1  0  0  0  0
  8  9  2  0  0  0  0
  9 10  1  0  0  0  0
 10 11  2  0  0  0  0
 10 13  1  0  0  0  0
 12  8  1  0  0  0  0
 14 15  1  0  0  0  0
 14  7  1  0  0  0  0
 16 14  1  0  0  0  0
 17 19  1  0  0  0  0
 18 25  1  0  0  0  0
 19 18  2  0  0  0  0
 19 20  1  0  0  0  0
 20 22  2  0  0  0  0
 21 20  1  0  0  0  0
 22 24  1  0  0  0  0
 22 23  1  0  0  0  0
 25 24  2  0  0  0  0
 26 27  3  0  0  0  0
 27 18  1  0  0  0  0
M  END
>  <minimizedAffinity>
-4.89334059

$$$$

 OpenBabel03272504183D

 27 28  0  0  0  0  0  0  0  0999 V2000
   40.3300   26.7850   35.2800 O   0  0  0  0  0  0  0  0  0  0  0  0
   38.8750   26.7990   34.8590 P   0  0  1  0  0  0  0  0  0  0  0  0
   38.0040   27.9450   35.7560 O   0  0  0  0  0  0  0  0  0  0  0  0
   37.3330   27.4560   36.3030 H   0  0  0  0  0  0  0  0  0  0  0  0
   38.6830   27.2380   33.2130 O   0  0  0  0  0  0  0  0  0  0  0  0
   37.6540   26.7310   32.4240 C   0  0  0  0  0  0  0  0  0  0  0  0
   37.6510   25.4880   31.7950 C   0  0  0  0  0  0  0  0  0  0  0  0
   36.5300   25.1450   31.0420 C   0  0  0  0  0  0  0  0  0  0  0  0
   35.4970   26.0230   30.9500 N   0  0  0  0  0  0  0  0  0  0  0  0
   35.5390   27.2200   31.5770 C   0  0  0  0  0  0  0  0  0  0  0  0
   36.6220   27.5800   32.3190 N   0  0  0  0  0  0  0  0  0  0  0  0
   36.5720   24.1720   30.5710 H   0  0  0  0  0  0  0  0  0  0  0  0
   34.6810   27.8800   31.4650 H   0  0  0  0  0  0  0  0  0  0  0  0
   38.8090   24.7070   32.0010 N   0  0  0  0  0  0  0  0  0  0  0  0
   39.7840   25.0330   31.7940 H   0  0  0  0  0  0  0  0  0  0  0  0
   38.8770   23.7200   32.3740 H   0  0  0  0  0  0  0  0  0  0  0  0
   38.2790   25.2430   35.1180 O   0  0  0  0  0  0  0  0  0  0  0  0
   39.4190   23.5640   36.2750 C   0  0  0  0  0  0  0  0  0  0  0  0
   38.4810   24.5990   36.3330 C   0  0  0  0  0  0  0  0  0  0  0  0
   37.8710   24.8710   37.5480 C   0  0  0  0  0  0  0  0  0  0  0  0
   37.1580   25.6830   37.5210 H   0  0  0  0  0  0  0  0  0  0  0  0
   38.1950   24.1270   38.6580 C   0  0  0  0  0  0  0  0  0  0  0  0
   37.6900   24.3770   39.5880 H   0  0  0  0  0  0  0  0  0  0  0  0
   39.1170   23.1230   38.5580 C   0  0  0  0  0  3  0  0  0  0  0  0
   39.7580   22.8040   37.3820 C   0  0  0  0  0  3  0  0  0  0  0  0
   40.6510   22.9490   34.0650 N   0  0  0  0  0  0  0  0  0  0  0  0
   40.1030   23.2130   35.0470 C   0  0  0  0  0  0  0  0  0  0  0  0
  2 17  1  0  0  0  0
  2  1  2  1  0  0  0
  2  3  1  0  0  0  0
  3  4  1  0  0  0  0
  5  2  1  0  0  0  0
  6  5  1  0  0  0  0
  7 14  1  0  0  0  0
  7  6  2  0  0  0  0
  8  7  1  0  0  0  0
  9  8  2  0  0  0  0
  9 10  1  0  0  0  0
 10 11  2  0  0  0  0
 11  6  1  0  0  0  0
 12  8  1  0  0  0  0
 13 10  1  0  0  0  0
 14 16  1  0  0  0  0
 15 14  1  0  0  0  0
 17 19  1  0  0  0  0
 18 19  2  0  0  0  0
 18 25  1  0  0  0  0
 19 20  1  0  0  0  0
 20 22  2  0  0  0  0
 21 20  1  0  0  0  0
 22 23  1  0  0  0  0
 24 22  1  0  0  0  0
 25 24  2  0  0  0  0
 26 27  3  0  0  0  0
 27 18  1  0  0  0  0
M  END
>  <minimizedAffinity>
-4.73618937

$$$$

 OpenBabel03272504183D

 27 28  0  0  0  0  0  0  0  0999 V2000
   39.6560   26.0920   35.2680 O   0  0  0  0  0  0  0  0  0  0  0  0
   38.3650   25.5180   34.7210 P   0  0  1  0  0  0  0  0  0  0  0  0
   37.0520   26.5200   35.1100 O   0  0  0  0  0  0  0  0  0  0  0  0
   36.4500   26.0110   35.7150 H   0  0  0  0  0  0  0  0  0  0  0  0
   38.3830   25.4000   33.0110 O   0  0  0  0  0  0  0  0  0  0  0  0
   37.2250   25.1860   32.2690 C   0  0  0  0  0  0  0  0  0  0  0  0
   36.6850   23.9420   31.9500 C   0  0  0  0  0  0  0  0  0  0  0  0
   35.5140   23.9170   31.1950 C   0  0  0  0  0  0  0  0  0  0  0  0
   34.9510   25.0890   30.8030 N   0  0  0  0  0  0  0  0  0  0  0  0
   35.5080   26.2770   31.1340 C   0  0  0  0  0  0  0  0  0  0  0  0
   36.6510   26.3290   31.8710 N   0  0  0  0  0  0  0  0  0  0  0  0
   35.1310   22.9300   30.9710 H   0  0  0  0  0  0  0  0  0  0  0  0
   35.0100   27.1820   30.7900 H   0  0  0  0  0  0  0  0  0  0  0  0
   37.4030   22.8300   32.4420 N   0  0  0  0  0  0  0  0  0  0  0  0
   38.4220   22.6580   32.2590 H   0  0  0  0  0  0  0  0  0  0  0  0
   37.0510   22.0330   33.0410 H   0  0  0  0  0  0  0  0  0  0  0  0
   38.1840   23.9880   35.4070 O   0  0  0  0  0  0  0  0  0  0  0  0
   39.4580   23.1090   37.1570 C   0  0  0  0  0  0  0  0  0  0  0  0
   39.2950   23.2390   35.7740 C   0  0  0  0  0  0  0  0  0  0  0  0
   40.2210   22.6310   34.9410 C   0  0  0  0  0  0  0  0  0  0  0  0
   40.0350   22.7720   33.8850 H   0  0  0  0  0  0  0  0  0  0  0  0
   41.2680   21.9230   35.4810 C   0  0  0  0  0  0  0  0  0  0  0  0
   41.9680   21.4640   34.7870 H   0  0  0  0  0  0  0  0  0  0  0  0
   41.3910   21.8200   36.8380 C   0  0  0  0  0  3  0  0  0  0  0  0
   40.5050   22.4000   37.7200 C   0  0  0  0  0  3  0  0  0  0  0  0
   37.8050   24.2060   38.8440 N   0  0  0  0  0  0  0  0  0  0  0  0
   38.5380   23.7110   38.1000 C   0  0  0  0  0  0  0  0  0  0  0  0
  2  3  1  0  0  0  0
  2  1  2  1  0  0  0
  2 17  1  0  0  0  0
  3  4  1  0  0  0  0
  5  2  1  0  0  0  0
  6  5  1  0  0  0  0
  7  6  1  0  0  0  0
  7 14  1  0  0  0  0
  8  7  2  0  0  0  0
  9 10  2  0  0  0  0
  9  8  1  0  0  0  0
 10 11  1  0  0  0  0
 11  6  2  0  0  0  0
 12  8  1  0  0  0  0
 13 10  1  0  0  0  0
 14 16  1  0  0  0  0
 15 14  1  0  0  0  0
 17 19  1  0  0  0  0
 18 25  1  0  0  0  0
 18 27  1  0  0  0  0
 19 18  2  0  0  0  0
 20 22  2  0  0  0  0
 20 19  1  0  0  0  0
 21 20  1  0  0  0  0
 22 24  1  0  0  0  0
 23 22  1  0  0  0  0
 24 25  2  0  0  0  0
 27 26  3  0  0  0  0
M  END
>  <minimizedAffinity>
-4.70710135

$$$$

 OpenBabel03272504183D

 27 28  0  0  0  0  0  0  0  0999 V2000
   40.2410   27.1960   34.1100 O   0  0  0  0  0  0  0  0  0  0  0  0
   39.0840   26.6880   34.9460 P   0  0  1  0  0  0  0  0  0  0  0  0
   38.7610   27.7500   36.2280 O   0  0  0  0  0  0  0  0  0  0  0  0
   38.9470   27.2670   37.0770 H   0  0  0  0  0  0  0  0  0  0  0  0
   37.6330   26.5800   34.0410 O   0  0  0  0  0  0  0  0  0  0  0  0
   36.9750   27.7060   33.5530 C   0  0  0  0  0  0  0  0  0  0  0  0
   36.9630   28.1270   32.2260 C   0  0  0  0  0  0  0  0  0  0  0  0
   36.2480   29.2830   31.9180 C   0  0  0  0  0  0  0  0  0  0  0  0
   35.5980   29.9460   32.9090 N   0  0  0  0  0  0  0  0  0  0  0  0
   35.6340   29.5030   34.1860 C   0  0  0  0  0  0  0  0  0  0  0  0
   36.3250   28.3770   34.5140 N   0  0  0  0  0  0  0  0  0  0  0  0
   36.2670   29.5720   30.8760 H   0  0  0  0  0  0  0  0  0  0  0  0
   35.0940   30.0780   34.9370 H   0  0  0  0  0  0  0  0  0  0  0  0
   37.6920   27.3150   31.3300 N   0  0  0  0  0  0  0  0  0  0  0  0
   38.7040   27.0650   31.4510 H   0  0  0  0  0  0  0  0  0  0  0  0
   37.3570   26.8530   30.4400 H   0  0  0  0  0  0  0  0  0  0  0  0
   39.5280   25.1640   35.5160 O   0  0  0  0  0  0  0  0  0  0  0  0
   38.1770   23.3110   35.9610 C   0  0  0  0  0  0  0  0  0  0  0  0
   38.9280   24.0170   35.0150 C   0  0  0  0  0  0  0  0  0  0  0  0
   38.9920   23.5210   33.7220 C   0  0  0  0  0  0  0  0  0  0  0  0
   39.5880   24.1150   33.0430 H   0  0  0  0  0  0  0  0  0  0  0  0
   38.3290   22.3620   33.3990 C   0  0  0  0  0  0  0  0  0  0  0  0
   38.4100   22.0120   32.3720 H   0  0  0  0  0  0  0  0  0  0  0  0
   37.6080   21.7020   34.3530 C   0  0  0  0  0  3  0  0  0  0  0  0
   37.5030   22.1420   35.6550 C   0  0  0  0  0  3  0  0  0  0  0  0
   37.9700   24.1020   38.4340 N   0  0  0  0  0  0  0  0  0  0  0  0
   38.0560   23.7570   37.3340 C   0  0  0  0  0  0  0  0  0  0  0  0
  2  1  2  6  0  0  0
  2 17  1  0  0  0  0
  2  3  1  0  0  0  0
  3  4  1  0  0  0  0
  5  2  1  0  0  0  0
  6  5  1  0  0  0  0
  6 11  1  0  0  0  0
  7  6  2  0  0  0  0
  8  7  1  0  0  0  0
  8  9  2  0  0  0  0
  9 10  1  0  0  0  0
 10 11  2  0  0  0  0
 10 13  1  0  0  0  0
 12  8  1  0  0  0  0
 14 15  1  0  0  0  0
 14  7  1  0  0  0  0
 16 14  1  0  0  0  0
 18 27  1  0  0  0  0
 19 17  1  0  0  0  0
 19 18  2  0  0  0  0
 20 19  1  0  0  0  0
 21 20  1  0  0  0  0
 22 20  2  0  0  0  0
 22 24  1  0  0  0  0
 23 22  1  0  0  0  0
 24 25  2  0  0  0  0
 25 18  1  0  0  0  0
 27 26  3  0  0  0  0
M  END
>  <minimizedAffinity>
-4.64933157

$$$$

 OpenBabel03272504183D

 27 28  0  0  0  0  0  0  0  0999 V2000
   35.0800   26.4630   31.3370 O   0  0  0  0  0  0  0  0  0  0  0  0
   36.3020   27.3520   31.2310 P   0  0  1  0  0  0  0  0  0  0  0  0
   36.5520   27.8380   29.6250 O   0  0  0  0  0  0  0  0  0  0  0  0
   37.4140   27.4470   29.3200 H   0  0  0  0  0  0  0  0  0  0  0  0
   36.1350   28.7920   32.1440 O   0  0  0  0  0  0  0  0  0  0  0  0
   34.9950   29.5890   32.0730 C   0  0  0  0  0  0  0  0  0  0  0  0
   34.7900   30.6320   31.1730 C   0  0  0  0  0  0  0  0  0  0  0  0
   33.5830   31.3250   31.2460 C   0  0  0  0  0  0  0  0  0  0  0  0
   32.6640   30.9620   32.1790 N   0  0  0  0  0  0  0  0  0  0  0  0
   32.9020   29.9420   33.0340 C   0  0  0  0  0  0  0  0  0  0  0  0
   34.0730   29.2490   32.9840 N   0  0  0  0  0  0  0  0  0  0  0  0
   33.4680   32.1270   30.5290 H   0  0  0  0  0  0  0  0  0  0  0  0
   32.1270   29.6990   33.7590 H   0  0  0  0  0  0  0  0  0  0  0  0
   35.8530   30.8690   30.2740 N   0  0  0  0  0  0  0  0  0  0  0  0
   36.8430   31.0500   30.5670 H   0  0  0  0  0  0  0  0  0  0  0  0
   35.8240   30.9030   29.2180 H   0  0  0  0  0  0  0  0  0  0  0  0
   37.6090   26.4510   31.8030 O   0  0  0  0  0  0  0  0  0  0  0  0
   39.3900   26.9330   33.2370 C   0  0  0  0  0  0  0  0  0  0  0  0
   38.0410   26.5820   33.1160 C   0  0  0  0  0  0  0  0  0  0  0  0
   37.2980   26.4110   34.2740 C   0  0  0  0  0  0  0  0  0  0  0  0
   36.2640   26.1410   34.1090 H   0  0  0  0  0  0  0  0  0  0  0  0
   37.8930   26.5840   35.5010 C   0  0  0  0  0  0  0  0  0  0  0  0
   37.2700   26.4380   36.3810 H   0  0  0  0  0  0  0  0  0  0  0  0
   39.2130   26.9250   35.5750 C   0  0  0  0  0  3  0  0  0  0  0  0
   40.0060   27.1120   34.4630 C   0  0  0  0  0  3  0  0  0  0  0  0
   40.9130   27.3080   31.1580 N   0  0  0  0  0  0  0  0  0  0  0  0
   40.2380   27.1330   32.0790 C   0  0  0  0  0  0  0  0  0  0  0  0
  2  1  2  1  0  0  0
  2 17  1  0  0  0  0
  2  5  1  0  0  0  0
  3  2  1  0  0  0  0
  4  3  1  0  0  0  0
  6  5  1  0  0  0  0
  6 11  1  0  0  0  0
  7  8  1  0  0  0  0
  7  6  2  0  0  0  0
  8  9  2  0  0  0  0
  9 10  1  0  0  0  0
 10 13  1  0  0  0  0
 11 10  2  0  0  0  0
 12  8  1  0  0  0  0
 14 15  1  0  0  0  0
 14  7  1  0  0  0  0
 16 14  1  0  0  0  0
 17 19  1  0  0  0  0
 18 25  1  0  0  0  0
 19 18  2  0  0  0  0
 19 20  1  0  0  0  0
 20 22  2  0  0  0  0
 21 20  1  0  0  0  0
 22 24  1  0  0  0  0
 22 23  1  0  0  0  0
 25 24  2  0  0  0  0
 26 27  3  0  0  0  0
 27 18  1  0  0  0  0
M  END
>  <minimizedAffinity>
-4.62034082

$$$$

 OpenBabel03272504183D

 27 28  0  0  0  0  0  0  0  0999 V2000
   37.3630   22.0610   34.0100 O   0  0  0  0  0  0  0  0  0  0  0  0
   38.6290   22.5880   33.3690 P   0  0  1  0  0  0  0  0  0  0  0  0
   39.7650   21.3440   33.1740 O   0  0  0  0  0  0  0  0  0  0  0  0
   40.5500   21.5560   33.7460 H   0  0  0  0  0  0  0  0  0  0  0  0
   38.3440   23.2220   31.8020 O   0  0  0  0  0  0  0  0  0  0  0  0
   37.3430   24.1550   31.5490 C   0  0  0  0  0  0  0  0  0  0  0  0
   36.0100   23.8600   31.2710 C   0  0  0  0  0  0  0  0  0  0  0  0
   35.1420   24.9260   31.0430 C   0  0  0  0  0  0  0  0  0  0  0  0
   35.6210   26.1960   31.0980 N   0  0  0  0  0  0  0  0  0  0  0  0
   36.9230   26.4410   31.3710 C   0  0  0  0  0  0  0  0  0  0  0  0
   37.7910   25.4170   31.5980 N   0  0  0  0  0  0  0  0  0  0  0  0
   34.1180   24.6490   30.8300 H   0  0  0  0  0  0  0  0  0  0  0  0
   37.2470   27.4790   31.4010 H   0  0  0  0  0  0  0  0  0  0  0  0
   35.6900   22.4840   31.2550 N   0  0  0  0  0  0  0  0  0  0  0  0
   36.1800   21.7720   30.6610 H   0  0  0  0  0  0  0  0  0  0  0  0
   34.9440   21.9770   31.8060 H   0  0  0  0  0  0  0  0  0  0  0  0
   39.2210   23.7970   34.3850 O   0  0  0  0  0  0  0  0  0  0  0  0
   38.2910   24.6360   36.3580 C   0  0  0  0  0  0  0  0  0  0  0  0
   39.1190   23.6770   35.7650 C   0  0  0  0  0  0  0  0  0  0  0  0
   39.7300   22.7370   36.5820 C   0  0  0  0  0  0  0  0  0  0  0  0
   40.3550   22.0260   36.0590 H   0  0  0  0  0  0  0  0  0  0  0  0
   39.5140   22.7660   37.9390 C   0  0  0  0  0  0  0  0  0  0  0  0
   40.0150   22.0090   38.5380 H   0  0  0  0  0  0  0  0  0  0  0  0
   38.6980   23.7200   38.4780 C   0  0  0  0  0  3  0  0  0  0  0  0
   38.0620   24.6810   37.7220 C   0  0  0  0  0  3  0  0  0  0  0  0
   37.0670   26.4710   34.9740 N   0  0  0  0  0  0  0  0  0  0  0  0
   37.6140   25.6540   35.5800 C   0  0  0  0  0  0  0  0  0  0  0  0
  2  1  2  1  0  0  0
  2 17  1  0  0  0  0
  3  2  1  0  0  0  0
  3  4  1  0  0  0  0
  5  2  1  0  0  0  0
  6 11  1  0  0  0  0
  6  5  1  0  0  0  0
  7  6  2  0  0  0  0
  8  9  2  0  0  0  0
  8  7  1  0  0  0  0
  9 10  1  0  0  0  0
 10 13  1  0  0  0  0
 10 11  2  0  0  0  0
 12  8  1  0  0  0  0
 14  7  1  0  0  0  0
 14 16  1  0  0  0  0
 15 14  1  0  0  0  0
 17 19  1  0  0  0  0
 18 25  1  0  0  0  0
 19 18  2  0  0  0  0
 19 20  1  0  0  0  0
 20 22  2  0  0  0  0
 21 20  1  0  0  0  0
 22 24  1  0  0  0  0
 22 23  1  0  0  0  0
 25 24  2  0  0  0  0
 26 27  3  0  0  0  0
 27 18  1  0  0  0  0
M  END
>  <minimizedAffinity>
-4.61023092

$$$$
