
 OpenBabel03272504393D

 43 45  0  0  0  0  0  0  0  0999 V2000
   34.7470   29.4020   48.7820 C   0  0  0  0  0  0  0  0  0  0  0  0
   34.0890   30.2320   49.1790 H   0  0  0  0  0  0  0  0  0  0  0  0
   35.6460   29.4540   49.4300 H   0  0  0  0  0  0  0  0  0  0  0  0
   37.4890   30.4650   48.4900 Cl  0  0  0  0  0  0  0  0  0  0  0  0
   36.3630   30.2940   47.1430 C   0  0  0  0  0  0  0  0  0  0  0  0
   36.7520   30.6660   45.8930 C   0  0  0  0  0  0  0  0  0  0  0  0
   35.8850   30.5360   44.8430 C   0  0  0  0  0  0  0  0  0  0  0  0
   34.6250   30.0230   45.0820 C   0  0  0  0  0  0  0  0  0  0  0  0
   34.2730   29.6550   46.3810 C   0  0  0  0  0  0  0  0  0  0  0  0
   35.1200   29.7770   47.4380 C   0  0  0  0  0  0  0  0  0  0  0  0
   36.2380   30.8480   43.8540 H   0  0  0  0  0  0  0  0  0  0  0  0
   34.0180   29.9630   44.1810 H   0  0  0  0  0  0  0  0  0  0  0  0
   33.3050   29.3010   46.3520 H   0  0  0  0  0  0  0  0  0  0  0  0
   39.7550   32.8180   45.9900 C   0  0  0  0  0  0  0  0  0  0  0  0
   40.6310   32.0990   45.1250 C   0  0  0  0  0  0  0  0  0  0  0  0
   40.1510   30.9180   44.5540 C   0  0  0  0  0  0  0  0  0  0  0  0
   38.8920   30.5110   44.8420 N   0  0  0  0  0  0  0  0  0  0  0  0
   38.0870   31.2070   45.6600 C   0  0  0  0  0  0  0  0  0  0  0  0
   38.5210   32.3500   46.2260 N   0  0  0  0  0  0  0  0  0  0  0  0
   40.1000   33.7320   46.4430 H   0  0  0  0  0  0  0  0  0  0  0  0
   41.6180   32.5060   44.9590 H   0  0  0  0  0  0  0  0  0  0  0  0
   41.0410   30.2360   43.7080 N   0  0  0  0  0  0  0  0  0  0  0  0
   41.0190   30.2130   42.6490 H   0  0  0  0  0  0  0  0  0  0  0  0
   41.6970   29.7810   44.3720 H   0  0  0  0  0  0  0  0  0  0  0  0
   34.0680   28.1330   49.0080 C   0  0  0  0  0  0  0  0  0  0  0  0
   34.1220   27.4900   48.0950 H   0  0  0  0  0  0  0  0  0  0  0  0
   34.5550   27.5190   49.8020 H   0  0  0  0  0  0  0  0  0  0  0  0
   32.7590   28.3100   49.3960 O   0  0  0  0  0  0  0  0  0  0  0  0
   32.4310   26.5360   47.4850 O   0  0  0  0  0  0  0  0  0  0  0  0
   31.7050   27.5370   48.3070 P   0  0  2  0  0  0  0  0  0  0  0  0
   31.0430   28.8140   47.3760 O   0  0  0  0  0  0  0  0  0  0  0  0
   31.0510   29.6670   47.8580 H   0  0  0  0  0  0  0  0  0  0  0  0
   30.4520   26.8070   49.1070 O   0  0  0  0  0  0  0  0  0  0  0  0
   28.0370   27.0210   48.3540 C   0  0  0  0  0  0  0  0  0  0  0  0
   29.1500   27.1390   49.1440 C   0  0  0  0  0  0  0  0  0  0  0  0
   28.9350   27.7930   50.3710 C   0  0  0  0  0  0  0  0  0  0  0  0
   29.6350   28.0260   51.1910 H   0  0  0  0  0  0  0  0  0  0  0  0
   27.6770   28.2840   50.7540 C   0  0  0  0  0  0  0  0  0  0  0  0
   27.4210   28.7910   51.6640 H   0  0  0  0  0  0  0  0  0  0  0  0
   26.6000   28.1280   49.9060 C   0  0  0  0  0  3  0  0  0  0  0  0
   26.7910   27.4910   48.6980 C   0  0  0  0  0  3  0  0  0  0  0  0
   28.4140   25.8340   46.1170 N   0  0  0  0  0  0  0  0  0  0  0  0
   28.2560   26.3640   47.1200 C   0  0  0  0  0  0  0  0  0  0  0  0
  1 25  1  0  0  0  0
  1  2  1  0  0  0  0
  1  3  1  0  0  0  0
  5 10  1  0  0  0  0
  5  4  1  0  0  0  0
  6  5  2  0  0  0  0
  7  8  2  0  0  0  0
  7  6  1  0  0  0  0
  8  9  1  0  0  0  0
  9 10  2  0  0  0  0
 10  1  1  0  0  0  0
 11  7  1  0  0  0  0
 12  8  1  0  0  0  0
 13  9  1  0  0  0  0
 14 19  1  0  0  0  0
 14 20  1  0  0  0  0
 15 14  2  0  0  0  0
 16 17  2  0  0  0  0
 16 15  1  0  0  0  0
 17 18  1  0  0  0  0
 18  6  1  0  0  0  0
 18 19  2  0  0  0  0
 21 15  1  0  0  0  0
 22 24  1  0  0  0  0
 22 16  1  0  0  0  0
 23 22  1  0  0  0  0
 25 28  1  0  0  0  0
 25 27  1  0  0  0  0
 26 25  1  0  0  0  0
 30 29  2  6  0  0  0
 30 33  1  0  0  0  0
 30 28  1  0  0  0  0
 31 32  1  0  0  0  0
 31 30  1  0  0  0  0
 33 35  1  0  0  0  0
 34 41  2  0  0  0  0
 34 35  1  0  0  0  0
 35 36  2  0  0  0  0
 36 38  1  0  0  0  0
 36 37  1  0  0  0  0
 38 39  1  0  0  0  0
 40 38  2  0  0  0  0
 41 40  1  0  0  0  0
 42 43  3  0  0  0  0
 43 34  1  0  0  0  0
M  END
>  <minimizedAffinity>
-6.55778646

>  <minimizedRMSD>
1.55313361

$$$$
