
 OpenBabel03272510313D

 29 31  0  0  0  0  0  0  0  0999 V2000
   36.1280   21.4250   32.8400 C   0  0  0  0  0  0  0  0  0  0  0  0
   35.5410   22.2210   31.8560 C   0  0  0  0  0  0  0  0  0  0  0  0
   36.1450   23.4300   31.6340 C   0  0  0  0  0  0  0  0  0  0  0  0
   37.2610   23.8070   32.3510 N   0  0  0  0  0  0  0  0  0  0  0  0
   37.8000   22.9820   33.3100 C   0  0  0  0  0  0  0  0  0  0  0  0
   37.2050   21.7830   33.5380 N   0  0  0  0  0  0  0  0  0  0  0  0
   34.6660   21.8790   31.3220 H   0  0  0  0  0  0  0  0  0  0  0  0
   35.7530   24.1080   30.8870 H   0  0  0  0  0  0  0  0  0  0  0  0
   35.5320   20.0670   33.1140 C   0  0  0  0  0  0  0  0  0  0  0  0
   34.7410   19.3430   32.1510 C   0  0  0  0  0  0  0  0  0  0  0  0
   36.2020   18.9650   32.2850 C   0  0  0  0  0  0  0  0  0  0  0  0
   35.4170   19.8500   34.2020 H   0  0  0  0  0  0  0  0  0  0  0  0
   34.5500   19.8650   31.1650 H   0  0  0  0  0  0  0  0  0  0  0  0
   33.9990   18.6150   32.4900 H   0  0  0  0  0  0  0  0  0  0  0  0
   36.9320   19.2490   31.5240 H   0  0  0  0  0  0  0  0  0  0  0  0
   36.4590   18.0780   32.8670 H   0  0  0  0  0  0  0  0  0  0  0  0
   38.9840   23.3580   34.0610 C   0  0  0  0  0  0  0  0  0  0  0  0
   39.8810   23.2830   33.4220 H   0  0  0  0  0  0  0  0  0  0  0  0
   39.1130   22.6370   34.9180 H   0  0  0  0  0  0  0  0  0  0  0  0
   38.3270   24.9530   35.8740 C   0  0  0  0  0  0  0  0  0  0  0  0
   38.9020   24.7400   34.6430 C   0  0  0  0  0  0  0  0  0  0  0  0
   39.4230   25.8310   33.9400 C   0  0  0  0  0  0  0  0  0  0  0  0
   39.8850   25.7050   32.9650 H   0  0  0  0  0  0  0  0  0  0  0  0
   39.3480   27.0890   34.4960 C   0  0  0  0  0  0  0  0  0  0  0  0
   39.7320   27.9950   34.0090 H   0  0  0  0  0  0  0  0  0  0  0  0
   38.7730   27.3050   35.7270 C   0  0  0  0  0  3  0  0  0  0  0  0
   38.2550   26.2360   36.4310 C   0  0  0  0  0  3  0  0  0  0  0  0
   37.3140   23.0290   37.3030 N   0  0  0  0  0  0  0  0  0  0  0  0
   37.7570   23.8830   36.6630 C   0  0  0  0  0  0  0  0  0  0  0  0
  1  9  1  0  0  0  0
  1  6  1  0  0  0  0
  2  1  2  0  0  0  0
  3  2  1  0  0  0  0
  3  4  2  0  0  0  0
  4  5  1  0  0  0  0
  5  6  2  0  0  0  0
  5 17  1  0  0  0  0
  7  2  1  0  0  0  0
  8  3  1  0  0  0  0
  9 12  1  0  0  0  0
 10 11  1  0  0  0  0
 10 14  1  0  0  0  0
 10  9  1  0  0  0  0
 11 16  1  0  0  0  0
 11  9  1  0  0  0  0
 13 10  1  0  0  0  0
 15 11  1  0  0  0  0
 17 21  1  0  0  0  0
 17 19  1  0  0  0  0
 18 17  1  0  0  0  0
 20 27  1  0  0  0  0
 20 29  1  0  0  0  0
 21 20  2  0  0  0  0
 22 24  2  0  0  0  0
 22 21  1  0  0  0  0
 23 22  1  0  0  0  0
 24 26  1  0  0  0  0
 25 24  1  0  0  0  0
 26 27  2  0  0  0  0
 29 28  3  0  0  0  0
M  END
>  <minimizedAffinity>
-4.96904373

$$$$

 OpenBabel03272510313D

 29 31  0  0  0  0  0  0  0  0999 V2000
   36.4950   21.0500   33.6530 C   0  0  0  0  0  0  0  0  0  0  0  0
   35.5600   20.6450   34.6050 C   0  0  0  0  0  0  0  0  0  0  0  0
   35.8270   21.0210   35.8950 C   0  0  0  0  0  0  0  0  0  0  0  0
   36.9550   21.7540   36.2010 N   0  0  0  0  0  0  0  0  0  0  0  0
   37.8440   22.1290   35.2210 C   0  0  0  0  0  0  0  0  0  0  0  0
   37.5870   21.7580   33.9400 N   0  0  0  0  0  0  0  0  0  0  0  0
   34.6910   20.0720   34.3140 H   0  0  0  0  0  0  0  0  0  0  0  0
   35.1510   20.7470   36.6960 H   0  0  0  0  0  0  0  0  0  0  0  0
   36.2460   20.6970   32.2080 C   0  0  0  0  0  0  0  0  0  0  0  0
   34.9280   20.5120   31.6560 C   0  0  0  0  0  0  0  0  0  0  0  0
   35.5990   21.8530   31.4350 C   0  0  0  0  0  0  0  0  0  0  0  0
   37.1260   20.2210   31.7150 H   0  0  0  0  0  0  0  0  0  0  0  0
   34.0630   20.6100   32.3790 H   0  0  0  0  0  0  0  0  0  0  0  0
   34.7860   19.8690   30.7830 H   0  0  0  0  0  0  0  0  0  0  0  0
   35.2810   22.7410   31.9850 H   0  0  0  0  0  0  0  0  0  0  0  0
   36.0680   22.0470   30.4690 H   0  0  0  0  0  0  0  0  0  0  0  0
   39.0260   22.9140   35.5250 C   0  0  0  0  0  0  0  0  0  0  0  0
   39.8850   22.5550   34.9320 H   0  0  0  0  0  0  0  0  0  0  0  0
   39.2800   22.7780   36.6140 H   0  0  0  0  0  0  0  0  0  0  0  0
   38.4220   25.2160   36.3010 C   0  0  0  0  0  0  0  0  0  0  0  0
   38.8380   24.3860   35.2860 C   0  0  0  0  0  0  0  0  0  0  0  0
   39.0950   24.9310   34.0250 C   0  0  0  0  0  0  0  0  0  0  0  0
   39.4240   24.3100   33.1970 H   0  0  0  0  0  0  0  0  0  0  0  0
   38.9260   26.2850   33.8300 C   0  0  0  0  0  0  0  0  0  0  0  0
   39.1060   26.7890   32.8710 H   0  0  0  0  0  0  0  0  0  0  0  0
   38.5100   27.1180   34.8420 C   0  0  0  0  0  3  0  0  0  0  0  0
   38.2540   26.5900   36.0920 C   0  0  0  0  0  3  0  0  0  0  0  0
   37.8820   24.3570   38.6980 N   0  0  0  0  0  0  0  0  0  0  0  0
   38.1270   24.7320   37.6310 C   0  0  0  0  0  0  0  0  0  0  0  0
  1  6  2  0  0  0  0
  1  2  1  0  0  0  0
  2  3  2  0  0  0  0
  3  4  1  0  0  0  0
  3  8  1  0  0  0  0
  5 17  1  0  0  0  0
  5  4  2  0  0  0  0
  6  5  1  0  0  0  0
  7  2  1  0  0  0  0
  9  1  1  0  0  0  0
 10  9  1  0  0  0  0
 10 13  1  0  0  0  0
 11 10  1  0  0  0  0
 11 15  1  0  0  0  0
 11  9  1  0  0  0  0
 12  9  1  0  0  0  0
 14 10  1  0  0  0  0
 16 11  1  0  0  0  0
 17 19  1  0  0  0  0
 18 17  1  0  0  0  0
 20 29  1  0  0  0  0
 21 17  1  0  0  0  0
 21 20  2  0  0  0  0
 22 21  1  0  0  0  0
 23 22  1  0  0  0  0
 24 22  2  0  0  0  0
 24 26  1  0  0  0  0
 25 24  1  0  0  0  0
 26 27  2  0  0  0  0
 27 20  1  0  0  0  0
 29 28  3  0  0  0  0
M  END
>  <minimizedAffinity>
-4.87478018

$$$$

 OpenBabel03272510313D

 29 31  0  0  0  0  0  0  0  0999 V2000
   38.0840   24.9240   35.4540 C   0  0  0  0  0  0  0  0  0  0  0  0
   38.0880   24.5190   36.7890 C   0  0  0  0  0  0  0  0  0  0  0  0
   38.2220   23.1720   36.9980 C   0  0  0  0  0  0  0  0  0  0  0  0
   38.3440   22.2980   35.9370 N   0  0  0  0  0  0  0  0  0  0  0  0
   38.3360   22.7540   34.6400 C   0  0  0  0  0  0  0  0  0  0  0  0
   38.2020   24.0870   34.4250 N   0  0  0  0  0  0  0  0  0  0  0  0
   37.9890   25.2430   37.5840 H   0  0  0  0  0  0  0  0  0  0  0  0
   38.2340   22.7730   38.0050 H   0  0  0  0  0  0  0  0  0  0  0  0
   37.9730   26.3980   35.1540 C   0  0  0  0  0  0  0  0  0  0  0  0
   38.4180   27.4260   36.0610 C   0  0  0  0  0  0  0  0  0  0  0  0
   39.3430   27.0450   34.9220 C   0  0  0  0  0  0  0  0  0  0  0  0
   37.1940   26.6320   34.3900 H   0  0  0  0  0  0  0  0  0  0  0  0
   38.8360   27.0730   37.0520 H   0  0  0  0  0  0  0  0  0  0  0  0
   37.9620   28.4190   36.0290 H   0  0  0  0  0  0  0  0  0  0  0  0
   40.2420   26.4510   35.0980 H   0  0  0  0  0  0  0  0  0  0  0  0
   39.3770   27.6900   34.0420 H   0  0  0  0  0  0  0  0  0  0  0  0
   38.4810   21.8490   33.5140 C   0  0  0  0  0  0  0  0  0  0  0  0
   39.0560   20.9560   33.8140 H   0  0  0  0  0  0  0  0  0  0  0  0
   39.0590   22.3730   32.7010 H   0  0  0  0  0  0  0  0  0  0  0  0
   36.7360   21.9210   31.7200 C   0  0  0  0  0  0  0  0  0  0  0  0
   37.1670   21.4190   32.9260 C   0  0  0  0  0  0  0  0  0  0  0  0
   36.3670   20.4900   33.5980 C   0  0  0  0  0  0  0  0  0  0  0  0
   36.6700   20.0690   34.5520 H   0  0  0  0  0  0  0  0  0  0  0  0
   35.1700   20.1010   33.0360 C   0  0  0  0  0  0  0  0  0  0  0  0
   34.4860   19.3780   33.5000 H   0  0  0  0  0  0  0  0  0  0  0  0
   34.7370   20.6020   31.8310 C   0  0  0  0  0  3  0  0  0  0  0  0
   35.5180   21.5200   31.1580 C   0  0  0  0  0  3  0  0  0  0  0  0
   38.0940   23.6730   30.3550 N   0  0  0  0  0  0  0  0  0  0  0  0
   37.4980   22.8920   30.9650 C   0  0  0  0  0  0  0  0  0  0  0  0
  1  2  1  0  0  0  0
  2  3  2  0  0  0  0
  2  7  1  0  0  0  0
  3  8  1  0  0  0  0
  4  3  1  0  0  0  0
  5  4  2  0  0  0  0
  6  5  1  0  0  0  0
  6  1  2  0  0  0  0
  9  1  1  0  0  0  0
  9 10  1  0  0  0  0
 10 13  1  0  0  0  0
 11 15  1  0  0  0  0
 11  9  1  0  0  0  0
 11 10  1  0  0  0  0
 12  9  1  0  0  0  0
 14 10  1  0  0  0  0
 16 11  1  0  0  0  0
 17 18  1  0  0  0  0
 17  5  1  0  0  0  0
 19 17  1  0  0  0  0
 20 21  1  0  0  0  0
 21 17  1  0  0  0  0
 21 22  2  0  0  0  0
 22 23  1  0  0  0  0
 24 25  1  0  0  0  0
 24 22  1  0  0  0  0
 26 24  2  0  0  0  0
 27 20  2  0  0  0  0
 27 26  1  0  0  0  0
 28 29  3  0  0  0  0
 29 20  1  0  0  0  0
M  END
>  <minimizedAffinity>
-4.84707594

$$$$

 OpenBabel03272510313D

 29 31  0  0  0  0  0  0  0  0999 V2000
   36.3500   26.6050   32.2350 C   0  0  0  0  0  0  0  0  0  0  0  0
   35.8470   27.8990   32.1070 C   0  0  0  0  0  0  0  0  0  0  0  0
   36.0060   28.7070   33.2020 C   0  0  0  0  0  0  0  0  0  0  0  0
   36.6280   28.2420   34.3420 N   0  0  0  0  0  0  0  0  0  0  0  0
   37.1070   26.9550   34.4130 C   0  0  0  0  0  0  0  0  0  0  0  0
   36.9510   26.1480   33.3330 N   0  0  0  0  0  0  0  0  0  0  0  0
   35.3680   28.2150   31.1920 H   0  0  0  0  0  0  0  0  0  0  0  0
   35.6440   29.7280   33.1860 H   0  0  0  0  0  0  0  0  0  0  0  0
   36.2360   25.6720   31.0550 C   0  0  0  0  0  0  0  0  0  0  0  0
   35.9090   24.2750   31.1800 C   0  0  0  0  0  0  0  0  0  0  0  0
   34.7900   25.2270   30.8070 C   0  0  0  0  0  0  0  0  0  0  0  0
   36.7900   26.0340   30.1560 H   0  0  0  0  0  0  0  0  0  0  0  0
   35.7690   23.8850   32.2340 H   0  0  0  0  0  0  0  0  0  0  0  0
   36.2410   23.5650   30.4180 H   0  0  0  0  0  0  0  0  0  0  0  0
   34.0220   25.5080   31.5310 H   0  0  0  0  0  0  0  0  0  0  0  0
   34.4880   25.2910   29.7610 H   0  0  0  0  0  0  0  0  0  0  0  0
   37.7790   26.4570   35.5990 C   0  0  0  0  0  0  0  0  0  0  0  0
   37.1840   25.6530   36.0650 H   0  0  0  0  0  0  0  0  0  0  0  0
   37.8650   27.2970   36.3450 H   0  0  0  0  0  0  0  0  0  0  0  0
   39.4940   24.6340   35.5440 C   0  0  0  0  0  0  0  0  0  0  0  0
   39.1680   25.9520   35.3260 C   0  0  0  0  0  0  0  0  0  0  0  0
   40.1470   26.8210   34.8340 C   0  0  0  0  0  0  0  0  0  0  0  0
   39.9300   27.8690   34.6490 H   0  0  0  0  0  0  0  0  0  0  0  0
   41.4110   26.3350   34.5800 C   0  0  0  0  0  0  0  0  0  0  0  0
   42.2340   26.9520   34.1950 H   0  0  0  0  0  0  0  0  0  0  0  0
   41.7400   25.0180   34.7980 C   0  0  0  0  0  3  0  0  0  0  0  0
   40.7820   24.1510   35.2830 C   0  0  0  0  0  3  0  0  0  0  0  0
   37.7950   22.8920   36.4690 N   0  0  0  0  0  0  0  0  0  0  0  0
   38.5440   23.6720   36.0590 C   0  0  0  0  0  0  0  0  0  0  0  0
  1  6  1  0  0  0  0
  2  1  2  0  0  0  0
  2  3  1  0  0  0  0
  3  4  2  0  0  0  0
  4  5  1  0  0  0  0
  5 17  1  0  0  0  0
  6  5  2  0  0  0  0
  7  2  1  0  0  0  0
  8  3  1  0  0  0  0
  9 10  1  0  0  0  0
  9  1  1  0  0  0  0
 10 13  1  0  0  0  0
 11  9  1  0  0  0  0
 11 10  1  0  0  0  0
 11 15  1  0  0  0  0
 12  9  1  0  0  0  0
 14 10  1  0  0  0  0
 16 11  1  0  0  0  0
 17 18  1  0  0  0  0
 17 19  1  0  0  0  0
 20 29  1  0  0  0  0
 21 20  1  0  0  0  0
 21 17  1  0  0  0  0
 22 21  2  0  0  0  0
 23 22  1  0  0  0  0
 24 26  2  0  0  0  0
 24 22  1  0  0  0  0
 25 24  1  0  0  0  0
 26 27  1  0  0  0  0
 27 20  2  0  0  0  0
 29 28  3  0  0  0  0
M  END
>  <minimizedAffinity>
-4.83739376

$$$$

 OpenBabel03272510313D

 29 31  0  0  0  0  0  0  0  0999 V2000
   37.1930   27.4150   33.9610 C   0  0  0  0  0  0  0  0  0  0  0  0
   37.9480   27.3350   32.7900 C   0  0  0  0  0  0  0  0  0  0  0  0
   37.5450   28.1540   31.7690 C   0  0  0  0  0  0  0  0  0  0  0  0
   36.4590   28.9920   31.9180 N   0  0  0  0  0  0  0  0  0  0  0  0
   35.7510   29.0310   33.0960 C   0  0  0  0  0  0  0  0  0  0  0  0
   36.1440   28.2210   34.1130 N   0  0  0  0  0  0  0  0  0  0  0  0
   38.7900   26.6620   32.7240 H   0  0  0  0  0  0  0  0  0  0  0  0
   38.0760   28.1540   30.8250 H   0  0  0  0  0  0  0  0  0  0  0  0
   37.6020   26.5640   35.1360 C   0  0  0  0  0  0  0  0  0  0  0  0
   38.9390   26.0580   35.3180 C   0  0  0  0  0  0  0  0  0  0  0  0
   38.5510   27.3070   36.0850 C   0  0  0  0  0  0  0  0  0  0  0  0
   36.7420   26.0470   35.6230 H   0  0  0  0  0  0  0  0  0  0  0  0
   39.6840   26.3030   34.5020 H   0  0  0  0  0  0  0  0  0  0  0  0
   39.1040   25.1440   35.8960 H   0  0  0  0  0  0  0  0  0  0  0  0
   38.9250   28.2890   35.7900 H   0  0  0  0  0  0  0  0  0  0  0  0
   38.2800   27.2080   37.1370 H   0  0  0  0  0  0  0  0  0  0  0  0
   34.6180   29.9200   33.2740 C   0  0  0  0  0  0  0  0  0  0  0  0
   33.6760   29.3450   33.2660 H   0  0  0  0  0  0  0  0  0  0  0  0
   34.5850   30.6420   32.4100 H   0  0  0  0  0  0  0  0  0  0  0  0
   33.6810   30.6840   35.4660 C   0  0  0  0  0  0  0  0  0  0  0  0
   34.6930   30.7320   34.5370 C   0  0  0  0  0  0  0  0  0  0  0  0
   35.8060   31.5410   34.7860 C   0  0  0  0  0  0  0  0  0  0  0  0
   36.6260   31.6060   34.0770 H   0  0  0  0  0  0  0  0  0  0  0  0
   35.8600   32.2690   35.9550 C   0  0  0  0  0  0  0  0  0  0  0  0
   36.6970   32.9270   36.2240 H   0  0  0  0  0  0  0  0  0  0  0  0
   34.8490   32.2240   36.8860 C   0  0  0  0  0  3  0  0  0  0  0  0
   33.7460   31.4280   36.6510 C   0  0  0  0  0  3  0  0  0  0  0  0
   31.5330   29.2510   35.1370 N   0  0  0  0  0  0  0  0  0  0  0  0
   32.4920   29.8810   35.2820 C   0  0  0  0  0  0  0  0  0  0  0  0
  1  6  1  0  0  0  0
  1  9  1  0  0  0  0
  2  1  2  0  0  0  0
  3  4  2  0  0  0  0
  3  2  1  0  0  0  0
  4  5  1  0  0  0  0
  5 17  1  0  0  0  0
  5  6  2  0  0  0  0
  7  2  1  0  0  0  0
  8  3  1  0  0  0  0
  9 10  1  0  0  0  0
  9 12  1  0  0  0  0
  9 11  1  0  0  0  0
 10 14  1  0  0  0  0
 10 11  1  0  0  0  0
 11 16  1  0  0  0  0
 13 10  1  0  0  0  0
 15 11  1  0  0  0  0
 17 21  1  0  0  0  0
 18 17  1  0  0  0  0
 19 17  1  0  0  0  0
 20 27  1  0  0  0  0
 21 22  1  0  0  0  0
 21 20  2  0  0  0  0
 22 24  2  0  0  0  0
 23 22  1  0  0  0  0
 24 25  1  0  0  0  0
 24 26  1  0  0  0  0
 27 26  2  0  0  0  0
 28 29  3  0  0  0  0
 29 20  1  0  0  0  0
M  END
>  <minimizedAffinity>
-4.812675

$$$$

 OpenBabel03272510313D

 29 31  0  0  0  0  0  0  0  0999 V2000
   38.0880   24.5970   36.4670 C   0  0  0  0  0  0  0  0  0  0  0  0
   37.9490   25.9050   36.0040 C   0  0  0  0  0  0  0  0  0  0  0  0
   38.0290   26.0650   34.6450 C   0  0  0  0  0  0  0  0  0  0  0  0
   38.2330   24.9820   33.8160 N   0  0  0  0  0  0  0  0  0  0  0  0
   38.3610   23.7110   34.3260 C   0  0  0  0  0  0  0  0  0  0  0  0
   38.2850   23.5460   35.6720 N   0  0  0  0  0  0  0  0  0  0  0  0
   37.7900   26.7200   36.6960 H   0  0  0  0  0  0  0  0  0  0  0  0
   37.9320   27.0480   34.2030 H   0  0  0  0  0  0  0  0  0  0  0  0
   37.9770   24.3460   37.9500 C   0  0  0  0  0  0  0  0  0  0  0  0
   37.6380   23.0630   38.5120 C   0  0  0  0  0  0  0  0  0  0  0  0
   39.1040   23.4450   38.4680 C   0  0  0  0  0  0  0  0  0  0  0  0
   37.7940   25.2760   38.5390 H   0  0  0  0  0  0  0  0  0  0  0  0
   37.4170   22.2350   37.7730 H   0  0  0  0  0  0  0  0  0  0  0  0
   37.1620   23.0050   39.4940 H   0  0  0  0  0  0  0  0  0  0  0  0
   39.7860   22.9880   37.7480 H   0  0  0  0  0  0  0  0  0  0  0  0
   39.5730   23.8160   39.3820 H   0  0  0  0  0  0  0  0  0  0  0  0
   38.5590   22.5600   33.4650 C   0  0  0  0  0  0  0  0  0  0  0  0
   39.1350   21.7820   33.9940 H   0  0  0  0  0  0  0  0  0  0  0  0
   39.1590   22.8800   32.5670 H   0  0  0  0  0  0  0  0  0  0  0  0
   36.8000   22.2770   31.7050 C   0  0  0  0  0  0  0  0  0  0  0  0
   37.2720   21.9700   32.9600 C   0  0  0  0  0  0  0  0  0  0  0  0
   36.5430   21.0870   33.7620 C   0  0  0  0  0  0  0  0  0  0  0  0
   36.8810   20.8180   34.7580 H   0  0  0  0  0  0  0  0  0  0  0  0
   35.3710   20.5480   33.2760 C   0  0  0  0  0  0  0  0  0  0  0  0
   34.7410   19.8490   33.8420 H   0  0  0  0  0  0  0  0  0  0  0  0
   34.8960   20.8540   32.0220 C   0  0  0  0  0  3  0  0  0  0  0  0
   35.6090   21.7240   31.2210 C   0  0  0  0  0  3  0  0  0  0  0  0
   38.0480   23.9200   30.1180 N   0  0  0  0  0  0  0  0  0  0  0  0
   37.4890   23.1880   30.8160 C   0  0  0  0  0  0  0  0  0  0  0  0
  1  9  1  0  0  0  0
  2  1  1  0  0  0  0
  2  7  1  0  0  0  0
  3  2  2  0  0  0  0
  4  5  2  0  0  0  0
  4  3  1  0  0  0  0
  5  6  1  0  0  0  0
  6  1  2  0  0  0  0
  8  3  1  0  0  0  0
  9 11  1  0  0  0  0
  9 10  1  0  0  0  0
  9 12  1  0  0  0  0
 10 14  1  0  0  0  0
 11 10  1  0  0  0  0
 11 16  1  0  0  0  0
 13 10  1  0  0  0  0
 15 11  1  0  0  0  0
 17 18  1  0  0  0  0
 17  5  1  0  0  0  0
 19 17  1  0  0  0  0
 20 21  1  0  0  0  0
 21 17  1  0  0  0  0
 21 22  2  0  0  0  0
 22 23  1  0  0  0  0
 24 22  1  0  0  0  0
 24 25  1  0  0  0  0
 26 24  2  0  0  0  0
 27 20  2  0  0  0  0
 27 26  1  0  0  0  0
 28 29  3  0  0  0  0
 29 20  1  0  0  0  0
M  END
>  <minimizedAffinity>
-4.81023836

$$$$

 OpenBabel03272510313D

 29 31  0  0  0  0  0  0  0  0999 V2000
   36.7790   21.5540   33.3960 C   0  0  0  0  0  0  0  0  0  0  0  0
   35.7370   20.9170   34.0690 C   0  0  0  0  0  0  0  0  0  0  0  0
   35.8260   20.9190   35.4360 C   0  0  0  0  0  0  0  0  0  0  0  0
   36.8900   21.5210   36.0760 N   0  0  0  0  0  0  0  0  0  0  0  0
   37.8900   22.1370   35.3620 C   0  0  0  0  0  0  0  0  0  0  0  0
   37.8090   22.1380   34.0070 N   0  0  0  0  0  0  0  0  0  0  0  0
   34.9260   20.4600   33.5210 H   0  0  0  0  0  0  0  0  0  0  0  0
   35.0590   20.4450   36.0350 H   0  0  0  0  0  0  0  0  0  0  0  0
   36.7260   21.6170   31.8900 C   0  0  0  0  0  0  0  0  0  0  0  0
   35.5100   21.4550   31.1340 C   0  0  0  0  0  0  0  0  0  0  0  0
   35.9940   22.8680   31.3900 C   0  0  0  0  0  0  0  0  0  0  0  0
   37.7110   21.4110   31.4080 H   0  0  0  0  0  0  0  0  0  0  0  0
   34.5740   21.2370   31.7310 H   0  0  0  0  0  0  0  0  0  0  0  0
   35.5510   21.0870   30.1050 H   0  0  0  0  0  0  0  0  0  0  0  0
   35.4970   23.5130   32.1170 H   0  0  0  0  0  0  0  0  0  0  0  0
   36.5210   23.3900   30.5890 H   0  0  0  0  0  0  0  0  0  0  0  0
   39.0060   22.7900   36.0220 C   0  0  0  0  0  0  0  0  0  0  0  0
   39.9590   22.3360   35.6980 H   0  0  0  0  0  0  0  0  0  0  0  0
   38.9110   22.6320   37.1330 H   0  0  0  0  0  0  0  0  0  0  0  0
   40.0930   24.8380   35.0800 C   0  0  0  0  0  0  0  0  0  0  0  0
   39.0540   24.2720   35.7800 C   0  0  0  0  0  0  0  0  0  0  0  0
   38.0300   25.0950   36.2580 C   0  0  0  0  0  0  0  0  0  0  0  0
   37.1910   24.6870   36.8150 H   0  0  0  0  0  0  0  0  0  0  0  0
   38.0870   26.4510   36.0160 C   0  0  0  0  0  0  0  0  0  0  0  0
   37.3240   27.1630   36.3570 H   0  0  0  0  0  0  0  0  0  0  0  0
   39.1250   27.0200   35.3170 C   0  0  0  0  0  3  0  0  0  0  0  0
   40.1420   26.2170   34.8390 C   0  0  0  0  0  3  0  0  0  0  0  0
   42.0860   23.4520   34.1400 N   0  0  0  0  0  0  0  0  0  0  0  0
   41.1960   24.0610   34.5590 C   0  0  0  0  0  0  0  0  0  0  0  0
  1  6  2  0  0  0  0
  1  2  1  0  0  0  0
  2  3  2  0  0  0  0
  3  8  1  0  0  0  0
  3  4  1  0  0  0  0
  5 17  1  0  0  0  0
  5  4  2  0  0  0  0
  6  5  1  0  0  0  0
  7  2  1  0  0  0  0
  9  1  1  0  0  0  0
 10 11  1  0  0  0  0
 10 13  1  0  0  0  0
 10  9  1  0  0  0  0
 11  9  1  0  0  0  0
 11 15  1  0  0  0  0
 12  9  1  0  0  0  0
 14 10  1  0  0  0  0
 16 11  1  0  0  0  0
 17 19  1  0  0  0  0
 18 17  1  0  0  0  0
 20 21  1  0  0  0  0
 21 17  1  0  0  0  0
 21 22  2  0  0  0  0
 22 23  1  0  0  0  0
 24 22  1  0  0  0  0
 24 25  1  0  0  0  0
 26 24  2  0  0  0  0
 27 20  2  0  0  0  0
 27 26  1  0  0  0  0
 28 29  3  0  0  0  0
 29 20  1  0  0  0  0
M  END
>  <minimizedAffinity>
-4.77452898

$$$$

 OpenBabel03272510313D

 29 31  0  0  0  0  0  0  0  0999 V2000
   36.4180   21.7920   32.8970 C   0  0  0  0  0  0  0  0  0  0  0  0
   35.7600   22.5670   31.9410 C   0  0  0  0  0  0  0  0  0  0  0  0
   36.2720   23.8220   31.7440 C   0  0  0  0  0  0  0  0  0  0  0  0
   37.3670   24.2620   32.4580 N   0  0  0  0  0  0  0  0  0  0  0  0
   37.9780   23.4540   33.3880 C   0  0  0  0  0  0  0  0  0  0  0  0
   37.4760   22.2090   33.5900 N   0  0  0  0  0  0  0  0  0  0  0  0
   34.9060   22.1750   31.4090 H   0  0  0  0  0  0  0  0  0  0  0  0
   35.8200   24.4890   31.0210 H   0  0  0  0  0  0  0  0  0  0  0  0
   35.9260   20.3870   33.1400 C   0  0  0  0  0  0  0  0  0  0  0  0
   35.0370   19.6940   32.2440 C   0  0  0  0  0  0  0  0  0  0  0  0
   36.5170   19.3870   32.1400 C   0  0  0  0  0  0  0  0  0  0  0  0
   35.9800   20.0840   34.2130 H   0  0  0  0  0  0  0  0  0  0  0  0
   34.6830   20.2750   31.3390 H   0  0  0  0  0  0  0  0  0  0  0  0
   34.3840   18.9030   32.6230 H   0  0  0  0  0  0  0  0  0  0  0  0
   37.1160   19.7660   31.3090 H   0  0  0  0  0  0  0  0  0  0  0  0
   36.8940   18.4740   32.6060 H   0  0  0  0  0  0  0  0  0  0  0  0
   39.1420   23.8970   34.1340 C   0  0  0  0  0  0  0  0  0  0  0  0
   39.3650   24.9520   33.9010 H   0  0  0  0  0  0  0  0  0  0  0  0
   40.0300   23.2800   33.8180 H   0  0  0  0  0  0  0  0  0  0  0  0
   39.8380   22.9250   36.3340 C   0  0  0  0  0  0  0  0  0  0  0  0
   38.9880   23.7380   35.6210 C   0  0  0  0  0  0  0  0  0  0  0  0
   37.9790   24.4270   36.3000 C   0  0  0  0  0  0  0  0  0  0  0  0
   37.2870   25.0780   35.7740 H   0  0  0  0  0  0  0  0  0  0  0  0
   37.8620   24.2750   37.6650 C   0  0  0  0  0  0  0  0  0  0  0  0
   37.0980   24.7800   38.2700 H   0  0  0  0  0  0  0  0  0  0  0  0
   38.7100   23.4640   38.3810 C   0  0  0  0  0  3  0  0  0  0  0  0
   39.7110   22.7780   37.7200 C   0  0  0  0  0  3  0  0  0  0  0  0
   41.7580   21.5650   35.2210 N   0  0  0  0  0  0  0  0  0  0  0  0
   40.9020   22.1710   35.7070 C   0  0  0  0  0  0  0  0  0  0  0  0
  1  9  1  0  0  0  0
  1  6  1  0  0  0  0
  2  1  2  0  0  0  0
  3  2  1  0  0  0  0
  3  4  2  0  0  0  0
  4  5  1  0  0  0  0
  5  6  2  0  0  0  0
  5 17  1  0  0  0  0
  7  2  1  0  0  0  0
  8  3  1  0  0  0  0
  9 12  1  0  0  0  0
 10 14  1  0  0  0  0
 10  9  1  0  0  0  0
 11 10  1  0  0  0  0
 11 16  1  0  0  0  0
 11  9  1  0  0  0  0
 13 10  1  0  0  0  0
 15 11  1  0  0  0  0
 17 21  1  0  0  0  0
 18 17  1  0  0  0  0
 19 17  1  0  0  0  0
 20 27  1  0  0  0  0
 21 22  1  0  0  0  0
 21 20  2  0  0  0  0
 22 24  2  0  0  0  0
 23 22  1  0  0  0  0
 24 25  1  0  0  0  0
 24 26  1  0  0  0  0
 27 26  2  0  0  0  0
 28 29  3  0  0  0  0
 29 20  1  0  0  0  0
M  END
>  <minimizedAffinity>
-4.77228737

$$$$

 OpenBabel03272510313D

 29 31  0  0  0  0  0  0  0  0999 V2000
   39.9420   22.5800   36.9290 C   0  0  0  0  0  0  0  0  0  0  0  0
   39.0820   23.2150   37.8240 C   0  0  0  0  0  0  0  0  0  0  0  0
   37.9910   23.8270   37.2640 C   0  0  0  0  0  0  0  0  0  0  0  0
   37.7850   23.7970   35.9010 N   0  0  0  0  0  0  0  0  0  0  0  0
   38.6660   23.1540   35.0640 C   0  0  0  0  0  0  0  0  0  0  0  0
   39.7500   22.5470   35.6120 N   0  0  0  0  0  0  0  0  0  0  0  0
   39.2890   23.2090   38.8850 H   0  0  0  0  0  0  0  0  0  0  0  0
   37.2740   24.3440   37.8890 H   0  0  0  0  0  0  0  0  0  0  0  0
   41.1460   21.8580   37.4830 C   0  0  0  0  0  0  0  0  0  0  0  0
   41.9810   20.9910   36.6910 C   0  0  0  0  0  0  0  0  0  0  0  0
   42.4600   22.4110   36.9190 C   0  0  0  0  0  0  0  0  0  0  0  0
   41.1110   21.7350   38.5910 H   0  0  0  0  0  0  0  0  0  0  0  0
   41.6690   20.8410   35.6130 H   0  0  0  0  0  0  0  0  0  0  0  0
   42.5450   20.1860   37.1710 H   0  0  0  0  0  0  0  0  0  0  0  0
   42.4180   23.1560   36.1220 H   0  0  0  0  0  0  0  0  0  0  0  0
   43.2210   22.5880   37.6810 H   0  0  0  0  0  0  0  0  0  0  0  0
   38.4530   23.1000   33.6290 C   0  0  0  0  0  0  0  0  0  0  0  0
   39.3410   22.6790   33.1270 H   0  0  0  0  0  0  0  0  0  0  0  0
   38.3070   24.1490   33.2460 H   0  0  0  0  0  0  0  0  0  0  0  0
   36.5440   22.5980   32.0890 C   0  0  0  0  0  0  0  0  0  0  0  0
   37.2390   22.3050   33.2400 C   0  0  0  0  0  0  0  0  0  0  0  0
   36.8050   21.2450   34.0430 C   0  0  0  0  0  0  0  0  0  0  0  0
   37.3260   20.9820   34.9590 H   0  0  0  0  0  0  0  0  0  0  0  0
   35.6950   20.5220   33.6620 C   0  0  0  0  0  0  0  0  0  0  0  0
   35.2920   19.6780   34.2370 H   0  0  0  0  0  0  0  0  0  0  0  0
   34.9990   20.8130   32.5130 C   0  0  0  0  0  3  0  0  0  0  0  0
   35.4180   21.8570   31.7110 C   0  0  0  0  0  3  0  0  0  0  0  0
   37.2120   24.5410   30.4920 N   0  0  0  0  0  0  0  0  0  0  0  0
   36.9200   23.6810   31.2080 C   0  0  0  0  0  0  0  0  0  0  0  0
  1  9  1  0  0  0  0
  1  2  1  0  0  0  0
  2  7  1  0  0  0  0
  3  2  2  0  0  0  0
  3  8  1  0  0  0  0
  4  3  1  0  0  0  0
  5  6  1  0  0  0  0
  5  4  2  0  0  0  0
  6  1  2  0  0  0  0
  9 12  1  0  0  0  0
 10 11  1  0  0  0  0
 10 14  1  0  0  0  0
 10  9  1  0  0  0  0
 11  9  1  0  0  0  0
 11 16  1  0  0  0  0
 13 10  1  0  0  0  0
 15 11  1  0  0  0  0
 17  5  1  0  0  0  0
 18 17  1  0  0  0  0
 19 17  1  0  0  0  0
 20 21  1  0  0  0  0
 21 17  1  0  0  0  0
 21 22  2  0  0  0  0
 22 23  1  0  0  0  0
 24 22  1  0  0  0  0
 24 25  1  0  0  0  0
 26 24  2  0  0  0  0
 27 20  2  0  0  0  0
 27 26  1  0  0  0  0
 28 29  3  0  0  0  0
 29 20  1  0  0  0  0
M  END
>  <minimizedAffinity>
-4.72254992

$$$$
