
 OpenBabel03272501083D

 41 44  0  0  1  0  0  0  0  0999 V2000
   37.7390   31.4710   46.0300 O   0  0  0  0  0  0  0  0  0  0  0  0
   38.1170   31.2720   47.3120 C   0  0  2  0  0  0  0  0  0  0  0  0
   36.9580   31.5510   48.3220 C   0  0  2  0  0  0  0  0  0  0  0  0
   37.7120   31.9180   49.5110 C   0  0  0  0  0  0  0  0  0  0  0  0
   38.8390   32.6220   49.1090 O   0  0  0  0  0  0  0  0  0  0  0  0
   38.9920   32.4710   47.7740 C   0  0  0  0  0  0  0  0  0  0  0  0
   38.6350   30.3450   47.5310 H   0  0  0  0  0  0  0  0  0  0  0  0
   36.4370   32.4280   47.8840 H   0  0  0  0  0  0  0  0  0  0  0  0
   38.0650   31.1120   50.1520 H   0  0  0  0  0  0  0  0  0  0  0  0
   37.0860   32.6110   50.1430 H   0  0  0  0  0  0  0  0  0  0  0  0
   40.0360   32.1790   47.5190 H   0  0  0  0  0  0  0  0  0  0  0  0
   38.6660   33.3820   47.2490 H   0  0  0  0  0  0  0  0  0  0  0  0
   35.2260   28.3980   49.4200 C   0  0  0  0  0  0  0  0  0  0  0  0
   36.1710   29.4610   49.4020 C   0  0  0  0  0  0  0  0  0  0  0  0
   36.0260   30.4550   48.3970 C   0  0  0  0  0  0  0  0  0  0  0  0
   34.9910   30.3490   47.4960 N   0  0  0  0  0  0  0  0  0  0  0  0
   34.1270   29.3300   47.5540 C   0  0  0  0  0  0  0  0  0  0  0  0
   34.2240   28.3570   48.4940 N   0  0  0  0  0  0  0  0  0  0  0  0
   35.3690   27.6680   50.1930 H   0  0  0  0  0  0  0  0  0  0  0  0
   36.9630   29.4900   50.1360 H   0  0  0  0  0  0  0  0  0  0  0  0
   33.3030   29.2150   46.8630 H   0  0  0  0  0  0  0  0  0  0  0  0
   36.6290   32.6800   43.4200 Cl  0  0  0  0  0  0  0  0  0  0  0  0
   37.6810   31.2860   43.5290 C   0  0  0  0  0  0  0  0  0  0  0  0
   38.0340   30.9510   44.8210 C   0  0  0  0  0  0  0  0  0  0  0  0
   38.8690   29.8460   44.9150 C   0  0  0  0  0  0  0  0  0  0  0  0
   39.3140   29.1380   43.8250 C   0  0  0  0  0  0  0  0  0  0  0  0
   38.9140   29.5410   42.5630 C   0  0  0  0  0  0  0  0  0  0  0  0
   38.0790   30.6350   42.3860 C   0  0  0  0  0  0  0  0  0  0  0  0
   39.2500   29.4350   45.8420 H   0  0  0  0  0  0  0  0  0  0  0  0
   39.9650   28.2760   43.8690 H   0  0  0  0  0  0  0  0  0  0  0  0
   39.2260   29.0310   41.6610 H   0  0  0  0  0  0  0  0  0  0  0  0
   36.4220   30.6730   40.5290 C   0  0  0  0  0  0  0  0  0  0  0  0
   37.5990   31.1440   41.1060 C   0  0  0  0  0  0  0  0  0  0  0  0
   38.2860   32.1110   40.4080 C   0  0  0  0  0  0  0  0  0  0  0  0
   39.2060   32.4710   40.8710 H   0  0  0  0  0  0  0  0  0  0  0  0
   37.9060   32.6470   39.1940 C   0  0  0  0  0  0  0  0  0  0  0  0
   38.5070   33.4070   38.7130 H   0  0  0  0  0  0  0  0  0  0  0  0
   36.7400   32.1620   38.6530 C   0  0  0  0  0  3  0  0  0  0  0  0
   36.0190   31.1930   39.3150 C   0  0  0  0  0  3  0  0  0  0  0  0
   35.0960   28.8330   41.8040 N   0  0  0  0  0  0  0  0  0  0  0  0
   35.6860   29.6570   41.2470 C   0  0  0  0  0  0  0  0  0  0  0  0
  1  2  1  0  0  0  0
  2  7  1  1  0  0  0
  2  6  1  0  0  0  0
  2  3  1  0  0  0  0
  3  8  1  6  0  0  0
  3 15  1  0  0  0  0
  3  4  1  0  0  0  0
  4 10  1  0  0  0  0
  4  9  1  0  0  0  0
  5  4  1  0  0  0  0
  6  5  1  0  0  0  0
 11  6  1  0  0  0  0
 12  6  1  0  0  0  0
 13 19  1  0  0  0  0
 14 13  1  0  0  0  0
 14 20  1  0  0  0  0
 15 14  2  0  0  0  0
 16 17  2  0  0  0  0
 16 15  1  0  0  0  0
 17 18  1  0  0  0  0
 18 13  2  0  0  0  0
 21 17  1  0  0  0  0
 22 23  1  0  0  0  0
 23 24  1  0  0  0  0
 24 25  2  0  0  0  0
 24  1  1  0  0  0  0
 25 29  1  0  0  0  0
 26 30  1  0  0  0  0
 26 25  1  0  0  0  0
 27 26  2  0  0  0  0
 28 27  1  0  0  0  0
 28 23  2  0  0  0  0
 31 27  1  0  0  0  0
 32 33  1  0  0  0  0
 32 41  1  0  0  0  0
 33 28  1  0  0  0  0
 34 35  1  0  0  0  0
 34 33  2  0  0  0  0
 36 34  1  0  0  0  0
 37 36  1  0  0  0  0
 38 36  2  0  0  0  0
 38 39  1  0  0  0  0
 39 32  2  0  0  0  0
 41 40  3  0  0  0  0
M  END
>  <minimizedAffinity>
-4.70779657

>  <minimizedRMSD>
3.97941089

$$$$
