
 OpenBabel03272506563D

 21 22  0  0  0  0  0  0  0  0999 V2000
   37.1490   31.4220   44.7660 C   0  0  0  0  0  0  0  0  0  0  0  0
   37.4580   30.0450   44.8500 C   0  0  0  0  0  0  0  0  0  0  0  0
   38.3140   29.6880   45.9020 C   0  0  0  0  0  0  0  0  0  0  0  0
   38.7840   30.6460   46.7540 N   0  0  0  0  0  0  0  0  0  0  0  0
   38.4500   31.9430   46.6170 C   0  0  0  0  0  0  0  0  0  0  0  0
   37.6290   32.3510   45.6240 N   0  0  0  0  0  0  0  0  0  0  0  0
   36.4770   31.6700   43.9330 H   0  0  0  0  0  0  0  0  0  0  0  0
   38.5680   28.6400   45.9910 H   0  0  0  0  0  0  0  0  0  0  0  0
   38.5870   33.0140   48.8690 C   0  0  0  0  0  0  0  0  0  0  0  0
   39.0020   32.8920   47.5750 C   0  0  0  0  0  0  0  0  0  0  0  0
   40.0140   33.7310   47.1580 C   0  0  0  0  0  0  0  0  0  0  0  0
   40.4080   33.6990   46.1340 H   0  0  0  0  0  0  0  0  0  0  0  0
   40.6090   34.6670   47.9810 C   0  0  0  0  0  0  0  0  0  0  0  0
   41.4140   35.3220   47.6180 H   0  0  0  0  0  0  0  0  0  0  0  0
   40.1890   34.7930   49.2920 C   0  0  0  0  0  3  0  0  0  0  0  0
   39.1670   33.9440   49.7100 C   0  0  0  0  0  3  0  0  0  0  0  0
   36.6840   31.4540   49.6710 N   0  0  0  0  0  0  0  0  0  0  0  0
   37.5330   32.1480   49.3150 C   0  0  0  0  0  0  0  0  0  0  0  0
   36.9210   29.1180   43.9180 N   0  0  0  0  0  0  0  0  0  0  0  0
   37.4580   28.6660   43.1720 H   0  0  0  0  0  0  0  0  0  0  0  0
   35.9020   28.8820   44.0060 H   0  0  0  0  0  0  0  0  0  0  0  0
  1  2  2  0  0  0  0
  1  6  1  0  0  0  0
  2  3  1  0  0  0  0
  3  8  1  0  0  0  0
  3  4  2  0  0  0  0
  5  4  1  0  0  0  0
  5 10  1  0  0  0  0
  6  5  2  0  0  0  0
  7  1  1  0  0  0  0
  9 18  1  0  0  0  0
  9 16  1  0  0  0  0
 10  9  2  0  0  0  0
 11 10  1  0  0  0  0
 11 13  2  0  0  0  0
 12 11  1  0  0  0  0
 13 15  1  0  0  0  0
 14 13  1  0  0  0  0
 15 16  2  0  0  0  0
 18 17  3  0  0  0  0
 19 21  1  0  0  0  0
 19  2  1  0  0  0  0
 20 19  1  0  0  0  0
M  END
>  <minimizedAffinity>
-2.26618052

>  <minimizedRMSD>
7.60001564

$$$$
