
 OpenBabel03272509213D

 47 51  0  0  0  0  0  0  0  0999 V2000
   39.9550   31.9630   46.3790 O   0  0  0  0  0  0  0  0  0  0  0  0
   40.1640   30.9920   44.0830 C   0  0  0  0  0  0  0  0  0  0  0  0
   39.5910   31.7630   45.0740 C   0  0  0  0  0  0  0  0  0  0  0  0
   38.4370   32.4960   44.7740 C   0  0  0  0  0  0  0  0  0  0  0  0
   37.8770   32.4450   43.4920 C   0  0  0  0  0  0  0  0  0  0  0  0
   36.8140   33.0050   42.8940 N   0  0  0  0  0  0  0  0  0  0  0  0
   36.7230   32.6140   41.6100 C   0  0  0  0  0  0  0  0  0  0  0  0
   37.7680   31.7740   41.3910 N   0  0  0  0  0  0  0  0  0  0  0  0
   38.4850   31.6600   42.5310 C   0  0  0  0  0  0  0  0  0  0  0  0
   39.6210   30.9360   42.8190 C   0  0  0  0  0  0  0  0  0  0  0  0
   41.0390   30.4790   44.4270 H   0  0  0  0  0  0  0  0  0  0  0  0
   37.8760   33.1410   45.4390 H   0  0  0  0  0  0  0  0  0  0  0  0
   36.1570   33.6450   43.3480 H   0  0  0  0  0  0  0  0  0  0  0  0
   35.9750   32.9060   40.9080 H   0  0  0  0  0  0  0  0  0  0  0  0
   40.2350   28.7200   41.7480 C   0  0  0  0  0  0  0  0  0  0  0  0
   40.2940   30.0960   41.8340 C   0  0  0  0  0  0  0  0  0  0  0  0
   41.0450   30.8320   40.9320 C   0  0  0  0  0  0  0  0  0  0  0  0
   41.1380   31.9290   40.9410 H   0  0  0  0  0  0  0  0  0  0  0  0
   41.7590   30.2050   39.9160 C   0  0  0  0  0  0  0  0  0  0  0  0
   42.3500   30.7900   39.2090 H   0  0  0  0  0  0  0  0  0  0  0  0
   41.6890   28.8110   39.8440 C   0  0  0  0  0  0  0  0  0  0  0  0
   40.9360   28.0810   40.7470 C   0  0  0  0  0  0  0  0  0  0  0  0
   38.7740   27.5120   43.5080 N   0  0  0  0  0  0  0  0  0  0  0  0
   39.4270   28.0580   42.7320 C   0  0  0  0  0  0  0  0  0  0  0  0
   38.1480   31.3760   47.8900 C   0  0  0  0  0  0  0  0  0  0  0  0
   37.3000   31.5830   48.9600 C   0  0  0  0  0  0  0  0  0  0  0  0
   37.5140   32.7920   49.6300 C   0  0  0  0  0  0  0  0  0  0  0  0
   38.5130   33.7000   49.2320 C   0  0  0  0  0  0  0  0  0  0  0  0
   39.3170   33.3820   48.1260 C   0  0  0  0  0  0  0  0  0  0  0  0
   39.1160   32.1880   47.4530 C   0  0  0  0  0  0  0  0  0  0  0  0
   36.8850   33.0130   50.4740 H   0  0  0  0  0  0  0  0  0  0  0  0
   38.6350   34.6210   49.7870 H   0  0  0  0  0  0  0  0  0  0  0  0
   40.0750   34.1140   47.8540 H   0  0  0  0  0  0  0  0  0  0  0  0
   35.1700   30.4520   48.5680 C   0  0  0  0  0  0  0  0  0  0  0  0
   36.2870   30.6650   49.3680 C   0  0  0  0  0  0  0  0  0  0  0  0
   36.3750   29.9510   50.5760 C   0  0  0  0  0  0  0  0  0  0  0  0
   35.3730   29.0970   50.8960 N   0  0  0  0  0  0  0  0  0  0  0  0
   34.2930   28.9210   50.0740 C   0  0  0  0  0  0  0  0  0  0  0  0
   34.2000   29.5940   48.9260 N   0  0  0  0  0  0  0  0  0  0  0  0
   35.0280   30.9590   47.6300 H   0  0  0  0  0  0  0  0  0  0  0  0
   33.6130   28.2060   50.5030 H   0  0  0  0  0  0  0  0  0  0  0  0
   37.5460   30.1380   51.4710 C   0  0  0  0  0  0  0  0  0  0  0  0
   38.0600   31.0650   51.1750 H   0  0  0  0  0  0  0  0  0  0  0  0
   38.2440   29.2990   51.2650 H   0  0  0  0  0  0  0  0  0  0  0  0
   37.2370   30.1010   52.5220 H   0  0  0  0  0  0  0  0  0  0  0  0
   38.0130   30.1940   47.1530 O   0  0  0  0  0  0  0  0  0  0  0  0
   37.1410   30.0640   46.6650 H   0  0  0  0  0  0  0  0  0  0  0  0
  1 30  1  0  0  0  0
  2 11  1  0  0  0  0
  2  3  1  0  0  0  0
  3  1  1  0  0  0  0
  4  3  2  0  0  0  0
  4 12  1  0  0  0  0
  5  4  1  0  0  0  0
  6 13  1  0  0  0  0
  6  5  1  0  0  0  0
  7  6  1  0  0  0  0
  8  7  2  0  0  0  0
  8  9  1  0  0  0  0
  9 10  1  0  0  0  0
  9  5  2  0  0  0  0
 10  2  2  0  0  0  0
 14  7  1  0  0  0  0
 15 16  1  0  0  0  0
 15 24  1  0  0  0  0
 16 10  1  0  0  0  0
 17 18  1  0  0  0  0
 17 16  2  0  0  0  0
 19 17  1  0  0  0  0
 20 19  1  0  0  0  0
 21 19  2  0  0  0  0
 21 22  1  0  0  0  0
 22 15  2  0  0  0  0
 24 23  3  0  0  0  0
 25 26  1  0  0  0  0
 26 35  1  0  0  0  0
 26 27  2  0  0  0  0
 27 31  1  0  0  0  0
 28 27  1  0  0  0  0
 28 32  1  0  0  0  0
 29 28  2  0  0  0  0
 30 25  2  0  0  0  0
 30 29  1  0  0  0  0
 33 29  1  0  0  0  0
 34 39  2  0  0  0  0
 34 35  1  0  0  0  0
 35 36  2  0  0  0  0
 36 37  1  0  0  0  0
 36 42  1  0  0  0  0
 38 41  1  0  0  0  0
 38 37  2  0  0  0  0
 39 38  1  0  0  0  0
 40 34  1  0  0  0  0
 42 45  1  0  0  0  0
 43 42  1  0  0  0  0
 44 42  1  0  0  0  0
 46 25  1  0  0  0  0
 47 46  1  0  0  0  0
M  END
>  <minimizedAffinity>
-7.48027229

>  <minimizedRMSD>
1.37121856

$$$$
