
 OpenBabel03262520283D

 21 22  0  0  0  0  0  0  0  0999 V2000
   38.3470   30.8540   50.1310 C   0  0  0  0  0  0  0  0  0  0  0  0
   38.9010   32.1510   50.0010 C   0  0  0  0  0  0  0  0  0  0  0  0
   38.5620   32.8700   48.8660 C   0  0  0  0  0  0  0  0  0  0  0  0
   37.7360   32.3140   47.9510 N   0  0  0  0  0  0  0  0  0  0  0  0
   37.2210   31.0820   48.0940 C   0  0  0  0  0  0  0  0  0  0  0  0
   37.5290   30.3600   49.1810 N   0  0  0  0  0  0  0  0  0  0  0  0
   39.1280   34.1790   48.7460 N   0  0  0  0  0  0  0  0  0  0  0  0
   38.6070   30.2830   51.0170 H   0  0  0  0  0  0  0  0  0  0  0  0
   39.5530   32.4970   50.7970 H   0  0  0  0  0  0  0  0  0  0  0  0
   40.1030   34.5010   48.5390 H   0  0  0  0  0  0  0  0  0  0  0  0
   38.3330   34.8540   48.9130 H   0  0  0  0  0  0  0  0  0  0  0  0
   35.0790   30.0890   47.3570 C   0  0  0  0  0  0  0  0  0  0  0  0
   36.3370   30.5620   47.0540 C   0  0  0  0  0  0  0  0  0  0  0  0
   36.8260   30.5720   45.7530 C   0  0  0  0  0  0  0  0  0  0  0  0
   37.8120   30.9430   45.5060 H   0  0  0  0  0  0  0  0  0  0  0  0
   35.9960   30.0800   44.7420 C   0  0  0  0  0  0  0  0  0  0  0  0
   36.3720   30.0860   43.7280 H   0  0  0  0  0  0  0  0  0  0  0  0
   34.7430   29.6130   45.0830 C   0  0  0  0  0  3  0  0  0  0  0  0
   34.2430   29.5970   46.3700 C   0  0  0  0  0  3  0  0  0  0  0  0
   34.2480   30.1320   49.8210 N   0  0  0  0  0  0  0  0  0  0  0  0
   34.6260   30.1010   48.7110 C   0  0  0  0  0  0  0  0  0  0  0  0
  1  8  1  0  0  0  0
  2  1  1  0  0  0  0
  2  9  1  0  0  0  0
  3  2  2  0  0  0  0
  4  5  2  0  0  0  0
  4  3  1  0  0  0  0
  5  6  1  0  0  0  0
  6  1  2  0  0  0  0
  7  3  1  0  0  0  0
  7 11  1  0  0  0  0
 10  7  1  0  0  0  0
 12 21  1  0  0  0  0
 13 12  1  0  0  0  0
 13  5  1  0  0  0  0
 14 13  2  0  0  0  0
 15 14  1  0  0  0  0
 16 18  2  0  0  0  0
 16 14  1  0  0  0  0
 17 16  1  0  0  0  0
 18 19  1  0  0  0  0
 19 12  2  0  0  0  0
 21 20  3  0  0  0  0
M  END
>  <minimizedAffinity>
-4.61577272

>  <minimizedRMSD>
3.63858938

$$$$
