
 OpenBabel03272509083D

 41 44  0  0  0  0  0  0  0  0999 V2000
   33.1760   28.0440   47.8020 C   0  0  0  0  0  0  0  0  0  0  0  0
   32.4770   28.7140   47.2850 H   0  0  0  0  0  0  0  0  0  0  0  0
   32.5720   27.5940   48.6440 H   0  0  0  0  0  0  0  0  0  0  0  0
   33.5930   26.8840   46.9800 C   0  0  0  0  0  0  0  0  0  0  0  0
   33.7910   25.6100   47.4820 C   0  0  0  0  0  0  0  0  0  0  0  0
   34.1780   24.5870   46.6490 C   0  0  0  0  0  0  0  0  0  0  0  0
   34.3820   24.7880   45.2920 C   0  0  0  0  0  0  0  0  0  0  0  0
   34.1870   26.0420   44.7960 C   0  0  0  0  0  0  0  0  0  0  0  0
   33.7970   27.0870   45.6160 C   0  0  0  0  0  0  0  0  0  0  0  0
   33.6160   25.5170   48.5460 H   0  0  0  0  0  0  0  0  0  0  0  0
   34.3040   23.6410   47.1340 H   0  0  0  0  0  0  0  0  0  0  0  0
   34.6870   23.8980   44.7390 H   0  0  0  0  0  0  0  0  0  0  0  0
   34.3570   26.1500   43.7360 H   0  0  0  0  0  0  0  0  0  0  0  0
   32.4260   28.9000   44.5420 C   0  0  0  0  0  0  0  0  0  0  0  0
   33.6150   28.3960   44.9860 C   0  0  0  0  0  0  0  0  0  0  0  0
   34.7910   29.1350   44.8610 C   0  0  0  0  0  0  0  0  0  0  0  0
   35.7640   28.7720   45.2010 H   0  0  0  0  0  0  0  0  0  0  0  0
   34.7850   30.3930   44.2860 C   0  0  0  0  0  0  0  0  0  0  0  0
   35.6990   30.9620   44.1910 H   0  0  0  0  0  0  0  0  0  0  0  0
   33.5540   30.8710   43.8460 C   0  0  0  0  0  3  0  0  0  0  0  0
   32.3770   30.1570   43.9600 C   0  0  0  0  0  3  0  0  0  0  0  0
   30.3070   27.4120   44.8360 N   0  0  0  0  0  0  0  0  0  0  0  0
   31.2610   28.0840   44.7040 C   0  0  0  0  0  0  0  0  0  0  0  0
   34.9810   28.3960   49.4760 C   0  0  0  0  0  3  0  0  0  0  0  0
   34.2950   28.7540   48.4310 C   0  0  0  0  0  3  0  0  0  0  0  0
   37.3980   30.1580   51.5740 C   0  0  0  0  0  0  0  0  0  0  0  0
   38.0990   30.9280   50.6250 C   0  0  0  0  0  0  0  0  0  0  0  0
   37.7080   30.8140   49.2660 C   0  0  0  0  0  0  0  0  0  0  0  0
   36.6760   29.9640   48.9530 N   0  0  0  0  0  0  0  0  0  0  0  0
   36.0530   29.2570   49.9310 C   0  0  0  0  0  0  0  0  0  0  0  0
   36.4040   29.3500   51.2070 N   0  0  0  0  0  0  0  0  0  0  0  0
   37.7370   30.2830   52.5910 H   0  0  0  0  0  0  0  0  0  0  0  0
   38.9140   31.6060   50.8270 H   0  0  0  0  0  0  0  0  0  0  0  0
   38.3670   31.5670   48.2040 C   0  0  0  0  0  0  0  0  0  0  0  0
   38.5670   31.0240   46.9440 C   0  0  0  0  0  0  0  0  0  0  0  0
   39.2150   31.9940   46.1760 C   0  0  0  0  0  0  0  0  0  0  0  0
   39.3840   33.0800   46.9940 N   0  0  0  0  0  0  0  0  0  0  0  0
   38.8750   32.8100   48.1930 N   0  0  0  0  0  0  0  0  0  0  0  0
   38.3150   30.0550   46.5170 H   0  0  0  0  0  0  0  0  0  0  0  0
   39.5390   31.9470   45.1450 H   0  0  0  0  0  0  0  0  0  0  0  0
   39.8270   34.0080   46.7900 H   0  0  0  0  0  0  0  0  0  0  0  0
  1 25  1  0  0  0  0
  1  3  1  0  0  0  0
  2  1  1  0  0  0  0
  4  5  1  0  0  0  0
  4  1  1  0  0  0  0
  5 10  1  0  0  0  0
  6 11  1  0  0  0  0
  6  5  2  0  0  0  0
  7  6  1  0  0  0  0
  8  7  2  0  0  0  0
  8  9  1  0  0  0  0
  9  4  2  0  0  0  0
 12  7  1  0  0  0  0
 13  8  1  0  0  0  0
 14 23  1  0  0  0  0
 14 15  1  0  0  0  0
 15  9  1  0  0  0  0
 16 15  2  0  0  0  0
 16 17  1  0  0  0  0
 18 16  1  0  0  0  0
 19 18  1  0  0  0  0
 20 21  1  0  0  0  0
 20 18  2  0  0  0  0
 21 14  2  0  0  0  0
 23 22  3  0  0  0  0
 24 30  1  0  0  0  0
 25 24  2  0  0  0  0
 26 32  1  0  0  0  0
 27 33  1  0  0  0  0
 27 26  2  0  0  0  0
 28 27  1  0  0  0  0
 29 28  2  0  0  0  0
 29 30  1  0  0  0  0
 30 31  2  0  0  0  0
 31 26  1  0  0  0  0
 34 28  1  0  0  0  0
 35 34  1  0  0  0  0
 36 35  2  0  0  0  0
 36 37  1  0  0  0  0
 37 38  1  0  0  0  0
 38 34  2  0  0  0  0
 39 35  1  0  0  0  0
 40 36  1  0  0  0  0
 41 37  1  0  0  0  0
M  END
>  <minimizedAffinity>
-6.20277357

>  <minimizedRMSD>
0.230887339

$$$$
