
 OpenBabel03272505123D

 40 43  0  0  0  0  0  0  0  0999 V2000
   33.9820   30.0670   47.5290 S   0  0  0  0  0  0  0  0  0  0  0  0
   36.3100   30.9970   45.6870 Cl  0  0  0  0  0  0  0  0  0  0  0  0
   36.6430   30.7770   47.3840 C   0  0  0  0  0  0  0  0  0  0  0  0
   37.9280   31.0290   47.8210 C   0  0  0  0  0  0  0  0  0  0  0  0
   38.2010   30.8550   49.1740 C   0  0  0  0  0  0  0  0  0  0  0  0
   37.2030   30.4450   50.0240 C   0  0  0  0  0  0  0  0  0  0  0  0
   35.9370   30.2110   49.5190 C   0  0  0  0  0  0  0  0  0  0  0  0
   35.5930   30.3600   48.1980 C   0  0  0  0  0  0  0  0  0  0  0  0
   39.1860   31.0400   49.5530 H   0  0  0  0  0  0  0  0  0  0  0  0
   37.4100   30.3090   51.0770 H   0  0  0  0  0  0  0  0  0  0  0  0
   35.1640   29.8880   50.2080 H   0  0  0  0  0  0  0  0  0  0  0  0
   40.1950   33.2250   46.0080 C   0  0  0  0  0  0  0  0  0  0  0  0
   40.8840   32.3670   45.1240 C   0  0  0  0  0  0  0  0  0  0  0  0
   40.5420   31.0120   45.1740 C   0  0  0  0  0  0  0  0  0  0  0  0
   39.5800   30.5990   46.0550 N   0  0  0  0  0  0  0  0  0  0  0  0
   38.9590   31.4640   46.8730 C   0  0  0  0  0  0  0  0  0  0  0  0
   39.2690   32.7610   46.8440 N   0  0  0  0  0  0  0  0  0  0  0  0
   40.3860   34.3020   46.0500 H   0  0  0  0  0  0  0  0  0  0  0  0
   41.6220   32.8060   44.4730 H   0  0  0  0  0  0  0  0  0  0  0  0
   41.0580   30.3500   44.5060 H   0  0  0  0  0  0  0  0  0  0  0  0
   32.5700   29.3680   44.8090 Cl  0  0  0  0  0  0  0  0  0  0  0  0
   33.0950   28.1180   45.9280 C   0  0  0  0  0  0  0  0  0  0  0  0
   33.7240   28.3320   47.1430 C   0  0  0  0  0  0  0  0  0  0  0  0
   34.0880   27.2670   47.9330 C   0  0  0  0  0  0  0  0  0  0  0  0
   33.8350   25.9920   47.5280 C   0  0  0  0  0  0  0  0  0  0  0  0
   33.2040   25.7170   46.3090 C   0  0  0  0  0  0  0  0  0  0  0  0
   32.8520   26.7980   45.5430 C   0  0  0  0  0  0  0  0  0  0  0  0
   34.5750   27.5370   48.8690 H   0  0  0  0  0  0  0  0  0  0  0  0
   34.1400   25.1980   48.1790 H   0  0  0  0  0  0  0  0  0  0  0  0
   33.0240   24.6950   46.0250 H   0  0  0  0  0  0  0  0  0  0  0  0
   33.0810   26.3230   43.2070 C   0  0  0  0  0  0  0  0  0  0  0  0
   32.1970   26.4500   44.2810 C   0  0  0  0  0  0  0  0  0  0  0  0
   30.8310   26.2530   44.1030 C   0  0  0  0  0  0  0  0  0  0  0  0
   30.2180   26.3700   44.9750 H   0  0  0  0  0  0  0  0  0  0  0  0
   30.3960   25.9300   42.8370 C   0  0  0  0  0  0  0  0  0  0  0  0
   29.3230   25.7850   42.7460 H   0  0  0  0  0  0  0  0  0  0  0  0
   31.2310   25.7930   41.7500 C   0  0  0  0  0  3  0  0  0  0  0  0
   32.5780   25.9960   41.9630 C   0  0  0  0  0  3  0  0  0  0  0  0
   35.6390   26.6720   43.4360 N   0  0  0  0  0  0  0  0  0  0  0  0
   34.5060   26.5170   43.3430 C   0  0  0  0  0  0  0  0  0  0  0  0
  1  8  1  0  0  0  0
  2  3  1  0  0  0  0
  3  4  2  0  0  0  0
  3  8  1  0  0  0  0
  4  5  1  0  0  0  0
  5  9  1  0  0  0  0
  5  6  2  0  0  0  0
  6 10  1  0  0  0  0
  7  6  1  0  0  0  0
  7 11  1  0  0  0  0
  8  7  2  0  0  0  0
 12 18  1  0  0  0  0
 12 17  1  0  0  0  0
 13 14  1  0  0  0  0
 13 12  2  0  0  0  0
 14 15  2  0  0  0  0
 15 16  1  0  0  0  0
 16  4  1  0  0  0  0
 17 16  2  0  0  0  0
 19 13  1  0  0  0  0
 20 14  1  0  0  0  0
 21 22  1  0  0  0  0
 22 23  1  0  0  0  0
 23  1  1  0  0  0  0
 23 24  2  0  0  0  0
 24 28  1  0  0  0  0
 25 24  1  0  0  0  0
 25 29  1  0  0  0  0
 26 25  2  0  0  0  0
 27 22  2  0  0  0  0
 27 26  1  0  0  0  0
 30 26  1  0  0  0  0
 31 40  1  0  0  0  0
 31 32  1  0  0  0  0
 32 27  1  0  0  0  0
 33 32  2  0  0  0  0
 33 34  1  0  0  0  0
 35 33  1  0  0  0  0
 36 35  1  0  0  0  0
 37 38  1  0  0  0  0
 37 35  2  0  0  0  0
 38 31  2  0  0  0  0
 40 39  3  0  0  0  0
M  END
>  <minimizedAffinity>
-5.22105122

>  <minimizedRMSD>
1.04860651

$$$$
