
 OpenBabel03272508123D

 35 37  0  0  0  0  0  0  0  0999 V2000
   36.6700   29.5190   44.0590 Cl  0  0  0  0  0  0  0  0  0  0  0  0
   38.3380   29.8590   43.5360 C   0  0  0  0  0  0  0  0  0  0  0  0
   39.3400   30.3250   44.3980 C   0  0  0  0  0  0  0  0  0  0  0  0
   40.5870   30.5430   43.8430 C   0  0  0  0  0  0  0  0  0  0  0  0
   40.8300   30.3120   42.5040 C   0  0  0  0  0  0  0  0  0  0  0  0
   39.8600   29.8590   41.6610 C   0  0  0  0  0  0  0  0  0  0  0  0
   38.6220   29.6370   42.1890 C   0  0  0  0  0  0  0  0  0  0  0  0
   41.3040   30.9020   44.5800 H   0  0  0  0  0  0  0  0  0  0  0  0
   41.8460   30.5190   42.1850 H   0  0  0  0  0  0  0  0  0  0  0  0
   40.1190   29.7020   40.6320 H   0  0  0  0  0  0  0  0  0  0  0  0
   36.7930   30.1050   40.6260 C   0  0  0  0  0  0  0  0  0  0  0  0
   37.5780   29.1480   41.2700 C   0  0  0  0  0  0  0  0  0  0  0  0
   37.3950   27.7960   41.0650 C   0  0  0  0  0  0  0  0  0  0  0  0
   38.0050   27.0540   41.5660 H   0  0  0  0  0  0  0  0  0  0  0  0
   36.4160   27.3530   40.2050 C   0  0  0  0  0  0  0  0  0  0  0  0
   36.2240   26.3050   40.0030 H   0  0  0  0  0  0  0  0  0  0  0  0
   35.6320   28.2890   39.5600 C   0  0  0  0  0  3  0  0  0  0  0  0
   35.8060   29.6260   39.7570 C   0  0  0  0  0  3  0  0  0  0  0  0
   37.1660   32.6490   41.0290 N   0  0  0  0  0  0  0  0  0  0  0  0
   37.0080   31.5240   40.8600 C   0  0  0  0  0  0  0  0  0  0  0  0
   38.9020   30.4880   45.6740 O   0  0  0  0  0  0  0  0  0  0  0  0
   39.4560   32.5490   47.1350 O   0  0  0  0  0  0  0  0  0  0  0  0
   38.3350   31.8730   46.4380 P   0  0  1  0  0  0  0  0  0  0  0  0
   37.7400   32.8590   45.1760 O   0  0  0  0  0  0  0  0  0  0  0  0
   38.4740   33.3730   44.7520 H   0  0  0  0  0  0  0  0  0  0  0  0
   37.0490   31.4450   47.4670 O   0  0  0  0  0  0  0  0  0  0  0  0
   37.6070   30.5170   51.0020 C   0  0  0  0  0  0  0  0  0  0  0  0
   37.7060   31.3070   49.8390 C   0  0  0  0  0  0  0  0  0  0  0  0
   37.0860   30.8610   48.6760 C   0  0  0  0  0  0  0  0  0  0  0  0
   36.4090   29.6710   48.7250 N   0  0  0  0  0  0  0  0  0  0  0  0
   36.3400   28.9510   49.8540 C   0  0  0  0  0  0  0  0  0  0  0  0
   36.9360   29.3710   50.9860 N   0  0  0  0  0  0  0  0  0  0  0  0
   38.1390   30.9830   51.8390 H   0  0  0  0  0  0  0  0  0  0  0  0
   38.2090   32.2460   49.7030 H   0  0  0  0  0  0  0  0  0  0  0  0
   35.8030   28.0040   49.8980 H   0  0  0  0  0  0  0  0  0  0  0  0
  2  1  1  0  0  0  0
  2  3  1  0  0  0  0
  3 21  1  0  0  0  0
  4  3  2  0  0  0  0
  4  8  1  0  0  0  0
  5  4  1  0  0  0  0
  6  7  1  0  0  0  0
  6  5  2  0  0  0  0
  7  2  2  0  0  0  0
  9  5  1  0  0  0  0
 10  6  1  0  0  0  0
 11 20  1  0  0  0  0
 11 12  1  0  0  0  0
 12  7  1  0  0  0  0
 13 12  2  0  0  0  0
 13 14  1  0  0  0  0
 15 13  1  0  0  0  0
 16 15  1  0  0  0  0
 17 18  1  0  0  0  0
 17 15  2  0  0  0  0
 18 11  2  0  0  0  0
 20 19  3  0  0  0  0
 21 23  1  0  0  0  0
 23 22  2  1  0  0  0
 23 26  1  0  0  0  0
 24 23  1  0  0  0  0
 25 24  1  0  0  0  0
 26 29  1  0  0  0  0
 27 33  1  0  0  0  0
 28 27  2  0  0  0  0
 29 30  2  0  0  0  0
 29 28  1  0  0  0  0
 30 31  1  0  0  0  0
 31 35  1  0  0  0  0
 31 32  2  0  0  0  0
 32 27  1  0  0  0  0
 34 28  1  0  0  0  0
M  END
>  <minimizedAffinity>
-4.76908064

>  <minimizedRMSD>
0.754682899

$$$$
