
 OpenBabel03272505153D

 29 31  0  0  0  0  0  0  0  0999 V2000
   38.1720   30.8930   47.8420 Cl  0  0  0  0  0  0  0  0  0  0  0  0
   36.8810   30.5480   46.7220 C   0  0  0  0  0  0  0  0  0  0  0  0
   35.7180   30.0300   47.1690 C   0  0  0  0  0  0  0  0  0  0  0  0
   34.7550   29.7940   46.2000 C   0  0  0  0  0  0  0  0  0  0  0  0
   34.9000   30.0390   44.8720 C   0  0  0  0  0  0  0  0  0  0  0  0
   36.1000   30.5660   44.4540 C   0  0  0  0  0  0  0  0  0  0  0  0
   37.1170   30.8310   45.3820 C   0  0  0  0  0  0  0  0  0  0  0  0
   33.7940   29.3720   46.5260 H   0  0  0  0  0  0  0  0  0  0  0  0
   34.1100   29.8330   44.1560 H   0  0  0  0  0  0  0  0  0  0  0  0
   36.3160   30.7990   43.4150 H   0  0  0  0  0  0  0  0  0  0  0  0
   36.4260   29.1250   50.7650 C   0  0  0  0  0  0  0  0  0  0  0  0
   36.6220   29.3790   49.3990 C   0  0  0  0  0  0  0  0  0  0  0  0
   35.5490   29.7630   48.5790 C   0  0  0  0  0  0  0  0  0  0  0  0
   34.3510   29.8670   49.1840 N   0  0  0  0  0  0  0  0  0  0  0  0
   34.1640   29.6240   50.4900 C   0  0  0  0  0  0  0  0  0  0  0  0
   35.1910   29.2550   51.2820 N   0  0  0  0  0  0  0  0  0  0  0  0
   37.3550   28.8450   51.2330 H   0  0  0  0  0  0  0  0  0  0  0  0
   37.5660   29.3050   48.8810 H   0  0  0  0  0  0  0  0  0  0  0  0
   33.2110   29.7030   50.9900 H   0  0  0  0  0  0  0  0  0  0  0  0
   39.3590   30.7080   44.2160 C   0  0  0  0  0  0  0  0  0  0  0  0
   38.3910   31.3930   44.9230 C   0  0  0  0  0  0  0  0  0  0  0  0
   38.5480   32.7210   45.2710 C   0  0  0  0  0  0  0  0  0  0  0  0
   37.8270   33.3160   45.8250 H   0  0  0  0  0  0  0  0  0  0  0  0
   39.7250   33.3620   44.8850 C   0  0  0  0  0  0  0  0  0  0  0  0
   39.9080   34.4180   45.1320 H   0  0  0  0  0  0  0  0  0  0  0  0
   40.6990   32.6800   44.1760 C   0  0  0  0  0  3  0  0  0  0  0  0
   40.5270   31.3360   43.8290 C   0  0  0  0  0  3  0  0  0  0  0  0
   38.8690   28.2030   43.6500 N   0  0  0  0  0  0  0  0  0  0  0  0
   39.0800   29.3240   43.9110 C   0  0  0  0  0  0  0  0  0  0  0  0
  2  3  1  0  0  0  0
  2  1  1  0  0  0  0
  3 13  1  0  0  0  0
  4  8  1  0  0  0  0
  4  3  2  0  0  0  0
  5  4  1  0  0  0  0
  6  5  2  0  0  0  0
  6  7  1  0  0  0  0
  7  2  2  0  0  0  0
  9  5  1  0  0  0  0
 10  6  1  0  0  0  0
 11 17  1  0  0  0  0
 11 16  1  0  0  0  0
 12 11  2  0  0  0  0
 13 14  2  0  0  0  0
 13 12  1  0  0  0  0
 14 15  1  0  0  0  0
 15 19  1  0  0  0  0
 15 16  2  0  0  0  0
 18 12  1  0  0  0  0
 20 21  1  0  0  0  0
 21 22  2  0  0  0  0
 21  7  1  0  0  0  0
 22 23  1  0  0  0  0
 24 25  1  0  0  0  0
 24 22  1  0  0  0  0
 26 24  2  0  0  0  0
 27 26  1  0  0  0  0
 27 20  2  0  0  0  0
 28 29  3  0  0  0  0
 29 20  1  0  0  0  0
M  END
>  <minimizedAffinity>
-5.30081987

>  <minimizedRMSD>
4.11748171

$$$$
