
 OpenBabel03272509083D

 41 44  0  0  0  0  0  0  0  0999 V2000
   32.9690   27.8430   48.3610 C   0  0  0  0  0  0  0  0  0  0  0  0
   32.0800   28.4640   48.1870 H   0  0  0  0  0  0  0  0  0  0  0  0
   32.6820   27.1680   49.2200 H   0  0  0  0  0  0  0  0  0  0  0  0
   33.2670   26.9180   47.2420 C   0  0  0  0  0  0  0  0  0  0  0  0
   33.8490   25.6730   47.4010 C   0  0  0  0  0  0  0  0  0  0  0  0
   34.0920   24.8750   46.3080 C   0  0  0  0  0  0  0  0  0  0  0  0
   33.7680   25.2790   45.0220 C   0  0  0  0  0  0  0  0  0  0  0  0
   33.1930   26.5040   44.8640 C   0  0  0  0  0  0  0  0  0  0  0  0
   32.9400   27.3250   45.9500 C   0  0  0  0  0  0  0  0  0  0  0  0
   34.0790   25.4150   48.4270 H   0  0  0  0  0  0  0  0  0  0  0  0
   34.5460   23.9330   46.5370 H   0  0  0  0  0  0  0  0  0  0  0  0
   34.0100   24.5570   44.2410 H   0  0  0  0  0  0  0  0  0  0  0  0
   32.9580   26.7760   43.8470 H   0  0  0  0  0  0  0  0  0  0  0  0
   30.9840   28.8970   45.7630 C   0  0  0  0  0  0  0  0  0  0  0  0
   32.3200   28.6230   45.6740 C   0  0  0  0  0  0  0  0  0  0  0  0
   33.2240   29.6150   45.2980 C   0  0  0  0  0  0  0  0  0  0  0  0
   34.3010   29.4430   45.2140 H   0  0  0  0  0  0  0  0  0  0  0  0
   32.7950   30.8970   45.0040 C   0  0  0  0  0  0  0  0  0  0  0  0
   33.5000   31.6640   44.7120 H   0  0  0  0  0  0  0  0  0  0  0  0
   31.4270   31.1340   45.1060 C   0  0  0  0  0  3  0  0  0  0  0  0
   30.5140   30.1670   45.4780 C   0  0  0  0  0  3  0  0  0  0  0  0
   29.4070   26.9480   46.4780 N   0  0  0  0  0  0  0  0  0  0  0  0
   30.1170   27.8280   46.1560 C   0  0  0  0  0  0  0  0  0  0  0  0
   35.0280   28.2690   49.6870 C   0  0  0  0  0  3  0  0  0  0  0  0
   34.1300   28.6160   48.8130 C   0  0  0  0  0  3  0  0  0  0  0  0
   37.5260   30.2760   51.4430 C   0  0  0  0  0  0  0  0  0  0  0  0
   38.1300   30.9800   50.3830 C   0  0  0  0  0  0  0  0  0  0  0  0
   37.6480   30.7370   49.0720 C   0  0  0  0  0  0  0  0  0  0  0  0
   36.6260   29.8340   48.9090 N   0  0  0  0  0  0  0  0  0  0  0  0
   36.0990   29.1970   49.9870 C   0  0  0  0  0  0  0  0  0  0  0  0
   36.5370   29.4110   51.2200 N   0  0  0  0  0  0  0  0  0  0  0  0
   37.9320   30.4980   52.4180 H   0  0  0  0  0  0  0  0  0  0  0  0
   38.9340   31.6960   50.4660 H   0  0  0  0  0  0  0  0  0  0  0  0
   38.2030   31.4130   47.9030 C   0  0  0  0  0  0  0  0  0  0  0  0
   38.2840   30.7850   46.6700 C   0  0  0  0  0  0  0  0  0  0  0  0
   38.8550   31.6980   45.7810 C   0  0  0  0  0  0  0  0  0  0  0  0
   39.0990   32.8350   46.5030 N   0  0  0  0  0  0  0  0  0  0  0  0
   38.7050   32.6500   47.7600 N   0  0  0  0  0  0  0  0  0  0  0  0
   37.9940   29.7910   46.3350 H   0  0  0  0  0  0  0  0  0  0  0  0
   39.0810   31.5790   44.7290 H   0  0  0  0  0  0  0  0  0  0  0  0
   39.5200   33.7460   46.1960 H   0  0  0  0  0  0  0  0  0  0  0  0
  1 25  1  0  0  0  0
  1  3  1  0  0  0  0
  2  1  1  0  0  0  0
  4  5  1  0  0  0  0
  4  1  1  0  0  0  0
  5 10  1  0  0  0  0
  6 11  1  0  0  0  0
  6  5  2  0  0  0  0
  7  6  1  0  0  0  0
  8  7  2  0  0  0  0
  8  9  1  0  0  0  0
  9  4  2  0  0  0  0
 12  7  1  0  0  0  0
 13  8  1  0  0  0  0
 14 23  1  0  0  0  0
 15 14  1  0  0  0  0
 15  9  1  0  0  0  0
 16 15  2  0  0  0  0
 17 16  1  0  0  0  0
 18 20  2  0  0  0  0
 18 16  1  0  0  0  0
 19 18  1  0  0  0  0
 20 21  1  0  0  0  0
 21 14  2  0  0  0  0
 23 22  3  0  0  0  0
 24 30  1  0  0  0  0
 25 24  2  0  0  0  0
 26 32  1  0  0  0  0
 27 33  1  0  0  0  0
 27 26  2  0  0  0  0
 28 27  1  0  0  0  0
 29 28  2  0  0  0  0
 29 30  1  0  0  0  0
 30 31  2  0  0  0  0
 31 26  1  0  0  0  0
 34 28  1  0  0  0  0
 35 34  1  0  0  0  0
 36 37  1  0  0  0  0
 36 35  2  0  0  0  0
 37 38  1  0  0  0  0
 38 34  2  0  0  0  0
 39 35  1  0  0  0  0
 40 36  1  0  0  0  0
 41 37  1  0  0  0  0
M  END
>  <minimizedAffinity>
-6.07310581

>  <minimizedRMSD>
1.91489255

$$$$
