
 OpenBabel03262520283D

 21 22  0  0  0  0  0  0  0  0999 V2000
   37.5370   29.5920   50.6540 C   0  0  0  0  0  0  0  0  0  0  0  0
   38.3040   30.4370   49.8150 C   0  0  0  0  0  0  0  0  0  0  0  0
   37.8430   30.6290   48.5230 C   0  0  0  0  0  0  0  0  0  0  0  0
   36.7060   30.0140   48.1270 N   0  0  0  0  0  0  0  0  0  0  0  0
   35.9930   29.2160   48.9390 C   0  0  0  0  0  0  0  0  0  0  0  0
   36.4120   29.0100   50.1960 N   0  0  0  0  0  0  0  0  0  0  0  0
   38.6260   31.4850   47.6860 N   0  0  0  0  0  0  0  0  0  0  0  0
   37.8910   29.4350   51.6690 H   0  0  0  0  0  0  0  0  0  0  0  0
   39.2020   30.8790   50.2380 H   0  0  0  0  0  0  0  0  0  0  0  0
   39.5580   31.3500   47.2280 H   0  0  0  0  0  0  0  0  0  0  0  0
   38.0680   32.3760   47.5790 H   0  0  0  0  0  0  0  0  0  0  0  0
   33.5920   28.6510   49.1270 C   0  0  0  0  0  0  0  0  0  0  0  0
   34.7760   28.5930   48.4250 C   0  0  0  0  0  0  0  0  0  0  0  0
   34.8740   27.9440   47.1990 C   0  0  0  0  0  0  0  0  0  0  0  0
   35.7990   27.8930   46.6420 H   0  0  0  0  0  0  0  0  0  0  0  0
   33.7220   27.3400   46.6890 C   0  0  0  0  0  0  0  0  0  0  0  0
   33.7930   26.8340   45.7350 H   0  0  0  0  0  0  0  0  0  0  0  0
   32.5530   27.4200   47.4200 C   0  0  0  0  0  3  0  0  0  0  0  0
   32.4410   28.0600   48.6380 C   0  0  0  0  0  3  0  0  0  0  0  0
   33.5090   29.9080   51.4030 N   0  0  0  0  0  0  0  0  0  0  0  0
   33.5470   29.3320   50.3820 C   0  0  0  0  0  0  0  0  0  0  0  0
  1  8  1  0  0  0  0
  2  9  1  0  0  0  0
  2  1  2  0  0  0  0
  3  2  1  0  0  0  0
  4  3  2  0  0  0  0
  4  5  1  0  0  0  0
  5  6  2  0  0  0  0
  6  1  1  0  0  0  0
  7  3  1  0  0  0  0
 10  7  1  0  0  0  0
 11  7  1  0  0  0  0
 12 21  1  0  0  0  0
 13  5  1  0  0  0  0
 13 12  2  0  0  0  0
 14 13  1  0  0  0  0
 15 14  1  0  0  0  0
 16 14  2  0  0  0  0
 16 18  1  0  0  0  0
 17 16  1  0  0  0  0
 18 19  2  0  0  0  0
 19 12  1  0  0  0  0
 21 20  3  0  0  0  0
M  END
>  <minimizedAffinity>
-2.91707301

>  <minimizedRMSD>
1.17338848

$$$$
