
 OpenBabel03272505133D

 40 43  0  0  0  0  0  0  0  0999 V2000
   34.0640   29.9580   47.5320 S   0  0  0  0  0  0  0  0  0  0  0  0
   36.3980   30.9080   45.7080 Cl  0  0  0  0  0  0  0  0  0  0  0  0
   36.6940   30.7800   47.4220 C   0  0  0  0  0  0  0  0  0  0  0  0
   37.9550   31.1090   47.8780 C   0  0  0  0  0  0  0  0  0  0  0  0
   38.1980   31.0090   49.2440 C   0  0  0  0  0  0  0  0  0  0  0  0
   37.1960   30.5930   50.0870 C   0  0  0  0  0  0  0  0  0  0  0  0
   35.9560   30.2800   49.5620 C   0  0  0  0  0  0  0  0  0  0  0  0
   35.6420   30.3530   48.2280 C   0  0  0  0  0  0  0  0  0  0  0  0
   39.1640   31.2550   49.6390 H   0  0  0  0  0  0  0  0  0  0  0  0
   37.3810   30.5140   51.1510 H   0  0  0  0  0  0  0  0  0  0  0  0
   35.1790   29.9540   50.2450 H   0  0  0  0  0  0  0  0  0  0  0  0
   40.2150   33.3130   46.0690 C   0  0  0  0  0  0  0  0  0  0  0  0
   40.9240   32.4550   45.2000 C   0  0  0  0  0  0  0  0  0  0  0  0
   40.5980   31.0960   45.2610 C   0  0  0  0  0  0  0  0  0  0  0  0
   39.6310   30.6810   46.1350 N   0  0  0  0  0  0  0  0  0  0  0  0
   38.9910   31.5470   46.9370 C   0  0  0  0  0  0  0  0  0  0  0  0
   39.2860   32.8470   46.8980 N   0  0  0  0  0  0  0  0  0  0  0  0
   40.3930   34.3930   46.1020 H   0  0  0  0  0  0  0  0  0  0  0  0
   41.6640   32.8960   44.5540 H   0  0  0  0  0  0  0  0  0  0  0  0
   41.1300   30.4340   44.6050 H   0  0  0  0  0  0  0  0  0  0  0  0
   33.7280   29.1780   44.5050 Cl  0  0  0  0  0  0  0  0  0  0  0  0
   33.7830   27.9630   45.7750 C   0  0  0  0  0  0  0  0  0  0  0  0
   33.9290   28.2130   47.1290 C   0  0  0  0  0  0  0  0  0  0  0  0
   33.9580   27.1730   48.0280 C   0  0  0  0  0  0  0  0  0  0  0  0
   33.8450   25.8870   47.5960 C   0  0  0  0  0  0  0  0  0  0  0  0
   33.6970   25.5750   46.2400 C   0  0  0  0  0  0  0  0  0  0  0  0
   33.6710   26.6330   45.3670 C   0  0  0  0  0  0  0  0  0  0  0  0
   34.0750   27.4710   49.0690 H   0  0  0  0  0  0  0  0  0  0  0  0
   33.8740   25.1140   48.3360 H   0  0  0  0  0  0  0  0  0  0  0  0
   33.6120   24.5460   45.9390 H   0  0  0  0  0  0  0  0  0  0  0  0
   32.1820   26.1610   43.5510 C   0  0  0  0  0  0  0  0  0  0  0  0
   33.5150   26.2460   43.9630 C   0  0  0  0  0  0  0  0  0  0  0  0
   34.5510   25.9780   43.0740 C   0  0  0  0  0  0  0  0  0  0  0  0
   35.5450   26.0660   43.4660 H   0  0  0  0  0  0  0  0  0  0  0  0
   34.2090   25.6280   41.7870 C   0  0  0  0  0  0  0  0  0  0  0  0
   35.0500   25.4280   41.1290 H   0  0  0  0  0  0  0  0  0  0  0  0
   32.9100   25.5320   41.3370 C   0  0  0  0  0  3  0  0  0  0  0  0
   31.9080   25.8050   42.2450 C   0  0  0  0  0  3  0  0  0  0  0  0
   30.1950   26.6600   45.1380 N   0  0  0  0  0  0  0  0  0  0  0  0
   31.0740   26.4300   44.4370 C   0  0  0  0  0  0  0  0  0  0  0  0
  1  8  1  0  0  0  0
  2  3  1  0  0  0  0
  3  4  2  0  0  0  0
  3  8  1  0  0  0  0
  4  5  1  0  0  0  0
  5  9  1  0  0  0  0
  5  6  2  0  0  0  0
  6 10  1  0  0  0  0
  7  6  1  0  0  0  0
  7 11  1  0  0  0  0
  8  7  2  0  0  0  0
 12 18  1  0  0  0  0
 12 17  1  0  0  0  0
 13 14  1  0  0  0  0
 13 12  2  0  0  0  0
 14 15  2  0  0  0  0
 15 16  1  0  0  0  0
 16  4  1  0  0  0  0
 17 16  2  0  0  0  0
 19 13  1  0  0  0  0
 20 14  1  0  0  0  0
 21 22  1  0  0  0  0
 22 23  1  0  0  0  0
 23  1  1  0  0  0  0
 23 24  2  0  0  0  0
 24 28  1  0  0  0  0
 25 24  1  0  0  0  0
 25 29  1  0  0  0  0
 26 25  2  0  0  0  0
 27 22  2  0  0  0  0
 27 26  1  0  0  0  0
 30 26  1  0  0  0  0
 31 32  1  0  0  0  0
 31 40  1  0  0  0  0
 32 27  1  0  0  0  0
 33 34  1  0  0  0  0
 33 32  2  0  0  0  0
 35 33  1  0  0  0  0
 36 35  1  0  0  0  0
 37 35  2  0  0  0  0
 37 38  1  0  0  0  0
 38 31  2  0  0  0  0
 40 39  3  0  0  0  0
M  END
>  <minimizedAffinity>
-5.48746157

>  <minimizedRMSD>
0.455807298

$$$$
