
 OpenBabel03272507393D

 35 37  0  0  0  0  0  0  0  0999 V2000
   38.0850   32.0750   46.5870 C   0  0  0  0  0  0  0  0  0  0  0  0
   37.8590   32.3420   47.9120 C   0  0  0  0  0  0  0  0  0  0  0  0
   38.6700   33.2290   48.6010 C   0  0  0  0  0  0  0  0  0  0  0  0
   39.7220   33.8520   47.9420 C   0  0  0  0  0  0  0  0  0  0  0  0
   39.9470   33.5770   46.5970 C   0  0  0  0  0  0  0  0  0  0  0  0
   39.1200   32.6860   45.9310 C   0  0  0  0  0  0  0  0  0  0  0  0
   38.5490   33.4850   49.6430 H   0  0  0  0  0  0  0  0  0  0  0  0
   40.3720   34.5520   48.4640 H   0  0  0  0  0  0  0  0  0  0  0  0
   40.7550   34.0380   46.0360 H   0  0  0  0  0  0  0  0  0  0  0  0
   40.3500   31.5280   44.1600 C   0  0  0  0  0  0  0  0  0  0  0  0
   39.2880   32.3400   44.5130 C   0  0  0  0  0  0  0  0  0  0  0  0
   38.3700   32.8500   43.6000 C   0  0  0  0  0  0  0  0  0  0  0  0
   37.5670   33.4830   43.9830 H   0  0  0  0  0  0  0  0  0  0  0  0
   38.5470   32.5120   42.2750 C   0  0  0  0  0  0  0  0  0  0  0  0
   37.8510   32.8950   41.5640 H   0  0  0  0  0  0  0  0  0  0  0  0
   39.6040   31.7010   41.9100 C   0  0  0  0  0  3  0  0  0  0  0  0
   40.5170   31.1970   42.8280 C   0  0  0  0  0  3  0  0  0  0  0  0
   41.9560   30.6600   46.0220 N   0  0  0  0  0  0  0  0  0  0  0  0
   41.2500   31.0510   45.1930 C   0  0  0  0  0  0  0  0  0  0  0  0
   36.4890   30.4110   45.4330 N   0  0  0  0  0  0  0  0  0  0  0  0
   37.1950   31.1450   45.9550 C   0  0  0  0  0  0  0  0  0  0  0  0
   36.8600   31.8030   48.6930 O   0  0  0  0  0  0  0  0  0  0  0  0
   37.0580   30.9030   49.6940 C   0  0  0  0  0  0  0  0  0  0  0  0
   36.4140   29.6950   49.4390 C   0  0  0  0  0  0  0  0  0  0  0  0
   36.4900   28.6480   50.3340 C   0  0  0  0  0  0  0  0  0  0  0  0
   37.2280   28.8590   51.4780 N   0  0  0  0  0  0  0  0  0  0  0  0
   37.8480   30.0390   51.7100 C   0  0  0  0  0  0  0  0  0  0  0  0
   37.7590   31.0250   50.8370 N   0  0  0  0  0  0  0  0  0  0  0  0
   36.0380   27.6940   50.2350 H   0  0  0  0  0  0  0  0  0  0  0  0
   38.4400   30.2870   52.5670 H   0  0  0  0  0  0  0  0  0  0  0  0
   34.2960   29.0060   48.4260 C   0  0  0  0  0  0  0  0  0  0  0  0
   33.5250   28.7090   49.4220 O   0  0  0  0  0  0  0  0  0  0  0  0
   35.6700   29.3740   48.2990 N   0  0  0  0  0  0  0  0  0  0  0  0
   33.2930   28.7830   48.0860 H   0  0  0  0  0  0  0  0  0  0  0  0
   35.6630   29.2550   47.2820 H   0  0  0  0  0  0  0  0  0  0  0  0
  1  2  1  0  0  0  0
  2  3  2  0  0  0  0
  2 22  1  0  0  0  0
  3  7  1  0  0  0  0
  4  8  1  0  0  0  0
  4  3  1  0  0  0  0
  5  4  2  0  0  0  0
  6  1  2  0  0  0  0
  6  5  1  0  0  0  0
  9  5  1  0  0  0  0
 10 11  1  0  0  0  0
 10 19  1  0  0  0  0
 11  6  1  0  0  0  0
 12 13  1  0  0  0  0
 12 11  2  0  0  0  0
 14 12  1  0  0  0  0
 15 14  1  0  0  0  0
 16 14  2  0  0  0  0
 16 17  1  0  0  0  0
 17 10  2  0  0  0  0
 19 18  3  0  0  0  0
 20 21  3  0  0  0  0
 21  1  1  0  0  0  0
 22 23  1  0  0  0  0
 23 28  1  0  0  0  0
 24 23  2  0  0  0  0
 24 25  1  0  0  0  0
 25 26  2  0  0  0  0
 26 27  1  0  0  0  0
 27 30  1  0  0  0  0
 28 27  2  0  0  0  0
 29 25  1  0  0  0  0
 31 32  2  0  0  0  0
 33 31  1  0  0  0  0
 33 24  1  0  0  0  0
 34 31  1  0  0  0  0
 35 33  1  0  0  0  0
M  END
>  <minimizedAffinity>
-4.46109676

>  <minimizedRMSD>
1.83193624

$$$$
