
 OpenBabel03272501083D

 41 44  0  0  1  0  0  0  0  0999 V2000
   38.0560   32.1910   46.0960 O   0  0  0  0  0  0  0  0  0  0  0  0
   38.7950   32.2140   47.2270 C   0  0  2  0  0  0  0  0  0  0  0  0
   37.9180   32.4140   48.5050 C   0  0  2  0  0  0  0  0  0  0  0  0
   38.8770   33.0430   49.4010 C   0  0  0  0  0  0  0  0  0  0  0  0
   39.6960   33.8720   48.6470 O   0  0  0  0  0  0  0  0  0  0  0  0
   39.5110   33.5880   47.3370 C   0  0  0  0  0  0  0  0  0  0  0  0
   39.5230   31.4190   47.3530 H   0  0  0  0  0  0  0  0  0  0  0  0
   37.1380   33.1330   48.1740 H   0  0  0  0  0  0  0  0  0  0  0  0
   39.5380   32.3900   49.9680 H   0  0  0  0  0  0  0  0  0  0  0  0
   38.3200   33.6920   50.1360 H   0  0  0  0  0  0  0  0  0  0  0  0
   40.4850   33.4470   46.8160 H   0  0  0  0  0  0  0  0  0  0  0  0
   38.8860   34.3620   46.8660 H   0  0  0  0  0  0  0  0  0  0  0  0
   37.1740   29.1880   50.2900 C   0  0  0  0  0  0  0  0  0  0  0  0
   37.8530   30.3850   49.9300 C   0  0  0  0  0  0  0  0  0  0  0  0
   37.2710   31.1940   48.9180 C   0  0  0  0  0  0  0  0  0  0  0  0
   36.0910   30.7930   48.3360 N   0  0  0  0  0  0  0  0  0  0  0  0
   35.4900   29.6580   48.7080 C   0  0  0  0  0  0  0  0  0  0  0  0
   36.0060   28.8520   49.6690 N   0  0  0  0  0  0  0  0  0  0  0  0
   37.6440   28.6040   51.0570 H   0  0  0  0  0  0  0  0  0  0  0  0
   38.7780   30.6480   50.4230 H   0  0  0  0  0  0  0  0  0  0  0  0
   34.5630   29.3110   48.2730 H   0  0  0  0  0  0  0  0  0  0  0  0
   40.4650   31.6690   44.2450 Cl  0  0  0  0  0  0  0  0  0  0  0  0
   38.8520   31.0260   44.0230 C   0  0  0  0  0  0  0  0  0  0  0  0
   37.9560   31.4140   44.9980 C   0  0  0  0  0  0  0  0  0  0  0  0
   36.6750   30.9080   44.8280 C   0  0  0  0  0  0  0  0  0  0  0  0
   36.3160   30.0890   43.7850 C   0  0  0  0  0  0  0  0  0  0  0  0
   37.2760   29.7460   42.8490 C   0  0  0  0  0  0  0  0  0  0  0  0
   38.5790   30.2130   42.9490 C   0  0  0  0  0  0  0  0  0  0  0  0
   35.8400   31.1020   45.4900 H   0  0  0  0  0  0  0  0  0  0  0  0
   35.3270   29.6800   43.6290 H   0  0  0  0  0  0  0  0  0  0  0  0
   37.0630   29.1060   42.0030 H   0  0  0  0  0  0  0  0  0  0  0  0
   40.1990   28.6340   41.9080 C   0  0  0  0  0  0  0  0  0  0  0  0
   39.6650   29.9150   42.0220 C   0  0  0  0  0  0  0  0  0  0  0  0
   40.2130   30.8860   41.2140 C   0  0  0  0  0  0  0  0  0  0  0  0
   39.7860   31.8850   41.3130 H   0  0  0  0  0  0  0  0  0  0  0  0
   41.2380   30.6940   40.3120 C   0  0  0  0  0  0  0  0  0  0  0  0
   41.6100   31.5150   39.7130 H   0  0  0  0  0  0  0  0  0  0  0  0
   41.7420   29.4180   40.2240 C   0  0  0  0  0  3  0  0  0  0  0  0
   41.2250   28.4140   41.0130 C   0  0  0  0  0  3  0  0  0  0  0  0
   39.1900   26.7600   43.4070 N   0  0  0  0  0  0  0  0  0  0  0  0
   39.6370   27.6000   42.7490 C   0  0  0  0  0  0  0  0  0  0  0  0
  1  2  1  0  0  0  0
  2  6  1  0  0  0  0
  2  7  1  1  0  0  0
  2  3  1  0  0  0  0
  3  8  1  6  0  0  0
  3 15  1  0  0  0  0
  3  4  1  0  0  0  0
  4  9  1  0  0  0  0
  4 10  1  0  0  0  0
  5  4  1  0  0  0  0
  6  5  1  0  0  0  0
 11  6  1  0  0  0  0
 12  6  1  0  0  0  0
 13 19  1  0  0  0  0
 14 13  1  0  0  0  0
 14 20  1  0  0  0  0
 15 14  2  0  0  0  0
 16 17  2  0  0  0  0
 16 15  1  0  0  0  0
 17 18  1  0  0  0  0
 18 13  2  0  0  0  0
 21 17  1  0  0  0  0
 23 22  1  0  0  0  0
 23 24  1  0  0  0  0
 24  1  1  0  0  0  0
 25 24  2  0  0  0  0
 25 29  1  0  0  0  0
 26 25  1  0  0  0  0
 27 28  1  0  0  0  0
 27 26  2  0  0  0  0
 28 23  2  0  0  0  0
 30 26  1  0  0  0  0
 31 27  1  0  0  0  0
 32 33  1  0  0  0  0
 32 41  1  0  0  0  0
 33 28  1  0  0  0  0
 34 35  1  0  0  0  0
 34 33  2  0  0  0  0
 36 34  1  0  0  0  0
 37 36  1  0  0  0  0
 38 36  2  0  0  0  0
 38 39  1  0  0  0  0
 39 32  2  0  0  0  0
 41 40  3  0  0  0  0
M  END
>  <minimizedAffinity>
-5.92739153

>  <minimizedRMSD>
1.20155406

$$$$
