
 OpenBabel03262523483D

 39 42  0  0  0  0  0  0  0  0999 V2000
   36.4480   32.3410   43.5870 Cl  0  0  0  0  0  0  0  0  0  0  0  0
   37.4970   30.9790   43.2100 C   0  0  0  0  0  0  0  0  0  0  0  0
   38.3740   30.6070   44.2160 C   0  0  0  0  0  0  0  0  0  0  0  0
   39.2540   29.5360   44.0210 C   0  0  0  0  0  0  0  0  0  0  0  0
   39.2440   28.8410   42.8120 C   0  0  0  0  0  0  0  0  0  0  0  0
   38.3640   29.2330   41.8360 C   0  0  0  0  0  0  0  0  0  0  0  0
   37.4900   30.2950   42.0260 C   0  0  0  0  0  0  0  0  0  0  0  0
   39.9520   29.2070   44.7630 H   0  0  0  0  0  0  0  0  0  0  0  0
   39.9110   28.0080   42.6270 H   0  0  0  0  0  0  0  0  0  0  0  0
   38.2870   28.7500   40.8650 H   0  0  0  0  0  0  0  0  0  0  0  0
   38.7180   32.9530   49.6890 Cl  0  0  0  0  0  0  0  0  0  0  0  0
   38.6070   32.2530   48.0920 C   0  0  0  0  0  0  0  0  0  0  0  0
   37.8640   31.1280   47.8530 C   0  0  0  0  0  0  0  0  0  0  0  0
   37.8280   30.6400   46.5700 C   0  0  0  0  0  0  0  0  0  0  0  0
   38.5020   31.2360   45.5330 C   0  0  0  0  0  0  0  0  0  0  0  0
   39.2550   32.3850   45.8050 C   0  0  0  0  0  0  0  0  0  0  0  0
   40.0930   33.1050   44.4590 Cl  0  0  0  0  0  0  0  0  0  0  0  0
   39.3090   32.8950   47.0790 C   0  0  0  0  0  0  0  0  0  0  0  0
   37.2210   29.7360   46.4210 H   0  0  0  0  0  0  0  0  0  0  0  0
   39.8980   33.7900   47.2770 H   0  0  0  0  0  0  0  0  0  0  0  0
   37.1700   29.3930   51.1540 C   0  0  0  0  0  0  0  0  0  0  0  0
   37.8640   29.9480   50.0650 C   0  0  0  0  0  0  0  0  0  0  0  0
   37.1620   30.5360   49.0110 C   0  0  0  0  0  0  0  0  0  0  0  0
   35.7950   30.5430   49.0900 N   0  0  0  0  0  0  0  0  0  0  0  0
   35.1770   29.9980   50.1570 C   0  0  0  0  0  0  0  0  0  0  0  0
   35.8410   29.4350   51.1650 N   0  0  0  0  0  0  0  0  0  0  0  0
   37.6820   28.9380   51.9720 H   0  0  0  0  0  0  0  0  0  0  0  0
   38.9580   29.9220   50.0400 H   0  0  0  0  0  0  0  0  0  0  0  0
   34.0930   30.1180   50.0030 H   0  0  0  0  0  0  0  0  0  0  0  0
   36.7740   31.7480   40.0980 C   0  0  0  0  0  0  0  0  0  0  0  0
   36.5590   30.7160   41.0040 C   0  0  0  0  0  0  0  0  0  0  0  0
   35.3700   29.9920   40.9710 C   0  0  0  0  0  0  0  0  0  0  0  0
   35.1230   29.1730   41.6410 H   0  0  0  0  0  0  0  0  0  0  0  0
   34.4170   30.3200   40.0300 C   0  0  0  0  0  0  0  0  0  0  0  0
   33.4550   29.7890   39.9490 H   0  0  0  0  0  0  0  0  0  0  0  0
   34.6420   31.3450   39.1380 C   0  0  0  0  0  3  0  0  0  0  0  0
   35.8190   32.0880   39.1440 C   0  0  0  0  0  3  0  0  0  0  0  0
   39.0340   32.9940   40.3190 N   0  0  0  0  0  0  0  0  0  0  0  0
   38.0400   32.4380   40.2130 C   0  0  0  0  0  0  0  0  0  0  0  0
  2  1  1  0  0  0  0
  2  3  1  0  0  0  0
  3 15  1  0  0  0  0
  4  3  2  0  0  0  0
  4  8  1  0  0  0  0
  5  4  1  0  0  0  0
  6  7  1  0  0  0  0
  6  5  2  0  0  0  0
  7  2  2  0  0  0  0
  9  5  1  0  0  0  0
 10  6  1  0  0  0  0
 12 11  1  0  0  0  0
 13 12  1  0  0  0  0
 13 23  1  0  0  0  0
 14 13  2  0  0  0  0
 15 16  2  0  0  0  0
 15 14  1  0  0  0  0
 16 18  1  0  0  0  0
 17 16  1  0  0  0  0
 18 20  1  0  0  0  0
 18 12  2  0  0  0  0
 19 14  1  0  0  0  0
 21 26  1  0  0  0  0
 21 27  1  0  0  0  0
 22 21  2  0  0  0  0
 23 24  2  0  0  0  0
 23 22  1  0  0  0  0
 24 25  1  0  0  0  0
 25 26  2  0  0  0  0
 28 22  1  0  0  0  0
 29 25  1  0  0  0  0
 30 39  1  0  0  0  0
 30 31  1  0  0  0  0
 31  7  1  0  0  0  0
 32 31  2  0  0  0  0
 32 33  1  0  0  0  0
 34 32  1  0  0  0  0
 35 34  1  0  0  0  0
 36 37  1  0  0  0  0
 36 34  2  0  0  0  0
 37 30  2  0  0  0  0
 39 38  3  0  0  0  0
M  END
>  <minimizedAffinity>
-6.07731295

>  <minimizedRMSD>
1.03738344

$$$$
