
 OpenBabel03272505123D

 40 43  0  0  0  0  0  0  0  0999 V2000
   34.0440   29.8590   47.4140 S   0  0  0  0  0  0  0  0  0  0  0  0
   36.3960   30.8520   45.6370 Cl  0  0  0  0  0  0  0  0  0  0  0  0
   36.6650   30.7150   47.3540 C   0  0  0  0  0  0  0  0  0  0  0  0
   37.9130   31.0570   47.8350 C   0  0  0  0  0  0  0  0  0  0  0  0
   38.1340   30.9510   49.2040 C   0  0  0  0  0  0  0  0  0  0  0  0
   37.1240   30.5160   50.0270 C   0  0  0  0  0  0  0  0  0  0  0  0
   35.8970   30.1910   49.4780 C   0  0  0  0  0  0  0  0  0  0  0  0
   35.6050   30.2700   48.1390 C   0  0  0  0  0  0  0  0  0  0  0  0
   39.0900   31.2060   49.6170 H   0  0  0  0  0  0  0  0  0  0  0  0
   37.2910   30.4320   51.0930 H   0  0  0  0  0  0  0  0  0  0  0  0
   35.1120   29.8490   50.1450 H   0  0  0  0  0  0  0  0  0  0  0  0
   40.1840   33.3010   46.0890 C   0  0  0  0  0  0  0  0  0  0  0  0
   40.9110   32.4600   45.2180 C   0  0  0  0  0  0  0  0  0  0  0  0
   40.5930   31.0990   45.2550 C   0  0  0  0  0  0  0  0  0  0  0  0
   39.6170   30.6650   46.1100 N   0  0  0  0  0  0  0  0  0  0  0  0
   38.9600   31.5160   46.9150 C   0  0  0  0  0  0  0  0  0  0  0  0
   39.2460   32.8180   46.8990 N   0  0  0  0  0  0  0  0  0  0  0  0
   40.3540   34.3820   46.1400 H   0  0  0  0  0  0  0  0  0  0  0  0
   41.6570   32.9150   44.5890 H   0  0  0  0  0  0  0  0  0  0  0  0
   41.1380   30.4500   44.5980 H   0  0  0  0  0  0  0  0  0  0  0  0
   33.8660   29.0130   44.3910 Cl  0  0  0  0  0  0  0  0  0  0  0  0
   33.8450   27.8270   45.6880 C   0  0  0  0  0  0  0  0  0  0  0  0
   33.9190   28.1070   47.0420 C   0  0  0  0  0  0  0  0  0  0  0  0
   33.8940   27.0860   47.9640 C   0  0  0  0  0  0  0  0  0  0  0  0
   33.7950   25.7910   47.5550 C   0  0  0  0  0  0  0  0  0  0  0  0
   33.7180   25.4510   46.2000 C   0  0  0  0  0  0  0  0  0  0  0  0
   33.7460   26.4880   45.3040 C   0  0  0  0  0  0  0  0  0  0  0  0
   33.9570   27.4070   49.0040 H   0  0  0  0  0  0  0  0  0  0  0  0
   33.7800   25.0350   48.3130 H   0  0  0  0  0  0  0  0  0  0  0  0
   33.6430   24.4150   45.9180 H   0  0  0  0  0  0  0  0  0  0  0  0
   32.3550   25.9980   43.4160 C   0  0  0  0  0  0  0  0  0  0  0  0
   33.6630   26.0720   43.9030 C   0  0  0  0  0  0  0  0  0  0  0  0
   34.7440   25.7660   43.0820 C   0  0  0  0  0  0  0  0  0  0  0  0
   35.7160   25.8470   43.5270 H   0  0  0  0  0  0  0  0  0  0  0  0
   34.4700   25.3910   41.7850 C   0  0  0  0  0  0  0  0  0  0  0  0
   35.3440   25.1620   41.1810 H   0  0  0  0  0  0  0  0  0  0  0  0
   33.1980   25.3050   41.2630 C   0  0  0  0  0  3  0  0  0  0  0  0
   32.1510   25.6160   42.1060 C   0  0  0  0  0  3  0  0  0  0  0  0
   30.2870   26.5650   44.8710 N   0  0  0  0  0  0  0  0  0  0  0  0
   31.2020   26.3060   44.2310 C   0  0  0  0  0  0  0  0  0  0  0  0
  1  8  1  0  0  0  0
  2  3  1  0  0  0  0
  3  4  2  0  0  0  0
  3  8  1  0  0  0  0
  4  5  1  0  0  0  0
  5  9  1  0  0  0  0
  5  6  2  0  0  0  0
  6 10  1  0  0  0  0
  7  6  1  0  0  0  0
  7 11  1  0  0  0  0
  8  7  2  0  0  0  0
 12 18  1  0  0  0  0
 12 17  1  0  0  0  0
 13 14  1  0  0  0  0
 13 12  2  0  0  0  0
 14 15  2  0  0  0  0
 15 16  1  0  0  0  0
 16  4  1  0  0  0  0
 17 16  2  0  0  0  0
 19 13  1  0  0  0  0
 20 14  1  0  0  0  0
 21 22  1  0  0  0  0
 22 23  1  0  0  0  0
 23  1  1  0  0  0  0
 23 24  2  0  0  0  0
 24 28  1  0  0  0  0
 25 24  1  0  0  0  0
 25 29  1  0  0  0  0
 26 25  2  0  0  0  0
 27 22  2  0  0  0  0
 27 26  1  0  0  0  0
 30 26  1  0  0  0  0
 31 32  1  0  0  0  0
 31 40  1  0  0  0  0
 32 27  1  0  0  0  0
 33 34  1  0  0  0  0
 33 32  2  0  0  0  0
 35 33  1  0  0  0  0
 36 35  1  0  0  0  0
 37 35  2  0  0  0  0
 37 38  1  0  0  0  0
 38 31  2  0  0  0  0
 40 39  3  0  0  0  0
M  END
>  <minimizedAffinity>
-5.49173021

>  <minimizedRMSD>
1.24852073

$$$$
