
 OpenBabel03272502393D

 41 44  0  0  1  0  0  0  0  0999 V2000
   32.1270   27.8880   48.3280 N   0  0  0  0  0  0  0  0  0  0  0  0
   32.7450   27.3100   47.1510 C   0  0  0  0  0  0  0  0  0  0  0  0
   34.1100   27.9360   47.1360 C   0  0  0  0  0  0  0  0  0  0  0  0
   34.0610   29.0420   48.2880 C   0  0  1  0  0  0  0  0  0  0  0  0
   33.1950   28.3460   49.2390 C   0  0  0  0  0  0  0  0  0  0  0  0
   32.7890   26.2020   47.2030 H   0  0  0  0  0  0  0  0  0  0  0  0
   32.2100   27.6710   46.2530 H   0  0  0  0  0  0  0  0  0  0  0  0
   34.3660   28.4680   46.2010 H   0  0  0  0  0  0  0  0  0  0  0  0
   34.8720   27.2340   47.4740 H   0  0  0  0  0  0  0  0  0  0  0  0
   33.6280   29.8900   47.7450 H   0  0  0  0  0  0  0  0  0  0  0  0
   33.6440   27.4070   49.6120 H   0  0  0  0  0  0  0  0  0  0  0  0
   32.7680   28.9650   50.0510 H   0  0  0  0  0  0  0  0  0  0  0  0
   35.9380   30.3470   46.6000 F   0  0  0  0  0  0  0  0  0  0  0  0
   36.2420   29.9740   47.8540 C   0  0  0  0  0  0  0  0  0  0  0  0
   35.4330   29.2980   48.7250 C   0  0  0  0  0  0  0  0  0  0  0  0
   35.9410   29.0000   50.0030 C   0  0  0  0  0  0  0  0  0  0  0  0
   37.2030   29.3640   50.3920 C   0  0  0  0  0  0  0  0  0  0  0  0
   38.0130   30.0520   49.4830 C   0  0  0  0  0  0  0  0  0  0  0  0
   37.5140   30.3540   48.2010 C   0  0  0  0  0  0  0  0  0  0  0  0
   35.2400   28.4660   50.6300 H   0  0  0  0  0  0  0  0  0  0  0  0
   37.5130   29.0970   51.3930 H   0  0  0  0  0  0  0  0  0  0  0  0
   39.0040   30.3320   49.7990 H   0  0  0  0  0  0  0  0  0  0  0  0
   38.6880   32.4050   47.6790 C   0  0  0  0  0  0  0  0  0  0  0  0
   38.4380   31.0730   47.3310 C   0  0  0  0  0  0  0  0  0  0  0  0
   39.0540   30.5120   46.2190 C   0  0  0  0  0  0  0  0  0  0  0  0
   38.8250   29.4750   45.9930 H   0  0  0  0  0  0  0  0  0  0  0  0
   39.9080   31.3150   45.4860 C   0  0  0  0  0  0  0  0  0  0  0  0
   40.3720   30.8540   44.6280 H   0  0  0  0  0  0  0  0  0  0  0  0
   40.1510   32.6250   45.8320 C   0  0  0  0  0  3  0  0  0  0  0  0
   39.5460   33.1970   46.9360 C   0  0  0  0  0  3  0  0  0  0  0  0
   37.5270   33.4620   49.7680 N   0  0  0  0  0  0  0  0  0  0  0  0
   38.0490   32.9910   48.8380 C   0  0  0  0  0  0  0  0  0  0  0  0
   30.7480   28.0160   48.5920 C   0  0  0  0  0  0  0  0  0  0  0  0
   29.9430   28.3530   47.4960 C   0  0  0  0  0  0  0  0  0  0  0  0
   28.5620   28.5050   47.6950 C   0  0  0  0  0  0  0  0  0  0  0  0
   28.0970   28.3050   48.9830 N   0  0  0  0  0  0  0  0  0  0  0  0
   28.9020   27.9830   50.0050 C   0  0  0  0  0  0  0  0  0  0  0  0
   30.2370   27.8370   49.8120 N   0  0  0  0  0  0  0  0  0  0  0  0
   30.2480   28.5180   46.4900 H   0  0  0  0  0  0  0  0  0  0  0  0
   27.8810   28.7630   46.8990 H   0  0  0  0  0  0  0  0  0  0  0  0
   28.4250   27.8520   50.9600 H   0  0  0  0  0  0  0  0  0  0  0  0
  1 33  1  0  0  0  0
  1  5  1  0  0  0  0
  2  6  1  0  0  0  0
  2  1  1  0  0  0  0
  3  2  1  0  0  0  0
  3  9  1  0  0  0  0
  3  4  1  0  0  0  0
  4 10  1  6  0  0  0
  4 15  1  0  0  0  0
  4  5  1  0  0  0  0
  5 11  1  0  0  0  0
  5 12  1  0  0  0  0
  7  2  1  0  0  0  0
  8  3  1  0  0  0  0
 13 14  1  0  0  0  0
 14 19  2  0  0  0  0
 14 15  1  0  0  0  0
 15 16  2  0  0  0  0
 16 17  1  0  0  0  0
 16 20  1  0  0  0  0
 17 21  1  0  0  0  0
 18 22  1  0  0  0  0
 18 17  2  0  0  0  0
 19 18  1  0  0  0  0
 23 32  1  0  0  0  0
 24 23  1  0  0  0  0
 24 19  1  0  0  0  0
 25 24  2  0  0  0  0
 26 25  1  0  0  0  0
 27 29  2  0  0  0  0
 27 25  1  0  0  0  0
 28 27  1  0  0  0  0
 29 30  1  0  0  0  0
 30 23  2  0  0  0  0
 32 31  3  0  0  0  0
 33 38  1  0  0  0  0
 34 35  1  0  0  0  0
 34 33  2  0  0  0  0
 35 36  2  0  0  0  0
 36 37  1  0  0  0  0
 37 41  1  0  0  0  0
 38 37  2  0  0  0  0
 39 34  1  0  0  0  0
 40 35  1  0  0  0  0
M  END
>  <minimizedAffinity>
-7.36380053

>  <minimizedRMSD>
3.75551629

$$$$
