
 OpenBabel03272501503D

 21 22  0  0  0  0  0  0  0  0999 V2000
   40.9410   23.0160   36.3810 C   0  0  0  0  0  0  0  0  0  0  0  0
   40.3440   24.0440   35.6090 C   0  0  0  0  0  0  0  0  0  0  0  0
   39.1070   24.5510   36.0280 C   0  0  0  0  0  0  0  0  0  0  0  0
   38.5720   24.0060   37.1630 N   0  0  0  0  0  0  0  0  0  0  0  0
   39.1620   23.0370   37.8680 C   0  0  0  0  0  0  0  0  0  0  0  0
   40.3520   22.5290   37.4900 N   0  0  0  0  0  0  0  0  0  0  0  0
   38.4420   22.6060   39.0170 N   0  0  0  0  0  0  0  0  0  0  0  0
   41.9000   22.6550   36.0160 H   0  0  0  0  0  0  0  0  0  0  0  0
   40.8050   24.4280   34.7370 H   0  0  0  0  0  0  0  0  0  0  0  0
   38.9790   22.9300   39.8460 H   0  0  0  0  0  0  0  0  0  0  0  0
   37.5530   22.0730   39.1510 H   0  0  0  0  0  0  0  0  0  0  0  0
   37.8170   25.3160   34.1050 C   0  0  0  0  0  0  0  0  0  0  0  0
   38.3970   25.6060   35.3190 C   0  0  0  0  0  0  0  0  0  0  0  0
   38.2710   26.8900   35.7980 C   0  0  0  0  0  0  0  0  0  0  0  0
   38.7100   27.1630   36.7450 H   0  0  0  0  0  0  0  0  0  0  0  0
   37.5960   27.8900   35.1220 C   0  0  0  0  0  0  0  0  0  0  0  0
   37.5150   28.8910   35.5260 H   0  0  0  0  0  0  0  0  0  0  0  0
   37.0320   27.5600   33.9150 C   0  0  0  0  0  3  0  0  0  0  0  0
   37.1230   26.2920   33.3840 C   0  0  0  0  0  3  0  0  0  0  0  0
   37.9680   22.9110   33.0530 N   0  0  0  0  0  0  0  0  0  0  0  0
   37.9050   23.9830   33.5330 C   0  0  0  0  0  0  0  0  0  0  0  0
  1  6  1  0  0  0  0
  2  3  1  0  0  0  0
  2  1  2  0  0  0  0
  3  4  2  0  0  0  0
  4  5  1  0  0  0  0
  5  7  1  0  0  0  0
  6  5  2  0  0  0  0
  7 11  1  0  0  0  0
  7 10  1  0  0  0  0
  8  1  1  0  0  0  0
  9  2  1  0  0  0  0
 12 13  1  0  0  0  0
 13 14  2  0  0  0  0
 13  3  1  0  0  0  0
 14 15  1  0  0  0  0
 16 17  1  0  0  0  0
 16 14  1  0  0  0  0
 18 16  2  0  0  0  0
 19 18  1  0  0  0  0
 19 12  2  0  0  0  0
 20 21  3  0  0  0  0
 21 12  1  0  0  0  0
M  END
>  <minimizedAffinity>
-4.66510916

$$$$

 OpenBabel03272501503D

 21 22  0  0  0  0  0  0  0  0999 V2000
   30.1120   29.3660   34.6350 C   0  0  0  0  0  0  0  0  0  0  0  0
   31.2110   30.2540   34.7470 C   0  0  0  0  0  0  0  0  0  0  0  0
   32.2860   29.8740   35.5620 C   0  0  0  0  0  0  0  0  0  0  0  0
   32.1840   28.6610   36.1870 N   0  0  0  0  0  0  0  0  0  0  0  0
   31.1330   27.8480   36.0580 C   0  0  0  0  0  0  0  0  0  0  0  0
   30.0840   28.1860   35.2830 N   0  0  0  0  0  0  0  0  0  0  0  0
   31.2210   26.6320   36.7920 N   0  0  0  0  0  0  0  0  0  0  0  0
   29.3020   29.7050   33.9920 H   0  0  0  0  0  0  0  0  0  0  0  0
   31.2350   31.1820   34.2380 H   0  0  0  0  0  0  0  0  0  0  0  0
   31.3360   25.8690   36.0960 H   0  0  0  0  0  0  0  0  0  0  0  0
   31.1910   26.4030   37.8110 H   0  0  0  0  0  0  0  0  0  0  0  0
   34.5000   30.6070   34.8480 C   0  0  0  0  0  0  0  0  0  0  0  0
   33.4690   30.6990   35.7550 C   0  0  0  0  0  0  0  0  0  0  0  0
   33.6180   31.5770   36.8050 C   0  0  0  0  0  0  0  0  0  0  0  0
   32.8350   31.6820   37.5410 H   0  0  0  0  0  0  0  0  0  0  0  0
   34.7430   32.3610   36.9860 C   0  0  0  0  0  0  0  0  0  0  0  0
   34.8290   33.0410   37.8230 H   0  0  0  0  0  0  0  0  0  0  0  0
   35.7480   32.2380   36.0590 C   0  0  0  0  0  3  0  0  0  0  0  0
   35.6570   31.3780   34.9880 C   0  0  0  0  0  3  0  0  0  0  0  0
   34.3600   28.9870   32.7820 N   0  0  0  0  0  0  0  0  0  0  0  0
   34.4180   29.7040   33.7120 C   0  0  0  0  0  0  0  0  0  0  0  0
  1  2  2  0  0  0  0
  1  6  1  0  0  0  0
  2  3  1  0  0  0  0
  3 13  1  0  0  0  0
  3  4  2  0  0  0  0
  5  4  1  0  0  0  0
  5  7  1  0  0  0  0
  6  5  2  0  0  0  0
  7 11  1  0  0  0  0
  8  1  1  0  0  0  0
  9  2  1  0  0  0  0
 10  7  1  0  0  0  0
 12 19  2  0  0  0  0
 12 13  1  0  0  0  0
 13 14  2  0  0  0  0
 14 16  1  0  0  0  0
 14 15  1  0  0  0  0
 16 17  1  0  0  0  0
 18 16  2  0  0  0  0
 19 18  1  0  0  0  0
 20 21  3  0  0  0  0
 21 12  1  0  0  0  0
M  END
>  <minimizedAffinity>
-4.59814644

$$$$

 OpenBabel03272501503D

 21 22  0  0  0  0  0  0  0  0999 V2000
   37.8290   24.1010   38.0160 C   0  0  0  0  0  0  0  0  0  0  0  0
   38.0490   24.8820   36.8540 C   0  0  0  0  0  0  0  0  0  0  0  0
   39.1530   24.5720   36.0480 C   0  0  0  0  0  0  0  0  0  0  0  0
   39.9360   23.5260   36.4550 N   0  0  0  0  0  0  0  0  0  0  0  0
   39.6990   22.8090   37.5570 C   0  0  0  0  0  0  0  0  0  0  0  0
   38.6460   23.0840   38.3520 N   0  0  0  0  0  0  0  0  0  0  0  0
   40.6310   21.7630   37.8050 N   0  0  0  0  0  0  0  0  0  0  0  0
   36.9610   24.3790   38.6080 H   0  0  0  0  0  0  0  0  0  0  0  0
   37.4080   25.6820   36.5880 H   0  0  0  0  0  0  0  0  0  0  0  0
   40.1270   20.8690   37.6490 H   0  0  0  0  0  0  0  0  0  0  0  0
   41.6370   21.7490   38.0900 H   0  0  0  0  0  0  0  0  0  0  0  0
   39.0210   24.8250   33.6260 C   0  0  0  0  0  0  0  0  0  0  0  0
   39.4820   25.3010   34.8320 C   0  0  0  0  0  0  0  0  0  0  0  0
   40.2350   26.4520   34.8190 C   0  0  0  0  0  0  0  0  0  0  0  0
   40.6180   26.8630   35.7410 H   0  0  0  0  0  0  0  0  0  0  0  0
   40.5460   27.1440   33.6620 C   0  0  0  0  0  0  0  0  0  0  0  0
   41.1410   28.0470   33.6850 H   0  0  0  0  0  0  0  0  0  0  0  0
   40.0670   26.6350   32.4800 C   0  0  0  0  0  3  0  0  0  0  0  0
   39.3070   25.4870   32.4300 C   0  0  0  0  0  3  0  0  0  0  0  0
   37.5580   22.6440   33.4880 N   0  0  0  0  0  0  0  0  0  0  0  0
   38.2180   23.6150   33.5570 C   0  0  0  0  0  0  0  0  0  0  0  0
  1  6  1  0  0  0  0
  1  8  1  0  0  0  0
  2  1  2  0  0  0  0
  3  4  2  0  0  0  0
  3  2  1  0  0  0  0
  4  5  1  0  0  0  0
  5  7  1  0  0  0  0
  5  6  2  0  0  0  0
  7 11  1  0  0  0  0
  9  2  1  0  0  0  0
 10  7  1  0  0  0  0
 12 13  1  0  0  0  0
 13  3  1  0  0  0  0
 14 13  2  0  0  0  0
 14 15  1  0  0  0  0
 16 17  1  0  0  0  0
 16 14  1  0  0  0  0
 18 16  2  0  0  0  0
 19 18  1  0  0  0  0
 19 12  2  0  0  0  0
 20 21  3  0  0  0  0
 21 12  1  0  0  0  0
M  END
>  <minimizedAffinity>
-4.57203388

$$$$

 OpenBabel03272501503D

 21 22  0  0  0  0  0  0  0  0999 V2000
   36.6080   27.9860   32.7480 C   0  0  0  0  0  0  0  0  0  0  0  0
   36.0730   28.5880   33.9140 C   0  0  0  0  0  0  0  0  0  0  0  0
   35.5010   29.8620   33.7960 C   0  0  0  0  0  0  0  0  0  0  0  0
   35.5050   30.4240   32.5490 N   0  0  0  0  0  0  0  0  0  0  0  0
   36.0180   29.8280   31.4700 C   0  0  0  0  0  0  0  0  0  0  0  0
   36.5760   28.6040   31.5520 N   0  0  0  0  0  0  0  0  0  0  0  0
   35.9240   30.5810   30.2660 N   0  0  0  0  0  0  0  0  0  0  0  0
   37.0410   26.9980   32.8890 H   0  0  0  0  0  0  0  0  0  0  0  0
   36.0980   28.1040   34.8550 H   0  0  0  0  0  0  0  0  0  0  0  0
   35.2330   30.0940   29.6620 H   0  0  0  0  0  0  0  0  0  0  0  0
   36.3880   31.4530   29.9250 H   0  0  0  0  0  0  0  0  0  0  0  0
   33.5690   30.4680   35.1560 C   0  0  0  0  0  0  0  0  0  0  0  0
   34.9200   30.5810   34.9210 C   0  0  0  0  0  0  0  0  0  0  0  0
   35.6520   31.3760   35.7730 C   0  0  0  0  0  0  0  0  0  0  0  0
   36.7160   31.4950   35.6270 H   0  0  0  0  0  0  0  0  0  0  0  0
   35.0980   32.0580   36.8410 C   0  0  0  0  0  0  0  0  0  0  0  0
   35.7020   32.6760   37.4920 H   0  0  0  0  0  0  0  0  0  0  0  0
   33.7470   31.9190   37.0400 C   0  0  0  0  0  3  0  0  0  0  0  0
   32.9620   31.1370   36.2220 C   0  0  0  0  0  3  0  0  0  0  0  0
   32.0500   28.9940   33.5950 N   0  0  0  0  0  0  0  0  0  0  0  0
   32.7270   29.6470   34.3010 C   0  0  0  0  0  0  0  0  0  0  0  0
  1  8  1  0  0  0  0
  1  2  1  0  0  0  0
  2  9  1  0  0  0  0
  3  2  2  0  0  0  0
  3 13  1  0  0  0  0
  4  3  1  0  0  0  0
  5  6  1  0  0  0  0
  5  4  2  0  0  0  0
  6  1  2  0  0  0  0
  7  5  1  0  0  0  0
 10  7  1  0  0  0  0
 11  7  1  0  0  0  0
 12 19  1  0  0  0  0
 13 12  2  0  0  0  0
 13 14  1  0  0  0  0
 14 16  2  0  0  0  0
 15 14  1  0  0  0  0
 16 18  1  0  0  0  0
 16 17  1  0  0  0  0
 19 18  2  0  0  0  0
 20 21  3  0  0  0  0
 21 12  1  0  0  0  0
M  END
>  <minimizedAffinity>
-4.41551924

$$$$

 OpenBabel03272501503D

 21 22  0  0  0  0  0  0  0  0999 V2000
   37.6930   25.2940   33.6570 C   0  0  0  0  0  0  0  0  0  0  0  0
   38.5790   24.2810   34.1010 C   0  0  0  0  0  0  0  0  0  0  0  0
   39.3720   24.5430   35.2260 C   0  0  0  0  0  0  0  0  0  0  0  0
   39.2200   25.7710   35.8110 N   0  0  0  0  0  0  0  0  0  0  0  0
   38.3740   26.7030   35.3670 C   0  0  0  0  0  0  0  0  0  0  0  0
   37.5990   26.4810   34.2870 N   0  0  0  0  0  0  0  0  0  0  0  0
   38.3660   27.9130   36.1150 N   0  0  0  0  0  0  0  0  0  0  0  0
   37.0990   25.0440   32.7800 H   0  0  0  0  0  0  0  0  0  0  0  0
   38.6540   23.3480   33.6070 H   0  0  0  0  0  0  0  0  0  0  0  0
   37.4540   27.9530   36.6120 H   0  0  0  0  0  0  0  0  0  0  0  0
   39.0560   28.6890   36.2360 H   0  0  0  0  0  0  0  0  0  0  0  0
   39.9900   22.9140   36.9320 C   0  0  0  0  0  0  0  0  0  0  0  0
   40.3180   23.5830   35.7750 C   0  0  0  0  0  0  0  0  0  0  0  0
   41.5350   23.3030   35.1980 C   0  0  0  0  0  0  0  0  0  0  0  0
   41.8350   23.8040   34.2900 H   0  0  0  0  0  0  0  0  0  0  0  0
   42.4320   22.3900   35.7210 C   0  0  0  0  0  0  0  0  0  0  0  0
   43.3820   22.1910   35.2430 H   0  0  0  0  0  0  0  0  0  0  0  0
   42.0670   21.7440   36.8770 C   0  0  0  0  0  3  0  0  0  0  0  0
   40.8620   21.9820   37.5000 C   0  0  0  0  0  3  0  0  0  0  0  0
   37.6950   23.3660   38.1350 N   0  0  0  0  0  0  0  0  0  0  0  0
   38.7220   23.1540   37.6020 C   0  0  0  0  0  0  0  0  0  0  0  0
  1  2  2  0  0  0  0
  1  6  1  0  0  0  0
  2  3  1  0  0  0  0
  3 13  1  0  0  0  0
  3  4  2  0  0  0  0
  5  4  1  0  0  0  0
  5  7  1  0  0  0  0
  6  5  2  0  0  0  0
  7 11  1  0  0  0  0
  7 10  1  0  0  0  0
  8  1  1  0  0  0  0
  9  2  1  0  0  0  0
 12 19  1  0  0  0  0
 12 21  1  0  0  0  0
 13 12  2  0  0  0  0
 14 16  2  0  0  0  0
 14 13  1  0  0  0  0
 15 14  1  0  0  0  0
 16 18  1  0  0  0  0
 17 16  1  0  0  0  0
 18 19  2  0  0  0  0
 21 20  3  0  0  0  0
M  END
>  <minimizedAffinity>
-4.36364746

$$$$

 OpenBabel03272501503D

 21 22  0  0  0  0  0  0  0  0999 V2000
   41.2320   23.0040   36.3400 C   0  0  0  0  0  0  0  0  0  0  0  0
   40.5140   23.4560   35.2040 C   0  0  0  0  0  0  0  0  0  0  0  0
   39.1360   23.6740   35.3370 C   0  0  0  0  0  0  0  0  0  0  0  0
   38.5920   23.4310   36.5690 N   0  0  0  0  0  0  0  0  0  0  0  0
   39.2990   23.0060   37.6190 C   0  0  0  0  0  0  0  0  0  0  0  0
   40.6250   22.7870   37.5220 N   0  0  0  0  0  0  0  0  0  0  0  0
   38.5460   22.8130   38.8110 N   0  0  0  0  0  0  0  0  0  0  0  0
   42.2980   22.8500   36.1880 H   0  0  0  0  0  0  0  0  0  0  0  0
   40.9900   23.6270   34.2740 H   0  0  0  0  0  0  0  0  0  0  0  0
   38.8380   23.5570   39.4750 H   0  0  0  0  0  0  0  0  0  0  0  0
   37.8210   22.1170   39.0990 H   0  0  0  0  0  0  0  0  0  0  0  0
   37.9800   25.4740   34.1670 C   0  0  0  0  0  0  0  0  0  0  0  0
   38.2940   24.1360   34.2440 C   0  0  0  0  0  0  0  0  0  0  0  0
   37.7880   23.3040   33.2720 C   0  0  0  0  0  0  0  0  0  0  0  0
   38.0070   22.2470   33.2920 H   0  0  0  0  0  0  0  0  0  0  0  0
   36.9880   23.7460   32.2340 C   0  0  0  0  0  0  0  0  0  0  0  0
   36.6050   23.0650   31.4850 H   0  0  0  0  0  0  0  0  0  0  0  0
   36.6980   25.0870   32.1930 C   0  0  0  0  0  3  0  0  0  0  0  0
   37.1760   25.9700   33.1370 C   0  0  0  0  0  3  0  0  0  0  0  0
   38.8800   27.1650   35.9670 N   0  0  0  0  0  0  0  0  0  0  0  0
   38.4770   26.4170   35.1550 C   0  0  0  0  0  0  0  0  0  0  0  0
  1  6  1  0  0  0  0
  2  3  1  0  0  0  0
  2  1  2  0  0  0  0
  3  4  2  0  0  0  0
  4  5  1  0  0  0  0
  5  7  1  0  0  0  0
  6  5  2  0  0  0  0
  7 11  1  0  0  0  0
  7 10  1  0  0  0  0
  8  1  1  0  0  0  0
  9  2  1  0  0  0  0
 12 13  1  0  0  0  0
 12 21  1  0  0  0  0
 13  3  1  0  0  0  0
 14 15  1  0  0  0  0
 14 13  2  0  0  0  0
 16 14  1  0  0  0  0
 17 16  1  0  0  0  0
 18 16  2  0  0  0  0
 18 19  1  0  0  0  0
 19 12  2  0  0  0  0
 21 20  3  0  0  0  0
M  END
>  <minimizedAffinity>
-4.3344574

$$$$

 OpenBabel03272501503D

 21 22  0  0  0  0  0  0  0  0999 V2000
   37.9940   24.2000   38.0180 C   0  0  0  0  0  0  0  0  0  0  0  0
   37.7570   24.4210   36.6390 C   0  0  0  0  0  0  0  0  0  0  0  0
   38.5370   23.7150   35.7130 C   0  0  0  0  0  0  0  0  0  0  0  0
   39.4740   22.8600   36.2250 N   0  0  0  0  0  0  0  0  0  0  0  0
   39.6720   22.6750   37.5320 C   0  0  0  0  0  0  0  0  0  0  0  0
   38.9380   23.3390   38.4470 N   0  0  0  0  0  0  0  0  0  0  0  0
   40.6950   21.7420   37.8590 N   0  0  0  0  0  0  0  0  0  0  0  0
   37.3640   24.7700   38.6980 H   0  0  0  0  0  0  0  0  0  0  0  0
   37.0160   25.0970   36.3000 H   0  0  0  0  0  0  0  0  0  0  0  0
   40.2240   20.9090   38.2620 H   0  0  0  0  0  0  0  0  0  0  0  0
   41.7370   21.7560   37.7700 H   0  0  0  0  0  0  0  0  0  0  0  0
   38.9770   24.9300   33.6440 C   0  0  0  0  0  0  0  0  0  0  0  0
   38.3860   23.8570   34.2720 C   0  0  0  0  0  0  0  0  0  0  0  0
   37.6790   22.9710   33.4930 C   0  0  0  0  0  0  0  0  0  0  0  0
   37.1990   22.1140   33.9410 H   0  0  0  0  0  0  0  0  0  0  0  0
   37.5370   23.1080   32.1240 C   0  0  0  0  0  0  0  0  0  0  0  0
   36.9740   22.3930   31.5380 H   0  0  0  0  0  0  0  0  0  0  0  0
   38.1410   24.1920   31.5360 C   0  0  0  0  0  3  0  0  0  0  0  0
   38.8630   25.1130   32.2640 C   0  0  0  0  0  3  0  0  0  0  0  0
   40.3580   26.6910   35.0240 N   0  0  0  0  0  0  0  0  0  0  0  0
   39.7410   25.9100   34.3980 C   0  0  0  0  0  0  0  0  0  0  0  0
  1  6  1  0  0  0  0
  1  8  1  0  0  0  0
  2  1  2  0  0  0  0
  3  4  2  0  0  0  0
  3  2  1  0  0  0  0
  4  5  1  0  0  0  0
  5  7  1  0  0  0  0
  5  6  2  0  0  0  0
  7 10  1  0  0  0  0
  9  2  1  0  0  0  0
 11  7  1  0  0  0  0
 12 13  1  0  0  0  0
 12 21  1  0  0  0  0
 13  3  1  0  0  0  0
 14 15  1  0  0  0  0
 14 13  2  0  0  0  0
 16 14  1  0  0  0  0
 17 16  1  0  0  0  0
 18 16  2  0  0  0  0
 18 19  1  0  0  0  0
 19 12  2  0  0  0  0
 21 20  3  0  0  0  0
M  END
>  <minimizedAffinity>
-4.28497553

$$$$

 OpenBabel03272501503D

 21 22  0  0  0  0  0  0  0  0999 V2000
   38.7910   27.1250   33.3110 C   0  0  0  0  0  0  0  0  0  0  0  0
   39.0590   26.5160   34.5610 C   0  0  0  0  0  0  0  0  0  0  0  0
   38.4590   25.2800   34.8370 C   0  0  0  0  0  0  0  0  0  0  0  0
   37.6540   24.7580   33.8620 N   0  0  0  0  0  0  0  0  0  0  0  0
   37.4230   25.3590   32.6920 C   0  0  0  0  0  0  0  0  0  0  0  0
   37.9850   26.5480   32.3990 N   0  0  0  0  0  0  0  0  0  0  0  0
   36.5550   24.6510   31.8140 N   0  0  0  0  0  0  0  0  0  0  0  0
   39.2790   28.0830   33.1420 H   0  0  0  0  0  0  0  0  0  0  0  0
   39.6930   26.9690   35.2790 H   0  0  0  0  0  0  0  0  0  0  0  0
   37.1390   24.3140   31.0230 H   0  0  0  0  0  0  0  0  0  0  0  0
   35.5330   24.4350   31.8320 H   0  0  0  0  0  0  0  0  0  0  0  0
   39.6520   23.6070   36.1510 C   0  0  0  0  0  0  0  0  0  0  0  0
   38.6590   24.5580   36.0850 C   0  0  0  0  0  0  0  0  0  0  0  0
   37.9050   24.7750   37.2150 C   0  0  0  0  0  0  0  0  0  0  0  0
   37.1150   25.5110   37.2100 H   0  0  0  0  0  0  0  0  0  0  0  0
   38.0970   24.0880   38.4000 C   0  0  0  0  0  0  0  0  0  0  0  0
   37.4870   24.2810   39.2720 H   0  0  0  0  0  0  0  0  0  0  0  0
   39.0970   23.1470   38.4240 C   0  0  0  0  0  3  0  0  0  0  0  0
   39.8860   22.8870   37.3250 C   0  0  0  0  0  3  0  0  0  0  0  0
   41.1870   23.0970   34.0780 N   0  0  0  0  0  0  0  0  0  0  0  0
   40.4920   23.3210   35.0000 C   0  0  0  0  0  0  0  0  0  0  0  0
  1  2  1  0  0  0  0
  2  3  2  0  0  0  0
  2  9  1  0  0  0  0
  3 13  1  0  0  0  0
  4  3  1  0  0  0  0
  5  4  2  0  0  0  0
  6  5  1  0  0  0  0
  6  1  2  0  0  0  0
  7 11  1  0  0  0  0
  7  5  1  0  0  0  0
  8  1  1  0  0  0  0
 10  7  1  0  0  0  0
 12 19  1  0  0  0  0
 13 12  2  0  0  0  0
 13 14  1  0  0  0  0
 14 16  2  0  0  0  0
 15 14  1  0  0  0  0
 16 18  1  0  0  0  0
 16 17  1  0  0  0  0
 19 18  2  0  0  0  0
 20 21  3  0  0  0  0
 21 12  1  0  0  0  0
M  END
>  <minimizedAffinity>
-4.14859724

$$$$

 OpenBabel03272501503D

 21 22  0  0  0  0  0  0  0  0999 V2000
   40.6100   24.9020   32.2920 C   0  0  0  0  0  0  0  0  0  0  0  0
   39.9620   24.3040   33.4020 C   0  0  0  0  0  0  0  0  0  0  0  0
   40.2410   24.8080   34.6800 C   0  0  0  0  0  0  0  0  0  0  0  0
   41.1260   25.8490   34.7490 N   0  0  0  0  0  0  0  0  0  0  0  0
   41.7180   26.3900   33.6820 C   0  0  0  0  0  0  0  0  0  0  0  0
   41.4710   25.9270   32.4410 N   0  0  0  0  0  0  0  0  0  0  0  0
   42.6060   27.4650   33.9680 N   0  0  0  0  0  0  0  0  0  0  0  0
   40.3610   24.4780   31.3220 H   0  0  0  0  0  0  0  0  0  0  0  0
   39.2850   23.4990   33.2870 H   0  0  0  0  0  0  0  0  0  0  0  0
   42.1570   28.3290   33.6050 H   0  0  0  0  0  0  0  0  0  0  0  0
   43.5400   27.5220   34.4340 H   0  0  0  0  0  0  0  0  0  0  0  0
   38.4360   24.7940   36.3200 C   0  0  0  0  0  0  0  0  0  0  0  0
   39.6390   24.2770   35.8940 C   0  0  0  0  0  0  0  0  0  0  0  0
   40.2090   23.2780   36.6490 C   0  0  0  0  0  0  0  0  0  0  0  0
   41.1520   22.8430   36.3530 H   0  0  0  0  0  0  0  0  0  0  0  0
   39.6340   22.7750   37.8020 C   0  0  0  0  0  0  0  0  0  0  0  0
   40.1080   21.9880   38.3740 H   0  0  0  0  0  0  0  0  0  0  0  0
   38.4350   23.3170   38.1920 C   0  0  0  0  0  3  0  0  0  0  0  0
   37.8150   24.3190   37.4780 C   0  0  0  0  0  3  0  0  0  0  0  0
   37.2490   26.7160   34.9760 N   0  0  0  0  0  0  0  0  0  0  0  0
   37.7710   25.8510   35.5760 C   0  0  0  0  0  0  0  0  0  0  0  0
  1  6  2  0  0  0  0
  1  2  1  0  0  0  0
  2  3  2  0  0  0  0
  3  4  1  0  0  0  0
  3 13  1  0  0  0  0
  5  7  1  0  0  0  0
  5  4  2  0  0  0  0
  6  5  1  0  0  0  0
  7 11  1  0  0  0  0
  8  1  1  0  0  0  0
  9  2  1  0  0  0  0
 10  7  1  0  0  0  0
 12 19  1  0  0  0  0
 13 12  2  0  0  0  0
 13 14  1  0  0  0  0
 14 16  2  0  0  0  0
 15 14  1  0  0  0  0
 16 18  1  0  0  0  0
 16 17  1  0  0  0  0
 19 18  2  0  0  0  0
 20 21  3  0  0  0  0
 21 12  1  0  0  0  0
M  END
>  <minimizedAffinity>
-4.14091015

$$$$
