
 OpenBabel03272502183D

 34 36  0  0  1  0  0  0  0  0999 V2000
   37.0310   30.4190   48.9690 C   0  0  0  0  0  0  0  0  0  0  0  0
   37.0460   31.6070   49.7400 C   0  0  0  0  0  0  0  0  0  0  0  0
   37.7760   32.6980   49.2670 C   0  0  0  0  0  0  0  0  0  0  0  0
   38.4470   32.5510   48.0630 N   0  0  0  0  0  0  0  0  0  0  0  0
   38.3990   31.4070   47.3740 C   0  0  0  0  0  0  0  0  0  0  0  0
   37.7040   30.3650   47.8230 N   0  0  0  0  0  0  0  0  0  0  0  0
   36.5380   31.7630   50.6830 H   0  0  0  0  0  0  0  0  0  0  0  0
   37.8090   33.6220   49.8300 H   0  0  0  0  0  0  0  0  0  0  0  0
   38.4050   30.9230   44.9550 C   0  0  0  0  0  0  0  0  0  0  0  0
   39.1080   31.2590   46.1050 C   0  0  0  0  0  0  0  0  0  0  0  0
   40.4730   31.4570   46.0640 C   0  0  0  0  0  0  0  0  0  0  0  0
   41.0390   31.7220   46.9640 H   0  0  0  0  0  0  0  0  0  0  0  0
   41.1480   31.3190   44.8710 C   0  0  0  0  0  0  0  0  0  0  0  0
   42.2330   31.4700   44.8070 H   0  0  0  0  0  0  0  0  0  0  0  0
   40.4870   30.9830   43.6890 C   0  0  0  0  0  3  0  0  0  0  0  0
   39.1130   30.7900   43.7580 C   0  0  0  0  0  3  0  0  0  0  0  0
   35.8300   30.5330   44.9560 N   0  0  0  0  0  0  0  0  0  0  0  0
   36.9760   30.7090   44.9650 C   0  0  0  0  0  0  0  0  0  0  0  0
   36.0600   29.1450   49.7180 S   0  0  0  0  0  0  0  0  0  0  0  0
   33.6640   28.0440   49.1350 N   0  0  0  0  0  0  0  0  0  0  0  0
   34.2840   29.3400   49.3000 C   0  0  2  0  0  0  0  0  0  0  0  0
   34.1650   30.1040   48.0090 C   0  0  0  0  0  0  0  0  0  0  0  0
   33.1740   29.5300   47.1780 O   0  0  0  0  0  0  0  0  0  0  0  0
   33.7080   28.3020   46.7740 C   0  0  0  0  0  0  0  0  0  0  0  0
   34.1700   27.4570   47.9250 C   0  0  2  0  0  0  0  0  0  0  0  0
   32.6460   28.1480   49.1890 H   0  0  0  0  0  0  0  0  0  0  0  0
   33.7980   29.9530   50.0890 H   0  0  0  0  0  0  0  0  0  0  0  0
   35.1450   30.1590   47.4910 H   0  0  0  0  0  0  0  0  0  0  0  0
   33.8440   31.1600   48.1820 H   0  0  0  0  0  0  0  0  0  0  0  0
   33.0280   27.7370   46.1100 H   0  0  0  0  0  0  0  0  0  0  0  0
   34.6070   28.5640   46.1650 H   0  0  0  0  0  0  0  0  0  0  0  0
   35.2580   27.3790   48.0010 H   0  0  0  0  0  0  0  0  0  0  0  0
   33.6480   26.1500   47.8070 O   0  0  0  0  0  0  0  0  0  0  0  0
   32.6610   26.2150   47.7570 H   0  0  0  0  0  0  0  0  0  0  0  0
  1 19  1  0  0  0  0
  1  2  1  0  0  0  0
  2  7  1  0  0  0  0
  3  2  2  0  0  0  0
  3  8  1  0  0  0  0
  4  3  1  0  0  0  0
  5  6  1  0  0  0  0
  5  4  2  0  0  0  0
  6  1  2  0  0  0  0
  9 18  1  0  0  0  0
  9 10  1  0  0  0  0
 10  5  1  0  0  0  0
 11 10  2  0  0  0  0
 11 12  1  0  0  0  0
 13 11  1  0  0  0  0
 14 13  1  0  0  0  0
 15 16  1  0  0  0  0
 15 13  2  0  0  0  0
 16  9  2  0  0  0  0
 17 18  3  0  0  0  0
 20 26  1  0  0  0  0
 20 21  1  0  0  0  0
 21 19  1  0  0  0  0
 21 27  1  1  0  0  0
 22 29  1  0  0  0  0
 22 21  1  0  0  0  0
 23 22  1  0  0  0  0
 24 23  1  0  0  0  0
 24 25  1  0  0  0  0
 25 32  1  1  0  0  0
 25 20  1  0  0  0  0
 28 22  1  0  0  0  0
 30 24  1  0  0  0  0
 31 24  1  0  0  0  0
 33 25  1  0  0  0  0
 34 33  1  0  0  0  0
M  END
>  <minimizedAffinity>
-5.50525379

>  <minimizedRMSD>
1.88270855

$$$$
