
 OpenBabel03272503273D

 31 33  0  0  1  0  0  0  0  0999 V2000
   34.3060   29.2240   47.2830 N   0  0  0  0  0  0  0  0  0  0  0  0
   35.5080   29.9370   46.9300 C   0  0  0  0  0  0  0  0  0  0  0  0
   36.3830   29.7660   48.1550 C   0  0  2  0  0  0  0  0  0  0  0  0
   35.5200   29.0700   49.1880 C   0  0  0  0  0  0  0  0  0  0  0  0
   34.6880   28.1950   48.2450 C   0  0  0  0  0  0  0  0  0  0  0  0
   35.9570   29.4650   46.0330 H   0  0  0  0  0  0  0  0  0  0  0  0
   35.3010   31.0060   46.8420 H   0  0  0  0  0  0  0  0  0  0  0  0
   37.2310   29.0490   47.9610 H   0  0  0  0  0  0  0  0  0  0  0  0
   34.7930   29.7290   49.6830 H   0  0  0  0  0  0  0  0  0  0  0  0
   36.1150   28.4490   49.8610 H   0  0  0  0  0  0  0  0  0  0  0  0
   33.8070   27.7940   48.7860 H   0  0  0  0  0  0  0  0  0  0  0  0
   35.3200   27.4430   47.7600 H   0  0  0  0  0  0  0  0  0  0  0  0
   32.9940   29.4620   46.7980 C   0  0  0  0  0  0  0  0  0  0  0  0
   32.8140   30.6240   46.0220 C   0  0  0  0  0  0  0  0  0  0  0  0
   31.5320   30.8930   45.5260 C   0  0  0  0  0  0  0  0  0  0  0  0
   30.5330   30.0000   45.8300 N   0  0  0  0  0  0  0  0  0  0  0  0
   30.7530   28.8960   46.5780 C   0  0  0  0  0  0  0  0  0  0  0  0
   31.9980   28.6300   47.0650 N   0  0  0  0  0  0  0  0  0  0  0  0
   33.5790   31.3430   45.7680 H   0  0  0  0  0  0  0  0  0  0  0  0
   31.3150   31.7700   44.9200 H   0  0  0  0  0  0  0  0  0  0  0  0
   29.9230   28.2290   46.7840 H   0  0  0  0  0  0  0  0  0  0  0  0
   38.0430   31.5520   47.9060 C   0  0  0  0  0  0  0  0  0  0  0  0
   36.9710   31.0250   48.6210 C   0  0  0  0  0  0  0  0  0  0  0  0
   36.5790   31.7730   49.7160 C   0  0  0  0  0  0  0  0  0  0  0  0
   35.7480   31.3800   50.2840 H   0  0  0  0  0  0  0  0  0  0  0  0
   37.1990   32.9520   50.0770 C   0  0  0  0  0  0  0  0  0  0  0  0
   36.8430   33.5060   50.9580 H   0  0  0  0  0  0  0  0  0  0  0  0
   38.2530   33.4230   49.3320 C   0  0  0  0  0  0  0  0  0  0  0  0
   38.7050   32.7240   48.2150 C   0  0  0  0  0  0  0  0  0  0  0  0
   38.9170   30.2750   45.8020 N   0  0  0  0  0  0  0  0  0  0  0  0
   38.5250   30.8310   46.7370 C   0  0  0  0  0  0  0  0  0  0  0  0
  1  5  1  0  0  0  0
  2  1  1  0  0  0  0
  2  3  1  0  0  0  0
  3  8  1  6  0  0  0
  3 23  1  0  0  0  0
  3  4  1  0  0  0  0
  4  9  1  0  0  0  0
  4 10  1  0  0  0  0
  5 11  1  0  0  0  0
  5  4  1  0  0  0  0
  6  2  1  0  0  0  0
  7  2  1  0  0  0  0
 12  5  1  0  0  0  0
 13 18  1  0  0  0  0
 13  1  1  0  0  0  0
 14 13  2  0  0  0  0
 15 16  2  0  0  0  0
 15 14  1  0  0  0  0
 16 17  1  0  0  0  0
 17 21  1  0  0  0  0
 17 18  2  0  0  0  0
 19 14  1  0  0  0  0
 20 15  1  0  0  0  0
 22 29  2  0  0  0  0
 22 23  1  0  0  0  0
 23 24  2  0  0  0  0
 24 26  1  0  0  0  0
 24 25  1  0  0  0  0
 26 27  1  0  0  0  0
 28 26  2  0  0  0  0
 29 28  1  0  0  0  0
 30 31  3  0  0  0  0
 31 22  1  0  0  0  0
M  END
>  <minimizedAffinity>
-5.37671423

>  <minimizedRMSD>
2.88637018

$$$$
