
 OpenBabel03272504503D

 43 46  0  0  1  0  0  0  0  0999 V2000
   36.9090   31.0430   45.3100 N   0  0  0  0  0  0  0  0  0  0  0  0
   36.6910   30.5220   46.6530 C   0  0  0  0  0  0  0  0  0  0  0  0
   37.8980   30.6200   47.5290 C   0  0  0  0  0  0  0  0  0  0  0  0
   38.6410   31.9110   47.2520 C   0  0  0  0  0  0  0  0  0  0  0  0
   39.1930   31.7980   45.8650 C   0  0  0  0  0  0  0  0  0  0  0  0
   38.1330   31.5930   44.8220 C   0  0  1  0  0  0  0  0  0  0  0  0
   36.4150   29.4600   46.5460 H   0  0  0  0  0  0  0  0  0  0  0  0
   35.8810   31.0990   47.1770 H   0  0  0  0  0  0  0  0  0  0  0  0
   37.5910   30.6520   48.5960 H   0  0  0  0  0  0  0  0  0  0  0  0
   38.6200   29.7940   47.3560 H   0  0  0  0  0  0  0  0  0  0  0  0
   39.5030   31.9890   47.9480 H   0  0  0  0  0  0  0  0  0  0  0  0
   37.9570   32.7930   47.3400 H   0  0  0  0  0  0  0  0  0  0  0  0
   39.9250   30.9550   45.8570 H   0  0  0  0  0  0  0  0  0  0  0  0
   39.7800   32.7250   45.6250 H   0  0  0  0  0  0  0  0  0  0  0  0
   37.9120   32.5720   44.3470 H   0  0  0  0  0  0  0  0  0  0  0  0
   34.7510   30.1010   44.6640 C   0  0  0  0  0  0  0  0  0  0  0  0
   35.7980   30.9850   44.4340 C   0  0  0  0  0  0  0  0  0  0  0  0
   35.7000   31.7930   43.3170 C   0  0  0  0  0  0  0  0  0  0  0  0
   34.6080   31.6870   42.5080 N   0  0  0  0  0  0  0  0  0  0  0  0
   33.6140   30.8190   42.7620 C   0  0  0  0  0  0  0  0  0  0  0  0
   33.6990   30.0360   43.8400 N   0  0  0  0  0  0  0  0  0  0  0  0
   34.7560   29.4340   45.5230 H   0  0  0  0  0  0  0  0  0  0  0  0
   36.4600   32.5050   43.0630 H   0  0  0  0  0  0  0  0  0  0  0  0
   32.4710   30.7370   41.8820 C   0  0  0  0  0  0  0  0  0  0  0  0
   31.9050   29.5170   41.5910 C   0  0  0  0  0  0  0  0  0  0  0  0
   30.8190   29.3650   40.7620 C   0  0  0  0  0  0  0  0  0  0  0  0
   30.3290   30.5420   40.2330 C   0  0  0  0  0  0  0  0  0  0  0  0
   30.8720   31.8250   40.4990 C   0  0  0  0  0  0  0  0  0  0  0  0
   31.9550   31.8610   41.3390 N   0  0  0  0  0  0  0  0  0  0  0  0
   32.3410   28.6350   42.0400 H   0  0  0  0  0  0  0  0  0  0  0  0
   30.3480   28.4390   40.5090 H   0  0  0  0  0  0  0  0  0  0  0  0
   29.4740   30.5360   39.5670 H   0  0  0  0  0  0  0  0  0  0  0  0
   30.4470   32.7020   40.0590 H   0  0  0  0  0  0  0  0  0  0  0  0
   39.2730   31.1290   42.5460 C   0  0  0  0  0  0  0  0  0  0  0  0
   38.7550   30.7340   43.7660 C   0  0  0  0  0  0  0  0  0  0  0  0
   38.8040   29.3890   44.0750 C   0  0  0  0  0  0  0  0  0  0  0  0
   38.4370   28.9400   44.9890 H   0  0  0  0  0  0  0  0  0  0  0  0
   39.3440   28.4550   43.2150 C   0  0  0  0  0  0  0  0  0  0  0  0
   39.4070   27.3940   43.4090 H   0  0  0  0  0  0  0  0  0  0  0  0
   39.8650   28.8710   41.9850 C   0  0  0  0  0  3  0  0  0  0  0  0
   39.8110   30.2060   41.6890 C   0  0  0  0  0  3  0  0  0  0  0  0
   39.1360   33.6770   42.0550 N   0  0  0  0  0  0  0  0  0  0  0  0
   39.1930   32.5380   42.2850 C   0  0  0  0  0  0  0  0  0  0  0  0
  1  2  1  0  0  0  0
  2  8  1  0  0  0  0
  2  3  1  0  0  0  0
  3  9  1  0  0  0  0
  4 12  1  0  0  0  0
  4  3  1  0  0  0  0
  4 11  1  0  0  0  0
  5  4  1  0  0  0  0
  6 15  1  6  0  0  0
  6  1  1  0  0  0  0
  6  5  1  0  0  0  0
  7  2  1  0  0  0  0
 10  3  1  0  0  0  0
 13  5  1  0  0  0  0
 14  5  1  0  0  0  0
 16 22  1  0  0  0  0
 17 16  1  0  0  0  0
 17  1  1  0  0  0  0
 18 17  2  0  0  0  0
 19 20  2  0  0  0  0
 19 18  1  0  0  0  0
 20 21  1  0  0  0  0
 21 16  2  0  0  0  0
 23 18  1  0  0  0  0
 24 20  1  0  0  0  0
 25 24  1  0  0  0  0
 25 30  1  0  0  0  0
 26 25  2  0  0  0  0
 27 28  2  0  0  0  0
 27 26  1  0  0  0  0
 28 29  1  0  0  0  0
 29 24  2  0  0  0  0
 31 26  1  0  0  0  0
 32 27  1  0  0  0  0
 33 28  1  0  0  0  0
 34 35  1  0  0  0  0
 35 36  2  0  0  0  0
 35  6  1  0  0  0  0
 36 37  1  0  0  0  0
 38 39  1  0  0  0  0
 38 36  1  0  0  0  0
 40 38  2  0  0  0  0
 41 40  1  0  0  0  0
 41 34  2  0  0  0  0
 42 43  3  0  0  0  0
 43 34  1  0  0  0  0
M  END
>  <minimizedAffinity>
-3.67336488

>  <minimizedRMSD>
4.61183834

$$$$
