
 OpenBabel03272502073D

 40 43  0  0  0  0  0  0  0  0999 V2000
   34.2990   30.4230   47.6560 F   0  0  0  0  0  0  0  0  0  0  0  0
   34.6390   29.9230   46.4240 C   0  0  0  0  0  0  0  0  0  0  0  0
   33.7210   29.2800   45.6130 C   0  0  0  0  0  0  0  0  0  0  0  0
   34.1330   28.8180   44.3800 C   0  0  0  0  0  0  0  0  0  0  0  0
   35.4550   28.9950   43.9540 C   0  0  0  0  0  0  0  0  0  0  0  0
   36.3190   29.6480   44.8190 C   0  0  0  0  0  0  0  0  0  0  0  0
   35.9620   30.1140   46.0290 C   0  0  0  0  0  0  0  0  0  0  0  0
   33.3910   28.3180   43.7660 H   0  0  0  0  0  0  0  0  0  0  0  0
   35.7320   28.6190   42.9820 H   0  0  0  0  0  0  0  0  0  0  0  0
   37.3160   29.7400   44.4090 H   0  0  0  0  0  0  0  0  0  0  0  0
   37.7870   32.3090   44.7480 Br  0  0  0  0  0  0  0  0  0  0  0  0
   37.8060   31.7750   46.5720 C   0  0  0  0  0  0  0  0  0  0  0  0
   36.9240   30.7740   46.8840 C   0  0  0  0  0  0  0  0  0  0  0  0
   36.9060   30.3040   48.2080 C   0  0  0  0  0  0  0  0  0  0  0  0
   37.7350   30.8290   49.1450 C   0  0  0  0  0  0  0  0  0  0  0  0
   38.6020   31.8440   48.7620 C   0  0  0  0  0  0  0  0  0  0  0  0
   38.6430   32.3320   47.4490 C   0  0  0  0  0  0  0  0  0  0  0  0
   36.2520   29.5200   48.5510 H   0  0  0  0  0  0  0  0  0  0  0  0
   37.7370   30.4800   50.1770 H   0  0  0  0  0  0  0  0  0  0  0  0
   39.2810   32.2890   49.4850 H   0  0  0  0  0  0  0  0  0  0  0  0
   39.4660   33.3220   47.0110 O   0  0  0  0  0  0  0  0  0  0  0  0
   40.4330   33.1990   46.7350 H   0  0  0  0  0  0  0  0  0  0  0  0
   32.2210   28.2530   47.1870 C   0  0  0  0  0  0  0  0  0  0  0  0
   32.4040   29.1630   46.1640 C   0  0  0  0  0  0  0  0  0  0  0  0
   31.3000   29.9010   45.7500 C   0  0  0  0  0  0  0  0  0  0  0  0
   30.0960   29.7130   46.3510 N   0  0  0  0  0  0  0  0  0  0  0  0
   29.9620   28.8260   47.3340 C   0  0  0  0  0  0  0  0  0  0  0  0
   30.9930   28.1070   47.7510 N   0  0  0  0  0  0  0  0  0  0  0  0
   33.0370   27.6470   47.5560 H   0  0  0  0  0  0  0  0  0  0  0  0
   31.4350   30.6120   44.9500 H   0  0  0  0  0  0  0  0  0  0  0  0
   27.8500   27.5650   47.6640 C   0  0  0  0  0  0  0  0  0  0  0  0
   28.6550   28.6450   47.9620 C   0  0  0  0  0  0  0  0  0  0  0  0
   28.1660   29.5520   48.8880 C   0  0  0  0  0  0  0  0  0  0  0  0
   28.8160   30.3900   49.1050 H   0  0  0  0  0  0  0  0  0  0  0  0
   26.9240   29.3290   49.4500 C   0  0  0  0  0  0  0  0  0  0  0  0
   26.5650   30.0540   50.1720 H   0  0  0  0  0  0  0  0  0  0  0  0
   26.1490   28.2350   49.1240 C   0  0  0  0  0  0  0  0  0  0  0  0
   26.6090   27.3050   48.2000 C   0  0  0  0  0  0  0  0  0  0  0  0
   28.7380   25.8270   45.9180 N   0  0  0  0  0  0  0  0  0  0  0  0
   28.3430   26.5980   46.6950 C   0  0  0  0  0  0  0  0  0  0  0  0
  2  1  1  0  0  0  0
  3 24  1  0  0  0  0
  3  2  2  0  0  0  0
  4  3  1  0  0  0  0
  5  4  2  0  0  0  0
  5  6  1  0  0  0  0
  6  7  2  0  0  0  0
  7  2  1  0  0  0  0
  7 13  1  0  0  0  0
  8  4  1  0  0  0  0
  9  5  1  0  0  0  0
 10  6  1  0  0  0  0
 11 12  1  0  0  0  0
 12 13  2  0  0  0  0
 12 17  1  0  0  0  0
 13 14  1  0  0  0  0
 14 18  1  0  0  0  0
 14 15  2  0  0  0  0
 15 19  1  0  0  0  0
 16 15  1  0  0  0  0
 16 20  1  0  0  0  0
 17 16  2  0  0  0  0
 21 17  1  0  0  0  0
 22 21  1  0  0  0  0
 23 29  1  0  0  0  0
 23 28  1  0  0  0  0
 24 23  2  0  0  0  0
 25 24  1  0  0  0  0
 25 26  2  0  0  0  0
 26 27  1  0  0  0  0
 27 28  2  0  0  0  0
 27 32  1  0  0  0  0
 30 25  1  0  0  0  0
 31 32  2  0  0  0  0
 31 38  1  0  0  0  0
 32 33  1  0  0  0  0
 33 34  1  0  0  0  0
 33 35  2  0  0  0  0
 35 36  1  0  0  0  0
 37 35  1  0  0  0  0
 38 37  2  0  0  0  0
 39 40  3  0  0  0  0
 40 31  1  0  0  0  0
M  END
>  <minimizedAffinity>
-6.79664946

>  <minimizedRMSD>
0.400458932

$$$$
