
 OpenBabel03262521133D

 32 34  0  0  0  0  0  0  0  0999 V2000
   31.5800   28.8870   46.3930 C   0  0  0  0  0  0  0  0  0  0  0  0
   30.7790   28.0600   45.6180 C   0  0  0  0  0  0  0  0  0  0  0  0
   29.8080   27.5890   46.3830 N   0  0  0  0  0  0  0  0  0  0  0  0
   29.9390   28.0720   47.6340 C   0  0  0  0  0  0  0  0  0  0  0  0
   31.0250   28.8660   47.6370 N   0  0  0  0  0  0  0  0  0  0  0  0
   30.9870   27.8860   44.5600 H   0  0  0  0  0  0  0  0  0  0  0  0
   29.0800   26.9440   46.0180 H   0  0  0  0  0  0  0  0  0  0  0  0
   27.7020   27.9820   48.7740 C   0  0  0  0  0  0  0  0  0  0  0  0
   29.0690   27.7870   48.7670 C   0  0  0  0  0  0  0  0  0  0  0  0
   29.6100   27.2870   49.9330 C   0  0  0  0  0  0  0  0  0  0  0  0
   30.6780   27.1060   50.0090 H   0  0  0  0  0  0  0  0  0  0  0  0
   28.8430   26.9920   51.0540 C   0  0  0  0  0  0  0  0  0  0  0  0
   29.2680   26.6000   51.9660 H   0  0  0  0  0  0  0  0  0  0  0  0
   27.4810   27.2000   51.0190 C   0  0  0  0  0  0  0  0  0  0  0  0
   26.9060   27.7010   49.8660 C   0  0  0  0  0  0  0  0  0  0  0  0
   26.5720   28.9080   46.6320 N   0  0  0  0  0  0  0  0  0  0  0  0
   27.0860   28.5000   47.5850 C   0  0  0  0  0  0  0  0  0  0  0  0
   32.7240   29.6110   46.0350 O   0  0  0  0  0  0  0  0  0  0  0  0
   35.2930   29.5730   46.0050 O   0  0  0  0  0  0  0  0  0  0  0  0
   34.1220   29.3290   46.9470 P   0  0  2  0  0  0  0  0  0  0  0  0
   34.1420   27.7280   47.5220 O   0  0  0  0  0  0  0  0  0  0  0  0
   33.6880   27.7250   48.3870 H   0  0  0  0  0  0  0  0  0  0  0  0
   34.1700   30.3600   48.2940 O   0  0  0  0  0  0  0  0  0  0  0  0
   35.1760   30.2850   49.2510 C   0  0  0  0  0  0  0  0  0  0  0  0
   35.1920   29.4390   50.3750 C   0  0  0  0  0  0  0  0  0  0  0  0
   36.2830   29.5080   51.2140 C   0  0  0  0  0  0  0  0  0  0  0  0
   37.2900   30.3670   50.9450 N   0  0  0  0  0  0  0  0  0  0  0  0
   37.2490   31.1760   49.8480 C   0  0  0  0  0  0  0  0  0  0  0  0
   36.1910   31.1360   48.9980 N   0  0  0  0  0  0  0  0  0  0  0  0
   34.3310   28.8080   50.4700 H   0  0  0  0  0  0  0  0  0  0  0  0
   36.2660   28.8460   52.0700 H   0  0  0  0  0  0  0  0  0  0  0  0
   38.0810   31.8480   49.6750 H   0  0  0  0  0  0  0  0  0  0  0  0
  1  5  1  0  0  0  0
  2  3  1  0  0  0  0
  2  1  2  0  0  0  0
  3  4  1  0  0  0  0
  4  5  2  0  0  0  0
  4  9  1  0  0  0  0
  6  2  1  0  0  0  0
  7  3  1  0  0  0  0
  8 15  1  0  0  0  0
  9  8  2  0  0  0  0
  9 10  1  0  0  0  0
 10 11  1  0  0  0  0
 10 12  2  0  0  0  0
 12 13  1  0  0  0  0
 14 12  1  0  0  0  0
 15 14  2  0  0  0  0
 16 17  3  0  0  0  0
 17  8  1  0  0  0  0
 18  1  1  0  0  0  0
 18 20  1  0  0  0  0
 20 19  2  6  0  0  0
 20 21  1  0  0  0  0
 20 23  1  0  0  0  0
 21 22  1  0  0  0  0
 23 24  1  0  0  0  0
 24 25  1  0  0  0  0
 25 30  1  0  0  0  0
 25 26  2  0  0  0  0
 26 31  1  0  0  0  0
 27 26  1  0  0  0  0
 28 27  2  0  0  0  0
 29 24  2  0  0  0  0
 29 28  1  0  0  0  0
 32 28  1  0  0  0  0
M  END
>  <minimizedAffinity>
-5.15610409

>  <minimizedRMSD>
2.11935663

$$$$
