
 OpenBabel03272500283D

 35 37  0  0  0  0  0  0  0  0999 V2000
   36.5480   27.9470   33.0810 C   0  0  0  0  0  0  0  0  0  0  0  0
   36.5580   28.4760   31.8300 C   0  0  0  0  0  0  0  0  0  0  0  0
   36.0190   29.7330   31.5390 C   0  0  0  0  0  0  0  0  0  0  0  0
   35.4790   30.3890   32.6330 N   0  0  0  0  0  0  0  0  0  0  0  0
   35.4740   29.8600   33.8650 C   0  0  0  0  0  0  0  0  0  0  0  0
   36.0150   28.6390   34.0600 N   0  0  0  0  0  0  0  0  0  0  0  0
   36.9570   28.0240   30.9320 H   0  0  0  0  0  0  0  0  0  0  0  0
   35.9970   30.1960   30.5860 H   0  0  0  0  0  0  0  0  0  0  0  0
   33.5390   30.4780   35.2350 C   0  0  0  0  0  0  0  0  0  0  0  0
   34.8930   30.5900   34.9890 C   0  0  0  0  0  0  0  0  0  0  0  0
   35.6770   31.3840   35.8020 C   0  0  0  0  0  0  0  0  0  0  0  0
   36.7330   31.4980   35.6460 H   0  0  0  0  0  0  0  0  0  0  0  0
   35.0940   32.0720   36.8730 C   0  0  0  0  0  0  0  0  0  0  0  0
   35.7010   32.6900   37.5060 H   0  0  0  0  0  0  0  0  0  0  0  0
   33.7350   31.9180   37.0630 C   0  0  0  0  0  3  0  0  0  0  0  0
   32.9030   31.1400   36.2850 C   0  0  0  0  0  3  0  0  0  0  0  0
   32.0270   28.9970   33.7030 N   0  0  0  0  0  0  0  0  0  0  0  0
   32.7090   29.6510   34.3930 C   0  0  0  0  0  0  0  0  0  0  0  0
   37.1140   26.6590   33.3260 C   0  0  0  0  0  0  0  0  0  0  0  0
   37.2590   26.1570   32.3230 H   0  0  0  0  0  0  0  0  0  0  0  0
   36.3360   25.9910   33.8040 H   0  0  0  0  0  0  0  0  0  0  0  0
   38.3340   26.5010   34.1160 C   0  0  0  0  0  0  0  0  0  0  0  0
   39.2200   26.2220   33.4720 H   0  0  0  0  0  0  0  0  0  0  0  0
   38.6360   27.4650   34.5740 H   0  0  0  0  0  0  0  0  0  0  0  0
   38.2890   25.4470   35.1550 C   0  0  0  0  0  0  0  0  0  0  0  0
   38.2610   24.1020   34.7930 C   0  0  0  0  0  0  0  0  0  0  0  0
   38.2200   23.3590   35.9450 C   0  0  0  0  0  0  0  0  0  0  0  0
   38.2230   24.2350   36.9650 N   0  0  0  0  0  0  0  0  0  0  0  0
   38.2630   25.4410   36.4720 N   0  0  0  0  0  0  0  0  0  0  0  0
   38.2650   23.5580   33.8440 H   0  0  0  0  0  0  0  0  0  0  0  0
   38.1870   22.2790   36.1560 H   0  0  0  0  0  0  0  0  0  0  0  0
   38.1870   23.9360   38.4010 C   0  0  0  0  0  0  0  0  0  0  0  0
   37.2610   22.9660   38.6700 F   0  0  0  0  0  0  0  0  0  0  0  0
   37.9130   25.0570   39.1540 F   0  0  0  0  0  0  0  0  0  0  0  0
   39.4280   23.4540   38.8230 F   0  0  0  0  0  0  0  0  0  0  0  0
  1 19  1  0  0  0  0
  1  6  1  0  0  0  0
  2  1  2  0  0  0  0
  3  2  1  0  0  0  0
  3  4  2  0  0  0  0
  4  5  1  0  0  0  0
  5  6  2  0  0  0  0
  5 10  1  0  0  0  0
  7  2  1  0  0  0  0
  8  3  1  0  0  0  0
  9 16  1  0  0  0  0
 10  9  2  0  0  0  0
 10 11  1  0  0  0  0
 11 13  2  0  0  0  0
 12 11  1  0  0  0  0
 13 15  1  0  0  0  0
 13 14  1  0  0  0  0
 16 15  2  0  0  0  0
 17 18  3  0  0  0  0
 18  9  1  0  0  0  0
 19 21  1  0  0  0  0
 19 22  1  0  0  0  0
 20 19  1  0  0  0  0
 22 24  1  0  0  0  0
 22 25  1  0  0  0  0
 23 22  1  0  0  0  0
 25 29  2  0  0  0  0
 26 25  1  0  0  0  0
 26 27  2  0  0  0  0
 27 31  1  0  0  0  0
 27 28  1  0  0  0  0
 28 32  1  0  0  0  0
 29 28  1  0  0  0  0
 30 26  1  0  0  0  0
 32 33  1  0  0  0  0
 32 35  1  0  0  0  0
 32 34  1  0  0  0  0
M  END
>  <minimizedAffinity>
-6.46878147

$$$$

 OpenBabel03272500283D

 35 37  0  0  0  0  0  0  0  0999 V2000
   36.3310   28.3770   33.2260 C   0  0  0  0  0  0  0  0  0  0  0  0
   36.3270   29.0450   32.0450 C   0  0  0  0  0  0  0  0  0  0  0  0
   35.5330   30.1740   31.8200 C   0  0  0  0  0  0  0  0  0  0  0  0
   34.7560   30.5500   32.9040 N   0  0  0  0  0  0  0  0  0  0  0  0
   34.7670   29.8830   34.0680 C   0  0  0  0  0  0  0  0  0  0  0  0
   35.5640   28.8020   34.2010 N   0  0  0  0  0  0  0  0  0  0  0  0
   36.9010   28.8110   31.1580 H   0  0  0  0  0  0  0  0  0  0  0  0
   35.4860   30.7360   30.9220 H   0  0  0  0  0  0  0  0  0  0  0  0
   34.3490   31.3720   35.9690 C   0  0  0  0  0  0  0  0  0  0  0  0
   33.9300   30.3160   35.1850 C   0  0  0  0  0  0  0  0  0  0  0  0
   32.7330   29.6860   35.4610 C   0  0  0  0  0  0  0  0  0  0  0  0
   32.3700   28.8620   34.8760 H   0  0  0  0  0  0  0  0  0  0  0  0
   31.9500   30.1220   36.5360 C   0  0  0  0  0  0  0  0  0  0  0  0
   31.0190   29.6340   36.7540 H   0  0  0  0  0  0  0  0  0  0  0  0
   32.4270   31.1810   37.2820 C   0  0  0  0  0  3  0  0  0  0  0  0
   33.6120   31.8480   37.0530 C   0  0  0  0  0  3  0  0  0  0  0  0
   36.6210   32.5640   35.4740 N   0  0  0  0  0  0  0  0  0  0  0  0
   35.5980   32.0380   35.6920 C   0  0  0  0  0  0  0  0  0  0  0  0
   37.1630   27.2290   33.4050 C   0  0  0  0  0  0  0  0  0  0  0  0
   37.6410   26.9980   32.4060 H   0  0  0  0  0  0  0  0  0  0  0  0
   36.5150   26.3150   33.5640 H   0  0  0  0  0  0  0  0  0  0  0  0
   38.1930   27.1900   34.4430 C   0  0  0  0  0  0  0  0  0  0  0  0
   39.2340   27.2360   34.0060 H   0  0  0  0  0  0  0  0  0  0  0  0
   38.1390   28.0910   35.0880 H   0  0  0  0  0  0  0  0  0  0  0  0
   38.2020   25.9720   35.2860 C   0  0  0  0  0  0  0  0  0  0  0  0
   38.2130   24.7090   34.6990 C   0  0  0  0  0  0  0  0  0  0  0  0
   38.2180   23.7790   35.7060 C   0  0  0  0  0  0  0  0  0  0  0  0
   38.2100   24.4660   36.8620 N   0  0  0  0  0  0  0  0  0  0  0  0
   38.2000   25.7400   36.5830 N   0  0  0  0  0  0  0  0  0  0  0  0
   38.2190   24.3360   33.6700 H   0  0  0  0  0  0  0  0  0  0  0  0
   38.2260   22.6780   35.7290 H   0  0  0  0  0  0  0  0  0  0  0  0
   38.2100   23.9250   38.2250 C   0  0  0  0  0  0  0  0  0  0  0  0
   37.2550   22.9550   38.3600 F   0  0  0  0  0  0  0  0  0  0  0  0
   38.0050   24.9080   39.1690 F   0  0  0  0  0  0  0  0  0  0  0  0
   39.4440   23.3360   38.5090 F   0  0  0  0  0  0  0  0  0  0  0  0
  1 19  1  0  0  0  0
  1  6  1  0  0  0  0
  2  1  2  0  0  0  0
  3  2  1  0  0  0  0
  3  4  2  0  0  0  0
  4  5  1  0  0  0  0
  5  6  2  0  0  0  0
  5 10  1  0  0  0  0
  7  2  1  0  0  0  0
  8  3  1  0  0  0  0
  9 16  1  0  0  0  0
 10 11  1  0  0  0  0
 10  9  2  0  0  0  0
 11 13  2  0  0  0  0
 12 11  1  0  0  0  0
 13 14  1  0  0  0  0
 13 15  1  0  0  0  0
 16 15  2  0  0  0  0
 17 18  3  0  0  0  0
 18  9  1  0  0  0  0
 19 21  1  0  0  0  0
 19 22  1  0  0  0  0
 20 19  1  0  0  0  0
 22 24  1  0  0  0  0
 22 25  1  0  0  0  0
 23 22  1  0  0  0  0
 25 29  2  0  0  0  0
 26 25  1  0  0  0  0
 26 27  2  0  0  0  0
 27 31  1  0  0  0  0
 27 28  1  0  0  0  0
 28 32  1  0  0  0  0
 29 28  1  0  0  0  0
 30 26  1  0  0  0  0
 32 33  1  0  0  0  0
 32 35  1  0  0  0  0
 32 34  1  0  0  0  0
M  END
>  <minimizedAffinity>
-6.2098217

$$$$

 OpenBabel03272500283D

 35 37  0  0  0  0  0  0  0  0999 V2000
   37.1260   25.9240   32.9940 C   0  0  0  0  0  0  0  0  0  0  0  0
   36.9380   27.2270   33.3250 C   0  0  0  0  0  0  0  0  0  0  0  0
   37.2820   27.7430   34.5790 C   0  0  0  0  0  0  0  0  0  0  0  0
   37.8280   26.8140   35.4490 N   0  0  0  0  0  0  0  0  0  0  0  0
   38.0100   25.5280   35.1130 C   0  0  0  0  0  0  0  0  0  0  0  0
   37.6500   25.1110   33.8800 N   0  0  0  0  0  0  0  0  0  0  0  0
   36.5180   28.0060   32.7040 H   0  0  0  0  0  0  0  0  0  0  0  0
   37.1590   28.7480   34.8950 H   0  0  0  0  0  0  0  0  0  0  0  0
   39.8420   24.0580   35.8120 C   0  0  0  0  0  0  0  0  0  0  0  0
   38.5900   24.5820   36.0640 C   0  0  0  0  0  0  0  0  0  0  0  0
   37.9040   24.2100   37.2030 C   0  0  0  0  0  0  0  0  0  0  0  0
   36.9280   24.5940   37.4360 H   0  0  0  0  0  0  0  0  0  0  0  0
   38.4830   23.3030   38.0980 C   0  0  0  0  0  0  0  0  0  0  0  0
   37.9520   23.0110   38.9840 H   0  0  0  0  0  0  0  0  0  0  0  0
   39.7370   22.8150   37.7870 C   0  0  0  0  0  3  0  0  0  0  0  0
   40.4680   23.1510   36.6660 C   0  0  0  0  0  3  0  0  0  0  0  0
   41.1470   24.7350   33.6520 N   0  0  0  0  0  0  0  0  0  0  0  0
   40.5690   24.4390   34.6250 C   0  0  0  0  0  0  0  0  0  0  0  0
   36.7600   25.4480   31.6990 C   0  0  0  0  0  0  0  0  0  0  0  0
   37.6620   24.9220   31.2640 H   0  0  0  0  0  0  0  0  0  0  0  0
   36.6450   26.3250   30.9930 H   0  0  0  0  0  0  0  0  0  0  0  0
   35.5800   24.6050   31.5020 C   0  0  0  0  0  0  0  0  0  0  0  0
   34.8010   24.7780   32.3030 H   0  0  0  0  0  0  0  0  0  0  0  0
   35.0540   24.8740   30.5640 H   0  0  0  0  0  0  0  0  0  0  0  0
   35.8260   23.1450   31.5370 C   0  0  0  0  0  0  0  0  0  0  0  0
   37.0530   22.6280   31.1310 C   0  0  0  0  0  0  0  0  0  0  0  0
   36.9990   21.2650   31.2660 C   0  0  0  0  0  0  0  0  0  0  0  0
   35.7730   20.9760   31.7390 N   0  0  0  0  0  0  0  0  0  0  0  0
   35.1150   22.0920   31.8860 N   0  0  0  0  0  0  0  0  0  0  0  0
   37.9860   23.0580   30.7540 H   0  0  0  0  0  0  0  0  0  0  0  0
   37.7120   20.4490   31.0730 H   0  0  0  0  0  0  0  0  0  0  0  0
   35.2230   19.6520   32.0510 C   0  0  0  0  0  0  0  0  0  0  0  0
   35.7810   18.6950   31.2480 F   0  0  0  0  0  0  0  0  0  0  0  0
   33.8510   19.6210   31.9210 F   0  0  0  0  0  0  0  0  0  0  0  0
   35.5170   19.3080   33.3720 F   0  0  0  0  0  0  0  0  0  0  0  0
  1  2  2  0  0  0  0
  1  6  1  0  0  0  0
  2  3  1  0  0  0  0
  3  8  1  0  0  0  0
  3  4  2  0  0  0  0
  5  4  1  0  0  0  0
  5 10  1  0  0  0  0
  6  5  2  0  0  0  0
  7  2  1  0  0  0  0
  9 10  2  0  0  0  0
  9 16  1  0  0  0  0
 10 11  1  0  0  0  0
 11 12  1  0  0  0  0
 11 13  2  0  0  0  0
 13 14  1  0  0  0  0
 15 13  1  0  0  0  0
 16 15  2  0  0  0  0
 17 18  3  0  0  0  0
 18  9  1  0  0  0  0
 19  1  1  0  0  0  0
 20 19  1  0  0  0  0
 21 19  1  0  0  0  0
 22 25  1  0  0  0  0
 22 19  1  0  0  0  0
 22 23  1  0  0  0  0
 24 22  1  0  0  0  0
 25 29  2  0  0  0  0
 26 27  2  0  0  0  0
 26 25  1  0  0  0  0
 27 28  1  0  0  0  0
 28 29  1  0  0  0  0
 28 32  1  0  0  0  0
 30 26  1  0  0  0  0
 31 27  1  0  0  0  0
 32 35  1  0  0  0  0
 33 32  1  0  0  0  0
 34 32  1  0  0  0  0
M  END
>  <minimizedAffinity>
-5.90975857

$$$$

 OpenBabel03272500283D

 35 37  0  0  0  0  0  0  0  0999 V2000
   36.3870   28.3840   32.9670 C   0  0  0  0  0  0  0  0  0  0  0  0
   36.1740   28.9070   31.7330 C   0  0  0  0  0  0  0  0  0  0  0  0
   35.4300   30.0740   31.5270 C   0  0  0  0  0  0  0  0  0  0  0  0
   34.9350   30.6460   32.6870 N   0  0  0  0  0  0  0  0  0  0  0  0
   35.1510   30.1220   33.9030 C   0  0  0  0  0  0  0  0  0  0  0  0
   35.8800   28.9910   34.0130 N   0  0  0  0  0  0  0  0  0  0  0  0
   36.5250   28.5170   30.7870 H   0  0  0  0  0  0  0  0  0  0  0  0
   35.2290   30.5290   30.5910 H   0  0  0  0  0  0  0  0  0  0  0  0
   33.2990   30.5090   35.4600 C   0  0  0  0  0  0  0  0  0  0  0  0
   34.6070   30.7600   35.0990 C   0  0  0  0  0  0  0  0  0  0  0  0
   35.3830   31.6060   35.8670 C   0  0  0  0  0  0  0  0  0  0  0  0
   36.4050   31.8280   35.6220 H   0  0  0  0  0  0  0  0  0  0  0  0
   34.8370   32.2050   37.0090 C   0  0  0  0  0  0  0  0  0  0  0  0
   35.4380   32.8630   37.6080 H   0  0  0  0  0  0  0  0  0  0  0  0
   33.5220   31.9130   37.3130 C   0  0  0  0  0  3  0  0  0  0  0  0
   32.7020   31.0770   36.5850 C   0  0  0  0  0  3  0  0  0  0  0  0
   31.8040   28.9290   34.0130 N   0  0  0  0  0  0  0  0  0  0  0  0
   32.4780   29.6280   34.6660 C   0  0  0  0  0  0  0  0  0  0  0  0
   37.1560   27.1900   33.1230 C   0  0  0  0  0  0  0  0  0  0  0  0
   37.6320   26.9610   32.1230 H   0  0  0  0  0  0  0  0  0  0  0  0
   36.4600   26.3070   33.2510 H   0  0  0  0  0  0  0  0  0  0  0  0
   38.1710   27.0700   34.1690 C   0  0  0  0  0  0  0  0  0  0  0  0
   39.2180   27.1400   33.7510 H   0  0  0  0  0  0  0  0  0  0  0  0
   38.1130   27.9220   34.8760 H   0  0  0  0  0  0  0  0  0  0  0  0
   38.1620   25.7950   34.9230 C   0  0  0  0  0  0  0  0  0  0  0  0
   38.1160   25.7990   36.3140 C   0  0  0  0  0  0  0  0  0  0  0  0
   38.1200   24.4950   36.7380 C   0  0  0  0  0  0  0  0  0  0  0  0
   38.1670   23.7330   35.6310 N   0  0  0  0  0  0  0  0  0  0  0  0
   38.1900   24.5200   34.5910 N   0  0  0  0  0  0  0  0  0  0  0  0
   38.0800   26.5770   37.0830 H   0  0  0  0  0  0  0  0  0  0  0  0
   38.0940   24.0130   37.7270 H   0  0  0  0  0  0  0  0  0  0  0  0
   38.1900   22.2690   35.5520 C   0  0  0  0  0  0  0  0  0  0  0  0
   37.0390   21.7390   36.0680 F   0  0  0  0  0  0  0  0  0  0  0  0
   39.2780   21.7350   36.2100 F   0  0  0  0  0  0  0  0  0  0  0  0
   38.2760   21.8590   34.2200 F   0  0  0  0  0  0  0  0  0  0  0  0
  1 19  1  0  0  0  0
  1  6  1  0  0  0  0
  2  1  2  0  0  0  0
  3  2  1  0  0  0  0
  3  4  2  0  0  0  0
  4  5  1  0  0  0  0
  5  6  2  0  0  0  0
  5 10  1  0  0  0  0
  7  2  1  0  0  0  0
  8  3  1  0  0  0  0
  9 16  1  0  0  0  0
 10  9  2  0  0  0  0
 10 11  1  0  0  0  0
 11 13  2  0  0  0  0
 12 11  1  0  0  0  0
 13 15  1  0  0  0  0
 13 14  1  0  0  0  0
 16 15  2  0  0  0  0
 17 18  3  0  0  0  0
 18  9  1  0  0  0  0
 19 21  1  0  0  0  0
 19 22  1  0  0  0  0
 20 19  1  0  0  0  0
 22 24  1  0  0  0  0
 22 25  1  0  0  0  0
 23 22  1  0  0  0  0
 25 26  1  0  0  0  0
 26 27  2  0  0  0  0
 26 30  1  0  0  0  0
 27 31  1  0  0  0  0
 28 27  1  0  0  0  0
 29 25  2  0  0  0  0
 29 28  1  0  0  0  0
 32 28  1  0  0  0  0
 32 33  1  0  0  0  0
 32 34  1  0  0  0  0
 35 32  1  0  0  0  0
M  END
>  <minimizedAffinity>
-5.77340174

$$$$

 OpenBabel03272500283D

 35 37  0  0  0  0  0  0  0  0999 V2000
   36.5070   28.3810   33.2040 C   0  0  0  0  0  0  0  0  0  0  0  0
   36.4150   28.9030   31.9540 C   0  0  0  0  0  0  0  0  0  0  0  0
   35.7440   30.0990   31.6850 C   0  0  0  0  0  0  0  0  0  0  0  0
   35.1850   30.7040   32.7990 N   0  0  0  0  0  0  0  0  0  0  0  0
   35.2810   30.1810   34.0310 C   0  0  0  0  0  0  0  0  0  0  0  0
   35.9480   29.0200   34.2030 N   0  0  0  0  0  0  0  0  0  0  0  0
   36.8220   28.4890   31.0410 H   0  0  0  0  0  0  0  0  0  0  0  0
   35.6390   30.5550   30.7330 H   0  0  0  0  0  0  0  0  0  0  0  0
   33.3460   30.6190   35.4690 C   0  0  0  0  0  0  0  0  0  0  0  0
   34.6750   30.8540   35.1770 C   0  0  0  0  0  0  0  0  0  0  0  0
   35.4110   31.7150   35.9660 C   0  0  0  0  0  0  0  0  0  0  0  0
   36.4470   31.9260   35.7740 H   0  0  0  0  0  0  0  0  0  0  0  0
   34.8060   32.3460   37.0590 C   0  0  0  0  0  0  0  0  0  0  0  0
   35.3760   33.0170   37.6730 H   0  0  0  0  0  0  0  0  0  0  0  0
   33.4740   32.0690   37.2950 C   0  0  0  0  0  3  0  0  0  0  0  0
   32.6900   31.2190   36.5430 C   0  0  0  0  0  3  0  0  0  0  0  0
   31.9440   28.9980   33.9750 N   0  0  0  0  0  0  0  0  0  0  0  0
   32.5660   29.7210   34.6530 C   0  0  0  0  0  0  0  0  0  0  0  0
   37.2070   27.1560   33.4260 C   0  0  0  0  0  0  0  0  0  0  0  0
   36.5590   26.5120   34.0930 H   0  0  0  0  0  0  0  0  0  0  0  0
   38.1010   27.3470   34.0930 H   0  0  0  0  0  0  0  0  0  0  0  0
   37.6930   26.3430   32.3110 C   0  0  0  0  0  0  0  0  0  0  0  0
   37.7300   26.9320   31.3460 H   0  0  0  0  0  0  0  0  0  0  0  0
   38.7470   26.0390   32.4730 H   0  0  0  0  0  0  0  0  0  0  0  0
   36.8740   25.1540   31.9840 C   0  0  0  0  0  0  0  0  0  0  0  0
   35.6860   25.2910   31.2700 C   0  0  0  0  0  0  0  0  0  0  0  0
   35.1440   24.0410   31.1150 C   0  0  0  0  0  0  0  0  0  0  0  0
   35.9840   23.1820   31.7190 N   0  0  0  0  0  0  0  0  0  0  0  0
   36.9810   23.8610   32.2150 N   0  0  0  0  0  0  0  0  0  0  0  0
   35.1370   26.1330   30.8390 H   0  0  0  0  0  0  0  0  0  0  0  0
   34.2320   23.6590   30.6310 H   0  0  0  0  0  0  0  0  0  0  0  0
   35.8480   21.7250   31.8290 C   0  0  0  0  0  0  0  0  0  0  0  0
   36.9770   21.1740   32.3700 F   0  0  0  0  0  0  0  0  0  0  0  0
   35.5890   21.1390   30.6090 F   0  0  0  0  0  0  0  0  0  0  0  0
   34.7830   21.4030   32.6720 F   0  0  0  0  0  0  0  0  0  0  0  0
  1 19  1  0  0  0  0
  1  6  1  0  0  0  0
  2  1  2  0  0  0  0
  3  2  1  0  0  0  0
  3  4  2  0  0  0  0
  4  5  1  0  0  0  0
  5  6  2  0  0  0  0
  5 10  1  0  0  0  0
  7  2  1  0  0  0  0
  8  3  1  0  0  0  0
  9 16  1  0  0  0  0
 10  9  2  0  0  0  0
 10 11  1  0  0  0  0
 11 13  2  0  0  0  0
 12 11  1  0  0  0  0
 13 15  1  0  0  0  0
 13 14  1  0  0  0  0
 16 15  2  0  0  0  0
 17 18  3  0  0  0  0
 18  9  1  0  0  0  0
 19 20  1  0  0  0  0
 19 21  1  0  0  0  0
 22 24  1  0  0  0  0
 22 19  1  0  0  0  0
 23 22  1  0  0  0  0
 25 29  2  0  0  0  0
 25 22  1  0  0  0  0
 26 25  1  0  0  0  0
 27 26  2  0  0  0  0
 27 28  1  0  0  0  0
 28 32  1  0  0  0  0
 28 29  1  0  0  0  0
 30 26  1  0  0  0  0
 31 27  1  0  0  0  0
 32 33  1  0  0  0  0
 32 35  1  0  0  0  0
 34 32  1  0  0  0  0
M  END
>  <minimizedAffinity>
-5.75255156

$$$$

 OpenBabel03272500283D

 35 37  0  0  0  0  0  0  0  0999 V2000
   37.4620   25.1760   31.9790 C   0  0  0  0  0  0  0  0  0  0  0  0
   36.4670   24.4870   31.3640 C   0  0  0  0  0  0  0  0  0  0  0  0
   35.2790   25.0920   30.9460 C   0  0  0  0  0  0  0  0  0  0  0  0
   35.2050   26.4500   31.2110 N   0  0  0  0  0  0  0  0  0  0  0  0
   36.1940   27.1230   31.8200 C   0  0  0  0  0  0  0  0  0  0  0  0
   37.3090   26.4610   32.1920 N   0  0  0  0  0  0  0  0  0  0  0  0
   36.4520   23.4310   31.1270 H   0  0  0  0  0  0  0  0  0  0  0  0
   34.4680   24.6080   30.4620 H   0  0  0  0  0  0  0  0  0  0  0  0
   36.4740   29.4510   31.1090 C   0  0  0  0  0  0  0  0  0  0  0  0
   36.0720   28.5550   32.0790 C   0  0  0  0  0  0  0  0  0  0  0  0
   35.5630   29.0190   33.2760 C   0  0  0  0  0  0  0  0  0  0  0  0
   35.2380   28.3570   34.0570 H   0  0  0  0  0  0  0  0  0  0  0  0
   35.4560   30.3970   33.4990 C   0  0  0  0  0  0  0  0  0  0  0  0
   35.0610   30.7600   34.4280 H   0  0  0  0  0  0  0  0  0  0  0  0
   35.8780   31.2390   32.4890 C   0  0  0  0  0  3  0  0  0  0  0  0
   36.3930   30.8330   31.2750 C   0  0  0  0  0  3  0  0  0  0  0  0
   37.4600   28.5990   28.8440 N   0  0  0  0  0  0  0  0  0  0  0  0
   37.0080   28.9790   29.8550 C   0  0  0  0  0  0  0  0  0  0  0  0
   38.6590   24.5100   32.3850 C   0  0  0  0  0  0  0  0  0  0  0  0
   39.2430   24.2620   31.4500 H   0  0  0  0  0  0  0  0  0  0  0  0
   38.4030   23.4780   32.7740 H   0  0  0  0  0  0  0  0  0  0  0  0
   39.5650   25.1050   33.3670 C   0  0  0  0  0  0  0  0  0  0  0  0
   40.5520   24.5550   33.4170 H   0  0  0  0  0  0  0  0  0  0  0  0
   39.8540   26.1330   33.0670 H   0  0  0  0  0  0  0  0  0  0  0  0
   39.0770   25.1110   34.7650 C   0  0  0  0  0  0  0  0  0  0  0  0
   38.6780   26.3020   35.3660 C   0  0  0  0  0  0  0  0  0  0  0  0
   38.2800   26.0120   36.6460 C   0  0  0  0  0  0  0  0  0  0  0  0
   38.4370   24.6860   36.8050 N   0  0  0  0  0  0  0  0  0  0  0  0
   38.9030   24.1910   35.6920 N   0  0  0  0  0  0  0  0  0  0  0  0
   38.6210   27.3470   35.0470 H   0  0  0  0  0  0  0  0  0  0  0  0
   37.8930   26.6170   37.4810 H   0  0  0  0  0  0  0  0  0  0  0  0
   38.1500   23.8880   38.0010 C   0  0  0  0  0  0  0  0  0  0  0  0
   39.2940   23.3190   38.4890 F   0  0  0  0  0  0  0  0  0  0  0  0
   37.2160   22.9040   37.7520 F   0  0  0  0  0  0  0  0  0  0  0  0
   37.6280   24.7010   39.0090 F   0  0  0  0  0  0  0  0  0  0  0  0
  1  6  1  0  0  0  0
  1 19  1  0  0  0  0
  2  1  2  0  0  0  0
  3  4  2  0  0  0  0
  3  2  1  0  0  0  0
  4  5  1  0  0  0  0
  5 10  1  0  0  0  0
  5  6  2  0  0  0  0
  7  2  1  0  0  0  0
  8  3  1  0  0  0  0
  9 16  2  0  0  0  0
  9 10  1  0  0  0  0
 10 11  2  0  0  0  0
 11 13  1  0  0  0  0
 11 12  1  0  0  0  0
 13 14  1  0  0  0  0
 15 13  2  0  0  0  0
 16 15  1  0  0  0  0
 17 18  3  0  0  0  0
 18  9  1  0  0  0  0
 19 21  1  0  0  0  0
 19 22  1  0  0  0  0
 20 19  1  0  0  0  0
 22 23  1  0  0  0  0
 22 25  1  0  0  0  0
 24 22  1  0  0  0  0
 25 26  1  0  0  0  0
 25 29  2  0  0  0  0
 26 27  2  0  0  0  0
 27 28  1  0  0  0  0
 27 31  1  0  0  0  0
 28 32  1  0  0  0  0
 29 28  1  0  0  0  0
 30 26  1  0  0  0  0
 32 33  1  0  0  0  0
 32 35  1  0  0  0  0
 34 32  1  0  0  0  0
M  END
>  <minimizedAffinity>
-5.65651655

$$$$

 OpenBabel03272500283D

 35 37  0  0  0  0  0  0  0  0999 V2000
   37.9270   24.6260   32.7290 C   0  0  0  0  0  0  0  0  0  0  0  0
   39.2100   24.7910   32.3180 C   0  0  0  0  0  0  0  0  0  0  0  0
   39.7820   26.0520   32.1210 C   0  0  0  0  0  0  0  0  0  0  0  0
   38.9290   27.1120   32.3810 N   0  0  0  0  0  0  0  0  0  0  0  0
   37.6620   26.9390   32.7870 C   0  0  0  0  0  0  0  0  0  0  0  0
   37.1880   25.6860   32.9520 N   0  0  0  0  0  0  0  0  0  0  0  0
   39.9310   24.0160   32.0950 H   0  0  0  0  0  0  0  0  0  0  0  0
   40.7740   26.2440   31.8010 H   0  0  0  0  0  0  0  0  0  0  0  0
   36.3680   28.8610   31.9890 C   0  0  0  0  0  0  0  0  0  0  0  0
   36.7980   28.0880   33.0490 C   0  0  0  0  0  0  0  0  0  0  0  0
   36.4100   28.4070   34.3350 C   0  0  0  0  0  0  0  0  0  0  0  0
   36.7230   27.8310   35.1870 H   0  0  0  0  0  0  0  0  0  0  0  0
   35.5810   29.5120   34.5580 C   0  0  0  0  0  0  0  0  0  0  0  0
   35.2790   29.7620   35.5570 H   0  0  0  0  0  0  0  0  0  0  0  0
   35.1880   30.2440   33.4550 C   0  0  0  0  0  3  0  0  0  0  0  0
   35.5430   29.9740   32.1500 C   0  0  0  0  0  3  0  0  0  0  0  0
   37.0710   28.2730   29.5430 N   0  0  0  0  0  0  0  0  0  0  0  0
   36.7660   28.5390   30.6400 C   0  0  0  0  0  0  0  0  0  0  0  0
   37.3920   23.3150   32.9180 C   0  0  0  0  0  0  0  0  0  0  0  0
   37.0660   22.9330   31.9050 H   0  0  0  0  0  0  0  0  0  0  0  0
   36.4030   23.3870   33.4640 H   0  0  0  0  0  0  0  0  0  0  0  0
   38.1600   22.2700   33.5950 C   0  0  0  0  0  0  0  0  0  0  0  0
   37.5790   21.3030   33.6720 H   0  0  0  0  0  0  0  0  0  0  0  0
   39.0550   21.9900   33.0030 H   0  0  0  0  0  0  0  0  0  0  0  0
   38.5570   22.5710   34.9890 C   0  0  0  0  0  0  0  0  0  0  0  0
   39.8680   22.3630   35.4090 C   0  0  0  0  0  0  0  0  0  0  0  0
   39.9480   22.7210   36.7290 C   0  0  0  0  0  0  0  0  0  0  0  0
   38.7190   23.1310   37.0890 N   0  0  0  0  0  0  0  0  0  0  0  0
   37.9320   23.0320   36.0540 N   0  0  0  0  0  0  0  0  0  0  0  0
   40.7830   21.9980   34.9320 H   0  0  0  0  0  0  0  0  0  0  0  0
   40.7610   22.7290   37.4710 H   0  0  0  0  0  0  0  0  0  0  0  0
   38.2860   23.6150   38.4050 C   0  0  0  0  0  0  0  0  0  0  0  0
   37.2940   22.8210   38.9100 F   0  0  0  0  0  0  0  0  0  0  0  0
   37.8490   24.9220   38.3540 F   0  0  0  0  0  0  0  0  0  0  0  0
   39.3510   23.5750   39.3070 F   0  0  0  0  0  0  0  0  0  0  0  0
  1 19  1  0  0  0  0
  1  6  1  0  0  0  0
  2  1  2  0  0  0  0
  3  2  1  0  0  0  0
  3  4  2  0  0  0  0
  4  5  1  0  0  0  0
  5  6  2  0  0  0  0
  5 10  1  0  0  0  0
  7  2  1  0  0  0  0
  8  3  1  0  0  0  0
  9 16  2  0  0  0  0
  9 10  1  0  0  0  0
 10 11  2  0  0  0  0
 11 13  1  0  0  0  0
 11 12  1  0  0  0  0
 13 14  1  0  0  0  0
 15 13  2  0  0  0  0
 16 15  1  0  0  0  0
 17 18  3  0  0  0  0
 18  9  1  0  0  0  0
 19 21  1  0  0  0  0
 19 22  1  0  0  0  0
 20 19  1  0  0  0  0
 22 23  1  0  0  0  0
 22 25  1  0  0  0  0
 24 22  1  0  0  0  0
 25 26  1  0  0  0  0
 25 29  2  0  0  0  0
 26 27  2  0  0  0  0
 27 28  1  0  0  0  0
 27 31  1  0  0  0  0
 28 32  1  0  0  0  0
 29 28  1  0  0  0  0
 30 26  1  0  0  0  0
 32 33  1  0  0  0  0
 32 35  1  0  0  0  0
 34 32  1  0  0  0  0
M  END
>  <minimizedAffinity>
-5.65009117

$$$$

 OpenBabel03272500283D

 35 37  0  0  0  0  0  0  0  0999 V2000
   37.6610   24.9390   31.8440 C   0  0  0  0  0  0  0  0  0  0  0  0
   36.4800   24.2860   31.7060 C   0  0  0  0  0  0  0  0  0  0  0  0
   35.3270   24.9070   31.2150 C   0  0  0  0  0  0  0  0  0  0  0  0
   35.4960   26.2420   30.8830 N   0  0  0  0  0  0  0  0  0  0  0  0
   36.6680   26.8800   31.0230 C   0  0  0  0  0  0  0  0  0  0  0  0
   37.7320   26.2040   31.5050 N   0  0  0  0  0  0  0  0  0  0  0  0
   36.2720   23.2510   31.9450 H   0  0  0  0  0  0  0  0  0  0  0  0
   34.3790   24.4510   31.0850 H   0  0  0  0  0  0  0  0  0  0  0  0
   36.5170   29.2560   31.6030 C   0  0  0  0  0  0  0  0  0  0  0  0
   36.7990   28.2890   30.6590 C   0  0  0  0  0  0  0  0  0  0  0  0
   37.2000   28.6610   29.3910 C   0  0  0  0  0  0  0  0  0  0  0  0
   37.4290   27.9410   28.6280 H   0  0  0  0  0  0  0  0  0  0  0  0
   37.3180   30.0180   29.0700 C   0  0  0  0  0  0  0  0  0  0  0  0
   37.6290   30.3100   28.0850 H   0  0  0  0  0  0  0  0  0  0  0  0
   37.0190   30.9340   30.0590 C   0  0  0  0  0  3  0  0  0  0  0  0
   36.6150   30.6220   31.3400 C   0  0  0  0  0  3  0  0  0  0  0  0
   35.7540   28.5570   34.0020 N   0  0  0  0  0  0  0  0  0  0  0  0
   36.0970   28.8800   32.9310 C   0  0  0  0  0  0  0  0  0  0  0  0
   38.8100   24.2570   32.3490 C   0  0  0  0  0  0  0  0  0  0  0  0
   39.4320   23.9380   31.4600 H   0  0  0  0  0  0  0  0  0  0  0  0
   38.4970   23.2580   32.7790 H   0  0  0  0  0  0  0  0  0  0  0  0
   39.6870   24.8750   33.3430 C   0  0  0  0  0  0  0  0  0  0  0  0
   40.6530   24.3010   33.4680 H   0  0  0  0  0  0  0  0  0  0  0  0
   40.0200   25.8790   33.0070 H   0  0  0  0  0  0  0  0  0  0  0  0
   39.1330   24.9650   34.7130 C   0  0  0  0  0  0  0  0  0  0  0  0
   38.5900   26.1610   35.1770 C   0  0  0  0  0  0  0  0  0  0  0  0
   38.1610   25.9560   36.4620 C   0  0  0  0  0  0  0  0  0  0  0  0
   38.4410   24.6750   36.7600 N   0  0  0  0  0  0  0  0  0  0  0  0
   39.0060   24.1260   35.7210 N   0  0  0  0  0  0  0  0  0  0  0  0
   38.4460   27.1590   34.7520 H   0  0  0  0  0  0  0  0  0  0  0  0
   37.6770   26.5950   37.2170 H   0  0  0  0  0  0  0  0  0  0  0  0
   38.1760   23.9700   38.0180 C   0  0  0  0  0  0  0  0  0  0  0  0
   37.2380   22.9920   37.8370 F   0  0  0  0  0  0  0  0  0  0  0  0
   37.7600   24.8290   39.0120 F   0  0  0  0  0  0  0  0  0  0  0  0
   39.3400   23.3490   38.4760 F   0  0  0  0  0  0  0  0  0  0  0  0
  1 19  1  0  0  0  0
  2  1  1  0  0  0  0
  2  7  1  0  0  0  0
  3  2  2  0  0  0  0
  4  5  2  0  0  0  0
  4  3  1  0  0  0  0
  5  6  1  0  0  0  0
  6  1  2  0  0  0  0
  8  3  1  0  0  0  0
  9 18  1  0  0  0  0
 10  5  1  0  0  0  0
 10  9  2  0  0  0  0
 11 10  1  0  0  0  0
 12 11  1  0  0  0  0
 13 11  2  0  0  0  0
 13 15  1  0  0  0  0
 14 13  1  0  0  0  0
 15 16  2  0  0  0  0
 16  9  1  0  0  0  0
 18 17  3  0  0  0  0
 19 21  1  0  0  0  0
 19 22  1  0  0  0  0
 20 19  1  0  0  0  0
 22 23  1  0  0  0  0
 22 25  1  0  0  0  0
 24 22  1  0  0  0  0
 25 26  1  0  0  0  0
 25 29  2  0  0  0  0
 26 27  2  0  0  0  0
 27 28  1  0  0  0  0
 27 31  1  0  0  0  0
 28 32  1  0  0  0  0
 29 28  1  0  0  0  0
 30 26  1  0  0  0  0
 32 35  1  0  0  0  0
 32 34  1  0  0  0  0
 33 32  1  0  0  0  0
M  END
>  <minimizedAffinity>
-5.58489227

$$$$

 OpenBabel03272500283D

 35 37  0  0  0  0  0  0  0  0999 V2000
   36.3350   28.5290   33.1760 C   0  0  0  0  0  0  0  0  0  0  0  0
   36.1420   29.0700   31.9460 C   0  0  0  0  0  0  0  0  0  0  0  0
   35.1850   30.0590   31.6990 C   0  0  0  0  0  0  0  0  0  0  0  0
   34.4550   30.4380   32.8140 N   0  0  0  0  0  0  0  0  0  0  0  0
   34.6530   29.8990   34.0260 C   0  0  0  0  0  0  0  0  0  0  0  0
   35.5990   28.9480   34.1780 N   0  0  0  0  0  0  0  0  0  0  0  0
   36.6680   28.8240   31.0330 H   0  0  0  0  0  0  0  0  0  0  0  0
   34.9870   30.5170   30.7630 H   0  0  0  0  0  0  0  0  0  0  0  0
   34.3180   31.3720   35.9560 C   0  0  0  0  0  0  0  0  0  0  0  0
   33.8590   30.3300   35.1740 C   0  0  0  0  0  0  0  0  0  0  0  0
   32.6640   29.7120   35.4840 C   0  0  0  0  0  0  0  0  0  0  0  0
   32.2710   28.8980   34.9020 H   0  0  0  0  0  0  0  0  0  0  0  0
   31.9220   30.1460   36.5890 C   0  0  0  0  0  0  0  0  0  0  0  0
   30.9930   29.6670   36.8320 H   0  0  0  0  0  0  0  0  0  0  0  0
   32.4380   31.1910   37.3300 C   0  0  0  0  0  3  0  0  0  0  0  0
   33.6240   31.8450   37.0690 C   0  0  0  0  0  3  0  0  0  0  0  0
   36.5680   32.5660   35.3770 N   0  0  0  0  0  0  0  0  0  0  0  0
   35.5660   32.0250   35.6440 C   0  0  0  0  0  0  0  0  0  0  0  0
   37.3280   27.5230   33.3750 C   0  0  0  0  0  0  0  0  0  0  0  0
   38.1680   27.7260   32.6460 H   0  0  0  0  0  0  0  0  0  0  0  0
   36.9380   26.5280   33.0020 H   0  0  0  0  0  0  0  0  0  0  0  0
   37.9000   27.2690   34.6980 C   0  0  0  0  0  0  0  0  0  0  0  0
   38.9630   27.6450   34.7760 H   0  0  0  0  0  0  0  0  0  0  0  0
   37.3610   27.8430   35.4790 H   0  0  0  0  0  0  0  0  0  0  0  0
   37.9850   25.8440   35.0930 C   0  0  0  0  0  0  0  0  0  0  0  0
   38.1800   25.4940   36.4270 C   0  0  0  0  0  0  0  0  0  0  0  0
   38.2200   24.1260   36.4990 C   0  0  0  0  0  0  0  0  0  0  0  0
   38.0530   23.6710   35.2440 N   0  0  0  0  0  0  0  0  0  0  0  0
   37.9190   24.6970   34.4500 N   0  0  0  0  0  0  0  0  0  0  0  0
   38.3000   26.0500   37.3610 H   0  0  0  0  0  0  0  0  0  0  0  0
   38.3520   23.4080   37.3230 H   0  0  0  0  0  0  0  0  0  0  0  0
   38.0210   22.2750   34.7950 C   0  0  0  0  0  0  0  0  0  0  0  0
   39.2890   21.7910   34.6290 F   0  0  0  0  0  0  0  0  0  0  0  0
   37.3140   22.1290   33.6210 F   0  0  0  0  0  0  0  0  0  0  0  0
   37.3930   21.4760   35.7520 F   0  0  0  0  0  0  0  0  0  0  0  0
  1 19  1  0  0  0  0
  1  6  1  0  0  0  0
  2  1  2  0  0  0  0
  3  2  1  0  0  0  0
  3  4  2  0  0  0  0
  4  5  1  0  0  0  0
  5  6  2  0  0  0  0
  5 10  1  0  0  0  0
  7  2  1  0  0  0  0
  8  3  1  0  0  0  0
  9 16  1  0  0  0  0
 10 11  1  0  0  0  0
 10  9  2  0  0  0  0
 11 13  2  0  0  0  0
 12 11  1  0  0  0  0
 13 14  1  0  0  0  0
 13 15  1  0  0  0  0
 16 15  2  0  0  0  0
 17 18  3  0  0  0  0
 18  9  1  0  0  0  0
 19 22  1  0  0  0  0
 20 19  1  0  0  0  0
 21 19  1  0  0  0  0
 22 23  1  0  0  0  0
 22 25  1  0  0  0  0
 22 24  1  0  0  0  0
 25 26  1  0  0  0  0
 26 27  2  0  0  0  0
 26 30  1  0  0  0  0
 27 31  1  0  0  0  0
 28 27  1  0  0  0  0
 29 25  2  0  0  0  0
 29 28  1  0  0  0  0
 32 28  1  0  0  0  0
 32 35  1  0  0  0  0
 33 32  1  0  0  0  0
 34 32  1  0  0  0  0
M  END
>  <minimizedAffinity>
-5.52829504

$$$$
