
 OpenBabel03272505123D

 40 43  0  0  0  0  0  0  0  0999 V2000
   34.0750   29.9600   47.5250 S   0  0  0  0  0  0  0  0  0  0  0  0
   36.4160   30.9040   45.7060 Cl  0  0  0  0  0  0  0  0  0  0  0  0
   36.7030   30.7920   47.4220 C   0  0  0  0  0  0  0  0  0  0  0  0
   37.9600   31.1290   47.8830 C   0  0  0  0  0  0  0  0  0  0  0  0
   38.1960   31.0420   49.2510 C   0  0  0  0  0  0  0  0  0  0  0  0
   37.1910   30.6290   50.0910 C   0  0  0  0  0  0  0  0  0  0  0  0
   35.9550   30.3070   49.5620 C   0  0  0  0  0  0  0  0  0  0  0  0
   35.6480   30.3680   48.2260 C   0  0  0  0  0  0  0  0  0  0  0  0
   39.1580   31.2950   49.6490 H   0  0  0  0  0  0  0  0  0  0  0  0
   37.3700   30.5590   51.1570 H   0  0  0  0  0  0  0  0  0  0  0  0
   35.1760   29.9830   50.2440 H   0  0  0  0  0  0  0  0  0  0  0  0
   40.2220   33.3280   46.0680 C   0  0  0  0  0  0  0  0  0  0  0  0
   40.9390   32.4650   45.2100 C   0  0  0  0  0  0  0  0  0  0  0  0
   40.6170   31.1060   45.2790 C   0  0  0  0  0  0  0  0  0  0  0  0
   39.6470   30.6940   46.1520 N   0  0  0  0  0  0  0  0  0  0  0  0
   39.0000   31.5640   46.9440 C   0  0  0  0  0  0  0  0  0  0  0  0
   39.2900   32.8650   46.8970 N   0  0  0  0  0  0  0  0  0  0  0  0
   40.3970   34.4080   46.0940 H   0  0  0  0  0  0  0  0  0  0  0  0
   41.6810   32.9040   44.5640 H   0  0  0  0  0  0  0  0  0  0  0  0
   41.1530   30.4410   44.6310 H   0  0  0  0  0  0  0  0  0  0  0  0
   33.8260   29.1490   44.4980 Cl  0  0  0  0  0  0  0  0  0  0  0  0
   33.8430   27.9480   45.7810 C   0  0  0  0  0  0  0  0  0  0  0  0
   33.9490   28.2120   47.1360 C   0  0  0  0  0  0  0  0  0  0  0  0
   33.9510   27.1810   48.0460 C   0  0  0  0  0  0  0  0  0  0  0  0
   33.8480   25.8900   47.6240 C   0  0  0  0  0  0  0  0  0  0  0  0
   33.7390   25.5650   46.2670 C   0  0  0  0  0  0  0  0  0  0  0  0
   33.7400   26.6130   45.3830 C   0  0  0  0  0  0  0  0  0  0  0  0
   34.0380   27.4890   49.0870 H   0  0  0  0  0  0  0  0  0  0  0  0
   33.8550   25.1250   48.3730 H   0  0  0  0  0  0  0  0  0  0  0  0
   33.6610   24.5320   45.9750 H   0  0  0  0  0  0  0  0  0  0  0  0
   32.3030   26.1130   43.5340 C   0  0  0  0  0  0  0  0  0  0  0  0
   33.6240   26.2130   43.9790 C   0  0  0  0  0  0  0  0  0  0  0  0
   34.6840   25.9450   43.1210 C   0  0  0  0  0  0  0  0  0  0  0  0
   35.6680   26.0440   43.5370 H   0  0  0  0  0  0  0  0  0  0  0  0
   34.3780   25.5790   41.8290 C   0  0  0  0  0  0  0  0  0  0  0  0
   35.2380   25.3800   41.1950 H   0  0  0  0  0  0  0  0  0  0  0  0
   33.0930   25.4680   41.3450 C   0  0  0  0  0  3  0  0  0  0  0  0
   32.0660   25.7420   42.2250 C   0  0  0  0  0  3  0  0  0  0  0  0
   30.2710   26.6110   45.0640 N   0  0  0  0  0  0  0  0  0  0  0  0
   31.1700   26.3810   44.3880 C   0  0  0  0  0  0  0  0  0  0  0  0
  1  8  1  0  0  0  0
  2  3  1  0  0  0  0
  3  4  2  0  0  0  0
  3  8  1  0  0  0  0
  4  5  1  0  0  0  0
  5  9  1  0  0  0  0
  5  6  2  0  0  0  0
  6 10  1  0  0  0  0
  7  6  1  0  0  0  0
  7 11  1  0  0  0  0
  8  7  2  0  0  0  0
 12 18  1  0  0  0  0
 12 17  1  0  0  0  0
 13 14  1  0  0  0  0
 13 12  2  0  0  0  0
 14 15  2  0  0  0  0
 15 16  1  0  0  0  0
 16  4  1  0  0  0  0
 17 16  2  0  0  0  0
 19 13  1  0  0  0  0
 20 14  1  0  0  0  0
 21 22  1  0  0  0  0
 22 23  1  0  0  0  0
 23  1  1  0  0  0  0
 23 24  2  0  0  0  0
 24 28  1  0  0  0  0
 25 24  1  0  0  0  0
 25 29  1  0  0  0  0
 26 25  2  0  0  0  0
 27 22  2  0  0  0  0
 27 26  1  0  0  0  0
 30 26  1  0  0  0  0
 31 32  1  0  0  0  0
 31 40  1  0  0  0  0
 32 27  1  0  0  0  0
 33 34  1  0  0  0  0
 33 32  2  0  0  0  0
 35 33  1  0  0  0  0
 36 35  1  0  0  0  0
 37 35  2  0  0  0  0
 37 38  1  0  0  0  0
 38 31  2  0  0  0  0
 40 39  3  0  0  0  0
M  END
>  <minimizedAffinity>
-5.50630474

>  <minimizedRMSD>
0.275777787

$$$$
