
 OpenBabel03272502403D

 41 44  0  0  1  0  0  0  0  0999 V2000
   37.2960   25.0930   32.5440 N   0  0  0  0  0  0  0  0  0  0  0  0
   38.4220   25.6540   33.2650 C   0  0  0  0  0  0  0  0  0  0  0  0
   38.3210   27.1230   32.9730 C   0  0  0  0  0  0  0  0  0  0  0  0
   37.1700   27.2390   31.8710 C   0  0  1  0  0  0  0  0  0  0  0  0
   36.2970   26.1610   32.3350 C   0  0  0  0  0  0  0  0  0  0  0  0
   38.3730   25.4360   34.3520 H   0  0  0  0  0  0  0  0  0  0  0  0
   39.3580   25.2920   32.8020 H   0  0  0  0  0  0  0  0  0  0  0  0
   39.2280   27.5710   32.5260 H   0  0  0  0  0  0  0  0  0  0  0  0
   37.9260   27.6720   33.8280 H   0  0  0  0  0  0  0  0  0  0  0  0
   37.7410   27.0600   30.9530 H   0  0  0  0  0  0  0  0  0  0  0  0
   35.8950   26.3490   33.3480 H   0  0  0  0  0  0  0  0  0  0  0  0
   35.5190   25.8240   31.6240 H   0  0  0  0  0  0  0  0  0  0  0  0
   35.9760   28.2490   34.2430 F   0  0  0  0  0  0  0  0  0  0  0  0
   36.1100   28.9970   33.1360 C   0  0  0  0  0  0  0  0  0  0  0  0
   36.6200   28.5930   31.9330 C   0  0  0  0  0  0  0  0  0  0  0  0
   36.6770   29.5350   30.8890 C   0  0  0  0  0  0  0  0  0  0  0  0
   36.2430   30.8250   31.0430 C   0  0  0  0  0  0  0  0  0  0  0  0
   35.7230   31.2140   32.2820 C   0  0  0  0  0  0  0  0  0  0  0  0
   35.6610   30.2790   33.3320 C   0  0  0  0  0  0  0  0  0  0  0  0
   37.0920   29.1360   29.9740 H   0  0  0  0  0  0  0  0  0  0  0  0
   36.3250   31.4840   30.1900 H   0  0  0  0  0  0  0  0  0  0  0  0
   35.3840   32.2310   32.3920 H   0  0  0  0  0  0  0  0  0  0  0  0
   33.7430   30.5260   34.7890 C   0  0  0  0  0  0  0  0  0  0  0  0
   35.1030   30.7860   34.5810 C   0  0  0  0  0  0  0  0  0  0  0  0
   35.8340   31.4870   35.5310 C   0  0  0  0  0  0  0  0  0  0  0  0
   36.8870   31.6620   35.3200 H   0  0  0  0  0  0  0  0  0  0  0  0
   35.1720   31.9070   36.6680 C   0  0  0  0  0  0  0  0  0  0  0  0
   35.7650   32.4500   37.3900 H   0  0  0  0  0  0  0  0  0  0  0  0
   33.8350   31.6510   36.8690 C   0  0  0  0  0  3  0  0  0  0  0  0
   33.0920   30.9540   35.9330 C   0  0  0  0  0  3  0  0  0  0  0  0
   32.3640   29.2030   33.0060 N   0  0  0  0  0  0  0  0  0  0  0  0
   32.9780   29.7960   33.8000 C   0  0  0  0  0  0  0  0  0  0  0  0
   37.1440   23.7650   32.0970 C   0  0  0  0  0  0  0  0  0  0  0  0
   35.8810   23.4290   31.5920 C   0  0  0  0  0  0  0  0  0  0  0  0
   35.6630   22.1180   31.1400 C   0  0  0  0  0  0  0  0  0  0  0  0
   36.7330   21.2470   31.2290 N   0  0  0  0  0  0  0  0  0  0  0  0
   37.9280   21.6090   31.7190 C   0  0  0  0  0  0  0  0  0  0  0  0
   38.1380   22.8760   32.1570 N   0  0  0  0  0  0  0  0  0  0  0  0
   35.0270   24.0580   31.5020 H   0  0  0  0  0  0  0  0  0  0  0  0
   34.7170   21.7880   30.7380 H   0  0  0  0  0  0  0  0  0  0  0  0
   38.6830   20.8440   31.7380 H   0  0  0  0  0  0  0  0  0  0  0  0
  1  2  1  0  0  0  0
  2  6  1  0  0  0  0
  3  2  1  0  0  0  0
  3  9  1  0  0  0  0
  4 10  1  6  0  0  0
  4 15  1  0  0  0  0
  4  5  1  0  0  0  0
  4  3  1  0  0  0  0
  5  1  1  0  0  0  0
  5 11  1  0  0  0  0
  7  2  1  0  0  0  0
  8  3  1  0  0  0  0
 12  5  1  0  0  0  0
 14 19  1  0  0  0  0
 14 13  1  0  0  0  0
 15 14  2  0  0  0  0
 16 17  2  0  0  0  0
 16 15  1  0  0  0  0
 17 18  1  0  0  0  0
 18 22  1  0  0  0  0
 18 19  2  0  0  0  0
 19 24  1  0  0  0  0
 20 16  1  0  0  0  0
 21 17  1  0  0  0  0
 23 30  1  0  0  0  0
 24 23  2  0  0  0  0
 24 25  1  0  0  0  0
 25 27  2  0  0  0  0
 26 25  1  0  0  0  0
 27 29  1  0  0  0  0
 27 28  1  0  0  0  0
 30 29  2  0  0  0  0
 31 32  3  0  0  0  0
 32 23  1  0  0  0  0
 33 38  1  0  0  0  0
 33  1  1  0  0  0  0
 34 33  2  0  0  0  0
 35 36  2  0  0  0  0
 35 34  1  0  0  0  0
 36 37  1  0  0  0  0
 37 41  1  0  0  0  0
 37 38  2  0  0  0  0
 39 34  1  0  0  0  0
 40 35  1  0  0  0  0
M  END
>  <minimizedAffinity>
-6.14740801

$$$$

 OpenBabel03272502403D

 41 44  0  0  1  0  0  0  0  0999 V2000
   38.7780   25.1810   33.3030 N   0  0  0  0  0  0  0  0  0  0  0  0
   38.8420   25.1590   31.8550 C   0  0  0  0  0  0  0  0  0  0  0  0
   37.8720   26.2310   31.4500 C   0  0  0  0  0  0  0  0  0  0  0  0
   37.1510   26.6580   32.8110 C   0  0  1  0  0  0  0  0  0  0  0  0
   38.2790   26.5040   33.7280 C   0  0  0  0  0  0  0  0  0  0  0  0
   39.8680   25.3550   31.4790 H   0  0  0  0  0  0  0  0  0  0  0  0
   38.4360   24.1960   31.4940 H   0  0  0  0  0  0  0  0  0  0  0  0
   37.0720   25.8980   30.7630 H   0  0  0  0  0  0  0  0  0  0  0  0
   38.3900   27.1350   31.1290 H   0  0  0  0  0  0  0  0  0  0  0  0
   36.3530   25.9090   32.8680 H   0  0  0  0  0  0  0  0  0  0  0  0
   39.1140   27.1900   33.4920 H   0  0  0  0  0  0  0  0  0  0  0  0
   38.0310   26.4920   34.8070 H   0  0  0  0  0  0  0  0  0  0  0  0
   35.8920   28.0490   34.9460 F   0  0  0  0  0  0  0  0  0  0  0  0
   36.0870   28.6120   33.7420 C   0  0  0  0  0  0  0  0  0  0  0  0
   36.6330   28.0160   32.6400 C   0  0  0  0  0  0  0  0  0  0  0  0
   36.7540   28.7820   31.4650 C   0  0  0  0  0  0  0  0  0  0  0  0
   36.3470   30.0880   31.3990 C   0  0  0  0  0  0  0  0  0  0  0  0
   35.7890   30.6760   32.5390 C   0  0  0  0  0  0  0  0  0  0  0  0
   35.6630   29.9170   33.7180 C   0  0  0  0  0  0  0  0  0  0  0  0
   37.1940   28.2370   30.6410 H   0  0  0  0  0  0  0  0  0  0  0  0
   36.4780   30.6040   30.4580 H   0  0  0  0  0  0  0  0  0  0  0  0
   35.4710   31.7030   32.4750 H   0  0  0  0  0  0  0  0  0  0  0  0
   33.6800   30.5090   34.9740 C   0  0  0  0  0  0  0  0  0  0  0  0
   35.0700   30.6230   34.8480 C   0  0  0  0  0  0  0  0  0  0  0  0
   35.7970   31.3720   35.7650 C   0  0  0  0  0  0  0  0  0  0  0  0
   36.8730   31.4280   35.6210 H   0  0  0  0  0  0  0  0  0  0  0  0
   35.0990   31.9870   36.7860 C   0  0  0  0  0  0  0  0  0  0  0  0
   35.6890   32.5630   37.4850 H   0  0  0  0  0  0  0  0  0  0  0  0
   33.7330   31.8740   36.9070 C   0  0  0  0  0  3  0  0  0  0  0  0
   32.9950   31.1320   36.0030 C   0  0  0  0  0  3  0  0  0  0  0  0
   32.3050   29.1000   33.2560 N   0  0  0  0  0  0  0  0  0  0  0  0
   32.9200   29.7300   34.0200 C   0  0  0  0  0  0  0  0  0  0  0  0
   39.1170   24.1370   34.1890 C   0  0  0  0  0  0  0  0  0  0  0  0
   38.4420   24.1320   35.4160 C   0  0  0  0  0  0  0  0  0  0  0  0
   38.7420   23.1240   36.3460 C   0  0  0  0  0  0  0  0  0  0  0  0
   39.6980   22.1990   35.9680 N   0  0  0  0  0  0  0  0  0  0  0  0
   40.3210   22.2390   34.7820 C   0  0  0  0  0  0  0  0  0  0  0  0
   40.0310   23.2140   33.8840 N   0  0  0  0  0  0  0  0  0  0  0  0
   37.7010   24.8170   35.7560 H   0  0  0  0  0  0  0  0  0  0  0  0
   38.2620   23.0560   37.3100 H   0  0  0  0  0  0  0  0  0  0  0  0
   41.0450   21.4650   34.6010 H   0  0  0  0  0  0  0  0  0  0  0  0
  1  5  1  0  0  0  0
  1 33  1  0  0  0  0
  2  1  1  0  0  0  0
  3  2  1  0  0  0  0
  3  4  1  0  0  0  0
  4 10  1  1  0  0  0
  4  5  1  0  0  0  0
  5 12  1  0  0  0  0
  6  2  1  0  0  0  0
  7  2  1  0  0  0  0
  8  3  1  0  0  0  0
  9  3  1  0  0  0  0
 11  5  1  0  0  0  0
 14 13  1  0  0  0  0
 15  4  1  0  0  0  0
 15 14  2  0  0  0  0
 16 15  1  0  0  0  0
 17 16  2  0  0  0  0
 17 18  1  0  0  0  0
 18 19  2  0  0  0  0
 19 14  1  0  0  0  0
 19 24  1  0  0  0  0
 20 16  1  0  0  0  0
 21 17  1  0  0  0  0
 22 18  1  0  0  0  0
 23 30  1  0  0  0  0
 24 23  2  0  0  0  0
 24 25  1  0  0  0  0
 25 27  2  0  0  0  0
 26 25  1  0  0  0  0
 27 29  1  0  0  0  0
 27 28  1  0  0  0  0
 30 29  2  0  0  0  0
 31 32  3  0  0  0  0
 32 23  1  0  0  0  0
 33 34  1  0  0  0  0
 34 39  1  0  0  0  0
 34 35  2  0  0  0  0
 35 40  1  0  0  0  0
 36 35  1  0  0  0  0
 37 36  2  0  0  0  0
 38 33  2  0  0  0  0
 38 37  1  0  0  0  0
 41 37  1  0  0  0  0
M  END
>  <minimizedAffinity>
-6.09852552

$$$$

 OpenBabel03272502403D

 41 44  0  0  1  0  0  0  0  0999 V2000
   37.7530   25.5970   32.6700 N   0  0  0  0  0  0  0  0  0  0  0  0
   37.9370   25.8080   31.2480 C   0  0  0  0  0  0  0  0  0  0  0  0
   37.1970   27.0890   30.9900 C   0  0  0  0  0  0  0  0  0  0  0  0
   36.4420   27.4030   32.3640 C   0  0  1  0  0  0  0  0  0  0  0  0
   37.4460   26.8980   33.2990 C   0  0  0  0  0  0  0  0  0  0  0  0
   39.0100   25.8780   30.9710 H   0  0  0  0  0  0  0  0  0  0  0  0
   37.4090   25.0080   30.6970 H   0  0  0  0  0  0  0  0  0  0  0  0
   36.4150   27.0240   30.2110 H   0  0  0  0  0  0  0  0  0  0  0  0
   37.8830   27.9260   30.8670 H   0  0  0  0  0  0  0  0  0  0  0  0
   35.5290   26.8090   32.2400 H   0  0  0  0  0  0  0  0  0  0  0  0
   38.4010   27.4530   33.2370 H   0  0  0  0  0  0  0  0  0  0  0  0
   37.1080   26.7490   34.3420 H   0  0  0  0  0  0  0  0  0  0  0  0
   35.2030   28.6090   34.6190 F   0  0  0  0  0  0  0  0  0  0  0  0
   35.6170   29.3260   33.5610 C   0  0  0  0  0  0  0  0  0  0  0  0
   36.1740   28.8400   32.4110 C   0  0  0  0  0  0  0  0  0  0  0  0
   36.5440   29.7620   31.4150 C   0  0  0  0  0  0  0  0  0  0  0  0
   36.3650   31.1120   31.5640 C   0  0  0  0  0  0  0  0  0  0  0  0
   35.7900   31.5850   32.7490 C   0  0  0  0  0  0  0  0  0  0  0  0
   35.4160   30.6700   33.7510 C   0  0  0  0  0  0  0  0  0  0  0  0
   36.9760   29.2980   30.5390 H   0  0  0  0  0  0  0  0  0  0  0  0
   36.6780   31.7510   30.7500 H   0  0  0  0  0  0  0  0  0  0  0  0
   35.6530   32.6490   32.8560 H   0  0  0  0  0  0  0  0  0  0  0  0
   33.4270   31.2900   34.9860 C   0  0  0  0  0  0  0  0  0  0  0  0
   34.8270   31.2670   34.9450 C   0  0  0  0  0  0  0  0  0  0  0  0
   35.5670   31.7890   35.9980 C   0  0  0  0  0  0  0  0  0  0  0  0
   36.6500   31.7460   35.9160 H   0  0  0  0  0  0  0  0  0  0  0  0
   34.8720   32.3230   37.0660 C   0  0  0  0  0  0  0  0  0  0  0  0
   35.4720   32.7230   37.8710 H   0  0  0  0  0  0  0  0  0  0  0  0
   33.4970   32.3460   37.1030 C   0  0  0  0  0  3  0  0  0  0  0  0
   32.7460   31.8290   36.0630 C   0  0  0  0  0  3  0  0  0  0  0  0
   32.0320   30.3130   33.0030 N   0  0  0  0  0  0  0  0  0  0  0  0
   32.6540   30.7460   33.8890 C   0  0  0  0  0  0  0  0  0  0  0  0
   37.8370   24.3760   33.3700 C   0  0  0  0  0  0  0  0  0  0  0  0
   37.4390   23.2350   32.6610 C   0  0  0  0  0  0  0  0  0  0  0  0
   37.4900   21.9890   33.3050 C   0  0  0  0  0  0  0  0  0  0  0  0
   37.9390   21.9870   34.6130 N   0  0  0  0  0  0  0  0  0  0  0  0
   38.3110   23.1030   35.2560 C   0  0  0  0  0  0  0  0  0  0  0  0
   38.2600   24.3070   34.6330 N   0  0  0  0  0  0  0  0  0  0  0  0
   37.0870   23.1810   31.6570 H   0  0  0  0  0  0  0  0  0  0  0  0
   37.2010   21.0680   32.8220 H   0  0  0  0  0  0  0  0  0  0  0  0
   38.6430   22.9760   36.2710 H   0  0  0  0  0  0  0  0  0  0  0  0
  1  5  1  0  0  0  0
  1 33  1  0  0  0  0
  2  1  1  0  0  0  0
  3  2  1  0  0  0  0
  3  4  1  0  0  0  0
  4 10  1  1  0  0  0
  4 15  1  0  0  0  0
  4  5  1  0  0  0  0
  5 12  1  0  0  0  0
  6  2  1  0  0  0  0
  7  2  1  0  0  0  0
  8  3  1  0  0  0  0
  9  3  1  0  0  0  0
 11  5  1  0  0  0  0
 14 19  1  0  0  0  0
 14 13  1  0  0  0  0
 15 14  2  0  0  0  0
 16 17  2  0  0  0  0
 16 15  1  0  0  0  0
 17 18  1  0  0  0  0
 18 22  1  0  0  0  0
 18 19  2  0  0  0  0
 19 24  1  0  0  0  0
 20 16  1  0  0  0  0
 21 17  1  0  0  0  0
 23 30  1  0  0  0  0
 24 23  2  0  0  0  0
 24 25  1  0  0  0  0
 25 27  2  0  0  0  0
 26 25  1  0  0  0  0
 27 29  1  0  0  0  0
 27 28  1  0  0  0  0
 30 29  2  0  0  0  0
 31 32  3  0  0  0  0
 32 23  1  0  0  0  0
 33 38  1  0  0  0  0
 34 35  1  0  0  0  0
 34 33  2  0  0  0  0
 35 36  2  0  0  0  0
 36 37  1  0  0  0  0
 37 41  1  0  0  0  0
 38 37  2  0  0  0  0
 39 34  1  0  0  0  0
 40 35  1  0  0  0  0
M  END
>  <minimizedAffinity>
-5.87893057

$$$$

 OpenBabel03272502403D

 41 44  0  0  1  0  0  0  0  0999 V2000
   35.5480   29.9670   33.5170 N   0  0  0  0  0  0  0  0  0  0  0  0
   35.8040   29.9250   32.0910 C   0  0  0  0  0  0  0  0  0  0  0  0
   36.6330   28.6830   31.9260 C   0  0  0  0  0  0  0  0  0  0  0  0
   36.9540   28.2110   33.4180 C   0  0  1  0  0  0  0  0  0  0  0  0
   35.7000   28.6010   34.0590 C   0  0  0  0  0  0  0  0  0  0  0  0
   34.8660   29.8870   31.4990 H   0  0  0  0  0  0  0  0  0  0  0  0
   36.4440   30.7840   31.8170 H   0  0  0  0  0  0  0  0  0  0  0  0
   37.6090   28.8390   31.4300 H   0  0  0  0  0  0  0  0  0  0  0  0
   36.0450   27.8660   31.5090 H   0  0  0  0  0  0  0  0  0  0  0  0
   37.8410   28.8150   33.6420 H   0  0  0  0  0  0  0  0  0  0  0  0
   34.8280   28.0570   33.6510 H   0  0  0  0  0  0  0  0  0  0  0  0
   35.7060   28.6270   35.1660 H   0  0  0  0  0  0  0  0  0  0  0  0
   38.1280   26.8790   35.6380 F   0  0  0  0  0  0  0  0  0  0  0  0
   37.7690   26.2260   34.5210 C   0  0  0  0  0  0  0  0  0  0  0  0
   37.2480   26.7770   33.3830 C   0  0  0  0  0  0  0  0  0  0  0  0
   36.9340   25.9170   32.3150 C   0  0  0  0  0  0  0  0  0  0  0  0
   37.1320   24.5630   32.3840 C   0  0  0  0  0  0  0  0  0  0  0  0
   37.6690   24.0230   33.5570 C   0  0  0  0  0  0  0  0  0  0  0  0
   37.9870   24.8760   34.6300 C   0  0  0  0  0  0  0  0  0  0  0  0
   36.5270   26.4310   31.4550 H   0  0  0  0  0  0  0  0  0  0  0  0
   36.8620   23.9740   31.5180 H   0  0  0  0  0  0  0  0  0  0  0  0
   37.8230   22.9570   33.6000 H   0  0  0  0  0  0  0  0  0  0  0  0
   39.8940   23.8590   35.7240 C   0  0  0  0  0  0  0  0  0  0  0  0
   38.5410   24.2120   35.8050 C   0  0  0  0  0  0  0  0  0  0  0  0
   37.8120   23.9290   36.9530 C   0  0  0  0  0  0  0  0  0  0  0  0
   36.7660   24.2250   36.9650 H   0  0  0  0  0  0  0  0  0  0  0  0
   38.4690   23.2950   37.9900 C   0  0  0  0  0  0  0  0  0  0  0  0
   37.8790   23.0870   38.8700 H   0  0  0  0  0  0  0  0  0  0  0  0
   39.7990   22.9480   37.9060 C   0  0  0  0  0  3  0  0  0  0  0  0
   40.5390   23.2230   36.7700 C   0  0  0  0  0  3  0  0  0  0  0  0
   41.2640   24.3900   33.5620 N   0  0  0  0  0  0  0  0  0  0  0  0
   40.6550   24.1520   34.5280 C   0  0  0  0  0  0  0  0  0  0  0  0
   35.2150   31.0970   34.2920 C   0  0  0  0  0  0  0  0  0  0  0  0
   35.7020   31.1030   35.6060 C   0  0  0  0  0  0  0  0  0  0  0  0
   35.3970   32.1970   36.4320 C   0  0  0  0  0  0  0  0  0  0  0  0
   34.6270   33.2000   35.8710 N   0  0  0  0  0  0  0  0  0  0  0  0
   34.1820   33.1550   34.6070 C   0  0  0  0  0  0  0  0  0  0  0  0
   34.4760   32.0970   33.8100 N   0  0  0  0  0  0  0  0  0  0  0  0
   36.2950   30.3610   36.0850 H   0  0  0  0  0  0  0  0  0  0  0  0
   35.7370   32.2710   37.4530 H   0  0  0  0  0  0  0  0  0  0  0  0
   33.5920   33.9940   34.2830 H   0  0  0  0  0  0  0  0  0  0  0  0
  1  5  1  0  0  0  0
  1 33  1  0  0  0  0
  2  1  1  0  0  0  0
  3  2  1  0  0  0  0
  3  4  1  0  0  0  0
  4 10  1  1  0  0  0
  4  5  1  0  0  0  0
  5 12  1  0  0  0  0
  6  2  1  0  0  0  0
  7  2  1  0  0  0  0
  8  3  1  0  0  0  0
  9  3  1  0  0  0  0
 11  5  1  0  0  0  0
 14 19  1  0  0  0  0
 14 13  1  0  0  0  0
 15  4  1  0  0  0  0
 15 14  2  0  0  0  0
 16 17  2  0  0  0  0
 16 15  1  0  0  0  0
 17 18  1  0  0  0  0
 18 22  1  0  0  0  0
 18 19  2  0  0  0  0
 19 24  1  0  0  0  0
 20 16  1  0  0  0  0
 21 17  1  0  0  0  0
 23 24  2  0  0  0  0
 23 30  1  0  0  0  0
 24 25  1  0  0  0  0
 25 26  1  0  0  0  0
 25 27  2  0  0  0  0
 27 28  1  0  0  0  0
 29 27  1  0  0  0  0
 30 29  2  0  0  0  0
 31 32  3  0  0  0  0
 32 23  1  0  0  0  0
 33 34  1  0  0  0  0
 34 39  1  0  0  0  0
 34 35  2  0  0  0  0
 35 40  1  0  0  0  0
 36 35  1  0  0  0  0
 37 36  2  0  0  0  0
 38 33  2  0  0  0  0
 38 37  1  0  0  0  0
 41 37  1  0  0  0  0
M  END
>  <minimizedAffinity>
-5.78924465

$$$$

 OpenBabel03272502403D

 41 44  0  0  1  0  0  0  0  0999 V2000
   37.2670   25.6090   32.5660 N   0  0  0  0  0  0  0  0  0  0  0  0
   37.8790   26.0420   33.8070 C   0  0  0  0  0  0  0  0  0  0  0  0
   37.6250   27.5220   33.8180 C   0  0  0  0  0  0  0  0  0  0  0  0
   37.0140   27.8390   32.3760 C   0  0  1  0  0  0  0  0  0  0  0  0
   36.2520   26.6080   32.1730 C   0  0  0  0  0  0  0  0  0  0  0  0
   37.4410   25.5320   34.6900 H   0  0  0  0  0  0  0  0  0  0  0  0
   38.9740   25.8980   33.7340 H   0  0  0  0  0  0  0  0  0  0  0  0
   38.5310   28.1480   33.9190 H   0  0  0  0  0  0  0  0  0  0  0  0
   36.8230   27.7810   34.5090 H   0  0  0  0  0  0  0  0  0  0  0  0
   37.9290   27.9650   31.7850 H   0  0  0  0  0  0  0  0  0  0  0  0
   35.4500   26.4770   32.9220 H   0  0  0  0  0  0  0  0  0  0  0  0
   35.9050   26.4150   31.1400 H   0  0  0  0  0  0  0  0  0  0  0  0
   35.3290   28.3560   34.6060 F   0  0  0  0  0  0  0  0  0  0  0  0
   35.4950   29.2450   33.6130 C   0  0  0  0  0  0  0  0  0  0  0  0
   36.2370   29.0740   32.4780 C   0  0  0  0  0  0  0  0  0  0  0  0
   36.2850   30.1340   31.5530 C   0  0  0  0  0  0  0  0  0  0  0  0
   35.6200   31.3140   31.7570 C   0  0  0  0  0  0  0  0  0  0  0  0
   34.8640   31.4640   32.9250 C   0  0  0  0  0  0  0  0  0  0  0  0
   34.8090   30.4090   33.8550 C   0  0  0  0  0  0  0  0  0  0  0  0
   36.8930   29.9190   30.6840 H   0  0  0  0  0  0  0  0  0  0  0  0
   35.7120   32.0770   30.9970 H   0  0  0  0  0  0  0  0  0  0  0  0
   34.3440   32.3960   33.0750 H   0  0  0  0  0  0  0  0  0  0  0  0
   34.5280   31.5810   35.9560 C   0  0  0  0  0  0  0  0  0  0  0  0
   33.9950   30.6680   35.0370 C   0  0  0  0  0  0  0  0  0  0  0  0
   32.7640   30.0710   35.2780 C   0  0  0  0  0  0  0  0  0  0  0  0
   32.3950   29.3700   34.5330 H   0  0  0  0  0  0  0  0  0  0  0  0
   32.1030   30.4120   36.4420 C   0  0  0  0  0  0  0  0  0  0  0  0
   31.1480   29.9340   36.6040 H   0  0  0  0  0  0  0  0  0  0  0  0
   32.6300   31.3090   37.3430 C   0  0  0  0  0  3  0  0  0  0  0  0
   33.8540   31.9130   37.1180 C   0  0  0  0  0  3  0  0  0  0  0  0
   36.8420   32.7100   35.5050 N   0  0  0  0  0  0  0  0  0  0  0  0
   35.8110   32.2040   35.7070 C   0  0  0  0  0  0  0  0  0  0  0  0
   37.5650   24.4450   31.8270 C   0  0  0  0  0  0  0  0  0  0  0  0
   36.6170   23.4150   31.8990 C   0  0  0  0  0  0  0  0  0  0  0  0
   36.8600   22.2260   31.1940 C   0  0  0  0  0  0  0  0  0  0  0  0
   38.0370   22.1660   30.4700 N   0  0  0  0  0  0  0  0  0  0  0  0
   38.9180   23.1760   30.4270 C   0  0  0  0  0  0  0  0  0  0  0  0
   38.6830   24.3240   31.1100 N   0  0  0  0  0  0  0  0  0  0  0  0
   35.7000   23.4100   32.4390 H   0  0  0  0  0  0  0  0  0  0  0  0
   36.1760   21.3920   31.2020 H   0  0  0  0  0  0  0  0  0  0  0  0
   39.7970   23.0120   29.8300 H   0  0  0  0  0  0  0  0  0  0  0  0
  1  2  1  0  0  0  0
  2  3  1  0  0  0  0
  2  6  1  0  0  0  0
  3  8  1  0  0  0  0
  3  9  1  0  0  0  0
  4 10  1  6  0  0  0
  4 15  1  0  0  0  0
  4  3  1  0  0  0  0
  5  4  1  0  0  0  0
  5  1  1  0  0  0  0
  5 11  1  0  0  0  0
  7  2  1  0  0  0  0
 12  5  1  0  0  0  0
 14 19  1  0  0  0  0
 14 13  1  0  0  0  0
 15 14  2  0  0  0  0
 16 17  2  0  0  0  0
 16 15  1  0  0  0  0
 17 18  1  0  0  0  0
 18 22  1  0  0  0  0
 18 19  2  0  0  0  0
 19 24  1  0  0  0  0
 20 16  1  0  0  0  0
 21 17  1  0  0  0  0
 23 30  1  0  0  0  0
 24 25  1  0  0  0  0
 24 23  2  0  0  0  0
 25 27  2  0  0  0  0
 26 25  1  0  0  0  0
 27 28  1  0  0  0  0
 27 29  1  0  0  0  0
 30 29  2  0  0  0  0
 31 32  3  0  0  0  0
 32 23  1  0  0  0  0
 33 34  1  0  0  0  0
 33  1  1  0  0  0  0
 34 39  1  0  0  0  0
 35 40  1  0  0  0  0
 35 34  2  0  0  0  0
 36 35  1  0  0  0  0
 37 36  2  0  0  0  0
 37 38  1  0  0  0  0
 38 33  2  0  0  0  0
 41 37  1  0  0  0  0
M  END
>  <minimizedAffinity>
-5.60143471

$$$$

 OpenBabel03272502403D

 41 44  0  0  1  0  0  0  0  0999 V2000
   39.2750   23.6950   35.7800 N   0  0  0  0  0  0  0  0  0  0  0  0
   38.4130   24.4990   36.6240 C   0  0  0  0  0  0  0  0  0  0  0  0
   37.6800   25.3650   35.6410 C   0  0  0  0  0  0  0  0  0  0  0  0
   38.3940   25.0810   34.2400 C   0  0  1  0  0  0  0  0  0  0  0  0
   38.7000   23.6630   34.4200 C   0  0  0  0  0  0  0  0  0  0  0  0
   37.7250   23.8760   37.2330 H   0  0  0  0  0  0  0  0  0  0  0  0
   39.0420   25.1660   37.2440 H   0  0  0  0  0  0  0  0  0  0  0  0
   37.7700   26.4530   35.8240 H   0  0  0  0  0  0  0  0  0  0  0  0
   36.6570   25.0200   35.4930 H   0  0  0  0  0  0  0  0  0  0  0  0
   39.2330   25.7840   34.2870 H   0  0  0  0  0  0  0  0  0  0  0  0
   37.7900   23.0440   34.5330 H   0  0  0  0  0  0  0  0  0  0  0  0
   39.4250   23.2270   33.7070 H   0  0  0  0  0  0  0  0  0  0  0  0
   37.9350   27.7690   33.4410 F   0  0  0  0  0  0  0  0  0  0  0  0
   37.3330   26.7310   32.8370 C   0  0  0  0  0  0  0  0  0  0  0  0
   37.4450   25.4120   33.1760 C   0  0  0  0  0  0  0  0  0  0  0  0
   36.7300   24.4700   32.4130 C   0  0  0  0  0  0  0  0  0  0  0  0
   35.9390   24.8340   31.3560 C   0  0  0  0  0  0  0  0  0  0  0  0
   35.8390   26.1900   31.0290 C   0  0  0  0  0  0  0  0  0  0  0  0
   36.5500   27.1400   31.7880 C   0  0  0  0  0  0  0  0  0  0  0  0
   36.8720   23.4510   32.7460 H   0  0  0  0  0  0  0  0  0  0  0  0
   35.4260   24.0460   30.8220 H   0  0  0  0  0  0  0  0  0  0  0  0
   35.2130   26.4660   30.1970 H   0  0  0  0  0  0  0  0  0  0  0  0
   37.2950   28.9920   30.4170 C   0  0  0  0  0  0  0  0  0  0  0  0
   36.3760   28.5250   31.3650 C   0  0  0  0  0  0  0  0  0  0  0  0
   35.3770   29.3640   31.8430 C   0  0  0  0  0  0  0  0  0  0  0  0
   34.6900   28.9520   32.5780 H   0  0  0  0  0  0  0  0  0  0  0  0
   35.3340   30.6540   31.3520 C   0  0  0  0  0  0  0  0  0  0  0  0
   34.5480   31.2850   31.7410 H   0  0  0  0  0  0  0  0  0  0  0  0
   36.2400   31.1100   30.4210 C   0  0  0  0  0  3  0  0  0  0  0  0
   37.2390   30.2870   29.9330 C   0  0  0  0  0  3  0  0  0  0  0  0
   39.1760   27.4200   29.5090 N   0  0  0  0  0  0  0  0  0  0  0  0
   38.3360   28.1190   29.9170 C   0  0  0  0  0  0  0  0  0  0  0  0
   40.4690   23.0430   36.1540 C   0  0  0  0  0  0  0  0  0  0  0  0
   41.6560   23.6250   35.6860 C   0  0  0  0  0  0  0  0  0  0  0  0
   42.8780   23.0190   36.0160 C   0  0  0  0  0  0  0  0  0  0  0  0
   42.8120   21.8750   36.7900 N   0  0  0  0  0  0  0  0  0  0  0  0
   41.6540   21.3500   37.2170 C   0  0  0  0  0  0  0  0  0  0  0  0
   40.4730   21.9360   36.8980 N   0  0  0  0  0  0  0  0  0  0  0  0
   41.7620   24.5000   35.0900 H   0  0  0  0  0  0  0  0  0  0  0  0
   43.8300   23.4100   35.6920 H   0  0  0  0  0  0  0  0  0  0  0  0
   41.7300   20.4590   37.8130 H   0  0  0  0  0  0  0  0  0  0  0  0
  1 33  1  0  0  0  0
  1  2  1  0  0  0  0
  2  6  1  0  0  0  0
  2  7  1  0  0  0  0
  3  8  1  0  0  0  0
  3  2  1  0  0  0  0
  4 10  1  6  0  0  0
  4  5  1  0  0  0  0
  4  3  1  0  0  0  0
  5 11  1  0  0  0  0
  5  1  1  0  0  0  0
  9  3  1  0  0  0  0
 12  5  1  0  0  0  0
 14 15  1  0  0  0  0
 14 13  1  0  0  0  0
 15  4  1  0  0  0  0
 16 20  1  0  0  0  0
 16 15  2  0  0  0  0
 17 16  1  0  0  0  0
 18 17  2  0  0  0  0
 18 19  1  0  0  0  0
 19 14  2  0  0  0  0
 21 17  1  0  0  0  0
 22 18  1  0  0  0  0
 23 24  1  0  0  0  0
 24 19  1  0  0  0  0
 24 25  2  0  0  0  0
 25 26  1  0  0  0  0
 27 28  1  0  0  0  0
 27 25  1  0  0  0  0
 29 27  2  0  0  0  0
 30 23  2  0  0  0  0
 30 29  1  0  0  0  0
 31 32  3  0  0  0  0
 32 23  1  0  0  0  0
 33 38  1  0  0  0  0
 34 35  1  0  0  0  0
 34 33  2  0  0  0  0
 35 36  2  0  0  0  0
 36 37  1  0  0  0  0
 37 41  1  0  0  0  0
 38 37  2  0  0  0  0
 39 34  1  0  0  0  0
 40 35  1  0  0  0  0
M  END
>  <minimizedAffinity>
-5.59321928

$$$$

 OpenBabel03272502403D

 41 44  0  0  1  0  0  0  0  0999 V2000
   35.7890   29.1350   33.9280 N   0  0  0  0  0  0  0  0  0  0  0  0
   36.1390   29.2920   32.5300 C   0  0  0  0  0  0  0  0  0  0  0  0
   37.0960   28.1610   32.2850 C   0  0  0  0  0  0  0  0  0  0  0  0
   37.3660   27.5390   33.7320 C   0  0  1  0  0  0  0  0  0  0  0  0
   36.0400   27.7320   34.3170 C   0  0  0  0  0  0  0  0  0  0  0  0
   35.2500   29.2430   31.8680 H   0  0  0  0  0  0  0  0  0  0  0  0
   36.7070   30.2340   32.4080 H   0  0  0  0  0  0  0  0  0  0  0  0
   38.0820   28.4650   31.8860 H   0  0  0  0  0  0  0  0  0  0  0  0
   36.6200   27.3520   31.7320 H   0  0  0  0  0  0  0  0  0  0  0  0
   38.1720   28.1890   34.0910 H   0  0  0  0  0  0  0  0  0  0  0  0
   35.2550   27.1660   33.7830 H   0  0  0  0  0  0  0  0  0  0  0  0
   35.9730   27.6210   35.4160 H   0  0  0  0  0  0  0  0  0  0  0  0
   39.4900   26.4390   35.2650 F   0  0  0  0  0  0  0  0  0  0  0  0
   38.8010   25.7090   34.3720 C   0  0  0  0  0  0  0  0  0  0  0  0
   37.8010   26.1540   33.5520 C   0  0  0  0  0  0  0  0  0  0  0  0
   37.1990   25.2260   32.6820 C   0  0  0  0  0  0  0  0  0  0  0  0
   37.5800   23.9110   32.6360 C   0  0  0  0  0  0  0  0  0  0  0  0
   38.6060   23.4810   33.4840 C   0  0  0  0  0  0  0  0  0  0  0  0
   39.2160   24.4020   34.3570 C   0  0  0  0  0  0  0  0  0  0  0  0
   36.4200   25.6570   32.0680 H   0  0  0  0  0  0  0  0  0  0  0  0
   37.0630   23.2650   31.9400 H   0  0  0  0  0  0  0  0  0  0  0  0
   38.8990   22.4450   33.4390 H   0  0  0  0  0  0  0  0  0  0  0  0
   39.8560   23.2720   36.4010 C   0  0  0  0  0  0  0  0  0  0  0  0
   40.2740   23.8510   35.1970 C   0  0  0  0  0  0  0  0  0  0  0  0
   41.6220   23.8770   34.8640 C   0  0  0  0  0  0  0  0  0  0  0  0
   41.8930   24.3380   33.9180 H   0  0  0  0  0  0  0  0  0  0  0  0
   42.5140   23.3170   35.7580 C   0  0  0  0  0  0  0  0  0  0  0  0
   43.5560   23.3500   35.4740 H   0  0  0  0  0  0  0  0  0  0  0  0
   42.1000   22.7490   36.9410 C   0  0  0  0  0  3  0  0  0  0  0  0
   40.7610   22.7140   37.2870 C   0  0  0  0  0  3  0  0  0  0  0  0
   37.3210   23.2250   37.0360 N   0  0  0  0  0  0  0  0  0  0  0  0
   38.4510   23.2440   36.7500 C   0  0  0  0  0  0  0  0  0  0  0  0
   35.2970   30.1260   34.8020 C   0  0  0  0  0  0  0  0  0  0  0  0
   33.9020   30.2210   34.8960 C   0  0  0  0  0  0  0  0  0  0  0  0
   33.3480   31.1940   35.7420 C   0  0  0  0  0  0  0  0  0  0  0  0
   34.2410   31.9970   36.4290 N   0  0  0  0  0  0  0  0  0  0  0  0
   35.5710   31.8730   36.3100 C   0  0  0  0  0  0  0  0  0  0  0  0
   36.1060   30.9320   35.4920 N   0  0  0  0  0  0  0  0  0  0  0  0
   33.1730   29.6310   34.3920 H   0  0  0  0  0  0  0  0  0  0  0  0
   32.2840   31.3250   35.8660 H   0  0  0  0  0  0  0  0  0  0  0  0
   36.1640   32.5540   36.8950 H   0  0  0  0  0  0  0  0  0  0  0  0
  1  5  1  0  0  0  0
  1 33  1  0  0  0  0
  2  1  1  0  0  0  0
  3  2  1  0  0  0  0
  3  4  1  0  0  0  0
  4 10  1  1  0  0  0
  4  5  1  0  0  0  0
  5 12  1  0  0  0  0
  6  2  1  0  0  0  0
  7  2  1  0  0  0  0
  8  3  1  0  0  0  0
  9  3  1  0  0  0  0
 11  5  1  0  0  0  0
 14 13  1  0  0  0  0
 15  4  1  0  0  0  0
 15 14  2  0  0  0  0
 16 15  1  0  0  0  0
 17 16  2  0  0  0  0
 17 18  1  0  0  0  0
 18 19  2  0  0  0  0
 19 14  1  0  0  0  0
 19 24  1  0  0  0  0
 20 16  1  0  0  0  0
 21 17  1  0  0  0  0
 22 18  1  0  0  0  0
 23 32  1  0  0  0  0
 23 30  1  0  0  0  0
 24 23  2  0  0  0  0
 25 24  1  0  0  0  0
 25 27  2  0  0  0  0
 26 25  1  0  0  0  0
 27 29  1  0  0  0  0
 28 27  1  0  0  0  0
 29 30  2  0  0  0  0
 32 31  3  0  0  0  0
 33 34  2  0  0  0  0
 33 38  1  0  0  0  0
 34 35  1  0  0  0  0
 35 40  1  0  0  0  0
 35 36  2  0  0  0  0
 37 36  1  0  0  0  0
 37 41  1  0  0  0  0
 38 37  2  0  0  0  0
 39 34  1  0  0  0  0
M  END
>  <minimizedAffinity>
-5.58541298

$$$$

 OpenBabel03272502403D

 41 44  0  0  1  0  0  0  0  0999 V2000
   39.2730   23.9490   35.5700 N   0  0  0  0  0  0  0  0  0  0  0  0
   38.4430   24.8140   36.3850 C   0  0  0  0  0  0  0  0  0  0  0  0
   37.7270   25.6590   35.3710 C   0  0  0  0  0  0  0  0  0  0  0  0
   38.4180   25.2930   33.9780 C   0  0  1  0  0  0  0  0  0  0  0  0
   38.6830   23.8750   34.2170 C   0  0  0  0  0  0  0  0  0  0  0  0
   37.7420   24.2400   37.0260 H   0  0  0  0  0  0  0  0  0  0  0  0
   39.0970   25.4880   36.9690 H   0  0  0  0  0  0  0  0  0  0  0  0
   37.8510   26.7500   35.5050 H   0  0  0  0  0  0  0  0  0  0  0  0
   36.6930   25.3390   35.2470 H   0  0  0  0  0  0  0  0  0  0  0  0
   39.2790   25.9720   33.9870 H   0  0  0  0  0  0  0  0  0  0  0  0
   37.7570   23.2900   34.3650 H   0  0  0  0  0  0  0  0  0  0  0  0
   39.3880   23.3870   33.5180 H   0  0  0  0  0  0  0  0  0  0  0  0
   38.4590   27.8010   32.6420 F   0  0  0  0  0  0  0  0  0  0  0  0
   37.6050   26.8220   32.2990 C   0  0  0  0  0  0  0  0  0  0  0  0
   37.4700   25.6050   32.9080 C   0  0  0  0  0  0  0  0  0  0  0  0
   36.5120   24.7120   32.3950 C   0  0  0  0  0  0  0  0  0  0  0  0
   35.7250   25.0220   31.3180 C   0  0  0  0  0  0  0  0  0  0  0  0
   35.8790   26.2740   30.7130 C   0  0  0  0  0  0  0  0  0  0  0  0
   36.8340   27.1750   31.2210 C   0  0  0  0  0  0  0  0  0  0  0  0
   36.4680   23.7740   32.9320 H   0  0  0  0  0  0  0  0  0  0  0  0
   35.0150   24.2770   30.9860 H   0  0  0  0  0  0  0  0  0  0  0  0
   35.2540   26.5090   29.8670 H   0  0  0  0  0  0  0  0  0  0  0  0
   36.1970   29.5080   31.0920 C   0  0  0  0  0  0  0  0  0  0  0  0
   36.9150   28.4510   30.5190 C   0  0  0  0  0  0  0  0  0  0  0  0
   37.6450   28.6530   29.3540 C   0  0  0  0  0  0  0  0  0  0  0  0
   38.1850   27.8000   28.9510 H   0  0  0  0  0  0  0  0  0  0  0  0
   37.6300   29.9170   28.7990 C   0  0  0  0  0  0  0  0  0  0  0  0
   38.2060   30.0460   27.8940 H   0  0  0  0  0  0  0  0  0  0  0  0
   36.9220   30.9530   29.3640 C   0  0  0  0  0  3  0  0  0  0  0  0
   36.1910   30.7700   30.5240 C   0  0  0  0  0  3  0  0  0  0  0  0
   34.8230   29.1390   33.2850 N   0  0  0  0  0  0  0  0  0  0  0  0
   35.4350   29.3010   32.3060 C   0  0  0  0  0  0  0  0  0  0  0  0
   40.4500   23.2790   35.9620 C   0  0  0  0  0  0  0  0  0  0  0  0
   40.2810   22.2230   36.8680 C   0  0  0  0  0  0  0  0  0  0  0  0
   41.4160   21.5210   37.3040 C   0  0  0  0  0  0  0  0  0  0  0  0
   42.6330   21.9360   36.7940 N   0  0  0  0  0  0  0  0  0  0  0  0
   42.7510   22.9520   35.9270 C   0  0  0  0  0  0  0  0  0  0  0  0
   41.6540   23.6300   35.5060 N   0  0  0  0  0  0  0  0  0  0  0  0
   39.3710   21.8650   37.2890 H   0  0  0  0  0  0  0  0  0  0  0  0
   41.3620   20.6980   38.0000 H   0  0  0  0  0  0  0  0  0  0  0  0
   43.7490   23.1820   35.6010 H   0  0  0  0  0  0  0  0  0  0  0  0
  1 33  1  0  0  0  0
  1  2  1  0  0  0  0
  2  7  1  0  0  0  0
  2  6  1  0  0  0  0
  3  8  1  0  0  0  0
  3  2  1  0  0  0  0
  4 10  1  6  0  0  0
  4  5  1  0  0  0  0
  4  3  1  0  0  0  0
  5 11  1  0  0  0  0
  5  1  1  0  0  0  0
  9  3  1  0  0  0  0
 12  5  1  0  0  0  0
 14 13  1  0  0  0  0
 14 15  1  0  0  0  0
 15  4  1  0  0  0  0
 16 15  2  0  0  0  0
 16 20  1  0  0  0  0
 17 16  1  0  0  0  0
 18 19  1  0  0  0  0
 18 17  2  0  0  0  0
 19 14  2  0  0  0  0
 21 17  1  0  0  0  0
 22 18  1  0  0  0  0
 23 32  1  0  0  0  0
 24 23  2  0  0  0  0
 24 19  1  0  0  0  0
 25 24  1  0  0  0  0
 26 25  1  0  0  0  0
 27 25  2  0  0  0  0
 27 29  1  0  0  0  0
 28 27  1  0  0  0  0
 29 30  2  0  0  0  0
 30 23  1  0  0  0  0
 32 31  3  0  0  0  0
 33 34  1  0  0  0  0
 34 39  1  0  0  0  0
 34 35  2  0  0  0  0
 35 40  1  0  0  0  0
 36 35  1  0  0  0  0
 37 36  2  0  0  0  0
 38 37  1  0  0  0  0
 38 33  2  0  0  0  0
 41 37  1  0  0  0  0
M  END
>  <minimizedAffinity>
-5.55559063

$$$$

 OpenBabel03272502403D

 41 44  0  0  1  0  0  0  0  0999 V2000
   38.1580   25.2830   31.3770 N   0  0  0  0  0  0  0  0  0  0  0  0
   36.7990   24.8830   31.0670 C   0  0  0  0  0  0  0  0  0  0  0  0
   35.9810   26.0570   31.5210 C   0  0  0  0  0  0  0  0  0  0  0  0
   37.0200   27.0040   32.2810 C   0  0  1  0  0  0  0  0  0  0  0  0
   38.2020   26.7570   31.4580 C   0  0  0  0  0  0  0  0  0  0  0  0
   36.6630   24.6660   29.9870 H   0  0  0  0  0  0  0  0  0  0  0  0
   36.5240   24.0250   31.7090 H   0  0  0  0  0  0  0  0  0  0  0  0
   35.1860   25.8150   32.2500 H   0  0  0  0  0  0  0  0  0  0  0  0
   35.6450   26.6570   30.6750 H   0  0  0  0  0  0  0  0  0  0  0  0
   37.0080   26.5630   33.2850 H   0  0  0  0  0  0  0  0  0  0  0  0
   38.0650   27.0830   30.4100 H   0  0  0  0  0  0  0  0  0  0  0  0
   39.1690   27.0890   31.8830 H   0  0  0  0  0  0  0  0  0  0  0  0
   35.8620   28.1800   34.5950 F   0  0  0  0  0  0  0  0  0  0  0  0
   35.9930   28.8530   33.4400 C   0  0  0  0  0  0  0  0  0  0  0  0
   36.4860   28.3660   32.2610 C   0  0  0  0  0  0  0  0  0  0  0  0
   36.5430   29.2370   31.1580 C   0  0  0  0  0  0  0  0  0  0  0  0
   36.1260   30.5400   31.2320 C   0  0  0  0  0  0  0  0  0  0  0  0
   35.6230   31.0150   32.4480 C   0  0  0  0  0  0  0  0  0  0  0  0
   35.5610   30.1500   33.5570 C   0  0  0  0  0  0  0  0  0  0  0  0
   36.9440   28.7750   30.2660 H   0  0  0  0  0  0  0  0  0  0  0  0
   36.2060   31.1420   30.3370 H   0  0  0  0  0  0  0  0  0  0  0  0
   35.2960   32.0410   32.4950 H   0  0  0  0  0  0  0  0  0  0  0  0
   33.6560   30.5280   35.0040 C   0  0  0  0  0  0  0  0  0  0  0  0
   35.0210   30.7440   34.7750 C   0  0  0  0  0  0  0  0  0  0  0  0
   35.7740   31.4830   35.6790 C   0  0  0  0  0  0  0  0  0  0  0  0
   36.8280   31.6200   35.4540 H   0  0  0  0  0  0  0  0  0  0  0  0
   35.1270   31.9850   36.7910 C   0  0  0  0  0  0  0  0  0  0  0  0
   35.7360   32.5560   37.4770 H   0  0  0  0  0  0  0  0  0  0  0  0
   33.7850   31.7720   37.0130 C   0  0  0  0  0  3  0  0  0  0  0  0
   33.0220   31.0380   36.1230 C   0  0  0  0  0  3  0  0  0  0  0  0
   32.2410   29.1360   33.3030 N   0  0  0  0  0  0  0  0  0  0  0  0
   32.8700   29.7580   34.0630 C   0  0  0  0  0  0  0  0  0  0  0  0
   39.2700   24.4420   31.5810 C   0  0  0  0  0  0  0  0  0  0  0  0
   39.0250   23.2650   32.3020 C   0  0  0  0  0  0  0  0  0  0  0  0
   40.0940   22.3890   32.5460 C   0  0  0  0  0  0  0  0  0  0  0  0
   41.3270   22.7640   32.0460 N   0  0  0  0  0  0  0  0  0  0  0  0
   41.5200   23.9000   31.3600 C   0  0  0  0  0  0  0  0  0  0  0  0
   40.4860   24.7470   31.1250 N   0  0  0  0  0  0  0  0  0  0  0  0
   38.0990   22.9310   32.7070 H   0  0  0  0  0  0  0  0  0  0  0  0
   39.9800   21.4660   33.0930 H   0  0  0  0  0  0  0  0  0  0  0  0
   42.5240   24.0840   31.0210 H   0  0  0  0  0  0  0  0  0  0  0  0
  1  5  1  0  0  0  0
  1 33  1  0  0  0  0
  2  1  1  0  0  0  0
  2  3  1  0  0  0  0
  2  7  1  0  0  0  0
  3  8  1  0  0  0  0
  3  4  1  0  0  0  0
  4 10  1  1  0  0  0
  5 12  1  0  0  0  0
  5  4  1  0  0  0  0
  6  2  1  0  0  0  0
  9  3  1  0  0  0  0
 11  5  1  0  0  0  0
 14 19  1  0  0  0  0
 14 13  1  0  0  0  0
 15  4  1  0  0  0  0
 15 14  2  0  0  0  0
 16 17  2  0  0  0  0
 16 15  1  0  0  0  0
 17 18  1  0  0  0  0
 18 22  1  0  0  0  0
 18 19  2  0  0  0  0
 19 24  1  0  0  0  0
 20 16  1  0  0  0  0
 21 17  1  0  0  0  0
 23 30  1  0  0  0  0
 24 23  2  0  0  0  0
 24 25  1  0  0  0  0
 25 27  2  0  0  0  0
 26 25  1  0  0  0  0
 27 29  1  0  0  0  0
 27 28  1  0  0  0  0
 30 29  2  0  0  0  0
 31 32  3  0  0  0  0
 32 23  1  0  0  0  0
 33 34  1  0  0  0  0
 34 35  2  0  0  0  0
 34 39  1  0  0  0  0
 35 40  1  0  0  0  0
 36 35  1  0  0  0  0
 37 36  2  0  0  0  0
 38 37  1  0  0  0  0
 38 33  2  0  0  0  0
 41 37  1  0  0  0  0
M  END
>  <minimizedAffinity>
-5.50180769

$$$$
