
 OpenBabel03262523473D

 39 42  0  0  0  0  0  0  0  0999 V2000
   36.4480   32.3400   43.5890 Cl  0  0  0  0  0  0  0  0  0  0  0  0
   37.4950   30.9760   43.2130 C   0  0  0  0  0  0  0  0  0  0  0  0
   38.3730   30.6040   44.2180 C   0  0  0  0  0  0  0  0  0  0  0  0
   39.2510   29.5320   44.0240 C   0  0  0  0  0  0  0  0  0  0  0  0
   39.2410   28.8370   42.8150 C   0  0  0  0  0  0  0  0  0  0  0  0
   38.3600   29.2290   41.8390 C   0  0  0  0  0  0  0  0  0  0  0  0
   37.4880   30.2920   42.0290 C   0  0  0  0  0  0  0  0  0  0  0  0
   39.9490   29.2030   44.7660 H   0  0  0  0  0  0  0  0  0  0  0  0
   39.9060   28.0030   42.6310 H   0  0  0  0  0  0  0  0  0  0  0  0
   38.2840   28.7460   40.8680 H   0  0  0  0  0  0  0  0  0  0  0  0
   38.7200   32.9530   49.6900 Cl  0  0  0  0  0  0  0  0  0  0  0  0
   38.6080   32.2520   48.0930 C   0  0  0  0  0  0  0  0  0  0  0  0
   37.8650   31.1270   47.8550 C   0  0  0  0  0  0  0  0  0  0  0  0
   37.8280   30.6390   46.5730 C   0  0  0  0  0  0  0  0  0  0  0  0
   38.5010   31.2330   45.5350 C   0  0  0  0  0  0  0  0  0  0  0  0
   39.2540   32.3840   45.8060 C   0  0  0  0  0  0  0  0  0  0  0  0
   40.0910   33.1030   44.4590 Cl  0  0  0  0  0  0  0  0  0  0  0  0
   39.3080   32.8930   47.0800 C   0  0  0  0  0  0  0  0  0  0  0  0
   37.2210   29.7340   46.4250 H   0  0  0  0  0  0  0  0  0  0  0  0
   39.8970   33.7890   47.2770 H   0  0  0  0  0  0  0  0  0  0  0  0
   37.1720   29.3920   51.1570 C   0  0  0  0  0  0  0  0  0  0  0  0
   37.8660   29.9460   50.0670 C   0  0  0  0  0  0  0  0  0  0  0  0
   37.1630   30.5350   49.0140 C   0  0  0  0  0  0  0  0  0  0  0  0
   35.7970   30.5440   49.0950 N   0  0  0  0  0  0  0  0  0  0  0  0
   35.1790   29.9980   50.1620 C   0  0  0  0  0  0  0  0  0  0  0  0
   35.8440   29.4350   51.1700 N   0  0  0  0  0  0  0  0  0  0  0  0
   37.6850   28.9360   51.9750 H   0  0  0  0  0  0  0  0  0  0  0  0
   38.9600   29.9190   50.0410 H   0  0  0  0  0  0  0  0  0  0  0  0
   34.0960   30.1200   50.0100 H   0  0  0  0  0  0  0  0  0  0  0  0
   36.7750   31.7460   40.1000 C   0  0  0  0  0  0  0  0  0  0  0  0
   36.5580   30.7130   41.0070 C   0  0  0  0  0  0  0  0  0  0  0  0
   35.3670   29.9920   40.9730 C   0  0  0  0  0  0  0  0  0  0  0  0
   35.1200   29.1730   41.6430 H   0  0  0  0  0  0  0  0  0  0  0  0
   34.4150   30.3190   40.0320 C   0  0  0  0  0  0  0  0  0  0  0  0
   33.4530   29.7890   39.9510 H   0  0  0  0  0  0  0  0  0  0  0  0
   34.6420   31.3440   39.1390 C   0  0  0  0  0  3  0  0  0  0  0  0
   35.8190   32.0850   39.1440 C   0  0  0  0  0  3  0  0  0  0  0  0
   39.0350   32.9900   40.3200 N   0  0  0  0  0  0  0  0  0  0  0  0
   38.0410   32.4350   40.2150 C   0  0  0  0  0  0  0  0  0  0  0  0
  2  1  1  0  0  0  0
  2  3  1  0  0  0  0
  3 15  1  0  0  0  0
  4  3  2  0  0  0  0
  4  8  1  0  0  0  0
  5  4  1  0  0  0  0
  6  7  1  0  0  0  0
  6  5  2  0  0  0  0
  7  2  2  0  0  0  0
  9  5  1  0  0  0  0
 10  6  1  0  0  0  0
 12 11  1  0  0  0  0
 13 12  1  0  0  0  0
 13 23  1  0  0  0  0
 14 13  2  0  0  0  0
 15 16  2  0  0  0  0
 15 14  1  0  0  0  0
 16 18  1  0  0  0  0
 17 16  1  0  0  0  0
 18 20  1  0  0  0  0
 18 12  2  0  0  0  0
 19 14  1  0  0  0  0
 21 26  1  0  0  0  0
 21 27  1  0  0  0  0
 22 21  2  0  0  0  0
 23 24  2  0  0  0  0
 23 22  1  0  0  0  0
 24 25  1  0  0  0  0
 25 26  2  0  0  0  0
 28 22  1  0  0  0  0
 29 25  1  0  0  0  0
 30 39  1  0  0  0  0
 30 31  1  0  0  0  0
 31  7  1  0  0  0  0
 32 31  2  0  0  0  0
 32 33  1  0  0  0  0
 34 32  1  0  0  0  0
 35 34  1  0  0  0  0
 36 37  1  0  0  0  0
 36 34  2  0  0  0  0
 37 30  2  0  0  0  0
 39 38  3  0  0  0  0
M  END
>  <minimizedAffinity>
-6.07292557

>  <minimizedRMSD>
1.35016537

$$$$
