
 OpenBabel03272509103D

 41 44  0  0  0  0  0  0  0  0999 V2000
   36.2970   28.1760   34.4270 C   0  0  0  0  0  0  0  0  0  0  0  0
   36.0010   28.7300   35.3270 H   0  0  0  0  0  0  0  0  0  0  0  0
   35.5500   27.3320   34.3510 H   0  0  0  0  0  0  0  0  0  0  0  0
   36.1160   28.9490   33.1760 C   0  0  0  0  0  0  0  0  0  0  0  0
   36.5920   28.5470   31.9410 C   0  0  0  0  0  0  0  0  0  0  0  0
   36.3800   29.3240   30.8280 C   0  0  0  0  0  0  0  0  0  0  0  0
   35.6900   30.5250   30.8960 C   0  0  0  0  0  0  0  0  0  0  0  0
   35.2200   30.9220   32.1110 C   0  0  0  0  0  0  0  0  0  0  0  0
   35.4210   30.1550   33.2460 C   0  0  0  0  0  0  0  0  0  0  0  0
   37.1220   27.6030   31.9530 H   0  0  0  0  0  0  0  0  0  0  0  0
   36.7880   28.9260   29.9220 H   0  0  0  0  0  0  0  0  0  0  0  0
   35.5880   31.0490   29.9440 H   0  0  0  0  0  0  0  0  0  0  0  0
   34.6890   31.8620   32.1160 H   0  0  0  0  0  0  0  0  0  0  0  0
   33.6140   30.4420   34.9710 C   0  0  0  0  0  0  0  0  0  0  0  0
   34.8770   30.6700   34.5040 C   0  0  0  0  0  0  0  0  0  0  0  0
   35.7760   31.4470   35.2360 C   0  0  0  0  0  0  0  0  0  0  0  0
   36.7940   31.6550   34.9030 H   0  0  0  0  0  0  0  0  0  0  0  0
   35.4120   32.0050   36.4480 C   0  0  0  0  0  0  0  0  0  0  0  0
   36.1120   32.6070   37.0120 H   0  0  0  0  0  0  0  0  0  0  0  0
   34.1160   31.7490   36.8880 C   0  0  0  0  0  3  0  0  0  0  0  0
   33.2110   30.9840   36.1810 C   0  0  0  0  0  3  0  0  0  0  0  0
   32.0350   28.9760   33.5060 N   0  0  0  0  0  0  0  0  0  0  0  0
   32.7480   29.6360   34.1660 C   0  0  0  0  0  0  0  0  0  0  0  0
   37.9150   26.2880   34.4280 C   0  0  0  0  0  3  0  0  0  0  0  0
   37.6170   27.5480   34.5470 C   0  0  0  0  0  3  0  0  0  0  0  0
   41.5590   26.1310   34.2110 C   0  0  0  0  0  0  0  0  0  0  0  0
   41.8470   24.9900   34.9860 C   0  0  0  0  0  0  0  0  0  0  0  0
   40.7560   24.2970   35.5690 C   0  0  0  0  0  0  0  0  0  0  0  0
   39.4870   24.7740   35.3490 N   0  0  0  0  0  0  0  0  0  0  0  0
   39.2970   25.8830   34.5880 C   0  0  0  0  0  0  0  0  0  0  0  0
   40.3040   26.5440   34.0340 N   0  0  0  0  0  0  0  0  0  0  0  0
   42.4260   26.6190   33.7930 H   0  0  0  0  0  0  0  0  0  0  0  0
   42.8260   24.5820   35.1850 H   0  0  0  0  0  0  0  0  0  0  0  0
   40.9430   23.1050   36.3890 C   0  0  0  0  0  0  0  0  0  0  0  0
   42.0830   22.3230   36.2880 C   0  0  0  0  0  0  0  0  0  0  0  0
   41.9460   21.2750   37.1990 C   0  0  0  0  0  0  0  0  0  0  0  0
   40.7360   21.4570   37.8130 N   0  0  0  0  0  0  0  0  0  0  0  0
   40.1540   22.5470   37.3220 N   0  0  0  0  0  0  0  0  0  0  0  0
   42.9730   22.4060   35.6660 H   0  0  0  0  0  0  0  0  0  0  0  0
   42.6260   20.4600   37.4130 H   0  0  0  0  0  0  0  0  0  0  0  0
   40.2700   20.8830   38.5570 H   0  0  0  0  0  0  0  0  0  0  0  0
  1 25  1  0  0  0  0
  1  2  1  0  0  0  0
  3  1  1  0  0  0  0
  4  9  1  0  0  0  0
  4  1  1  0  0  0  0
  5 10  1  0  0  0  0
  5  4  2  0  0  0  0
  6  7  2  0  0  0  0
  6  5  1  0  0  0  0
  7  8  1  0  0  0  0
  8 13  1  0  0  0  0
  8  9  2  0  0  0  0
  9 15  1  0  0  0  0
 11  6  1  0  0  0  0
 12  7  1  0  0  0  0
 14 21  1  0  0  0  0
 15 14  2  0  0  0  0
 15 16  1  0  0  0  0
 16 18  2  0  0  0  0
 17 16  1  0  0  0  0
 18 20  1  0  0  0  0
 18 19  1  0  0  0  0
 21 20  2  0  0  0  0
 22 23  3  0  0  0  0
 23 14  1  0  0  0  0
 24 25  2  0  0  0  0
 24 30  1  0  0  0  0
 26 27  1  0  0  0  0
 27 33  1  0  0  0  0
 27 28  2  0  0  0  0
 28 34  1  0  0  0  0
 29 28  1  0  0  0  0
 30 29  2  0  0  0  0
 31 26  2  0  0  0  0
 31 30  1  0  0  0  0
 32 26  1  0  0  0  0
 34 38  2  0  0  0  0
 35 34  1  0  0  0  0
 35 36  2  0  0  0  0
 36 40  1  0  0  0  0
 36 37  1  0  0  0  0
 37 41  1  0  0  0  0
 38 37  1  0  0  0  0
 39 35  1  0  0  0  0
M  END
>  <minimizedAffinity>
-6.57289457

$$$$

 OpenBabel03272509103D

 41 44  0  0  0  0  0  0  0  0999 V2000
   36.1500   28.7960   34.6970 C   0  0  0  0  0  0  0  0  0  0  0  0
   36.6460   29.4350   35.4410 H   0  0  0  0  0  0  0  0  0  0  0  0
   35.1980   28.4560   35.2010 H   0  0  0  0  0  0  0  0  0  0  0  0
   35.6940   29.5370   33.4980 C   0  0  0  0  0  0  0  0  0  0  0  0
   36.1970   29.3340   32.2250 C   0  0  0  0  0  0  0  0  0  0  0  0
   35.7170   30.0660   31.1640 C   0  0  0  0  0  0  0  0  0  0  0  0
   34.7260   31.0220   31.3240 C   0  0  0  0  0  0  0  0  0  0  0  0
   34.2300   31.2220   32.5770 C   0  0  0  0  0  0  0  0  0  0  0  0
   34.6970   30.4970   33.6600 C   0  0  0  0  0  0  0  0  0  0  0  0
   36.9670   28.5770   32.1650 H   0  0  0  0  0  0  0  0  0  0  0  0
   36.1710   29.8340   30.2230 H   0  0  0  0  0  0  0  0  0  0  0  0
   34.4320   31.5330   30.4070 H   0  0  0  0  0  0  0  0  0  0  0  0
   33.4600   31.9750   32.6540 H   0  0  0  0  0  0  0  0  0  0  0  0
   34.5790   31.6930   35.8690 C   0  0  0  0  0  0  0  0  0  0  0  0
   34.1000   30.7890   34.9650 C   0  0  0  0  0  0  0  0  0  0  0  0
   32.9510   30.0470   35.2420 C   0  0  0  0  0  0  0  0  0  0  0  0
   32.5320   29.3140   34.5500 H   0  0  0  0  0  0  0  0  0  0  0  0
   32.2700   30.2080   36.4350 C   0  0  0  0  0  0  0  0  0  0  0  0
   31.3790   29.6310   36.6450 H   0  0  0  0  0  0  0  0  0  0  0  0
   32.7900   31.1390   37.3290 C   0  0  0  0  0  3  0  0  0  0  0  0
   33.9250   31.8840   37.0760 C   0  0  0  0  0  3  0  0  0  0  0  0
   36.7320   33.0140   35.2260 N   0  0  0  0  0  0  0  0  0  0  0  0
   35.7620   32.4170   35.5160 C   0  0  0  0  0  0  0  0  0  0  0  0
   38.1110   27.2690   34.7740 C   0  0  0  0  0  3  0  0  0  0  0  0
   36.9090   27.5800   34.3870 C   0  0  0  0  0  3  0  0  0  0  0  0
   39.3050   24.4900   32.7240 C   0  0  0  0  0  0  0  0  0  0  0  0
   39.7560   23.5810   33.7020 C   0  0  0  0  0  0  0  0  0  0  0  0
   39.6310   23.9610   35.0620 C   0  0  0  0  0  0  0  0  0  0  0  0
   39.0820   25.1870   35.3490 N   0  0  0  0  0  0  0  0  0  0  0  0
   38.6720   26.0040   34.3450 C   0  0  0  0  0  0  0  0  0  0  0  0
   38.7810   25.6660   33.0670 N   0  0  0  0  0  0  0  0  0  0  0  0
   39.4250   24.1500   31.7070 H   0  0  0  0  0  0  0  0  0  0  0  0
   40.1930   22.6110   33.5210 H   0  0  0  0  0  0  0  0  0  0  0  0
   40.0660   23.0960   36.1530 C   0  0  0  0  0  0  0  0  0  0  0  0
   41.2440   22.3670   36.0780 C   0  0  0  0  0  0  0  0  0  0  0  0
   41.3620   21.6540   37.2730 C   0  0  0  0  0  0  0  0  0  0  0  0
   40.2600   21.9730   38.0210 N   0  0  0  0  0  0  0  0  0  0  0  0
   39.5020   22.8290   37.3420 N   0  0  0  0  0  0  0  0  0  0  0  0
   42.0040   22.2850   35.3050 H   0  0  0  0  0  0  0  0  0  0  0  0
   42.1430   20.9750   37.5900 H   0  0  0  0  0  0  0  0  0  0  0  0
   39.9830   21.6440   38.9770 H   0  0  0  0  0  0  0  0  0  0  0  0
  1  3  1  0  0  0  0
  1  2  1  0  0  0  0
  4  9  1  0  0  0  0
  4  1  1  0  0  0  0
  5  4  2  0  0  0  0
  6  7  2  0  0  0  0
  6  5  1  0  0  0  0
  7  8  1  0  0  0  0
  8 13  1  0  0  0  0
  8  9  2  0  0  0  0
  9 15  1  0  0  0  0
 10  5  1  0  0  0  0
 11  6  1  0  0  0  0
 12  7  1  0  0  0  0
 14 21  1  0  0  0  0
 15 16  1  0  0  0  0
 15 14  2  0  0  0  0
 16 18  2  0  0  0  0
 17 16  1  0  0  0  0
 18 19  1  0  0  0  0
 18 20  1  0  0  0  0
 21 20  2  0  0  0  0
 22 23  3  0  0  0  0
 23 14  1  0  0  0  0
 25  1  1  0  0  0  0
 25 24  2  0  0  0  0
 26 31  2  0  0  0  0
 26 27  1  0  0  0  0
 27 28  2  0  0  0  0
 28 29  1  0  0  0  0
 28 34  1  0  0  0  0
 30 24  1  0  0  0  0
 30 29  2  0  0  0  0
 31 30  1  0  0  0  0
 32 26  1  0  0  0  0
 33 27  1  0  0  0  0
 34 38  2  0  0  0  0
 35 34  1  0  0  0  0
 35 36  2  0  0  0  0
 36 40  1  0  0  0  0
 36 37  1  0  0  0  0
 37 41  1  0  0  0  0
 38 37  1  0  0  0  0
 39 35  1  0  0  0  0
M  END
>  <minimizedAffinity>
-6.40076637

$$$$

 OpenBabel03272509103D

 41 44  0  0  0  0  0  0  0  0999 V2000
   34.8290   29.6490   33.6200 C   0  0  0  0  0  0  0  0  0  0  0  0
   33.8360   29.2120   33.4530 H   0  0  0  0  0  0  0  0  0  0  0  0
   35.0250   30.2720   32.6980 H   0  0  0  0  0  0  0  0  0  0  0  0
   34.8640   30.6170   34.7410 C   0  0  0  0  0  0  0  0  0  0  0  0
   35.9640   31.3920   35.0610 C   0  0  0  0  0  0  0  0  0  0  0  0
   35.9130   32.2680   36.1190 C   0  0  0  0  0  0  0  0  0  0  0  0
   34.7740   32.4080   36.8970 C   0  0  0  0  0  0  0  0  0  0  0  0
   33.6890   31.6460   36.5830 C   0  0  0  0  0  0  0  0  0  0  0  0
   33.7180   30.7570   35.5220 C   0  0  0  0  0  0  0  0  0  0  0  0
   36.8220   31.2370   34.4180 H   0  0  0  0  0  0  0  0  0  0  0  0
   36.8160   32.8200   36.2840 H   0  0  0  0  0  0  0  0  0  0  0  0
   34.8590   33.1340   37.7060 H   0  0  0  0  0  0  0  0  0  0  0  0
   32.8270   31.7890   37.2150 H   0  0  0  0  0  0  0  0  0  0  0  0
   31.5220   30.3210   34.3760 C   0  0  0  0  0  0  0  0  0  0  0  0
   32.5010   29.9840   35.2670 C   0  0  0  0  0  0  0  0  0  0  0  0
   32.3980   28.8190   36.0280 C   0  0  0  0  0  0  0  0  0  0  0  0
   33.1560   28.5100   36.7510 H   0  0  0  0  0  0  0  0  0  0  0  0
   31.3060   27.9800   35.9020 C   0  0  0  0  0  0  0  0  0  0  0  0
   31.2310   27.0780   36.4940 H   0  0  0  0  0  0  0  0  0  0  0  0
   30.3310   28.3590   34.9840 C   0  0  0  0  0  3  0  0  0  0  0  0
   30.4120   29.5060   34.2200 C   0  0  0  0  0  3  0  0  0  0  0  0
   31.8410   32.5210   33.0160 N   0  0  0  0  0  0  0  0  0  0  0  0
   31.6960   31.5300   33.6310 C   0  0  0  0  0  0  0  0  0  0  0  0
   36.2730   27.9330   34.6930 C   0  0  0  0  0  3  0  0  0  0  0  0
   35.8970   28.6450   33.6730 C   0  0  0  0  0  3  0  0  0  0  0  0
   39.1200   26.0930   33.3310 C   0  0  0  0  0  0  0  0  0  0  0  0
   39.3740   25.1540   34.3500 C   0  0  0  0  0  0  0  0  0  0  0  0
   38.5390   25.1840   35.4960 C   0  0  0  0  0  0  0  0  0  0  0  0
   37.5370   26.1220   35.5490 N   0  0  0  0  0  0  0  0  0  0  0  0
   37.3610   26.9930   34.5210 C   0  0  0  0  0  0  0  0  0  0  0  0
   38.1310   26.9800   33.4410 N   0  0  0  0  0  0  0  0  0  0  0  0
   39.7850   26.0250   32.4830 H   0  0  0  0  0  0  0  0  0  0  0  0
   40.1480   24.4020   34.3490 H   0  0  0  0  0  0  0  0  0  0  0  0
   38.7150   24.2570   36.6090 C   0  0  0  0  0  0  0  0  0  0  0  0
   38.0210   24.4100   37.7990 C   0  0  0  0  0  0  0  0  0  0  0  0
   38.4150   23.3680   38.6410 C   0  0  0  0  0  0  0  0  0  0  0  0
   39.3270   22.6280   37.9350 N   0  0  0  0  0  0  0  0  0  0  0  0
   39.4930   23.1690   36.7320 N   0  0  0  0  0  0  0  0  0  0  0  0
   37.2930   25.1460   38.1320 H   0  0  0  0  0  0  0  0  0  0  0  0
   38.0970   23.1460   39.6510 H   0  0  0  0  0  0  0  0  0  0  0  0
   39.8530   21.7660   38.2190 H   0  0  0  0  0  0  0  0  0  0  0  0
  1 25  1  0  0  0  0
  1  4  1  0  0  0  0
  2  1  1  0  0  0  0
  3  1  1  0  0  0  0
  4  5  2  0  0  0  0
  4  9  1  0  0  0  0
  5  6  1  0  0  0  0
  6 11  1  0  0  0  0
  6  7  2  0  0  0  0
  7 12  1  0  0  0  0
  8  7  1  0  0  0  0
  8 13  1  0  0  0  0
  9  8  2  0  0  0  0
 10  5  1  0  0  0  0
 14 15  1  0  0  0  0
 15  9  1  0  0  0  0
 15 16  2  0  0  0  0
 16 17  1  0  0  0  0
 18 16  1  0  0  0  0
 18 19  1  0  0  0  0
 20 18  2  0  0  0  0
 21 14  2  0  0  0  0
 21 20  1  0  0  0  0
 22 23  3  0  0  0  0
 23 14  1  0  0  0  0
 25 24  2  0  0  0  0
 26 31  2  0  0  0  0
 26 27  1  0  0  0  0
 27 28  2  0  0  0  0
 28 29  1  0  0  0  0
 28 34  1  0  0  0  0
 30 24  1  0  0  0  0
 30 29  2  0  0  0  0
 31 30  1  0  0  0  0
 32 26  1  0  0  0  0
 33 27  1  0  0  0  0
 34 38  2  0  0  0  0
 34 35  1  0  0  0  0
 35 39  1  0  0  0  0
 35 36  2  0  0  0  0
 36 40  1  0  0  0  0
 37 41  1  0  0  0  0
 37 36  1  0  0  0  0
 38 37  1  0  0  0  0
M  END
>  <minimizedAffinity>
-6.37786484

$$$$

 OpenBabel03272509103D

 41 44  0  0  0  0  0  0  0  0999 V2000
   38.6710   26.6620   31.8480 C   0  0  0  0  0  0  0  0  0  0  0  0
   38.5420   26.1250   30.8990 H   0  0  0  0  0  0  0  0  0  0  0  0
   38.4100   25.9040   32.6440 H   0  0  0  0  0  0  0  0  0  0  0  0
   40.0780   27.0300   32.1290 C   0  0  0  0  0  0  0  0  0  0  0  0
   40.9360   27.5800   31.1930 C   0  0  0  0  0  0  0  0  0  0  0  0
   42.2300   27.8930   31.5370 C   0  0  0  0  0  0  0  0  0  0  0  0
   42.7200   27.6730   32.8150 C   0  0  0  0  0  0  0  0  0  0  0  0
   41.8760   27.1330   33.7380 C   0  0  0  0  0  0  0  0  0  0  0  0
   40.5690   26.8100   33.4150 C   0  0  0  0  0  0  0  0  0  0  0  0
   40.4960   27.7260   30.2160 H   0  0  0  0  0  0  0  0  0  0  0  0
   42.8120   28.3120   30.7430 H   0  0  0  0  0  0  0  0  0  0  0  0
   43.7610   27.9640   32.9620 H   0  0  0  0  0  0  0  0  0  0  0  0
   42.3010   26.9810   34.7180 H   0  0  0  0  0  0  0  0  0  0  0  0
   39.5510   24.8970   34.6910 C   0  0  0  0  0  0  0  0  0  0  0  0
   39.7430   26.2320   34.4770 C   0  0  0  0  0  0  0  0  0  0  0  0
   39.1340   27.1790   35.3010 C   0  0  0  0  0  0  0  0  0  0  0  0
   39.2590   28.2550   35.1670 H   0  0  0  0  0  0  0  0  0  0  0  0
   38.3210   26.7910   36.3510 C   0  0  0  0  0  0  0  0  0  0  0  0
   37.8510   27.5290   36.9870 H   0  0  0  0  0  0  0  0  0  0  0  0
   38.1510   25.4230   36.5350 C   0  0  0  0  0  3  0  0  0  0  0  0
   38.7450   24.4680   35.7330 C   0  0  0  0  0  3  0  0  0  0  0  0
   40.7460   23.2330   33.0800 N   0  0  0  0  0  0  0  0  0  0  0  0
   40.2080   23.9850   33.8050 C   0  0  0  0  0  0  0  0  0  0  0  0
   36.6530   27.8050   32.7460 C   0  0  0  0  0  3  0  0  0  0  0  0
   37.7270   27.7720   32.0120 C   0  0  0  0  0  3  0  0  0  0  0  0
   34.6560   30.6880   31.7200 C   0  0  0  0  0  0  0  0  0  0  0  0
   34.3760   31.3020   32.9570 C   0  0  0  0  0  0  0  0  0  0  0  0
   34.8960   30.6930   34.1270 C   0  0  0  0  0  0  0  0  0  0  0  0
   35.6360   29.5440   33.9910 N   0  0  0  0  0  0  0  0  0  0  0  0
   35.8590   29.0170   32.7590 C   0  0  0  0  0  0  0  0  0  0  0  0
   35.3820   29.5720   31.6530 N   0  0  0  0  0  0  0  0  0  0  0  0
   34.2360   31.1930   30.8640 H   0  0  0  0  0  0  0  0  0  0  0  0
   33.8000   32.2020   33.1080 H   0  0  0  0  0  0  0  0  0  0  0  0
   34.6660   31.2470   35.4570 C   0  0  0  0  0  0  0  0  0  0  0  0
   33.3960   31.3100   36.0100 C   0  0  0  0  0  0  0  0  0  0  0  0
   33.5260   31.8850   37.2750 C   0  0  0  0  0  0  0  0  0  0  0  0
   34.8600   32.1490   37.4410 N   0  0  0  0  0  0  0  0  0  0  0  0
   35.5220   31.7630   36.3540 N   0  0  0  0  0  0  0  0  0  0  0  0
   32.4200   31.0060   35.6360 H   0  0  0  0  0  0  0  0  0  0  0  0
   32.7630   32.1010   38.0110 H   0  0  0  0  0  0  0  0  0  0  0  0
   35.3610   32.5780   38.2560 H   0  0  0  0  0  0  0  0  0  0  0  0
  1 25  1  0  0  0  0
  1  4  1  0  0  0  0
  1  3  1  0  0  0  0
  2  1  1  0  0  0  0
  4  9  1  0  0  0  0
  5  6  1  0  0  0  0
  5  4  2  0  0  0  0
  6  7  2  0  0  0  0
  7 12  1  0  0  0  0
  7  8  1  0  0  0  0
  8 13  1  0  0  0  0
  9  8  2  0  0  0  0
  9 15  1  0  0  0  0
 10  5  1  0  0  0  0
 11  6  1  0  0  0  0
 14 21  1  0  0  0  0
 15 14  2  0  0  0  0
 15 16  1  0  0  0  0
 16 18  2  0  0  0  0
 17 16  1  0  0  0  0
 18 20  1  0  0  0  0
 18 19  1  0  0  0  0
 21 20  2  0  0  0  0
 22 23  3  0  0  0  0
 23 14  1  0  0  0  0
 24 30  1  0  0  0  0
 25 24  2  0  0  0  0
 26 27  1  0  0  0  0
 27 33  1  0  0  0  0
 27 28  2  0  0  0  0
 28 34  1  0  0  0  0
 29 28  1  0  0  0  0
 30 29  2  0  0  0  0
 31 26  2  0  0  0  0
 31 30  1  0  0  0  0
 32 26  1  0  0  0  0
 34 35  1  0  0  0  0
 34 38  2  0  0  0  0
 35 36  2  0  0  0  0
 36 37  1  0  0  0  0
 36 40  1  0  0  0  0
 37 41  1  0  0  0  0
 38 37  1  0  0  0  0
 39 35  1  0  0  0  0
M  END
>  <minimizedAffinity>
-6.26405096

$$$$

 OpenBabel03272509103D

 41 44  0  0  0  0  0  0  0  0999 V2000
   38.9670   25.1580   34.1210 C   0  0  0  0  0  0  0  0  0  0  0  0
   39.2630   25.1270   35.1780 H   0  0  0  0  0  0  0  0  0  0  0  0
   39.9420   25.1610   33.5500 H   0  0  0  0  0  0  0  0  0  0  0  0
   38.2740   23.9280   33.6700 C   0  0  0  0  0  0  0  0  0  0  0  0
   37.8160   23.7260   32.3800 C   0  0  0  0  0  0  0  0  0  0  0  0
   37.1830   22.5530   32.0430 C   0  0  0  0  0  0  0  0  0  0  0  0
   36.9780   21.5410   32.9690 C   0  0  0  0  0  0  0  0  0  0  0  0
   37.4290   21.7390   34.2390 C   0  0  0  0  0  0  0  0  0  0  0  0
   38.0700   22.9110   34.6010 C   0  0  0  0  0  0  0  0  0  0  0  0
   38.0050   24.5510   31.7050 H   0  0  0  0  0  0  0  0  0  0  0  0
   36.8670   22.4950   31.0220 H   0  0  0  0  0  0  0  0  0  0  0  0
   36.4640   20.6620   32.5790 H   0  0  0  0  0  0  0  0  0  0  0  0
   37.2480   20.9250   34.9240 H   0  0  0  0  0  0  0  0  0  0  0  0
   39.7460   22.6660   36.4590 C   0  0  0  0  0  0  0  0  0  0  0  0
   38.5150   23.0270   35.9910 C   0  0  0  0  0  0  0  0  0  0  0  0
   37.5540   23.5570   36.8530 C   0  0  0  0  0  0  0  0  0  0  0  0
   36.5580   23.8590   36.5230 H   0  0  0  0  0  0  0  0  0  0  0  0
   37.8230   23.7290   38.1990 C   0  0  0  0  0  0  0  0  0  0  0  0
   37.0740   24.1400   38.8630 H   0  0  0  0  0  0  0  0  0  0  0  0
   39.0880   23.3490   38.6360 C   0  0  0  0  0  3  0  0  0  0  0  0
   40.0540   22.8230   37.8010 C   0  0  0  0  0  3  0  0  0  0  0  0
   41.4440   21.6860   34.7420 N   0  0  0  0  0  0  0  0  0  0  0  0
   40.6800   22.1290   35.5170 C   0  0  0  0  0  0  0  0  0  0  0  0
   37.1010   26.8010   34.1510 C   0  0  0  0  0  3  0  0  0  0  0  0
   38.2710   26.3960   33.7540 C   0  0  0  0  0  3  0  0  0  0  0  0
   36.2010   29.5970   31.9780 C   0  0  0  0  0  0  0  0  0  0  0  0
   35.6110   30.4950   32.8910 C   0  0  0  0  0  0  0  0  0  0  0  0
   35.5420   30.1020   34.2510 C   0  0  0  0  0  0  0  0  0  0  0  0
   36.0490   28.8740   34.6020 N   0  0  0  0  0  0  0  0  0  0  0  0
   36.6010   28.0680   33.6580 C   0  0  0  0  0  0  0  0  0  0  0  0
   36.6750   28.4190   32.3810 N   0  0  0  0  0  0  0  0  0  0  0  0
   36.2260   29.9470   30.9580 H   0  0  0  0  0  0  0  0  0  0  0  0
   35.2010   31.4660   32.6580 H   0  0  0  0  0  0  0  0  0  0  0  0
   34.9530   30.9550   35.2770 C   0  0  0  0  0  0  0  0  0  0  0  0
   35.7350   31.7610   36.0900 C   0  0  0  0  0  0  0  0  0  0  0  0
   34.8690   32.4400   36.9510 C   0  0  0  0  0  0  0  0  0  0  0  0
   33.6050   32.0230   36.6300 N   0  0  0  0  0  0  0  0  0  0  0  0
   33.6720   31.1430   35.6350 N   0  0  0  0  0  0  0  0  0  0  0  0
   36.8100   31.9210   36.1450 H   0  0  0  0  0  0  0  0  0  0  0  0
   35.0990   33.1560   37.7280 H   0  0  0  0  0  0  0  0  0  0  0  0
   32.6830   32.3000   37.0460 H   0  0  0  0  0  0  0  0  0  0  0  0
  1  2  1  0  0  0  0
  3  1  1  0  0  0  0
  4  1  1  0  0  0  0
  4  9  1  0  0  0  0
  5  4  2  0  0  0  0
  6  5  1  0  0  0  0
  6  7  2  0  0  0  0
  7  8  1  0  0  0  0
  8  9  2  0  0  0  0
  8 13  1  0  0  0  0
  9 15  1  0  0  0  0
 10  5  1  0  0  0  0
 11  6  1  0  0  0  0
 12  7  1  0  0  0  0
 14 21  1  0  0  0  0
 15 14  2  0  0  0  0
 15 16  1  0  0  0  0
 16 18  2  0  0  0  0
 17 16  1  0  0  0  0
 18 20  1  0  0  0  0
 18 19  1  0  0  0  0
 21 20  2  0  0  0  0
 22 23  3  0  0  0  0
 23 14  1  0  0  0  0
 25  1  1  0  0  0  0
 25 24  2  0  0  0  0
 26 31  2  0  0  0  0
 26 27  1  0  0  0  0
 27 28  2  0  0  0  0
 28 29  1  0  0  0  0
 28 34  1  0  0  0  0
 30 24  1  0  0  0  0
 30 29  2  0  0  0  0
 31 30  1  0  0  0  0
 32 26  1  0  0  0  0
 33 27  1  0  0  0  0
 34 38  2  0  0  0  0
 34 35  1  0  0  0  0
 35 39  1  0  0  0  0
 35 36  2  0  0  0  0
 36 40  1  0  0  0  0
 37 36  1  0  0  0  0
 37 41  1  0  0  0  0
 38 37  1  0  0  0  0
M  END
>  <minimizedAffinity>
-6.20046759

$$$$

 OpenBabel03272509103D

 41 44  0  0  0  0  0  0  0  0999 V2000
   35.3140   28.9160   32.8530 C   0  0  0  0  0  0  0  0  0  0  0  0
   34.7690   29.1810   33.7690 H   0  0  0  0  0  0  0  0  0  0  0  0
   34.5170   28.5450   32.1430 H   0  0  0  0  0  0  0  0  0  0  0  0
   35.9120   30.0850   32.1670 C   0  0  0  0  0  0  0  0  0  0  0  0
   36.5930   30.0120   30.9650 C   0  0  0  0  0  0  0  0  0  0  0  0
   37.1180   31.1480   30.3950 C   0  0  0  0  0  0  0  0  0  0  0  0
   36.9880   32.3930   30.9920 C   0  0  0  0  0  0  0  0  0  0  0  0
   36.3170   32.4650   32.1750 C   0  0  0  0  0  0  0  0  0  0  0  0
   35.7800   31.3360   32.7680 C   0  0  0  0  0  0  0  0  0  0  0  0
   36.6610   29.0150   30.5500 H   0  0  0  0  0  0  0  0  0  0  0  0
   37.6260   30.9860   29.4670 H   0  0  0  0  0  0  0  0  0  0  0  0
   37.4480   33.2140   30.4410 H   0  0  0  0  0  0  0  0  0  0  0  0
   36.2410   33.4530   32.6020 H   0  0  0  0  0  0  0  0  0  0  0  0
   33.7280   31.6680   34.1840 C   0  0  0  0  0  0  0  0  0  0  0  0
   35.0780   31.5200   34.0400 C   0  0  0  0  0  0  0  0  0  0  0  0
   35.9170   31.5330   35.1550 C   0  0  0  0  0  0  0  0  0  0  0  0
   37.0010   31.4170   35.0880 H   0  0  0  0  0  0  0  0  0  0  0  0
   35.4050   31.6970   36.4300 C   0  0  0  0  0  0  0  0  0  0  0  0
   36.0600   31.7070   37.2900 H   0  0  0  0  0  0  0  0  0  0  0  0
   34.0250   31.8450   36.5320 C   0  0  0  0  0  3  0  0  0  0  0  0
   33.1770   31.8350   35.4440 C   0  0  0  0  0  3  0  0  0  0  0  0
   32.2790   31.6270   32.0180 N   0  0  0  0  0  0  0  0  0  0  0  0
   32.9310   31.6440   32.9950 C   0  0  0  0  0  0  0  0  0  0  0  0
   37.0910   27.6230   34.0160 C   0  0  0  0  0  3  0  0  0  0  0  0
   36.2470   27.8010   33.0420 C   0  0  0  0  0  3  0  0  0  0  0  0
   39.3160   24.9250   32.9550 C   0  0  0  0  0  0  0  0  0  0  0  0
   39.4640   24.1870   34.1460 C   0  0  0  0  0  0  0  0  0  0  0  0
   38.7800   24.6500   35.2980 C   0  0  0  0  0  0  0  0  0  0  0  0
   38.0150   25.7860   35.1900 N   0  0  0  0  0  0  0  0  0  0  0  0
   37.9260   26.4390   34.0030 C   0  0  0  0  0  0  0  0  0  0  0  0
   38.5590   26.0220   32.9140 N   0  0  0  0  0  0  0  0  0  0  0  0
   39.8590   24.5290   32.1110 H   0  0  0  0  0  0  0  0  0  0  0  0
   40.0540   23.2920   34.2730 H   0  0  0  0  0  0  0  0  0  0  0  0
   38.8650   23.9600   36.5800 C   0  0  0  0  0  0  0  0  0  0  0  0
   37.9620   24.2090   37.6020 C   0  0  0  0  0  0  0  0  0  0  0  0
   38.3210   23.3930   38.6770 C   0  0  0  0  0  0  0  0  0  0  0  0
   39.4210   22.6860   38.2700 N   0  0  0  0  0  0  0  0  0  0  0  0
   39.7300   23.0330   37.0240 N   0  0  0  0  0  0  0  0  0  0  0  0
   37.1060   24.8780   37.6750 H   0  0  0  0  0  0  0  0  0  0  0  0
   37.8600   23.3020   39.6510 H   0  0  0  0  0  0  0  0  0  0  0  0
   39.9860   21.9700   38.7880 H   0  0  0  0  0  0  0  0  0  0  0  0
  1 25  1  0  0  0  0
  1  2  1  0  0  0  0
  3  1  1  0  0  0  0
  4  9  1  0  0  0  0
  4  1  1  0  0  0  0
  5  4  2  0  0  0  0
  6  5  1  0  0  0  0
  6  7  2  0  0  0  0
  7  8  1  0  0  0  0
  8 13  1  0  0  0  0
  8  9  2  0  0  0  0
  9 15  1  0  0  0  0
 10  5  1  0  0  0  0
 11  6  1  0  0  0  0
 12  7  1  0  0  0  0
 14 21  1  0  0  0  0
 15 14  2  0  0  0  0
 15 16  1  0  0  0  0
 16 18  2  0  0  0  0
 17 16  1  0  0  0  0
 18 20  1  0  0  0  0
 18 19  1  0  0  0  0
 21 20  2  0  0  0  0
 22 23  3  0  0  0  0
 23 14  1  0  0  0  0
 25 24  2  0  0  0  0
 26 27  1  0  0  0  0
 27 33  1  0  0  0  0
 27 28  2  0  0  0  0
 28 34  1  0  0  0  0
 29 28  1  0  0  0  0
 30 24  1  0  0  0  0
 30 29  2  0  0  0  0
 31 26  2  0  0  0  0
 31 30  1  0  0  0  0
 32 26  1  0  0  0  0
 34 38  2  0  0  0  0
 34 35  1  0  0  0  0
 35 39  1  0  0  0  0
 35 36  2  0  0  0  0
 36 40  1  0  0  0  0
 37 36  1  0  0  0  0
 37 41  1  0  0  0  0
 38 37  1  0  0  0  0
M  END
>  <minimizedAffinity>
-6.19102716

$$$$

 OpenBabel03272509103D

 41 44  0  0  0  0  0  0  0  0999 V2000
   35.8830   29.4500   34.4670 C   0  0  0  0  0  0  0  0  0  0  0  0
   36.6020   30.1430   34.0100 H   0  0  0  0  0  0  0  0  0  0  0  0
   35.8820   29.7200   35.5640 H   0  0  0  0  0  0  0  0  0  0  0  0
   34.4870   29.6770   34.0250 C   0  0  0  0  0  0  0  0  0  0  0  0
   33.3740   29.3900   34.7960 C   0  0  0  0  0  0  0  0  0  0  0  0
   32.1110   29.6320   34.3100 C   0  0  0  0  0  0  0  0  0  0  0  0
   31.9040   30.1650   33.0470 C   0  0  0  0  0  0  0  0  0  0  0  0
   32.9990   30.4500   32.2870 C   0  0  0  0  0  0  0  0  0  0  0  0
   34.2800   30.2140   32.7560 C   0  0  0  0  0  0  0  0  0  0  0  0
   33.6010   28.9750   35.7700 H   0  0  0  0  0  0  0  0  0  0  0  0
   31.3190   29.3750   34.9820 H   0  0  0  0  0  0  0  0  0  0  0  0
   30.8570   30.3100   32.7780 H   0  0  0  0  0  0  0  0  0  0  0  0
   32.7890   30.8630   31.3130 H   0  0  0  0  0  0  0  0  0  0  0  0
   36.0390   31.7530   31.8290 C   0  0  0  0  0  0  0  0  0  0  0  0
   35.3900   30.5530   31.8620 C   0  0  0  0  0  0  0  0  0  0  0  0
   35.7630   29.5190   31.0030 C   0  0  0  0  0  0  0  0  0  0  0  0
   35.2720   28.5430   30.9940 H   0  0  0  0  0  0  0  0  0  0  0  0
   36.7960   29.6830   30.0980 C   0  0  0  0  0  0  0  0  0  0  0  0
   37.0810   28.8780   29.4340 H   0  0  0  0  0  0  0  0  0  0  0  0
   37.4320   30.9210   30.0960 C   0  0  0  0  0  3  0  0  0  0  0  0
   37.0800   31.9570   30.9370 C   0  0  0  0  0  3  0  0  0  0  0  0
   35.2430   33.6010   33.4860 N   0  0  0  0  0  0  0  0  0  0  0  0
   35.6020   32.7670   32.7400 C   0  0  0  0  0  0  0  0  0  0  0  0
   37.3840   27.5700   33.8400 C   0  0  0  0  0  3  0  0  0  0  0  0
   36.3060   28.0480   34.3890 C   0  0  0  0  0  3  0  0  0  0  0  0
   37.6790   24.0520   32.8960 C   0  0  0  0  0  0  0  0  0  0  0  0
   38.0590   23.4560   34.1140 C   0  0  0  0  0  0  0  0  0  0  0  0
   38.2030   24.3000   35.2450 C   0  0  0  0  0  0  0  0  0  0  0  0
   37.9670   25.6440   35.0890 N   0  0  0  0  0  0  0  0  0  0  0  0
   37.6040   26.1380   33.8770 C   0  0  0  0  0  0  0  0  0  0  0  0
   37.4650   25.3650   32.8090 N   0  0  0  0  0  0  0  0  0  0  0  0
   37.5860   23.3640   32.0700 H   0  0  0  0  0  0  0  0  0  0  0  0
   38.2540   22.4070   34.2800 H   0  0  0  0  0  0  0  0  0  0  0  0
   38.5920   23.7850   36.5530 C   0  0  0  0  0  0  0  0  0  0  0  0
   37.9950   24.2370   37.7200 C   0  0  0  0  0  0  0  0  0  0  0  0
   38.5890   23.5490   38.7790 C   0  0  0  0  0  0  0  0  0  0  0  0
   39.5180   22.7120   38.2200 N   0  0  0  0  0  0  0  0  0  0  0  0
   39.5060   22.8640   36.8990 N   0  0  0  0  0  0  0  0  0  0  0  0
   37.2130   24.9720   37.9040 H   0  0  0  0  0  0  0  0  0  0  0  0
   38.3930   23.6250   39.8410 H   0  0  0  0  0  0  0  0  0  0  0  0
   40.1700   22.0320   38.6810 H   0  0  0  0  0  0  0  0  0  0  0  0
  1  3  1  0  0  0  0
  2  1  1  0  0  0  0
  4  1  1  0  0  0  0
  4  5  1  0  0  0  0
  5 10  1  0  0  0  0
  6  5  2  0  0  0  0
  6 11  1  0  0  0  0
  7  6  1  0  0  0  0
  8  9  1  0  0  0  0
  8  7  2  0  0  0  0
  9  4  2  0  0  0  0
 12  7  1  0  0  0  0
 13  8  1  0  0  0  0
 14 15  1  0  0  0  0
 14 23  1  0  0  0  0
 15  9  1  0  0  0  0
 16 15  2  0  0  0  0
 17 16  1  0  0  0  0
 18 16  1  0  0  0  0
 19 18  1  0  0  0  0
 20 18  2  0  0  0  0
 20 21  1  0  0  0  0
 21 14  2  0  0  0  0
 23 22  3  0  0  0  0
 24 30  1  0  0  0  0
 24 25  2  0  0  0  0
 25  1  1  0  0  0  0
 26 27  1  0  0  0  0
 27 33  1  0  0  0  0
 27 28  2  0  0  0  0
 28 34  1  0  0  0  0
 29 28  1  0  0  0  0
 30 29  2  0  0  0  0
 31 26  2  0  0  0  0
 31 30  1  0  0  0  0
 32 26  1  0  0  0  0
 34 38  2  0  0  0  0
 34 35  1  0  0  0  0
 35 39  1  0  0  0  0
 35 36  2  0  0  0  0
 36 40  1  0  0  0  0
 37 41  1  0  0  0  0
 37 36  1  0  0  0  0
 38 37  1  0  0  0  0
M  END
>  <minimizedAffinity>
-6.14110088

$$$$

 OpenBabel03272509103D

 41 44  0  0  0  0  0  0  0  0999 V2000
   37.8640   25.8680   35.2750 C   0  0  0  0  0  0  0  0  0  0  0  0
   37.2940   24.9320   35.2110 H   0  0  0  0  0  0  0  0  0  0  0  0
   38.0500   26.0160   36.3790 H   0  0  0  0  0  0  0  0  0  0  0  0
   39.2170   25.7730   34.6780 C   0  0  0  0  0  0  0  0  0  0  0  0
   40.2370   26.6750   34.9230 C   0  0  0  0  0  0  0  0  0  0  0  0
   41.4650   26.5130   34.3270 C   0  0  0  0  0  0  0  0  0  0  0  0
   41.7280   25.4560   33.4700 C   0  0  0  0  0  0  0  0  0  0  0  0
   40.7240   24.5660   33.2280 C   0  0  0  0  0  0  0  0  0  0  0  0
   39.4800   24.7090   33.8160 C   0  0  0  0  0  0  0  0  0  0  0  0
   39.9710   27.4770   35.5990 H   0  0  0  0  0  0  0  0  0  0  0  0
   42.1850   27.2630   34.5810 H   0  0  0  0  0  0  0  0  0  0  0  0
   42.7390   25.4380   33.0620 H   0  0  0  0  0  0  0  0  0  0  0  0
   40.9750   23.7600   32.5550 H   0  0  0  0  0  0  0  0  0  0  0  0
   38.2410   22.5540   34.1970 C   0  0  0  0  0  0  0  0  0  0  0  0
   38.4690   23.7010   33.4910 C   0  0  0  0  0  0  0  0  0  0  0  0
   37.7120   24.0000   32.3580 C   0  0  0  0  0  0  0  0  0  0  0  0
   37.8590   24.9040   31.7630 H   0  0  0  0  0  0  0  0  0  0  0  0
   36.7160   23.1450   31.9210 C   0  0  0  0  0  0  0  0  0  0  0  0
   36.1330   23.3820   31.0410 H   0  0  0  0  0  0  0  0  0  0  0  0
   36.5160   21.9880   32.6680 C   0  0  0  0  0  3  0  0  0  0  0  0
   37.2510   21.6730   33.7920 C   0  0  0  0  0  3  0  0  0  0  0  0
   39.7260   22.1210   36.2950 N   0  0  0  0  0  0  0  0  0  0  0  0
   39.0560   22.3150   35.3490 C   0  0  0  0  0  0  0  0  0  0  0  0
   36.8610   27.4120   33.6040 C   0  0  0  0  0  3  0  0  0  0  0  0
   37.1020   27.0380   34.8260 C   0  0  0  0  0  3  0  0  0  0  0  0
   34.9810   30.1240   32.0350 C   0  0  0  0  0  0  0  0  0  0  0  0
   34.6050   30.8990   33.1500 C   0  0  0  0  0  0  0  0  0  0  0  0
   35.0200   30.4560   34.4310 C   0  0  0  0  0  0  0  0  0  0  0  0
   35.7590   29.3010   34.5140 N   0  0  0  0  0  0  0  0  0  0  0  0
   36.0780   28.6120   33.3880 C   0  0  0  0  0  0  0  0  0  0  0  0
   35.7000   29.0110   32.1810 N   0  0  0  0  0  0  0  0  0  0  0  0
   34.6380   30.5070   31.0860 H   0  0  0  0  0  0  0  0  0  0  0  0
   34.0260   31.8100   33.1290 H   0  0  0  0  0  0  0  0  0  0  0  0
   34.6850   31.1840   35.6500 C   0  0  0  0  0  0  0  0  0  0  0  0
   33.3750   31.3100   36.0860 C   0  0  0  0  0  0  0  0  0  0  0  0
   33.4040   32.0540   37.2670 C   0  0  0  0  0  0  0  0  0  0  0  0
   34.7210   32.3510   37.5000 N   0  0  0  0  0  0  0  0  0  0  0  0
   35.4670   31.8270   36.5320 N   0  0  0  0  0  0  0  0  0  0  0  0
   32.4320   30.9480   35.6810 H   0  0  0  0  0  0  0  0  0  0  0  0
   32.5850   32.3610   37.9030 H   0  0  0  0  0  0  0  0  0  0  0  0
   35.1550   32.8930   38.2860 H   0  0  0  0  0  0  0  0  0  0  0  0
  1  3  1  0  0  0  0
  2  1  1  0  0  0  0
  4  5  1  0  0  0  0
  4  1  1  0  0  0  0
  5 10  1  0  0  0  0
  6 11  1  0  0  0  0
  6  5  2  0  0  0  0
  7  6  1  0  0  0  0
  8  7  2  0  0  0  0
  8  9  1  0  0  0  0
  9  4  2  0  0  0  0
 12  7  1  0  0  0  0
 13  8  1  0  0  0  0
 14 23  1  0  0  0  0
 15  9  1  0  0  0  0
 15 14  2  0  0  0  0
 16 15  1  0  0  0  0
 17 16  1  0  0  0  0
 18 16  2  0  0  0  0
 18 20  1  0  0  0  0
 19 18  1  0  0  0  0
 20 21  2  0  0  0  0
 21 14  1  0  0  0  0
 23 22  3  0  0  0  0
 24 25  2  0  0  0  0
 25  1  1  0  0  0  0
 26 31  2  0  0  0  0
 26 27  1  0  0  0  0
 27 28  2  0  0  0  0
 28 29  1  0  0  0  0
 28 34  1  0  0  0  0
 30 24  1  0  0  0  0
 30 29  2  0  0  0  0
 31 30  1  0  0  0  0
 32 26  1  0  0  0  0
 33 27  1  0  0  0  0
 34 35  1  0  0  0  0
 34 38  2  0  0  0  0
 35 36  2  0  0  0  0
 36 37  1  0  0  0  0
 36 40  1  0  0  0  0
 37 41  1  0  0  0  0
 38 37  1  0  0  0  0
 39 35  1  0  0  0  0
M  END
>  <minimizedAffinity>
-6.01741123

$$$$

 OpenBabel03272509103D

 41 44  0  0  0  0  0  0  0  0999 V2000
   36.2920   28.2620   34.5620 C   0  0  0  0  0  0  0  0  0  0  0  0
   36.6720   28.8790   35.3880 H   0  0  0  0  0  0  0  0  0  0  0  0
   35.2290   28.0150   34.8540 H   0  0  0  0  0  0  0  0  0  0  0  0
   36.1670   29.0030   33.2850 C   0  0  0  0  0  0  0  0  0  0  0  0
   36.6490   28.5420   32.0730 C   0  0  0  0  0  0  0  0  0  0  0  0
   36.4900   29.2940   30.9320 C   0  0  0  0  0  0  0  0  0  0  0  0
   35.8520   30.5240   30.9510 C   0  0  0  0  0  0  0  0  0  0  0  0
   35.3770   30.9780   32.1440 C   0  0  0  0  0  0  0  0  0  0  0  0
   35.5250   30.2390   33.3050 C   0  0  0  0  0  0  0  0  0  0  0  0
   37.1370   27.5780   32.1230 H   0  0  0  0  0  0  0  0  0  0  0  0
   36.8980   28.8500   30.0470 H   0  0  0  0  0  0  0  0  0  0  0  0
   35.7900   31.0220   29.9820 H   0  0  0  0  0  0  0  0  0  0  0  0
   34.8880   31.9390   32.1100 H   0  0  0  0  0  0  0  0  0  0  0  0
   33.7130   30.6200   35.0070 C   0  0  0  0  0  0  0  0  0  0  0  0
   34.9800   30.8160   34.5370 C   0  0  0  0  0  0  0  0  0  0  0  0
   35.8830   31.6170   35.2360 C   0  0  0  0  0  0  0  0  0  0  0  0
   36.9040   31.8010   34.8980 H   0  0  0  0  0  0  0  0  0  0  0  0
   35.5190   32.2330   36.4200 C   0  0  0  0  0  0  0  0  0  0  0  0
   36.2220   32.8540   36.9590 H   0  0  0  0  0  0  0  0  0  0  0  0
   34.2200   32.0090   36.8650 C   0  0  0  0  0  3  0  0  0  0  0  0
   33.3100   31.2190   36.1900 C   0  0  0  0  0  3  0  0  0  0  0  0
   32.1310   29.1010   33.6000 N   0  0  0  0  0  0  0  0  0  0  0  0
   32.8430   29.7860   34.2360 C   0  0  0  0  0  0  0  0  0  0  0  0
   38.0370   26.5710   35.0930 C   0  0  0  0  0  3  0  0  0  0  0  0
   36.9920   26.9790   34.4350 C   0  0  0  0  0  3  0  0  0  0  0  0
   40.1720   23.6080   34.9970 C   0  0  0  0  0  0  0  0  0  0  0  0
   39.4340   22.7460   34.1610 C   0  0  0  0  0  0  0  0  0  0  0  0
   38.2020   23.2220   33.6470 C   0  0  0  0  0  0  0  0  0  0  0  0
   37.7970   24.4890   33.9900 N   0  0  0  0  0  0  0  0  0  0  0  0
   38.5700   25.2560   34.8030 C   0  0  0  0  0  0  0  0  0  0  0  0
   39.7250   24.8280   35.2940 N   0  0  0  0  0  0  0  0  0  0  0  0
   41.1000   23.1940   35.3600 H   0  0  0  0  0  0  0  0  0  0  0  0
   39.7140   21.7460   33.8670 H   0  0  0  0  0  0  0  0  0  0  0  0
   37.3610   22.4120   32.7730 C   0  0  0  0  0  0  0  0  0  0  0  0
   36.5220   22.9880   31.8310 C   0  0  0  0  0  0  0  0  0  0  0  0
   35.8670   21.9460   31.1710 C   0  0  0  0  0  0  0  0  0  0  0  0
   36.3300   20.7860   31.7330 N   0  0  0  0  0  0  0  0  0  0  0  0
   37.2150   21.0800   32.6810 N   0  0  0  0  0  0  0  0  0  0  0  0
   36.3250   24.0240   31.5640 H   0  0  0  0  0  0  0  0  0  0  0  0
   35.1370   21.9920   30.3740 H   0  0  0  0  0  0  0  0  0  0  0  0
   36.0830   19.7910   31.5130 H   0  0  0  0  0  0  0  0  0  0  0  0
  1  3  1  0  0  0  0
  1  2  1  0  0  0  0
  4  9  1  0  0  0  0
  4  1  1  0  0  0  0
  5 10  1  0  0  0  0
  5  4  2  0  0  0  0
  6  7  2  0  0  0  0
  6  5  1  0  0  0  0
  7  8  1  0  0  0  0
  8  9  2  0  0  0  0
  9 15  1  0  0  0  0
 11  6  1  0  0  0  0
 12  7  1  0  0  0  0
 13  8  1  0  0  0  0
 14 21  1  0  0  0  0
 15 14  2  0  0  0  0
 15 16  1  0  0  0  0
 16 18  2  0  0  0  0
 17 16  1  0  0  0  0
 18 20  1  0  0  0  0
 18 19  1  0  0  0  0
 21 20  2  0  0  0  0
 22 23  3  0  0  0  0
 23 14  1  0  0  0  0
 25  1  1  0  0  0  0
 25 24  2  0  0  0  0
 26 31  1  0  0  0  0
 26 32  1  0  0  0  0
 27 26  2  0  0  0  0
 28 29  2  0  0  0  0
 28 27  1  0  0  0  0
 29 30  1  0  0  0  0
 30 24  1  0  0  0  0
 30 31  2  0  0  0  0
 33 27  1  0  0  0  0
 34 28  1  0  0  0  0
 35 34  1  0  0  0  0
 36 37  1  0  0  0  0
 36 35  2  0  0  0  0
 37 38  1  0  0  0  0
 38 34  2  0  0  0  0
 39 35  1  0  0  0  0
 40 36  1  0  0  0  0
 41 37  1  0  0  0  0
M  END
>  <minimizedAffinity>
-6.00637197

$$$$
