
 OpenBabel03272509213D

 47 51  0  0  0  0  0  0  0  0999 V2000
   39.8250   31.9840   46.2790 O   0  0  0  0  0  0  0  0  0  0  0  0
   39.9360   30.7930   44.0820 C   0  0  0  0  0  0  0  0  0  0  0  0
   39.4930   31.7520   44.9710 C   0  0  0  0  0  0  0  0  0  0  0  0
   38.5430   32.6840   44.5390 C   0  0  0  0  0  0  0  0  0  0  0  0
   38.0510   32.6400   43.2280 C   0  0  0  0  0  0  0  0  0  0  0  0
   37.1680   33.3580   42.5180 N   0  0  0  0  0  0  0  0  0  0  0  0
   37.0600   32.8840   41.2640 C   0  0  0  0  0  0  0  0  0  0  0  0
   37.9080   31.8260   41.1800 N   0  0  0  0  0  0  0  0  0  0  0  0
   38.5230   31.6630   42.3730 C   0  0  0  0  0  0  0  0  0  0  0  0
   39.4590   30.7420   42.7920 C   0  0  0  0  0  0  0  0  0  0  0  0
   40.6590   30.1380   44.5230 H   0  0  0  0  0  0  0  0  0  0  0  0
   38.1020   33.4880   45.1130 H   0  0  0  0  0  0  0  0  0  0  0  0
   36.6430   34.1600   42.8770 H   0  0  0  0  0  0  0  0  0  0  0  0
   36.4300   33.2660   40.4920 H   0  0  0  0  0  0  0  0  0  0  0  0
   39.4220   28.4530   41.6990 C   0  0  0  0  0  0  0  0  0  0  0  0
   39.9830   29.6950   41.9210 C   0  0  0  0  0  0  0  0  0  0  0  0
   41.1600   30.0670   41.2920 C   0  0  0  0  0  0  0  0  0  0  0  0
   41.6600   31.0370   41.4210 H   0  0  0  0  0  0  0  0  0  0  0  0
   41.8100   29.1980   40.4200 C   0  0  0  0  0  0  0  0  0  0  0  0
   42.7370   29.4970   39.9280 H   0  0  0  0  0  0  0  0  0  0  0  0
   41.2300   27.9440   40.2070 C   0  0  0  0  0  3  0  0  0  0  0  0
   40.0540   27.5790   40.8390 C   0  0  0  0  0  3  0  0  0  0  0  0
   37.2180   27.9380   42.9500 N   0  0  0  0  0  0  0  0  0  0  0  0
   38.2040   28.1730   42.4020 C   0  0  0  0  0  0  0  0  0  0  0  0
   37.9840   31.2100   47.6600 C   0  0  0  0  0  0  0  0  0  0  0  0
   37.1130   31.2780   48.7290 C   0  0  0  0  0  0  0  0  0  0  0  0
   37.3140   32.3870   49.5570 C   0  0  0  0  0  0  0  0  0  0  0  0
   38.3220   33.3360   49.3040 C   0  0  0  0  0  0  0  0  0  0  0  0
   39.1510   33.1630   48.1840 C   0  0  0  0  0  0  0  0  0  0  0  0
   38.9630   32.0690   47.3540 C   0  0  0  0  0  0  0  0  0  0  0  0
   36.6670   32.4980   50.4090 H   0  0  0  0  0  0  0  0  0  0  0  0
   38.4340   34.1750   49.9780 H   0  0  0  0  0  0  0  0  0  0  0  0
   39.9150   33.9200   48.0270 H   0  0  0  0  0  0  0  0  0  0  0  0
   34.9010   30.3480   48.2700 C   0  0  0  0  0  0  0  0  0  0  0  0
   36.0910   30.3190   48.9900 C   0  0  0  0  0  0  0  0  0  0  0  0
   36.2400   29.3210   49.9700 C   0  0  0  0  0  0  0  0  0  0  0  0
   35.2240   28.4460   50.1620 N   0  0  0  0  0  0  0  0  0  0  0  0
   34.0720   28.5160   49.4270 C   0  0  0  0  0  0  0  0  0  0  0  0
   33.9200   29.4580   48.4940 N   0  0  0  0  0  0  0  0  0  0  0  0
   34.7080   31.0780   47.5040 H   0  0  0  0  0  0  0  0  0  0  0  0
   33.3930   27.7370   49.7270 H   0  0  0  0  0  0  0  0  0  0  0  0
   37.4890   29.2420   50.7700 C   0  0  0  0  0  0  0  0  0  0  0  0
   38.0260   30.1970   50.6660 H   0  0  0  0  0  0  0  0  0  0  0  0
   38.1230   28.4610   50.2980 H   0  0  0  0  0  0  0  0  0  0  0  0
   37.2670   28.9520   51.8030 H   0  0  0  0  0  0  0  0  0  0  0  0
   37.8650   30.1360   46.7710 O   0  0  0  0  0  0  0  0  0  0  0  0
   37.0030   30.0750   46.2510 H   0  0  0  0  0  0  0  0  0  0  0  0
  1 30  1  0  0  0  0
  2 11  1  0  0  0  0
  2  3  1  0  0  0  0
  3  1  1  0  0  0  0
  4  3  2  0  0  0  0
  4 12  1  0  0  0  0
  5  4  1  0  0  0  0
  6 13  1  0  0  0  0
  6  5  1  0  0  0  0
  7  6  1  0  0  0  0
  8  7  2  0  0  0  0
  8  9  1  0  0  0  0
  9 10  1  0  0  0  0
  9  5  2  0  0  0  0
 10  2  2  0  0  0  0
 14  7  1  0  0  0  0
 15 16  1  0  0  0  0
 15 24  1  0  0  0  0
 16 10  1  0  0  0  0
 17 18  1  0  0  0  0
 17 16  2  0  0  0  0
 19 17  1  0  0  0  0
 20 19  1  0  0  0  0
 21 19  2  0  0  0  0
 21 22  1  0  0  0  0
 22 15  2  0  0  0  0
 24 23  3  0  0  0  0
 25 26  1  0  0  0  0
 26 35  1  0  0  0  0
 26 27  2  0  0  0  0
 27 31  1  0  0  0  0
 28 27  1  0  0  0  0
 28 32  1  0  0  0  0
 29 28  2  0  0  0  0
 30 25  2  0  0  0  0
 30 29  1  0  0  0  0
 33 29  1  0  0  0  0
 34 39  2  0  0  0  0
 34 35  1  0  0  0  0
 35 36  2  0  0  0  0
 36 37  1  0  0  0  0
 36 42  1  0  0  0  0
 38 41  1  0  0  0  0
 38 37  2  0  0  0  0
 39 38  1  0  0  0  0
 40 34  1  0  0  0  0
 42 45  1  0  0  0  0
 43 42  1  0  0  0  0
 44 42  1  0  0  0  0
 46 25  1  0  0  0  0
 47 46  1  0  0  0  0
M  END
>  <minimizedAffinity>
-7.12720442

>  <minimizedRMSD>
1.05560684

$$$$
