
 OpenBabel03272509083D

 41 44  0  0  0  0  0  0  0  0999 V2000
   33.1730   28.0460   47.8040 C   0  0  0  0  0  0  0  0  0  0  0  0
   32.4740   28.7170   47.2860 H   0  0  0  0  0  0  0  0  0  0  0  0
   32.5680   27.5980   48.6460 H   0  0  0  0  0  0  0  0  0  0  0  0
   33.5880   26.8840   46.9830 C   0  0  0  0  0  0  0  0  0  0  0  0
   33.7830   25.6110   47.4870 C   0  0  0  0  0  0  0  0  0  0  0  0
   34.1700   24.5870   46.6550 C   0  0  0  0  0  0  0  0  0  0  0  0
   34.3770   24.7860   45.2990 C   0  0  0  0  0  0  0  0  0  0  0  0
   34.1840   26.0400   44.8010 C   0  0  0  0  0  0  0  0  0  0  0  0
   33.7950   27.0860   45.6200 C   0  0  0  0  0  0  0  0  0  0  0  0
   33.6070   25.5190   48.5510 H   0  0  0  0  0  0  0  0  0  0  0  0
   34.2940   23.6410   47.1410 H   0  0  0  0  0  0  0  0  0  0  0  0
   34.6800   23.8950   44.7470 H   0  0  0  0  0  0  0  0  0  0  0  0
   34.3560   26.1460   43.7420 H   0  0  0  0  0  0  0  0  0  0  0  0
   32.4290   28.9010   44.5420 C   0  0  0  0  0  0  0  0  0  0  0  0
   33.6160   28.3950   44.9890 C   0  0  0  0  0  0  0  0  0  0  0  0
   34.7940   29.1320   44.8640 C   0  0  0  0  0  0  0  0  0  0  0  0
   35.7660   28.7670   45.2060 H   0  0  0  0  0  0  0  0  0  0  0  0
   34.7910   30.3890   44.2880 C   0  0  0  0  0  0  0  0  0  0  0  0
   35.7050   30.9570   44.1940 H   0  0  0  0  0  0  0  0  0  0  0  0
   33.5600   30.8690   43.8470 C   0  0  0  0  0  3  0  0  0  0  0  0
   32.3820   30.1570   43.9600 C   0  0  0  0  0  3  0  0  0  0  0  0
   30.3060   27.4170   44.8360 N   0  0  0  0  0  0  0  0  0  0  0  0
   31.2620   28.0880   44.7040 C   0  0  0  0  0  0  0  0  0  0  0  0
   34.9800   28.3950   49.4750 C   0  0  0  0  0  3  0  0  0  0  0  0
   34.2910   28.7550   48.4330 C   0  0  0  0  0  3  0  0  0  0  0  0
   37.3970   30.1580   51.5740 C   0  0  0  0  0  0  0  0  0  0  0  0
   38.0980   30.9280   50.6240 C   0  0  0  0  0  0  0  0  0  0  0  0
   37.7080   30.8140   49.2660 C   0  0  0  0  0  0  0  0  0  0  0  0
   36.6760   29.9640   48.9530 N   0  0  0  0  0  0  0  0  0  0  0  0
   36.0520   29.2570   49.9300 C   0  0  0  0  0  0  0  0  0  0  0  0
   36.4030   29.3500   51.2060 N   0  0  0  0  0  0  0  0  0  0  0  0
   37.7360   30.2820   52.5900 H   0  0  0  0  0  0  0  0  0  0  0  0
   38.9130   31.6060   50.8270 H   0  0  0  0  0  0  0  0  0  0  0  0
   38.3670   31.5670   48.2040 C   0  0  0  0  0  0  0  0  0  0  0  0
   38.5660   31.0240   46.9440 C   0  0  0  0  0  0  0  0  0  0  0  0
   39.2140   31.9940   46.1760 C   0  0  0  0  0  0  0  0  0  0  0  0
   39.3840   33.0790   46.9940 N   0  0  0  0  0  0  0  0  0  0  0  0
   38.8750   32.8100   48.1930 N   0  0  0  0  0  0  0  0  0  0  0  0
   38.3140   30.0560   46.5160 H   0  0  0  0  0  0  0  0  0  0  0  0
   39.5380   31.9470   45.1450 H   0  0  0  0  0  0  0  0  0  0  0  0
   39.8280   34.0080   46.7900 H   0  0  0  0  0  0  0  0  0  0  0  0
  1 25  1  0  0  0  0
  1  3  1  0  0  0  0
  2  1  1  0  0  0  0
  4  5  1  0  0  0  0
  4  1  1  0  0  0  0
  5 10  1  0  0  0  0
  6 11  1  0  0  0  0
  6  5  2  0  0  0  0
  7  6  1  0  0  0  0
  8  7  2  0  0  0  0
  8  9  1  0  0  0  0
  9  4  2  0  0  0  0
 12  7  1  0  0  0  0
 13  8  1  0  0  0  0
 14 23  1  0  0  0  0
 14 15  1  0  0  0  0
 15  9  1  0  0  0  0
 16 15  2  0  0  0  0
 16 17  1  0  0  0  0
 18 16  1  0  0  0  0
 19 18  1  0  0  0  0
 20 21  1  0  0  0  0
 20 18  2  0  0  0  0
 21 14  2  0  0  0  0
 23 22  3  0  0  0  0
 24 30  1  0  0  0  0
 25 24  2  0  0  0  0
 26 32  1  0  0  0  0
 27 33  1  0  0  0  0
 27 26  2  0  0  0  0
 28 27  1  0  0  0  0
 29 28  2  0  0  0  0
 29 30  1  0  0  0  0
 30 31  2  0  0  0  0
 31 26  1  0  0  0  0
 34 28  1  0  0  0  0
 35 34  1  0  0  0  0
 36 35  2  0  0  0  0
 36 37  1  0  0  0  0
 37 38  1  0  0  0  0
 38 34  2  0  0  0  0
 39 35  1  0  0  0  0
 40 36  1  0  0  0  0
 41 37  1  0  0  0  0
M  END
>  <minimizedAffinity>
-6.20221996

>  <minimizedRMSD>
0.209890664

$$$$
