
 OpenBabel03272503233D

 31 33  0  0  1  0  0  0  0  0999 V2000
   36.6900   29.8500   49.2190 N   0  0  0  0  0  0  0  0  0  0  0  0
   37.4180   31.0700   49.0370 C   0  0  1  0  0  0  0  0  0  0  0  0
   38.1980   31.2230   50.3230 C   0  0  0  0  0  0  0  0  0  0  0  0
   37.6740   30.1140   51.2400 C   0  0  0  0  0  0  0  0  0  0  0  0
   37.4340   29.0540   50.1730 C   0  0  0  0  0  0  0  0  0  0  0  0
   36.6340   31.8840   49.0820 H   0  0  0  0  0  0  0  0  0  0  0  0
   39.2640   31.0750   50.0950 H   0  0  0  0  0  0  0  0  0  0  0  0
   38.0260   32.1890   50.8300 H   0  0  0  0  0  0  0  0  0  0  0  0
   38.4730   29.7740   51.9280 H   0  0  0  0  0  0  0  0  0  0  0  0
   36.7520   30.4080   51.7390 H   0  0  0  0  0  0  0  0  0  0  0  0
   38.3680   28.6380   49.8110 H   0  0  0  0  0  0  0  0  0  0  0  0
   36.7890   28.2280   50.5610 H   0  0  0  0  0  0  0  0  0  0  0  0
   35.4740   29.4760   48.5960 C   0  0  0  0  0  0  0  0  0  0  0  0
   34.9230   30.4170   47.7280 C   0  0  0  0  0  0  0  0  0  0  0  0
   33.7080   30.1010   47.0800 C   0  0  0  0  0  0  0  0  0  0  0  0
   33.1550   28.8630   47.3650 N   0  0  0  0  0  0  0  0  0  0  0  0
   33.7370   27.9900   48.2170 C   0  0  0  0  0  0  0  0  0  0  0  0
   34.8970   28.2990   48.8310 N   0  0  0  0  0  0  0  0  0  0  0  0
   35.3250   31.3900   47.4840 H   0  0  0  0  0  0  0  0  0  0  0  0
   33.2030   30.7680   46.3890 H   0  0  0  0  0  0  0  0  0  0  0  0
   33.2170   27.0520   48.3630 H   0  0  0  0  0  0  0  0  0  0  0  0
   38.9460   32.3680   47.6440 C   0  0  0  0  0  0  0  0  0  0  0  0
   38.1860   31.2050   47.8160 C   0  0  0  0  0  0  0  0  0  0  0  0
   38.2640   30.3130   46.7820 C   0  0  0  0  0  0  0  0  0  0  0  0
   37.6960   29.4050   46.8720 H   0  0  0  0  0  0  0  0  0  0  0  0
   39.0120   30.4970   45.6460 C   0  0  0  0  0  0  0  0  0  0  0  0
   39.0500   29.7670   44.8440 H   0  0  0  0  0  0  0  0  0  0  0  0
   39.7450   31.6510   45.5120 C   0  0  0  0  0  3  0  0  0  0  0  0
   39.7170   32.6120   46.5280 C   0  0  0  0  0  3  0  0  0  0  0  0
   38.9600   34.2160   49.4920 N   0  0  0  0  0  0  0  0  0  0  0  0
   38.9530   33.3940   48.6620 C   0  0  0  0  0  0  0  0  0  0  0  0
  1  5  1  0  0  0  0
  2  6  1  6  0  0  0
  2  1  1  0  0  0  0
  2  3  1  0  0  0  0
  3  8  1  0  0  0  0
  3  4  1  0  0  0  0
  4 10  1  0  0  0  0
  4  9  1  0  0  0  0
  5 12  1  0  0  0  0
  5  4  1  0  0  0  0
  7  3  1  0  0  0  0
 11  5  1  0  0  0  0
 13 18  1  0  0  0  0
 13  1  1  0  0  0  0
 14 13  2  0  0  0  0
 15 16  2  0  0  0  0
 15 14  1  0  0  0  0
 16 17  1  0  0  0  0
 17 21  1  0  0  0  0
 17 18  2  0  0  0  0
 19 14  1  0  0  0  0
 20 15  1  0  0  0  0
 22 23  1  0  0  0  0
 22 31  1  0  0  0  0
 23  2  1  0  0  0  0
 24 25  1  0  0  0  0
 24 23  2  0  0  0  0
 26 24  1  0  0  0  0
 27 26  1  0  0  0  0
 28 26  2  0  0  0  0
 28 29  1  0  0  0  0
 29 22  2  0  0  0  0
 31 30  3  0  0  0  0
M  END
>  <minimizedAffinity>
-5.95487595

>  <minimizedRMSD>
1.09716117

$$$$
