
 OpenBabel03272502103D

 27 29  0  0  0  0  0  0  0  0999 V2000
   37.3920   31.0140   48.0610 C   0  0  0  0  0  0  0  0  0  0  0  0
   38.0740   32.0720   48.6250 C   0  0  0  0  0  0  0  0  0  0  0  0
   39.1240   32.7420   47.9870 C   0  0  0  0  0  0  0  0  0  0  0  0
   39.4690   32.3060   46.7520 N   0  0  0  0  0  0  0  0  0  0  0  0
   38.8060   31.2770   46.2030 C   0  0  0  0  0  0  0  0  0  0  0  0
   37.7920   30.6320   46.8230 N   0  0  0  0  0  0  0  0  0  0  0  0
   37.8060   32.4330   49.6200 H   0  0  0  0  0  0  0  0  0  0  0  0
   39.6490   33.5610   48.4280 H   0  0  0  0  0  0  0  0  0  0  0  0
   36.3470   29.9530   50.0860 C   0  0  0  0  0  0  0  0  0  0  0  0
   36.3120   30.3450   48.7480 C   0  0  0  0  0  0  0  0  0  0  0  0
   35.1440   30.0630   48.0350 C   0  0  0  0  0  0  0  0  0  0  0  0
   34.1220   29.4400   48.6530 N   0  0  0  0  0  0  0  0  0  0  0  0
   34.1990   29.0740   49.9680 C   0  0  0  0  0  0  0  0  0  0  0  0
   35.3270   29.3360   50.6850 N   0  0  0  0  0  0  0  0  0  0  0  0
   37.2920   30.2150   50.5490 H   0  0  0  0  0  0  0  0  0  0  0  0
   35.0020   30.3230   46.9830 H   0  0  0  0  0  0  0  0  0  0  0  0
   33.4120   28.5730   50.5130 H   0  0  0  0  0  0  0  0  0  0  0  0
   39.7470   31.6860   43.9530 C   0  0  0  0  0  0  0  0  0  0  0  0
   39.2010   30.8350   44.8800 C   0  0  0  0  0  0  0  0  0  0  0  0
   39.0610   29.5340   44.4450 C   0  0  0  0  0  0  0  0  0  0  0  0
   38.6400   28.7870   45.1020 H   0  0  0  0  0  0  0  0  0  0  0  0
   39.4210   29.0690   43.1990 C   0  0  0  0  0  0  0  0  0  0  0  0
   39.3050   28.0530   42.8790 H   0  0  0  0  0  0  0  0  0  0  0  0
   39.9750   29.9840   42.2960 C   0  0  0  0  0  0  0  0  0  0  0  0
   40.1340   31.2980   42.6870 C   0  0  0  0  0  0  0  0  0  0  0  0
   40.0900   34.2020   44.6070 N   0  0  0  0  0  0  0  0  0  0  0  0
   39.9320   33.0750   44.3240 C   0  0  0  0  0  0  0  0  0  0  0  0
  1  2  1  0  0  0  0
  1 10  1  0  0  0  0
  2  7  1  0  0  0  0
  3  8  1  0  0  0  0
  3  2  2  0  0  0  0
  4  3  1  0  0  0  0
  5  4  2  0  0  0  0
  5  6  1  0  0  0  0
  6  1  2  0  0  0  0
  9 15  1  0  0  0  0
  9 14  1  0  0  0  0
 10  9  2  0  0  0  0
 11 12  2  0  0  0  0
 11 10  1  0  0  0  0
 12 13  1  0  0  0  0
 13 17  1  0  0  0  0
 13 14  2  0  0  0  0
 16 11  1  0  0  0  0
 18 27  1  0  0  0  0
 18 19  1  0  0  0  0
 19  5  1  0  0  0  0
 20 19  2  0  0  0  0
 20 21  1  0  0  0  0
 22 20  1  0  0  0  0
 23 22  1  0  0  0  0
 24 25  1  0  0  0  0
 24 22  2  0  0  0  0
 25 18  2  0  0  0  0
 27 26  3  0  0  0  0
M  END
>  <minimizedAffinity>
-5.52444458

>  <minimizedRMSD>
1.61658001

$$$$
