
 OpenBabel03272509083D

 41 44  0  0  0  0  0  0  0  0999 V2000
   33.1710   28.0460   47.8070 C   0  0  0  0  0  0  0  0  0  0  0  0
   32.4730   28.7170   47.2890 H   0  0  0  0  0  0  0  0  0  0  0  0
   32.5660   27.5990   48.6490 H   0  0  0  0  0  0  0  0  0  0  0  0
   33.5870   26.8850   46.9860 C   0  0  0  0  0  0  0  0  0  0  0  0
   33.7810   25.6110   47.4900 C   0  0  0  0  0  0  0  0  0  0  0  0
   34.1670   24.5870   46.6590 C   0  0  0  0  0  0  0  0  0  0  0  0
   34.3750   24.7850   45.3020 C   0  0  0  0  0  0  0  0  0  0  0  0
   34.1830   26.0390   44.8050 C   0  0  0  0  0  0  0  0  0  0  0  0
   33.7940   27.0860   45.6230 C   0  0  0  0  0  0  0  0  0  0  0  0
   33.6040   25.5200   48.5540 H   0  0  0  0  0  0  0  0  0  0  0  0
   34.2910   23.6410   47.1450 H   0  0  0  0  0  0  0  0  0  0  0  0
   34.6780   23.8940   44.7510 H   0  0  0  0  0  0  0  0  0  0  0  0
   34.3550   26.1450   43.7450 H   0  0  0  0  0  0  0  0  0  0  0  0
   32.4290   28.9020   44.5440 C   0  0  0  0  0  0  0  0  0  0  0  0
   33.6160   28.3950   44.9910 C   0  0  0  0  0  0  0  0  0  0  0  0
   34.7950   29.1310   44.8670 C   0  0  0  0  0  0  0  0  0  0  0  0
   35.7660   28.7650   45.2100 H   0  0  0  0  0  0  0  0  0  0  0  0
   34.7920   30.3880   44.2910 C   0  0  0  0  0  0  0  0  0  0  0  0
   35.7090   30.9550   44.1970 H   0  0  0  0  0  0  0  0  0  0  0  0
   33.5640   30.8680   43.8480 C   0  0  0  0  0  3  0  0  0  0  0  0
   32.3840   30.1570   43.9600 C   0  0  0  0  0  3  0  0  0  0  0  0
   30.3060   27.4190   44.8360 N   0  0  0  0  0  0  0  0  0  0  0  0
   31.2620   28.0890   44.7050 C   0  0  0  0  0  0  0  0  0  0  0  0
   34.9810   28.3950   49.4760 C   0  0  0  0  0  3  0  0  0  0  0  0
   34.2900   28.7560   48.4350 C   0  0  0  0  0  3  0  0  0  0  0  0
   37.3980   30.1580   51.5740 C   0  0  0  0  0  0  0  0  0  0  0  0
   38.0980   30.9280   50.6240 C   0  0  0  0  0  0  0  0  0  0  0  0
   37.7080   30.8140   49.2660 C   0  0  0  0  0  0  0  0  0  0  0  0
   36.6760   29.9640   48.9530 N   0  0  0  0  0  0  0  0  0  0  0  0
   36.0530   29.2570   49.9310 C   0  0  0  0  0  0  0  0  0  0  0  0
   36.4030   29.3500   51.2070 N   0  0  0  0  0  0  0  0  0  0  0  0
   37.7360   30.2830   52.5910 H   0  0  0  0  0  0  0  0  0  0  0  0
   38.9130   31.6060   50.8270 H   0  0  0  0  0  0  0  0  0  0  0  0
   38.3670   31.5670   48.2040 C   0  0  0  0  0  0  0  0  0  0  0  0
   38.5670   31.0240   46.9440 C   0  0  0  0  0  0  0  0  0  0  0  0
   39.2150   31.9930   46.1760 C   0  0  0  0  0  0  0  0  0  0  0  0
   39.3840   33.0790   46.9930 N   0  0  0  0  0  0  0  0  0  0  0  0
   38.8750   32.8100   48.1920 N   0  0  0  0  0  0  0  0  0  0  0  0
   38.3150   30.0550   46.5170 H   0  0  0  0  0  0  0  0  0  0  0  0
   39.5390   31.9460   45.1450 H   0  0  0  0  0  0  0  0  0  0  0  0
   39.8270   34.0080   46.7900 H   0  0  0  0  0  0  0  0  0  0  0  0
  1 25  1  0  0  0  0
  1  3  1  0  0  0  0
  2  1  1  0  0  0  0
  4  5  1  0  0  0  0
  4  1  1  0  0  0  0
  5 10  1  0  0  0  0
  6 11  1  0  0  0  0
  6  5  2  0  0  0  0
  7  6  1  0  0  0  0
  8  7  2  0  0  0  0
  8  9  1  0  0  0  0
  9  4  2  0  0  0  0
 12  7  1  0  0  0  0
 13  8  1  0  0  0  0
 14 23  1  0  0  0  0
 14 15  1  0  0  0  0
 15  9  1  0  0  0  0
 16 15  2  0  0  0  0
 16 17  1  0  0  0  0
 18 16  1  0  0  0  0
 19 18  1  0  0  0  0
 20 21  1  0  0  0  0
 20 18  2  0  0  0  0
 21 14  2  0  0  0  0
 23 22  3  0  0  0  0
 24 30  1  0  0  0  0
 25 24  2  0  0  0  0
 26 32  1  0  0  0  0
 27 33  1  0  0  0  0
 27 26  2  0  0  0  0
 28 27  1  0  0  0  0
 29 28  2  0  0  0  0
 29 30  1  0  0  0  0
 30 31  2  0  0  0  0
 31 26  1  0  0  0  0
 34 28  1  0  0  0  0
 35 34  1  0  0  0  0
 36 35  2  0  0  0  0
 36 37  1  0  0  0  0
 37 38  1  0  0  0  0
 38 34  2  0  0  0  0
 39 35  1  0  0  0  0
 40 36  1  0  0  0  0
 41 37  1  0  0  0  0
M  END
>  <minimizedAffinity>
-6.20146275

>  <minimizedRMSD>
0.639823735

$$$$
