
 OpenBabel03262523233D

 34 36  0  0  1  0  0  0  0  0999 V2000
   39.8480   32.8620   46.4640 C   0  0  0  0  0  0  0  0  0  0  0  0
   39.8330   32.0070   45.3480 C   0  0  0  0  0  0  0  0  0  0  0  0
   39.0500   30.8670   45.4110 C   0  0  0  0  0  0  0  0  0  0  0  0
   38.3560   30.6630   46.5520 N   0  0  0  0  0  0  0  0  0  0  0  0
   38.3690   31.4720   47.6110 C   0  0  0  0  0  0  0  0  0  0  0  0
   39.1190   32.5770   47.5660 N   0  0  0  0  0  0  0  0  0  0  0  0
   37.5920   31.1570   48.7660 N   0  0  0  0  0  0  0  0  0  0  0  0
   38.1950   31.3160   50.1000 C   0  0  0  0  0  0  0  0  0  0  0  0
   37.6660   30.3550   51.1130 C   0  0  0  0  0  0  0  0  0  0  0  0
   37.0930   29.1620   50.3660 C   0  0  0  0  0  0  0  0  0  0  0  0
   35.8450   29.6800   49.6790 C   0  0  0  0  0  0  0  0  0  0  0  0
   36.2450   30.7050   48.6640 C   0  0  2  0  0  0  0  0  0  0  0  0
   40.4450   33.7680   46.4660 H   0  0  0  0  0  0  0  0  0  0  0  0
   40.4390   32.3220   44.5330 H   0  0  0  0  0  0  0  0  0  0  0  0
   39.0470   30.2300   44.5610 H   0  0  0  0  0  0  0  0  0  0  0  0
   39.3020   31.2930   50.0130 H   0  0  0  0  0  0  0  0  0  0  0  0
   37.9270   32.3450   50.4220 H   0  0  0  0  0  0  0  0  0  0  0  0
   36.9540   30.7780   51.8220 H   0  0  0  0  0  0  0  0  0  0  0  0
   38.5490   29.9820   51.7090 H   0  0  0  0  0  0  0  0  0  0  0  0
   36.7780   28.4250   51.1110 H   0  0  0  0  0  0  0  0  0  0  0  0
   37.8650   28.8130   49.6800 H   0  0  0  0  0  0  0  0  0  0  0  0
   35.3700   28.7720   49.2250 H   0  0  0  0  0  0  0  0  0  0  0  0
   35.1840   30.0410   50.4830 H   0  0  0  0  0  0  0  0  0  0  0  0
   35.6330   31.6290   48.9610 H   0  0  0  0  0  0  0  0  0  0  0  0
   34.6990   29.3400   47.2780 C   0  0  0  0  0  0  0  0  0  0  0  0
   35.7820   30.2280   47.3600 C   0  0  0  0  0  0  0  0  0  0  0  0
   36.3180   30.5150   46.1240 C   0  0  0  0  0  0  0  0  0  0  0  0
   37.1670   31.1840   46.1020 H   0  0  0  0  0  0  0  0  0  0  0  0
   35.8400   29.9870   44.9410 C   0  0  0  0  0  0  0  0  0  0  0  0
   36.3390   30.2830   44.0250 H   0  0  0  0  0  0  0  0  0  0  0  0
   34.7720   29.1230   44.9330 C   0  0  0  0  0  0  0  0  0  0  0  0
   34.1790   28.7850   46.1280 C   0  0  0  0  0  0  0  0  0  0  0  0
   33.5460   28.6700   49.5450 N   0  0  0  0  0  0  0  0  0  0  0  0
   34.0570   28.9690   48.5310 C   0  0  0  0  0  0  0  0  0  0  0  0
  1 13  1  0  0  0  0
  1  6  1  0  0  0  0
  2  3  1  0  0  0  0
  2  1  2  0  0  0  0
  3  4  2  0  0  0  0
  4  5  1  0  0  0  0
  5  7  1  0  0  0  0
  6  5  2  0  0  0  0
  7  8  1  0  0  0  0
  8 17  1  0  0  0  0
  8  9  1  0  0  0  0
  9 19  1  0  0  0  0
  9 18  1  0  0  0  0
 10 20  1  0  0  0  0
 10  9  1  0  0  0  0
 11 10  1  0  0  0  0
 11 23  1  0  0  0  0
 12  7  1  0  0  0  0
 12 24  1  1  0  0  0
 12 11  1  0  0  0  0
 14  2  1  0  0  0  0
 15  3  1  0  0  0  0
 16  8  1  0  0  0  0
 21 10  1  0  0  0  0
 22 11  1  0  0  0  0
 25 26  1  0  0  0  0
 25 34  1  0  0  0  0
 26 12  1  0  0  0  0
 27 26  2  0  0  0  0
 28 27  1  0  0  0  0
 29 27  1  0  0  0  0
 30 29  1  0  0  0  0
 31 29  2  0  0  0  0
 31 32  1  0  0  0  0
 32 25  2  0  0  0  0
 34 33  3  0  0  0  0
M  END
>  <minimizedAffinity>
-6.2739954

>  <minimizedRMSD>
2.00772572

$$$$
