
 OpenBabel03272506563D

 21 22  0  0  0  0  0  0  0  0999 V2000
   38.1790   33.5250   49.2450 C   0  0  0  0  0  0  0  0  0  0  0  0
   39.1590   33.4140   48.2320 C   0  0  0  0  0  0  0  0  0  0  0  0
   39.1280   32.2170   47.5010 C   0  0  0  0  0  0  0  0  0  0  0  0
   38.1950   31.2640   47.7910 N   0  0  0  0  0  0  0  0  0  0  0  0
   37.2890   31.4340   48.7710 C   0  0  0  0  0  0  0  0  0  0  0  0
   37.2650   32.5630   49.5120 N   0  0  0  0  0  0  0  0  0  0  0  0
   38.2280   34.4720   49.8000 H   0  0  0  0  0  0  0  0  0  0  0  0
   39.8680   32.1050   46.7180 H   0  0  0  0  0  0  0  0  0  0  0  0
   35.6040   29.7460   48.0310 C   0  0  0  0  0  0  0  0  0  0  0  0
   36.3330   30.3590   49.0070 C   0  0  0  0  0  0  0  0  0  0  0  0
   36.1420   29.9240   50.3000 C   0  0  0  0  0  0  0  0  0  0  0  0
   36.6870   30.3620   51.1470 H   0  0  0  0  0  0  0  0  0  0  0  0
   35.2610   28.9140   50.6370 C   0  0  0  0  0  0  0  0  0  0  0  0
   35.1320   28.5890   51.6800 H   0  0  0  0  0  0  0  0  0  0  0  0
   34.5220   28.2910   49.6500 C   0  0  0  0  0  0  0  0  0  0  0  0
   34.7170   28.7340   48.3440 C   0  0  0  0  0  0  0  0  0  0  0  0
   35.9420   30.5400   45.5900 N   0  0  0  0  0  0  0  0  0  0  0  0
   35.7930   30.1900   46.6780 C   0  0  0  0  0  0  0  0  0  0  0  0
   40.0910   34.4590   48.0000 N   0  0  0  0  0  0  0  0  0  0  0  0
   41.0840   34.4190   48.2490 H   0  0  0  0  0  0  0  0  0  0  0  0
   39.7320   35.3310   47.5390 H   0  0  0  0  0  0  0  0  0  0  0  0
  1  6  1  0  0  0  0
  1  7  1  0  0  0  0
  2  1  2  0  0  0  0
  3  4  2  0  0  0  0
  3  2  1  0  0  0  0
  4  5  1  0  0  0  0
  5 10  1  0  0  0  0
  5  6  2  0  0  0  0
  8  3  1  0  0  0  0
  9 16  2  0  0  0  0
  9 10  1  0  0  0  0
 10 11  2  0  0  0  0
 11 13  1  0  0  0  0
 11 12  1  0  0  0  0
 13 14  1  0  0  0  0
 15 13  2  0  0  0  0
 16 15  1  0  0  0  0
 17 18  3  0  0  0  0
 18  9  1  0  0  0  0
 19  2  1  0  0  0  0
 19 20  1  0  0  0  0
 21 19  1  0  0  0  0
M  END
>  <minimizedAffinity>
-5.2242136

>  <minimizedRMSD>
4.54631567

$$$$
