
 OpenBabel03272509213D

 47 51  0  0  0  0  0  0  0  0999 V2000
   39.8860   31.9930   46.3530 O   0  0  0  0  0  0  0  0  0  0  0  0
   39.9270   30.7810   44.1640 C   0  0  0  0  0  0  0  0  0  0  0  0
   39.4930   31.7320   45.0660 C   0  0  0  0  0  0  0  0  0  0  0  0
   38.4830   32.6190   44.6780 C   0  0  0  0  0  0  0  0  0  0  0  0
   37.9240   32.5400   43.3970 C   0  0  0  0  0  0  0  0  0  0  0  0
   36.9750   33.2140   42.7290 N   0  0  0  0  0  0  0  0  0  0  0  0
   36.8190   32.7210   41.4870 C   0  0  0  0  0  0  0  0  0  0  0  0
   37.7040   31.6980   41.3670 N   0  0  0  0  0  0  0  0  0  0  0  0
   38.3890   31.5730   42.5260 C   0  0  0  0  0  0  0  0  0  0  0  0
   39.3830   30.6970   42.9020 C   0  0  0  0  0  0  0  0  0  0  0  0
   40.6990   30.1620   44.5710 H   0  0  0  0  0  0  0  0  0  0  0  0
   38.0410   33.4120   45.2680 H   0  0  0  0  0  0  0  0  0  0  0  0
   36.4370   33.9980   43.1090 H   0  0  0  0  0  0  0  0  0  0  0  0
   36.1330   33.0680   40.7470 H   0  0  0  0  0  0  0  0  0  0  0  0
   39.3280   28.4340   41.7600 C   0  0  0  0  0  0  0  0  0  0  0  0
   39.9020   29.6620   42.0140 C   0  0  0  0  0  0  0  0  0  0  0  0
   41.0910   30.0310   41.4060 C   0  0  0  0  0  0  0  0  0  0  0  0
   41.6030   30.9920   41.5610 H   0  0  0  0  0  0  0  0  0  0  0  0
   41.7390   29.1730   40.5220 C   0  0  0  0  0  0  0  0  0  0  0  0
   42.6750   29.4690   40.0460 H   0  0  0  0  0  0  0  0  0  0  0  0
   41.1440   27.9310   40.2750 C   0  0  0  0  0  3  0  0  0  0  0  0
   39.9560   27.5690   40.8860 C   0  0  0  0  0  3  0  0  0  0  0  0
   37.1040   27.9210   42.9750 N   0  0  0  0  0  0  0  0  0  0  0  0
   38.0970   28.1540   42.4420 C   0  0  0  0  0  0  0  0  0  0  0  0
   38.1030   31.3890   47.8860 C   0  0  0  0  0  0  0  0  0  0  0  0
   37.2760   31.5820   48.9750 C   0  0  0  0  0  0  0  0  0  0  0  0
   37.5120   32.7770   49.6640 C   0  0  0  0  0  0  0  0  0  0  0  0
   38.5090   33.6850   49.2640 C   0  0  0  0  0  0  0  0  0  0  0  0
   39.2910   33.3820   48.1380 C   0  0  0  0  0  0  0  0  0  0  0  0
   39.0680   32.2030   47.4460 C   0  0  0  0  0  0  0  0  0  0  0  0
   36.9000   32.9860   50.5230 H   0  0  0  0  0  0  0  0  0  0  0  0
   38.6490   34.5950   49.8340 H   0  0  0  0  0  0  0  0  0  0  0  0
   40.0490   34.1130   47.8660 H   0  0  0  0  0  0  0  0  0  0  0  0
   35.1430   30.4570   48.5900 C   0  0  0  0  0  0  0  0  0  0  0  0
   36.2650   30.6640   49.3850 C   0  0  0  0  0  0  0  0  0  0  0  0
   36.3580   29.9430   50.5890 C   0  0  0  0  0  0  0  0  0  0  0  0
   35.3570   29.0890   50.9110 N   0  0  0  0  0  0  0  0  0  0  0  0
   34.2720   28.9200   50.0950 C   0  0  0  0  0  0  0  0  0  0  0  0
   34.1730   29.5980   48.9500 N   0  0  0  0  0  0  0  0  0  0  0  0
   34.9950   30.9680   47.6560 H   0  0  0  0  0  0  0  0  0  0  0  0
   33.5930   28.2030   50.5240 H   0  0  0  0  0  0  0  0  0  0  0  0
   37.5350   30.1240   51.4780 C   0  0  0  0  0  0  0  0  0  0  0  0
   38.0480   31.0520   51.1840 H   0  0  0  0  0  0  0  0  0  0  0  0
   38.2310   29.2860   51.2640 H   0  0  0  0  0  0  0  0  0  0  0  0
   37.2320   30.0830   52.5310 H   0  0  0  0  0  0  0  0  0  0  0  0
   37.9460   30.2220   47.1300 O   0  0  0  0  0  0  0  0  0  0  0  0
   37.0630   30.1080   46.6560 H   0  0  0  0  0  0  0  0  0  0  0  0
  1 30  1  0  0  0  0
  2 11  1  0  0  0  0
  2  3  1  0  0  0  0
  3  1  1  0  0  0  0
  4  3  2  0  0  0  0
  4 12  1  0  0  0  0
  5  4  1  0  0  0  0
  6 13  1  0  0  0  0
  6  5  1  0  0  0  0
  7  6  1  0  0  0  0
  8  7  2  0  0  0  0
  8  9  1  0  0  0  0
  9 10  1  0  0  0  0
  9  5  2  0  0  0  0
 10  2  2  0  0  0  0
 14  7  1  0  0  0  0
 15 16  1  0  0  0  0
 15 24  1  0  0  0  0
 16 10  1  0  0  0  0
 17 18  1  0  0  0  0
 17 16  2  0  0  0  0
 19 17  1  0  0  0  0
 20 19  1  0  0  0  0
 21 19  2  0  0  0  0
 21 22  1  0  0  0  0
 22 15  2  0  0  0  0
 24 23  3  0  0  0  0
 25 26  1  0  0  0  0
 26 35  1  0  0  0  0
 26 27  2  0  0  0  0
 27 31  1  0  0  0  0
 28 27  1  0  0  0  0
 28 32  1  0  0  0  0
 29 28  2  0  0  0  0
 30 25  2  0  0  0  0
 30 29  1  0  0  0  0
 33 29  1  0  0  0  0
 34 39  2  0  0  0  0
 34 35  1  0  0  0  0
 35 36  2  0  0  0  0
 36 37  1  0  0  0  0
 36 42  1  0  0  0  0
 38 41  1  0  0  0  0
 38 37  2  0  0  0  0
 39 38  1  0  0  0  0
 40 34  1  0  0  0  0
 42 45  1  0  0  0  0
 43 42  1  0  0  0  0
 44 42  1  0  0  0  0
 46 25  1  0  0  0  0
 47 46  1  0  0  0  0
M  END
>  <minimizedAffinity>
-7.39383173

>  <minimizedRMSD>
1.02513337

$$$$
