
 OpenBabel03272503573D

 35 38  0  0  0  0  0  0  0  0999 V2000
   36.3190   27.6620   31.7700 C   0  0  0  0  0  0  0  0  0  0  0  0
   35.6260   28.7240   32.3460 C   0  0  0  0  0  0  0  0  0  0  0  0
   35.7820   28.8930   33.6990 C   0  0  0  0  0  0  0  0  0  0  0  0
   36.5780   28.0380   34.3490 N   0  0  0  0  0  0  0  0  0  0  0  0
   37.2500   27.0240   33.8360 C   0  0  0  0  0  0  0  0  0  0  0  0
   37.0720   26.8910   32.5280 N   0  0  0  0  0  0  0  0  0  0  0  0
   35.0350   29.3780   31.7760 H   0  0  0  0  0  0  0  0  0  0  0  0
   38.1500   26.0310   34.4070 C   0  0  0  0  0  0  0  0  0  0  0  0
   37.7010   24.9160   35.0380 N   0  0  0  0  0  0  0  0  0  0  0  0
   38.5430   24.0130   35.5390 C   0  0  0  0  0  0  0  0  0  0  0  0
   39.8760   24.1030   35.4760 N   0  0  0  0  0  0  0  0  0  0  0  0
   40.3950   25.1870   34.8620 C   0  0  0  0  0  0  0  0  0  0  0  0
   41.7570   25.2810   34.7950 C   0  0  0  0  0  0  0  0  0  0  0  0
   42.3370   26.3690   34.1780 C   0  0  0  0  0  0  0  0  0  0  0  0
   41.4780   27.3230   33.6490 C   0  0  0  0  0  0  0  0  0  0  0  0
   40.1180   27.1770   33.7450 C   0  0  0  0  0  0  0  0  0  0  0  0
   39.5170   26.1060   34.3520 C   0  0  0  0  0  0  0  0  0  0  0  0
   38.1670   23.1050   36.0530 H   0  0  0  0  0  0  0  0  0  0  0  0
   42.3880   24.5020   35.2270 H   0  0  0  0  0  0  0  0  0  0  0  0
   43.4030   26.4180   34.1390 H   0  0  0  0  0  0  0  0  0  0  0  0
   41.9880   28.1610   33.1730 H   0  0  0  0  0  0  0  0  0  0  0  0
   39.5880   27.9990   33.2930 H   0  0  0  0  0  0  0  0  0  0  0  0
   33.9130   30.2630   34.7100 C   0  0  0  0  0  0  0  0  0  0  0  0
   35.2190   29.9220   34.5290 C   0  0  0  0  0  0  0  0  0  0  0  0
   36.0550   30.7100   35.3170 C   0  0  0  0  0  0  0  0  0  0  0  0
   37.1300   30.5600   35.2880 H   0  0  0  0  0  0  0  0  0  0  0  0
   35.6420   31.7040   36.1700 C   0  0  0  0  0  0  0  0  0  0  0  0
   36.3480   32.2770   36.7510 H   0  0  0  0  0  0  0  0  0  0  0  0
   34.3130   31.9910   36.2980 C   0  0  0  0  0  3  0  0  0  0  0  0
   33.4340   31.2470   35.5460 C   0  0  0  0  0  3  0  0  0  0  0  0
   32.0490   28.9120   33.5050 N   0  0  0  0  0  0  0  0  0  0  0  0
   32.8930   29.5220   34.0370 C   0  0  0  0  0  0  0  0  0  0  0  0
   36.2290   27.3840   30.3500 N   0  0  0  0  0  0  0  0  0  0  0  0
   35.3590   27.7070   29.8840 H   0  0  0  0  0  0  0  0  0  0  0  0
   37.0050   26.9000   29.8990 H   0  0  0  0  0  0  0  0  0  0  0  0
  1  2  2  0  0  0  0
  1  6  1  0  0  0  0
  2  3  1  0  0  0  0
  3  4  2  0  0  0  0
  3 24  1  0  0  0  0
  5  4  1  0  0  0  0
  5  8  1  0  0  0  0
  6  5  2  0  0  0  0
  7  2  1  0  0  0  0
  8  9  1  0  0  0  0
  9 10  2  0  0  0  0
 10 18  1  0  0  0  0
 11 10  1  0  0  0  0
 12 11  2  0  0  0  0
 13 12  1  0  0  0  0
 13 19  1  0  0  0  0
 14 13  2  0  0  0  0
 15 16  2  0  0  0  0
 15 14  1  0  0  0  0
 16 17  1  0  0  0  0
 17  8  2  0  0  0  0
 17 12  1  0  0  0  0
 20 14  1  0  0  0  0
 21 15  1  0  0  0  0
 22 16  1  0  0  0  0
 23 30  1  0  0  0  0
 24 23  2  0  0  0  0
 24 25  1  0  0  0  0
 25 27  2  0  0  0  0
 26 25  1  0  0  0  0
 27 29  1  0  0  0  0
 27 28  1  0  0  0  0
 30 29  2  0  0  0  0
 31 32  3  0  0  0  0
 32 23  1  0  0  0  0
 33  1  1  0  0  0  0
 34 33  1  0  0  0  0
 35 33  1  0  0  0  0
M  END
>  <minimizedAffinity>
-6.42947245

$$$$

 OpenBabel03272503573D

 35 38  0  0  0  0  0  0  0  0999 V2000
   36.1890   29.9990   31.3310 C   0  0  0  0  0  0  0  0  0  0  0  0
   35.4950   30.7250   32.2970 C   0  0  0  0  0  0  0  0  0  0  0  0
   35.3980   30.1480   33.5390 C   0  0  0  0  0  0  0  0  0  0  0  0
   35.9710   28.9550   33.7220 N   0  0  0  0  0  0  0  0  0  0  0  0
   36.6350   28.2410   32.8320 C   0  0  0  0  0  0  0  0  0  0  0  0
   36.7060   28.8290   31.6440 N   0  0  0  0  0  0  0  0  0  0  0  0
   35.0890   31.6710   32.0990 H   0  0  0  0  0  0  0  0  0  0  0  0
   37.3120   26.9530   32.8870 C   0  0  0  0  0  0  0  0  0  0  0  0
   38.4940   26.7770   33.5320 N   0  0  0  0  0  0  0  0  0  0  0  0
   39.0880   25.5860   33.5830 C   0  0  0  0  0  0  0  0  0  0  0  0
   38.6020   24.4710   33.0260 N   0  0  0  0  0  0  0  0  0  0  0  0
   37.4280   24.5710   32.3670 C   0  0  0  0  0  0  0  0  0  0  0  0
   36.9280   23.4330   31.7970 C   0  0  0  0  0  0  0  0  0  0  0  0
   35.7310   23.4810   31.1130 C   0  0  0  0  0  0  0  0  0  0  0  0
   35.0950   24.7130   31.0470 C   0  0  0  0  0  0  0  0  0  0  0  0
   35.6440   25.8230   31.6380 C   0  0  0  0  0  0  0  0  0  0  0  0
   36.8300   25.8020   32.3240 C   0  0  0  0  0  0  0  0  0  0  0  0
   40.0540   25.4520   34.1120 H   0  0  0  0  0  0  0  0  0  0  0  0
   37.4680   22.4890   31.8800 H   0  0  0  0  0  0  0  0  0  0  0  0
   35.3630   22.5780   30.6780 H   0  0  0  0  0  0  0  0  0  0  0  0
   34.1540   24.6960   30.4960 H   0  0  0  0  0  0  0  0  0  0  0  0
   35.0370   26.7010   31.4950 H   0  0  0  0  0  0  0  0  0  0  0  0
   33.5050   30.5350   35.1690 C   0  0  0  0  0  0  0  0  0  0  0  0
   34.7790   30.6920   34.7170 C   0  0  0  0  0  0  0  0  0  0  0  0
   35.5270   31.4780   35.5910 C   0  0  0  0  0  0  0  0  0  0  0  0
   36.5670   31.6960   35.3720 H   0  0  0  0  0  0  0  0  0  0  0  0
   35.0620   32.0330   36.7580 C   0  0  0  0  0  0  0  0  0  0  0  0
   35.7000   32.6340   37.3880 H   0  0  0  0  0  0  0  0  0  0  0  0
   33.7690   31.8330   37.1470 C   0  0  0  0  0  3  0  0  0  0  0  0
   32.9780   31.0640   36.3270 C   0  0  0  0  0  3  0  0  0  0  0  0
   31.8630   29.0060   33.8580 N   0  0  0  0  0  0  0  0  0  0  0  0
   32.5980   29.7030   34.4430 C   0  0  0  0  0  0  0  0  0  0  0  0
   36.3540   30.5070   29.9830 N   0  0  0  0  0  0  0  0  0  0  0  0
   35.6240   31.1720   29.6610 H   0  0  0  0  0  0  0  0  0  0  0  0
   37.1550   30.1900   29.4390 H   0  0  0  0  0  0  0  0  0  0  0  0
  1  6  2  0  0  0  0
  1  2  1  0  0  0  0
  2  3  2  0  0  0  0
  3  4  1  0  0  0  0
  3 24  1  0  0  0  0
  5  8  1  0  0  0  0
  5  4  2  0  0  0  0
  6  5  1  0  0  0  0
  7  2  1  0  0  0  0
  8  9  1  0  0  0  0
  9 10  2  0  0  0  0
 10 18  1  0  0  0  0
 11 10  1  0  0  0  0
 12 11  2  0  0  0  0
 13 19  1  0  0  0  0
 13 12  1  0  0  0  0
 14 13  2  0  0  0  0
 15 14  1  0  0  0  0
 15 16  2  0  0  0  0
 16 17  1  0  0  0  0
 17 12  1  0  0  0  0
 17  8  2  0  0  0  0
 20 14  1  0  0  0  0
 21 15  1  0  0  0  0
 22 16  1  0  0  0  0
 23 30  1  0  0  0  0
 24 23  2  0  0  0  0
 24 25  1  0  0  0  0
 25 27  2  0  0  0  0
 26 25  1  0  0  0  0
 27 29  1  0  0  0  0
 27 28  1  0  0  0  0
 30 29  2  0  0  0  0
 31 32  3  0  0  0  0
 32 23  1  0  0  0  0
 33  1  1  0  0  0  0
 34 33  1  0  0  0  0
 35 33  1  0  0  0  0
M  END
>  <minimizedAffinity>
-6.33433151

$$$$

 OpenBabel03272503573D

 35 38  0  0  0  0  0  0  0  0999 V2000
   36.1020   29.9000   31.3370 C   0  0  0  0  0  0  0  0  0  0  0  0
   35.4790   30.6620   32.3220 C   0  0  0  0  0  0  0  0  0  0  0  0
   35.2860   30.0500   33.5350 C   0  0  0  0  0  0  0  0  0  0  0  0
   35.7070   28.7900   33.6750 N   0  0  0  0  0  0  0  0  0  0  0  0
   36.3010   28.0400   32.7660 C   0  0  0  0  0  0  0  0  0  0  0  0
   36.4680   28.6630   31.6070 N   0  0  0  0  0  0  0  0  0  0  0  0
   35.1940   31.6580   32.1590 H   0  0  0  0  0  0  0  0  0  0  0  0
   36.8180   26.6780   32.7750 C   0  0  0  0  0  0  0  0  0  0  0  0
   36.2560   25.6790   32.0480 N   0  0  0  0  0  0  0  0  0  0  0  0
   36.7550   24.4430   32.0600 C   0  0  0  0  0  0  0  0  0  0  0  0
   37.8280   24.0660   32.7640 N   0  0  0  0  0  0  0  0  0  0  0  0
   38.4400   25.0080   33.5120 C   0  0  0  0  0  0  0  0  0  0  0  0
   39.5370   24.6260   34.2320 C   0  0  0  0  0  0  0  0  0  0  0  0
   40.1990   25.5510   35.0120 C   0  0  0  0  0  0  0  0  0  0  0  0
   39.6950   26.8450   35.0150 C   0  0  0  0  0  0  0  0  0  0  0  0
   38.5890   27.1730   34.2720 C   0  0  0  0  0  0  0  0  0  0  0  0
   37.9150   26.2730   33.4890 C   0  0  0  0  0  0  0  0  0  0  0  0
   36.2880   23.6330   31.4630 H   0  0  0  0  0  0  0  0  0  0  0  0
   39.8930   23.5950   34.1940 H   0  0  0  0  0  0  0  0  0  0  0  0
   41.0530   25.2260   35.5640 H   0  0  0  0  0  0  0  0  0  0  0  0
   40.2540   27.5350   35.6460 H   0  0  0  0  0  0  0  0  0  0  0  0
   38.3190   28.2090   34.3820 H   0  0  0  0  0  0  0  0  0  0  0  0
   33.4440   30.4960   35.2080 C   0  0  0  0  0  0  0  0  0  0  0  0
   34.7110   30.6150   34.7250 C   0  0  0  0  0  0  0  0  0  0  0  0
   35.5010   31.3830   35.5790 C   0  0  0  0  0  0  0  0  0  0  0  0
   36.5410   31.5710   35.3340 H   0  0  0  0  0  0  0  0  0  0  0  0
   35.0800   31.9540   36.7540 C   0  0  0  0  0  0  0  0  0  0  0  0
   35.7490   32.5390   37.3670 H   0  0  0  0  0  0  0  0  0  0  0  0
   33.7910   31.7920   37.1740 C   0  0  0  0  0  3  0  0  0  0  0  0
   32.9590   31.0420   36.3760 C   0  0  0  0  0  3  0  0  0  0  0  0
   31.7370   29.0150   33.9250 N   0  0  0  0  0  0  0  0  0  0  0  0
   32.4960   29.6870   34.5070 C   0  0  0  0  0  0  0  0  0  0  0  0
   36.3570   30.4390   30.0150 N   0  0  0  0  0  0  0  0  0  0  0  0
   35.7200   31.2010   29.7110 H   0  0  0  0  0  0  0  0  0  0  0  0
   37.1270   30.0510   29.4710 H   0  0  0  0  0  0  0  0  0  0  0  0
  1  6  2  0  0  0  0
  1  2  1  0  0  0  0
  2  3  2  0  0  0  0
  3  4  1  0  0  0  0
  3 24  1  0  0  0  0
  5  8  1  0  0  0  0
  5  4  2  0  0  0  0
  6  5  1  0  0  0  0
  7  2  1  0  0  0  0
  8 17  1  0  0  0  0
  9 10  1  0  0  0  0
  9  8  2  0  0  0  0
 10 11  2  0  0  0  0
 11 12  1  0  0  0  0
 12 13  1  0  0  0  0
 13 14  2  0  0  0  0
 14 15  1  0  0  0  0
 14 20  1  0  0  0  0
 15 21  1  0  0  0  0
 16 22  1  0  0  0  0
 16 15  2  0  0  0  0
 17 12  2  0  0  0  0
 17 16  1  0  0  0  0
 18 10  1  0  0  0  0
 19 13  1  0  0  0  0
 23 30  1  0  0  0  0
 24 23  2  0  0  0  0
 24 25  1  0  0  0  0
 25 27  2  0  0  0  0
 26 25  1  0  0  0  0
 27 29  1  0  0  0  0
 27 28  1  0  0  0  0
 30 29  2  0  0  0  0
 31 32  3  0  0  0  0
 32 23  1  0  0  0  0
 33  1  1  0  0  0  0
 34 33  1  0  0  0  0
 35 33  1  0  0  0  0
M  END
>  <minimizedAffinity>
-6.31263876

$$$$

 OpenBabel03272503573D

 35 38  0  0  0  0  0  0  0  0999 V2000
   36.5790   24.4720   31.8920 C   0  0  0  0  0  0  0  0  0  0  0  0
   36.0880   25.7760   31.8820 C   0  0  0  0  0  0  0  0  0  0  0  0
   36.6660   26.6510   32.7670 C   0  0  0  0  0  0  0  0  0  0  0  0
   37.6420   26.1920   33.5560 N   0  0  0  0  0  0  0  0  0  0  0  0
   38.1310   24.9670   33.5910 C   0  0  0  0  0  0  0  0  0  0  0  0
   37.5470   24.1490   32.7250 N   0  0  0  0  0  0  0  0  0  0  0  0
   35.3360   26.0830   31.2190 H   0  0  0  0  0  0  0  0  0  0  0  0
   39.1830   24.3330   34.3740 C   0  0  0  0  0  0  0  0  0  0  0  0
   40.4050   24.0450   33.8570 N   0  0  0  0  0  0  0  0  0  0  0  0
   41.3590   23.4790   34.5970 C   0  0  0  0  0  0  0  0  0  0  0  0
   41.2200   23.1450   35.8840 N   0  0  0  0  0  0  0  0  0  0  0  0
   40.0300   23.4020   36.4660 C   0  0  0  0  0  0  0  0  0  0  0  0
   39.8860   23.0630   37.7820 C   0  0  0  0  0  0  0  0  0  0  0  0
   38.6890   23.3050   38.4230 C   0  0  0  0  0  0  0  0  0  0  0  0
   37.6820   23.8930   37.6720 C   0  0  0  0  0  0  0  0  0  0  0  0
   37.8820   24.2130   36.3520 C   0  0  0  0  0  0  0  0  0  0  0  0
   39.0610   23.9840   35.6930 C   0  0  0  0  0  0  0  0  0  0  0  0
   42.3540   23.2480   34.1650 H   0  0  0  0  0  0  0  0  0  0  0  0
   40.7110   22.6020   38.3290 H   0  0  0  0  0  0  0  0  0  0  0  0
   38.6040   23.0300   39.4520 H   0  0  0  0  0  0  0  0  0  0  0  0
   36.7580   24.0620   38.2250 H   0  0  0  0  0  0  0  0  0  0  0  0
   37.0090   24.6570   35.9050 H   0  0  0  0  0  0  0  0  0  0  0  0
   36.4140   29.0520   32.0140 C   0  0  0  0  0  0  0  0  0  0  0  0
   36.3810   28.0500   32.9350 C   0  0  0  0  0  0  0  0  0  0  0  0
   35.9730   28.5280   34.1790 C   0  0  0  0  0  0  0  0  0  0  0  0
   35.8930   27.8500   35.0220 H   0  0  0  0  0  0  0  0  0  0  0  0
   35.6460   29.8310   34.4630 C   0  0  0  0  0  0  0  0  0  0  0  0
   35.3390   30.1310   35.4530 H   0  0  0  0  0  0  0  0  0  0  0  0
   35.7060   30.7830   33.4860 C   0  0  0  0  0  3  0  0  0  0  0  0
   36.1010   30.3750   32.2340 C   0  0  0  0  0  3  0  0  0  0  0  0
   37.0220   28.5210   29.5430 N   0  0  0  0  0  0  0  0  0  0  0  0
   36.7450   28.7490   30.6570 C   0  0  0  0  0  0  0  0  0  0  0  0
   36.0450   23.4590   31.0030 N   0  0  0  0  0  0  0  0  0  0  0  0
   35.0660   23.6080   30.6890 H   0  0  0  0  0  0  0  0  0  0  0  0
   36.6430   22.6770   30.7410 H   0  0  0  0  0  0  0  0  0  0  0  0
  1  6  1  0  0  0  0
  2  1  2  0  0  0  0
  2  3  1  0  0  0  0
  3 24  1  0  0  0  0
  3  4  2  0  0  0  0
  4  5  1  0  0  0  0
  5  8  1  0  0  0  0
  6  5  2  0  0  0  0
  7  2  1  0  0  0  0
  8 17  1  0  0  0  0
  9  8  2  0  0  0  0
  9 10  1  0  0  0  0
 10 11  2  0  0  0  0
 11 12  1  0  0  0  0
 12 13  1  0  0  0  0
 13 19  1  0  0  0  0
 13 14  2  0  0  0  0
 14 20  1  0  0  0  0
 15 21  1  0  0  0  0
 15 14  1  0  0  0  0
 16 15  2  0  0  0  0
 17 16  1  0  0  0  0
 17 12  2  0  0  0  0
 18 10  1  0  0  0  0
 22 16  1  0  0  0  0
 23 30  2  0  0  0  0
 23 24  1  0  0  0  0
 24 25  2  0  0  0  0
 25 27  1  0  0  0  0
 25 26  1  0  0  0  0
 27 28  1  0  0  0  0
 29 27  2  0  0  0  0
 30 29  1  0  0  0  0
 31 32  3  0  0  0  0
 32 23  1  0  0  0  0
 33  1  1  0  0  0  0
 34 33  1  0  0  0  0
 35 33  1  0  0  0  0
M  END
>  <minimizedAffinity>
-6.2758708

$$$$

 OpenBabel03272503573D

 35 38  0  0  0  0  0  0  0  0999 V2000
   35.5690   30.5120   31.5480 C   0  0  0  0  0  0  0  0  0  0  0  0
   34.9930   31.2190   32.6000 C   0  0  0  0  0  0  0  0  0  0  0  0
   34.8870   30.5540   33.7960 C   0  0  0  0  0  0  0  0  0  0  0  0
   35.3400   29.2980   33.8560 N   0  0  0  0  0  0  0  0  0  0  0  0
   35.8910   28.5990   32.8810 C   0  0  0  0  0  0  0  0  0  0  0  0
   35.9750   29.2740   31.7420 N   0  0  0  0  0  0  0  0  0  0  0  0
   34.6790   32.2150   32.4970 H   0  0  0  0  0  0  0  0  0  0  0  0
   36.4340   27.2500   32.8020 C   0  0  0  0  0  0  0  0  0  0  0  0
   36.1550   26.4100   31.7720 N   0  0  0  0  0  0  0  0  0  0  0  0
   36.6750   25.1850   31.7120 C   0  0  0  0  0  0  0  0  0  0  0  0
   37.5020   24.6670   32.6270 N   0  0  0  0  0  0  0  0  0  0  0  0
   37.8250   25.4470   33.6800 C   0  0  0  0  0  0  0  0  0  0  0  0
   38.6710   24.9210   34.6170 C   0  0  0  0  0  0  0  0  0  0  0  0
   39.0320   25.6760   35.7120 C   0  0  0  0  0  0  0  0  0  0  0  0
   38.5010   26.9560   35.7960 C   0  0  0  0  0  0  0  0  0  0  0  0
   37.6560   27.4330   34.8260 C   0  0  0  0  0  0  0  0  0  0  0  0
   37.2820   26.7030   33.7280 C   0  0  0  0  0  0  0  0  0  0  0  0
   36.4400   24.5060   30.8670 H   0  0  0  0  0  0  0  0  0  0  0  0
   39.0620   23.9080   34.5030 H   0  0  0  0  0  0  0  0  0  0  0  0
   39.6950   25.2410   36.4280 H   0  0  0  0  0  0  0  0  0  0  0  0
   38.8180   27.5090   36.6790 H   0  0  0  0  0  0  0  0  0  0  0  0
   37.3250   28.4360   35.0330 H   0  0  0  0  0  0  0  0  0  0  0  0
   34.8790   32.0260   35.8510 C   0  0  0  0  0  0  0  0  0  0  0  0
   34.3730   31.0560   35.0410 C   0  0  0  0  0  0  0  0  0  0  0  0
   33.1760   30.5560   35.5480 C   0  0  0  0  0  0  0  0  0  0  0  0
   32.6440   29.7750   35.0150 H   0  0  0  0  0  0  0  0  0  0  0  0
   32.5680   30.9690   36.7080 C   0  0  0  0  0  0  0  0  0  0  0  0
   31.6380   30.5350   37.0410 H   0  0  0  0  0  0  0  0  0  0  0  0
   33.1370   31.9480   37.4710 C   0  0  0  0  0  3  0  0  0  0  0  0
   34.3220   32.4850   37.0240 C   0  0  0  0  0  3  0  0  0  0  0  0
   37.0600   33.2550   35.1530 N   0  0  0  0  0  0  0  0  0  0  0  0
   36.0730   32.7120   35.4670 C   0  0  0  0  0  0  0  0  0  0  0  0
   35.7320   31.1120   30.2370 N   0  0  0  0  0  0  0  0  0  0  0  0
   35.0630   31.8710   30.0050 H   0  0  0  0  0  0  0  0  0  0  0  0
   36.4750   30.7630   29.6320 H   0  0  0  0  0  0  0  0  0  0  0  0
  1  6  2  0  0  0  0
  1  2  1  0  0  0  0
  2  3  2  0  0  0  0
  3  4  1  0  0  0  0
  3 24  1  0  0  0  0
  5  4  2  0  0  0  0
  6  5  1  0  0  0  0
  7  2  1  0  0  0  0
  8  5  1  0  0  0  0
  8 17  1  0  0  0  0
  9  8  2  0  0  0  0
 10  9  1  0  0  0  0
 10 11  2  0  0  0  0
 11 12  1  0  0  0  0
 12 17  2  0  0  0  0
 12 13  1  0  0  0  0
 13 14  2  0  0  0  0
 14 15  1  0  0  0  0
 14 20  1  0  0  0  0
 15 21  1  0  0  0  0
 16 22  1  0  0  0  0
 16 15  2  0  0  0  0
 17 16  1  0  0  0  0
 18 10  1  0  0  0  0
 19 13  1  0  0  0  0
 23 30  1  0  0  0  0
 24 25  1  0  0  0  0
 24 23  2  0  0  0  0
 25 27  2  0  0  0  0
 26 25  1  0  0  0  0
 27 28  1  0  0  0  0
 27 29  1  0  0  0  0
 30 29  2  0  0  0  0
 31 32  3  0  0  0  0
 32 23  1  0  0  0  0
 33  1  1  0  0  0  0
 34 33  1  0  0  0  0
 35 33  1  0  0  0  0
M  END
>  <minimizedAffinity>
-6.25509691

$$$$

 OpenBabel03272503573D

 35 38  0  0  0  0  0  0  0  0999 V2000
   36.1900   29.7910   30.4520 C   0  0  0  0  0  0  0  0  0  0  0  0
   36.6060   28.4610   30.4400 C   0  0  0  0  0  0  0  0  0  0  0  0
   36.0780   27.6490   31.4120 C   0  0  0  0  0  0  0  0  0  0  0  0
   35.2180   28.1890   32.2800 N   0  0  0  0  0  0  0  0  0  0  0  0
   34.8010   29.4410   32.3200 C   0  0  0  0  0  0  0  0  0  0  0  0
   35.3340   30.1960   31.3680 N   0  0  0  0  0  0  0  0  0  0  0  0
   37.2660   28.0910   29.7150 H   0  0  0  0  0  0  0  0  0  0  0  0
   33.8740   30.1590   33.1840 C   0  0  0  0  0  0  0  0  0  0  0  0
   32.5470   30.2540   32.9100 N   0  0  0  0  0  0  0  0  0  0  0  0
   31.7140   30.9030   33.7230 C   0  0  0  0  0  0  0  0  0  0  0  0
   32.0800   31.5090   34.8580 N   0  0  0  0  0  0  0  0  0  0  0  0
   33.3860   31.4550   35.1940 C   0  0  0  0  0  0  0  0  0  0  0  0
   33.7640   32.0730   36.3530 C   0  0  0  0  0  0  0  0  0  0  0  0
   35.0870   32.0470   36.7420 C   0  0  0  0  0  0  0  0  0  0  0  0
   35.9730   31.3770   35.9090 C   0  0  0  0  0  0  0  0  0  0  0  0
   35.5380   30.7740   34.7560 C   0  0  0  0  0  0  0  0  0  0  0  0
   34.2300   30.7850   34.3480 C   0  0  0  0  0  0  0  0  0  0  0  0
   30.6320   30.9750   33.4910 H   0  0  0  0  0  0  0  0  0  0  0  0
   33.0260   32.5870   36.9730 H   0  0  0  0  0  0  0  0  0  0  0  0
   35.3550   32.5380   37.6520 H   0  0  0  0  0  0  0  0  0  0  0  0
   37.0040   31.3870   36.2620 H   0  0  0  0  0  0  0  0  0  0  0  0
   36.3420   30.3010   34.2170 H   0  0  0  0  0  0  0  0  0  0  0  0
   37.2870   25.6160   32.3060 C   0  0  0  0  0  0  0  0  0  0  0  0
   36.3040   26.2420   31.6020 C   0  0  0  0  0  0  0  0  0  0  0  0
   35.4200   25.3190   31.0480 C   0  0  0  0  0  0  0  0  0  0  0  0
   34.5770   25.6610   30.4560 H   0  0  0  0  0  0  0  0  0  0  0  0
   35.5090   23.9550   31.1770 C   0  0  0  0  0  0  0  0  0  0  0  0
   34.7870   23.2980   30.7180 H   0  0  0  0  0  0  0  0  0  0  0  0
   36.5260   23.3980   31.8980 C   0  0  0  0  0  3  0  0  0  0  0  0
   37.4330   24.2570   32.4740 C   0  0  0  0  0  3  0  0  0  0  0  0
   39.0460   27.0510   33.5710 N   0  0  0  0  0  0  0  0  0  0  0  0
   38.2560   26.3970   33.0090 C   0  0  0  0  0  0  0  0  0  0  0  0
   36.6820   30.7430   29.4750 N   0  0  0  0  0  0  0  0  0  0  0  0
   37.6130   30.5280   29.0680 H   0  0  0  0  0  0  0  0  0  0  0  0
   36.1030   31.5500   29.2480 H   0  0  0  0  0  0  0  0  0  0  0  0
  1  6  1  0  0  0  0
  2  1  2  0  0  0  0
  2  3  1  0  0  0  0
  3 24  1  0  0  0  0
  3  4  2  0  0  0  0
  4  5  1  0  0  0  0
  5  8  1  0  0  0  0
  6  5  2  0  0  0  0
  7  2  1  0  0  0  0
  8 17  1  0  0  0  0
  9  8  2  0  0  0  0
  9 10  1  0  0  0  0
 10 11  2  0  0  0  0
 11 12  1  0  0  0  0
 12 13  1  0  0  0  0
 13 14  2  0  0  0  0
 13 19  1  0  0  0  0
 14 20  1  0  0  0  0
 15 21  1  0  0  0  0
 15 14  1  0  0  0  0
 16 15  2  0  0  0  0
 17 16  1  0  0  0  0
 17 12  2  0  0  0  0
 18 10  1  0  0  0  0
 22 16  1  0  0  0  0
 23 30  1  0  0  0  0
 23 32  1  0  0  0  0
 24 23  2  0  0  0  0
 25 27  2  0  0  0  0
 25 24  1  0  0  0  0
 26 25  1  0  0  0  0
 27 29  1  0  0  0  0
 28 27  1  0  0  0  0
 29 30  2  0  0  0  0
 32 31  3  0  0  0  0
 33  1  1  0  0  0  0
 34 33  1  0  0  0  0
 35 33  1  0  0  0  0
M  END
>  <minimizedAffinity>
-6.22136736

$$$$

 OpenBabel03272503573D

 35 38  0  0  0  0  0  0  0  0999 V2000
   36.0750   29.3150   31.4350 C   0  0  0  0  0  0  0  0  0  0  0  0
   37.0680   28.3970   31.7690 C   0  0  0  0  0  0  0  0  0  0  0  0
   37.0290   27.8950   33.0460 C   0  0  0  0  0  0  0  0  0  0  0  0
   36.0550   28.3180   33.8560 N   0  0  0  0  0  0  0  0  0  0  0  0
   35.0990   29.1830   33.5730 C   0  0  0  0  0  0  0  0  0  0  0  0
   35.1700   29.6490   32.3330 N   0  0  0  0  0  0  0  0  0  0  0  0
   37.7930   28.0850   31.0790 H   0  0  0  0  0  0  0  0  0  0  0  0
   33.9810   29.7230   34.3350 C   0  0  0  0  0  0  0  0  0  0  0  0
   32.7110   29.2660   34.1900 N   0  0  0  0  0  0  0  0  0  0  0  0
   31.7050   29.7630   34.9090 C   0  0  0  0  0  0  0  0  0  0  0  0
   31.8330   30.7320   35.8220 N   0  0  0  0  0  0  0  0  0  0  0  0
   33.0700   31.2350   36.0220 C   0  0  0  0  0  0  0  0  0  0  0  0
   33.2050   32.2250   36.9550 C   0  0  0  0  0  0  0  0  0  0  0  0
   34.4470   32.7720   37.1960 C   0  0  0  0  0  0  0  0  0  0  0  0
   35.5090   32.2690   36.4570 C   0  0  0  0  0  0  0  0  0  0  0  0
   35.3160   31.2740   35.5320 C   0  0  0  0  0  0  0  0  0  0  0  0
   34.0930   30.7130   35.2740 C   0  0  0  0  0  0  0  0  0  0  0  0
   30.6710   29.3840   34.7830 H   0  0  0  0  0  0  0  0  0  0  0  0
   32.3360   32.5840   37.5100 H   0  0  0  0  0  0  0  0  0  0  0  0
   34.5240   33.5430   37.9310 H   0  0  0  0  0  0  0  0  0  0  0  0
   36.4670   32.7360   36.6860 H   0  0  0  0  0  0  0  0  0  0  0  0
   36.2310   30.9950   35.0390 H   0  0  0  0  0  0  0  0  0  0  0  0
   37.9200   25.5640   33.4550 C   0  0  0  0  0  0  0  0  0  0  0  0
   37.9000   26.9130   33.6330 C   0  0  0  0  0  0  0  0  0  0  0  0
   38.9180   27.3190   34.4950 C   0  0  0  0  0  0  0  0  0  0  0  0
   39.0370   28.3700   34.7380 H   0  0  0  0  0  0  0  0  0  0  0  0
   39.8290   26.4870   35.0970 C   0  0  0  0  0  0  0  0  0  0  0  0
   40.5920   26.8720   35.7560 H   0  0  0  0  0  0  0  0  0  0  0  0
   39.7850   25.1410   34.8720 C   0  0  0  0  0  3  0  0  0  0  0  0
   38.8040   24.6770   34.0280 C   0  0  0  0  0  3  0  0  0  0  0  0
   36.2240   24.4830   31.8090 N   0  0  0  0  0  0  0  0  0  0  0  0
   36.9930   24.9600   32.5490 C   0  0  0  0  0  0  0  0  0  0  0  0
   36.0160   29.9150   30.1160 N   0  0  0  0  0  0  0  0  0  0  0  0
   36.9200   29.9680   29.6070 H   0  0  0  0  0  0  0  0  0  0  0  0
   35.1150   30.2430   29.7710 H   0  0  0  0  0  0  0  0  0  0  0  0
  1  2  2  0  0  0  0
  1  6  1  0  0  0  0
  2  3  1  0  0  0  0
  3 24  1  0  0  0  0
  3  4  2  0  0  0  0
  5  4  1  0  0  0  0
  5  8  1  0  0  0  0
  6  5  2  0  0  0  0
  7  2  1  0  0  0  0
  8 17  1  0  0  0  0
  9  8  2  0  0  0  0
  9 10  1  0  0  0  0
 10 11  2  0  0  0  0
 11 12  1  0  0  0  0
 12 13  1  0  0  0  0
 13 14  2  0  0  0  0
 13 19  1  0  0  0  0
 14 20  1  0  0  0  0
 15 21  1  0  0  0  0
 15 14  1  0  0  0  0
 16 15  2  0  0  0  0
 17 16  1  0  0  0  0
 17 12  2  0  0  0  0
 18 10  1  0  0  0  0
 22 16  1  0  0  0  0
 23 24  2  0  0  0  0
 23 30  1  0  0  0  0
 24 25  1  0  0  0  0
 25 26  1  0  0  0  0
 25 27  2  0  0  0  0
 27 28  1  0  0  0  0
 29 27  1  0  0  0  0
 30 29  2  0  0  0  0
 31 32  3  0  0  0  0
 32 23  1  0  0  0  0
 33  1  1  0  0  0  0
 34 33  1  0  0  0  0
 35 33  1  0  0  0  0
M  END
>  <minimizedAffinity>
-6.20763731

$$$$

 OpenBabel03272503573D

 35 38  0  0  0  0  0  0  0  0999 V2000
   36.0430   29.1940   31.5650 C   0  0  0  0  0  0  0  0  0  0  0  0
   37.0270   28.2880   31.9550 C   0  0  0  0  0  0  0  0  0  0  0  0
   36.9780   27.8580   33.2570 C   0  0  0  0  0  0  0  0  0  0  0  0
   36.0030   28.3330   34.0370 N   0  0  0  0  0  0  0  0  0  0  0  0
   35.0560   29.1890   33.7020 C   0  0  0  0  0  0  0  0  0  0  0  0
   35.1370   29.5840   32.4380 N   0  0  0  0  0  0  0  0  0  0  0  0
   37.7530   27.9320   31.2860 H   0  0  0  0  0  0  0  0  0  0  0  0
   33.9390   29.7790   34.4270 C   0  0  0  0  0  0  0  0  0  0  0  0
   32.6620   29.3430   34.2790 N   0  0  0  0  0  0  0  0  0  0  0  0
   31.6570   29.8860   34.9660 C   0  0  0  0  0  0  0  0  0  0  0  0
   31.7920   30.8860   35.8450 N   0  0  0  0  0  0  0  0  0  0  0  0
   33.0360   31.3690   36.0440 C   0  0  0  0  0  0  0  0  0  0  0  0
   33.1780   32.3900   36.9430 C   0  0  0  0  0  0  0  0  0  0  0  0
   34.4290   32.9200   37.1830 C   0  0  0  0  0  0  0  0  0  0  0  0
   35.4900   32.3690   36.4780 C   0  0  0  0  0  0  0  0  0  0  0  0
   35.2890   31.3450   35.5870 C   0  0  0  0  0  0  0  0  0  0  0  0
   34.0580   30.8000   35.3320 C   0  0  0  0  0  0  0  0  0  0  0  0
   30.6160   29.5240   34.8370 H   0  0  0  0  0  0  0  0  0  0  0  0
   32.3100   32.7870   37.4710 H   0  0  0  0  0  0  0  0  0  0  0  0
   34.5110   33.7160   37.8900 H   0  0  0  0  0  0  0  0  0  0  0  0
   36.4550   32.8230   36.7050 H   0  0  0  0  0  0  0  0  0  0  0  0
   36.2060   31.0290   35.1180 H   0  0  0  0  0  0  0  0  0  0  0  0
   39.0830   26.4870   33.5420 C   0  0  0  0  0  0  0  0  0  0  0  0
   37.8390   26.9040   33.9020 C   0  0  0  0  0  0  0  0  0  0  0  0
   37.4310   26.2960   35.0880 C   0  0  0  0  0  0  0  0  0  0  0  0
   36.4580   26.5260   35.5100 H   0  0  0  0  0  0  0  0  0  0  0  0
   38.1680   25.3920   35.8130 C   0  0  0  0  0  0  0  0  0  0  0  0
   37.7870   24.9590   36.7250 H   0  0  0  0  0  0  0  0  0  0  0  0
   39.4100   25.0190   35.3870 C   0  0  0  0  0  3  0  0  0  0  0  0
   39.8720   25.5850   34.2220 C   0  0  0  0  0  3  0  0  0  0  0  0
   40.2310   27.5180   31.4500 N   0  0  0  0  0  0  0  0  0  0  0  0
   39.7070   27.0490   32.3850 C   0  0  0  0  0  0  0  0  0  0  0  0
   35.9950   29.7200   30.2140 N   0  0  0  0  0  0  0  0  0  0  0  0
   36.9010   29.7380   29.7070 H   0  0  0  0  0  0  0  0  0  0  0  0
   35.0980   30.0350   29.8470 H   0  0  0  0  0  0  0  0  0  0  0  0
  1  2  2  0  0  0  0
  1  6  1  0  0  0  0
  2  3  1  0  0  0  0
  3 24  1  0  0  0  0
  3  4  2  0  0  0  0
  5  4  1  0  0  0  0
  5  8  1  0  0  0  0
  6  5  2  0  0  0  0
  7  2  1  0  0  0  0
  8 17  1  0  0  0  0
  9  8  2  0  0  0  0
  9 10  1  0  0  0  0
 10 11  2  0  0  0  0
 11 12  1  0  0  0  0
 12 13  1  0  0  0  0
 13 14  2  0  0  0  0
 13 19  1  0  0  0  0
 14 20  1  0  0  0  0
 15 21  1  0  0  0  0
 15 14  1  0  0  0  0
 16 15  2  0  0  0  0
 17 16  1  0  0  0  0
 17 12  2  0  0  0  0
 18 10  1  0  0  0  0
 22 16  1  0  0  0  0
 23 24  2  0  0  0  0
 23 30  1  0  0  0  0
 24 25  1  0  0  0  0
 25 26  1  0  0  0  0
 25 27  2  0  0  0  0
 27 28  1  0  0  0  0
 29 27  1  0  0  0  0
 30 29  2  0  0  0  0
 31 32  3  0  0  0  0
 32 23  1  0  0  0  0
 33  1  1  0  0  0  0
 34 33  1  0  0  0  0
 35 33  1  0  0  0  0
M  END
>  <minimizedAffinity>
-6.08803797

$$$$

 OpenBabel03272503573D

 35 38  0  0  0  0  0  0  0  0999 V2000
   35.9200   30.2690   31.0540 C   0  0  0  0  0  0  0  0  0  0  0  0
   36.1810   28.9290   30.7790 C   0  0  0  0  0  0  0  0  0  0  0  0
   36.0670   28.0570   31.8320 C   0  0  0  0  0  0  0  0  0  0  0  0
   35.7180   28.5540   33.0220 N   0  0  0  0  0  0  0  0  0  0  0  0
   35.4630   29.8150   33.3180 C   0  0  0  0  0  0  0  0  0  0  0  0
   35.5850   30.6280   32.2770 N   0  0  0  0  0  0  0  0  0  0  0  0
   36.4260   28.5950   29.8150 H   0  0  0  0  0  0  0  0  0  0  0  0
   35.0670   30.4940   34.5450 C   0  0  0  0  0  0  0  0  0  0  0  0
   35.8940   31.3390   35.2110 N   0  0  0  0  0  0  0  0  0  0  0  0
   35.5050   31.9610   36.3230 C   0  0  0  0  0  0  0  0  0  0  0  0
   34.2980   31.8270   36.8840 N   0  0  0  0  0  0  0  0  0  0  0  0
   33.4210   31.0030   36.2740 C   0  0  0  0  0  0  0  0  0  0  0  0
   32.1860   30.8640   36.8440 C   0  0  0  0  0  0  0  0  0  0  0  0
   31.2530   30.0330   36.2600 C   0  0  0  0  0  0  0  0  0  0  0  0
   31.6380   29.3740   35.1010 C   0  0  0  0  0  0  0  0  0  0  0  0
   32.8920   29.5500   34.5730 C   0  0  0  0  0  0  0  0  0  0  0  0
   33.8360   30.3700   35.1320 C   0  0  0  0  0  0  0  0  0  0  0  0
   36.1890   32.6490   36.8610 H   0  0  0  0  0  0  0  0  0  0  0  0
   31.9340   31.4070   37.7570 H   0  0  0  0  0  0  0  0  0  0  0  0
   30.2970   29.9440   36.7260 H   0  0  0  0  0  0  0  0  0  0  0  0
   30.8650   28.7310   34.6810 H   0  0  0  0  0  0  0  0  0  0  0  0
   33.0410   28.9690   33.6780 H   0  0  0  0  0  0  0  0  0  0  0  0
   37.2280   25.8770   32.3740 C   0  0  0  0  0  0  0  0  0  0  0  0
   36.2400   26.6300   31.8170 C   0  0  0  0  0  0  0  0  0  0  0  0
   35.2900   25.8250   31.1920 C   0  0  0  0  0  0  0  0  0  0  0  0
   34.4340   26.2760   30.6990 H   0  0  0  0  0  0  0  0  0  0  0  0
   35.3250   24.4530   31.1300 C   0  0  0  0  0  0  0  0  0  0  0  0
   34.5530   23.8930   30.6260 H   0  0  0  0  0  0  0  0  0  0  0  0
   36.3500   23.7650   31.7120 C   0  0  0  0  0  3  0  0  0  0  0  0
   37.3220   24.5030   32.3480 C   0  0  0  0  0  3  0  0  0  0  0  0
   39.0990   27.0550   33.7390 N   0  0  0  0  0  0  0  0  0  0  0  0
   38.2640   26.5170   33.1220 C   0  0  0  0  0  0  0  0  0  0  0  0
   36.0100   31.2820   30.0200 N   0  0  0  0  0  0  0  0  0  0  0  0
   36.6490   31.0620   29.2310 H   0  0  0  0  0  0  0  0  0  0  0  0
   35.4560   32.1310   30.1220 H   0  0  0  0  0  0  0  0  0  0  0  0
  1  6  1  0  0  0  0
  2  1  2  0  0  0  0
  2  3  1  0  0  0  0
  3  4  2  0  0  0  0
  4  5  1  0  0  0  0
  5  8  1  0  0  0  0
  6  5  2  0  0  0  0
  7  2  1  0  0  0  0
  8 17  2  0  0  0  0
  8  9  1  0  0  0  0
  9 10  2  0  0  0  0
 10 18  1  0  0  0  0
 10 11  1  0  0  0  0
 12 13  1  0  0  0  0
 12 11  2  0  0  0  0
 13 19  1  0  0  0  0
 14 20  1  0  0  0  0
 14 13  2  0  0  0  0
 15 14  1  0  0  0  0
 16 15  2  0  0  0  0
 16 17  1  0  0  0  0
 17 12  1  0  0  0  0
 21 15  1  0  0  0  0
 22 16  1  0  0  0  0
 23 32  1  0  0  0  0
 24  3  1  0  0  0  0
 24 23  2  0  0  0  0
 25 24  1  0  0  0  0
 26 25  1  0  0  0  0
 27 25  2  0  0  0  0
 27 29  1  0  0  0  0
 28 27  1  0  0  0  0
 29 30  2  0  0  0  0
 30 23  1  0  0  0  0
 32 31  3  0  0  0  0
 33 35  1  0  0  0  0
 33  1  1  0  0  0  0
 34 33  1  0  0  0  0
M  END
>  <minimizedAffinity>
-6.07209682

$$$$
