
 OpenBabel03272500513D

 46 51  0  0  1  0  0  0  0  0999 V2000
   31.0280   27.4610   49.2620 C   0  0  1  0  0  0  0  0  0  0  0  0
   31.2990   26.3190   48.2100 C   0  0  0  0  0  0  0  0  0  0  0  0
   31.5010   27.7750   47.9140 C   0  0  2  0  0  0  0  0  0  0  0  0
   31.7500   27.4260   50.1200 H   0  0  0  0  0  0  0  0  0  0  0  0
   32.2340   25.7630   48.3390 H   0  0  0  0  0  0  0  0  0  0  0  0
   30.3950   25.8110   47.8700 H   0  0  0  0  0  0  0  0  0  0  0  0
   30.7870   28.1880   47.1780 H   0  0  0  0  0  0  0  0  0  0  0  0
   27.6360   28.6070   49.6110 C   0  0  0  0  0  0  0  0  0  0  0  0
   27.6570   27.5840   50.5590 C   0  0  0  0  0  0  0  0  0  0  0  0
   28.9490   27.0120   50.5520 C   0  0  0  0  0  0  0  0  0  0  0  0
   29.6450   27.6890   49.6280 N   0  0  0  0  0  0  0  0  0  0  0  0
   28.8510   28.5980   49.1100 N   0  0  0  0  0  0  0  0  0  0  0  0
   26.8510   27.2360   51.2210 H   0  0  0  0  0  0  0  0  0  0  0  0
   29.2940   26.2090   51.1590 H   0  0  0  0  0  0  0  0  0  0  0  0
   25.1480   28.9210   49.5180 C   0  0  0  0  0  0  0  0  0  0  0  0
   26.4770   29.4080   49.3460 C   0  0  0  0  0  0  0  0  0  0  0  0
   26.6110   30.7060   48.9070 C   0  0  0  0  0  0  0  0  0  0  0  0
   25.4860   31.4390   48.6650 N   0  0  0  0  0  0  0  0  0  0  0  0
   24.2550   30.9430   48.8380 C   0  0  0  0  0  0  0  0  0  0  0  0
   24.0730   29.6660   49.2710 N   0  0  0  0  0  0  0  0  0  0  0  0
   25.0620   27.9080   49.8600 H   0  0  0  0  0  0  0  0  0  0  0  0
   27.6160   31.1050   48.7670 H   0  0  0  0  0  0  0  0  0  0  0  0
   23.4630   31.6470   48.6040 H   0  0  0  0  0  0  0  0  0  0  0  0
   32.9000   28.2890   47.7170 C   0  0  0  0  0  0  0  0  0  0  0  0
   33.5510   28.3860   46.5000 C   0  0  0  0  0  0  0  0  0  0  0  0
   34.7820   28.9090   46.7340 N   0  0  0  0  0  0  0  0  0  0  0  0
   34.9140   29.1400   48.0610 C   0  0  0  0  0  0  0  0  0  0  0  0
   33.7640   28.7600   48.6560 N   0  0  0  0  0  0  0  0  0  0  0  0
   33.1590   28.0980   45.5190 H   0  0  0  0  0  0  0  0  0  0  0  0
   35.4890   29.0920   45.9900 H   0  0  0  0  0  0  0  0  0  0  0  0
   36.1050   29.7150   48.7500 C   0  0  0  0  0  0  0  0  0  0  0  0
   36.5810   29.1580   49.9620 C   0  0  0  0  0  0  0  0  0  0  0  0
   38.0170   30.2220   50.3590 S   0  0  0  0  0  0  0  0  0  0  0  0
   37.7220   31.2450   48.8000 C   0  0  0  0  0  0  0  0  0  0  0  0
   36.8090   30.7410   48.3440 N   0  0  0  0  0  0  0  0  0  0  0  0
   36.1490   28.3020   50.4800 H   0  0  0  0  0  0  0  0  0  0  0  0
   39.2400   32.4020   47.2570 C   0  0  0  0  0  0  0  0  0  0  0  0
   38.6070   32.3900   48.4630 C   0  0  0  0  0  0  0  0  0  0  0  0
   38.7870   33.4250   49.3570 C   0  0  0  0  0  0  0  0  0  0  0  0
   38.2780   33.4180   50.3300 H   0  0  0  0  0  0  0  0  0  0  0  0
   39.6010   34.5080   49.0860 C   0  0  0  0  0  0  0  0  0  0  0  0
   39.7300   35.3140   49.8010 H   0  0  0  0  0  0  0  0  0  0  0  0
   40.2380   34.5120   47.8600 C   0  0  0  0  0  0  0  0  0  0  0  0
   40.0510   33.4710   46.9750 C   0  0  0  0  0  0  0  0  0  0  0  0
   38.8420   30.4120   45.6360 N   0  0  0  0  0  0  0  0  0  0  0  0
   39.0150   31.3100   46.3790 C   0  0  0  0  0  0  0  0  0  0  0  0
  1 11  1  0  0  0  0
  1  4  1  1  0  0  0
  2  5  1  0  0  0  0
  2  1  1  0  0  0  0
  3  7  1  6  0  0  0
  3  2  1  0  0  0  0
  3  1  1  0  0  0  0
  6  2  1  0  0  0  0
  8  9  1  0  0  0  0
  9 13  1  0  0  0  0
 10  9  2  0  0  0  0
 10 14  1  0  0  0  0
 11 10  1  0  0  0  0
 12  8  2  0  0  0  0
 12 11  1  0  0  0  0
 15 21  1  0  0  0  0
 16 15  1  0  0  0  0
 16  8  1  0  0  0  0
 17 16  2  0  0  0  0
 18 19  2  0  0  0  0
 18 17  1  0  0  0  0
 19 20  1  0  0  0  0
 20 15  2  0  0  0  0
 22 17  1  0  0  0  0
 23 19  1  0  0  0  0
 24  3  1  0  0  0  0
 24 28  1  0  0  0  0
 25 26  1  0  0  0  0
 25 24  2  0  0  0  0
 26 27  1  0  0  0  0
 27 28  2  0  0  0  0
 27 31  1  0  0  0  0
 29 25  1  0  0  0  0
 30 26  1  0  0  0  0
 31 32  2  0  0  0  0
 32 33  1  0  0  0  0
 32 36  1  0  0  0  0
 34 33  1  0  0  0  0
 35 31  1  0  0  0  0
 35 34  2  0  0  0  0
 37 38  1  0  0  0  0
 38 34  1  0  0  0  0
 38 39  2  0  0  0  0
 39 40  1  0  0  0  0
 41 39  1  0  0  0  0
 41 42  1  0  0  0  0
 43 41  2  0  0  0  0
 44 37  2  0  0  0  0
 44 43  1  0  0  0  0
 45 46  3  0  0  0  0
 46 37  1  0  0  0  0
M  END
>  <minimizedAffinity>
-7.5891037

>  <minimizedRMSD>
2.28330421

$$$$
