
 OpenBabel03272502183D

 34 36  0  0  1  0  0  0  0  0999 V2000
   37.0320   30.4180   48.9680 C   0  0  0  0  0  0  0  0  0  0  0  0
   37.0450   31.6070   49.7380 C   0  0  0  0  0  0  0  0  0  0  0  0
   37.7740   32.6980   49.2650 C   0  0  0  0  0  0  0  0  0  0  0  0
   38.4460   32.5500   48.0600 N   0  0  0  0  0  0  0  0  0  0  0  0
   38.4000   31.4060   47.3730 C   0  0  0  0  0  0  0  0  0  0  0  0
   37.7050   30.3630   47.8230 N   0  0  0  0  0  0  0  0  0  0  0  0
   36.5370   31.7630   50.6820 H   0  0  0  0  0  0  0  0  0  0  0  0
   37.8070   33.6230   49.8270 H   0  0  0  0  0  0  0  0  0  0  0  0
   38.4080   30.9150   44.9550 C   0  0  0  0  0  0  0  0  0  0  0  0
   39.1090   31.2570   46.1050 C   0  0  0  0  0  0  0  0  0  0  0  0
   40.4740   31.4590   46.0640 C   0  0  0  0  0  0  0  0  0  0  0  0
   41.0390   31.7290   46.9640 H   0  0  0  0  0  0  0  0  0  0  0  0
   41.1490   31.3200   44.8730 C   0  0  0  0  0  0  0  0  0  0  0  0
   42.2340   31.4740   44.8080 H   0  0  0  0  0  0  0  0  0  0  0  0
   40.4910   30.9780   43.6910 C   0  0  0  0  0  3  0  0  0  0  0  0
   39.1170   30.7810   43.7590 C   0  0  0  0  0  3  0  0  0  0  0  0
   35.8310   30.5350   44.9600 N   0  0  0  0  0  0  0  0  0  0  0  0
   36.9800   30.6980   44.9650 C   0  0  0  0  0  0  0  0  0  0  0  0
   36.0610   29.1440   49.7190 S   0  0  0  0  0  0  0  0  0  0  0  0
   33.6650   28.0420   49.1360 N   0  0  0  0  0  0  0  0  0  0  0  0
   34.2850   29.3380   49.3030 C   0  0  2  0  0  0  0  0  0  0  0  0
   34.1640   30.1040   48.0120 C   0  0  0  0  0  0  0  0  0  0  0  0
   33.1730   29.5300   47.1810 O   0  0  0  0  0  0  0  0  0  0  0  0
   33.7080   28.3030   46.7760 C   0  0  0  0  0  0  0  0  0  0  0  0
   34.1720   27.4570   47.9250 C   0  0  2  0  0  0  0  0  0  0  0  0
   32.6480   28.1460   49.1910 H   0  0  0  0  0  0  0  0  0  0  0  0
   33.7990   29.9500   50.0930 H   0  0  0  0  0  0  0  0  0  0  0  0
   35.1450   30.1600   47.4930 H   0  0  0  0  0  0  0  0  0  0  0  0
   33.8430   31.1600   48.1870 H   0  0  0  0  0  0  0  0  0  0  0  0
   33.0280   27.7390   46.1110 H   0  0  0  0  0  0  0  0  0  0  0  0
   34.6070   28.5670   46.1660 H   0  0  0  0  0  0  0  0  0  0  0  0
   35.2600   27.3800   48.0000 H   0  0  0  0  0  0  0  0  0  0  0  0
   33.6500   26.1500   47.8060 O   0  0  0  0  0  0  0  0  0  0  0  0
   32.6630   26.2150   47.7560 H   0  0  0  0  0  0  0  0  0  0  0  0
  1 19  1  0  0  0  0
  1  2  1  0  0  0  0
  2  7  1  0  0  0  0
  3  2  2  0  0  0  0
  3  8  1  0  0  0  0
  4  3  1  0  0  0  0
  5  6  1  0  0  0  0
  5  4  2  0  0  0  0
  6  1  2  0  0  0  0
  9 18  1  0  0  0  0
  9 10  1  0  0  0  0
 10  5  1  0  0  0  0
 11 10  2  0  0  0  0
 11 12  1  0  0  0  0
 13 11  1  0  0  0  0
 14 13  1  0  0  0  0
 15 16  1  0  0  0  0
 15 13  2  0  0  0  0
 16  9  2  0  0  0  0
 17 18  3  0  0  0  0
 20 26  1  0  0  0  0
 20 21  1  0  0  0  0
 21 19  1  0  0  0  0
 21 27  1  1  0  0  0
 22 29  1  0  0  0  0
 22 21  1  0  0  0  0
 23 22  1  0  0  0  0
 24 23  1  0  0  0  0
 24 25  1  0  0  0  0
 25 32  1  1  0  0  0
 25 20  1  0  0  0  0
 28 22  1  0  0  0  0
 30 24  1  0  0  0  0
 31 24  1  0  0  0  0
 33 25  1  0  0  0  0
 34 33  1  0  0  0  0
M  END
>  <minimizedAffinity>
-5.50236225

>  <minimizedRMSD>
1.42905211

$$$$
