
 OpenBabel03272503233D

 31 33  0  0  1  0  0  0  0  0999 V2000
   36.6890   29.8500   49.2180 N   0  0  0  0  0  0  0  0  0  0  0  0
   37.4180   31.0710   49.0360 C   0  0  1  0  0  0  0  0  0  0  0  0
   38.1970   31.2230   50.3220 C   0  0  0  0  0  0  0  0  0  0  0  0
   37.6730   30.1140   51.2390 C   0  0  0  0  0  0  0  0  0  0  0  0
   37.4330   29.0540   50.1730 C   0  0  0  0  0  0  0  0  0  0  0  0
   36.6340   31.8840   49.0810 H   0  0  0  0  0  0  0  0  0  0  0  0
   39.2630   31.0760   50.0940 H   0  0  0  0  0  0  0  0  0  0  0  0
   38.0260   32.1900   50.8290 H   0  0  0  0  0  0  0  0  0  0  0  0
   38.4730   29.7750   51.9280 H   0  0  0  0  0  0  0  0  0  0  0  0
   36.7520   30.4090   51.7380 H   0  0  0  0  0  0  0  0  0  0  0  0
   38.3670   28.6380   49.8110 H   0  0  0  0  0  0  0  0  0  0  0  0
   36.7880   28.2280   50.5600 H   0  0  0  0  0  0  0  0  0  0  0  0
   35.4740   29.4770   48.5950 C   0  0  0  0  0  0  0  0  0  0  0  0
   34.9220   30.4170   47.7280 C   0  0  0  0  0  0  0  0  0  0  0  0
   33.7070   30.1010   47.0800 C   0  0  0  0  0  0  0  0  0  0  0  0
   33.1550   28.8630   47.3640 N   0  0  0  0  0  0  0  0  0  0  0  0
   33.7370   27.9890   48.2150 C   0  0  0  0  0  0  0  0  0  0  0  0
   34.8970   28.2990   48.8290 N   0  0  0  0  0  0  0  0  0  0  0  0
   35.3240   31.3900   47.4830 H   0  0  0  0  0  0  0  0  0  0  0  0
   33.2020   30.7680   46.3880 H   0  0  0  0  0  0  0  0  0  0  0  0
   33.2170   27.0510   48.3620 H   0  0  0  0  0  0  0  0  0  0  0  0
   38.9450   32.3680   47.6440 C   0  0  0  0  0  0  0  0  0  0  0  0
   38.1860   31.2050   47.8150 C   0  0  0  0  0  0  0  0  0  0  0  0
   38.2630   30.3130   46.7820 C   0  0  0  0  0  0  0  0  0  0  0  0
   37.6960   29.4050   46.8700 H   0  0  0  0  0  0  0  0  0  0  0  0
   39.0110   30.4980   45.6450 C   0  0  0  0  0  0  0  0  0  0  0  0
   39.0500   29.7670   44.8430 H   0  0  0  0  0  0  0  0  0  0  0  0
   39.7440   31.6520   45.5110 C   0  0  0  0  0  3  0  0  0  0  0  0
   39.7170   32.6120   46.5270 C   0  0  0  0  0  3  0  0  0  0  0  0
   38.9610   34.2160   49.4910 N   0  0  0  0  0  0  0  0  0  0  0  0
   38.9530   33.3930   48.6620 C   0  0  0  0  0  0  0  0  0  0  0  0
  1  5  1  0  0  0  0
  2  6  1  6  0  0  0
  2  1  1  0  0  0  0
  2  3  1  0  0  0  0
  3  8  1  0  0  0  0
  3  4  1  0  0  0  0
  4 10  1  0  0  0  0
  4  9  1  0  0  0  0
  5 12  1  0  0  0  0
  5  4  1  0  0  0  0
  7  3  1  0  0  0  0
 11  5  1  0  0  0  0
 13 18  1  0  0  0  0
 13  1  1  0  0  0  0
 14 13  2  0  0  0  0
 15 16  2  0  0  0  0
 15 14  1  0  0  0  0
 16 17  1  0  0  0  0
 17 21  1  0  0  0  0
 17 18  2  0  0  0  0
 19 14  1  0  0  0  0
 20 15  1  0  0  0  0
 22 23  1  0  0  0  0
 22 31  1  0  0  0  0
 23  2  1  0  0  0  0
 24 25  1  0  0  0  0
 24 23  2  0  0  0  0
 26 24  1  0  0  0  0
 27 26  1  0  0  0  0
 28 26  2  0  0  0  0
 28 29  1  0  0  0  0
 29 22  2  0  0  0  0
 31 30  3  0  0  0  0
M  END
>  <minimizedAffinity>
-5.9558897

>  <minimizedRMSD>
1.15574944

$$$$
