
 OpenBabel03272502573D

 43 46  0  0  0  0  0  0  0  0999 V2000
   37.7350   26.8930   33.5880 C   0  0  0  0  0  0  0  0  0  0  0  0
   38.8470   26.8840   32.7470 C   0  0  0  0  0  0  0  0  0  0  0  0
   39.9190   26.0450   32.9910 C   0  0  0  0  0  0  0  0  0  0  0  0
   39.8180   25.2300   34.1070 C   0  0  0  0  0  0  0  0  0  0  0  0
   38.7220   25.2270   34.9520 C   0  0  0  0  0  0  0  0  0  0  0  0
   37.6990   26.0730   34.6610 N   0  0  0  0  0  0  0  0  0  0  0  0
   38.7340   24.3520   36.0540 N   0  0  0  0  0  0  0  0  0  0  0  0
   39.9760   23.7490   36.4580 C   0  0  0  0  0  0  0  0  0  0  0  0
   39.6460   22.7500   37.5510 C   0  0  0  0  0  0  0  0  0  0  0  0
   38.9810   23.4630   38.7090 C   0  0  0  0  0  0  0  0  0  0  0  0
   37.8110   24.2760   38.2710 C   0  0  0  0  0  0  0  0  0  0  0  0
   37.5380   24.0200   36.8200 C   0  0  0  0  0  0  0  0  0  0  0  0
   38.8240   27.5630   31.8990 H   0  0  0  0  0  0  0  0  0  0  0  0
   40.7750   26.0470   32.3310 H   0  0  0  0  0  0  0  0  0  0  0  0
   40.6960   24.5950   34.2410 H   0  0  0  0  0  0  0  0  0  0  0  0
   40.6010   24.5640   36.8710 H   0  0  0  0  0  0  0  0  0  0  0  0
   40.4780   23.1560   35.6650 H   0  0  0  0  0  0  0  0  0  0  0  0
   40.5490   22.2250   37.9200 H   0  0  0  0  0  0  0  0  0  0  0  0
   38.9840   22.0010   37.1060 H   0  0  0  0  0  0  0  0  0  0  0  0
   38.5800   22.6410   39.3670 H   0  0  0  0  0  0  0  0  0  0  0  0
   39.7010   24.0130   39.3180 H   0  0  0  0  0  0  0  0  0  0  0  0
   38.0700   25.3500   38.4050 H   0  0  0  0  0  0  0  0  0  0  0  0
   36.9150   24.0840   38.8830 H   0  0  0  0  0  0  0  0  0  0  0  0
   37.2400   22.9690   36.6480 H   0  0  0  0  0  0  0  0  0  0  0  0
   36.6960   24.6540   36.5010 H   0  0  0  0  0  0  0  0  0  0  0  0
   34.9450   28.5390   31.9040 C   0  0  0  0  0  0  0  0  0  0  0  0
   34.5460   29.5190   32.8410 C   0  0  0  0  0  0  0  0  0  0  0  0
   35.2460   29.5850   34.0230 C   0  0  0  0  0  0  0  0  0  0  0  0
   36.2700   28.7070   34.2070 N   0  0  0  0  0  0  0  0  0  0  0  0
   36.6340   27.7830   33.3060 C   0  0  0  0  0  0  0  0  0  0  0  0
   35.9660   27.7120   32.1660 N   0  0  0  0  0  0  0  0  0  0  0  0
   34.4280   28.4400   30.9520 H   0  0  0  0  0  0  0  0  0  0  0  0
   33.7380   30.1750   32.6370 H   0  0  0  0  0  0  0  0  0  0  0  0
   33.6990   30.5220   35.6840 C   0  0  0  0  0  0  0  0  0  0  0  0
   34.9340   30.5510   35.0710 C   0  0  0  0  0  0  0  0  0  0  0  0
   35.8120   31.5110   35.4980 C   0  0  0  0  0  0  0  0  0  0  0  0
   36.7830   31.5930   35.0690 H   0  0  0  0  0  0  0  0  0  0  0  0
   35.4640   32.4070   36.4990 C   0  0  0  0  0  0  0  0  0  0  0  0
   36.1980   33.1540   36.8050 H   0  0  0  0  0  0  0  0  0  0  0  0
   34.2090   32.3540   37.1010 C   0  0  0  0  0  3  0  0  0  0  0  0
   33.3360   31.3970   36.6740 C   0  0  0  0  0  3  0  0  0  0  0  0
   31.8730   28.7600   35.0380 N   0  0  0  0  0  0  0  0  0  0  0  0
   32.6840   29.5490   35.3170 C   0  0  0  0  0  0  0  0  0  0  0  0
  1  6  1  0  0  0  0
  2  3  1  0  0  0  0
  2  1  2  0  0  0  0
  3  4  2  0  0  0  0
  4 15  1  0  0  0  0
  4  5  1  0  0  0  0
  5  7  1  0  0  0  0
  6  5  2  0  0  0  0
  7  8  1  0  0  0  0
  7 12  1  0  0  0  0
  8 16  1  0  0  0  0
  8  9  1  0  0  0  0
  9 18  1  0  0  0  0
  9 10  1  0  0  0  0
 10 21  1  0  0  0  0
 10 20  1  0  0  0  0
 11 22  1  0  0  0  0
 11 10  1  0  0  0  0
 11 23  1  0  0  0  0
 12 11  1  0  0  0  0
 13  2  1  0  0  0  0
 14  3  1  0  0  0  0
 17  8  1  0  0  0  0
 19  9  1  0  0  0  0
 24 12  1  0  0  0  0
 25 12  1  0  0  0  0
 26 31  2  0  0  0  0
 26 27  1  0  0  0  0
 27 28  2  0  0  0  0
 28 29  1  0  0  0  0
 28 35  1  0  0  0  0
 30  1  1  0  0  0  0
 30 29  2  0  0  0  0
 31 30  1  0  0  0  0
 32 26  1  0  0  0  0
 33 27  1  0  0  0  0
 34 41  1  0  0  0  0
 35 36  1  0  0  0  0
 35 34  2  0  0  0  0
 36 38  2  0  0  0  0
 37 36  1  0  0  0  0
 38 39  1  0  0  0  0
 38 40  1  0  0  0  0
 41 40  2  0  0  0  0
 42 43  3  0  0  0  0
 43 34  1  0  0  0  0
M  END
>  <minimizedAffinity>
-6.66738367

$$$$

 OpenBabel03272502573D

 43 46  0  0  0  0  0  0  0  0999 V2000
   37.3140   26.7480   33.7890 C   0  0  0  0  0  0  0  0  0  0  0  0
   38.1070   26.6600   34.9320 C   0  0  0  0  0  0  0  0  0  0  0  0
   38.6680   25.4570   35.3200 C   0  0  0  0  0  0  0  0  0  0  0  0
   38.3950   24.3650   34.5140 C   0  0  0  0  0  0  0  0  0  0  0  0
   37.6100   24.4340   33.3760 C   0  0  0  0  0  0  0  0  0  0  0  0
   37.0860   25.6440   33.0450 N   0  0  0  0  0  0  0  0  0  0  0  0
   37.4050   23.2550   32.6350 N   0  0  0  0  0  0  0  0  0  0  0  0
   37.7200   21.9870   33.2350 C   0  0  0  0  0  0  0  0  0  0  0  0
   37.5500   20.9340   32.1550 C   0  0  0  0  0  0  0  0  0  0  0  0
   36.1270   20.9580   31.6390 C   0  0  0  0  0  0  0  0  0  0  0  0
   35.7070   22.3240   31.2130 C   0  0  0  0  0  0  0  0  0  0  0  0
   36.8830   23.2510   31.2730 C   0  0  0  0  0  0  0  0  0  0  0  0
   38.2580   27.5780   35.4940 H   0  0  0  0  0  0  0  0  0  0  0  0
   39.2810   25.4020   36.2090 H   0  0  0  0  0  0  0  0  0  0  0  0
   38.8670   23.4490   34.8760 H   0  0  0  0  0  0  0  0  0  0  0  0
   36.9740   21.8240   34.0360 H   0  0  0  0  0  0  0  0  0  0  0  0
   38.7720   21.8870   33.5740 H   0  0  0  0  0  0  0  0  0  0  0  0
   37.7820   19.9170   32.5270 H   0  0  0  0  0  0  0  0  0  0  0  0
   38.2690   21.1730   31.3650 H   0  0  0  0  0  0  0  0  0  0  0  0
   36.1410   20.3170   30.7130 H   0  0  0  0  0  0  0  0  0  0  0  0
   35.4330   20.4760   32.3310 H   0  0  0  0  0  0  0  0  0  0  0  0
   34.9300   22.6820   31.9250 H   0  0  0  0  0  0  0  0  0  0  0  0
   35.2500   22.3270   30.2110 H   0  0  0  0  0  0  0  0  0  0  0  0
   37.6660   22.9520   30.5520 H   0  0  0  0  0  0  0  0  0  0  0  0
   36.5510   24.2630   30.9920 H   0  0  0  0  0  0  0  0  0  0  0  0
   36.2790   29.6450   31.8230 C   0  0  0  0  0  0  0  0  0  0  0  0
   35.6240   30.4550   32.7770 C   0  0  0  0  0  0  0  0  0  0  0  0
   35.5560   29.9820   34.0680 C   0  0  0  0  0  0  0  0  0  0  0  0
   36.1220   28.7740   34.3330 N   0  0  0  0  0  0  0  0  0  0  0  0
   36.7410   28.0190   33.4140 C   0  0  0  0  0  0  0  0  0  0  0  0
   36.8110   28.4650   32.1710 N   0  0  0  0  0  0  0  0  0  0  0  0
   36.3640   29.9660   30.7870 H   0  0  0  0  0  0  0  0  0  0  0  0
   35.2010   31.3890   32.5060 H   0  0  0  0  0  0  0  0  0  0  0  0
   33.5500   30.5880   35.3470 C   0  0  0  0  0  0  0  0  0  0  0  0
   34.9070   30.7220   35.1440 C   0  0  0  0  0  0  0  0  0  0  0  0
   35.5770   31.5640   35.9910 C   0  0  0  0  0  0  0  0  0  0  0  0
   36.6260   31.7160   35.8930 H   0  0  0  0  0  0  0  0  0  0  0  0
   34.9110   32.2450   37.0000 C   0  0  0  0  0  0  0  0  0  0  0  0
   35.4890   32.9050   37.6500 H   0  0  0  0  0  0  0  0  0  0  0  0
   33.5390   32.0910   37.1820 C   0  0  0  0  0  3  0  0  0  0  0  0
   32.8730   31.2520   36.3380 C   0  0  0  0  0  3  0  0  0  0  0  0
   32.0660   29.0440   33.8400 N   0  0  0  0  0  0  0  0  0  0  0  0
   32.7320   29.7240   34.5130 C   0  0  0  0  0  0  0  0  0  0  0  0
  1  2  1  0  0  0  0
  2  3  2  0  0  0  0
  2 13  1  0  0  0  0
  3 14  1  0  0  0  0
  4 15  1  0  0  0  0
  4  3  1  0  0  0  0
  5  4  2  0  0  0  0
  6  5  1  0  0  0  0
  6  1  2  0  0  0  0
  7  8  1  0  0  0  0
  7  5  1  0  0  0  0
  8 17  1  0  0  0  0
  8 16  1  0  0  0  0
  9 18  1  0  0  0  0
  9  8  1  0  0  0  0
 10  9  1  0  0  0  0
 10 21  1  0  0  0  0
 11 12  1  0  0  0  0
 11 10  1  0  0  0  0
 11 22  1  0  0  0  0
 12  7  1  0  0  0  0
 19  9  1  0  0  0  0
 20 10  1  0  0  0  0
 23 11  1  0  0  0  0
 24 12  1  0  0  0  0
 25 12  1  0  0  0  0
 26 31  2  0  0  0  0
 26 27  1  0  0  0  0
 27 28  2  0  0  0  0
 28 29  1  0  0  0  0
 28 35  1  0  0  0  0
 30  1  1  0  0  0  0
 30 29  2  0  0  0  0
 31 30  1  0  0  0  0
 32 26  1  0  0  0  0
 33 27  1  0  0  0  0
 34 41  1  0  0  0  0
 35 34  2  0  0  0  0
 35 36  1  0  0  0  0
 36 38  2  0  0  0  0
 37 36  1  0  0  0  0
 38 40  1  0  0  0  0
 38 39  1  0  0  0  0
 41 40  2  0  0  0  0
 42 43  3  0  0  0  0
 43 34  1  0  0  0  0
M  END
>  <minimizedAffinity>
-6.63842869

$$$$

 OpenBabel03272502573D

 43 46  0  0  0  0  0  0  0  0999 V2000
   36.2670   26.5750   31.9920 C   0  0  0  0  0  0  0  0  0  0  0  0
   35.6170   25.7590   31.0670 C   0  0  0  0  0  0  0  0  0  0  0  0
   35.8100   24.3900   31.0650 C   0  0  0  0  0  0  0  0  0  0  0  0
   36.6780   23.8920   32.0240 C   0  0  0  0  0  0  0  0  0  0  0  0
   37.3310   24.6880   32.9490 C   0  0  0  0  0  0  0  0  0  0  0  0
   37.1010   26.0270   32.9020 N   0  0  0  0  0  0  0  0  0  0  0  0
   38.1870   24.0660   33.8770 N   0  0  0  0  0  0  0  0  0  0  0  0
   38.6140   22.7130   33.6390 C   0  0  0  0  0  0  0  0  0  0  0  0
   39.3830   22.2710   34.8700 C   0  0  0  0  0  0  0  0  0  0  0  0
   40.5670   23.1890   35.0880 C   0  0  0  0  0  0  0  0  0  0  0  0
   40.1670   24.6240   35.1180 C   0  0  0  0  0  0  0  0  0  0  0  0
   38.6720   24.7290   35.0820 C   0  0  0  0  0  0  0  0  0  0  0  0
   34.9580   26.2520   30.3580 H   0  0  0  0  0  0  0  0  0  0  0  0
   35.3010   23.7680   30.3430 H   0  0  0  0  0  0  0  0  0  0  0  0
   36.7850   22.8070   31.9660 H   0  0  0  0  0  0  0  0  0  0  0  0
   39.2930   22.7460   32.7650 H   0  0  0  0  0  0  0  0  0  0  0  0
   37.7860   21.9810   33.5360 H   0  0  0  0  0  0  0  0  0  0  0  0
   39.7460   21.2280   34.7810 H   0  0  0  0  0  0  0  0  0  0  0  0
   38.6840   22.3100   35.7110 H   0  0  0  0  0  0  0  0  0  0  0  0
   40.9480   22.9350   36.1170 H   0  0  0  0  0  0  0  0  0  0  0  0
   41.3850   22.9700   34.4000 H   0  0  0  0  0  0  0  0  0  0  0  0
   40.5840   25.1160   34.2110 H   0  0  0  0  0  0  0  0  0  0  0  0
   40.5800   25.1560   35.9900 H   0  0  0  0  0  0  0  0  0  0  0  0
   38.2170   24.2830   35.9860 H   0  0  0  0  0  0  0  0  0  0  0  0
   38.3910   25.7940   35.0660 H   0  0  0  0  0  0  0  0  0  0  0  0
   36.0240   30.0290   30.8350 C   0  0  0  0  0  0  0  0  0  0  0  0
   35.6010   30.7210   31.9920 C   0  0  0  0  0  0  0  0  0  0  0  0
   35.4110   29.9800   33.1360 C   0  0  0  0  0  0  0  0  0  0  0  0
   35.6430   28.6410   33.0730 N   0  0  0  0  0  0  0  0  0  0  0  0
   36.0440   28.0020   31.9640 C   0  0  0  0  0  0  0  0  0  0  0  0
   36.2290   28.7050   30.8600 N   0  0  0  0  0  0  0  0  0  0  0  0
   36.1900   30.5620   29.9000 H   0  0  0  0  0  0  0  0  0  0  0  0
   35.4370   31.7680   31.9760 H   0  0  0  0  0  0  0  0  0  0  0  0
   33.6560   30.4780   34.7790 C   0  0  0  0  0  0  0  0  0  0  0  0
   34.9770   30.5740   34.3960 C   0  0  0  0  0  0  0  0  0  0  0  0
   35.8190   31.2380   35.2460 C   0  0  0  0  0  0  0  0  0  0  0  0
   36.8520   31.3510   35.0150 H   0  0  0  0  0  0  0  0  0  0  0  0
   35.3540   31.7850   36.4340 C   0  0  0  0  0  0  0  0  0  0  0  0
   36.0630   32.3060   37.0790 H   0  0  0  0  0  0  0  0  0  0  0  0
   34.0130   31.6730   36.7960 C   0  0  0  0  0  3  0  0  0  0  0  0
   33.1750   31.0110   35.9470 C   0  0  0  0  0  3  0  0  0  0  0  0
   31.8840   29.2360   33.3040 N   0  0  0  0  0  0  0  0  0  0  0  0
   32.6670   29.7970   33.9590 C   0  0  0  0  0  0  0  0  0  0  0  0
  1  6  1  0  0  0  0
  2  1  2  0  0  0  0
  3  2  1  0  0  0  0
  3  4  2  0  0  0  0
  4  5  1  0  0  0  0
  5  7  1  0  0  0  0
  6  5  2  0  0  0  0
  7 12  1  0  0  0  0
  8  7  1  0  0  0  0
  8  9  1  0  0  0  0
  9 10  1  0  0  0  0
  9 19  1  0  0  0  0
 10 11  1  0  0  0  0
 10 20  1  0  0  0  0
 11 23  1  0  0  0  0
 12 11  1  0  0  0  0
 12 24  1  0  0  0  0
 13  2  1  0  0  0  0
 14  3  1  0  0  0  0
 15  4  1  0  0  0  0
 16  8  1  0  0  0  0
 17  8  1  0  0  0  0
 18  9  1  0  0  0  0
 21 10  1  0  0  0  0
 22 11  1  0  0  0  0
 25 12  1  0  0  0  0
 26 31  2  0  0  0  0
 26 27  1  0  0  0  0
 27 28  2  0  0  0  0
 28 35  1  0  0  0  0
 29 28  1  0  0  0  0
 30  1  1  0  0  0  0
 30 29  2  0  0  0  0
 31 30  1  0  0  0  0
 32 26  1  0  0  0  0
 33 27  1  0  0  0  0
 34 41  1  0  0  0  0
 35 34  2  0  0  0  0
 35 36  1  0  0  0  0
 36 38  2  0  0  0  0
 37 36  1  0  0  0  0
 38 40  1  0  0  0  0
 38 39  1  0  0  0  0
 41 40  2  0  0  0  0
 42 43  3  0  0  0  0
 43 34  1  0  0  0  0
M  END
>  <minimizedAffinity>
-6.33273125

$$$$

 OpenBabel03272502573D

 43 46  0  0  0  0  0  0  0  0999 V2000
   37.2920   27.0800   33.6920 C   0  0  0  0  0  0  0  0  0  0  0  0
   38.3280   27.1480   34.6220 C   0  0  0  0  0  0  0  0  0  0  0  0
   39.0760   26.0290   34.9380 C   0  0  0  0  0  0  0  0  0  0  0  0
   38.7320   24.8570   34.2840 C   0  0  0  0  0  0  0  0  0  0  0  0
   37.7060   24.7720   33.3590 C   0  0  0  0  0  0  0  0  0  0  0  0
   37.0070   25.9060   33.0890 N   0  0  0  0  0  0  0  0  0  0  0  0
   37.4520   23.5250   32.7580 N   0  0  0  0  0  0  0  0  0  0  0  0
   38.0160   22.3380   33.3420 C   0  0  0  0  0  0  0  0  0  0  0  0
   37.7070   21.1920   32.3970 C   0  0  0  0  0  0  0  0  0  0  0  0
   36.2090   21.0610   32.2270 C   0  0  0  0  0  0  0  0  0  0  0  0
   35.5740   22.3500   31.8310 C   0  0  0  0  0  0  0  0  0  0  0  0
   36.6370   23.3700   31.5590 C   0  0  0  0  0  0  0  0  0  0  0  0
   38.5140   28.1170   35.0770 H   0  0  0  0  0  0  0  0  0  0  0  0
   39.8770   26.0940   35.6610 H   0  0  0  0  0  0  0  0  0  0  0  0
   39.3600   24.0140   34.5800 H   0  0  0  0  0  0  0  0  0  0  0  0
   37.4910   22.1810   34.3040 H   0  0  0  0  0  0  0  0  0  0  0  0
   39.1220   22.3500   33.4310 H   0  0  0  0  0  0  0  0  0  0  0  0
   38.1150   20.2300   32.7630 H   0  0  0  0  0  0  0  0  0  0  0  0
   38.2010   21.4230   31.4480 H   0  0  0  0  0  0  0  0  0  0  0  0
   36.0730   20.3510   31.3630 H   0  0  0  0  0  0  0  0  0  0  0  0
   35.7400   20.5820   33.0890 H   0  0  0  0  0  0  0  0  0  0  0  0
   34.9480   22.7010   32.6820 H   0  0  0  0  0  0  0  0  0  0  0  0
   34.9020   22.2370   30.9640 H   0  0  0  0  0  0  0  0  0  0  0  0
   37.2610   23.0770   30.6940 H   0  0  0  0  0  0  0  0  0  0  0  0
   36.1550   24.3270   31.3040 H   0  0  0  0  0  0  0  0  0  0  0  0
   35.9300   29.9750   31.9330 C   0  0  0  0  0  0  0  0  0  0  0  0
   35.0390   30.5290   32.8800 C   0  0  0  0  0  0  0  0  0  0  0  0
   34.9320   29.8920   34.0940 C   0  0  0  0  0  0  0  0  0  0  0  0
   35.6880   28.7790   34.2980 N   0  0  0  0  0  0  0  0  0  0  0  0
   36.5280   28.2670   33.3860 C   0  0  0  0  0  0  0  0  0  0  0  0
   36.6380   28.8730   32.2160 N   0  0  0  0  0  0  0  0  0  0  0  0
   36.0560   30.4360   30.9550 H   0  0  0  0  0  0  0  0  0  0  0  0
   34.4770   31.4010   32.6590 H   0  0  0  0  0  0  0  0  0  0  0  0
   34.4260   31.4350   35.9350 C   0  0  0  0  0  0  0  0  0  0  0  0
   34.0490   30.3620   35.1550 C   0  0  0  0  0  0  0  0  0  0  0  0
   32.8360   29.7930   35.4350 C   0  0  0  0  0  0  0  0  0  0  0  0
   32.4800   28.9610   34.8740 H   0  0  0  0  0  0  0  0  0  0  0  0
   32.0330   30.2800   36.4570 C   0  0  0  0  0  0  0  0  0  0  0  0
   31.0750   29.7920   36.6420 H   0  0  0  0  0  0  0  0  0  0  0  0
   32.4400   31.3650   37.2300 C   0  0  0  0  0  3  0  0  0  0  0  0
   33.6490   31.9310   36.9500 C   0  0  0  0  0  3  0  0  0  0  0  0
   36.7010   32.6750   35.5550 N   0  0  0  0  0  0  0  0  0  0  0  0
   35.6900   32.1220   35.7340 C   0  0  0  0  0  0  0  0  0  0  0  0
  1  2  1  0  0  0  0
  2  3  2  0  0  0  0
  2 13  1  0  0  0  0
  3 14  1  0  0  0  0
  4 15  1  0  0  0  0
  4  3  1  0  0  0  0
  5  4  2  0  0  0  0
  6  5  1  0  0  0  0
  6  1  2  0  0  0  0
  7  8  1  0  0  0  0
  7  5  1  0  0  0  0
  8 17  1  0  0  0  0
  8 16  1  0  0  0  0
  9 18  1  0  0  0  0
  9  8  1  0  0  0  0
 10  9  1  0  0  0  0
 10 21  1  0  0  0  0
 11 10  1  0  0  0  0
 11 22  1  0  0  0  0
 12 11  1  0  0  0  0
 12  7  1  0  0  0  0
 19  9  1  0  0  0  0
 20 10  1  0  0  0  0
 23 11  1  0  0  0  0
 24 12  1  0  0  0  0
 25 12  1  0  0  0  0
 26 31  2  0  0  0  0
 26 27  1  0  0  0  0
 27 28  2  0  0  0  0
 28 29  1  0  0  0  0
 28 35  1  0  0  0  0
 30  1  1  0  0  0  0
 30 29  2  0  0  0  0
 31 30  1  0  0  0  0
 32 26  1  0  0  0  0
 33 27  1  0  0  0  0
 34 41  1  0  0  0  0
 35 36  1  0  0  0  0
 35 34  2  0  0  0  0
 36 38  2  0  0  0  0
 37 36  1  0  0  0  0
 38 39  1  0  0  0  0
 38 40  1  0  0  0  0
 41 40  2  0  0  0  0
 42 43  3  0  0  0  0
 43 34  1  0  0  0  0
M  END
>  <minimizedAffinity>
-6.2813859

$$$$

 OpenBabel03272502573D

 43 46  0  0  0  0  0  0  0  0999 V2000
   38.6830   24.0690   34.6500 C   0  0  0  0  0  0  0  0  0  0  0  0
   38.6770   23.8540   36.0270 C   0  0  0  0  0  0  0  0  0  0  0  0
   38.0250   22.7650   36.5760 C   0  0  0  0  0  0  0  0  0  0  0  0
   37.3880   21.9180   35.6830 C   0  0  0  0  0  0  0  0  0  0  0  0
   37.3840   22.1170   34.3140 C   0  0  0  0  0  0  0  0  0  0  0  0
   38.0420   23.2050   33.8330 N   0  0  0  0  0  0  0  0  0  0  0  0
   36.7030   21.1860   33.5070 N   0  0  0  0  0  0  0  0  0  0  0  0
   35.7770   20.2730   34.1200 C   0  0  0  0  0  0  0  0  0  0  0  0
   35.3320   19.3050   33.0400 C   0  0  0  0  0  0  0  0  0  0  0  0
   34.6790   20.0690   31.9080 C   0  0  0  0  0  0  0  0  0  0  0  0
   35.5460   21.1720   31.4020 C   0  0  0  0  0  0  0  0  0  0  0  0
   36.8890   21.0980   32.0630 C   0  0  0  0  0  0  0  0  0  0  0  0
   39.2080   24.5790   36.6380 H   0  0  0  0  0  0  0  0  0  0  0  0
   38.0280   22.6090   37.6460 H   0  0  0  0  0  0  0  0  0  0  0  0
   36.8940   21.0820   36.1820 H   0  0  0  0  0  0  0  0  0  0  0  0
   34.9150   20.8790   34.4580 H   0  0  0  0  0  0  0  0  0  0  0  0
   36.2170   19.6370   34.9160 H   0  0  0  0  0  0  0  0  0  0  0  0
   34.6170   18.5520   33.4260 H   0  0  0  0  0  0  0  0  0  0  0  0
   36.2270   18.7730   32.7030 H   0  0  0  0  0  0  0  0  0  0  0  0
   34.5790   19.3230   31.0710 H   0  0  0  0  0  0  0  0  0  0  0  0
   33.6640   20.3830   32.1580 H   0  0  0  0  0  0  0  0  0  0  0  0
   35.0650   22.1380   31.6720 H   0  0  0  0  0  0  0  0  0  0  0  0
   35.6440   21.1570   30.3040 H   0  0  0  0  0  0  0  0  0  0  0  0
   37.4180   20.1650   31.7920 H   0  0  0  0  0  0  0  0  0  0  0  0
   37.5060   21.9380   31.7090 H   0  0  0  0  0  0  0  0  0  0  0  0
   41.1180   26.7460   34.1650 C   0  0  0  0  0  0  0  0  0  0  0  0
   40.6260   27.4160   33.0230 C   0  0  0  0  0  0  0  0  0  0  0  0
   39.4730   26.9290   32.4520 C   0  0  0  0  0  0  0  0  0  0  0  0
   38.8900   25.8410   33.0250 N   0  0  0  0  0  0  0  0  0  0  0  0
   39.3720   25.2180   34.1100 C   0  0  0  0  0  0  0  0  0  0  0  0
   40.4800   25.6790   34.6660 N   0  0  0  0  0  0  0  0  0  0  0  0
   42.0270   27.0860   34.6590 H   0  0  0  0  0  0  0  0  0  0  0  0
   41.1290   28.2600   32.6230 H   0  0  0  0  0  0  0  0  0  0  0  0
   37.6310   28.1390   31.3700 C   0  0  0  0  0  0  0  0  0  0  0  0
   38.8640   27.5300   31.2710 C   0  0  0  0  0  0  0  0  0  0  0  0
   39.4530   27.5290   30.0350 C   0  0  0  0  0  0  0  0  0  0  0  0
   40.4050   27.0760   29.8840 H   0  0  0  0  0  0  0  0  0  0  0  0
   38.8290   28.1150   28.9430 C   0  0  0  0  0  0  0  0  0  0  0  0
   39.3390   28.0880   27.9780 H   0  0  0  0  0  0  0  0  0  0  0  0
   37.5830   28.7240   29.0730 C   0  0  0  0  0  3  0  0  0  0  0  0
   36.9980   28.7240   30.3050 C   0  0  0  0  0  3  0  0  0  0  0  0
   36.3130   28.2570   33.6300 N   0  0  0  0  0  0  0  0  0  0  0  0
   36.9080   28.2040   32.6290 C   0  0  0  0  0  0  0  0  0  0  0  0
  1  2  1  0  0  0  0
  2  3  2  0  0  0  0
  2 13  1  0  0  0  0
  3 14  1  0  0  0  0
  4 15  1  0  0  0  0
  4  3  1  0  0  0  0
  5  4  2  0  0  0  0
  6  5  1  0  0  0  0
  6  1  2  0  0  0  0
  7  8  1  0  0  0  0
  7  5  1  0  0  0  0
  8 16  1  0  0  0  0
  8 17  1  0  0  0  0
  9 18  1  0  0  0  0
  9  8  1  0  0  0  0
 10 21  1  0  0  0  0
 10  9  1  0  0  0  0
 11 22  1  0  0  0  0
 11 10  1  0  0  0  0
 11 12  1  0  0  0  0
 12  7  1  0  0  0  0
 19  9  1  0  0  0  0
 20 10  1  0  0  0  0
 23 11  1  0  0  0  0
 24 12  1  0  0  0  0
 25 12  1  0  0  0  0
 26 32  1  0  0  0  0
 26 31  1  0  0  0  0
 27 26  2  0  0  0  0
 28 27  1  0  0  0  0
 28 29  2  0  0  0  0
 29 30  1  0  0  0  0
 30  1  1  0  0  0  0
 30 31  2  0  0  0  0
 33 27  1  0  0  0  0
 34 43  1  0  0  0  0
 35 34  1  0  0  0  0
 35 28  1  0  0  0  0
 36 35  2  0  0  0  0
 37 36  1  0  0  0  0
 38 40  2  0  0  0  0
 38 36  1  0  0  0  0
 39 38  1  0  0  0  0
 40 41  1  0  0  0  0
 41 34  2  0  0  0  0
 43 42  3  0  0  0  0
M  END
>  <minimizedAffinity>
-6.11831331

$$$$

 OpenBabel03272502573D

 43 46  0  0  0  0  0  0  0  0999 V2000
   37.6600   27.2840   33.2180 C   0  0  0  0  0  0  0  0  0  0  0  0
   38.7010   27.0970   32.3100 C   0  0  0  0  0  0  0  0  0  0  0  0
   39.6570   26.1190   32.5130 C   0  0  0  0  0  0  0  0  0  0  0  0
   39.5160   25.3520   33.6580 C   0  0  0  0  0  0  0  0  0  0  0  0
   38.4900   25.5240   34.5700 C   0  0  0  0  0  0  0  0  0  0  0  0
   37.5790   26.5020   34.3160 N   0  0  0  0  0  0  0  0  0  0  0  0
   38.4500   24.6820   35.6960 N   0  0  0  0  0  0  0  0  0  0  0  0
   39.6190   23.9170   36.0400 C   0  0  0  0  0  0  0  0  0  0  0  0
   39.2240   23.0000   37.1830 C   0  0  0  0  0  0  0  0  0  0  0  0
   38.7450   23.8260   38.3570 C   0  0  0  0  0  0  0  0  0  0  0  0
   37.6750   24.7880   37.9670 C   0  0  0  0  0  0  0  0  0  0  0  0
   37.2730   24.5410   36.5450 C   0  0  0  0  0  0  0  0  0  0  0  0
   38.7180   27.7530   31.4440 H   0  0  0  0  0  0  0  0  0  0  0  0
   40.4600   25.9850   31.8010 H   0  0  0  0  0  0  0  0  0  0  0  0
   40.3030   24.6020   33.7570 H   0  0  0  0  0  0  0  0  0  0  0  0
   40.3790   24.6430   36.3880 H   0  0  0  0  0  0  0  0  0  0  0  0
   39.9790   23.2410   35.2370 H   0  0  0  0  0  0  0  0  0  0  0  0
   40.0670   22.3600   37.5110 H   0  0  0  0  0  0  0  0  0  0  0  0
   38.4350   22.3430   36.8040 H   0  0  0  0  0  0  0  0  0  0  0  0
   38.2760   23.0850   39.0640 H   0  0  0  0  0  0  0  0  0  0  0  0
   39.5740   24.2810   38.9020 H   0  0  0  0  0  0  0  0  0  0  0  0
   38.0920   25.8170   38.0500 H   0  0  0  0  0  0  0  0  0  0  0  0
   36.8030   24.7390   38.6400 H   0  0  0  0  0  0  0  0  0  0  0  0
   36.8190   23.5400   36.4250 H   0  0  0  0  0  0  0  0  0  0  0  0
   36.5100   25.2820   36.2590 H   0  0  0  0  0  0  0  0  0  0  0  0
   35.6660   29.8630   31.5730 C   0  0  0  0  0  0  0  0  0  0  0  0
   34.7850   30.2790   32.5960 C   0  0  0  0  0  0  0  0  0  0  0  0
   34.9000   29.6620   33.8200 C   0  0  0  0  0  0  0  0  0  0  0  0
   35.8510   28.6980   33.9600 N   0  0  0  0  0  0  0  0  0  0  0  0
   36.6790   28.3160   32.9770 C   0  0  0  0  0  0  0  0  0  0  0  0
   36.5750   28.9040   31.7960 N   0  0  0  0  0  0  0  0  0  0  0  0
   35.6210   30.3140   30.5840 H   0  0  0  0  0  0  0  0  0  0  0  0
   34.0630   31.0370   32.4230 H   0  0  0  0  0  0  0  0  0  0  0  0
   34.3730   31.0760   35.7570 C   0  0  0  0  0  0  0  0  0  0  0  0
   34.0510   30.0000   34.9570 C   0  0  0  0  0  0  0  0  0  0  0  0
   32.9230   29.3010   35.2900 C   0  0  0  0  0  0  0  0  0  0  0  0
   32.6130   28.4580   34.7170 H   0  0  0  0  0  0  0  0  0  0  0  0
   32.1490   29.6650   36.3830 C   0  0  0  0  0  0  0  0  0  0  0  0
   31.2590   29.0760   36.6090 H   0  0  0  0  0  0  0  0  0  0  0  0
   32.4990   30.7570   37.1740 C   0  0  0  0  0  3  0  0  0  0  0  0
   33.6240   31.4530   36.8410 C   0  0  0  0  0  3  0  0  0  0  0  0
   36.4910   32.5430   35.2860 N   0  0  0  0  0  0  0  0  0  0  0  0
   35.5470   31.8950   35.5040 C   0  0  0  0  0  0  0  0  0  0  0  0
  1  6  1  0  0  0  0
  2  3  1  0  0  0  0
  2  1  2  0  0  0  0
  3  4  2  0  0  0  0
  4 15  1  0  0  0  0
  4  5  1  0  0  0  0
  5  7  1  0  0  0  0
  6  5  2  0  0  0  0
  7  8  1  0  0  0  0
  7 12  1  0  0  0  0
  8 16  1  0  0  0  0
  8  9  1  0  0  0  0
  9 18  1  0  0  0  0
  9 10  1  0  0  0  0
 10 21  1  0  0  0  0
 10 20  1  0  0  0  0
 11 22  1  0  0  0  0
 11 10  1  0  0  0  0
 11 23  1  0  0  0  0
 12 11  1  0  0  0  0
 13  2  1  0  0  0  0
 14  3  1  0  0  0  0
 17  8  1  0  0  0  0
 19  9  1  0  0  0  0
 24 12  1  0  0  0  0
 25 12  1  0  0  0  0
 26 31  2  0  0  0  0
 26 27  1  0  0  0  0
 27 28  2  0  0  0  0
 28 29  1  0  0  0  0
 28 35  1  0  0  0  0
 30  1  1  0  0  0  0
 30 29  2  0  0  0  0
 31 30  1  0  0  0  0
 32 26  1  0  0  0  0
 33 27  1  0  0  0  0
 34 41  1  0  0  0  0
 35 36  1  0  0  0  0
 35 34  2  0  0  0  0
 36 38  2  0  0  0  0
 37 36  1  0  0  0  0
 38 39  1  0  0  0  0
 38 40  1  0  0  0  0
 41 40  2  0  0  0  0
 42 43  3  0  0  0  0
 43 34  1  0  0  0  0
M  END
>  <minimizedAffinity>
-5.87890768

$$$$

 OpenBabel03272502573D

 43 46  0  0  0  0  0  0  0  0999 V2000
   38.1250   25.3270   31.7100 C   0  0  0  0  0  0  0  0  0  0  0  0
   39.0560   25.3230   30.6730 C   0  0  0  0  0  0  0  0  0  0  0  0
   39.2740   26.4530   29.9060 C   0  0  0  0  0  0  0  0  0  0  0  0
   38.5170   27.5680   30.2280 C   0  0  0  0  0  0  0  0  0  0  0  0
   37.5880   27.5890   31.2540 C   0  0  0  0  0  0  0  0  0  0  0  0
   37.4190   26.4480   31.9740 N   0  0  0  0  0  0  0  0  0  0  0  0
   36.8810   28.7830   31.4890 N   0  0  0  0  0  0  0  0  0  0  0  0
   36.8900   29.8120   30.4840 C   0  0  0  0  0  0  0  0  0  0  0  0
   36.1900   31.0180   31.0810 C   0  0  0  0  0  0  0  0  0  0  0  0
   34.7750   30.6440   31.4700 C   0  0  0  0  0  0  0  0  0  0  0  0
   34.7330   29.4360   32.3430 C   0  0  0  0  0  0  0  0  0  0  0  0
   36.1290   29.0360   32.7130 C   0  0  0  0  0  0  0  0  0  0  0  0
   39.5960   24.3960   30.5040 H   0  0  0  0  0  0  0  0  0  0  0  0
   39.9990   26.4370   29.1040 H   0  0  0  0  0  0  0  0  0  0  0  0
   38.7380   28.4220   29.5850 H   0  0  0  0  0  0  0  0  0  0  0  0
   36.3030   29.4220   29.6300 H   0  0  0  0  0  0  0  0  0  0  0  0
   37.9020   30.1730   30.2050 H   0  0  0  0  0  0  0  0  0  0  0  0
   36.1570   31.8710   30.3750 H   0  0  0  0  0  0  0  0  0  0  0  0
   36.7780   31.3270   31.9510 H   0  0  0  0  0  0  0  0  0  0  0  0
   34.4050   31.5080   32.0910 H   0  0  0  0  0  0  0  0  0  0  0  0
   34.1140   30.5890   30.6040 H   0  0  0  0  0  0  0  0  0  0  0  0
   34.2630   28.6100   31.7630 H   0  0  0  0  0  0  0  0  0  0  0  0
   34.1140   29.5910   33.2410 H   0  0  0  0  0  0  0  0  0  0  0  0
   36.6220   29.8160   33.3220 H   0  0  0  0  0  0  0  0  0  0  0  0
   36.0860   28.1220   33.3250 H   0  0  0  0  0  0  0  0  0  0  0  0
   37.2680   21.9080   32.6620 C   0  0  0  0  0  0  0  0  0  0  0  0
   37.5560   21.8850   34.0450 C   0  0  0  0  0  0  0  0  0  0  0  0
   38.0360   23.0430   34.6100 C   0  0  0  0  0  0  0  0  0  0  0  0
   38.1990   24.1260   33.8020 N   0  0  0  0  0  0  0  0  0  0  0  0
   37.9200   24.1290   32.4900 C   0  0  0  0  0  0  0  0  0  0  0  0
   37.4590   23.0200   31.9380 N   0  0  0  0  0  0  0  0  0  0  0  0
   36.8860   21.0220   32.1600 H   0  0  0  0  0  0  0  0  0  0  0  0
   37.4070   21.0070   34.6210 H   0  0  0  0  0  0  0  0  0  0  0  0
   39.6130   22.7490   36.4680 C   0  0  0  0  0  0  0  0  0  0  0  0
   38.3710   23.1500   36.0260 C   0  0  0  0  0  0  0  0  0  0  0  0
   37.5070   23.6350   36.9700 C   0  0  0  0  0  0  0  0  0  0  0  0
   36.5310   23.9630   36.7010 H   0  0  0  0  0  0  0  0  0  0  0  0
   37.8760   23.7150   38.3060 C   0  0  0  0  0  0  0  0  0  0  0  0
   37.1520   24.1090   39.0220 H   0  0  0  0  0  0  0  0  0  0  0  0
   39.1390   23.3020   38.7250 C   0  0  0  0  0  3  0  0  0  0  0  0
   39.9980   22.8180   37.7820 C   0  0  0  0  0  3  0  0  0  0  0  0
   41.4160   21.8030   34.8210 N   0  0  0  0  0  0  0  0  0  0  0  0
   40.6150   22.2160   35.5600 C   0  0  0  0  0  0  0  0  0  0  0  0
  1  6  1  0  0  0  0
  1 30  1  0  0  0  0
  2  1  2  0  0  0  0
  3  4  2  0  0  0  0
  3  2  1  0  0  0  0
  4  5  1  0  0  0  0
  5  7  1  0  0  0  0
  5  6  2  0  0  0  0
  7 12  1  0  0  0  0
  8  9  1  0  0  0  0
  8  7  1  0  0  0  0
  9 10  1  0  0  0  0
  9 19  1  0  0  0  0
 10 20  1  0  0  0  0
 10 11  1  0  0  0  0
 11 12  1  0  0  0  0
 11 23  1  0  0  0  0
 12 24  1  0  0  0  0
 12 25  1  0  0  0  0
 13  2  1  0  0  0  0
 14  3  1  0  0  0  0
 15  4  1  0  0  0  0
 16  8  1  0  0  0  0
 17  8  1  0  0  0  0
 18  9  1  0  0  0  0
 21 10  1  0  0  0  0
 22 11  1  0  0  0  0
 26 27  1  0  0  0  0
 27 28  2  0  0  0  0
 27 33  1  0  0  0  0
 28 35  1  0  0  0  0
 29 28  1  0  0  0  0
 30 29  2  0  0  0  0
 31 30  1  0  0  0  0
 31 26  2  0  0  0  0
 32 26  1  0  0  0  0
 34 41  1  0  0  0  0
 35 34  2  0  0  0  0
 35 36  1  0  0  0  0
 36 38  2  0  0  0  0
 37 36  1  0  0  0  0
 38 40  1  0  0  0  0
 38 39  1  0  0  0  0
 41 40  2  0  0  0  0
 42 43  3  0  0  0  0
 43 34  1  0  0  0  0
M  END
>  <minimizedAffinity>
-5.87354422

$$$$

 OpenBabel03272502573D

 43 46  0  0  0  0  0  0  0  0999 V2000
   35.7500   29.3090   31.6410 C   0  0  0  0  0  0  0  0  0  0  0  0
   36.2290   29.4970   30.3460 C   0  0  0  0  0  0  0  0  0  0  0  0
   37.4290   28.9410   29.9410 C   0  0  0  0  0  0  0  0  0  0  0  0
   38.1130   28.2010   30.8920 C   0  0  0  0  0  0  0  0  0  0  0  0
   37.6530   28.0050   32.1830 C   0  0  0  0  0  0  0  0  0  0  0  0
   36.4660   28.5750   32.5210 N   0  0  0  0  0  0  0  0  0  0  0  0
   38.4350   27.2310   33.0590 N   0  0  0  0  0  0  0  0  0  0  0  0
   39.8040   26.9540   32.7170 C   0  0  0  0  0  0  0  0  0  0  0  0
   40.3300   25.9810   33.7560 C   0  0  0  0  0  0  0  0  0  0  0  0
   40.2240   26.6000   35.1330 C   0  0  0  0  0  0  0  0  0  0  0  0
   38.8480   27.0950   35.4220 C   0  0  0  0  0  0  0  0  0  0  0  0
   37.9260   26.6870   34.3130 C   0  0  0  0  0  0  0  0  0  0  0  0
   35.6140   30.0950   29.6790 H   0  0  0  0  0  0  0  0  0  0  0  0
   37.7900   29.0940   28.9340 H   0  0  0  0  0  0  0  0  0  0  0  0
   39.0500   27.7930   30.5080 H   0  0  0  0  0  0  0  0  0  0  0  0
   40.3480   27.9150   32.7950 H   0  0  0  0  0  0  0  0  0  0  0  0
   39.9400   26.4400   31.7430 H   0  0  0  0  0  0  0  0  0  0  0  0
   41.3850   25.7010   33.5660 H   0  0  0  0  0  0  0  0  0  0  0  0
   39.7250   25.0730   33.6740 H   0  0  0  0  0  0  0  0  0  0  0  0
   40.4230   25.7540   35.8500 H   0  0  0  0  0  0  0  0  0  0  0  0
   41.0080   27.3380   35.3110 H   0  0  0  0  0  0  0  0  0  0  0  0
   38.8860   28.2060   35.4680 H   0  0  0  0  0  0  0  0  0  0  0  0
   38.4730   26.7450   36.3970 H   0  0  0  0  0  0  0  0  0  0  0  0
   37.8310   25.5870   34.2550 H   0  0  0  0  0  0  0  0  0  0  0  0
   36.9220   27.0910   34.5190 H   0  0  0  0  0  0  0  0  0  0  0  0
   32.8160   31.4800   31.7270 C   0  0  0  0  0  0  0  0  0  0  0  0
   32.0950   30.9900   32.8390 C   0  0  0  0  0  0  0  0  0  0  0  0
   32.6360   29.9280   33.5260 C   0  0  0  0  0  0  0  0  0  0  0  0
   33.8230   29.4270   33.0890 N   0  0  0  0  0  0  0  0  0  0  0  0
   34.4950   29.9050   32.0310 C   0  0  0  0  0  0  0  0  0  0  0  0
   33.9810   30.9260   31.3650 N   0  0  0  0  0  0  0  0  0  0  0  0
   32.4380   32.3180   31.1460 H   0  0  0  0  0  0  0  0  0  0  0  0
   31.1720   31.4250   33.1280 H   0  0  0  0  0  0  0  0  0  0  0  0
   32.2740   29.8070   35.9510 C   0  0  0  0  0  0  0  0  0  0  0  0
   31.9900   29.3300   34.6890 C   0  0  0  0  0  0  0  0  0  0  0  0
   31.0950   28.2980   34.6070 C   0  0  0  0  0  0  0  0  0  0  0  0
   30.8280   27.8790   33.6650 H   0  0  0  0  0  0  0  0  0  0  0  0
   30.5080   27.7650   35.7460 C   0  0  0  0  0  0  0  0  0  0  0  0
   29.8010   26.9420   35.6290 H   0  0  0  0  0  0  0  0  0  0  0  0
   30.8140   28.2670   37.0090 C   0  0  0  0  0  3  0  0  0  0  0  0
   31.7060   29.2950   37.0890 C   0  0  0  0  0  3  0  0  0  0  0  0
   33.9700   31.7650   36.3400 N   0  0  0  0  0  0  0  0  0  0  0  0
   33.2080   30.9000   36.1650 C   0  0  0  0  0  0  0  0  0  0  0  0
  1 30  1  0  0  0  0
  1  6  1  0  0  0  0
  2  1  2  0  0  0  0
  3  2  1  0  0  0  0
  3  4  2  0  0  0  0
  4  5  1  0  0  0  0
  5  6  2  0  0  0  0
  5  7  1  0  0  0  0
  7 12  1  0  0  0  0
  8 16  1  0  0  0  0
  8  7  1  0  0  0  0
  8  9  1  0  0  0  0
  9 10  1  0  0  0  0
 10 21  1  0  0  0  0
 10 11  1  0  0  0  0
 10 20  1  0  0  0  0
 11 22  1  0  0  0  0
 11 23  1  0  0  0  0
 12 25  1  0  0  0  0
 12 11  1  0  0  0  0
 13  2  1  0  0  0  0
 14  3  1  0  0  0  0
 15  4  1  0  0  0  0
 17  8  1  0  0  0  0
 18  9  1  0  0  0  0
 19  9  1  0  0  0  0
 24 12  1  0  0  0  0
 26 27  1  0  0  0  0
 27 33  1  0  0  0  0
 27 28  2  0  0  0  0
 28 35  1  0  0  0  0
 29 28  1  0  0  0  0
 30 29  2  0  0  0  0
 31 26  2  0  0  0  0
 31 30  1  0  0  0  0
 32 26  1  0  0  0  0
 34 43  1  0  0  0  0
 34 41  1  0  0  0  0
 35 34  2  0  0  0  0
 36 35  1  0  0  0  0
 36 38  2  0  0  0  0
 37 36  1  0  0  0  0
 38 40  1  0  0  0  0
 39 38  1  0  0  0  0
 40 41  2  0  0  0  0
 43 42  3  0  0  0  0
M  END
>  <minimizedAffinity>
-5.81697083

$$$$

 OpenBabel03272502573D

 43 46  0  0  0  0  0  0  0  0999 V2000
   37.6780   26.0090   33.3840 C   0  0  0  0  0  0  0  0  0  0  0  0
   38.4630   25.9220   34.5330 C   0  0  0  0  0  0  0  0  0  0  0  0
   38.3680   26.8720   35.5340 C   0  0  0  0  0  0  0  0  0  0  0  0
   37.4600   27.8970   35.3230 C   0  0  0  0  0  0  0  0  0  0  0  0
   36.6740   27.9980   34.1880 C   0  0  0  0  0  0  0  0  0  0  0  0
   36.8120   27.0350   33.2390 N   0  0  0  0  0  0  0  0  0  0  0  0
   35.7860   29.0850   34.0870 N   0  0  0  0  0  0  0  0  0  0  0  0
   35.9490   30.2070   34.9720 C   0  0  0  0  0  0  0  0  0  0  0  0
   34.7660   31.1280   34.7370 C   0  0  0  0  0  0  0  0  0  0  0  0
   34.7440   31.5700   33.2890 C   0  0  0  0  0  0  0  0  0  0  0  0
   34.7960   30.4140   32.3490 C   0  0  0  0  0  0  0  0  0  0  0  0
   34.6940   29.1340   33.1210 C   0  0  0  0  0  0  0  0  0  0  0  0
   39.1430   25.0780   34.5980 H   0  0  0  0  0  0  0  0  0  0  0  0
   38.9810   26.7930   36.4210 H   0  0  0  0  0  0  0  0  0  0  0  0
   37.4360   28.6100   36.1490 H   0  0  0  0  0  0  0  0  0  0  0  0
   36.8840   30.7140   34.6670 H   0  0  0  0  0  0  0  0  0  0  0  0
   35.9080   29.9520   36.0510 H   0  0  0  0  0  0  0  0  0  0  0  0
   34.8020   32.0240   35.3880 H   0  0  0  0  0  0  0  0  0  0  0  0
   33.8670   30.5620   34.9990 H   0  0  0  0  0  0  0  0  0  0  0  0
   33.7390   32.0600   33.1490 H   0  0  0  0  0  0  0  0  0  0  0  0
   35.4880   32.3420   33.0860 H   0  0  0  0  0  0  0  0  0  0  0  0
   35.7780   30.4420   31.8250 H   0  0  0  0  0  0  0  0  0  0  0  0
   34.0170   30.4720   31.5720 H   0  0  0  0  0  0  0  0  0  0  0  0
   33.7160   29.0500   33.6290 H   0  0  0  0  0  0  0  0  0  0  0  0
   34.7720   28.2900   32.4190 H   0  0  0  0  0  0  0  0  0  0  0  0
   38.6460   24.2800   30.3170 C   0  0  0  0  0  0  0  0  0  0  0  0
   37.9950   23.0320   30.4400 C   0  0  0  0  0  0  0  0  0  0  0  0
   37.2440   22.8200   31.5730 C   0  0  0  0  0  0  0  0  0  0  0  0
   37.1800   23.8230   32.4910 N   0  0  0  0  0  0  0  0  0  0  0  0
   37.8050   25.0020   32.3560 C   0  0  0  0  0  0  0  0  0  0  0  0
   38.5300   25.2150   31.2710 N   0  0  0  0  0  0  0  0  0  0  0  0
   39.2550   24.5050   29.4430 H   0  0  0  0  0  0  0  0  0  0  0  0
   38.0860   22.2900   29.6870 H   0  0  0  0  0  0  0  0  0  0  0  0
   37.2240   20.4300   32.1320 C   0  0  0  0  0  0  0  0  0  0  0  0
   36.5240   21.5760   31.8190 C   0  0  0  0  0  0  0  0  0  0  0  0
   35.1610   21.4690   31.7590 C   0  0  0  0  0  0  0  0  0  0  0  0
   34.5570   22.3130   31.5220 H   0  0  0  0  0  0  0  0  0  0  0  0
   34.5250   20.2600   32.0020 C   0  0  0  0  0  0  0  0  0  0  0  0
   33.4360   20.2250   31.9410 H   0  0  0  0  0  0  0  0  0  0  0  0
   35.2570   19.1170   32.3160 C   0  0  0  0  0  3  0  0  0  0  0  0
   36.6160   19.2260   32.3760 C   0  0  0  0  0  3  0  0  0  0  0  0
   39.8360   20.3990   32.3160 N   0  0  0  0  0  0  0  0  0  0  0  0
   38.6740   20.4190   32.2270 C   0  0  0  0  0  0  0  0  0  0  0  0
  1  2  1  0  0  0  0
  2 13  1  0  0  0  0
  2  3  2  0  0  0  0
  3 14  1  0  0  0  0
  4  3  1  0  0  0  0
  4 15  1  0  0  0  0
  5  4  2  0  0  0  0
  6  1  2  0  0  0  0
  6  5  1  0  0  0  0
  7  5  1  0  0  0  0
  7  8  1  0  0  0  0
  8 17  1  0  0  0  0
  9  8  1  0  0  0  0
  9 19  1  0  0  0  0
  9 18  1  0  0  0  0
 10  9  1  0  0  0  0
 11 12  1  0  0  0  0
 11 10  1  0  0  0  0
 12 24  1  0  0  0  0
 12  7  1  0  0  0  0
 16  8  1  0  0  0  0
 20 10  1  0  0  0  0
 21 10  1  0  0  0  0
 22 11  1  0  0  0  0
 23 11  1  0  0  0  0
 25 12  1  0  0  0  0
 26 27  2  0  0  0  0
 26 31  1  0  0  0  0
 27 28  1  0  0  0  0
 28 35  1  0  0  0  0
 28 29  2  0  0  0  0
 30 29  1  0  0  0  0
 30  1  1  0  0  0  0
 31 30  2  0  0  0  0
 32 26  1  0  0  0  0
 33 27  1  0  0  0  0
 34 43  1  0  0  0  0
 34 41  1  0  0  0  0
 35 34  2  0  0  0  0
 36 35  1  0  0  0  0
 36 38  2  0  0  0  0
 37 36  1  0  0  0  0
 38 40  1  0  0  0  0
 39 38  1  0  0  0  0
 40 41  2  0  0  0  0
 43 42  3  0  0  0  0
M  END
>  <minimizedAffinity>
-5.80147314

$$$$
