
 OpenBabel03272509043D

 34 36  0  0  0  0  0  0  0  0999 V2000
   37.5040   30.4680   51.0480 C   0  0  0  0  0  0  0  0  0  0  0  0
   37.9830   31.0870   49.8750 C   0  0  0  0  0  0  0  0  0  0  0  0
   37.4040   30.7550   48.6120 C   0  0  0  0  0  0  0  0  0  0  0  0
   36.4070   29.8400   48.6380 N   0  0  0  0  0  0  0  0  0  0  0  0
   35.9810   29.2750   49.7760 C   0  0  0  0  0  0  0  0  0  0  0  0
   36.5090   29.5720   50.9690 N   0  0  0  0  0  0  0  0  0  0  0  0
   37.8630   30.6420   52.0330 H   0  0  0  0  0  0  0  0  0  0  0  0
   38.7650   31.7530   50.1230 H   0  0  0  0  0  0  0  0  0  0  0  0
   37.5700   31.3740   46.1920 C   0  0  0  0  0  0  0  0  0  0  0  0
   37.9990   31.4330   47.4790 C   0  0  0  0  0  0  0  0  0  0  0  0
   39.1190   32.2190   47.6410 C   0  0  0  0  0  0  0  0  0  0  0  0
   39.6140   32.4050   48.5770 H   0  0  0  0  0  0  0  0  0  0  0  0
   39.7470   32.8770   46.6190 C   0  0  0  0  0  0  0  0  0  0  0  0
   40.6230   33.4920   46.7460 H   0  0  0  0  0  0  0  0  0  0  0  0
   39.2820   32.7920   45.3260 C   0  0  0  0  0  3  0  0  0  0  0  0
   38.1640   32.0190   45.1150 C   0  0  0  0  0  3  0  0  0  0  0  0
   35.5390   29.9290   45.5700 N   0  0  0  0  0  0  0  0  0  0  0  0
   36.4450   30.5830   45.8570 C   0  0  0  0  0  0  0  0  0  0  0  0
   34.9000   28.3210   49.6520 C   0  0  0  0  0  3  0  0  0  0  0  0
   34.3650   28.1140   48.4970 C   0  0  0  0  0  3  0  0  0  0  0  0
   33.2790   27.2080   48.1230 C   0  0  0  0  0  0  0  0  0  0  0  0
   32.9100   26.6450   49.0040 H   0  0  0  0  0  0  0  0  0  0  0  0
   32.4260   27.8150   47.7360 H   0  0  0  0  0  0  0  0  0  0  0  0
   33.6810   26.1790   47.1130 C   0  0  0  0  0  0  0  0  0  0  0  0
   33.8830   24.8510   47.3700 C   0  0  0  0  0  0  0  0  0  0  0  0
   34.2540   24.0010   46.3570 C   0  0  0  0  0  0  0  0  0  0  0  0
   34.4360   24.4590   45.0480 C   0  0  0  0  0  0  0  0  0  0  0  0
   34.2360   25.7930   44.7800 C   0  0  0  0  0  0  0  0  0  0  0  0
   33.8610   26.6540   45.8000 C   0  0  0  0  0  0  0  0  0  0  0  0
   33.7370   24.5170   48.3890 H   0  0  0  0  0  0  0  0  0  0  0  0
   34.3990   22.9610   46.6230 H   0  0  0  0  0  0  0  0  0  0  0  0
   34.7330   23.7080   44.3050 H   0  0  0  0  0  0  0  0  0  0  0  0
   34.3820   26.1310   43.7600 H   0  0  0  0  0  0  0  0  0  0  0  0
   33.7300   27.6800   45.4850 H   0  0  0  0  0  0  0  0  0  0  0  0
  1  7  1  0  0  0  0
  2  8  1  0  0  0  0
  2  1  2  0  0  0  0
  3  4  2  0  0  0  0
  3  2  1  0  0  0  0
  4  5  1  0  0  0  0
  5  6  2  0  0  0  0
  6  1  1  0  0  0  0
  9 10  1  0  0  0  0
 10 11  2  0  0  0  0
 10  3  1  0  0  0  0
 11 12  1  0  0  0  0
 13 14  1  0  0  0  0
 13 11  1  0  0  0  0
 15 13  2  0  0  0  0
 16 15  1  0  0  0  0
 16  9  2  0  0  0  0
 17 18  3  0  0  0  0
 18  9  1  0  0  0  0
 19  5  1  0  0  0  0
 20 19  2  0  0  0  0
 21 20  1  0  0  0  0
 21 22  1  0  0  0  0
 23 21  1  0  0  0  0
 24 25  1  0  0  0  0
 24 21  1  0  0  0  0
 25 30  1  0  0  0  0
 26 31  1  0  0  0  0
 26 25  2  0  0  0  0
 27 26  1  0  0  0  0
 28 27  2  0  0  0  0
 28 29  1  0  0  0  0
 29 24  2  0  0  0  0
 32 27  1  0  0  0  0
 33 28  1  0  0  0  0
 34 29  1  0  0  0  0
M  END
>  <minimizedAffinity>
-6.08795643

>  <minimizedRMSD>
0.757858813

$$$$
