
 OpenBabel03272501553D

 25 26  0  0  0  0  0  0  0  0999 V2000
   37.7500   22.8600   33.7350 C   0  0  0  0  0  0  0  0  0  0  0  0
   38.2550   23.4650   32.9610 H   0  0  0  0  0  0  0  0  0  0  0  0
   37.2470   23.5370   34.4400 H   0  0  0  0  0  0  0  0  0  0  0  0
   36.4540   22.2010   31.7260 C   0  0  0  0  0  0  0  0  0  0  0  0
   36.7620   21.9530   33.0480 C   0  0  0  0  0  0  0  0  0  0  0  0
   36.1950   20.9010   33.7670 C   0  0  0  0  0  0  0  0  0  0  0  0
   36.4480   20.7250   34.7950 H   0  0  0  0  0  0  0  0  0  0  0  0
   35.2960   20.0710   33.1520 C   0  0  0  0  0  0  0  0  0  0  0  0
   34.8010   19.2180   33.6390 H   0  0  0  0  0  0  0  0  0  0  0  0
   34.9840   20.3070   31.8410 C   0  0  0  0  0  3  0  0  0  0  0  0
   35.5480   21.3560   31.1200 C   0  0  0  0  0  3  0  0  0  0  0  0
   37.5290   24.1640   30.3820 N   0  0  0  0  0  0  0  0  0  0  0  0
   37.0350   23.2820   30.9820 C   0  0  0  0  0  0  0  0  0  0  0  0
   38.7420   21.9770   34.4470 C   0  0  0  0  0  0  0  0  0  0  0  0
   38.2850   20.9490   34.4280 H   0  0  0  0  0  0  0  0  0  0  0  0
   39.7230   22.0070   33.9330 H   0  0  0  0  0  0  0  0  0  0  0  0
   40.0790   22.6900   37.8260 C   0  0  0  0  0  0  0  0  0  0  0  0
   39.0080   23.3180   38.4590 C   0  0  0  0  0  0  0  0  0  0  0  0
   37.8220   23.5000   37.7300 C   0  0  0  0  0  0  0  0  0  0  0  0
   37.7940   23.0520   36.4550 N   0  0  0  0  0  0  0  0  0  0  0  0
   38.8620   22.4470   35.8790 C   0  0  0  0  0  0  0  0  0  0  0  0
   40.0160   22.2560   36.5500 N   0  0  0  0  0  0  0  0  0  0  0  0
   41.0150   22.5440   38.3910 H   0  0  0  0  0  0  0  0  0  0  0  0
   39.1480   23.6310   39.4830 H   0  0  0  0  0  0  0  0  0  0  0  0
   37.0020   23.9770   38.2040 H   0  0  0  0  0  0  0  0  0  0  0  0
  1  3  1  0  0  0  0
  1 14  1  0  0  0  0
  2  1  1  0  0  0  0
  4  5  1  0  0  0  0
  5  1  1  0  0  0  0
  5  6  2  0  0  0  0
  6  7  1  0  0  0  0
  8  9  1  0  0  0  0
  8  6  1  0  0  0  0
 10  8  2  0  0  0  0
 11  4  2  0  0  0  0
 11 10  1  0  0  0  0
 12 13  3  0  0  0  0
 13  4  1  0  0  0  0
 14 21  1  0  0  0  0
 15 14  1  0  0  0  0
 16 14  1  0  0  0  0
 17 23  1  0  0  0  0
 17 18  1  0  0  0  0
 18 24  1  0  0  0  0
 19 25  1  0  0  0  0
 19 18  2  0  0  0  0
 20 19  1  0  0  0  0
 21 20  2  0  0  0  0
 21 22  1  0  0  0  0
 22 17  2  0  0  0  0
M  END
>  <minimizedAffinity>
-4.55355644

$$$$

 OpenBabel03272501553D

 25 26  0  0  0  0  0  0  0  0999 V2000
   37.4610   22.5470   33.8090 C   0  0  0  0  0  0  0  0  0  0  0  0
   37.5830   23.4090   33.1300 H   0  0  0  0  0  0  0  0  0  0  0  0
   36.8740   22.8660   34.6820 H   0  0  0  0  0  0  0  0  0  0  0  0
   35.8970   20.6240   33.7400 C   0  0  0  0  0  0  0  0  0  0  0  0
   36.7610   21.4490   33.0500 C   0  0  0  0  0  0  0  0  0  0  0  0
   37.0100   21.3040   31.6850 C   0  0  0  0  0  0  0  0  0  0  0  0
   37.6870   21.9570   31.1670 H   0  0  0  0  0  0  0  0  0  0  0  0
   36.3790   20.3100   30.9870 C   0  0  0  0  0  0  0  0  0  0  0  0
   36.5130   20.1220   29.9110 H   0  0  0  0  0  0  0  0  0  0  0  0
   35.5190   19.4870   31.6610 C   0  0  0  0  0  3  0  0  0  0  0  0
   35.2680   19.6280   33.0230 C   0  0  0  0  0  3  0  0  0  0  0  0
   35.4360   20.8720   36.2980 N   0  0  0  0  0  0  0  0  0  0  0  0
   35.6380   20.7700   35.1440 C   0  0  0  0  0  0  0  0  0  0  0  0
   38.8050   22.0090   34.2280 C   0  0  0  0  0  0  0  0  0  0  0  0
   38.7070   20.8900   34.1590 H   0  0  0  0  0  0  0  0  0  0  0  0
   39.6000   22.4000   33.5630 H   0  0  0  0  0  0  0  0  0  0  0  0
   40.3770   22.4000   37.5580 C   0  0  0  0  0  0  0  0  0  0  0  0
   39.4350   23.1470   38.2610 C   0  0  0  0  0  0  0  0  0  0  0  0
   38.2550   23.5210   37.5980 C   0  0  0  0  0  0  0  0  0  0  0  0
   38.1080   23.1300   36.3130 N   0  0  0  0  0  0  0  0  0  0  0  0
   39.0530   22.4030   35.6670 C   0  0  0  0  0  0  0  0  0  0  0  0
   40.1970   22.0280   36.2740 N   0  0  0  0  0  0  0  0  0  0  0  0
   41.3070   22.1040   38.0710 H   0  0  0  0  0  0  0  0  0  0  0  0
   39.6630   23.4000   39.2870 H   0  0  0  0  0  0  0  0  0  0  0  0
   37.5330   24.0900   38.1270 H   0  0  0  0  0  0  0  0  0  0  0  0
  1 14  1  0  0  0  0
  1  3  1  0  0  0  0
  2  1  1  0  0  0  0
  4 13  1  0  0  0  0
  5  4  1  0  0  0  0
  5  1  1  0  0  0  0
  6  5  2  0  0  0  0
  7  6  1  0  0  0  0
  8 10  2  0  0  0  0
  8  6  1  0  0  0  0
  9  8  1  0  0  0  0
 10 11  1  0  0  0  0
 11  4  2  0  0  0  0
 13 12  3  0  0  0  0
 14 21  1  0  0  0  0
 15 14  1  0  0  0  0
 16 14  1  0  0  0  0
 17 23  1  0  0  0  0
 17 18  1  0  0  0  0
 18 24  1  0  0  0  0
 19 25  1  0  0  0  0
 19 18  2  0  0  0  0
 20 19  1  0  0  0  0
 21 22  1  0  0  0  0
 21 20  2  0  0  0  0
 22 17  2  0  0  0  0
M  END
>  <minimizedAffinity>
-4.47867155

$$$$

 OpenBabel03272501553D

 25 26  0  0  0  0  0  0  0  0999 V2000
   38.5490   26.9180   35.6350 C   0  0  0  0  0  0  0  0  0  0  0  0
   39.5800   26.6690   35.9430 H   0  0  0  0  0  0  0  0  0  0  0  0
   38.2240   27.8140   36.1820 H   0  0  0  0  0  0  0  0  0  0  0  0
   39.7350   26.9860   33.4580 C   0  0  0  0  0  0  0  0  0  0  0  0
   38.5510   27.1560   34.1470 C   0  0  0  0  0  0  0  0  0  0  0  0
   37.3660   27.5380   33.5200 C   0  0  0  0  0  0  0  0  0  0  0  0
   36.4550   27.6650   34.0750 H   0  0  0  0  0  0  0  0  0  0  0  0
   37.3570   27.7570   32.1690 C   0  0  0  0  0  0  0  0  0  0  0  0
   36.4700   28.0590   31.5920 H   0  0  0  0  0  0  0  0  0  0  0  0
   38.5240   27.5900   31.4750 C   0  0  0  0  0  3  0  0  0  0  0  0
   39.7100   27.2080   32.0970 C   0  0  0  0  0  3  0  0  0  0  0  0
   41.9520   26.2500   34.6240 N   0  0  0  0  0  0  0  0  0  0  0  0
   40.9570   26.5920   34.0980 C   0  0  0  0  0  0  0  0  0  0  0  0
   37.6230   25.7590   35.8980 C   0  0  0  0  0  0  0  0  0  0  0  0
   36.8320   26.1670   36.5870 H   0  0  0  0  0  0  0  0  0  0  0  0
   37.1940   25.3860   34.9470 H   0  0  0  0  0  0  0  0  0  0  0  0
   38.7860   23.3620   38.4690 C   0  0  0  0  0  0  0  0  0  0  0  0
   39.8410   22.7100   37.8330 C   0  0  0  0  0  0  0  0  0  0  0  0
   40.1580   23.0890   36.5190 C   0  0  0  0  0  0  0  0  0  0  0  0
   39.4180   24.0670   35.9520 N   0  0  0  0  0  0  0  0  0  0  0  0
   38.3990   24.6740   36.6100 C   0  0  0  0  0  0  0  0  0  0  0  0
   38.0670   24.3350   37.8720 N   0  0  0  0  0  0  0  0  0  0  0  0
   38.5300   23.0690   39.5010 H   0  0  0  0  0  0  0  0  0  0  0  0
   40.3620   21.9440   38.3890 H   0  0  0  0  0  0  0  0  0  0  0  0
   40.9600   22.5980   36.0270 H   0  0  0  0  0  0  0  0  0  0  0  0
  1 14  1  0  0  0  0
  1  2  1  0  0  0  0
  1  3  1  0  0  0  0
  4 13  1  0  0  0  0
  4  5  1  0  0  0  0
  5  1  1  0  0  0  0
  6  7  1  0  0  0  0
  6  5  2  0  0  0  0
  8  6  1  0  0  0  0
  9  8  1  0  0  0  0
 10 11  1  0  0  0  0
 10  8  2  0  0  0  0
 11  4  2  0  0  0  0
 13 12  3  0  0  0  0
 14 15  1  0  0  0  0
 14 21  1  0  0  0  0
 16 14  1  0  0  0  0
 17 23  1  0  0  0  0
 18 24  1  0  0  0  0
 18 17  2  0  0  0  0
 19 18  1  0  0  0  0
 20 19  2  0  0  0  0
 20 21  1  0  0  0  0
 21 22  2  0  0  0  0
 22 17  1  0  0  0  0
 25 19  1  0  0  0  0
M  END
>  <minimizedAffinity>
-4.43804026

$$$$

 OpenBabel03272501553D

 25 26  0  0  0  0  0  0  0  0999 V2000
   39.2430   26.1910   34.6590 C   0  0  0  0  0  0  0  0  0  0  0  0
   40.1530   26.2540   34.0360 H   0  0  0  0  0  0  0  0  0  0  0  0
   39.4890   26.5280   35.6760 H   0  0  0  0  0  0  0  0  0  0  0  0
   38.2610   27.3120   32.6770 C   0  0  0  0  0  0  0  0  0  0  0  0
   38.1870   27.0650   34.0330 C   0  0  0  0  0  0  0  0  0  0  0  0
   37.1780   27.5910   34.8390 C   0  0  0  0  0  0  0  0  0  0  0  0
   37.1390   27.3860   35.8920 H   0  0  0  0  0  0  0  0  0  0  0  0
   36.2140   28.3860   34.2800 C   0  0  0  0  0  0  0  0  0  0  0  0
   35.3820   28.8420   34.8370 H   0  0  0  0  0  0  0  0  0  0  0  0
   36.2770   28.6370   32.9360 C   0  0  0  0  0  3  0  0  0  0  0  0
   37.2820   28.1140   32.1290 C   0  0  0  0  0  3  0  0  0  0  0  0
   40.1420   26.3120   31.1680 N   0  0  0  0  0  0  0  0  0  0  0  0
   39.2970   26.7730   31.8440 C   0  0  0  0  0  0  0  0  0  0  0  0
   38.7050   24.7840   34.6710 C   0  0  0  0  0  0  0  0  0  0  0  0
   37.6230   24.8820   34.3770 H   0  0  0  0  0  0  0  0  0  0  0  0
   39.2730   24.1490   33.9620 H   0  0  0  0  0  0  0  0  0  0  0  0
   39.7760   22.8660   37.6520 C   0  0  0  0  0  0  0  0  0  0  0  0
   38.9050   23.3180   38.6420 C   0  0  0  0  0  0  0  0  0  0  0  0
   37.9460   24.2820   38.2920 C   0  0  0  0  0  0  0  0  0  0  0  0
   37.9290   24.7130   37.0110 N   0  0  0  0  0  0  0  0  0  0  0  0
   38.7970   24.2450   36.0800 C   0  0  0  0  0  0  0  0  0  0  0  0
   39.7300   23.3200   36.3820 N   0  0  0  0  0  0  0  0  0  0  0  0
   40.5330   22.1100   37.9190 H   0  0  0  0  0  0  0  0  0  0  0  0
   39.0140   22.8980   39.6310 H   0  0  0  0  0  0  0  0  0  0  0  0
   37.2790   24.6310   39.0390 H   0  0  0  0  0  0  0  0  0  0  0  0
  1 14  1  0  0  0  0
  1  3  1  0  0  0  0
  2  1  1  0  0  0  0
  4  5  1  0  0  0  0
  5  1  1  0  0  0  0
  5  6  2  0  0  0  0
  6  7  1  0  0  0  0
  8  9  1  0  0  0  0
  8  6  1  0  0  0  0
 10  8  2  0  0  0  0
 11  4  2  0  0  0  0
 11 10  1  0  0  0  0
 12 13  3  0  0  0  0
 13  4  1  0  0  0  0
 14 21  1  0  0  0  0
 15 14  1  0  0  0  0
 16 14  1  0  0  0  0
 17 23  1  0  0  0  0
 17 18  1  0  0  0  0
 18 24  1  0  0  0  0
 19 18  2  0  0  0  0
 19 25  1  0  0  0  0
 20 19  1  0  0  0  0
 21 22  1  0  0  0  0
 21 20  2  0  0  0  0
 22 17  2  0  0  0  0
M  END
>  <minimizedAffinity>
-4.39877844

$$$$

 OpenBabel03272501553D

 25 26  0  0  0  0  0  0  0  0999 V2000
   38.7380   23.9300   34.2780 C   0  0  0  0  0  0  0  0  0  0  0  0
   39.7620   23.8150   33.8810 H   0  0  0  0  0  0  0  0  0  0  0  0
   38.0910   23.1740   33.8080 H   0  0  0  0  0  0  0  0  0  0  0  0
   39.7720   22.9350   36.3000 C   0  0  0  0  0  0  0  0  0  0  0  0
   38.7920   23.7510   35.7730 C   0  0  0  0  0  0  0  0  0  0  0  0
   37.8560   24.4110   36.5690 C   0  0  0  0  0  0  0  0  0  0  0  0
   37.1020   25.0420   36.1390 H   0  0  0  0  0  0  0  0  0  0  0  0
   37.8970   24.2560   37.9280 C   0  0  0  0  0  0  0  0  0  0  0  0
   37.2020   24.7370   38.6320 H   0  0  0  0  0  0  0  0  0  0  0  0
   38.8650   23.4490   38.4620 C   0  0  0  0  0  3  0  0  0  0  0  0
   39.8010   22.7890   37.6710 C   0  0  0  0  0  3  0  0  0  0  0  0
   41.5300   21.6800   34.8320 N   0  0  0  0  0  0  0  0  0  0  0  0
   40.7370   22.2530   35.4850 C   0  0  0  0  0  0  0  0  0  0  0  0
   38.2210   25.3200   34.0150 C   0  0  0  0  0  0  0  0  0  0  0  0
   37.7120   25.6290   34.9710 H   0  0  0  0  0  0  0  0  0  0  0  0
   39.0560   25.9980   33.7510 H   0  0  0  0  0  0  0  0  0  0  0  0
   35.9300   24.0410   31.4030 C   0  0  0  0  0  0  0  0  0  0  0  0
   35.3520   25.2040   30.8980 C   0  0  0  0  0  0  0  0  0  0  0  0
   35.7450   26.4340   31.4520 C   0  0  0  0  0  0  0  0  0  0  0  0
   36.6630   26.4100   32.4420 N   0  0  0  0  0  0  0  0  0  0  0  0
   37.1990   25.2520   32.9030 C   0  0  0  0  0  0  0  0  0  0  0  0
   36.8440   24.0550   32.3940 N   0  0  0  0  0  0  0  0  0  0  0  0
   35.6260   23.0720   30.9740 H   0  0  0  0  0  0  0  0  0  0  0  0
   34.6290   25.0980   30.1020 H   0  0  0  0  0  0  0  0  0  0  0  0
   35.3100   27.3240   31.0730 H   0  0  0  0  0  0  0  0  0  0  0  0
  1  5  1  0  0  0  0
  2  1  1  0  0  0  0
  3  1  1  0  0  0  0
  4 11  1  0  0  0  0
  5  4  2  0  0  0  0
  5  6  1  0  0  0  0
  6  8  2  0  0  0  0
  7  6  1  0  0  0  0
  8 10  1  0  0  0  0
  8  9  1  0  0  0  0
 11 10  2  0  0  0  0
 12 13  3  0  0  0  0
 13  4  1  0  0  0  0
 14  1  1  0  0  0  0
 14 15  1  0  0  0  0
 16 14  1  0  0  0  0
 17 22  1  0  0  0  0
 18 17  2  0  0  0  0
 18 19  1  0  0  0  0
 19 20  2  0  0  0  0
 20 21  1  0  0  0  0
 21 14  1  0  0  0  0
 22 21  2  0  0  0  0
 23 17  1  0  0  0  0
 24 18  1  0  0  0  0
 25 19  1  0  0  0  0
M  END
>  <minimizedAffinity>
-4.37014771

$$$$

 OpenBabel03272501553D

 25 26  0  0  0  0  0  0  0  0999 V2000
   38.2470   23.3130   34.5850 C   0  0  0  0  0  0  0  0  0  0  0  0
   39.2010   22.8350   34.8710 H   0  0  0  0  0  0  0  0  0  0  0  0
   37.4310   22.8360   35.1450 H   0  0  0  0  0  0  0  0  0  0  0  0
   38.1890   25.1780   36.2180 C   0  0  0  0  0  0  0  0  0  0  0  0
   38.3460   24.7820   34.9050 C   0  0  0  0  0  0  0  0  0  0  0  0
   38.5890   25.6870   33.8720 C   0  0  0  0  0  0  0  0  0  0  0  0
   38.7080   25.3580   32.8570 H   0  0  0  0  0  0  0  0  0  0  0  0
   38.6800   27.0230   34.1530 C   0  0  0  0  0  0  0  0  0  0  0  0
   38.8710   27.8060   33.4040 H   0  0  0  0  0  0  0  0  0  0  0  0
   38.5280   27.4270   35.4510 C   0  0  0  0  0  3  0  0  0  0  0  0
   38.2850   26.5280   36.4850 C   0  0  0  0  0  3  0  0  0  0  0  0
   37.7220   23.4800   38.1460 N   0  0  0  0  0  0  0  0  0  0  0  0
   37.9380   24.2510   37.2850 C   0  0  0  0  0  0  0  0  0  0  0  0
   38.0230   23.1980   33.0990 C   0  0  0  0  0  0  0  0  0  0  0  0
   37.6580   24.2130   32.7780 H   0  0  0  0  0  0  0  0  0  0  0  0
   38.9630   22.9130   32.5890 H   0  0  0  0  0  0  0  0  0  0  0  0
   35.5980   20.4420   33.5860 C   0  0  0  0  0  0  0  0  0  0  0  0
   34.9740   20.3530   32.3440 C   0  0  0  0  0  0  0  0  0  0  0  0
   35.3810   21.2380   31.3320 C   0  0  0  0  0  0  0  0  0  0  0  0
   36.3570   22.1230   31.6300 N   0  0  0  0  0  0  0  0  0  0  0  0
   36.9370   22.1740   32.8550 C   0  0  0  0  0  0  0  0  0  0  0  0
   36.5700   21.3400   33.8480 N   0  0  0  0  0  0  0  0  0  0  0  0
   35.2830   19.7520   34.3860 H   0  0  0  0  0  0  0  0  0  0  0  0
   34.2050   19.6020   32.2240 H   0  0  0  0  0  0  0  0  0  0  0  0
   34.9100   21.1770   30.3830 H   0  0  0  0  0  0  0  0  0  0  0  0
  1  2  1  0  0  0  0
  1  5  1  0  0  0  0
  1  3  1  0  0  0  0
  4 11  1  0  0  0  0
  4 13  1  0  0  0  0
  5  4  2  0  0  0  0
  6  8  2  0  0  0  0
  6  5  1  0  0  0  0
  7  6  1  0  0  0  0
  8 10  1  0  0  0  0
  9  8  1  0  0  0  0
 10 11  2  0  0  0  0
 13 12  3  0  0  0  0
 14  1  1  0  0  0  0
 15 14  1  0  0  0  0
 16 14  1  0  0  0  0
 17 22  1  0  0  0  0
 17 23  1  0  0  0  0
 18 17  2  0  0  0  0
 19 20  2  0  0  0  0
 19 18  1  0  0  0  0
 20 21  1  0  0  0  0
 21 14  1  0  0  0  0
 21 22  2  0  0  0  0
 24 18  1  0  0  0  0
 25 19  1  0  0  0  0
M  END
>  <minimizedAffinity>
-4.33877325

$$$$

 OpenBabel03272501553D

 25 26  0  0  0  0  0  0  0  0999 V2000
   37.9480   24.4900   33.6240 C   0  0  0  0  0  0  0  0  0  0  0  0
   37.2100   23.9270   34.2240 H   0  0  0  0  0  0  0  0  0  0  0  0
   38.4210   23.8000   32.9100 H   0  0  0  0  0  0  0  0  0  0  0  0
   36.3260   25.2680   31.9180 C   0  0  0  0  0  0  0  0  0  0  0  0
   37.2220   25.6020   32.9130 C   0  0  0  0  0  0  0  0  0  0  0  0
   37.4790   26.9220   33.2790 C   0  0  0  0  0  0  0  0  0  0  0  0
   38.1810   27.1610   34.0560 H   0  0  0  0  0  0  0  0  0  0  0  0
   36.8250   27.9400   32.6390 C   0  0  0  0  0  0  0  0  0  0  0  0
   36.9640   29.0080   32.8620 H   0  0  0  0  0  0  0  0  0  0  0  0
   35.9330   27.6200   31.6520 C   0  0  0  0  0  3  0  0  0  0  0  0
   35.6740   26.3040   31.2830 C   0  0  0  0  0  3  0  0  0  0  0  0
   35.8570   22.7960   31.2170 N   0  0  0  0  0  0  0  0  0  0  0  0
   36.0580   23.9100   31.5370 C   0  0  0  0  0  0  0  0  0  0  0  0
   38.9770   25.1320   34.5180 C   0  0  0  0  0  0  0  0  0  0  0  0
   39.9660   24.9300   34.0180 H   0  0  0  0  0  0  0  0  0  0  0  0
   38.7760   26.2160   34.6190 H   0  0  0  0  0  0  0  0  0  0  0  0
   39.7620   22.8700   37.3420 C   0  0  0  0  0  0  0  0  0  0  0  0
   38.8300   23.2430   38.3080 C   0  0  0  0  0  0  0  0  0  0  0  0
   37.9270   24.2720   37.9960 C   0  0  0  0  0  0  0  0  0  0  0  0
   38.0200   24.8370   36.7720 N   0  0  0  0  0  0  0  0  0  0  0  0
   38.9450   24.4420   35.8630 C   0  0  0  0  0  0  0  0  0  0  0  0
   39.8270   23.4580   36.1300 N   0  0  0  0  0  0  0  0  0  0  0  0
   40.4760   22.0640   37.5800 H   0  0  0  0  0  0  0  0  0  0  0  0
   38.8500   22.7150   39.2510 H   0  0  0  0  0  0  0  0  0  0  0  0
   37.2130   24.5610   38.7260 H   0  0  0  0  0  0  0  0  0  0  0  0
  1  2  1  0  0  0  0
  1 14  1  0  0  0  0
  3  1  1  0  0  0  0
  4  5  1  0  0  0  0
  5  6  2  0  0  0  0
  5  1  1  0  0  0  0
  6  7  1  0  0  0  0
  8  9  1  0  0  0  0
  8  6  1  0  0  0  0
 10  8  2  0  0  0  0
 11 10  1  0  0  0  0
 11  4  2  0  0  0  0
 12 13  3  0  0  0  0
 13  4  1  0  0  0  0
 14 16  1  0  0  0  0
 14 21  1  0  0  0  0
 15 14  1  0  0  0  0
 17 23  1  0  0  0  0
 17 18  1  0  0  0  0
 18 24  1  0  0  0  0
 19 18  2  0  0  0  0
 19 25  1  0  0  0  0
 20 19  1  0  0  0  0
 21 22  1  0  0  0  0
 21 20  2  0  0  0  0
 22 17  2  0  0  0  0
M  END
>  <minimizedAffinity>
-4.32325983

$$$$

 OpenBabel03272501553D

 25 26  0  0  0  0  0  0  0  0999 V2000
   38.5640   26.6790   35.1610 C   0  0  0  0  0  0  0  0  0  0  0  0
   39.4410   26.2000   34.6900 H   0  0  0  0  0  0  0  0  0  0  0  0
   38.9160   27.3850   35.9260 H   0  0  0  0  0  0  0  0  0  0  0  0
   38.2420   27.3080   32.7840 C   0  0  0  0  0  0  0  0  0  0  0  0
   37.7820   27.3840   34.0830 C   0  0  0  0  0  0  0  0  0  0  0  0
   36.6300   28.0880   34.4320 C   0  0  0  0  0  0  0  0  0  0  0  0
   36.2890   28.1350   35.4480 H   0  0  0  0  0  0  0  0  0  0  0  0
   35.9130   28.7320   33.4600 C   0  0  0  0  0  0  0  0  0  0  0  0
   34.9930   29.3080   33.6420 H   0  0  0  0  0  0  0  0  0  0  0  0
   36.3580   28.6620   32.1680 C   0  0  0  0  0  3  0  0  0  0  0  0
   37.5080   27.9610   31.8160 C   0  0  0  0  0  3  0  0  0  0  0  0
   40.3890   25.9760   32.1260 N   0  0  0  0  0  0  0  0  0  0  0  0
   39.4270   26.5860   32.4200 C   0  0  0  0  0  0  0  0  0  0  0  0
   37.6530   25.6410   35.7620 C   0  0  0  0  0  0  0  0  0  0  0  0
   37.0520   26.1930   36.5380 H   0  0  0  0  0  0  0  0  0  0  0  0
   37.0100   25.1930   34.9790 H   0  0  0  0  0  0  0  0  0  0  0  0
   38.9510   23.2100   38.2360 C   0  0  0  0  0  0  0  0  0  0  0  0
   40.0780   22.6920   37.6010 C   0  0  0  0  0  0  0  0  0  0  0  0
   40.3990   23.1730   36.3210 C   0  0  0  0  0  0  0  0  0  0  0  0
   39.5900   24.1130   35.7840 N   0  0  0  0  0  0  0  0  0  0  0  0
   38.5020   24.5890   36.4400 C   0  0  0  0  0  0  0  0  0  0  0  0
   38.1650   24.1490   37.6680 N   0  0  0  0  0  0  0  0  0  0  0  0
   38.6920   22.8360   39.2400 H   0  0  0  0  0  0  0  0  0  0  0  0
   40.6500   21.9440   38.1310 H   0  0  0  0  0  0  0  0  0  0  0  0
   41.2550   22.7840   35.8310 H   0  0  0  0  0  0  0  0  0  0  0  0
  1 14  1  0  0  0  0
  1  3  1  0  0  0  0
  2  1  1  0  0  0  0
  4  5  1  0  0  0  0
  5  6  2  0  0  0  0
  5  1  1  0  0  0  0
  6  7  1  0  0  0  0
  8  9  1  0  0  0  0
  8  6  1  0  0  0  0
 10  8  2  0  0  0  0
 11 10  1  0  0  0  0
 11  4  2  0  0  0  0
 12 13  3  0  0  0  0
 13  4  1  0  0  0  0
 14 21  1  0  0  0  0
 14 15  1  0  0  0  0
 16 14  1  0  0  0  0
 17 23  1  0  0  0  0
 18 24  1  0  0  0  0
 18 17  2  0  0  0  0
 19 18  1  0  0  0  0
 20 19  2  0  0  0  0
 20 21  1  0  0  0  0
 21 22  2  0  0  0  0
 22 17  1  0  0  0  0
 25 19  1  0  0  0  0
M  END
>  <minimizedAffinity>
-4.30684614

$$$$

 OpenBabel03272501553D

 25 26  0  0  0  0  0  0  0  0999 V2000
   35.2900   29.5510   33.5180 C   0  0  0  0  0  0  0  0  0  0  0  0
   34.4100   29.0260   33.1060 H   0  0  0  0  0  0  0  0  0  0  0  0
   35.7170   30.1930   32.7340 H   0  0  0  0  0  0  0  0  0  0  0  0
   33.5030   30.3210   35.0540 C   0  0  0  0  0  0  0  0  0  0  0  0
   34.8370   30.3620   34.7040 C   0  0  0  0  0  0  0  0  0  0  0  0
   35.7740   31.1240   35.4020 C   0  0  0  0  0  0  0  0  0  0  0  0
   36.8080   31.1420   35.1130 H   0  0  0  0  0  0  0  0  0  0  0  0
   35.3730   31.8640   36.4810 C   0  0  0  0  0  0  0  0  0  0  0  0
   36.0410   32.4910   37.0900 H   0  0  0  0  0  0  0  0  0  0  0  0
   34.0530   31.8300   36.8380 C   0  0  0  0  0  3  0  0  0  0  0  0
   33.1140   31.0720   36.1440 C   0  0  0  0  0  3  0  0  0  0  0  0
   31.7560   28.8960   33.7380 N   0  0  0  0  0  0  0  0  0  0  0  0
   32.5350   29.5400   34.3390 C   0  0  0  0  0  0  0  0  0  0  0  0
   36.3110   28.5630   34.0200 C   0  0  0  0  0  0  0  0  0  0  0  0
   37.2900   29.1170   33.9980 H   0  0  0  0  0  0  0  0  0  0  0  0
   36.0470   28.2230   35.0410 H   0  0  0  0  0  0  0  0  0  0  0  0
   35.8220   26.4260   31.0360 C   0  0  0  0  0  0  0  0  0  0  0  0
   36.5170   25.2650   31.3670 C   0  0  0  0  0  0  0  0  0  0  0  0
   37.1580   25.2080   32.6150 C   0  0  0  0  0  0  0  0  0  0  0  0
   37.0580   26.2890   33.4200 N   0  0  0  0  0  0  0  0  0  0  0  0
   36.3700   27.4000   33.0560 C   0  0  0  0  0  0  0  0  0  0  0  0
   35.7440   27.4870   31.8650 N   0  0  0  0  0  0  0  0  0  0  0  0
   35.3170   26.4780   30.0570 H   0  0  0  0  0  0  0  0  0  0  0  0
   36.5260   24.4640   30.6410 H   0  0  0  0  0  0  0  0  0  0  0  0
   37.6900   24.3280   32.8750 H   0  0  0  0  0  0  0  0  0  0  0  0
  1 14  1  0  0  0  0
  1  5  1  0  0  0  0
  2  1  1  0  0  0  0
  3  1  1  0  0  0  0
  4 11  1  0  0  0  0
  5  4  2  0  0  0  0
  5  6  1  0  0  0  0
  6  8  2  0  0  0  0
  7  6  1  0  0  0  0
  8 10  1  0  0  0  0
  8  9  1  0  0  0  0
 11 10  2  0  0  0  0
 12 13  3  0  0  0  0
 13  4  1  0  0  0  0
 14 16  1  0  0  0  0
 15 14  1  0  0  0  0
 17 18  2  0  0  0  0
 17 22  1  0  0  0  0
 18 19  1  0  0  0  0
 19 25  1  0  0  0  0
 19 20  2  0  0  0  0
 21 20  1  0  0  0  0
 21 14  1  0  0  0  0
 22 21  2  0  0  0  0
 23 17  1  0  0  0  0
 24 18  1  0  0  0  0
M  END
>  <minimizedAffinity>
-4.24843454

$$$$
