
 OpenBabel03272509053D

 34 36  0  0  0  0  0  0  0  0999 V2000
   37.5090   30.4610   51.0520 C   0  0  0  0  0  0  0  0  0  0  0  0
   37.9870   31.0820   49.8790 C   0  0  0  0  0  0  0  0  0  0  0  0
   37.4060   30.7530   48.6160 C   0  0  0  0  0  0  0  0  0  0  0  0
   36.4070   29.8410   48.6420 N   0  0  0  0  0  0  0  0  0  0  0  0
   35.9820   29.2740   49.7800 C   0  0  0  0  0  0  0  0  0  0  0  0
   36.5120   29.5680   50.9720 N   0  0  0  0  0  0  0  0  0  0  0  0
   37.8700   30.6330   52.0370 H   0  0  0  0  0  0  0  0  0  0  0  0
   38.7710   31.7460   50.1280 H   0  0  0  0  0  0  0  0  0  0  0  0
   37.5740   31.3700   46.1970 C   0  0  0  0  0  0  0  0  0  0  0  0
   38.0000   31.4330   47.4840 C   0  0  0  0  0  0  0  0  0  0  0  0
   39.1180   32.2220   47.6480 C   0  0  0  0  0  0  0  0  0  0  0  0
   39.6120   32.4100   48.5840 H   0  0  0  0  0  0  0  0  0  0  0  0
   39.7460   32.8810   46.6260 C   0  0  0  0  0  0  0  0  0  0  0  0
   40.6200   33.4990   46.7540 H   0  0  0  0  0  0  0  0  0  0  0  0
   39.2830   32.7950   45.3320 C   0  0  0  0  0  3  0  0  0  0  0  0
   38.1680   32.0170   45.1210 C   0  0  0  0  0  3  0  0  0  0  0  0
   35.5350   29.9390   45.5700 N   0  0  0  0  0  0  0  0  0  0  0  0
   36.4510   30.5760   45.8610 C   0  0  0  0  0  0  0  0  0  0  0  0
   34.8990   28.3220   49.6550 C   0  0  0  0  0  3  0  0  0  0  0  0
   34.3670   28.1120   48.4990 C   0  0  0  0  0  3  0  0  0  0  0  0
   33.2800   27.2080   48.1240 C   0  0  0  0  0  0  0  0  0  0  0  0
   32.9110   26.6450   49.0040 H   0  0  0  0  0  0  0  0  0  0  0  0
   32.4280   27.8160   47.7380 H   0  0  0  0  0  0  0  0  0  0  0  0
   33.6810   26.1800   47.1130 C   0  0  0  0  0  0  0  0  0  0  0  0
   33.8810   24.8510   47.3670 C   0  0  0  0  0  0  0  0  0  0  0  0
   34.2510   24.0020   46.3540 C   0  0  0  0  0  0  0  0  0  0  0  0
   34.4330   24.4620   45.0450 C   0  0  0  0  0  0  0  0  0  0  0  0
   34.2340   25.7970   44.7790 C   0  0  0  0  0  0  0  0  0  0  0  0
   33.8610   26.6570   45.8000 C   0  0  0  0  0  0  0  0  0  0  0  0
   33.7350   24.5160   48.3860 H   0  0  0  0  0  0  0  0  0  0  0  0
   34.3950   22.9620   46.6180 H   0  0  0  0  0  0  0  0  0  0  0  0
   34.7290   23.7120   44.3010 H   0  0  0  0  0  0  0  0  0  0  0  0
   34.3800   26.1360   43.7590 H   0  0  0  0  0  0  0  0  0  0  0  0
   33.7310   27.6830   45.4870 H   0  0  0  0  0  0  0  0  0  0  0  0
  1  7  1  0  0  0  0
  2  8  1  0  0  0  0
  2  1  2  0  0  0  0
  3  4  2  0  0  0  0
  3  2  1  0  0  0  0
  4  5  1  0  0  0  0
  5  6  2  0  0  0  0
  6  1  1  0  0  0  0
  9 10  1  0  0  0  0
 10 11  2  0  0  0  0
 10  3  1  0  0  0  0
 11 12  1  0  0  0  0
 13 14  1  0  0  0  0
 13 11  1  0  0  0  0
 15 13  2  0  0  0  0
 16 15  1  0  0  0  0
 16  9  2  0  0  0  0
 17 18  3  0  0  0  0
 18  9  1  0  0  0  0
 19  5  1  0  0  0  0
 20 19  2  0  0  0  0
 21 20  1  0  0  0  0
 21 22  1  0  0  0  0
 23 21  1  0  0  0  0
 24 25  1  0  0  0  0
 24 21  1  0  0  0  0
 25 30  1  0  0  0  0
 26 31  1  0  0  0  0
 26 25  2  0  0  0  0
 27 26  1  0  0  0  0
 28 27  2  0  0  0  0
 28 29  1  0  0  0  0
 29 24  2  0  0  0  0
 32 27  1  0  0  0  0
 33 28  1  0  0  0  0
 34 29  1  0  0  0  0
M  END
>  <minimizedAffinity>
-6.09398365

>  <minimizedRMSD>
0.814602673

$$$$
