
 OpenBabel03272505123D

 40 43  0  0  0  0  0  0  0  0999 V2000
   34.0640   29.9560   47.5330 S   0  0  0  0  0  0  0  0  0  0  0  0
   36.3970   30.9080   45.7090 Cl  0  0  0  0  0  0  0  0  0  0  0  0
   36.6940   30.7780   47.4220 C   0  0  0  0  0  0  0  0  0  0  0  0
   37.9550   31.1070   47.8790 C   0  0  0  0  0  0  0  0  0  0  0  0
   38.1980   31.0070   49.2440 C   0  0  0  0  0  0  0  0  0  0  0  0
   37.1970   30.5900   50.0870 C   0  0  0  0  0  0  0  0  0  0  0  0
   35.9570   30.2780   49.5620 C   0  0  0  0  0  0  0  0  0  0  0  0
   35.6420   30.3520   48.2280 C   0  0  0  0  0  0  0  0  0  0  0  0
   39.1640   31.2530   49.6390 H   0  0  0  0  0  0  0  0  0  0  0  0
   37.3820   30.5110   51.1510 H   0  0  0  0  0  0  0  0  0  0  0  0
   35.1800   29.9500   50.2450 H   0  0  0  0  0  0  0  0  0  0  0  0
   40.2140   33.3130   46.0690 C   0  0  0  0  0  0  0  0  0  0  0  0
   40.9230   32.4560   45.2010 C   0  0  0  0  0  0  0  0  0  0  0  0
   40.5980   31.0970   45.2610 C   0  0  0  0  0  0  0  0  0  0  0  0
   39.6310   30.6810   46.1350 N   0  0  0  0  0  0  0  0  0  0  0  0
   38.9910   31.5470   46.9370 C   0  0  0  0  0  0  0  0  0  0  0  0
   39.2850   32.8470   46.8990 N   0  0  0  0  0  0  0  0  0  0  0  0
   40.3920   34.3930   46.1030 H   0  0  0  0  0  0  0  0  0  0  0  0
   41.6630   32.8970   44.5540 H   0  0  0  0  0  0  0  0  0  0  0  0
   41.1290   30.4350   44.6050 H   0  0  0  0  0  0  0  0  0  0  0  0
   33.7300   29.1770   44.5060 Cl  0  0  0  0  0  0  0  0  0  0  0  0
   33.7840   27.9620   45.7750 C   0  0  0  0  0  0  0  0  0  0  0  0
   33.9290   28.2120   47.1290 C   0  0  0  0  0  0  0  0  0  0  0  0
   33.9570   27.1710   48.0280 C   0  0  0  0  0  0  0  0  0  0  0  0
   33.8440   25.8850   47.5960 C   0  0  0  0  0  0  0  0  0  0  0  0
   33.6970   25.5740   46.2400 C   0  0  0  0  0  0  0  0  0  0  0  0
   33.6710   26.6310   45.3670 C   0  0  0  0  0  0  0  0  0  0  0  0
   34.0740   27.4690   49.0700 H   0  0  0  0  0  0  0  0  0  0  0  0
   33.8730   25.1120   48.3360 H   0  0  0  0  0  0  0  0  0  0  0  0
   33.6110   24.5440   45.9390 H   0  0  0  0  0  0  0  0  0  0  0  0
   32.1820   26.1600   43.5510 C   0  0  0  0  0  0  0  0  0  0  0  0
   33.5160   26.2450   43.9630 C   0  0  0  0  0  0  0  0  0  0  0  0
   34.5520   25.9760   43.0750 C   0  0  0  0  0  0  0  0  0  0  0  0
   35.5460   26.0630   43.4660 H   0  0  0  0  0  0  0  0  0  0  0  0
   34.2090   25.6250   41.7880 C   0  0  0  0  0  0  0  0  0  0  0  0
   35.0510   25.4250   41.1300 H   0  0  0  0  0  0  0  0  0  0  0  0
   32.9110   25.5300   41.3370 C   0  0  0  0  0  3  0  0  0  0  0  0
   31.9090   25.8030   42.2450 C   0  0  0  0  0  3  0  0  0  0  0  0
   30.1960   26.6620   45.1370 N   0  0  0  0  0  0  0  0  0  0  0  0
   31.0740   26.4300   44.4360 C   0  0  0  0  0  0  0  0  0  0  0  0
  1  8  1  0  0  0  0
  2  3  1  0  0  0  0
  3  4  2  0  0  0  0
  3  8  1  0  0  0  0
  4  5  1  0  0  0  0
  5  9  1  0  0  0  0
  5  6  2  0  0  0  0
  6 10  1  0  0  0  0
  7  6  1  0  0  0  0
  7 11  1  0  0  0  0
  8  7  2  0  0  0  0
 12 18  1  0  0  0  0
 12 17  1  0  0  0  0
 13 14  1  0  0  0  0
 13 12  2  0  0  0  0
 14 15  2  0  0  0  0
 15 16  1  0  0  0  0
 16  4  1  0  0  0  0
 17 16  2  0  0  0  0
 19 13  1  0  0  0  0
 20 14  1  0  0  0  0
 21 22  1  0  0  0  0
 22 23  1  0  0  0  0
 23  1  1  0  0  0  0
 23 24  2  0  0  0  0
 24 28  1  0  0  0  0
 25 24  1  0  0  0  0
 25 29  1  0  0  0  0
 26 25  2  0  0  0  0
 27 22  2  0  0  0  0
 27 26  1  0  0  0  0
 30 26  1  0  0  0  0
 31 32  1  0  0  0  0
 31 40  1  0  0  0  0
 32 27  1  0  0  0  0
 33 34  1  0  0  0  0
 33 32  2  0  0  0  0
 35 33  1  0  0  0  0
 36 35  1  0  0  0  0
 37 35  2  0  0  0  0
 37 38  1  0  0  0  0
 38 31  2  0  0  0  0
 40 39  3  0  0  0  0
M  END
>  <minimizedAffinity>
-5.48791695

>  <minimizedRMSD>
0.48918274

$$$$
