
 OpenBabel03272505133D

 40 43  0  0  0  0  0  0  0  0999 V2000
   33.9350   29.7840   47.2930 S   0  0  0  0  0  0  0  0  0  0  0  0
   36.2870   30.8840   45.5810 Cl  0  0  0  0  0  0  0  0  0  0  0  0
   36.5740   30.5810   47.2740 C   0  0  0  0  0  0  0  0  0  0  0  0
   37.8370   30.8480   47.7650 C   0  0  0  0  0  0  0  0  0  0  0  0
   38.0730   30.6090   49.1150 C   0  0  0  0  0  0  0  0  0  0  0  0
   37.0630   30.1230   49.9080 C   0  0  0  0  0  0  0  0  0  0  0  0
   35.8220   29.8790   49.3510 C   0  0  0  0  0  0  0  0  0  0  0  0
   35.5140   30.0890   48.0300 C   0  0  0  0  0  0  0  0  0  0  0  0
   39.0400   30.8030   49.5350 H   0  0  0  0  0  0  0  0  0  0  0  0
   37.2420   29.9360   50.9590 H   0  0  0  0  0  0  0  0  0  0  0  0
   35.0380   29.4940   49.9950 H   0  0  0  0  0  0  0  0  0  0  0  0
   40.1130   33.2010   46.1750 C   0  0  0  0  0  0  0  0  0  0  0  0
   40.8320   32.4210   45.2430 C   0  0  0  0  0  0  0  0  0  0  0  0
   40.5070   31.0620   45.1830 C   0  0  0  0  0  0  0  0  0  0  0  0
   39.5320   30.5730   46.0090 N   0  0  0  0  0  0  0  0  0  0  0  0
   38.8820   31.3670   46.8760 C   0  0  0  0  0  0  0  0  0  0  0  0
   39.1760   32.6650   46.9520 N   0  0  0  0  0  0  0  0  0  0  0  0
   40.2890   34.2750   46.3020 H   0  0  0  0  0  0  0  0  0  0  0  0
   41.5780   32.9170   44.6440 H   0  0  0  0  0  0  0  0  0  0  0  0
   41.0460   30.4590   44.4790 H   0  0  0  0  0  0  0  0  0  0  0  0
   32.6950   29.0040   44.5120 Cl  0  0  0  0  0  0  0  0  0  0  0  0
   33.1320   27.7890   45.7040 C   0  0  0  0  0  0  0  0  0  0  0  0
   33.6830   28.0390   46.9500 C   0  0  0  0  0  0  0  0  0  0  0  0
   33.9830   26.9990   47.7980 C   0  0  0  0  0  0  0  0  0  0  0  0
   33.7430   25.7130   47.4210 C   0  0  0  0  0  0  0  0  0  0  0  0
   33.1900   25.4010   46.1740 C   0  0  0  0  0  0  0  0  0  0  0  0
   32.9000   26.4590   45.3500 C   0  0  0  0  0  0  0  0  0  0  0  0
   34.4110   27.2970   48.7550 H   0  0  0  0  0  0  0  0  0  0  0  0
   33.9950   24.9400   48.1180 H   0  0  0  0  0  0  0  0  0  0  0  0
   33.0160   24.3720   45.9130 H   0  0  0  0  0  0  0  0  0  0  0  0
   33.2770   25.8680   43.0590 C   0  0  0  0  0  0  0  0  0  0  0  0
   32.3250   26.0720   44.0600 C   0  0  0  0  0  0  0  0  0  0  0  0
   30.9680   25.9070   43.7940 C   0  0  0  0  0  0  0  0  0  0  0  0
   30.3000   26.0820   44.6140 H   0  0  0  0  0  0  0  0  0  0  0  0
   30.6130   25.5390   42.5160 C   0  0  0  0  0  0  0  0  0  0  0  0
   29.5450   25.4220   42.3540 H   0  0  0  0  0  0  0  0  0  0  0  0
   31.5170   25.3270   41.4980 C   0  0  0  0  0  3  0  0  0  0  0  0
   32.8520   25.5000   41.7990 C   0  0  0  0  0  3  0  0  0  0  0  0
   35.8200   26.1390   43.4780 N   0  0  0  0  0  0  0  0  0  0  0  0
   34.6950   26.0270   43.2890 C   0  0  0  0  0  0  0  0  0  0  0  0
  1  8  1  0  0  0  0
  2  3  1  0  0  0  0
  3  4  2  0  0  0  0
  3  8  1  0  0  0  0
  4  5  1  0  0  0  0
  5  9  1  0  0  0  0
  5  6  2  0  0  0  0
  6 10  1  0  0  0  0
  7  6  1  0  0  0  0
  7 11  1  0  0  0  0
  8  7  2  0  0  0  0
 12 18  1  0  0  0  0
 12 17  1  0  0  0  0
 13 12  2  0  0  0  0
 14 13  1  0  0  0  0
 14 15  2  0  0  0  0
 15 16  1  0  0  0  0
 16 17  2  0  0  0  0
 16  4  1  0  0  0  0
 19 13  1  0  0  0  0
 20 14  1  0  0  0  0
 21 22  1  0  0  0  0
 22 23  1  0  0  0  0
 23  1  1  0  0  0  0
 23 24  2  0  0  0  0
 24 28  1  0  0  0  0
 25 24  1  0  0  0  0
 25 29  1  0  0  0  0
 26 25  2  0  0  0  0
 27 22  2  0  0  0  0
 27 26  1  0  0  0  0
 30 26  1  0  0  0  0
 31 40  1  0  0  0  0
 31 32  1  0  0  0  0
 32 27  1  0  0  0  0
 33 32  2  0  0  0  0
 33 34  1  0  0  0  0
 35 33  1  0  0  0  0
 36 35  1  0  0  0  0
 37 38  1  0  0  0  0
 37 35  2  0  0  0  0
 38 31  2  0  0  0  0
 40 39  3  0  0  0  0
M  END
>  <minimizedAffinity>
-5.22935677

>  <minimizedRMSD>
1.20021653

$$$$
