
 OpenBabel03272509213D

 47 51  0  0  0  0  0  0  0  0999 V2000
   39.6920   31.8470   46.4450 O   0  0  0  0  0  0  0  0  0  0  0  0
   39.4340   30.3080   44.4900 C   0  0  0  0  0  0  0  0  0  0  0  0
   39.2290   31.4650   45.2140 C   0  0  0  0  0  0  0  0  0  0  0  0
   38.4240   32.4690   44.6660 C   0  0  0  0  0  0  0  0  0  0  0  0
   37.8360   32.2990   43.4060 C   0  0  0  0  0  0  0  0  0  0  0  0
   37.0390   33.0380   42.6200 N   0  0  0  0  0  0  0  0  0  0  0  0
   36.7580   32.3900   41.4750 C   0  0  0  0  0  0  0  0  0  0  0  0
   37.4040   31.1960   41.5420 N   0  0  0  0  0  0  0  0  0  0  0  0
   38.0680   31.1240   42.7170 C   0  0  0  0  0  0  0  0  0  0  0  0
   38.8610   30.1310   43.2510 C   0  0  0  0  0  0  0  0  0  0  0  0
   40.0650   29.6150   45.0080 H   0  0  0  0  0  0  0  0  0  0  0  0
   38.1710   33.4250   45.1080 H   0  0  0  0  0  0  0  0  0  0  0  0
   36.6870   33.9700   42.8540 H   0  0  0  0  0  0  0  0  0  0  0  0
   36.1480   32.7460   40.6760 H   0  0  0  0  0  0  0  0  0  0  0  0
   39.9710   28.7000   41.4770 C   0  0  0  0  0  0  0  0  0  0  0  0
   39.1310   28.8770   42.5570 C   0  0  0  0  0  0  0  0  0  0  0  0
   38.4360   27.8090   43.0990 C   0  0  0  0  0  0  0  0  0  0  0  0
   37.7520   27.8780   43.9580 H   0  0  0  0  0  0  0  0  0  0  0  0
   38.5650   26.5280   42.5700 C   0  0  0  0  0  0  0  0  0  0  0  0
   38.0140   25.6900   43.0020 H   0  0  0  0  0  0  0  0  0  0  0  0
   39.4200   26.3650   41.4750 C   0  0  0  0  0  3  0  0  0  0  0  0
   40.1110   27.4370   40.9380 C   0  0  0  0  0  3  0  0  0  0  0  0
   41.1960   30.8030   40.6030 N   0  0  0  0  0  0  0  0  0  0  0  0
   40.6410   29.8730   40.9940 C   0  0  0  0  0  0  0  0  0  0  0  0
   37.9840   31.3590   48.0990 C   0  0  0  0  0  0  0  0  0  0  0  0
   37.2200   31.6240   49.2190 C   0  0  0  0  0  0  0  0  0  0  0  0
   37.5130   32.8470   49.8310 C   0  0  0  0  0  0  0  0  0  0  0  0
   38.5030   33.7140   49.3330 C   0  0  0  0  0  0  0  0  0  0  0  0
   39.2180   33.3380   48.1840 C   0  0  0  0  0  0  0  0  0  0  0  0
   38.9380   32.1300   47.5670 C   0  0  0  0  0  0  0  0  0  0  0  0
   36.9510   33.1130   50.7090 H   0  0  0  0  0  0  0  0  0  0  0  0
   38.6890   34.6480   49.8460 H   0  0  0  0  0  0  0  0  0  0  0  0
   39.9730   34.0390   47.8350 H   0  0  0  0  0  0  0  0  0  0  0  0
   34.9840   30.6480   49.0910 C   0  0  0  0  0  0  0  0  0  0  0  0
   36.2160   30.7490   49.7280 C   0  0  0  0  0  0  0  0  0  0  0  0
   36.4260   29.9650   50.8770 C   0  0  0  0  0  0  0  0  0  0  0  0
   35.4250   29.1580   51.3010 N   0  0  0  0  0  0  0  0  0  0  0  0
   34.2290   29.0930   50.6380 C   0  0  0  0  0  0  0  0  0  0  0  0
   34.0190   29.8320   49.5470 N   0  0  0  0  0  0  0  0  0  0  0  0
   34.7440   31.2120   48.2070 H   0  0  0  0  0  0  0  0  0  0  0  0
   33.5700   28.3980   51.1290 H   0  0  0  0  0  0  0  0  0  0  0  0
   37.7220   30.0320   51.6000 C   0  0  0  0  0  0  0  0  0  0  0  0
   38.2510   30.9410   51.2740 H   0  0  0  0  0  0  0  0  0  0  0  0
   38.3260   29.1650   51.2560 H   0  0  0  0  0  0  0  0  0  0  0  0
   37.5650   29.9570   52.6820 H   0  0  0  0  0  0  0  0  0  0  0  0
   37.7660   30.1580   47.4140 O   0  0  0  0  0  0  0  0  0  0  0  0
   36.8580   30.0380   46.9940 H   0  0  0  0  0  0  0  0  0  0  0  0
  1 30  1  0  0  0  0
  2 11  1  0  0  0  0
  2  3  1  0  0  0  0
  3  1  1  0  0  0  0
  4 12  1  0  0  0  0
  4  3  2  0  0  0  0
  5  4  1  0  0  0  0
  6 13  1  0  0  0  0
  6  5  1  0  0  0  0
  7  8  2  0  0  0  0
  7  6  1  0  0  0  0
  8  9  1  0  0  0  0
  9 10  1  0  0  0  0
  9  5  2  0  0  0  0
 10  2  2  0  0  0  0
 14  7  1  0  0  0  0
 15 16  1  0  0  0  0
 16 17  2  0  0  0  0
 16 10  1  0  0  0  0
 17 18  1  0  0  0  0
 19 20  1  0  0  0  0
 19 17  1  0  0  0  0
 21 19  2  0  0  0  0
 22 21  1  0  0  0  0
 22 15  2  0  0  0  0
 23 24  3  0  0  0  0
 24 15  1  0  0  0  0
 25 26  1  0  0  0  0
 26 35  1  0  0  0  0
 26 27  2  0  0  0  0
 27 31  1  0  0  0  0
 28 27  1  0  0  0  0
 28 32  1  0  0  0  0
 29 28  2  0  0  0  0
 30 25  2  0  0  0  0
 30 29  1  0  0  0  0
 33 29  1  0  0  0  0
 34 39  2  0  0  0  0
 34 35  1  0  0  0  0
 35 36  2  0  0  0  0
 36 37  1  0  0  0  0
 36 42  1  0  0  0  0
 38 41  1  0  0  0  0
 38 37  2  0  0  0  0
 39 38  1  0  0  0  0
 40 34  1  0  0  0  0
 42 45  1  0  0  0  0
 43 42  1  0  0  0  0
 44 42  1  0  0  0  0
 46 25  1  0  0  0  0
 47 46  1  0  0  0  0
M  END
>  <minimizedAffinity>
-7.05794001

>  <minimizedRMSD>
1.81329274

$$$$
