
 OpenBabel03272509053D

 34 36  0  0  0  0  0  0  0  0999 V2000
   37.5690   30.3010   51.2030 C   0  0  0  0  0  0  0  0  0  0  0  0
   38.2140   30.8150   50.0580 C   0  0  0  0  0  0  0  0  0  0  0  0
   37.6540   30.5820   48.7650 C   0  0  0  0  0  0  0  0  0  0  0  0
   36.5090   29.8610   48.7350 N   0  0  0  0  0  0  0  0  0  0  0  0
   35.9280   29.3910   49.8480 C   0  0  0  0  0  0  0  0  0  0  0  0
   36.4350   29.5980   51.0680 N   0  0  0  0  0  0  0  0  0  0  0  0
   37.9000   30.4160   52.2070 H   0  0  0  0  0  0  0  0  0  0  0  0
   39.0880   31.3320   50.3500 H   0  0  0  0  0  0  0  0  0  0  0  0
   38.9840   32.3680   47.6220 C   0  0  0  0  0  0  0  0  0  0  0  0
   38.4210   31.1330   47.6680 C   0  0  0  0  0  0  0  0  0  0  0  0
   38.6230   30.4020   46.5170 C   0  0  0  0  0  0  0  0  0  0  0  0
   38.2680   29.4020   46.3480 H   0  0  0  0  0  0  0  0  0  0  0  0
   39.3200   30.8600   45.4320 C   0  0  0  0  0  0  0  0  0  0  0  0
   39.4790   30.2880   44.5320 H   0  0  0  0  0  0  0  0  0  0  0  0
   39.8790   32.1190   45.4230 C   0  0  0  0  0  3  0  0  0  0  0  0
   39.7010   32.8860   46.5510 C   0  0  0  0  0  3  0  0  0  0  0  0
   38.7140   33.9870   49.5980 N   0  0  0  0  0  0  0  0  0  0  0  0
   38.8390   33.2520   48.7180 C   0  0  0  0  0  0  0  0  0  0  0  0
   34.7010   28.6450   49.6630 C   0  0  0  0  0  3  0  0  0  0  0  0
   34.4790   28.0550   48.5380 C   0  0  0  0  0  3  0  0  0  0  0  0
   33.3330   27.2490   48.1190 C   0  0  0  0  0  0  0  0  0  0  0  0
   32.8980   26.7010   48.9780 H   0  0  0  0  0  0  0  0  0  0  0  0
   32.5420   27.9310   47.7250 H   0  0  0  0  0  0  0  0  0  0  0  0
   33.6760   26.2110   47.0960 C   0  0  0  0  0  0  0  0  0  0  0  0
   33.8330   24.8750   47.3430 C   0  0  0  0  0  0  0  0  0  0  0  0
   34.1510   24.0170   46.3190 C   0  0  0  0  0  0  0  0  0  0  0  0
   34.3220   24.4750   45.0080 C   0  0  0  0  0  0  0  0  0  0  0  0
   34.1650   25.8170   44.7500 C   0  0  0  0  0  0  0  0  0  0  0  0
   33.8450   26.6850   45.7810 C   0  0  0  0  0  0  0  0  0  0  0  0
   33.6970   24.5410   48.3630 H   0  0  0  0  0  0  0  0  0  0  0  0
   34.2630   22.9710   46.5780 H   0  0  0  0  0  0  0  0  0  0  0  0
   34.5750   23.7170   44.2560 H   0  0  0  0  0  0  0  0  0  0  0  0
   34.3020   26.1530   43.7290 H   0  0  0  0  0  0  0  0  0  0  0  0
   33.7440   27.7170   45.4740 H   0  0  0  0  0  0  0  0  0  0  0  0
  1  7  1  0  0  0  0
  2  8  1  0  0  0  0
  2  1  2  0  0  0  0
  3  2  1  0  0  0  0
  4  3  2  0  0  0  0
  4  5  1  0  0  0  0
  5  6  2  0  0  0  0
  6  1  1  0  0  0  0
  9 10  1  0  0  0  0
  9 18  1  0  0  0  0
 10  3  1  0  0  0  0
 11 10  2  0  0  0  0
 12 11  1  0  0  0  0
 13 11  1  0  0  0  0
 14 13  1  0  0  0  0
 15 13  2  0  0  0  0
 15 16  1  0  0  0  0
 16  9  2  0  0  0  0
 18 17  3  0  0  0  0
 19  5  1  0  0  0  0
 20 19  2  0  0  0  0
 21 20  1  0  0  0  0
 21 22  1  0  0  0  0
 23 21  1  0  0  0  0
 24 25  1  0  0  0  0
 24 21  1  0  0  0  0
 25 30  1  0  0  0  0
 26 31  1  0  0  0  0
 26 25  2  0  0  0  0
 27 26  1  0  0  0  0
 28 27  2  0  0  0  0
 28 29  1  0  0  0  0
 29 24  2  0  0  0  0
 32 27  1  0  0  0  0
 33 28  1  0  0  0  0
 34 29  1  0  0  0  0
M  END
>  <minimizedAffinity>
-6.5087924

>  <minimizedRMSD>
0.615215898

$$$$
