
 OpenBabel03272508563D

 41 44  0  0  1  0  0  0  0  0999 V2000
   39.1190   31.5070   43.2900 C   0  0  0  0  0  0  0  0  0  0  0  0
   40.1180   30.5760   43.4400 C   0  0  0  0  0  0  0  0  0  0  0  0
   40.8370   30.2300   42.3040 C   0  0  0  0  0  0  0  0  0  0  0  0
   40.5150   30.8250   41.1160 C   0  0  0  0  0  0  0  0  0  0  0  0
   39.5120   31.7570   40.9700 C   0  0  0  0  0  0  0  0  0  0  0  0
   38.8290   32.0750   42.0960 N   0  0  0  0  0  0  0  0  0  0  0  0
   40.3780   30.0970   44.3850 H   0  0  0  0  0  0  0  0  0  0  0  0
   41.6230   29.4970   42.4200 H   0  0  0  0  0  0  0  0  0  0  0  0
   41.1290   30.4960   40.2970 H   0  0  0  0  0  0  0  0  0  0  0  0
   38.3420   31.9110   44.4910 C   0  0  0  0  0  0  0  0  0  0  0  0
   37.2450   32.4690   44.3970 O   0  0  0  0  0  0  0  0  0  0  0  0
   38.9320   31.6190   45.7870 N   0  0  0  0  0  0  0  0  0  0  0  0
   39.9210   31.3410   45.9300 H   0  0  0  0  0  0  0  0  0  0  0  0
   38.4330   31.0950   48.1680 C   0  0  2  0  0  0  0  0  0  0  0  0
   38.7020   32.5540   48.0960 C   0  0  0  0  0  0  0  0  0  0  0  0
   38.0690   31.7310   46.9440 C   0  0  1  0  0  0  0  0  0  0  0  0
   39.3620   30.4790   48.2400 H   0  0  0  0  0  0  0  0  0  0  0  0
   38.0290   33.2700   48.6160 H   0  0  0  0  0  0  0  0  0  0  0  0
   39.7240   32.9100   47.9650 H   0  0  0  0  0  0  0  0  0  0  0  0
   36.9920   31.9900   46.7580 H   0  0  0  0  0  0  0  0  0  0  0  0
   35.0790   30.2300   49.4910 C   0  0  0  0  0  0  0  0  0  0  0  0
   35.4120   29.5500   50.6990 C   0  0  0  0  0  0  0  0  0  0  0  0
   36.7910   29.4110   51.0460 C   0  0  0  0  0  0  0  0  0  0  0  0
   37.7530   29.9300   50.2130 N   0  0  0  0  0  0  0  0  0  0  0  0
   37.3580   30.5650   49.0780 C   0  0  0  0  0  0  0  0  0  0  0  0
   36.0350   30.7350   48.6830 N   0  0  0  0  0  0  0  0  0  0  0  0
   34.0260   30.3040   49.2830 H   0  0  0  0  0  0  0  0  0  0  0  0
   34.6880   29.1420   51.3560 H   0  0  0  0  0  0  0  0  0  0  0  0
   37.0530   28.8970   51.9600 H   0  0  0  0  0  0  0  0  0  0  0  0
   39.1460   32.3650   39.6860 C   0  0  0  0  0  0  0  0  0  0  0  0
   38.8740   33.6140   39.6700 O   0  0  0  0  0  0  0  0  0  0  0  0
   37.7750   31.2520   38.0310 C   0  0  0  0  0  0  0  0  0  0  0  0
   39.0020   31.8610   38.3350 C   0  0  0  0  0  0  0  0  0  0  0  0
   39.8680   31.8720   37.2740 C   0  0  0  0  0  0  0  0  0  0  0  0
   40.8240   32.3340   37.4480 H   0  0  0  0  0  0  0  0  0  0  0  0
   39.6270   31.3610   36.0220 C   0  0  0  0  0  0  0  0  0  0  0  0
   40.4000   31.4340   35.2710 H   0  0  0  0  0  0  0  0  0  0  0  0
   38.4060   30.7860   35.8190 C   0  0  0  0  0  3  0  0  0  0  0  0
   37.4330   30.7020   36.7900 C   0  0  0  0  0  3  0  0  0  0  0  0
   35.9210   31.1020   39.8850 N   0  0  0  0  0  0  0  0  0  0  0  0
   36.7450   31.1600   39.0540 C   0  0  0  0  0  0  0  0  0  0  0  0
  1  2  1  0  0  0  0
  1 10  1  0  0  0  0
  2  7  1  0  0  0  0
  3  8  1  0  0  0  0
  3  2  2  0  0  0  0
  4  3  1  0  0  0  0
  5  4  2  0  0  0  0
  5  6  1  0  0  0  0
  6  1  2  0  0  0  0
  9  4  1  0  0  0  0
 10 12  1  0  0  0  0
 11 10  2  0  0  0  0
 12 13  1  0  0  0  0
 12 16  1  0  0  0  0
 14 17  1  6  0  0  0
 14 25  1  0  0  0  0
 15 14  1  0  0  0  0
 15 18  1  0  0  0  0
 16 20  1  6  0  0  0
 16 15  1  0  0  0  0
 16 14  1  0  0  0  0
 19 15  1  0  0  0  0
 21 22  1  0  0  0  0
 22 23  2  0  0  0  0
 22 28  1  0  0  0  0
 23 29  1  0  0  0  0
 24 23  1  0  0  0  0
 25 24  2  0  0  0  0
 26 25  1  0  0  0  0
 26 21  2  0  0  0  0
 27 21  1  0  0  0  0
 30  5  1  0  0  0  0
 31 30  2  0  0  0  0
 32 33  1  0  0  0  0
 32 41  1  0  0  0  0
 33 30  1  0  0  0  0
 34 35  1  0  0  0  0
 34 33  2  0  0  0  0
 36 34  1  0  0  0  0
 37 36  1  0  0  0  0
 38 36  2  0  0  0  0
 38 39  1  0  0  0  0
 39 32  2  0  0  0  0
 41 40  3  0  0  0  0
M  END
>  <minimizedAffinity>
-4.72749472

>  <minimizedRMSD>
0.18593353

$$$$
