
 OpenBabel03272508573D

 41 44  0  0  1  0  0  0  0  0999 V2000
   39.1810   31.4020   43.2790 C   0  0  0  0  0  0  0  0  0  0  0  0
   40.2340   30.5370   43.4580 C   0  0  0  0  0  0  0  0  0  0  0  0
   40.9450   30.1630   42.3270 C   0  0  0  0  0  0  0  0  0  0  0  0
   40.5630   30.6650   41.1140 C   0  0  0  0  0  0  0  0  0  0  0  0
   39.5060   31.5290   40.9390 C   0  0  0  0  0  0  0  0  0  0  0  0
   38.8320   31.8780   42.0620 N   0  0  0  0  0  0  0  0  0  0  0  0
   40.5420   30.1320   44.4240 H   0  0  0  0  0  0  0  0  0  0  0  0
   41.7740   29.4830   42.4660 H   0  0  0  0  0  0  0  0  0  0  0  0
   41.1760   30.3210   40.3010 H   0  0  0  0  0  0  0  0  0  0  0  0
   38.4100   31.8350   44.4740 C   0  0  0  0  0  0  0  0  0  0  0  0
   37.3510   32.4600   44.3710 O   0  0  0  0  0  0  0  0  0  0  0  0
   38.9600   31.4890   45.7740 N   0  0  0  0  0  0  0  0  0  0  0  0
   39.9270   31.1490   45.9290 H   0  0  0  0  0  0  0  0  0  0  0  0
   38.4370   31.0390   48.1660 C   0  0  2  0  0  0  0  0  0  0  0  0
   38.7080   32.4960   48.0510 C   0  0  0  0  0  0  0  0  0  0  0  0
   38.0850   31.6370   46.9190 C   0  0  1  0  0  0  0  0  0  0  0  0
   39.3650   30.4250   48.2660 H   0  0  0  0  0  0  0  0  0  0  0  0
   38.0300   33.2270   48.5420 H   0  0  0  0  0  0  0  0  0  0  0  0
   39.7320   32.8470   47.9190 H   0  0  0  0  0  0  0  0  0  0  0  0
   37.0100   31.8900   46.7150 H   0  0  0  0  0  0  0  0  0  0  0  0
   35.0690   30.2510   49.5010 C   0  0  0  0  0  0  0  0  0  0  0  0
   35.3900   29.5750   50.7130 C   0  0  0  0  0  0  0  0  0  0  0  0
   36.7680   29.4130   51.0600 C   0  0  0  0  0  0  0  0  0  0  0  0
   37.7380   29.9060   50.2210 N   0  0  0  0  0  0  0  0  0  0  0  0
   37.3540   30.5380   49.0810 C   0  0  0  0  0  0  0  0  0  0  0  0
   36.0340   30.7300   48.6870 N   0  0  0  0  0  0  0  0  0  0  0  0
   34.0170   30.3430   49.2930 H   0  0  0  0  0  0  0  0  0  0  0  0
   34.6590   29.1870   51.3750 H   0  0  0  0  0  0  0  0  0  0  0  0
   37.0200   28.9020   51.9790 H   0  0  0  0  0  0  0  0  0  0  0  0
   39.0770   32.0370   39.6310 C   0  0  0  0  0  0  0  0  0  0  0  0
   39.1070   33.3000   39.4390 O   0  0  0  0  0  0  0  0  0  0  0  0
   39.5520   31.1240   37.4410 C   0  0  0  0  0  0  0  0  0  0  0  0
   38.5880   31.4130   38.4170 C   0  0  0  0  0  0  0  0  0  0  0  0
   37.3230   31.0470   38.0420 C   0  0  0  0  0  0  0  0  0  0  0  0
   36.5420   31.2390   38.7570 H   0  0  0  0  0  0  0  0  0  0  0  0
   36.9660   30.4560   36.8540 C   0  0  0  0  0  0  0  0  0  0  0  0
   35.9260   30.2160   36.6830 H   0  0  0  0  0  0  0  0  0  0  0  0
   37.9720   30.2130   35.9650 C   0  0  0  0  0  3  0  0  0  0  0  0
   39.2920   30.5250   36.2020 C   0  0  0  0  0  3  0  0  0  0  0  0
   42.0690   31.7150   37.9040 N   0  0  0  0  0  0  0  0  0  0  0  0
   40.9480   31.4530   37.6890 C   0  0  0  0  0  0  0  0  0  0  0  0
  1  2  1  0  0  0  0
  1 10  1  0  0  0  0
  2  7  1  0  0  0  0
  3  8  1  0  0  0  0
  3  2  2  0  0  0  0
  4  3  1  0  0  0  0
  5  4  2  0  0  0  0
  5  6  1  0  0  0  0
  6  1  2  0  0  0  0
  9  4  1  0  0  0  0
 10 12  1  0  0  0  0
 11 10  2  0  0  0  0
 12 13  1  0  0  0  0
 12 16  1  0  0  0  0
 14 17  1  6  0  0  0
 14 25  1  0  0  0  0
 15 14  1  0  0  0  0
 15 18  1  0  0  0  0
 16 20  1  6  0  0  0
 16 15  1  0  0  0  0
 16 14  1  0  0  0  0
 19 15  1  0  0  0  0
 21 22  1  0  0  0  0
 22 23  2  0  0  0  0
 22 28  1  0  0  0  0
 23 29  1  0  0  0  0
 24 23  1  0  0  0  0
 25 24  2  0  0  0  0
 26 25  1  0  0  0  0
 26 21  2  0  0  0  0
 27 21  1  0  0  0  0
 30  5  1  0  0  0  0
 31 30  2  0  0  0  0
 32 41  1  0  0  0  0
 32 33  1  0  0  0  0
 33 30  1  0  0  0  0
 34 33  2  0  0  0  0
 34 35  1  0  0  0  0
 36 34  1  0  0  0  0
 37 36  1  0  0  0  0
 38 39  1  0  0  0  0
 38 36  2  0  0  0  0
 39 32  2  0  0  0  0
 41 40  3  0  0  0  0
M  END
>  <minimizedAffinity>
-4.75704002

>  <minimizedRMSD>
0.84969908

$$$$
