
 OpenBabel03272508573D

 41 44  0  0  1  0  0  0  0  0999 V2000
   39.1500   31.4550   43.4180 C   0  0  0  0  0  0  0  0  0  0  0  0
   40.1130   30.4780   43.5010 C   0  0  0  0  0  0  0  0  0  0  0  0
   40.8060   30.1740   42.3380 C   0  0  0  0  0  0  0  0  0  0  0  0
   40.4970   30.8510   41.1910 C   0  0  0  0  0  0  0  0  0  0  0  0
   39.5300   31.8280   41.1130 C   0  0  0  0  0  0  0  0  0  0  0  0
   38.8710   32.1040   42.2650 N   0  0  0  0  0  0  0  0  0  0  0  0
   40.3630   29.9340   44.4130 H   0  0  0  0  0  0  0  0  0  0  0  0
   41.5650   29.4050   42.4010 H   0  0  0  0  0  0  0  0  0  0  0  0
   41.0890   30.5480   40.3470 H   0  0  0  0  0  0  0  0  0  0  0  0
   38.4010   31.8160   44.6510 C   0  0  0  0  0  0  0  0  0  0  0  0
   37.3100   32.3910   44.6020 O   0  0  0  0  0  0  0  0  0  0  0  0
   39.0120   31.4600   45.9210 N   0  0  0  0  0  0  0  0  0  0  0  0
   39.9990   31.1630   46.0330 H   0  0  0  0  0  0  0  0  0  0  0  0
   38.6800   31.1110   48.3630 C   0  0  2  0  0  0  0  0  0  0  0  0
   38.6640   32.5790   48.1320 C   0  0  0  0  0  0  0  0  0  0  0  0
   38.1720   31.5320   47.0990 C   0  0  1  0  0  0  0  0  0  0  0  0
   39.7110   30.6910   48.4560 H   0  0  0  0  0  0  0  0  0  0  0  0
   37.8800   33.2070   48.6070 H   0  0  0  0  0  0  0  0  0  0  0  0
   39.5960   33.1030   47.9210 H   0  0  0  0  0  0  0  0  0  0  0  0
   37.0610   31.5630   46.9350 H   0  0  0  0  0  0  0  0  0  0  0  0
   35.8680   29.1650   49.7950 C   0  0  0  0  0  0  0  0  0  0  0  0
   36.0960   29.3150   51.1940 C   0  0  0  0  0  0  0  0  0  0  0  0
   37.2120   30.0980   51.6240 C   0  0  0  0  0  0  0  0  0  0  0  0
   38.0300   30.6790   50.6850 N   0  0  0  0  0  0  0  0  0  0  0  0
   37.7490   30.4900   49.3690 C   0  0  0  0  0  0  0  0  0  0  0  0
   36.6810   29.7430   48.8850 N   0  0  0  0  0  0  0  0  0  0  0  0
   35.0140   28.5660   49.5330 H   0  0  0  0  0  0  0  0  0  0  0  0
   35.4790   28.8760   51.9350 H   0  0  0  0  0  0  0  0  0  0  0  0
   37.3920   30.2170   52.6830 H   0  0  0  0  0  0  0  0  0  0  0  0
   39.1760   32.5260   39.8720 C   0  0  0  0  0  0  0  0  0  0  0  0
   38.5770   33.6510   39.9670 O   0  0  0  0  0  0  0  0  0  0  0  0
   38.4520   31.3000   37.9160 C   0  0  0  0  0  0  0  0  0  0  0  0
   39.3470   32.2300   38.4640 C   0  0  0  0  0  0  0  0  0  0  0  0
   40.2470   32.7060   37.5480 C   0  0  0  0  0  0  0  0  0  0  0  0
   40.9550   33.4300   37.9130 H   0  0  0  0  0  0  0  0  0  0  0  0
   40.3230   32.3540   36.2230 C   0  0  0  0  0  0  0  0  0  0  0  0
   41.0850   32.8070   35.6050 H   0  0  0  0  0  0  0  0  0  0  0  0
   39.4100   31.4410   35.7790 C   0  0  0  0  0  3  0  0  0  0  0  0
   38.4460   30.8760   36.5820 C   0  0  0  0  0  3  0  0  0  0  0  0
   36.6090   30.2300   39.4510 N   0  0  0  0  0  0  0  0  0  0  0  0
   37.4310   30.6990   38.7620 C   0  0  0  0  0  0  0  0  0  0  0  0
  1  2  1  0  0  0  0
  1 10  1  0  0  0  0
  2  7  1  0  0  0  0
  3  8  1  0  0  0  0
  3  2  2  0  0  0  0
  4  3  1  0  0  0  0
  5  4  2  0  0  0  0
  5  6  1  0  0  0  0
  6  1  2  0  0  0  0
  9  4  1  0  0  0  0
 10 12  1  0  0  0  0
 11 10  2  0  0  0  0
 12 13  1  0  0  0  0
 12 16  1  0  0  0  0
 14 17  1  6  0  0  0
 14 25  1  0  0  0  0
 15 14  1  0  0  0  0
 15 18  1  0  0  0  0
 16 20  1  6  0  0  0
 16 15  1  0  0  0  0
 16 14  1  0  0  0  0
 19 15  1  0  0  0  0
 21 22  1  0  0  0  0
 22 23  2  0  0  0  0
 22 28  1  0  0  0  0
 23 29  1  0  0  0  0
 24 23  1  0  0  0  0
 25 24  2  0  0  0  0
 26 25  1  0  0  0  0
 26 21  2  0  0  0  0
 27 21  1  0  0  0  0
 30 31  2  0  0  0  0
 30  5  1  0  0  0  0
 32 33  1  0  0  0  0
 32 41  1  0  0  0  0
 33 30  1  0  0  0  0
 34 35  1  0  0  0  0
 34 33  2  0  0  0  0
 36 34  1  0  0  0  0
 37 36  1  0  0  0  0
 38 36  2  0  0  0  0
 38 39  1  0  0  0  0
 39 32  2  0  0  0  0
 41 40  3  0  0  0  0
M  END
>  <minimizedAffinity>
-4.88267088

>  <minimizedRMSD>
1.55826986

$$$$
