
 OpenBabel03272508573D

 41 44  0  0  1  0  0  0  0  0999 V2000
   39.1320   31.5110   43.1400 C   0  0  0  0  0  0  0  0  0  0  0  0
   40.1710   30.6250   43.2980 C   0  0  0  0  0  0  0  0  0  0  0  0
   40.8740   30.2640   42.1570 C   0  0  0  0  0  0  0  0  0  0  0  0
   40.4990   30.8000   40.9560 C   0  0  0  0  0  0  0  0  0  0  0  0
   39.4570   31.6860   40.8020 C   0  0  0  0  0  0  0  0  0  0  0  0
   38.7900   32.0200   41.9340 N   0  0  0  0  0  0  0  0  0  0  0  0
   40.4730   30.1930   44.2530 H   0  0  0  0  0  0  0  0  0  0  0  0
   41.6920   29.5670   42.2790 H   0  0  0  0  0  0  0  0  0  0  0  0
   41.1050   30.4640   40.1340 H   0  0  0  0  0  0  0  0  0  0  0  0
   38.3700   31.9300   44.3450 C   0  0  0  0  0  0  0  0  0  0  0  0
   37.2880   32.5170   44.2570 O   0  0  0  0  0  0  0  0  0  0  0  0
   38.9570   31.6170   45.6380 N   0  0  0  0  0  0  0  0  0  0  0  0
   39.9380   31.3120   45.7760 H   0  0  0  0  0  0  0  0  0  0  0  0
   38.4150   31.0410   47.9980 C   0  0  2  0  0  0  0  0  0  0  0  0
   38.7880   32.4790   47.9810 C   0  0  0  0  0  0  0  0  0  0  0  0
   38.1010   31.7470   46.7980 C   0  0  1  0  0  0  0  0  0  0  0  0
   39.2970   30.3570   48.0460 H   0  0  0  0  0  0  0  0  0  0  0  0
   38.1670   33.2210   48.5270 H   0  0  0  0  0  0  0  0  0  0  0  0
   39.8340   32.7650   47.8630 H   0  0  0  0  0  0  0  0  0  0  0  0
   37.0460   32.0890   46.6220 H   0  0  0  0  0  0  0  0  0  0  0  0
   35.0070   30.2500   49.2260 C   0  0  0  0  0  0  0  0  0  0  0  0
   35.2890   29.6210   50.4730 C   0  0  0  0  0  0  0  0  0  0  0  0
   36.6530   29.4890   50.8790 C   0  0  0  0  0  0  0  0  0  0  0  0
   37.6490   29.9680   50.0620 N   0  0  0  0  0  0  0  0  0  0  0  0
   37.3030   30.5550   48.8870 C   0  0  0  0  0  0  0  0  0  0  0  0
   35.9970   30.7150   48.4350 N   0  0  0  0  0  0  0  0  0  0  0  0
   33.9630   30.3200   48.9740 H   0  0  0  0  0  0  0  0  0  0  0  0
   34.5370   29.2440   51.1180 H   0  0  0  0  0  0  0  0  0  0  0  0
   36.8760   29.0140   51.8230 H   0  0  0  0  0  0  0  0  0  0  0  0
   39.0350   32.2300   39.5070 C   0  0  0  0  0  0  0  0  0  0  0  0
   39.0930   33.4960   39.3410 O   0  0  0  0  0  0  0  0  0  0  0  0
   39.4780   31.3720   37.2880 C   0  0  0  0  0  0  0  0  0  0  0  0
   38.5270   31.6440   38.2830 C   0  0  0  0  0  0  0  0  0  0  0  0
   37.2550   31.2980   37.9110 C   0  0  0  0  0  0  0  0  0  0  0  0
   36.4840   31.4780   38.6400 H   0  0  0  0  0  0  0  0  0  0  0  0
   36.8800   30.7430   36.7130 C   0  0  0  0  0  0  0  0  0  0  0  0
   35.8370   30.5160   36.5450 H   0  0  0  0  0  0  0  0  0  0  0  0
   37.8740   30.5140   35.8060 C   0  0  0  0  0  3  0  0  0  0  0  0
   39.1990   30.8090   36.0370 C   0  0  0  0  0  3  0  0  0  0  0  0
   42.0060   31.9280   37.7400 N   0  0  0  0  0  0  0  0  0  0  0  0
   40.8790   31.6820   37.5300 C   0  0  0  0  0  0  0  0  0  0  0  0
  1  2  1  0  0  0  0
  1 10  1  0  0  0  0
  2  7  1  0  0  0  0
  3  8  1  0  0  0  0
  3  2  2  0  0  0  0
  4  3  1  0  0  0  0
  5  4  2  0  0  0  0
  5  6  1  0  0  0  0
  6  1  2  0  0  0  0
  9  4  1  0  0  0  0
 10 12  1  0  0  0  0
 11 10  2  0  0  0  0
 12 13  1  0  0  0  0
 12 16  1  0  0  0  0
 14 17  1  6  0  0  0
 14 25  1  0  0  0  0
 15 14  1  0  0  0  0
 15 18  1  0  0  0  0
 16 20  1  6  0  0  0
 16 15  1  0  0  0  0
 16 14  1  0  0  0  0
 19 15  1  0  0  0  0
 21 22  1  0  0  0  0
 22 23  2  0  0  0  0
 22 28  1  0  0  0  0
 23 29  1  0  0  0  0
 24 23  1  0  0  0  0
 25 24  2  0  0  0  0
 26 25  1  0  0  0  0
 26 21  2  0  0  0  0
 27 21  1  0  0  0  0
 30  5  1  0  0  0  0
 31 30  2  0  0  0  0
 32 41  1  0  0  0  0
 32 33  1  0  0  0  0
 33 30  1  0  0  0  0
 34 33  2  0  0  0  0
 34 35  1  0  0  0  0
 36 34  1  0  0  0  0
 37 36  1  0  0  0  0
 38 39  1  0  0  0  0
 38 36  2  0  0  0  0
 39 32  2  0  0  0  0
 41 40  3  0  0  0  0
M  END
>  <minimizedAffinity>
-4.71699476

>  <minimizedRMSD>
0.953086197

$$$$
