
 OpenBabel03272508563D

 41 44  0  0  1  0  0  0  0  0999 V2000
   39.1550   31.4250   43.3690 C   0  0  0  0  0  0  0  0  0  0  0  0
   40.1470   30.4910   43.5460 C   0  0  0  0  0  0  0  0  0  0  0  0
   40.8750   30.1210   42.4230 C   0  0  0  0  0  0  0  0  0  0  0  0
   40.5680   30.6960   41.2220 C   0  0  0  0  0  0  0  0  0  0  0  0
   39.5720   31.6300   41.0490 C   0  0  0  0  0  0  0  0  0  0  0  0
   38.8800   31.9720   42.1630 N   0  0  0  0  0  0  0  0  0  0  0  0
   40.3950   30.0270   44.5020 H   0  0  0  0  0  0  0  0  0  0  0  0
   41.6560   29.3860   42.5600 H   0  0  0  0  0  0  0  0  0  0  0  0
   41.1880   30.3490   40.4150 H   0  0  0  0  0  0  0  0  0  0  0  0
   38.3690   31.8550   44.5550 C   0  0  0  0  0  0  0  0  0  0  0  0
   37.3070   32.4740   44.4400 O   0  0  0  0  0  0  0  0  0  0  0  0
   38.9060   31.5120   45.8620 N   0  0  0  0  0  0  0  0  0  0  0  0
   39.8730   31.1770   46.0270 H   0  0  0  0  0  0  0  0  0  0  0  0
   38.2820   30.9400   48.2020 C   0  0  2  0  0  0  0  0  0  0  0  0
   38.6850   32.3700   48.2020 C   0  0  0  0  0  0  0  0  0  0  0  0
   38.0180   31.6560   46.9970 C   0  0  1  0  0  0  0  0  0  0  0  0
   39.1480   30.2380   48.2740 H   0  0  0  0  0  0  0  0  0  0  0  0
   38.0630   33.1230   48.7320 H   0  0  0  0  0  0  0  0  0  0  0  0
   39.7390   32.6340   48.1170 H   0  0  0  0  0  0  0  0  0  0  0  0
   36.9760   32.0210   46.7900 H   0  0  0  0  0  0  0  0  0  0  0  0
   34.8290   30.1430   49.2940 C   0  0  0  0  0  0  0  0  0  0  0  0
   35.0570   29.5750   50.5800 C   0  0  0  0  0  0  0  0  0  0  0  0
   36.4010   29.4870   51.0590 C   0  0  0  0  0  0  0  0  0  0  0  0
   37.4300   29.9460   50.2720 N   0  0  0  0  0  0  0  0  0  0  0  0
   37.1340   30.4740   49.0560 C   0  0  0  0  0  0  0  0  0  0  0  0
   35.8500   30.5900   48.5330 N   0  0  0  0  0  0  0  0  0  0  0  0
   33.7980   30.1830   48.9880 H   0  0  0  0  0  0  0  0  0  0  0  0
   34.2800   29.2150   51.2040 H   0  0  0  0  0  0  0  0  0  0  0  0
   36.5830   29.0580   52.0350 H   0  0  0  0  0  0  0  0  0  0  0  0
   39.2220   32.2180   39.7510 C   0  0  0  0  0  0  0  0  0  0  0  0
   38.8870   33.4500   39.7210 O   0  0  0  0  0  0  0  0  0  0  0  0
   37.9920   30.9940   38.0640 C   0  0  0  0  0  0  0  0  0  0  0  0
   39.1540   31.7060   38.3970 C   0  0  0  0  0  0  0  0  0  0  0  0
   40.0400   31.7940   37.3560 C   0  0  0  0  0  0  0  0  0  0  0  0
   40.9480   32.3370   37.5530 H   0  0  0  0  0  0  0  0  0  0  0  0
   39.8740   31.2660   36.1000 C   0  0  0  0  0  0  0  0  0  0  0  0
   40.6550   31.4090   35.3660 H   0  0  0  0  0  0  0  0  0  0  0  0
   38.7120   30.5890   35.8680 C   0  0  0  0  0  3  0  0  0  0  0  0
   37.7290   30.4180   36.8150 C   0  0  0  0  0  3  0  0  0  0  0  0
   36.1140   30.6800   39.8740 N   0  0  0  0  0  0  0  0  0  0  0  0
   36.9490   30.8110   39.0630 C   0  0  0  0  0  0  0  0  0  0  0  0
  1  2  1  0  0  0  0
  1 10  1  0  0  0  0
  2  7  1  0  0  0  0
  3  8  1  0  0  0  0
  3  2  2  0  0  0  0
  4  3  1  0  0  0  0
  5  4  2  0  0  0  0
  5  6  1  0  0  0  0
  6  1  2  0  0  0  0
  9  4  1  0  0  0  0
 10 12  1  0  0  0  0
 11 10  2  0  0  0  0
 12 13  1  0  0  0  0
 12 16  1  0  0  0  0
 14 17  1  6  0  0  0
 14 25  1  0  0  0  0
 15 14  1  0  0  0  0
 15 18  1  0  0  0  0
 16 20  1  6  0  0  0
 16 15  1  0  0  0  0
 16 14  1  0  0  0  0
 19 15  1  0  0  0  0
 21 22  1  0  0  0  0
 22 23  2  0  0  0  0
 22 28  1  0  0  0  0
 23 29  1  0  0  0  0
 24 23  1  0  0  0  0
 25 24  2  0  0  0  0
 26 25  1  0  0  0  0
 26 21  2  0  0  0  0
 27 21  1  0  0  0  0
 30  5  1  0  0  0  0
 31 30  2  0  0  0  0
 32 33  1  0  0  0  0
 32 41  1  0  0  0  0
 33 30  1  0  0  0  0
 34 35  1  0  0  0  0
 34 33  2  0  0  0  0
 36 34  1  0  0  0  0
 37 36  1  0  0  0  0
 38 36  2  0  0  0  0
 38 39  1  0  0  0  0
 39 32  2  0  0  0  0
 41 40  3  0  0  0  0
M  END
>  <minimizedAffinity>
-4.72035122

>  <minimizedRMSD>
1.1660943

$$$$
