
 OpenBabel03272508573D

 41 44  0  0  1  0  0  0  0  0999 V2000
   39.1820   31.4020   43.2790 C   0  0  0  0  0  0  0  0  0  0  0  0
   40.2360   30.5380   43.4580 C   0  0  0  0  0  0  0  0  0  0  0  0
   40.9460   30.1630   42.3270 C   0  0  0  0  0  0  0  0  0  0  0  0
   40.5650   30.6650   41.1140 C   0  0  0  0  0  0  0  0  0  0  0  0
   39.5070   31.5290   40.9380 C   0  0  0  0  0  0  0  0  0  0  0  0
   38.8330   31.8780   42.0620 N   0  0  0  0  0  0  0  0  0  0  0  0
   40.5440   30.1330   44.4230 H   0  0  0  0  0  0  0  0  0  0  0  0
   41.7760   29.4840   42.4660 H   0  0  0  0  0  0  0  0  0  0  0  0
   41.1770   30.3210   40.3010 H   0  0  0  0  0  0  0  0  0  0  0  0
   38.4110   31.8360   44.4740 C   0  0  0  0  0  0  0  0  0  0  0  0
   37.3520   32.4610   44.3700 O   0  0  0  0  0  0  0  0  0  0  0  0
   38.9610   31.4900   45.7740 N   0  0  0  0  0  0  0  0  0  0  0  0
   39.9280   31.1490   45.9280 H   0  0  0  0  0  0  0  0  0  0  0  0
   38.4380   31.0390   48.1650 C   0  0  2  0  0  0  0  0  0  0  0  0
   38.7100   32.4950   48.0510 C   0  0  0  0  0  0  0  0  0  0  0  0
   38.0870   31.6380   46.9190 C   0  0  1  0  0  0  0  0  0  0  0  0
   39.3660   30.4250   48.2650 H   0  0  0  0  0  0  0  0  0  0  0  0
   38.0320   33.2270   48.5420 H   0  0  0  0  0  0  0  0  0  0  0  0
   39.7330   32.8460   47.9190 H   0  0  0  0  0  0  0  0  0  0  0  0
   37.0120   31.8920   46.7140 H   0  0  0  0  0  0  0  0  0  0  0  0
   35.0700   30.2530   49.5000 C   0  0  0  0  0  0  0  0  0  0  0  0
   35.3900   29.5760   50.7120 C   0  0  0  0  0  0  0  0  0  0  0  0
   36.7670   29.4120   51.0590 C   0  0  0  0  0  0  0  0  0  0  0  0
   37.7380   29.9050   50.2200 N   0  0  0  0  0  0  0  0  0  0  0  0
   37.3540   30.5380   49.0810 C   0  0  0  0  0  0  0  0  0  0  0  0
   36.0350   30.7320   48.6870 N   0  0  0  0  0  0  0  0  0  0  0  0
   34.0180   30.3450   49.2930 H   0  0  0  0  0  0  0  0  0  0  0  0
   34.6590   29.1870   51.3740 H   0  0  0  0  0  0  0  0  0  0  0  0
   37.0200   28.9000   51.9770 H   0  0  0  0  0  0  0  0  0  0  0  0
   39.0770   32.0360   39.6300 C   0  0  0  0  0  0  0  0  0  0  0  0
   39.1070   33.2990   39.4380 O   0  0  0  0  0  0  0  0  0  0  0  0
   39.5530   31.1230   37.4410 C   0  0  0  0  0  0  0  0  0  0  0  0
   38.5890   31.4130   38.4170 C   0  0  0  0  0  0  0  0  0  0  0  0
   37.3240   31.0440   38.0420 C   0  0  0  0  0  0  0  0  0  0  0  0
   36.5430   31.2360   38.7580 H   0  0  0  0  0  0  0  0  0  0  0  0
   36.9680   30.4530   36.8550 C   0  0  0  0  0  0  0  0  0  0  0  0
   35.9280   30.2130   36.6830 H   0  0  0  0  0  0  0  0  0  0  0  0
   37.9730   30.2100   35.9650 C   0  0  0  0  0  3  0  0  0  0  0  0
   39.2930   30.5230   36.2030 C   0  0  0  0  0  3  0  0  0  0  0  0
   42.0690   31.7160   37.9040 N   0  0  0  0  0  0  0  0  0  0  0  0
   40.9500   31.4530   37.6880 C   0  0  0  0  0  0  0  0  0  0  0  0
  1  2  1  0  0  0  0
  1 10  1  0  0  0  0
  2  7  1  0  0  0  0
  3  8  1  0  0  0  0
  3  2  2  0  0  0  0
  4  3  1  0  0  0  0
  5  4  2  0  0  0  0
  5  6  1  0  0  0  0
  6  1  2  0  0  0  0
  9  4  1  0  0  0  0
 10 12  1  0  0  0  0
 11 10  2  0  0  0  0
 12 13  1  0  0  0  0
 12 16  1  0  0  0  0
 14 17  1  6  0  0  0
 14 25  1  0  0  0  0
 15 14  1  0  0  0  0
 15 18  1  0  0  0  0
 16 20  1  6  0  0  0
 16 15  1  0  0  0  0
 16 14  1  0  0  0  0
 19 15  1  0  0  0  0
 21 22  1  0  0  0  0
 22 23  2  0  0  0  0
 22 28  1  0  0  0  0
 23 29  1  0  0  0  0
 24 23  1  0  0  0  0
 25 24  2  0  0  0  0
 26 25  1  0  0  0  0
 26 21  2  0  0  0  0
 27 21  1  0  0  0  0
 30  5  1  0  0  0  0
 31 30  2  0  0  0  0
 32 41  1  0  0  0  0
 32 33  1  0  0  0  0
 33 30  1  0  0  0  0
 34 33  2  0  0  0  0
 34 35  1  0  0  0  0
 36 34  1  0  0  0  0
 37 36  1  0  0  0  0
 38 39  1  0  0  0  0
 38 36  2  0  0  0  0
 39 32  2  0  0  0  0
 41 40  3  0  0  0  0
M  END
>  <minimizedAffinity>
-4.75686216

>  <minimizedRMSD>
0.514979005

$$$$
