
 OpenBabel03272508573D

 41 44  0  0  1  0  0  0  0  0999 V2000
   39.1070   31.5150   43.3030 C   0  0  0  0  0  0  0  0  0  0  0  0
   40.1200   30.5990   43.4550 C   0  0  0  0  0  0  0  0  0  0  0  0
   40.8380   30.2560   42.3180 C   0  0  0  0  0  0  0  0  0  0  0  0
   40.5030   30.8380   41.1280 C   0  0  0  0  0  0  0  0  0  0  0  0
   39.4860   31.7550   40.9800 C   0  0  0  0  0  0  0  0  0  0  0  0
   38.8030   32.0710   42.1080 N   0  0  0  0  0  0  0  0  0  0  0  0
   40.3910   30.1300   44.4020 H   0  0  0  0  0  0  0  0  0  0  0  0
   41.6360   29.5360   42.4350 H   0  0  0  0  0  0  0  0  0  0  0  0
   41.1170   30.5140   40.3080 H   0  0  0  0  0  0  0  0  0  0  0  0
   38.3300   31.9160   44.5060 C   0  0  0  0  0  0  0  0  0  0  0  0
   37.2260   32.4610   44.4130 O   0  0  0  0  0  0  0  0  0  0  0  0
   38.9270   31.6360   45.8010 N   0  0  0  0  0  0  0  0  0  0  0  0
   39.9190   31.3690   45.9420 H   0  0  0  0  0  0  0  0  0  0  0  0
   38.4330   31.1010   48.1810 C   0  0  2  0  0  0  0  0  0  0  0  0
   38.7030   32.5600   48.1150 C   0  0  0  0  0  0  0  0  0  0  0  0
   38.0670   31.7430   46.9600 C   0  0  1  0  0  0  0  0  0  0  0  0
   39.3610   30.4830   48.2480 H   0  0  0  0  0  0  0  0  0  0  0  0
   38.0320   33.2750   48.6400 H   0  0  0  0  0  0  0  0  0  0  0  0
   39.7260   32.9150   47.9830 H   0  0  0  0  0  0  0  0  0  0  0  0
   36.9890   32.0040   46.7780 H   0  0  0  0  0  0  0  0  0  0  0  0
   35.0810   30.2320   49.5060 C   0  0  0  0  0  0  0  0  0  0  0  0
   35.4150   29.5480   50.7110 C   0  0  0  0  0  0  0  0  0  0  0  0
   36.7960   29.4090   51.0560 C   0  0  0  0  0  0  0  0  0  0  0  0
   37.7560   29.9300   50.2230 N   0  0  0  0  0  0  0  0  0  0  0  0
   37.3590   30.5680   49.0900 C   0  0  0  0  0  0  0  0  0  0  0  0
   36.0360   30.7390   48.6980 N   0  0  0  0  0  0  0  0  0  0  0  0
   34.0270   30.3050   49.3000 H   0  0  0  0  0  0  0  0  0  0  0  0
   34.6920   29.1380   51.3680 H   0  0  0  0  0  0  0  0  0  0  0  0
   37.0580   28.8920   51.9680 H   0  0  0  0  0  0  0  0  0  0  0  0
   39.1050   32.3500   39.6940 C   0  0  0  0  0  0  0  0  0  0  0  0
   38.9620   33.6180   39.6390 O   0  0  0  0  0  0  0  0  0  0  0  0
   37.5250   31.3390   38.1650 C   0  0  0  0  0  0  0  0  0  0  0  0
   38.8280   31.8130   38.3770 C   0  0  0  0  0  0  0  0  0  0  0  0
   39.6280   31.6800   37.2730 C   0  0  0  0  0  0  0  0  0  0  0  0
   40.6390   32.0340   37.3760 H   0  0  0  0  0  0  0  0  0  0  0  0
   39.2600   31.1500   36.0610 C   0  0  0  0  0  0  0  0  0  0  0  0
   39.9930   31.1040   35.2670 H   0  0  0  0  0  0  0  0  0  0  0  0
   37.9710   30.7160   35.9490 C   0  0  0  0  0  3  0  0  0  0  0  0
   37.0520   30.7830   36.9710 C   0  0  0  0  0  3  0  0  0  0  0  0
   35.7740   31.4810   40.1180 N   0  0  0  0  0  0  0  0  0  0  0  0
   36.5500   31.4100   39.2450 C   0  0  0  0  0  0  0  0  0  0  0  0
  1  2  1  0  0  0  0
  1 10  1  0  0  0  0
  2  7  1  0  0  0  0
  3  8  1  0  0  0  0
  3  2  2  0  0  0  0
  4  3  1  0  0  0  0
  5  4  2  0  0  0  0
  5  6  1  0  0  0  0
  6  1  2  0  0  0  0
  9  4  1  0  0  0  0
 10 12  1  0  0  0  0
 11 10  2  0  0  0  0
 12 13  1  0  0  0  0
 12 16  1  0  0  0  0
 14 17  1  6  0  0  0
 14 25  1  0  0  0  0
 15 14  1  0  0  0  0
 15 18  1  0  0  0  0
 16 20  1  6  0  0  0
 16 15  1  0  0  0  0
 16 14  1  0  0  0  0
 19 15  1  0  0  0  0
 21 22  1  0  0  0  0
 22 23  2  0  0  0  0
 22 28  1  0  0  0  0
 23 29  1  0  0  0  0
 24 23  1  0  0  0  0
 25 24  2  0  0  0  0
 26 25  1  0  0  0  0
 26 21  2  0  0  0  0
 27 21  1  0  0  0  0
 30  5  1  0  0  0  0
 31 30  2  0  0  0  0
 32 33  1  0  0  0  0
 32 41  1  0  0  0  0
 33 30  1  0  0  0  0
 34 35  1  0  0  0  0
 34 33  2  0  0  0  0
 36 34  1  0  0  0  0
 37 36  1  0  0  0  0
 38 36  2  0  0  0  0
 38 39  1  0  0  0  0
 39 32  2  0  0  0  0
 41 40  3  0  0  0  0
M  END
>  <minimizedAffinity>
-4.7325449

>  <minimizedRMSD>
0.926858127

$$$$
