
 OpenBabel03262523563D

 39 41  0  0  1  0  0  0  0  0999 V2000
   33.7740   29.7050   45.0490 C   0  0  1  0  0  0  0  0  0  0  0  0
   32.9670   30.9120   44.9760 C   0  0  0  0  0  0  0  0  0  0  0  0
   32.7050   31.2260   43.5350 C   0  0  0  0  0  0  0  0  0  0  0  0
   33.9310   31.0510   42.7150 C   0  0  0  0  0  0  0  0  0  0  0  0
   35.2030   31.0020   43.4500 C   0  0  0  0  0  0  0  0  0  0  0  0
   35.2040   30.0740   44.6650 C   0  0  1  0  0  0  0  0  0  0  0  0
   33.4580   28.9600   44.2630 H   0  0  0  0  0  0  0  0  0  0  0  0
   32.0160   30.8440   45.5540 H   0  0  0  0  0  0  0  0  0  0  0  0
   33.4890   31.7970   45.4040 H   0  0  0  0  0  0  0  0  0  0  0  0
   32.2270   32.2250   43.4450 H   0  0  0  0  0  0  0  0  0  0  0  0
   31.9160   30.4910   43.1980 H   0  0  0  0  0  0  0  0  0  0  0  0
   33.8530   30.1400   42.0650 H   0  0  0  0  0  0  0  0  0  0  0  0
   33.9820   31.9100   42.0150 H   0  0  0  0  0  0  0  0  0  0  0  0
   35.5560   32.0140   43.8070 H   0  0  0  0  0  0  0  0  0  0  0  0
   36.0060   30.6350   42.7800 H   0  0  0  0  0  0  0  0  0  0  0  0
   35.7110   29.1130   44.3960 H   0  0  0  0  0  0  0  0  0  0  0  0
   34.0110   29.2220   48.7240 C   0  0  0  0  0  0  0  0  0  0  0  0
   33.9020   29.8760   47.4660 C   0  0  0  0  0  0  0  0  0  0  0  0
   33.8630   29.0410   46.3570 C   0  0  0  0  0  0  0  0  0  0  0  0
   33.9280   27.6640   46.5100 N   0  0  0  0  0  0  0  0  0  0  0  0
   34.0310   27.0950   47.7180 C   0  0  0  0  0  0  0  0  0  0  0  0
   34.0730   27.8670   48.8350 N   0  0  0  0  0  0  0  0  0  0  0  0
   34.0480   29.7900   49.6350 H   0  0  0  0  0  0  0  0  0  0  0  0
   33.8550   30.9520   47.4060 H   0  0  0  0  0  0  0  0  0  0  0  0
   34.0720   26.0150   47.6850 H   0  0  0  0  0  0  0  0  0  0  0  0
   37.3430   30.6660   46.1180 C   0  0  0  0  0  0  0  0  0  0  0  0
   38.0330   30.0600   45.2450 O   0  0  0  0  0  0  0  0  0  0  0  0
   35.9660   30.6620   45.7340 N   0  0  0  0  0  0  0  0  0  0  0  0
   35.2650   31.2040   46.3340 H   0  0  0  0  0  0  0  0  0  0  0  0
   38.6070   32.3660   47.2440 C   0  0  0  0  0  0  0  0  0  0  0  0
   37.6950   31.3220   47.3700 C   0  0  0  0  0  0  0  0  0  0  0  0
   37.2140   30.9990   48.6170 C   0  0  0  0  0  0  0  0  0  0  0  0
   36.5140   30.1870   48.6680 H   0  0  0  0  0  0  0  0  0  0  0  0
   37.6460   31.7190   49.7220 C   0  0  0  0  0  0  0  0  0  0  0  0
   37.2660   31.4640   50.7010 H   0  0  0  0  0  0  0  0  0  0  0  0
   38.5510   32.7630   49.6250 C   0  0  0  0  0  0  0  0  0  0  0  0
   39.0070   33.0530   48.3590 C   0  0  0  0  0  0  0  0  0  0  0  0
   39.6010   33.0800   44.9650 N   0  0  0  0  0  0  0  0  0  0  0  0
   39.1620   32.7720   45.9830 C   0  0  0  0  0  0  0  0  0  0  0  0
  1  7  1  6  0  0  0
  1 19  1  0  0  0  0
  2  1  1  0  0  0  0
  2  9  1  0  0  0  0
  2  8  1  0  0  0  0
  3  2  1  0  0  0  0
  4  5  1  0  0  0  0
  4  3  1  0  0  0  0
  5 14  1  0  0  0  0
  5  6  1  0  0  0  0
  6 16  1  6  0  0  0
  6  1  1  0  0  0  0
  6 28  1  0  0  0  0
 10  3  1  0  0  0  0
 11  3  1  0  0  0  0
 12  4  1  0  0  0  0
 13  4  1  0  0  0  0
 15  5  1  0  0  0  0
 17 22  1  0  0  0  0
 17 23  1  0  0  0  0
 18 17  2  0  0  0  0
 19 20  2  0  0  0  0
 19 18  1  0  0  0  0
 20 21  1  0  0  0  0
 21 22  2  0  0  0  0
 24 18  1  0  0  0  0
 25 21  1  0  0  0  0
 26 31  1  0  0  0  0
 27 26  2  0  0  0  0
 28 26  1  0  0  0  0
 28 29  1  0  0  0  0
 30 31  2  0  0  0  0
 30 37  1  0  0  0  0
 31 32  1  0  0  0  0
 32 33  1  0  0  0  0
 32 34  2  0  0  0  0
 34 35  1  0  0  0  0
 36 34  1  0  0  0  0
 37 36  2  0  0  0  0
 38 39  3  0  0  0  0
 39 30  1  0  0  0  0
M  END
>  <minimizedAffinity>
-5.3893733

>  <minimizedRMSD>
4.71521759

$$$$
