
 OpenBabel03262523563D

 39 41  0  0  1  0  0  0  0  0999 V2000
   36.6820   30.6680   42.9150 C   0  0  1  0  0  0  0  0  0  0  0  0
   37.4080   29.4220   43.0980 C   0  0  0  0  0  0  0  0  0  0  0  0
   36.4190   28.3000   43.1890 C   0  0  0  0  0  0  0  0  0  0  0  0
   35.2650   28.6700   44.0470 C   0  0  0  0  0  0  0  0  0  0  0  0
   35.4570   29.8280   44.9330 C   0  0  0  0  0  0  0  0  0  0  0  0
   36.0690   31.0550   44.2570 C   0  0  1  0  0  0  0  0  0  0  0  0
   35.7950   30.5210   42.2350 H   0  0  0  0  0  0  0  0  0  0  0  0
   38.1650   29.2300   42.3030 H   0  0  0  0  0  0  0  0  0  0  0  0
   37.9920   29.4080   44.0460 H   0  0  0  0  0  0  0  0  0  0  0  0
   36.9340   27.3630   43.4870 H   0  0  0  0  0  0  0  0  0  0  0  0
   36.0630   28.1190   42.1330 H   0  0  0  0  0  0  0  0  0  0  0  0
   34.3430   28.8360   43.4310 H   0  0  0  0  0  0  0  0  0  0  0  0
   35.0380   27.7930   44.6880 H   0  0  0  0  0  0  0  0  0  0  0  0
   36.0910   29.6000   45.8400 H   0  0  0  0  0  0  0  0  0  0  0  0
   34.4790   30.1540   45.3380 H   0  0  0  0  0  0  0  0  0  0  0  0
   35.2590   31.7930   44.0270 H   0  0  0  0  0  0  0  0  0  0  0  0
   37.5940   33.8160   41.1650 C   0  0  0  0  0  0  0  0  0  0  0  0
   36.8200   32.7060   41.6030 C   0  0  0  0  0  0  0  0  0  0  0  0
   37.4610   31.8340   42.4730 C   0  0  0  0  0  0  0  0  0  0  0  0
   38.7700   32.0670   42.8660 N   0  0  0  0  0  0  0  0  0  0  0  0
   39.4580   33.1280   42.4250 C   0  0  0  0  0  0  0  0  0  0  0  0
   38.8770   34.0120   41.5710 N   0  0  0  0  0  0  0  0  0  0  0  0
   37.1770   34.5410   40.4910 H   0  0  0  0  0  0  0  0  0  0  0  0
   35.8040   32.5730   41.2650 H   0  0  0  0  0  0  0  0  0  0  0  0
   40.4660   33.1820   42.8130 H   0  0  0  0  0  0  0  0  0  0  0  0
   37.9600   31.2710   46.1050 C   0  0  0  0  0  0  0  0  0  0  0  0
   38.0650   30.0090   46.0640 O   0  0  0  0  0  0  0  0  0  0  0  0
   36.9850   31.7070   45.1550 N   0  0  0  0  0  0  0  0  0  0  0  0
   36.8380   32.7570   45.0160 H   0  0  0  0  0  0  0  0  0  0  0  0
   38.1600   32.3900   48.2180 C   0  0  0  0  0  0  0  0  0  0  0  0
   38.6230   32.2880   46.9100 C   0  0  0  0  0  0  0  0  0  0  0  0
   39.6340   33.1210   46.4900 C   0  0  0  0  0  0  0  0  0  0  0  0
   39.9590   33.0080   45.4740 H   0  0  0  0  0  0  0  0  0  0  0  0
   40.1690   34.0450   47.3770 C   0  0  0  0  0  0  0  0  0  0  0  0
   40.9620   34.6980   47.0430 H   0  0  0  0  0  0  0  0  0  0  0  0
   39.7260   34.1670   48.6830 C   0  0  0  0  0  3  0  0  0  0  0  0
   38.7150   33.3150   49.0630 C   0  0  0  0  0  3  0  0  0  0  0  0
   36.2620   30.8960   49.1460 N   0  0  0  0  0  0  0  0  0  0  0  0
   37.1100   31.5620   48.7430 C   0  0  0  0  0  0  0  0  0  0  0  0
  1  7  1  6  0  0  0
  1  2  1  0  0  0  0
  1  6  1  0  0  0  0
  2  3  1  0  0  0  0
  2  9  1  0  0  0  0
  3 10  1  0  0  0  0
  3  4  1  0  0  0  0
  4 13  1  0  0  0  0
  4  5  1  0  0  0  0
  5 15  1  0  0  0  0
  5 14  1  0  0  0  0
  6 16  1  6  0  0  0
  6  5  1  0  0  0  0
  6 28  1  0  0  0  0
  8  2  1  0  0  0  0
 11  3  1  0  0  0  0
 12  4  1  0  0  0  0
 17 22  2  0  0  0  0
 17 18  1  0  0  0  0
 18 19  2  0  0  0  0
 19 20  1  0  0  0  0
 19  1  1  0  0  0  0
 21 25  1  0  0  0  0
 21 20  2  0  0  0  0
 22 21  1  0  0  0  0
 23 17  1  0  0  0  0
 24 18  1  0  0  0  0
 26 31  1  0  0  0  0
 27 26  2  0  0  0  0
 28 26  1  0  0  0  0
 29 28  1  0  0  0  0
 30 39  1  0  0  0  0
 30 37  1  0  0  0  0
 31 30  2  0  0  0  0
 32 31  1  0  0  0  0
 32 34  2  0  0  0  0
 33 32  1  0  0  0  0
 34 36  1  0  0  0  0
 35 34  1  0  0  0  0
 36 37  2  0  0  0  0
 39 38  3  0  0  0  0
M  END
>  <minimizedAffinity>
-4.79547215

>  <minimizedRMSD>
5.74662161

$$$$
