
 OpenBabel03262521533D

 24 25  0  0  0  0  0  0  0  0999 V2000
   35.5740   29.4770   32.1790 C   0  0  0  0  0  0  0  0  0  0  0  0
   35.4010   29.7600   31.1200 H   0  0  0  0  0  0  0  0  0  0  0  0
   36.3530   30.1320   32.6130 H   0  0  0  0  0  0  0  0  0  0  0  0
   34.0100   29.6620   33.0620 S   0  0  0  0  0  0  0  0  0  0  0  0
   34.3300   30.5430   34.5870 C   0  0  0  0  0  0  0  0  0  0  0  0
   35.6490   30.9370   34.7690 C   0  0  0  0  0  0  0  0  0  0  0  0
   35.9550   31.6280   35.9390 C   0  0  0  0  0  0  0  0  0  0  0  0
   34.9570   31.8890   36.8500 N   0  0  0  0  0  0  0  0  0  0  0  0
   33.7060   31.4790   36.6090 C   0  0  0  0  0  0  0  0  0  0  0  0
   33.3840   30.8150   35.4970 N   0  0  0  0  0  0  0  0  0  0  0  0
   36.4680   30.7630   34.0940 H   0  0  0  0  0  0  0  0  0  0  0  0
   36.9680   31.9530   36.1220 H   0  0  0  0  0  0  0  0  0  0  0  0
   32.9990   31.7350   37.3870 H   0  0  0  0  0  0  0  0  0  0  0  0
   36.1410   27.7340   32.1840 S   0  0  0  0  0  0  0  0  0  0  0  0
   38.6080   27.1660   33.0420 C   0  0  0  0  0  0  0  0  0  0  0  0
   37.3210   27.4730   33.5000 C   0  0  0  0  0  0  0  0  0  0  0  0
   37.1110   27.5440   34.8680 C   0  0  0  0  0  0  0  0  0  0  0  0
   36.1100   27.7830   35.1240 H   0  0  0  0  0  0  0  0  0  0  0  0
   38.1780   27.3080   35.7090 C   0  0  0  0  0  0  0  0  0  0  0  0
   37.9900   27.3690   36.7510 H   0  0  0  0  0  0  0  0  0  0  0  0
   39.4500   27.0030   35.2860 C   0  0  0  0  0  3  0  0  0  0  0  0
   39.6610   26.9330   33.9260 C   0  0  0  0  0  3  0  0  0  0  0  0
   39.2100   26.9710   30.5250 N   0  0  0  0  0  0  0  0  0  0  0  0
   38.9500   27.0650   31.6450 C   0  0  0  0  0  0  0  0  0  0  0  0
  1 14  1  0  0  0  0
  1  3  1  0  0  0  0
  1  4  1  0  0  0  0
  2  1  1  0  0  0  0
  4  5  1  0  0  0  0
  5  6  2  0  0  0  0
  5 10  1  0  0  0  0
  6  7  1  0  0  0  0
  7 12  1  0  0  0  0
  7  8  2  0  0  0  0
  9  8  1  0  0  0  0
  9 13  1  0  0  0  0
 10  9  2  0  0  0  0
 11  6  1  0  0  0  0
 14 16  1  0  0  0  0
 15 16  2  0  0  0  0
 15 22  1  0  0  0  0
 16 17  1  0  0  0  0
 17 18  1  0  0  0  0
 17 19  2  0  0  0  0
 19 20  1  0  0  0  0
 21 19  1  0  0  0  0
 22 21  2  0  0  0  0
 23 24  3  0  0  0  0
 24 15  1  0  0  0  0
M  END
>  <minimizedAffinity>
-4.35795307

$$$$

 OpenBabel03262521533D

 24 25  0  0  0  0  0  0  0  0999 V2000
   39.7510   22.8740   33.2260 C   0  0  0  0  0  0  0  0  0  0  0  0
   40.6280   22.9300   33.9030 H   0  0  0  0  0  0  0  0  0  0  0  0
   39.9430   22.1260   32.4340 H   0  0  0  0  0  0  0  0  0  0  0  0
   38.3170   22.4060   34.2200 S   0  0  0  0  0  0  0  0  0  0  0  0
   38.6780   22.7800   35.9330 C   0  0  0  0  0  0  0  0  0  0  0  0
   37.7190   23.5480   36.5780 C   0  0  0  0  0  0  0  0  0  0  0  0
   37.9470   23.8690   37.9140 C   0  0  0  0  0  0  0  0  0  0  0  0
   39.0940   23.4190   38.5300 N   0  0  0  0  0  0  0  0  0  0  0  0
   39.9770   22.6820   37.8450 C   0  0  0  0  0  0  0  0  0  0  0  0
   39.7830   22.3600   36.5650 N   0  0  0  0  0  0  0  0  0  0  0  0
   36.8060   23.9250   36.1500 H   0  0  0  0  0  0  0  0  0  0  0  0
   37.2280   24.4640   38.4560 H   0  0  0  0  0  0  0  0  0  0  0  0
   40.8420   22.3800   38.4210 H   0  0  0  0  0  0  0  0  0  0  0  0
   39.5350   24.5360   32.4860 S   0  0  0  0  0  0  0  0  0  0  0  0
   37.6730   26.0980   33.6000 C   0  0  0  0  0  0  0  0  0  0  0  0
   39.0100   25.7040   33.7330 C   0  0  0  0  0  0  0  0  0  0  0  0
   39.7510   26.2350   34.7760 C   0  0  0  0  0  0  0  0  0  0  0  0
   40.7500   25.8820   34.8000 H   0  0  0  0  0  0  0  0  0  0  0  0
   39.1360   27.1270   35.6310 C   0  0  0  0  0  0  0  0  0  0  0  0
   39.7250   27.5180   36.4200 H   0  0  0  0  0  0  0  0  0  0  0  0
   37.8270   27.5310   35.5220 C   0  0  0  0  0  3  0  0  0  0  0  0
   37.0880   27.0020   34.4850 C   0  0  0  0  0  3  0  0  0  0  0  0
   36.0980   25.2130   31.7370 N   0  0  0  0  0  0  0  0  0  0  0  0
   36.8030   25.6130   32.5580 C   0  0  0  0  0  0  0  0  0  0  0  0
  1  2  1  0  0  0  0
  1  4  1  0  0  0  0
  3  1  1  0  0  0  0
  4  5  1  0  0  0  0
  5 10  2  0  0  0  0
  5  6  1  0  0  0  0
  6  7  2  0  0  0  0
  7 12  1  0  0  0  0
  7  8  1  0  0  0  0
  9 13  1  0  0  0  0
  9  8  2  0  0  0  0
 10  9  1  0  0  0  0
 11  6  1  0  0  0  0
 14  1  1  0  0  0  0
 14 16  1  0  0  0  0
 15 16  2  0  0  0  0
 15 22  1  0  0  0  0
 16 17  1  0  0  0  0
 17 18  1  0  0  0  0
 17 19  2  0  0  0  0
 19 20  1  0  0  0  0
 21 19  1  0  0  0  0
 22 21  2  0  0  0  0
 23 24  3  0  0  0  0
 24 15  1  0  0  0  0
M  END
>  <minimizedAffinity>
-4.35635281

$$$$

 OpenBabel03262521533D

 24 25  0  0  0  0  0  0  0  0999 V2000
   39.5790   22.8740   33.2790 C   0  0  0  0  0  0  0  0  0  0  0  0
   40.4700   22.8470   33.9390 H   0  0  0  0  0  0  0  0  0  0  0  0
   39.6800   22.1020   32.4930 H   0  0  0  0  0  0  0  0  0  0  0  0
   38.1250   22.5640   34.3040 S   0  0  0  0  0  0  0  0  0  0  0  0
   38.5640   22.8860   36.0090 C   0  0  0  0  0  0  0  0  0  0  0  0
   37.6460   23.6530   36.7140 C   0  0  0  0  0  0  0  0  0  0  0  0
   37.9360   23.9330   38.0470 C   0  0  0  0  0  0  0  0  0  0  0  0
   39.1000   23.4490   38.6020 N   0  0  0  0  0  0  0  0  0  0  0  0
   39.9400   22.7160   37.8610 C   0  0  0  0  0  0  0  0  0  0  0  0
   39.6870   22.4320   36.5820 N   0  0  0  0  0  0  0  0  0  0  0  0
   36.7240   24.0560   36.3360 H   0  0  0  0  0  0  0  0  0  0  0  0
   37.2510   24.5260   38.6340 H   0  0  0  0  0  0  0  0  0  0  0  0
   40.8230   22.3850   38.3920 H   0  0  0  0  0  0  0  0  0  0  0  0
   39.5190   24.5410   32.5220 S   0  0  0  0  0  0  0  0  0  0  0  0
   39.6060   26.1800   34.6330 C   0  0  0  0  0  0  0  0  0  0  0  0
   38.7430   25.6990   33.6410 C   0  0  0  0  0  0  0  0  0  0  0  0
   37.4360   26.1570   33.6310 C   0  0  0  0  0  0  0  0  0  0  0  0
   36.8550   25.7420   32.8460 H   0  0  0  0  0  0  0  0  0  0  0  0
   37.0490   27.0620   34.5970 C   0  0  0  0  0  0  0  0  0  0  0  0
   36.0440   27.3960   34.5670 H   0  0  0  0  0  0  0  0  0  0  0  0
   37.8750   27.5480   35.5820 C   0  0  0  0  0  3  0  0  0  0  0  0
   39.1770   27.0940   35.5930 C   0  0  0  0  0  3  0  0  0  0  0  0
   42.0860   25.4400   34.8300 N   0  0  0  0  0  0  0  0  0  0  0  0
   40.9870   25.7790   34.7460 C   0  0  0  0  0  0  0  0  0  0  0  0
  1  2  1  0  0  0  0
  1  4  1  0  0  0  0
  3  1  1  0  0  0  0
  4  5  1  0  0  0  0
  5 10  2  0  0  0  0
  5  6  1  0  0  0  0
  6  7  2  0  0  0  0
  7  8  1  0  0  0  0
  7 12  1  0  0  0  0
  9 13  1  0  0  0  0
  9  8  2  0  0  0  0
 10  9  1  0  0  0  0
 11  6  1  0  0  0  0
 14  1  1  0  0  0  0
 14 16  1  0  0  0  0
 15 24  1  0  0  0  0
 15 22  1  0  0  0  0
 16 15  2  0  0  0  0
 17 16  1  0  0  0  0
 17 19  2  0  0  0  0
 18 17  1  0  0  0  0
 19 21  1  0  0  0  0
 20 19  1  0  0  0  0
 21 22  2  0  0  0  0
 24 23  3  0  0  0  0
M  END
>  <minimizedAffinity>
-4.30631018

$$$$

 OpenBabel03262521533D

 24 25  0  0  0  0  0  0  0  0999 V2000
   39.0270   22.1260   33.9940 C   0  0  0  0  0  0  0  0  0  0  0  0
   39.8090   22.6690   33.4240 H   0  0  0  0  0  0  0  0  0  0  0  0
   39.2300   21.0390   33.9560 H   0  0  0  0  0  0  0  0  0  0  0  0
   39.0660   22.7300   35.6950 S   0  0  0  0  0  0  0  0  0  0  0  0
   39.0860   24.5200   35.6530 C   0  0  0  0  0  0  0  0  0  0  0  0
   40.1290   25.0760   34.9250 C   0  0  0  0  0  0  0  0  0  0  0  0
   40.1940   26.4650   34.8570 C   0  0  0  0  0  0  0  0  0  0  0  0
   39.2380   27.2180   35.5020 N   0  0  0  0  0  0  0  0  0  0  0  0
   38.2600   26.6140   36.1870 C   0  0  0  0  0  0  0  0  0  0  0  0
   38.1740   25.2850   36.2690 N   0  0  0  0  0  0  0  0  0  0  0  0
   40.9010   24.5400   34.4010 H   0  0  0  0  0  0  0  0  0  0  0  0
   40.9890   26.9410   34.3020 H   0  0  0  0  0  0  0  0  0  0  0  0
   37.5620   27.2960   36.6550 H   0  0  0  0  0  0  0  0  0  0  0  0
   37.4220   22.4960   33.1920 S   0  0  0  0  0  0  0  0  0  0  0  0
   35.9690   20.2590   33.3650 C   0  0  0  0  0  0  0  0  0  0  0  0
   36.7370   21.0130   32.4690 C   0  0  0  0  0  0  0  0  0  0  0  0
   36.8740   20.5490   31.1700 C   0  0  0  0  0  0  0  0  0  0  0  0
   37.4690   21.1810   30.5620 H   0  0  0  0  0  0  0  0  0  0  0  0
   36.2490   19.3690   30.8250 C   0  0  0  0  0  0  0  0  0  0  0  0
   36.3690   19.0370   29.8260 H   0  0  0  0  0  0  0  0  0  0  0  0
   35.4910   18.6100   31.6850 C   0  0  0  0  0  3  0  0  0  0  0  0
   35.3530   19.0700   32.9770 C   0  0  0  0  0  3  0  0  0  0  0  0
   35.5910   20.9270   35.8440 N   0  0  0  0  0  0  0  0  0  0  0  0
   35.7530   20.6390   34.7390 C   0  0  0  0  0  0  0  0  0  0  0  0
  1  4  1  0  0  0  0
  2  1  1  0  0  0  0
  3  1  1  0  0  0  0
  5  4  1  0  0  0  0
  5 10  1  0  0  0  0
  6  5  2  0  0  0  0
  7  6  1  0  0  0  0
  7  8  2  0  0  0  0
  8  9  1  0  0  0  0
  9 10  2  0  0  0  0
  9 13  1  0  0  0  0
 11  6  1  0  0  0  0
 12  7  1  0  0  0  0
 14  1  1  0  0  0  0
 15 24  1  0  0  0  0
 16 14  1  0  0  0  0
 16 15  2  0  0  0  0
 17 16  1  0  0  0  0
 18 17  1  0  0  0  0
 19 17  2  0  0  0  0
 19 21  1  0  0  0  0
 20 19  1  0  0  0  0
 21 22  2  0  0  0  0
 22 15  1  0  0  0  0
 24 23  3  0  0  0  0
M  END
>  <minimizedAffinity>
-4.16236925

$$$$

 OpenBabel03262521533D

 24 25  0  0  0  0  0  0  0  0999 V2000
   35.9230   25.2240   31.4950 C   0  0  0  0  0  0  0  0  0  0  0  0
   35.1490   25.2960   30.7030 H   0  0  0  0  0  0  0  0  0  0  0  0
   35.4640   24.8390   32.4250 H   0  0  0  0  0  0  0  0  0  0  0  0
   37.2140   24.1090   30.9040 S   0  0  0  0  0  0  0  0  0  0  0  0
   36.6730   22.4260   31.1880 C   0  0  0  0  0  0  0  0  0  0  0  0
   35.4810   22.3060   31.8900 C   0  0  0  0  0  0  0  0  0  0  0  0
   35.0110   21.0190   32.1390 C   0  0  0  0  0  0  0  0  0  0  0  0
   35.7340   19.9370   31.6880 N   0  0  0  0  0  0  0  0  0  0  0  0
   36.8760   20.1280   31.0170 C   0  0  0  0  0  0  0  0  0  0  0  0
   37.3500   21.3500   30.7650 N   0  0  0  0  0  0  0  0  0  0  0  0
   34.8750   23.1120   32.2650 H   0  0  0  0  0  0  0  0  0  0  0  0
   34.0890   20.8780   32.6820 H   0  0  0  0  0  0  0  0  0  0  0  0
   37.3650   19.2130   30.7070 H   0  0  0  0  0  0  0  0  0  0  0  0
   36.5750   26.9150   31.7660 S   0  0  0  0  0  0  0  0  0  0  0  0
   38.8970   26.9930   33.0890 C   0  0  0  0  0  0  0  0  0  0  0  0
   37.5110   26.9790   33.2870 C   0  0  0  0  0  0  0  0  0  0  0  0
   37.0330   27.0180   34.5870 C   0  0  0  0  0  0  0  0  0  0  0  0
   35.9740   27.0040   34.6430 H   0  0  0  0  0  0  0  0  0  0  0  0
   37.9460   27.0690   35.6210 C   0  0  0  0  0  0  0  0  0  0  0  0
   37.5540   27.0980   36.6050 H   0  0  0  0  0  0  0  0  0  0  0  0
   39.3100   27.0830   35.4540 C   0  0  0  0  0  3  0  0  0  0  0  0
   39.7860   27.0450   34.1610 C   0  0  0  0  0  3  0  0  0  0  0  0
   40.0130   26.9470   30.7460 N   0  0  0  0  0  0  0  0  0  0  0  0
   39.5130   26.9580   31.7860 C   0  0  0  0  0  0  0  0  0  0  0  0
  1 14  1  0  0  0  0
  1  3  1  0  0  0  0
  2  1  1  0  0  0  0
  4  5  1  0  0  0  0
  4  1  1  0  0  0  0
  5  6  1  0  0  0  0
  6  7  2  0  0  0  0
  6 11  1  0  0  0  0
  7 12  1  0  0  0  0
  8  7  1  0  0  0  0
  9  8  2  0  0  0  0
 10  9  1  0  0  0  0
 10  5  2  0  0  0  0
 13  9  1  0  0  0  0
 14 16  1  0  0  0  0
 15 16  2  0  0  0  0
 15 22  1  0  0  0  0
 16 17  1  0  0  0  0
 17 18  1  0  0  0  0
 17 19  2  0  0  0  0
 19 20  1  0  0  0  0
 21 19  1  0  0  0  0
 22 21  2  0  0  0  0
 23 24  3  0  0  0  0
 24 15  1  0  0  0  0
M  END
>  <minimizedAffinity>
-4.14841032

$$$$

 OpenBabel03262521533D

 24 25  0  0  0  0  0  0  0  0999 V2000
   41.1170   23.5360   33.8860 C   0  0  0  0  0  0  0  0  0  0  0  0
   40.2970   23.5710   33.1390 H   0  0  0  0  0  0  0  0  0  0  0  0
   42.0840   23.4000   33.3650 H   0  0  0  0  0  0  0  0  0  0  0  0
   41.0930   25.0900   34.8050 S   0  0  0  0  0  0  0  0  0  0  0  0
   39.4740   25.8290   34.6110 C   0  0  0  0  0  0  0  0  0  0  0  0
   39.1660   26.8130   35.5400 C   0  0  0  0  0  0  0  0  0  0  0  0
   37.9190   27.4240   35.4360 C   0  0  0  0  0  0  0  0  0  0  0  0
   37.0580   27.0360   34.4340 N   0  0  0  0  0  0  0  0  0  0  0  0
   37.4220   26.0790   33.5720 C   0  0  0  0  0  0  0  0  0  0  0  0
   38.6100   25.4770   33.6490 N   0  0  0  0  0  0  0  0  0  0  0  0
   39.7960   27.1580   36.3410 H   0  0  0  0  0  0  0  0  0  0  0  0
   37.6360   28.1950   36.1380 H   0  0  0  0  0  0  0  0  0  0  0  0
   36.6740   25.8490   32.8240 H   0  0  0  0  0  0  0  0  0  0  0  0
   40.7850   22.1070   34.9830 S   0  0  0  0  0  0  0  0  0  0  0  0
   38.3710   22.5980   36.0230 C   0  0  0  0  0  0  0  0  0  0  0  0
   39.7350   22.6030   36.3410 C   0  0  0  0  0  0  0  0  0  0  0  0
   40.1080   22.9720   37.6230 C   0  0  0  0  0  0  0  0  0  0  0  0
   41.1570   22.9460   37.7760 H   0  0  0  0  0  0  0  0  0  0  0  0
   39.1190   23.3170   38.5210 C   0  0  0  0  0  0  0  0  0  0  0  0
   39.4320   23.5950   39.4950 H   0  0  0  0  0  0  0  0  0  0  0  0
   37.7750   23.3210   38.2340 C   0  0  0  0  0  3  0  0  0  0  0  0
   37.4020   22.9540   36.9590 C   0  0  0  0  0  3  0  0  0  0  0  0
   37.4680   21.9480   33.6780 N   0  0  0  0  0  0  0  0  0  0  0  0
   37.8610   22.2320   34.7250 C   0  0  0  0  0  0  0  0  0  0  0  0
  1  4  1  0  0  0  0
  1 14  1  0  0  0  0
  2  1  1  0  0  0  0
  3  1  1  0  0  0  0
  5  4  1  0  0  0  0
  5  6  1  0  0  0  0
  6 11  1  0  0  0  0
  7  6  2  0  0  0  0
  7 12  1  0  0  0  0
  8  7  1  0  0  0  0
  9 10  1  0  0  0  0
  9  8  2  0  0  0  0
 10  5  2  0  0  0  0
 13  9  1  0  0  0  0
 14 16  1  0  0  0  0
 15 16  2  0  0  0  0
 15 22  1  0  0  0  0
 16 17  1  0  0  0  0
 17 18  1  0  0  0  0
 17 19  2  0  0  0  0
 19 20  1  0  0  0  0
 21 19  1  0  0  0  0
 22 21  2  0  0  0  0
 23 24  3  0  0  0  0
 24 15  1  0  0  0  0
M  END
>  <minimizedAffinity>
-4.1287365

$$$$

 OpenBabel03262521533D

 24 25  0  0  0  0  0  0  0  0999 V2000
   37.5960   25.3850   33.5750 C   0  0  0  0  0  0  0  0  0  0  0  0
   37.1670   25.9920   34.3980 H   0  0  0  0  0  0  0  0  0  0  0  0
   36.8550   24.6300   33.2490 H   0  0  0  0  0  0  0  0  0  0  0  0
   38.0110   26.5070   32.2220 S   0  0  0  0  0  0  0  0  0  0  0  0
   37.0480   28.0030   32.4210 C   0  0  0  0  0  0  0  0  0  0  0  0
   37.0460   28.8480   31.3200 C   0  0  0  0  0  0  0  0  0  0  0  0
   36.3120   30.0270   31.4180 C   0  0  0  0  0  0  0  0  0  0  0  0
   35.6300   30.3020   32.5820 N   0  0  0  0  0  0  0  0  0  0  0  0
   35.6760   29.4410   33.6050 C   0  0  0  0  0  0  0  0  0  0  0  0
   36.3720   28.3040   33.5380 N   0  0  0  0  0  0  0  0  0  0  0  0
   37.5570   28.6850   30.3870 H   0  0  0  0  0  0  0  0  0  0  0  0
   36.2820   30.7140   30.5860 H   0  0  0  0  0  0  0  0  0  0  0  0
   35.1060   29.7520   34.4720 H   0  0  0  0  0  0  0  0  0  0  0  0
   39.0900   24.5580   34.2380 S   0  0  0  0  0  0  0  0  0  0  0  0
   39.7510   23.2160   36.4530 C   0  0  0  0  0  0  0  0  0  0  0  0
   38.8780   24.2000   35.9760 C   0  0  0  0  0  0  0  0  0  0  0  0
   37.9830   24.7720   36.8660 C   0  0  0  0  0  0  0  0  0  0  0  0
   37.3620   25.5070   36.4190 H   0  0  0  0  0  0  0  0  0  0  0  0
   37.9960   24.3430   38.1770 C   0  0  0  0  0  0  0  0  0  0  0  0
   37.3010   24.7960   38.8360 H   0  0  0  0  0  0  0  0  0  0  0  0
   38.8410   23.3780   38.6710 C   0  0  0  0  0  3  0  0  0  0  0  0
   39.7330   22.8090   37.7860 C   0  0  0  0  0  3  0  0  0  0  0  0
   41.5100   22.0360   34.9540 N   0  0  0  0  0  0  0  0  0  0  0  0
   40.7260   22.5510   35.6250 C   0  0  0  0  0  0  0  0  0  0  0  0
  1 14  1  0  0  0  0
  1  2  1  0  0  0  0
  3  1  1  0  0  0  0
  4  5  1  0  0  0  0
  4  1  1  0  0  0  0
  5 10  1  0  0  0  0
  6  7  1  0  0  0  0
  6  5  2  0  0  0  0
  7  8  2  0  0  0  0
  8  9  1  0  0  0  0
  9 13  1  0  0  0  0
 10  9  2  0  0  0  0
 11  6  1  0  0  0  0
 12  7  1  0  0  0  0
 14 16  1  0  0  0  0
 15 22  1  0  0  0  0
 16 15  2  0  0  0  0
 16 17  1  0  0  0  0
 17 19  2  0  0  0  0
 18 17  1  0  0  0  0
 19 21  1  0  0  0  0
 19 20  1  0  0  0  0
 22 21  2  0  0  0  0
 23 24  3  0  0  0  0
 24 15  1  0  0  0  0
M  END
>  <minimizedAffinity>
-4.11869144

$$$$

 OpenBabel03262521533D

 24 25  0  0  0  0  0  0  0  0999 V2000
   40.6530   23.7110   33.4730 C   0  0  0  0  0  0  0  0  0  0  0  0
   41.3690   23.3230   32.7200 H   0  0  0  0  0  0  0  0  0  0  0  0
   41.1910   24.3550   34.1940 H   0  0  0  0  0  0  0  0  0  0  0  0
   39.3830   24.6480   32.5950 S   0  0  0  0  0  0  0  0  0  0  0  0
   38.6800   25.8380   33.7320 C   0  0  0  0  0  0  0  0  0  0  0  0
   39.5420   26.2740   34.7290 C   0  0  0  0  0  0  0  0  0  0  0  0
   39.0480   27.2030   35.6420 C   0  0  0  0  0  0  0  0  0  0  0  0
   37.7490   27.6430   35.5210 N   0  0  0  0  0  0  0  0  0  0  0  0
   36.9730   27.1780   34.5340 C   0  0  0  0  0  0  0  0  0  0  0  0
   37.4200   26.2890   33.6460 N   0  0  0  0  0  0  0  0  0  0  0  0
   40.5630   25.9680   34.8710 H   0  0  0  0  0  0  0  0  0  0  0  0
   39.6830   27.5700   36.4340 H   0  0  0  0  0  0  0  0  0  0  0  0
   35.9710   27.5870   34.5300 H   0  0  0  0  0  0  0  0  0  0  0  0
   39.9370   22.2610   34.3330 S   0  0  0  0  0  0  0  0  0  0  0  0
   40.0790   22.6650   36.9720 C   0  0  0  0  0  0  0  0  0  0  0  0
   39.2040   22.7630   35.8840 C   0  0  0  0  0  0  0  0  0  0  0  0
   37.9180   23.2240   36.1150 C   0  0  0  0  0  0  0  0  0  0  0  0
   37.3260   23.2660   35.2360 H   0  0  0  0  0  0  0  0  0  0  0  0
   37.5630   23.5620   37.4040 C   0  0  0  0  0  0  0  0  0  0  0  0
   36.5740   23.9120   37.5530 H   0  0  0  0  0  0  0  0  0  0  0  0
   38.4020   23.4750   38.4890 C   0  0  0  0  0  3  0  0  0  0  0  0
   39.6820   23.0170   38.2610 C   0  0  0  0  0  3  0  0  0  0  0  0
   42.5300   21.8330   36.7850 N   0  0  0  0  0  0  0  0  0  0  0  0
   41.4400   22.2020   36.8570 C   0  0  0  0  0  0  0  0  0  0  0  0
  1  3  1  0  0  0  0
  1 14  1  0  0  0  0
  2  1  1  0  0  0  0
  4  1  1  0  0  0  0
  4  5  1  0  0  0  0
  5  6  1  0  0  0  0
  6 11  1  0  0  0  0
  6  7  2  0  0  0  0
  7 12  1  0  0  0  0
  8  7  1  0  0  0  0
  9  8  2  0  0  0  0
 10  5  2  0  0  0  0
 10  9  1  0  0  0  0
 13  9  1  0  0  0  0
 14 16  1  0  0  0  0
 15 22  1  0  0  0  0
 16 17  1  0  0  0  0
 16 15  2  0  0  0  0
 17 19  2  0  0  0  0
 18 17  1  0  0  0  0
 19 20  1  0  0  0  0
 19 21  1  0  0  0  0
 22 21  2  0  0  0  0
 23 24  3  0  0  0  0
 24 15  1  0  0  0  0
M  END
>  <minimizedAffinity>
-4.10355282

$$$$

 OpenBabel03262521533D

 24 25  0  0  0  0  0  0  0  0999 V2000
   39.0450   26.5920   34.0910 C   0  0  0  0  0  0  0  0  0  0  0  0
   39.5730   26.8360   33.1470 H   0  0  0  0  0  0  0  0  0  0  0  0
   39.5770   27.0590   34.9420 H   0  0  0  0  0  0  0  0  0  0  0  0
   37.3590   27.2250   33.9590 S   0  0  0  0  0  0  0  0  0  0  0  0
   37.1610   27.9520   32.3350 C   0  0  0  0  0  0  0  0  0  0  0  0
   38.0290   27.4660   31.3670 C   0  0  0  0  0  0  0  0  0  0  0  0
   37.9180   27.9960   30.0840 C   0  0  0  0  0  0  0  0  0  0  0  0
   36.9700   28.9620   29.8310 N   0  0  0  0  0  0  0  0  0  0  0  0
   36.1660   29.3840   30.8140 C   0  0  0  0  0  0  0  0  0  0  0  0
   36.2500   28.8940   32.0530 N   0  0  0  0  0  0  0  0  0  0  0  0
   38.7860   26.7140   31.5050 H   0  0  0  0  0  0  0  0  0  0  0  0
   38.5730   27.6480   29.2990 H   0  0  0  0  0  0  0  0  0  0  0  0
   35.4580   30.1440   30.5110 H   0  0  0  0  0  0  0  0  0  0  0  0
   39.0610   24.7680   34.2610 S   0  0  0  0  0  0  0  0  0  0  0  0
   39.7670   23.3210   36.3950 C   0  0  0  0  0  0  0  0  0  0  0  0
   38.8650   24.3060   35.9760 C   0  0  0  0  0  0  0  0  0  0  0  0
   37.9590   24.8010   36.8990 C   0  0  0  0  0  0  0  0  0  0  0  0
   37.3160   25.5420   36.4970 H   0  0  0  0  0  0  0  0  0  0  0  0
   37.9890   24.2980   38.1840 C   0  0  0  0  0  0  0  0  0  0  0  0
   37.2850   24.6930   38.8700 H   0  0  0  0  0  0  0  0  0  0  0  0
   38.8620   23.3300   38.6200 C   0  0  0  0  0  3  0  0  0  0  0  0
   39.7650   22.8380   37.7020 C   0  0  0  0  0  3  0  0  0  0  0  0
   41.5410   22.2690   34.8180 N   0  0  0  0  0  0  0  0  0  0  0  0
   40.7570   22.7310   35.5280 C   0  0  0  0  0  0  0  0  0  0  0  0
  1 14  1  0  0  0  0
  1  3  1  0  0  0  0
  2  1  1  0  0  0  0
  4  1  1  0  0  0  0
  5  4  1  0  0  0  0
  6 11  1  0  0  0  0
  6  5  2  0  0  0  0
  7  6  1  0  0  0  0
  8  7  2  0  0  0  0
  8  9  1  0  0  0  0
  9 10  2  0  0  0  0
 10  5  1  0  0  0  0
 12  7  1  0  0  0  0
 13  9  1  0  0  0  0
 14 16  1  0  0  0  0
 15 22  1  0  0  0  0
 16 15  2  0  0  0  0
 16 17  1  0  0  0  0
 17 19  2  0  0  0  0
 18 17  1  0  0  0  0
 19 21  1  0  0  0  0
 19 20  1  0  0  0  0
 22 21  2  0  0  0  0
 23 24  3  0  0  0  0
 24 15  1  0  0  0  0
M  END
>  <minimizedAffinity>
-4.09922552

$$$$
