
 OpenBabel03262523563D

 39 41  0  0  1  0  0  0  0  0999 V2000
   38.5430   25.8230   33.7280 C   0  0  1  0  0  0  0  0  0  0  0  0
   39.7470   25.7400   32.9150 C   0  0  0  0  0  0  0  0  0  0  0  0
   39.9250   27.0400   32.1910 C   0  0  0  0  0  0  0  0  0  0  0  0
   38.6360   27.5280   31.6380 C   0  0  0  0  0  0  0  0  0  0  0  0
   37.5530   26.5370   31.5400 C   0  0  0  0  0  0  0  0  0  0  0  0
   37.3410   25.6960   32.7980 C   0  0  1  0  0  0  0  0  0  0  0  0
   38.4360   26.8480   34.1850 H   0  0  0  0  0  0  0  0  0  0  0  0
   40.6580   25.4750   33.5000 H   0  0  0  0  0  0  0  0  0  0  0  0
   39.6770   24.9490   32.1350 H   0  0  0  0  0  0  0  0  0  0  0  0
   40.7430   26.9500   31.4450 H   0  0  0  0  0  0  0  0  0  0  0  0
   40.3080   27.7710   32.9620 H   0  0  0  0  0  0  0  0  0  0  0  0
   38.2620   28.4150   32.2130 H   0  0  0  0  0  0  0  0  0  0  0  0
   38.8400   27.9040   30.6140 H   0  0  0  0  0  0  0  0  0  0  0  0
   37.6790   25.8180   30.6770 H   0  0  0  0  0  0  0  0  0  0  0  0
   36.5920   27.0540   31.3470 H   0  0  0  0  0  0  0  0  0  0  0  0
   36.4640   26.0970   33.3680 H   0  0  0  0  0  0  0  0  0  0  0  0
   37.6640   24.2160   36.9600 C   0  0  0  0  0  0  0  0  0  0  0  0
   37.8060   25.2170   35.9600 C   0  0  0  0  0  0  0  0  0  0  0  0
   38.3680   24.7930   34.7620 C   0  0  0  0  0  0  0  0  0  0  0  0
   38.7500   23.4710   34.5930 N   0  0  0  0  0  0  0  0  0  0  0  0
   38.5950   22.5650   35.5660 C   0  0  0  0  0  0  0  0  0  0  0  0
   38.0510   22.9270   36.7580 N   0  0  0  0  0  0  0  0  0  0  0  0
   37.2390   24.4550   37.9170 H   0  0  0  0  0  0  0  0  0  0  0  0
   37.4910   26.2320   36.1460 H   0  0  0  0  0  0  0  0  0  0  0  0
   38.9370   21.5750   35.2940 H   0  0  0  0  0  0  0  0  0  0  0  0
   35.9210   23.6980   31.7840 C   0  0  0  0  0  0  0  0  0  0  0  0
   35.0940   24.5670   31.3770 O   0  0  0  0  0  0  0  0  0  0  0  0
   37.0180   24.3410   32.4360 N   0  0  0  0  0  0  0  0  0  0  0  0
   37.8400   23.7420   32.7680 H   0  0  0  0  0  0  0  0  0  0  0  0
   37.0380   21.7090   31.0390 C   0  0  0  0  0  0  0  0  0  0  0  0
   35.9380   22.2430   31.7040 C   0  0  0  0  0  0  0  0  0  0  0  0
   34.9870   21.3930   32.2170 C   0  0  0  0  0  0  0  0  0  0  0  0
   34.1560   21.8480   32.7210 H   0  0  0  0  0  0  0  0  0  0  0  0
   35.1410   20.0230   32.0620 C   0  0  0  0  0  0  0  0  0  0  0  0
   34.3920   19.3570   32.4650 H   0  0  0  0  0  0  0  0  0  0  0  0
   36.2260   19.4650   31.4050 C   0  0  0  0  0  3  0  0  0  0  0  0
   37.1550   20.3510   30.9080 C   0  0  0  0  0  3  0  0  0  0  0  0
   38.9160   23.1780   30.0370 N   0  0  0  0  0  0  0  0  0  0  0  0
   38.0790   22.5200   30.4730 C   0  0  0  0  0  0  0  0  0  0  0  0
  1  7  1  1  0  0  0
  1 19  1  0  0  0  0
  2  8  1  0  0  0  0
  2  1  1  0  0  0  0
  3  2  1  0  0  0  0
  3 11  1  0  0  0  0
  4  3  1  0  0  0  0
  4 12  1  0  0  0  0
  5  4  1  0  0  0  0
  5  6  1  0  0  0  0
  6 16  1  1  0  0  0
  6  1  1  0  0  0  0
  9  2  1  0  0  0  0
 10  3  1  0  0  0  0
 13  4  1  0  0  0  0
 14  5  1  0  0  0  0
 15  5  1  0  0  0  0
 17 23  1  0  0  0  0
 18 24  1  0  0  0  0
 18 17  2  0  0  0  0
 19 18  1  0  0  0  0
 20 19  2  0  0  0  0
 20 21  1  0  0  0  0
 21 22  2  0  0  0  0
 22 17  1  0  0  0  0
 25 21  1  0  0  0  0
 26 28  1  0  0  0  0
 27 26  2  0  0  0  0
 28 29  1  0  0  0  0
 28  6  1  0  0  0  0
 30 31  1  0  0  0  0
 31 26  1  0  0  0  0
 31 32  2  0  0  0  0
 32 33  1  0  0  0  0
 34 32  1  0  0  0  0
 34 35  1  0  0  0  0
 36 34  2  0  0  0  0
 37 30  2  0  0  0  0
 37 36  1  0  0  0  0
 38 39  3  0  0  0  0
 39 30  1  0  0  0  0
M  END
>  <minimizedAffinity>
-5.35469866

$$$$

 OpenBabel03262523563D

 39 41  0  0  1  0  0  0  0  0999 V2000
   38.6020   24.9580   36.2750 C   0  0  1  0  0  0  0  0  0  0  0  0
   37.4850   24.8370   37.1990 C   0  0  0  0  0  0  0  0  0  0  0  0
   38.0150   24.4470   38.5440 C   0  0  0  0  0  0  0  0  0  0  0  0
   39.0550   23.3930   38.4260 C   0  0  0  0  0  0  0  0  0  0  0  0
   39.1000   22.6630   37.1500 C   0  0  0  0  0  0  0  0  0  0  0  0
   39.0580   23.5510   35.9060 C   0  0  1  0  0  0  0  0  0  0  0  0
   39.4970   25.4180   36.7840 H   0  0  0  0  0  0  0  0  0  0  0  0
   36.8610   25.7590   37.2610 H   0  0  0  0  0  0  0  0  0  0  0  0
   36.7690   24.0390   36.8960 H   0  0  0  0  0  0  0  0  0  0  0  0
   37.1760   24.1940   39.2250 H   0  0  0  0  0  0  0  0  0  0  0  0
   38.4740   25.3840   38.9760 H   0  0  0  0  0  0  0  0  0  0  0  0
   40.0740   23.8070   38.6420 H   0  0  0  0  0  0  0  0  0  0  0  0
   38.8610   22.6510   39.2280 H   0  0  0  0  0  0  0  0  0  0  0  0
   38.2760   21.8990   37.0390 H   0  0  0  0  0  0  0  0  0  0  0  0
   40.0430   22.0840   37.0850 H   0  0  0  0  0  0  0  0  0  0  0  0
   40.0930   23.6580   35.4920 H   0  0  0  0  0  0  0  0  0  0  0  0
   36.9640   27.1030   33.7220 C   0  0  0  0  0  0  0  0  0  0  0  0
   37.2160   26.4600   34.9650 C   0  0  0  0  0  0  0  0  0  0  0  0
   38.3420   25.6490   35.0040 C   0  0  0  0  0  0  0  0  0  0  0  0
   39.1430   25.5030   33.8810 N   0  0  0  0  0  0  0  0  0  0  0  0
   38.8640   26.1300   32.7320 C   0  0  0  0  0  0  0  0  0  0  0  0
   37.7730   26.9360   32.6410 N   0  0  0  0  0  0  0  0  0  0  0  0
   36.1140   27.7490   33.6030 H   0  0  0  0  0  0  0  0  0  0  0  0
   36.5580   26.6100   35.8070 H   0  0  0  0  0  0  0  0  0  0  0  0
   39.5730   25.9240   31.9430 H   0  0  0  0  0  0  0  0  0  0  0  0
   38.4970   21.9340   33.8780 C   0  0  0  0  0  0  0  0  0  0  0  0
   39.6680   21.4660   34.0020 O   0  0  0  0  0  0  0  0  0  0  0  0
   38.2640   22.9260   34.8810 N   0  0  0  0  0  0  0  0  0  0  0  0
   37.2890   23.3590   34.9560 H   0  0  0  0  0  0  0  0  0  0  0  0
   36.2430   21.1890   33.5320 C   0  0  0  0  0  0  0  0  0  0  0  0
   37.4170   21.6490   32.9430 C   0  0  0  0  0  0  0  0  0  0  0  0
   37.4700   21.7950   31.5770 C   0  0  0  0  0  0  0  0  0  0  0  0
   38.3950   22.1510   31.1660 H   0  0  0  0  0  0  0  0  0  0  0  0
   36.3540   21.4810   30.8140 C   0  0  0  0  0  0  0  0  0  0  0  0
   36.3980   21.5960   29.7400 H   0  0  0  0  0  0  0  0  0  0  0  0
   35.1730   21.0220   31.3740 C   0  0  0  0  0  3  0  0  0  0  0  0
   35.1630   20.8910   32.7440 C   0  0  0  0  0  3  0  0  0  0  0  0
   35.9700   20.8770   36.0850 N   0  0  0  0  0  0  0  0  0  0  0  0
   36.0970   21.0060   34.9480 C   0  0  0  0  0  0  0  0  0  0  0  0
  1  7  1  1  0  0  0
  1  2  1  0  0  0  0
  2  8  1  0  0  0  0
  2  3  1  0  0  0  0
  3 11  1  0  0  0  0
  3 10  1  0  0  0  0
  4  3  1  0  0  0  0
  4 12  1  0  0  0  0
  4 13  1  0  0  0  0
  5  4  1  0  0  0  0
  6 16  1  6  0  0  0
  6  1  1  0  0  0  0
  6  5  1  0  0  0  0
  9  2  1  0  0  0  0
 14  5  1  0  0  0  0
 15  5  1  0  0  0  0
 17 18  1  0  0  0  0
 18 19  2  0  0  0  0
 18 24  1  0  0  0  0
 19  1  1  0  0  0  0
 20 19  1  0  0  0  0
 21 20  2  0  0  0  0
 22 21  1  0  0  0  0
 22 17  2  0  0  0  0
 23 17  1  0  0  0  0
 25 21  1  0  0  0  0
 26 27  2  0  0  0  0
 26 28  1  0  0  0  0
 28 29  1  0  0  0  0
 28  6  1  0  0  0  0
 30 39  1  0  0  0  0
 31 30  1  0  0  0  0
 31 26  1  0  0  0  0
 32 31  2  0  0  0  0
 33 32  1  0  0  0  0
 34 36  2  0  0  0  0
 34 32  1  0  0  0  0
 35 34  1  0  0  0  0
 36 37  1  0  0  0  0
 37 30  2  0  0  0  0
 39 38  3  0  0  0  0
M  END
>  <minimizedAffinity>
-5.28685141

$$$$

 OpenBabel03262523563D

 39 41  0  0  1  0  0  0  0  0999 V2000
   39.5140   27.2680   33.6480 C   0  0  1  0  0  0  0  0  0  0  0  0
   38.3850   26.6300   32.9900 C   0  0  0  0  0  0  0  0  0  0  0  0
   37.1300   27.3430   33.3920 C   0  0  0  0  0  0  0  0  0  0  0  0
   37.1250   27.6410   34.8470 C   0  0  0  0  0  0  0  0  0  0  0  0
   38.0820   26.8860   35.6690 C   0  0  0  0  0  0  0  0  0  0  0  0
   39.5050   26.8400   35.1120 C   0  0  1  0  0  0  0  0  0  0  0  0
   39.3790   28.3870   33.6840 H   0  0  0  0  0  0  0  0  0  0  0  0
   38.4880   26.5860   31.8800 H   0  0  0  0  0  0  0  0  0  0  0  0
   38.2600   25.5680   33.2990 H   0  0  0  0  0  0  0  0  0  0  0  0
   36.2430   26.7820   33.0310 H   0  0  0  0  0  0  0  0  0  0  0  0
   37.1260   28.3100   32.8070 H   0  0  0  0  0  0  0  0  0  0  0  0
   37.2730   28.7370   35.0330 H   0  0  0  0  0  0  0  0  0  0  0  0
   36.1070   27.4130   35.2240 H   0  0  0  0  0  0  0  0  0  0  0  0
   37.7660   25.8190   35.8610 H   0  0  0  0  0  0  0  0  0  0  0  0
   38.1580   27.3510   36.6730 H   0  0  0  0  0  0  0  0  0  0  0  0
   40.1400   27.5830   35.6570 H   0  0  0  0  0  0  0  0  0  0  0  0
   42.2010   25.9180   31.4670 C   0  0  0  0  0  0  0  0  0  0  0  0
   40.8990   26.2470   31.9370 C   0  0  0  0  0  0  0  0  0  0  0  0
   40.8530   26.9430   33.1380 C   0  0  0  0  0  0  0  0  0  0  0  0
   42.0230   27.2780   33.8020 N   0  0  0  0  0  0  0  0  0  0  0  0
   43.2270   26.9450   33.3180 C   0  0  0  0  0  0  0  0  0  0  0  0
   43.3270   26.2630   32.1470 N   0  0  0  0  0  0  0  0  0  0  0  0
   42.3300   25.3800   30.5460 H   0  0  0  0  0  0  0  0  0  0  0  0
   40.0220   25.9610   31.3780 H   0  0  0  0  0  0  0  0  0  0  0  0
   44.0490   27.2700   33.9410 H   0  0  0  0  0  0  0  0  0  0  0  0
   39.5960   24.2010   35.3660 C   0  0  0  0  0  0  0  0  0  0  0  0
   38.3790   24.1820   35.0120 O   0  0  0  0  0  0  0  0  0  0  0  0
   40.0840   25.5440   35.3480 N   0  0  0  0  0  0  0  0  0  0  0  0
   41.1200   25.7150   35.5500 H   0  0  0  0  0  0  0  0  0  0  0  0
   40.3280   22.6610   37.0540 C   0  0  0  0  0  0  0  0  0  0  0  0
   40.5210   23.1480   35.7650 C   0  0  0  0  0  0  0  0  0  0  0  0
   41.5310   22.6220   34.9930 C   0  0  0  0  0  0  0  0  0  0  0  0
   41.6440   23.0290   34.0060 H   0  0  0  0  0  0  0  0  0  0  0  0
   42.3350   21.6190   35.5130 C   0  0  0  0  0  0  0  0  0  0  0  0
   43.1270   21.2070   34.9050 H   0  0  0  0  0  0  0  0  0  0  0  0
   42.1640   21.1140   36.7920 C   0  0  0  0  0  3  0  0  0  0  0  0
   41.1430   21.6680   37.5300 C   0  0  0  0  0  3  0  0  0  0  0  0
   38.4670   23.5470   38.6150 N   0  0  0  0  0  0  0  0  0  0  0  0
   39.3010   23.1490   37.9290 C   0  0  0  0  0  0  0  0  0  0  0  0
  1  7  1  6  0  0  0
  1  6  1  0  0  0  0
  2  9  1  0  0  0  0
  2  3  1  0  0  0  0
  2  1  1  0  0  0  0
  3  4  1  0  0  0  0
  4 12  1  0  0  0  0
  4 13  1  0  0  0  0
  4  5  1  0  0  0  0
  5 14  1  0  0  0  0
  5 15  1  0  0  0  0
  6 28  1  0  0  0  0
  6 16  1  1  0  0  0
  6  5  1  0  0  0  0
  8  2  1  0  0  0  0
 10  3  1  0  0  0  0
 11  3  1  0  0  0  0
 17 18  2  0  0  0  0
 17 22  1  0  0  0  0
 18 19  1  0  0  0  0
 19  1  1  0  0  0  0
 19 20  2  0  0  0  0
 21 20  1  0  0  0  0
 21 25  1  0  0  0  0
 22 21  2  0  0  0  0
 23 17  1  0  0  0  0
 24 18  1  0  0  0  0
 26 31  1  0  0  0  0
 27 26  2  0  0  0  0
 28 26  1  0  0  0  0
 28 29  1  0  0  0  0
 30 37  1  0  0  0  0
 30 39  1  0  0  0  0
 31 30  2  0  0  0  0
 32 34  2  0  0  0  0
 32 31  1  0  0  0  0
 33 32  1  0  0  0  0
 34 36  1  0  0  0  0
 35 34  1  0  0  0  0
 36 37  2  0  0  0  0
 39 38  3  0  0  0  0
M  END
>  <minimizedAffinity>
-5.27408314

$$$$

 OpenBabel03262523563D

 39 41  0  0  1  0  0  0  0  0999 V2000
   38.3230   22.2070   35.8480 C   0  0  1  0  0  0  0  0  0  0  0  0
   39.7660   22.3460   35.7250 C   0  0  0  0  0  0  0  0  0  0  0  0
   40.3810   22.1730   37.0800 C   0  0  0  0  0  0  0  0  0  0  0  0
   39.6070   22.9010   38.1180 C   0  0  0  0  0  0  0  0  0  0  0  0
   38.6750   23.9300   37.6330 C   0  0  0  0  0  0  0  0  0  0  0  0
   37.7810   23.4870   36.4750 C   0  0  1  0  0  0  0  0  0  0  0  0
   38.0590   21.3990   36.5880 H   0  0  0  0  0  0  0  0  0  0  0  0
   40.2170   21.6460   34.9840 H   0  0  0  0  0  0  0  0  0  0  0  0
   40.0650   23.3580   35.3680 H   0  0  0  0  0  0  0  0  0  0  0  0
   41.4600   22.4310   37.0430 H   0  0  0  0  0  0  0  0  0  0  0  0
   40.3490   21.0640   37.2920 H   0  0  0  0  0  0  0  0  0  0  0  0
   39.0460   22.1860   38.7760 H   0  0  0  0  0  0  0  0  0  0  0  0
   40.3410   23.4000   38.7830 H   0  0  0  0  0  0  0  0  0  0  0  0
   39.1870   24.8840   37.3100 H   0  0  0  0  0  0  0  0  0  0  0  0
   37.9930   24.2300   38.4530 H   0  0  0  0  0  0  0  0  0  0  0  0
   36.7640   23.2330   36.8680 H   0  0  0  0  0  0  0  0  0  0  0  0
   35.7400   20.9890   33.4720 C   0  0  0  0  0  0  0  0  0  0  0  0
   36.4500   21.1890   34.6880 C   0  0  0  0  0  0  0  0  0  0  0  0
   37.5660   22.0110   34.6030 C   0  0  0  0  0  0  0  0  0  0  0  0
   37.9300   22.5820   33.3930 N   0  0  0  0  0  0  0  0  0  0  0  0
   37.2280   22.3630   32.2740 C   0  0  0  0  0  0  0  0  0  0  0  0
   36.1270   21.5660   32.3020 N   0  0  0  0  0  0  0  0  0  0  0  0
   34.8640   20.3680   33.4450 H   0  0  0  0  0  0  0  0  0  0  0  0
   36.1220   20.7190   35.6020 H   0  0  0  0  0  0  0  0  0  0  0  0
   37.6270   22.8710   31.4070 H   0  0  0  0  0  0  0  0  0  0  0  0
   38.4190   25.6560   35.0860 C   0  0  0  0  0  0  0  0  0  0  0  0
   39.5810   25.5640   35.5860 O   0  0  0  0  0  0  0  0  0  0  0  0
   37.6090   24.5700   35.5430 N   0  0  0  0  0  0  0  0  0  0  0  0
   36.6210   24.4660   35.1470 H   0  0  0  0  0  0  0  0  0  0  0  0
   38.3260   26.6170   32.8900 C   0  0  0  0  0  0  0  0  0  0  0  0
   37.8100   26.6220   34.1820 C   0  0  0  0  0  0  0  0  0  0  0  0
   36.8040   27.5050   34.4990 C   0  0  0  0  0  0  0  0  0  0  0  0
   36.4380   27.4750   35.5070 H   0  0  0  0  0  0  0  0  0  0  0  0
   36.3240   28.3700   33.5260 C   0  0  0  0  0  0  0  0  0  0  0  0
   35.5340   29.0620   33.7770 H   0  0  0  0  0  0  0  0  0  0  0  0
   36.8190   28.3840   32.2320 C   0  0  0  0  0  3  0  0  0  0  0  0
   37.8240   27.4850   31.9580 C   0  0  0  0  0  3  0  0  0  0  0  0
   40.2300   25.0350   32.1390 N   0  0  0  0  0  0  0  0  0  0  0  0
   39.3750   25.7310   32.4700 C   0  0  0  0  0  0  0  0  0  0  0  0
  1  6  1  0  0  0  0
  1  7  1  1  0  0  0
  2  1  1  0  0  0  0
  2  3  1  0  0  0  0
  3 11  1  0  0  0  0
  3  4  1  0  0  0  0
  4 12  1  0  0  0  0
  4 13  1  0  0  0  0
  5  4  1  0  0  0  0
  5 15  1  0  0  0  0
  6 16  1  1  0  0  0
  6  5  1  0  0  0  0
  8  2  1  0  0  0  0
  9  2  1  0  0  0  0
 10  3  1  0  0  0  0
 14  5  1  0  0  0  0
 17 18  1  0  0  0  0
 18 24  1  0  0  0  0
 19 18  2  0  0  0  0
 19  1  1  0  0  0  0
 20 19  1  0  0  0  0
 21 22  1  0  0  0  0
 21 20  2  0  0  0  0
 22 17  2  0  0  0  0
 23 17  1  0  0  0  0
 25 21  1  0  0  0  0
 26 28  1  0  0  0  0
 26 27  2  0  0  0  0
 28  6  1  0  0  0  0
 29 28  1  0  0  0  0
 30 31  1  0  0  0  0
 31 32  2  0  0  0  0
 31 26  1  0  0  0  0
 32 33  1  0  0  0  0
 34 35  1  0  0  0  0
 34 32  1  0  0  0  0
 36 34  2  0  0  0  0
 37 36  1  0  0  0  0
 37 30  2  0  0  0  0
 38 39  3  0  0  0  0
 39 30  1  0  0  0  0
M  END
>  <minimizedAffinity>
-5.25167465

$$$$

 OpenBabel03262523563D

 39 41  0  0  1  0  0  0  0  0999 V2000
   37.1750   25.6050   31.0150 C   0  0  1  0  0  0  0  0  0  0  0  0
   36.0910   26.4720   31.4510 C   0  0  0  0  0  0  0  0  0  0  0  0
   36.2790   27.8230   30.8320 C   0  0  0  0  0  0  0  0  0  0  0  0
   37.7000   28.2490   30.8970 C   0  0  0  0  0  0  0  0  0  0  0  0
   38.5550   27.5230   31.8480 C   0  0  0  0  0  0  0  0  0  0  0  0
   38.4290   26.0010   31.7860 C   0  0  1  0  0  0  0  0  0  0  0  0
   37.4370   25.8010   29.9360 H   0  0  0  0  0  0  0  0  0  0  0  0
   35.0790   26.0610   31.2260 H   0  0  0  0  0  0  0  0  0  0  0  0
   36.0890   26.6250   32.5540 H   0  0  0  0  0  0  0  0  0  0  0  0
   35.5590   28.5450   31.2710 H   0  0  0  0  0  0  0  0  0  0  0  0
   35.9660   27.7120   29.7530 H   0  0  0  0  0  0  0  0  0  0  0  0
   38.1770   28.2140   29.8830 H   0  0  0  0  0  0  0  0  0  0  0  0
   37.7080   29.3200   31.1900 H   0  0  0  0  0  0  0  0  0  0  0  0
   38.3890   27.8260   32.9240 H   0  0  0  0  0  0  0  0  0  0  0  0
   39.6190   27.7540   31.6440 H   0  0  0  0  0  0  0  0  0  0  0  0
   39.2930   25.5810   31.2110 H   0  0  0  0  0  0  0  0  0  0  0  0
   35.5580   22.3370   31.7250 C   0  0  0  0  0  0  0  0  0  0  0  0
   35.7070   23.7320   31.4930 C   0  0  0  0  0  0  0  0  0  0  0  0
   37.0010   24.1620   31.2330 C   0  0  0  0  0  0  0  0  0  0  0  0
   38.0520   23.2570   31.2090 N   0  0  0  0  0  0  0  0  0  0  0  0
   37.8600   21.9510   31.4340 C   0  0  0  0  0  0  0  0  0  0  0  0
   36.6130   21.4790   31.6940 N   0  0  0  0  0  0  0  0  0  0  0  0
   34.5910   21.9170   31.9350 H   0  0  0  0  0  0  0  0  0  0  0  0
   34.8540   24.3910   31.5240 H   0  0  0  0  0  0  0  0  0  0  0  0
   38.7680   21.3660   31.3840 H   0  0  0  0  0  0  0  0  0  0  0  0
   39.5600   25.0780   34.0010 C   0  0  0  0  0  0  0  0  0  0  0  0
   40.6770   25.4000   33.4980 O   0  0  0  0  0  0  0  0  0  0  0  0
   38.5030   25.4460   33.1120 N   0  0  0  0  0  0  0  0  0  0  0  0
   37.4930   25.3080   33.4320 H   0  0  0  0  0  0  0  0  0  0  0  0
   38.4940   25.2420   36.1450 C   0  0  0  0  0  0  0  0  0  0  0  0
   39.1960   24.4330   35.2560 C   0  0  0  0  0  0  0  0  0  0  0  0
   39.4820   23.1360   35.6130 C   0  0  0  0  0  0  0  0  0  0  0  0
   40.0250   22.5480   34.8980 H   0  0  0  0  0  0  0  0  0  0  0  0
   39.0670   22.6610   36.8490 C   0  0  0  0  0  0  0  0  0  0  0  0
   39.2940   21.6410   37.1270 H   0  0  0  0  0  0  0  0  0  0  0  0
   38.3670   23.4450   37.7520 C   0  0  0  0  0  3  0  0  0  0  0  0
   38.1020   24.7350   37.3550 C   0  0  0  0  0  3  0  0  0  0  0  0
   37.8790   27.6960   35.6070 N   0  0  0  0  0  0  0  0  0  0  0  0
   38.1520   26.6060   35.8570 C   0  0  0  0  0  0  0  0  0  0  0  0
  1  7  1  6  0  0  0
  1 19  1  0  0  0  0
  1  2  1  0  0  0  0
  1  6  1  0  0  0  0
  2  9  1  0  0  0  0
  3  4  1  0  0  0  0
  3 10  1  0  0  0  0
  3  2  1  0  0  0  0
  4 13  1  0  0  0  0
  4  5  1  0  0  0  0
  5 14  1  0  0  0  0
  6 16  1  6  0  0  0
  6  5  1  0  0  0  0
  6 28  1  0  0  0  0
  8  2  1  0  0  0  0
 11  3  1  0  0  0  0
 12  4  1  0  0  0  0
 15  5  1  0  0  0  0
 17 23  1  0  0  0  0
 18 24  1  0  0  0  0
 18 17  2  0  0  0  0
 19 18  1  0  0  0  0
 20 19  2  0  0  0  0
 20 21  1  0  0  0  0
 21 22  2  0  0  0  0
 22 17  1  0  0  0  0
 25 21  1  0  0  0  0
 26 31  1  0  0  0  0
 27 26  2  0  0  0  0
 28 29  1  0  0  0  0
 28 26  1  0  0  0  0
 30 37  1  0  0  0  0
 31 32  1  0  0  0  0
 31 30  2  0  0  0  0
 32 34  2  0  0  0  0
 33 32  1  0  0  0  0
 34 35  1  0  0  0  0
 34 36  1  0  0  0  0
 37 36  2  0  0  0  0
 38 39  3  0  0  0  0
 39 30  1  0  0  0  0
M  END
>  <minimizedAffinity>
-5.22283125

$$$$

 OpenBabel03262523563D

 39 41  0  0  1  0  0  0  0  0999 V2000
   37.5670   21.4280   33.4110 C   0  0  1  0  0  0  0  0  0  0  0  0
   36.2760   21.1560   34.0230 C   0  0  0  0  0  0  0  0  0  0  0  0
   35.4370   20.3840   33.0520 C   0  0  0  0  0  0  0  0  0  0  0  0
   35.5540   20.9410   31.6800 C   0  0  0  0  0  0  0  0  0  0  0  0
   36.1020   22.3020   31.5750 C   0  0  0  0  0  0  0  0  0  0  0  0
   37.3740   22.5430   32.3880 C   0  0  1  0  0  0  0  0  0  0  0  0
   37.9160   20.5460   32.8010 H   0  0  0  0  0  0  0  0  0  0  0  0
   36.3530   20.6270   35.0010 H   0  0  0  0  0  0  0  0  0  0  0  0
   35.7130   22.0890   34.2570 H   0  0  0  0  0  0  0  0  0  0  0  0
   34.3970   20.3010   33.4290 H   0  0  0  0  0  0  0  0  0  0  0  0
   35.8430   19.3290   33.0680 H   0  0  0  0  0  0  0  0  0  0  0  0
   36.1500   20.2590   31.0180 H   0  0  0  0  0  0  0  0  0  0  0  0
   34.5340   20.9560   31.2450 H   0  0  0  0  0  0  0  0  0  0  0  0
   35.3650   23.1070   31.8670 H   0  0  0  0  0  0  0  0  0  0  0  0
   36.3640   22.5170   30.5200 H   0  0  0  0  0  0  0  0  0  0  0  0
   38.2620   22.4970   31.7080 H   0  0  0  0  0  0  0  0  0  0  0  0
   39.3380   22.5680   36.4710 C   0  0  0  0  0  0  0  0  0  0  0  0
   38.2900   22.1120   35.6250 C   0  0  0  0  0  0  0  0  0  0  0  0
   38.6450   21.8770   34.3030 C   0  0  0  0  0  0  0  0  0  0  0  0
   39.9480   22.0840   33.8770 N   0  0  0  0  0  0  0  0  0  0  0  0
   40.9010   22.5150   34.7140 C   0  0  0  0  0  0  0  0  0  0  0  0
   40.6060   22.7610   36.0170 N   0  0  0  0  0  0  0  0  0  0  0  0
   39.1520   22.7750   37.5090 H   0  0  0  0  0  0  0  0  0  0  0  0
   37.2930   21.9670   36.0100 H   0  0  0  0  0  0  0  0  0  0  0  0
   41.8680   22.6320   34.2440 H   0  0  0  0  0  0  0  0  0  0  0  0
   38.1260   25.0540   32.7900 C   0  0  0  0  0  0  0  0  0  0  0  0
   38.9720   24.8900   31.8600 O   0  0  0  0  0  0  0  0  0  0  0  0
   37.3520   23.8640   32.9560 N   0  0  0  0  0  0  0  0  0  0  0  0
   36.5420   23.8740   33.6540 H   0  0  0  0  0  0  0  0  0  0  0  0
   36.9110   27.0920   33.1480 C   0  0  0  0  0  0  0  0  0  0  0  0
   37.8310   26.1830   33.6630 C   0  0  0  0  0  0  0  0  0  0  0  0
   38.3720   26.4070   34.9070 C   0  0  0  0  0  0  0  0  0  0  0  0
   39.0770   25.6810   35.2630 H   0  0  0  0  0  0  0  0  0  0  0  0
   37.9910   27.5330   35.6230 C   0  0  0  0  0  0  0  0  0  0  0  0
   38.4170   27.7070   36.6010 H   0  0  0  0  0  0  0  0  0  0  0  0
   37.0770   28.4530   35.1360 C   0  0  0  0  0  3  0  0  0  0  0  0
   36.5600   28.1900   33.8880 C   0  0  0  0  0  3  0  0  0  0  0  0
   35.8200   26.8080   30.8210 N   0  0  0  0  0  0  0  0  0  0  0  0
   36.2960   26.9390   31.8600 C   0  0  0  0  0  0  0  0  0  0  0  0
  1  7  1  6  0  0  0
  1  2  1  0  0  0  0
  1 19  1  0  0  0  0
  2  9  1  0  0  0  0
  2  8  1  0  0  0  0
  3 11  1  0  0  0  0
  3 10  1  0  0  0  0
  3  2  1  0  0  0  0
  4  3  1  0  0  0  0
  5  4  1  0  0  0  0
  5 14  1  0  0  0  0
  5  6  1  0  0  0  0
  6 16  1  6  0  0  0
  6 28  1  0  0  0  0
  6  1  1  0  0  0  0
 12  4  1  0  0  0  0
 13  4  1  0  0  0  0
 15  5  1  0  0  0  0
 17 23  1  0  0  0  0
 18 24  1  0  0  0  0
 18 17  2  0  0  0  0
 19 18  1  0  0  0  0
 20 19  2  0  0  0  0
 20 21  1  0  0  0  0
 21 22  2  0  0  0  0
 22 17  1  0  0  0  0
 25 21  1  0  0  0  0
 26 28  1  0  0  0  0
 26 31  1  0  0  0  0
 27 26  2  0  0  0  0
 28 29  1  0  0  0  0
 30 31  2  0  0  0  0
 30 37  1  0  0  0  0
 31 32  1  0  0  0  0
 32 33  1  0  0  0  0
 32 34  2  0  0  0  0
 34 35  1  0  0  0  0
 36 34  1  0  0  0  0
 37 36  2  0  0  0  0
 38 39  3  0  0  0  0
 39 30  1  0  0  0  0
M  END
>  <minimizedAffinity>
-5.19271088

$$$$

 OpenBabel03262523563D

 39 41  0  0  1  0  0  0  0  0999 V2000
   37.0310   24.2270   31.3100 C   0  0  1  0  0  0  0  0  0  0  0  0
   35.6030   24.1290   31.5730 C   0  0  0  0  0  0  0  0  0  0  0  0
   34.9080   25.2520   30.8650 C   0  0  0  0  0  0  0  0  0  0  0  0
   35.6500   26.5290   31.0260 C   0  0  0  0  0  0  0  0  0  0  0  0
   36.6450   26.5720   32.1070 C   0  0  0  0  0  0  0  0  0  0  0  0
   37.5850   25.3680   32.1590 C   0  0  1  0  0  0  0  0  0  0  0  0
   37.2230   24.5510   30.2480 H   0  0  0  0  0  0  0  0  0  0  0  0
   35.1690   23.1430   31.2900 H   0  0  0  0  0  0  0  0  0  0  0  0
   35.3630   24.2380   32.6550 H   0  0  0  0  0  0  0  0  0  0  0  0
   33.8430   25.2950   31.1750 H   0  0  0  0  0  0  0  0  0  0  0  0
   34.8870   24.9610   29.7740 H   0  0  0  0  0  0  0  0  0  0  0  0
   36.1460   26.8280   30.0650 H   0  0  0  0  0  0  0  0  0  0  0  0
   34.9000   27.3200   31.2290 H   0  0  0  0  0  0  0  0  0  0  0  0
   36.1880   26.6800   33.1350 H   0  0  0  0  0  0  0  0  0  0  0  0
   37.2920   27.4630   31.9830 H   0  0  0  0  0  0  0  0  0  0  0  0
   38.5680   25.6450   31.7010 H   0  0  0  0  0  0  0  0  0  0  0  0
   39.6790   21.6330   31.0810 C   0  0  0  0  0  0  0  0  0  0  0  0
   38.9110   22.7900   30.7740 C   0  0  0  0  0  0  0  0  0  0  0  0
   37.8480   23.0480   31.6290 C   0  0  0  0  0  0  0  0  0  0  0  0
   37.5870   22.2090   32.7020 N   0  0  0  0  0  0  0  0  0  0  0  0
   38.3410   21.1300   32.9500 C   0  0  0  0  0  0  0  0  0  0  0  0
   39.3930   20.8320   32.1430 N   0  0  0  0  0  0  0  0  0  0  0  0
   40.5200   21.3570   30.4720 H   0  0  0  0  0  0  0  0  0  0  0  0
   39.1590   23.4080   29.9260 H   0  0  0  0  0  0  0  0  0  0  0  0
   38.0210   20.5690   33.8170 H   0  0  0  0  0  0  0  0  0  0  0  0
   38.8110   25.3920   34.5110 C   0  0  0  0  0  0  0  0  0  0  0  0
   39.5370   26.3270   34.0590 O   0  0  0  0  0  0  0  0  0  0  0  0
   37.8490   25.0070   33.5270 N   0  0  0  0  0  0  0  0  0  0  0  0
   37.1110   24.2790   33.7890 H   0  0  0  0  0  0  0  0  0  0  0  0
   39.7360   23.6680   35.9000 C   0  0  0  0  0  0  0  0  0  0  0  0
   38.7950   24.6880   35.7860 C   0  0  0  0  0  0  0  0  0  0  0  0
   37.9540   24.9450   36.8430 C   0  0  0  0  0  0  0  0  0  0  0  0
   37.2440   25.7380   36.7110 H   0  0  0  0  0  0  0  0  0  0  0  0
   38.0590   24.1850   37.9990 C   0  0  0  0  0  0  0  0  0  0  0  0
   37.3960   24.3880   38.8280 H   0  0  0  0  0  0  0  0  0  0  0  0
   38.9860   23.1650   38.1390 C   0  0  0  0  0  3  0  0  0  0  0  0
   39.8090   22.9420   37.0590 C   0  0  0  0  0  3  0  0  0  0  0  0
   41.3850   23.0400   34.0100 N   0  0  0  0  0  0  0  0  0  0  0  0
   40.6540   23.3300   34.8500 C   0  0  0  0  0  0  0  0  0  0  0  0
  1  7  1  6  0  0  0
  1  2  1  0  0  0  0
  1 19  1  0  0  0  0
  1  6  1  0  0  0  0
  2  9  1  0  0  0  0
  3  4  1  0  0  0  0
  3 10  1  0  0  0  0
  3  2  1  0  0  0  0
  4 13  1  0  0  0  0
  4  5  1  0  0  0  0
  5  6  1  0  0  0  0
  5 14  1  0  0  0  0
  6 16  1  6  0  0  0
  6 28  1  0  0  0  0
  8  2  1  0  0  0  0
 11  3  1  0  0  0  0
 12  4  1  0  0  0  0
 15  5  1  0  0  0  0
 17 22  1  0  0  0  0
 18 17  2  0  0  0  0
 18 19  1  0  0  0  0
 19 20  2  0  0  0  0
 20 21  1  0  0  0  0
 21 25  1  0  0  0  0
 22 21  2  0  0  0  0
 23 17  1  0  0  0  0
 24 18  1  0  0  0  0
 26 31  1  0  0  0  0
 27 26  2  0  0  0  0
 28 29  1  0  0  0  0
 28 26  1  0  0  0  0
 30 37  1  0  0  0  0
 31 30  2  0  0  0  0
 31 32  1  0  0  0  0
 32 34  2  0  0  0  0
 33 32  1  0  0  0  0
 34 36  1  0  0  0  0
 34 35  1  0  0  0  0
 37 36  2  0  0  0  0
 38 39  3  0  0  0  0
 39 30  1  0  0  0  0
M  END
>  <minimizedAffinity>
-5.18299341

$$$$

 OpenBabel03262523563D

 39 41  0  0  1  0  0  0  0  0999 V2000
   38.9940   26.0240   33.8400 C   0  0  1  0  0  0  0  0  0  0  0  0
   37.7940   26.8420   33.9260 C   0  0  0  0  0  0  0  0  0  0  0  0
   37.7760   27.5290   35.2570 C   0  0  0  0  0  0  0  0  0  0  0  0
   38.1730   26.6000   36.3460 C   0  0  0  0  0  0  0  0  0  0  0  0
   38.1240   25.1650   36.0280 C   0  0  0  0  0  0  0  0  0  0  0  0
   38.7770   24.7830   34.7000 C   0  0  1  0  0  0  0  0  0  0  0  0
   39.8710   26.5460   34.3200 H   0  0  0  0  0  0  0  0  0  0  0  0
   37.6980   27.5740   33.0910 H   0  0  0  0  0  0  0  0  0  0  0  0
   36.8630   26.2340   33.8700 H   0  0  0  0  0  0  0  0  0  0  0  0
   36.7990   28.0320   35.4120 H   0  0  0  0  0  0  0  0  0  0  0  0
   38.5300   28.3660   35.1800 H   0  0  0  0  0  0  0  0  0  0  0  0
   39.1960   26.8500   36.7340 H   0  0  0  0  0  0  0  0  0  0  0  0
   37.4830   26.7790   37.1960 H   0  0  0  0  0  0  0  0  0  0  0  0
   37.0760   24.7430   36.0160 H   0  0  0  0  0  0  0  0  0  0  0  0
   38.6580   24.5920   36.8120 H   0  0  0  0  0  0  0  0  0  0  0  0
   39.7940   24.3590   34.8960 H   0  0  0  0  0  0  0  0  0  0  0  0
   39.1070   25.6500   30.1460 C   0  0  0  0  0  0  0  0  0  0  0  0
   38.7490   26.1490   31.4290 C   0  0  0  0  0  0  0  0  0  0  0  0
   39.3720   25.5350   32.5070 C   0  0  0  0  0  0  0  0  0  0  0  0
   40.2790   24.5050   32.3030 N   0  0  0  0  0  0  0  0  0  0  0  0
   40.5830   24.0700   31.0740 C   0  0  0  0  0  0  0  0  0  0  0  0
   40.0010   24.6370   29.9850 N   0  0  0  0  0  0  0  0  0  0  0  0
   38.6730   26.0670   29.2560 H   0  0  0  0  0  0  0  0  0  0  0  0
   38.0370   26.9530   31.5290 H   0  0  0  0  0  0  0  0  0  0  0  0
   41.3040   23.2640   31.0670 H   0  0  0  0  0  0  0  0  0  0  0  0
   38.0170   22.3190   34.0750 C   0  0  0  0  0  0  0  0  0  0  0  0
   38.8560   21.9050   34.9290 O   0  0  0  0  0  0  0  0  0  0  0  0
   38.0120   23.7490   34.0550 N   0  0  0  0  0  0  0  0  0  0  0  0
   37.2980   24.2500   33.4370 H   0  0  0  0  0  0  0  0  0  0  0  0
   36.0600   20.9630   33.7840 C   0  0  0  0  0  0  0  0  0  0  0  0
   37.1160   21.6260   33.1650 C   0  0  0  0  0  0  0  0  0  0  0  0
   37.2260   21.5790   31.7940 C   0  0  0  0  0  0  0  0  0  0  0  0
   38.0560   22.1030   31.3600 H   0  0  0  0  0  0  0  0  0  0  0  0
   36.2850   20.8740   31.0580 C   0  0  0  0  0  0  0  0  0  0  0  0
   36.3740   20.8380   29.9820 H   0  0  0  0  0  0  0  0  0  0  0  0
   35.2240   20.2060   31.6490 C   0  0  0  0  0  3  0  0  0  0  0  0
   35.1510   20.2790   33.0210 C   0  0  0  0  0  3  0  0  0  0  0  0
   35.7150   20.9340   36.3470 N   0  0  0  0  0  0  0  0  0  0  0  0
   35.8660   20.9580   35.2060 C   0  0  0  0  0  0  0  0  0  0  0  0
  1  2  1  0  0  0  0
  1  7  1  1  0  0  0
  1  6  1  0  0  0  0
  2  3  1  0  0  0  0
  3 10  1  0  0  0  0
  3  4  1  0  0  0  0
  4 12  1  0  0  0  0
  4 13  1  0  0  0  0
  5  4  1  0  0  0  0
  5 15  1  0  0  0  0
  6 16  1  1  0  0  0
  6  5  1  0  0  0  0
  8  2  1  0  0  0  0
  9  2  1  0  0  0  0
 11  3  1  0  0  0  0
 14  5  1  0  0  0  0
 17 18  1  0  0  0  0
 18 24  1  0  0  0  0
 18 19  2  0  0  0  0
 19  1  1  0  0  0  0
 20 19  1  0  0  0  0
 21 20  2  0  0  0  0
 22 17  2  0  0  0  0
 22 21  1  0  0  0  0
 23 17  1  0  0  0  0
 25 21  1  0  0  0  0
 26 27  2  0  0  0  0
 28 26  1  0  0  0  0
 28  6  1  0  0  0  0
 29 28  1  0  0  0  0
 30 39  1  0  0  0  0
 31 30  1  0  0  0  0
 31 26  1  0  0  0  0
 32 31  2  0  0  0  0
 33 32  1  0  0  0  0
 34 36  2  0  0  0  0
 34 32  1  0  0  0  0
 35 34  1  0  0  0  0
 36 37  1  0  0  0  0
 37 30  2  0  0  0  0
 39 38  3  0  0  0  0
M  END
>  <minimizedAffinity>
-5.08926725

$$$$

 OpenBabel03262523563D

 39 41  0  0  1  0  0  0  0  0999 V2000
   38.7940   25.0030   36.4990 C   0  0  1  0  0  0  0  0  0  0  0  0
   37.6630   24.9650   37.4130 C   0  0  0  0  0  0  0  0  0  0  0  0
   38.1490   24.5190   38.7580 C   0  0  0  0  0  0  0  0  0  0  0  0
   39.0990   23.3840   38.6370 C   0  0  0  0  0  0  0  0  0  0  0  0
   39.0950   22.6660   37.3540 C   0  0  0  0  0  0  0  0  0  0  0  0
   39.1360   23.5660   36.1190 C   0  0  1  0  0  0  0  0  0  0  0  0
   39.7190   25.3820   37.0200 H   0  0  0  0  0  0  0  0  0  0  0  0
   37.1160   25.9340   37.4810 H   0  0  0  0  0  0  0  0  0  0  0  0
   36.8870   24.2310   37.0960 H   0  0  0  0  0  0  0  0  0  0  0  0
   37.2860   24.3290   39.4300 H   0  0  0  0  0  0  0  0  0  0  0  0
   38.6790   25.4110   39.2040 H   0  0  0  0  0  0  0  0  0  0  0  0
   40.1470   23.7120   38.8650 H   0  0  0  0  0  0  0  0  0  0  0  0
   38.8390   22.6530   39.4300 H   0  0  0  0  0  0  0  0  0  0  0  0
   38.2120   21.9730   37.2290 H   0  0  0  0  0  0  0  0  0  0  0  0
   39.9880   22.0130   37.2900 H   0  0  0  0  0  0  0  0  0  0  0  0
   40.1800   23.5920   35.7140 H   0  0  0  0  0  0  0  0  0  0  0  0
   39.4950   27.1340   33.5390 C   0  0  0  0  0  0  0  0  0  0  0  0
   39.7020   26.4220   34.7520 C   0  0  0  0  0  0  0  0  0  0  0  0
   38.6020   25.7240   35.2330 C   0  0  0  0  0  0  0  0  0  0  0  0
   37.3990   25.7460   34.5440 N   0  0  0  0  0  0  0  0  0  0  0  0
   37.2540   26.4330   33.4040 C   0  0  0  0  0  0  0  0  0  0  0  0
   38.3000   27.1330   32.8900 N   0  0  0  0  0  0  0  0  0  0  0  0
   40.2930   27.7010   33.0950 H   0  0  0  0  0  0  0  0  0  0  0  0
   40.6610   26.4400   35.2460 H   0  0  0  0  0  0  0  0  0  0  0  0
   36.2630   26.3590   32.9770 H   0  0  0  0  0  0  0  0  0  0  0  0
   38.5070   22.1460   33.9680 C   0  0  0  0  0  0  0  0  0  0  0  0
   39.6990   21.7160   33.9730 O   0  0  0  0  0  0  0  0  0  0  0  0
   38.3020   23.0180   35.0820 N   0  0  0  0  0  0  0  0  0  0  0  0
   37.3200   23.4010   35.2580 H   0  0  0  0  0  0  0  0  0  0  0  0
   37.4340   22.6250   31.8760 C   0  0  0  0  0  0  0  0  0  0  0  0
   37.3820   21.9150   33.0720 C   0  0  0  0  0  0  0  0  0  0  0  0
   36.3140   21.0820   33.3110 C   0  0  0  0  0  0  0  0  0  0  0  0
   36.3140   20.5560   34.2460 H   0  0  0  0  0  0  0  0  0  0  0  0
   35.3130   20.9650   32.3580 C   0  0  0  0  0  0  0  0  0  0  0  0
   34.4750   20.3100   32.5480 H   0  0  0  0  0  0  0  0  0  0  0  0
   35.3410   21.6590   31.1590 C   0  0  0  0  0  3  0  0  0  0  0  0
   36.4270   22.4810   30.9600 C   0  0  0  0  0  3  0  0  0  0  0  0
   39.3580   24.2410   31.2620 N   0  0  0  0  0  0  0  0  0  0  0  0
   38.5090   23.5160   31.5420 C   0  0  0  0  0  0  0  0  0  0  0  0
  1  7  1  1  0  0  0
  1  2  1  0  0  0  0
  2  8  1  0  0  0  0
  2  3  1  0  0  0  0
  3 11  1  0  0  0  0
  3 10  1  0  0  0  0
  4  3  1  0  0  0  0
  4 12  1  0  0  0  0
  4 13  1  0  0  0  0
  5  4  1  0  0  0  0
  6 16  1  6  0  0  0
  6  1  1  0  0  0  0
  6  5  1  0  0  0  0
  9  2  1  0  0  0  0
 14  5  1  0  0  0  0
 15  5  1  0  0  0  0
 17 18  1  0  0  0  0
 18 19  2  0  0  0  0
 18 24  1  0  0  0  0
 19  1  1  0  0  0  0
 20 19  1  0  0  0  0
 21 20  2  0  0  0  0
 22 21  1  0  0  0  0
 22 17  2  0  0  0  0
 23 17  1  0  0  0  0
 25 21  1  0  0  0  0
 26 27  2  0  0  0  0
 26 28  1  0  0  0  0
 28 29  1  0  0  0  0
 28  6  1  0  0  0  0
 30 31  1  0  0  0  0
 31 32  2  0  0  0  0
 31 26  1  0  0  0  0
 32 33  1  0  0  0  0
 34 35  1  0  0  0  0
 34 32  1  0  0  0  0
 36 34  2  0  0  0  0
 37 36  1  0  0  0  0
 37 30  2  0  0  0  0
 38 39  3  0  0  0  0
 39 30  1  0  0  0  0
M  END
>  <minimizedAffinity>
-5.06296253

$$$$
