
 OpenBabel03262521523D

 24 25  0  0  0  0  0  0  0  0999 V2000
   34.5960   29.9320   48.9950 C   0  0  0  0  0  0  0  0  0  0  0  0
   34.0050   29.6920   49.9030 H   0  0  0  0  0  0  0  0  0  0  0  0
   34.5150   31.0140   48.7770 H   0  0  0  0  0  0  0  0  0  0  0  0
   36.3110   29.4660   49.3150 S   0  0  0  0  0  0  0  0  0  0  0  0
   37.3600   30.8400   48.8510 C   0  0  0  0  0  0  0  0  0  0  0  0
   37.2450   31.9620   49.6600 C   0  0  0  0  0  0  0  0  0  0  0  0
   38.0400   33.0630   49.3450 C   0  0  0  0  0  0  0  0  0  0  0  0
   38.8910   32.9940   48.2650 N   0  0  0  0  0  0  0  0  0  0  0  0
   38.9490   31.8790   47.5280 C   0  0  0  0  0  0  0  0  0  0  0  0
   38.2000   30.8110   47.8060 N   0  0  0  0  0  0  0  0  0  0  0  0
   36.6020   32.0720   50.5140 H   0  0  0  0  0  0  0  0  0  0  0  0
   37.9830   33.9570   49.9470 H   0  0  0  0  0  0  0  0  0  0  0  0
   39.6490   31.9300   46.7040 H   0  0  0  0  0  0  0  0  0  0  0  0
   33.8860   28.9550   47.6170 S   0  0  0  0  0  0  0  0  0  0  0  0
   33.1600   30.1080   45.3170 C   0  0  0  0  0  0  0  0  0  0  0  0
   34.2870   29.7170   46.0510 C   0  0  0  0  0  0  0  0  0  0  0  0
   35.5390   29.9570   45.5090 C   0  0  0  0  0  0  0  0  0  0  0  0
   36.3330   29.6290   46.1320 H   0  0  0  0  0  0  0  0  0  0  0  0
   35.6150   30.5670   44.2740 C   0  0  0  0  0  0  0  0  0  0  0  0
   36.5860   30.7390   43.8830 H   0  0  0  0  0  0  0  0  0  0  0  0
   34.5260   30.9600   43.5330 C   0  0  0  0  0  3  0  0  0  0  0  0
   33.2800   30.7220   44.0710 C   0  0  0  0  0  3  0  0  0  0  0  0
   30.7200   29.7610   46.1250 N   0  0  0  0  0  0  0  0  0  0  0  0
   31.8080   29.9140   45.7760 C   0  0  0  0  0  0  0  0  0  0  0  0
  1  4  1  0  0  0  0
  1  2  1  0  0  0  0
  3  1  1  0  0  0  0
  5  4  1  0  0  0  0
  5  6  1  0  0  0  0
  6 11  1  0  0  0  0
  7  6  2  0  0  0  0
  7 12  1  0  0  0  0
  8  7  1  0  0  0  0
  9 10  1  0  0  0  0
  9  8  2  0  0  0  0
 10  5  2  0  0  0  0
 13  9  1  0  0  0  0
 14  1  1  0  0  0  0
 15 24  1  0  0  0  0
 15 16  1  0  0  0  0
 16 14  1  0  0  0  0
 17 16  2  0  0  0  0
 17 18  1  0  0  0  0
 19 17  1  0  0  0  0
 20 19  1  0  0  0  0
 21 22  1  0  0  0  0
 21 19  2  0  0  0  0
 22 15  2  0  0  0  0
 24 23  3  0  0  0  0
M  END
>  <minimizedAffinity>
-3.89260626

>  <minimizedRMSD>
4.6987505

$$$$
