
 OpenBabel03272508113D

 34 36  0  0  1  0  0  0  0  0999 V2000
   36.7270   29.4760   44.1890 Cl  0  0  0  0  0  0  0  0  0  0  0  0
   38.3570   29.8400   43.6130 C   0  0  0  0  0  0  0  0  0  0  0  0
   39.3750   30.3510   44.4290 C   0  0  0  0  0  0  0  0  0  0  0  0
   40.6100   30.5920   43.8500 C   0  0  0  0  0  0  0  0  0  0  0  0
   40.8160   30.3330   42.5050 C   0  0  0  0  0  0  0  0  0  0  0  0
   39.8410   29.8390   41.7000 C   0  0  0  0  0  0  0  0  0  0  0  0
   38.6300   29.6010   42.2660 C   0  0  0  0  0  0  0  0  0  0  0  0
   41.3320   30.9780   44.5290 H   0  0  0  0  0  0  0  0  0  0  0  0
   41.8150   30.5520   42.1360 H   0  0  0  0  0  0  0  0  0  0  0  0
   40.0720   29.6590   40.6570 H   0  0  0  0  0  0  0  0  0  0  0  0
   35.8260   30.6010   41.9270 O   0  0  0  0  0  0  0  0  0  0  0  0
   36.1970   29.3980   41.9190 C   0  0  0  0  0  0  0  0  0  0  0  0
   37.5340   29.0520   41.3880 C   0  0  2  0  0  0  0  0  0  0  0  0
   37.6350   27.5400   41.4490 C   0  0  0  0  0  0  0  0  0  0  0  0
   37.3360   27.0960   40.4600 H   0  0  0  0  0  0  0  0  0  0  0  0
   36.6230   27.2070   42.5200 C   0  0  0  0  0  0  0  0  0  0  0  0
   36.2750   26.1610   42.4490 H   0  0  0  0  0  0  0  0  0  0  0  0
   35.5640   28.1760   42.3440 N   0  0  0  0  0  0  0  0  0  0  0  0
   34.5070   28.1700   42.4550 H   0  0  0  0  0  0  0  0  0  0  0  0
   38.9680   30.5360   45.7270 O   0  0  0  0  0  0  0  0  0  0  0  0
   39.4940   32.6410   47.1340 O   0  0  0  0  0  0  0  0  0  0  0  0
   38.3800   31.9270   46.4550 P   0  0  1  0  0  0  0  0  0  0  0  0
   37.7930   32.9040   45.1740 O   0  0  0  0  0  0  0  0  0  0  0  0
   37.0000   32.4250   44.8250 H   0  0  0  0  0  0  0  0  0  0  0  0
   37.0960   31.5280   47.4870 O   0  0  0  0  0  0  0  0  0  0  0  0
   37.6350   30.5090   50.9830 C   0  0  0  0  0  0  0  0  0  0  0  0
   37.7440   31.3260   49.8560 C   0  0  0  0  0  0  0  0  0  0  0  0
   37.1230   30.9140   48.6710 C   0  0  0  0  0  0  0  0  0  0  0  0
   36.4400   29.7260   48.6870 N   0  0  0  0  0  0  0  0  0  0  0  0
   36.3600   28.9700   49.7970 C   0  0  0  0  0  0  0  0  0  0  0  0
   36.9600   29.3690   50.9410 N   0  0  0  0  0  0  0  0  0  0  0  0
   38.1490   30.9260   51.8240 H   0  0  0  0  0  0  0  0  0  0  0  0
   38.2470   32.2660   49.7220 H   0  0  0  0  0  0  0  0  0  0  0  0
   35.8190   28.0260   49.8200 H   0  0  0  0  0  0  0  0  0  0  0  0
  2  1  1  0  0  0  0
  2  3  1  0  0  0  0
  3 20  1  0  0  0  0
  4  3  2  0  0  0  0
  4  8  1  0  0  0  0
  5  4  1  0  0  0  0
  6  7  1  0  0  0  0
  6  5  2  0  0  0  0
  7  2  2  0  0  0  0
  9  5  1  0  0  0  0
 10  6  1  0  0  0  0
 12 11  2  0  0  0  0
 12 18  1  0  0  0  0
 13 14  1  0  0  0  0
 13 12  1  0  0  0  0
 13  7  1  1  0  0  0
 14 16  1  0  0  0  0
 15 14  1  0  0  0  0
 17 16  1  0  0  0  0
 18 19  1  0  0  0  0
 18 16  1  0  0  0  0
 20 22  1  0  0  0  0
 22 21  2  1  0  0  0
 22 25  1  0  0  0  0
 23 22  1  0  0  0  0
 24 23  1  0  0  0  0
 25 28  1  0  0  0  0
 26 32  1  0  0  0  0
 27 26  2  0  0  0  0
 28 29  2  0  0  0  0
 28 27  1  0  0  0  0
 29 30  1  0  0  0  0
 30 34  1  0  0  0  0
 30 31  2  0  0  0  0
 31 26  1  0  0  0  0
 33 27  1  0  0  0  0
M  END
>  <minimizedAffinity>
-4.95741272

>  <minimizedRMSD>
0.299589872

$$$$
