
 OpenBabel03272504273D

 42 45  0  0  1  0  0  0  0  0999 V2000
   35.3310   29.4170   48.3770 C   0  0  0  0  0  0  0  0  0  0  0  0
   35.1690   28.5140   49.3680 C   0  0  0  0  0  0  0  0  0  0  0  0
   34.2970   27.5020   49.2480 C   0  0  0  0  0  0  0  0  0  0  0  0
   33.5680   27.3930   48.1050 N   0  0  0  0  0  0  0  0  0  0  0  0
   33.7380   28.2850   47.1380 C   0  0  0  0  0  0  0  0  0  0  0  0
   34.6090   29.3000   47.2530 N   0  0  0  0  0  0  0  0  0  0  0  0
   35.7590   28.6170   50.2730 H   0  0  0  0  0  0  0  0  0  0  0  0
   34.1810   26.7870   50.0550 H   0  0  0  0  0  0  0  0  0  0  0  0
   31.5550   27.8750   46.0900 C   0  0  0  0  0  0  0  0  0  0  0  0
   32.9320   28.0600   45.9600 C   0  0  0  0  0  0  0  0  0  0  0  0
   33.6090   28.0180   44.7570 C   0  0  0  0  0  0  0  0  0  0  0  0
   32.8970   27.7800   43.6010 C   0  0  0  0  0  0  0  0  0  0  0  0
   31.5370   27.5860   43.6300 C   0  0  0  0  0  0  0  0  0  0  0  0
   30.9600   27.6450   44.8570 C   0  0  0  0  0  0  0  0  0  0  0  0
   34.6780   28.1680   44.7050 H   0  0  0  0  0  0  0  0  0  0  0  0
   33.4480   27.7520   42.6600 H   0  0  0  0  0  0  0  0  0  0  0  0
   30.9710   27.4000   42.7450 H   0  0  0  0  0  0  0  0  0  0  0  0
   29.8710   27.4890   44.8770 H   0  0  0  0  0  0  0  0  0  0  0  0
   30.7020   27.9390   47.5190 S   0  0  0  0  0  0  0  0  0  0  0  0
   29.9030   26.6100   47.3180 O   0  0  0  0  0  0  0  0  0  0  0  0
   29.7400   29.0960   47.4160 O   0  0  0  0  0  0  0  0  0  0  0  0
   30.5650   27.7170   49.0950 C   0  0  0  0  0  0  0  0  0  0  0  0
   30.0540   26.5530   49.7070 F   0  0  0  0  0  0  0  0  0  0  0  0
   29.4060   28.4730   49.6010 F   0  0  0  0  0  0  0  0  0  0  0  0
   31.3440   28.4600   50.0260 F   0  0  0  0  0  0  0  0  0  0  0  0
   37.2380   32.3060   49.5950 C   0  0  0  0  0  0  0  0  0  0  0  0
   38.1250   32.5600   48.5300 C   0  0  0  0  0  0  0  0  0  0  0  0
   38.0400   31.7270   47.4150 C   0  0  0  0  0  0  0  0  0  0  0  0
   37.1140   30.7270   47.4260 N   0  0  0  0  0  0  0  0  0  0  0  0
   36.2730   30.5150   48.4800 C   0  0  0  0  0  0  0  0  0  0  0  0
   36.3430   31.3080   49.5570 N   0  0  0  0  0  0  0  0  0  0  0  0
   37.3100   32.9530   50.4510 H   0  0  0  0  0  0  0  0  0  0  0  0
   38.8280   33.3770   48.6070 H   0  0  0  0  0  0  0  0  0  0  0  0
   37.2350   31.9160   44.5700 O   0  0  0  0  0  0  0  0  0  0  0  0
   38.3030   32.4030   45.0440 C   0  0  0  0  0  0  0  0  0  0  0  0
   38.9490   31.9630   46.2840 C   0  0  1  0  0  3  0  0  0  0  0  0
   39.8860   33.1460   46.5620 C   0  0  0  0  0  3  0  0  0  0  0  0
   39.2580   33.9480   46.9750 H   0  0  0  0  0  0  0  0  0  0  0  0
   40.3060   33.5100   45.1360 C   0  0  0  0  0  3  0  0  0  0  0  0
   41.0310   32.7760   44.7540 H   0  0  0  0  0  0  0  0  0  0  0  0
   39.0320   33.4730   44.4070 N   0  0  0  0  0  0  0  0  0  0  0  0
   38.6430   34.0450   43.6000 H   0  0  0  0  0  0  0  0  0  0  0  0
  1 30  1  0  0  0  0
  1  2  1  0  0  0  0
  2  7  1  0  0  0  0
  3  2  2  0  0  0  0
  3  8  1  0  0  0  0
  4  3  1  0  0  0  0
  5  6  1  0  0  0  0
  5  4  2  0  0  0  0
  6  1  2  0  0  0  0
  9 19  1  0  0  0  0
 10  9  1  0  0  0  0
 10  5  1  0  0  0  0
 11 10  2  0  0  0  0
 12 13  2  0  0  0  0
 12 11  1  0  0  0  0
 13 14  1  0  0  0  0
 14 18  1  0  0  0  0
 14  9  2  0  0  0  0
 15 11  1  0  0  0  0
 16 12  1  0  0  0  0
 17 13  1  0  0  0  0
 19 22  1  0  0  0  0
 20 19  2  0  0  0  0
 21 19  2  0  0  0  0
 22 24  1  0  0  0  0
 22 23  1  0  0  0  0
 22 25  1  0  0  0  0
 26 32  1  0  0  0  0
 27 33  1  0  0  0  0
 27 26  2  0  0  0  0
 28 29  2  0  0  0  0
 28 27  1  0  0  0  0
 29 30  1  0  0  0  0
 30 31  2  0  0  0  0
 31 26  1  0  0  0  0
 34 35  2  0  0  0  0
 35 36  1  0  0  0  0
 36 37  1  0  0  0  0
 36 28  1  1  0  0  0
 37 38  1  0  0  0  0
 39 37  1  0  0  0  0
 40 39  1  0  0  0  0
 41 35  1  0  0  0  0
 41 39  1  0  0  0  0
 42 41  1  0  0  0  0
M  END
>  <minimizedAffinity>
-6.42090559

>  <minimizedRMSD>
0.920771956

$$$$
