
 OpenBabel03272506473D

 42 45  0  0  1  0  0  0  0  0999 V2000
   32.4340   28.4840   47.2000 C   0  0  2  0  0  0  0  0  0  0  0  0
   33.5780   28.5430   48.1700 C   0  0  1  0  0  0  0  0  0  0  0  0
   34.2100   27.3370   48.1500 O   0  0  0  0  0  0  0  0  0  0  0  0
   33.7620   26.5990   47.0590 C   0  0  0  0  0  0  0  0  0  0  0  0
   33.0830   27.5650   46.1190 C   0  0  1  0  0  0  0  0  0  0  0  0
   31.5350   27.9850   47.5560 H   0  0  0  0  0  0  0  0  0  0  0  0
   33.2170   28.8140   49.1800 H   0  0  0  0  0  0  0  0  0  0  0  0
   34.6190   26.0910   46.5370 H   0  0  0  0  0  0  0  0  0  0  0  0
   33.1500   25.8020   47.4580 H   0  0  0  0  0  0  0  0  0  0  0  0
   33.8030   28.1710   45.5790 H   0  0  0  0  0  0  0  0  0  0  0  0
   32.1980   29.7560   46.6360 O   0  0  0  0  0  0  0  0  0  0  0  0
   32.5970   29.7680   45.7320 H   0  0  0  0  0  0  0  0  0  0  0  0
   34.7600   29.8110   47.5610 S   0  0  0  0  0  0  0  0  0  0  0  0
   37.2600   29.3000   50.5920 C   0  0  0  0  0  0  0  0  0  0  0  0
   37.8280   30.5470   50.8170 C   0  0  0  0  0  0  0  0  0  0  0  0
   37.4160   31.6030   49.9880 C   0  0  0  0  0  0  0  0  0  0  0  0
   36.4920   31.3550   49.0160 N   0  0  0  0  0  0  0  0  0  0  0  0
   35.9720   30.1170   48.8420 C   0  0  0  0  0  0  0  0  0  0  0  0
   36.3480   29.0720   49.6260 N   0  0  0  0  0  0  0  0  0  0  0  0
   37.5620   28.4720   51.2170 H   0  0  0  0  0  0  0  0  0  0  0  0
   38.5530   30.7510   51.5760 H   0  0  0  0  0  0  0  0  0  0  0  0
   37.8020   32.6090   50.0880 H   0  0  0  0  0  0  0  0  0  0  0  0
   32.1260   26.8960   45.3980 O   0  0  0  0  0  0  0  0  0  0  0  0
   30.4400   28.3430   43.4680 Cl  0  0  0  0  0  0  0  0  0  0  0  0
   29.9470   27.4400   44.8830 C   0  0  0  0  0  0  0  0  0  0  0  0
   30.8370   26.7930   45.7120 C   0  0  0  0  0  0  0  0  0  0  0  0
   30.3240   26.0850   46.8000 C   0  0  0  0  0  0  0  0  0  0  0  0
   28.9670   26.0420   47.0340 C   0  0  0  0  0  0  0  0  0  0  0  0
   28.0670   26.6890   46.2090 C   0  0  0  0  0  0  0  0  0  0  0  0
   28.5650   27.3920   45.1270 C   0  0  0  0  0  0  0  0  0  0  0  0
   30.9380   25.5450   47.4980 H   0  0  0  0  0  0  0  0  0  0  0  0
   28.5150   25.5160   47.8550 H   0  0  0  0  0  0  0  0  0  0  0  0
   26.9840   26.6790   46.3600 H   0  0  0  0  0  0  0  0  0  0  0  0
   26.7480   29.8790   45.6190 O   0  0  0  0  0  0  0  0  0  0  0  0
   26.5550   28.8030   44.9680 C   0  0  0  0  0  0  0  0  0  0  0  0
   27.6150   28.0910   44.2320 C   0  0  2  0  0  3  0  0  0  0  0  0
   26.8440   27.1560   43.3400 C   0  0  0  0  0  3  0  0  0  0  0  0
   26.9450   26.0900   43.6430 H   0  0  0  0  0  0  0  0  0  0  0  0
   25.3730   27.4960   43.4750 C   0  0  0  0  0  3  0  0  0  0  0  0
   25.0210   28.2090   42.7030 H   0  0  0  0  0  0  0  0  0  0  0  0
   25.3250   28.0730   44.8070 N   0  0  0  0  0  0  0  0  0  0  0  0
   24.5960   28.0310   45.5770 H   0  0  0  0  0  0  0  0  0  0  0  0
  1  6  1  1  0  0  0
  1  2  1  0  0  0  0
  2  7  1  1  0  0  0
  3  2  1  0  0  0  0
  4  9  1  0  0  0  0
  4  3  1  0  0  0  0
  5 10  1  6  0  0  0
  5  4  1  0  0  0  0
  5  1  1  0  0  0  0
  8  4  1  0  0  0  0
 11  1  1  0  0  0  0
 12 11  1  0  0  0  0
 13  2  1  0  0  0  0
 13 18  1  0  0  0  0
 14 15  1  0  0  0  0
 14 20  1  0  0  0  0
 15 21  1  0  0  0  0
 16 22  1  0  0  0  0
 16 15  2  0  0  0  0
 17 16  1  0  0  0  0
 18 17  2  0  0  0  0
 18 19  1  0  0  0  0
 19 14  2  0  0  0  0
 23 26  1  0  0  0  0
 23  5  1  0  0  0  0
 24 25  1  0  0  0  0
 25 30  2  0  0  0  0
 25 26  1  0  0  0  0
 26 27  2  0  0  0  0
 27 28  1  0  0  0  0
 27 31  1  0  0  0  0
 28 32  1  0  0  0  0
 29 33  1  0  0  0  0
 29 28  2  0  0  0  0
 30 29  1  0  0  0  0
 35 34  2  0  0  0  0
 36 35  1  0  0  0  0
 36 30  1  1  0  0  0
 37 39  1  0  0  0  0
 37 38  1  0  0  0  0
 37 36  1  0  0  0  0
 39 41  1  0  0  0  0
 40 39  1  0  0  0  0
 41 35  1  0  0  0  0
 41 42  1  0  0  0  0
M  END
>  <minimizedAffinity>
-5.12653875

>  <minimizedRMSD>
1.00900459

$$$$
