
 OpenBabel03262522463D

 37 40  0  0  1  0  0  0  0  0999 V2000
   42.1220   24.7420   34.9160 C   0  0  0  0  0  0  0  0  0  0  0  0
   40.7040   25.0110   35.1310 C   0  0  0  0  0  0  0  0  0  0  0  0
   39.9290   24.0920   35.7740 C   0  0  0  0  0  0  0  0  0  0  0  0
   40.5590   22.9440   36.1850 N   0  0  0  0  0  0  0  0  0  0  0  0
   41.8650   22.7100   35.9810 C   0  0  0  0  0  0  0  0  0  0  0  0
   42.6400   23.6020   35.3530 N   0  0  0  0  0  0  0  0  0  0  0  0
   42.4690   21.4970   36.4390 N   0  0  0  0  0  0  0  0  0  0  0  0
   42.6620   25.5050   34.4090 H   0  0  0  0  0  0  0  0  0  0  0  0
   42.5180   21.7150   37.4600 H   0  0  0  0  0  0  0  0  0  0  0  0
   42.6770   20.7880   35.6870 H   0  0  0  0  0  0  0  0  0  0  0  0
   38.1400   22.2150   34.8620 O   0  0  0  0  0  0  0  0  0  0  0  0
   37.8800   22.8500   35.9420 C   0  0  0  0  0  0  0  0  0  0  0  0
   38.4990   24.2290   36.0380 C   0  0  1  0  0  3  0  0  0  0  0  0
   38.1340   24.5970   37.4420 C   0  0  0  0  0  3  0  0  0  0  0  0
   37.1880   25.1830   37.4080 H   0  0  0  0  0  0  0  0  0  0  0  0
   37.8190   23.2950   38.1580 C   0  0  0  0  0  3  0  0  0  0  0  0
   38.7460   22.8080   38.4800 H   0  0  0  0  0  0  0  0  0  0  0  0
   37.1260   22.5650   37.1130 N   0  0  0  0  0  0  0  0  0  0  0  0
   36.3030   21.9510   37.0110 H   0  0  0  0  0  0  0  0  0  0  0  0
   40.1070   26.3410   34.7380 C   0  0  1  0  0  0  0  0  0  0  0  0
   40.6950   27.1450   33.7120 C   0  0  0  0  0  0  0  0  0  0  0  0
   39.4560   26.3600   33.3200 C   0  0  2  0  0  0  0  0  0  0  0  0
   39.3200   26.6760   35.4600 H   0  0  0  0  0  0  0  0  0  0  0  0
   41.6100   26.8930   33.1490 H   0  0  0  0  0  0  0  0  0  0  0  0
   40.5610   28.2640   33.7370 H   0  0  0  0  0  0  0  0  0  0  0  0
   39.7390   25.7230   32.4820 H   0  0  0  0  0  0  0  0  0  0  0  0
   38.8280   27.6490   30.5770 Cl  0  0  0  0  0  0  0  0  0  0  0  0
   37.8140   27.8300   31.9800 C   0  0  0  0  0  0  0  0  0  0  0  0
   38.2910   27.2270   33.1210 C   0  0  0  0  0  0  0  0  0  0  0  0
   37.5090   27.3730   34.2590 C   0  0  0  0  0  0  0  0  0  0  0  0
   36.3150   28.0900   34.2350 C   0  0  0  0  0  0  0  0  0  0  0  0
   35.8710   28.6910   33.0380 C   0  0  0  0  0  0  0  0  0  0  0  0
   34.3990   29.6290   32.9030 Cl  0  0  0  0  0  0  0  0  0  0  0  0
   36.6640   28.5380   31.8950 C   0  0  0  0  0  0  0  0  0  0  0  0
   37.5850   27.0390   35.2780 H   0  0  0  0  0  0  0  0  0  0  0  0
   35.6150   28.2840   35.0270 H   0  0  0  0  0  0  0  0  0  0  0  0
   36.3910   28.9670   30.9430 H   0  0  0  0  0  0  0  0  0  0  0  0
  1  2  2  0  0  0  0
  1  6  1  0  0  0  0
  2  3  1  0  0  0  0
  3  4  2  0  0  0  0
  5  4  1  0  0  0  0
  5  7  1  0  0  0  0
  6  5  2  0  0  0  0
  7  9  1  0  0  0  0
  8  1  1  0  0  0  0
 10  7  1  0  0  0  0
 11 12  2  0  0  0  0
 12 13  1  0  0  0  0
 12 18  1  0  0  0  0
 13  3  1  1  0  0  0
 13 14  1  0  0  0  0
 14 16  1  0  0  0  0
 15 14  1  0  0  0  0
 16 17  1  0  0  0  0
 18 16  1  0  0  0  0
 19 18  1  0  0  0  0
 20  2  1  0  0  0  0
 20 23  1  1  0  0  0
 21 25  1  0  0  0  0
 21 20  1  0  0  0  0
 22 26  1  6  0  0  0
 22 21  1  0  0  0  0
 22 20  1  0  0  0  0
 24 21  1  0  0  0  0
 27 28  1  0  0  0  0
 28 29  1  0  0  0  0
 29 22  1  0  0  0  0
 29 30  2  0  0  0  0
 30 35  1  0  0  0  0
 31 30  1  0  0  0  0
 31 36  1  0  0  0  0
 32 31  2  0  0  0  0
 33 32  1  0  0  0  0
 34 28  2  0  0  0  0
 34 32  1  0  0  0  0
 37 34  1  0  0  0  0
M  END
>  <minimizedAffinity>
-6.00700188

$$$$

 OpenBabel03262522463D

 37 40  0  0  1  0  0  0  0  0999 V2000
   35.5840   31.2730   35.6500 C   0  0  0  0  0  0  0  0  0  0  0  0
   34.3690   30.5760   35.2430 C   0  0  0  0  0  0  0  0  0  0  0  0
   33.1660   30.9470   35.7670 C   0  0  0  0  0  0  0  0  0  0  0  0
   33.1870   31.9820   36.6680 N   0  0  0  0  0  0  0  0  0  0  0  0
   34.3130   32.6150   37.0330 C   0  0  0  0  0  0  0  0  0  0  0  0
   35.5020   32.2640   36.5280 N   0  0  0  0  0  0  0  0  0  0  0  0
   34.2720   33.6940   37.9720 N   0  0  0  0  0  0  0  0  0  0  0  0
   36.4830   30.9280   35.1990 H   0  0  0  0  0  0  0  0  0  0  0  0
   33.8830   34.4370   37.3480 H   0  0  0  0  0  0  0  0  0  0  0  0
   34.6150   33.4580   38.9400 H   0  0  0  0  0  0  0  0  0  0  0  0
   31.9700   29.2250   37.5420 O   0  0  0  0  0  0  0  0  0  0  0  0
   31.2350   29.9310   36.7690 C   0  0  0  0  0  0  0  0  0  0  0  0
   31.8810   30.3250   35.4580 C   0  0  1  0  0  3  0  0  0  0  0  0
   30.8370   31.2420   34.9010 C   0  0  0  0  0  3  0  0  0  0  0  0
   30.1790   30.6450   34.2300 H   0  0  0  0  0  0  0  0  0  0  0  0
   29.9830   31.6810   36.0770 C   0  0  0  0  0  3  0  0  0  0  0  0
   30.4750   32.4980   36.6160 H   0  0  0  0  0  0  0  0  0  0  0  0
   29.9140   30.4520   36.8440 N   0  0  0  0  0  0  0  0  0  0  0  0
   29.2180   29.9090   37.3800 H   0  0  0  0  0  0  0  0  0  0  0  0
   34.4160   29.5140   34.1710 C   0  0  1  0  0  0  0  0  0  0  0  0
   34.4350   29.8590   32.7840 C   0  0  0  0  0  0  0  0  0  0  0  0
   35.7650   29.4470   33.3910 C   0  0  2  0  0  0  0  0  0  0  0  0
   34.2320   28.4910   34.5870 H   0  0  0  0  0  0  0  0  0  0  0  0
   34.4000   30.8850   32.3800 H   0  0  0  0  0  0  0  0  0  0  0  0
   34.0150   29.1370   32.0260 H   0  0  0  0  0  0  0  0  0  0  0  0
   36.4530   30.2790   33.2360 H   0  0  0  0  0  0  0  0  0  0  0  0
   37.5470   27.5980   35.1190 Cl  0  0  0  0  0  0  0  0  0  0  0  0
   36.9370   27.1550   33.5510 C   0  0  0  0  0  0  0  0  0  0  0  0
   36.2090   28.1330   32.9150 C   0  0  0  0  0  0  0  0  0  0  0  0
   35.7270   27.8110   31.6520 C   0  0  0  0  0  0  0  0  0  0  0  0
   35.9730   26.5670   31.0750 C   0  0  0  0  0  0  0  0  0  0  0  0
   36.7280   25.5980   31.7690 C   0  0  0  0  0  0  0  0  0  0  0  0
   37.1130   24.0150   31.1280 Cl  0  0  0  0  0  0  0  0  0  0  0  0
   37.2090   25.9310   33.0410 C   0  0  0  0  0  0  0  0  0  0  0  0
   35.1420   28.3240   30.9110 H   0  0  0  0  0  0  0  0  0  0  0  0
   35.6680   26.1820   30.1190 H   0  0  0  0  0  0  0  0  0  0  0  0
   37.7930   25.2430   33.6340 H   0  0  0  0  0  0  0  0  0  0  0  0
  1  6  1  0  0  0  0
  2  1  2  0  0  0  0
  2  3  1  0  0  0  0
  3  4  2  0  0  0  0
  4  5  1  0  0  0  0
  5  7  1  0  0  0  0
  6  5  2  0  0  0  0
  7 10  1  0  0  0  0
  8  1  1  0  0  0  0
  9  7  1  0  0  0  0
 12 18  1  0  0  0  0
 12 11  2  0  0  0  0
 13  3  1  1  0  0  0
 13 12  1  0  0  0  0
 14 13  1  0  0  0  0
 14 16  1  0  0  0  0
 15 14  1  0  0  0  0
 16 17  1  0  0  0  0
 16 18  1  0  0  0  0
 18 19  1  0  0  0  0
 20 23  1  1  0  0  0
 20  2  1  0  0  0  0
 21 22  1  0  0  0  0
 21 20  1  0  0  0  0
 22 26  1  1  0  0  0
 22 20  1  0  0  0  0
 24 21  1  0  0  0  0
 25 21  1  0  0  0  0
 28 27  1  0  0  0  0
 29 22  1  0  0  0  0
 29 28  2  0  0  0  0
 30 29  1  0  0  0  0
 31 30  2  0  0  0  0
 31 32  1  0  0  0  0
 32 34  2  0  0  0  0
 33 32  1  0  0  0  0
 34 28  1  0  0  0  0
 34 37  1  0  0  0  0
 35 30  1  0  0  0  0
 36 31  1  0  0  0  0
M  END
>  <minimizedAffinity>
-5.88591433

$$$$

 OpenBabel03262522463D

 37 40  0  0  1  0  0  0  0  0999 V2000
   36.4700   28.3880   34.5450 C   0  0  0  0  0  0  0  0  0  0  0  0
   37.5430   27.5100   34.0920 C   0  0  0  0  0  0  0  0  0  0  0  0
   37.7740   27.3520   32.7580 C   0  0  0  0  0  0  0  0  0  0  0  0
   36.9520   28.0530   31.9110 N   0  0  0  0  0  0  0  0  0  0  0  0
   35.9690   28.8590   32.3410 C   0  0  0  0  0  0  0  0  0  0  0  0
   35.7300   29.0250   33.6480 N   0  0  0  0  0  0  0  0  0  0  0  0
   35.1490   29.5710   31.4100 N   0  0  0  0  0  0  0  0  0  0  0  0
   36.3510   28.4600   35.5990 H   0  0  0  0  0  0  0  0  0  0  0  0
   35.8300   30.3120   31.1280 H   0  0  0  0  0  0  0  0  0  0  0  0
   34.1770   29.1850   31.2830 H   0  0  0  0  0  0  0  0  0  0  0  0
   37.1960   24.7730   32.0030 O   0  0  0  0  0  0  0  0  0  0  0  0
   38.0990   25.4200   31.3690 C   0  0  0  0  0  0  0  0  0  0  0  0
   38.8010   26.4940   32.1730 C   0  0  1  0  0  3  0  0  0  0  0  0
   39.6430   27.1280   31.1090 C   0  0  0  0  0  3  0  0  0  0  0  0
   40.6490   26.6520   31.1400 H   0  0  0  0  0  0  0  0  0  0  0  0
   39.0140   26.7440   29.7810 C   0  0  0  0  0  3  0  0  0  0  0  0
   38.1660   27.4010   29.5620 H   0  0  0  0  0  0  0  0  0  0  0  0
   38.6210   25.3740   30.0460 N   0  0  0  0  0  0  0  0  0  0  0  0
   38.6220   24.4590   29.5680 H   0  0  0  0  0  0  0  0  0  0  0  0
   38.4670   26.8510   35.0880 C   0  0  1  0  0  0  0  0  0  0  0  0
   38.1490   26.8080   36.4810 C   0  0  0  0  0  0  0  0  0  0  0  0
   37.9140   25.5260   35.7000 C   0  0  2  0  0  0  0  0  0  0  0  0
   39.4630   26.6070   34.6380 H   0  0  0  0  0  0  0  0  0  0  0  0
   37.2490   27.2480   36.9450 H   0  0  0  0  0  0  0  0  0  0  0  0
   38.9810   26.7560   37.2400 H   0  0  0  0  0  0  0  0  0  0  0  0
   36.8610   25.2730   35.8210 H   0  0  0  0  0  0  0  0  0  0  0  0
   37.7740   23.9870   38.3810 Cl  0  0  0  0  0  0  0  0  0  0  0  0
   38.9470   23.6530   37.1410 C   0  0  0  0  0  0  0  0  0  0  0  0
   38.8830   24.4820   36.0450 C   0  0  0  0  0  0  0  0  0  0  0  0
   39.8230   24.2490   35.0490 C   0  0  0  0  0  0  0  0  0  0  0  0
   40.7680   23.2330   35.1640 C   0  0  0  0  0  0  0  0  0  0  0  0
   40.7930   22.4100   36.3100 C   0  0  0  0  0  0  0  0  0  0  0  0
   41.9500   21.1210   36.5650 Cl  0  0  0  0  0  0  0  0  0  0  0  0
   39.8420   22.6520   37.3090 C   0  0  0  0  0  0  0  0  0  0  0  0
   40.0420   24.6940   34.0950 H   0  0  0  0  0  0  0  0  0  0  0  0
   41.5460   22.9380   34.4830 H   0  0  0  0  0  0  0  0  0  0  0  0
   39.7970   22.0650   38.2140 H   0  0  0  0  0  0  0  0  0  0  0  0
  1  8  1  0  0  0  0
  2  1  1  0  0  0  0
  2 20  1  0  0  0  0
  3  2  2  0  0  0  0
  4  5  2  0  0  0  0
  4  3  1  0  0  0  0
  5  6  1  0  0  0  0
  6  1  2  0  0  0  0
  7  5  1  0  0  0  0
  9  7  1  0  0  0  0
 10  7  1  0  0  0  0
 12 11  2  0  0  0  0
 12 13  1  0  0  0  0
 13  3  1  6  0  0  0
 14 15  1  0  0  0  0
 14 13  1  0  0  0  0
 16 18  1  0  0  0  0
 16 14  1  0  0  0  0
 17 16  1  0  0  0  0
 18 12  1  0  0  0  0
 19 18  1  0  0  0  0
 20 23  1  6  0  0  0
 20 22  1  0  0  0  0
 20 21  1  0  0  0  0
 21 24  1  0  0  0  0
 21 25  1  0  0  0  0
 22 26  1  6  0  0  0
 22 29  1  0  0  0  0
 22 21  1  0  0  0  0
 28 34  1  0  0  0  0
 28 27  1  0  0  0  0
 29 28  2  0  0  0  0
 30 31  2  0  0  0  0
 30 29  1  0  0  0  0
 31 32  1  0  0  0  0
 32 33  1  0  0  0  0
 32 34  2  0  0  0  0
 34 37  1  0  0  0  0
 35 30  1  0  0  0  0
 36 31  1  0  0  0  0
M  END
>  <minimizedAffinity>
-5.88314009

$$$$

 OpenBabel03262522463D

 37 40  0  0  1  0  0  0  0  0999 V2000
   38.4160   25.3210   33.3630 C   0  0  0  0  0  0  0  0  0  0  0  0
   38.3590   24.0740   34.1190 C   0  0  0  0  0  0  0  0  0  0  0  0
   38.3620   24.1060   35.4820 C   0  0  0  0  0  0  0  0  0  0  0  0
   38.4210   25.3490   36.0610 N   0  0  0  0  0  0  0  0  0  0  0  0
   38.4720   26.4880   35.3530 C   0  0  0  0  0  0  0  0  0  0  0  0
   38.4690   26.4740   34.0150 N   0  0  0  0  0  0  0  0  0  0  0  0
   38.5250   27.7560   36.0140 N   0  0  0  0  0  0  0  0  0  0  0  0
   38.4090   25.2160   32.3040 H   0  0  0  0  0  0  0  0  0  0  0  0
   37.5280   27.8200   36.3210 H   0  0  0  0  0  0  0  0  0  0  0  0
   39.4680   28.2260   36.0060 H   0  0  0  0  0  0  0  0  0  0  0  0
   40.6470   22.6800   36.0260 O   0  0  0  0  0  0  0  0  0  0  0  0
   39.7190   22.7310   36.9070 C   0  0  0  0  0  0  0  0  0  0  0  0
   38.3250   22.9360   36.3550 C   0  0  1  0  0  3  0  0  0  0  0  0
   37.5490   23.1020   37.6240 C   0  0  0  0  0  3  0  0  0  0  0  0
   37.1330   22.1080   37.9040 H   0  0  0  0  0  0  0  0  0  0  0  0
   38.5570   23.4760   38.6960 C   0  0  0  0  0  3  0  0  0  0  0  0
   38.7830   24.5470   38.6440 H   0  0  0  0  0  0  0  0  0  0  0  0
   39.6800   22.6370   38.3250 N   0  0  0  0  0  0  0  0  0  0  0  0
   40.3910   22.0450   38.7820 H   0  0  0  0  0  0  0  0  0  0  0  0
   38.1940   22.7530   33.4080 C   0  0  1  0  0  0  0  0  0  0  0  0
   36.9250   22.0970   33.3410 C   0  0  0  0  0  0  0  0  0  0  0  0
   37.3670   22.8310   32.0870 C   0  0  2  0  0  0  0  0  0  0  0  0
   39.1810   22.2930   33.1440 H   0  0  0  0  0  0  0  0  0  0  0  0
   35.9910   22.4660   33.7980 H   0  0  0  0  0  0  0  0  0  0  0  0
   36.8830   20.9740   33.2450 H   0  0  0  0  0  0  0  0  0  0  0  0
   36.5930   23.5660   31.8640 H   0  0  0  0  0  0  0  0  0  0  0  0
   39.8070   23.3410   30.2540 Cl  0  0  0  0  0  0  0  0  0  0  0  0
   38.7970   21.9290   30.1390 C   0  0  0  0  0  0  0  0  0  0  0  0
   37.7280   21.9110   31.0050 C   0  0  0  0  0  0  0  0  0  0  0  0
   36.8950   20.8020   30.9190 C   0  0  0  0  0  0  0  0  0  0  0  0
   37.1370   19.7780   30.0080 C   0  0  0  0  0  0  0  0  0  0  0  0
   38.2480   19.8460   29.1400 C   0  0  0  0  0  0  0  0  0  0  0  0
   38.6320   18.6260   27.9450 Cl  0  0  0  0  0  0  0  0  0  0  0  0
   39.0830   20.9660   29.2330 C   0  0  0  0  0  0  0  0  0  0  0  0
   36.0060   20.4820   31.4320 H   0  0  0  0  0  0  0  0  0  0  0  0
   36.5870   18.8720   29.8310 H   0  0  0  0  0  0  0  0  0  0  0  0
   39.9520   21.0900   28.6040 H   0  0  0  0  0  0  0  0  0  0  0  0
  1  6  2  0  0  0  0
  1  2  1  0  0  0  0
  2  3  2  0  0  0  0
  3  4  1  0  0  0  0
  5  7  1  0  0  0  0
  5  4  2  0  0  0  0
  6  5  1  0  0  0  0
  7  9  1  0  0  0  0
  8  1  1  0  0  0  0
 10  7  1  0  0  0  0
 11 12  2  0  0  0  0
 12 18  1  0  0  0  0
 13  3  1  6  0  0  0
 13 12  1  0  0  0  0
 13 14  1  0  0  0  0
 14 15  1  0  0  0  0
 14 16  1  0  0  0  0
 17 16  1  0  0  0  0
 18 16  1  0  0  0  0
 18 19  1  0  0  0  0
 20 23  1  6  0  0  0
 20  2  1  0  0  0  0
 21 20  1  0  0  0  0
 21 24  1  0  0  0  0
 22 26  1  6  0  0  0
 22 21  1  0  0  0  0
 22 20  1  0  0  0  0
 25 21  1  0  0  0  0
 28 27  1  0  0  0  0
 28 29  1  0  0  0  0
 29 22  1  0  0  0  0
 30 29  2  0  0  0  0
 30 35  1  0  0  0  0
 31 30  1  0  0  0  0
 32 34  1  0  0  0  0
 32 31  2  0  0  0  0
 33 32  1  0  0  0  0
 34 28  2  0  0  0  0
 36 31  1  0  0  0  0
 37 34  1  0  0  0  0
M  END
>  <minimizedAffinity>
-5.81265831

$$$$

 OpenBabel03262522463D

 37 40  0  0  1  0  0  0  0  0999 V2000
   37.4730   23.7940   32.5340 C   0  0  0  0  0  0  0  0  0  0  0  0
   38.0110   24.3110   33.7880 C   0  0  0  0  0  0  0  0  0  0  0  0
   38.7440   23.4960   34.5990 C   0  0  0  0  0  0  0  0  0  0  0  0
   38.9260   22.2070   34.1620 N   0  0  0  0  0  0  0  0  0  0  0  0
   38.4260   21.7460   33.0050 C   0  0  0  0  0  0  0  0  0  0  0  0
   37.7060   22.5330   32.1970 N   0  0  0  0  0  0  0  0  0  0  0  0
   38.6560   20.3930   32.5980 N   0  0  0  0  0  0  0  0  0  0  0  0
   36.9130   24.4890   31.9550 H   0  0  0  0  0  0  0  0  0  0  0  0
   39.6550   20.4820   32.3000 H   0  0  0  0  0  0  0  0  0  0  0  0
   37.8310   19.7480   32.7030 H   0  0  0  0  0  0  0  0  0  0  0  0
   37.3260   23.1950   36.9330 O   0  0  0  0  0  0  0  0  0  0  0  0
   38.6010   23.1040   36.9630 C   0  0  0  0  0  0  0  0  0  0  0  0
   39.3230   23.8800   35.8820 C   0  0  1  0  0  3  0  0  0  0  0  0
   40.7320   23.4310   36.1160 C   0  0  0  0  0  3  0  0  0  0  0  0
   41.2250   24.1780   36.7780 H   0  0  0  0  0  0  0  0  0  0  0  0
   40.6430   22.1350   36.9020 C   0  0  0  0  0  3  0  0  0  0  0  0
   40.4410   21.2970   36.2270 H   0  0  0  0  0  0  0  0  0  0  0  0
   39.5370   22.4280   37.7940 N   0  0  0  0  0  0  0  0  0  0  0  0
   39.2790   22.2860   38.7830 H   0  0  0  0  0  0  0  0  0  0  0  0
   37.8500   25.7680   34.1490 C   0  0  1  0  0  0  0  0  0  0  0  0
   38.9340   26.6900   34.0170 C   0  0  0  0  0  0  0  0  0  0  0  0
   37.8760   26.7410   32.9290 C   0  0  2  0  0  0  0  0  0  0  0  0
   36.8920   25.9610   34.6960 H   0  0  0  0  0  0  0  0  0  0  0  0
   39.9510   26.4360   33.6730 H   0  0  0  0  0  0  0  0  0  0  0  0
   38.9760   27.6000   34.6820 H   0  0  0  0  0  0  0  0  0  0  0  0
   38.3880   26.5610   31.9840 H   0  0  0  0  0  0  0  0  0  0  0  0
   37.3960   28.5580   30.4700 Cl  0  0  0  0  0  0  0  0  0  0  0  0
   36.6760   28.8390   32.0290 C   0  0  0  0  0  0  0  0  0  0  0  0
   37.0550   27.9520   33.0100 C   0  0  0  0  0  0  0  0  0  0  0  0
   36.5080   28.1670   34.2690 C   0  0  0  0  0  0  0  0  0  0  0  0
   35.6310   29.2210   34.5120 C   0  0  0  0  0  0  0  0  0  0  0  0
   35.2750   30.1040   33.4700 C   0  0  0  0  0  0  0  0  0  0  0  0
   34.1990   31.4700   33.6710 Cl  0  0  0  0  0  0  0  0  0  0  0  0
   35.8290   29.8790   32.2050 C   0  0  0  0  0  0  0  0  0  0  0  0
   36.5880   27.6770   35.2230 H   0  0  0  0  0  0  0  0  0  0  0  0
   35.1360   29.5060   35.4220 H   0  0  0  0  0  0  0  0  0  0  0  0
   35.6050   30.5110   31.3580 H   0  0  0  0  0  0  0  0  0  0  0  0
  1  2  1  0  0  0  0
  2 20  1  0  0  0  0
  2  3  2  0  0  0  0
  4  3  1  0  0  0  0
  5  4  2  0  0  0  0
  6  1  2  0  0  0  0
  6  5  1  0  0  0  0
  7 10  1  0  0  0  0
  7  5  1  0  0  0  0
  8  1  1  0  0  0  0
  9  7  1  0  0  0  0
 11 12  2  0  0  0  0
 12 18  1  0  0  0  0
 13  3  1  6  0  0  0
 13 14  1  0  0  0  0
 13 12  1  0  0  0  0
 14 15  1  0  0  0  0
 14 16  1  0  0  0  0
 16 18  1  0  0  0  0
 17 16  1  0  0  0  0
 18 19  1  0  0  0  0
 20 23  1  1  0  0  0
 21 20  1  0  0  0  0
 21 25  1  0  0  0  0
 22 26  1  6  0  0  0
 22 29  1  0  0  0  0
 22 21  1  0  0  0  0
 22 20  1  0  0  0  0
 24 21  1  0  0  0  0
 27 28  1  0  0  0  0
 28 34  2  0  0  0  0
 28 29  1  0  0  0  0
 29 30  2  0  0  0  0
 30 31  1  0  0  0  0
 30 35  1  0  0  0  0
 31 36  1  0  0  0  0
 32 33  1  0  0  0  0
 32 31  2  0  0  0  0
 34 32  1  0  0  0  0
 37 34  1  0  0  0  0
M  END
>  <minimizedAffinity>
-5.73870039

$$$$

 OpenBabel03262522463D

 37 40  0  0  1  0  0  0  0  0999 V2000
   34.5500   31.3160   31.7900 C   0  0  0  0  0  0  0  0  0  0  0  0
   34.5960   30.6890   33.1070 C   0  0  0  0  0  0  0  0  0  0  0  0
   34.3200   31.4280   34.2200 C   0  0  0  0  0  0  0  0  0  0  0  0
   34.0110   32.7490   34.0120 N   0  0  0  0  0  0  0  0  0  0  0  0
   33.9720   33.3120   32.7950 C   0  0  0  0  0  0  0  0  0  0  0  0
   34.2390   32.6010   31.6920 N   0  0  0  0  0  0  0  0  0  0  0  0
   33.6350   34.6940   32.6400 N   0  0  0  0  0  0  0  0  0  0  0  0
   34.7770   30.6770   30.9700 H   0  0  0  0  0  0  0  0  0  0  0  0
   32.6040   34.6280   32.8030 H   0  0  0  0  0  0  0  0  0  0  0  0
   34.4460   35.3310   32.4240 H   0  0  0  0  0  0  0  0  0  0  0  0
   36.5040   31.8510   35.8330 O   0  0  0  0  0  0  0  0  0  0  0  0
   35.3440   31.7660   36.3650 C   0  0  0  0  0  0  0  0  0  0  0  0
   34.3460   30.9300   35.5920 C   0  0  1  0  0  3  0  0  0  0  0  0
   33.1050   31.1750   36.3920 C   0  0  0  0  0  3  0  0  0  0  0  0
   33.0040   30.3490   37.1310 H   0  0  0  0  0  0  0  0  0  0  0  0
   33.3500   32.4470   37.1840 C   0  0  0  0  0  3  0  0  0  0  0  0
   33.1700   33.3250   36.5530 H   0  0  0  0  0  0  0  0  0  0  0  0
   34.7450   32.2820   37.5470 N   0  0  0  0  0  0  0  0  0  0  0  0
   35.3560   32.4290   38.3650 H   0  0  0  0  0  0  0  0  0  0  0  0
   34.8470   29.2070   33.2430 C   0  0  1  0  0  0  0  0  0  0  0  0
   35.0010   28.3710   32.0940 C   0  0  0  0  0  0  0  0  0  0  0  0
   36.2790   28.7550   32.8190 C   0  0  2  0  0  0  0  0  0  0  0  0
   34.6930   28.8510   34.2940 H   0  0  0  0  0  0  0  0  0  0  0  0
   34.9360   28.7080   31.0450 H   0  0  0  0  0  0  0  0  0  0  0  0
   34.7270   27.2790   32.1590 H   0  0  0  0  0  0  0  0  0  0  0  0
   36.9150   29.2580   32.0910 H   0  0  0  0  0  0  0  0  0  0  0  0
   36.7940   26.0360   31.4340 Cl  0  0  0  0  0  0  0  0  0  0  0  0
   37.2340   26.3740   33.0830 C   0  0  0  0  0  0  0  0  0  0  0  0
   36.8720   27.6220   33.5350 C   0  0  0  0  0  0  0  0  0  0  0  0
   37.1950   27.9090   34.8550 C   0  0  0  0  0  0  0  0  0  0  0  0
   37.8460   26.9800   35.6640 C   0  0  0  0  0  0  0  0  0  0  0  0
   38.1940   25.7120   35.1520 C   0  0  0  0  0  0  0  0  0  0  0  0
   38.9950   24.4660   36.0860 Cl  0  0  0  0  0  0  0  0  0  0  0  0
   37.8670   25.4320   33.8200 C   0  0  0  0  0  0  0  0  0  0  0  0
   37.0630   28.7590   35.4990 H   0  0  0  0  0  0  0  0  0  0  0  0
   38.1560   27.0610   36.6900 H   0  0  0  0  0  0  0  0  0  0  0  0
   38.1000   24.4850   33.3570 H   0  0  0  0  0  0  0  0  0  0  0  0
  1  2  1  0  0  0  0
  2 20  1  0  0  0  0
  2  3  2  0  0  0  0
  4  3  1  0  0  0  0
  5  4  2  0  0  0  0
  6  1  2  0  0  0  0
  6  5  1  0  0  0  0
  7  5  1  0  0  0  0
  7  9  1  0  0  0  0
  8  1  1  0  0  0  0
 10  7  1  0  0  0  0
 11 12  2  0  0  0  0
 12 18  1  0  0  0  0
 13  3  1  6  0  0  0
 13 12  1  0  0  0  0
 13 14  1  0  0  0  0
 14 15  1  0  0  0  0
 14 16  1  0  0  0  0
 16 18  1  0  0  0  0
 17 16  1  0  0  0  0
 18 19  1  0  0  0  0
 20 23  1  1  0  0  0
 21 25  1  0  0  0  0
 21 22  1  0  0  0  0
 21 20  1  0  0  0  0
 22 26  1  6  0  0  0
 22 20  1  0  0  0  0
 22 29  1  0  0  0  0
 24 21  1  0  0  0  0
 27 28  1  0  0  0  0
 28 29  2  0  0  0  0
 28 34  1  0  0  0  0
 29 30  1  0  0  0  0
 30 35  1  0  0  0  0
 30 31  2  0  0  0  0
 31 36  1  0  0  0  0
 32 31  1  0  0  0  0
 32 33  1  0  0  0  0
 34 32  2  0  0  0  0
 37 34  1  0  0  0  0
M  END
>  <minimizedAffinity>
-5.66590548

$$$$

 OpenBabel03262522463D

 37 40  0  0  1  0  0  0  0  0999 V2000
   36.4400   28.2910   34.5460 C   0  0  0  0  0  0  0  0  0  0  0  0
   37.5040   27.4360   34.0320 C   0  0  0  0  0  0  0  0  0  0  0  0
   37.7470   27.3860   32.6910 C   0  0  0  0  0  0  0  0  0  0  0  0
   36.9460   28.1690   31.8980 N   0  0  0  0  0  0  0  0  0  0  0  0
   35.9710   28.9520   32.3840 C   0  0  0  0  0  0  0  0  0  0  0  0
   35.7200   29.0130   33.6980 N   0  0  0  0  0  0  0  0  0  0  0  0
   35.1720   29.7530   31.5080 N   0  0  0  0  0  0  0  0  0  0  0  0
   36.3100   28.2780   35.6010 H   0  0  0  0  0  0  0  0  0  0  0  0
   35.8680   30.5030   31.2950 H   0  0  0  0  0  0  0  0  0  0  0  0
   34.1950   29.3940   31.3390 H   0  0  0  0  0  0  0  0  0  0  0  0
   37.0440   25.2590   31.0990 O   0  0  0  0  0  0  0  0  0  0  0  0
   38.1270   25.8930   30.8490 C   0  0  0  0  0  0  0  0  0  0  0  0
   38.7670   26.5630   32.0470 C   0  0  1  0  0  3  0  0  0  0  0  0
   39.8770   27.3140   31.3810 C   0  0  0  0  0  3  0  0  0  0  0  0
   40.7940   26.6840   31.4280 H   0  0  0  0  0  0  0  0  0  0  0  0
   39.4970   27.4310   29.9160 C   0  0  0  0  0  3  0  0  0  0  0  0
   38.7930   28.2580   29.7730 H   0  0  0  0  0  0  0  0  0  0  0  0
   38.9020   26.1290   29.6800 N   0  0  0  0  0  0  0  0  0  0  0  0
   38.8970   25.3990   28.9510 H   0  0  0  0  0  0  0  0  0  0  0  0
   38.4060   26.6820   34.9780 C   0  0  1  0  0  0  0  0  0  0  0  0
   38.1650   26.6740   36.3870 C   0  0  0  0  0  0  0  0  0  0  0  0
   37.7500   25.4250   35.6290 C   0  0  2  0  0  0  0  0  0  0  0  0
   39.3440   26.3330   34.4750 H   0  0  0  0  0  0  0  0  0  0  0  0
   37.3460   27.2080   36.8980 H   0  0  0  0  0  0  0  0  0  0  0  0
   39.0280   26.5330   37.0990 H   0  0  0  0  0  0  0  0  0  0  0  0
   36.6840   25.2860   35.8110 H   0  0  0  0  0  0  0  0  0  0  0  0
   38.8590   23.5930   33.3950 Cl  0  0  0  0  0  0  0  0  0  0  0  0
   39.2560   23.4050   35.0790 C   0  0  0  0  0  0  0  0  0  0  0  0
   38.6190   24.2820   35.9250 C   0  0  0  0  0  0  0  0  0  0  0  0
   38.9040   24.1400   37.2770 C   0  0  0  0  0  0  0  0  0  0  0  0
   39.7840   23.1620   37.7370 C   0  0  0  0  0  0  0  0  0  0  0  0
   40.4100   22.2850   36.8260 C   0  0  0  0  0  0  0  0  0  0  0  0
   41.5140   21.0110   37.2980 Cl  0  0  0  0  0  0  0  0  0  0  0  0
   40.1180   22.4360   35.4660 C   0  0  0  0  0  0  0  0  0  0  0  0
   38.5920   24.6440   38.1740 H   0  0  0  0  0  0  0  0  0  0  0  0
   40.0960   22.9370   38.7400 H   0  0  0  0  0  0  0  0  0  0  0  0
   40.5580   21.8040   34.7090 H   0  0  0  0  0  0  0  0  0  0  0  0
  1  8  1  0  0  0  0
  2  1  1  0  0  0  0
  2 20  1  0  0  0  0
  3  2  2  0  0  0  0
  4  5  2  0  0  0  0
  4  3  1  0  0  0  0
  5  6  1  0  0  0  0
  6  1  2  0  0  0  0
  7  5  1  0  0  0  0
  9  7  1  0  0  0  0
 10  7  1  0  0  0  0
 12 11  2  0  0  0  0
 12 13  1  0  0  0  0
 13  3  1  6  0  0  0
 14 15  1  0  0  0  0
 14 13  1  0  0  0  0
 16 14  1  0  0  0  0
 17 16  1  0  0  0  0
 18 16  1  0  0  0  0
 18 12  1  0  0  0  0
 19 18  1  0  0  0  0
 20 23  1  6  0  0  0
 20 22  1  0  0  0  0
 20 21  1  0  0  0  0
 21 24  1  0  0  0  0
 21 25  1  0  0  0  0
 22 26  1  6  0  0  0
 22 29  1  0  0  0  0
 22 21  1  0  0  0  0
 27 28  1  0  0  0  0
 28 34  2  0  0  0  0
 28 29  1  0  0  0  0
 29 30  2  0  0  0  0
 30 31  1  0  0  0  0
 30 35  1  0  0  0  0
 31 36  1  0  0  0  0
 32 33  1  0  0  0  0
 32 31  2  0  0  0  0
 34 32  1  0  0  0  0
 37 34  1  0  0  0  0
M  END
>  <minimizedAffinity>
-5.55280495

$$$$

 OpenBabel03262522463D

 37 40  0  0  1  0  0  0  0  0999 V2000
   37.8770   25.1390   36.2100 C   0  0  0  0  0  0  0  0  0  0  0  0
   38.8510   24.8420   35.1650 C   0  0  0  0  0  0  0  0  0  0  0  0
   39.7690   23.8520   35.3530 C   0  0  0  0  0  0  0  0  0  0  0  0
   39.7080   23.1850   36.5520 N   0  0  0  0  0  0  0  0  0  0  0  0
   38.8060   23.4680   37.5040 C   0  0  0  0  0  0  0  0  0  0  0  0
   37.8970   24.4360   37.3340 N   0  0  0  0  0  0  0  0  0  0  0  0
   38.7850   22.7330   38.7320 N   0  0  0  0  0  0  0  0  0  0  0  0
   37.1930   25.9230   35.9900 H   0  0  0  0  0  0  0  0  0  0  0  0
   38.3550   21.8460   38.3820 H   0  0  0  0  0  0  0  0  0  0  0  0
   39.1740   23.2450   39.5670 H   0  0  0  0  0  0  0  0  0  0  0  0
   42.1780   25.1710   35.2770 O   0  0  0  0  0  0  0  0  0  0  0  0
   42.1350   23.9350   34.9500 C   0  0  0  0  0  0  0  0  0  0  0  0
   40.8050   23.4660   34.3990 C   0  0  1  0  0  3  0  0  0  0  0  0
   41.0590   21.9960   34.2810 C   0  0  0  0  0  3  0  0  0  0  0  0
   41.3980   21.7890   33.2400 H   0  0  0  0  0  0  0  0  0  0  0  0
   42.2320   21.6900   35.1950 C   0  0  0  0  0  3  0  0  0  0  0  0
   41.8880   21.5920   36.2300 H   0  0  0  0  0  0  0  0  0  0  0  0
   43.0640   22.8590   34.9800 N   0  0  0  0  0  0  0  0  0  0  0  0
   44.0620   23.0890   34.8530 H   0  0  0  0  0  0  0  0  0  0  0  0
   38.7890   25.5530   33.8350 C   0  0  1  0  0  0  0  0  0  0  0  0
   38.3910   24.8690   32.6440 C   0  0  0  0  0  0  0  0  0  0  0  0
   37.3440   25.7650   33.2840 C   0  0  2  0  0  0  0  0  0  0  0  0
   39.2690   26.5640   33.8770 H   0  0  0  0  0  0  0  0  0  0  0  0
   38.1220   23.8010   32.5800 H   0  0  0  0  0  0  0  0  0  0  0  0
   38.7730   25.2240   31.6440 H   0  0  0  0  0  0  0  0  0  0  0  0
   36.4820   25.1340   33.5020 H   0  0  0  0  0  0  0  0  0  0  0  0
   36.2530   28.3590   34.5700 Cl  0  0  0  0  0  0  0  0  0  0  0  0
   36.6750   28.2230   32.8870 C   0  0  0  0  0  0  0  0  0  0  0  0
   37.0900   26.9720   32.4930 C   0  0  0  0  0  0  0  0  0  0  0  0
   37.4130   26.8320   31.1500 C   0  0  0  0  0  0  0  0  0  0  0  0
   37.3200   27.9030   30.2630 C   0  0  0  0  0  0  0  0  0  0  0  0
   36.8870   29.1670   30.7180 C   0  0  0  0  0  0  0  0  0  0  0  0
   36.7140   30.5710   29.6860 Cl  0  0  0  0  0  0  0  0  0  0  0  0
   36.5640   29.2990   32.0730 C   0  0  0  0  0  0  0  0  0  0  0  0
   37.7620   26.0220   30.5350 H   0  0  0  0  0  0  0  0  0  0  0  0
   37.5340   27.9430   29.2110 H   0  0  0  0  0  0  0  0  0  0  0  0
   36.2260   30.2330   32.4960 H   0  0  0  0  0  0  0  0  0  0  0  0
  1  6  1  0  0  0  0
  2  3  1  0  0  0  0
  2  1  2  0  0  0  0
  3  4  2  0  0  0  0
  4  5  1  0  0  0  0
  5  7  1  0  0  0  0
  6  5  2  0  0  0  0
  7 10  1  0  0  0  0
  8  1  1  0  0  0  0
  9  7  1  0  0  0  0
 12 18  1  0  0  0  0
 12 11  2  0  0  0  0
 13 12  1  0  0  0  0
 13  3  1  1  0  0  0
 14 13  1  0  0  0  0
 14 16  1  0  0  0  0
 15 14  1  0  0  0  0
 16 17  1  0  0  0  0
 18 16  1  0  0  0  0
 19 18  1  0  0  0  0
 20 23  1  6  0  0  0
 20  2  1  0  0  0  0
 21 22  1  0  0  0  0
 21 20  1  0  0  0  0
 22 26  1  1  0  0  0
 22 20  1  0  0  0  0
 24 21  1  0  0  0  0
 25 21  1  0  0  0  0
 28 27  1  0  0  0  0
 29 28  1  0  0  0  0
 29 22  1  0  0  0  0
 30 29  2  0  0  0  0
 31 32  2  0  0  0  0
 31 30  1  0  0  0  0
 32 34  1  0  0  0  0
 33 32  1  0  0  0  0
 34 37  1  0  0  0  0
 34 28  2  0  0  0  0
 35 30  1  0  0  0  0
 36 31  1  0  0  0  0
M  END
>  <minimizedAffinity>
-5.54200697

$$$$

 OpenBabel03262522463D

 37 40  0  0  1  0  0  0  0  0999 V2000
   37.4210   27.5710   35.0380 C   0  0  0  0  0  0  0  0  0  0  0  0
   37.0050   27.4820   33.6430 C   0  0  0  0  0  0  0  0  0  0  0  0
   37.0810   26.2900   32.9860 C   0  0  0  0  0  0  0  0  0  0  0  0
   37.5600   25.2260   33.7090 N   0  0  0  0  0  0  0  0  0  0  0  0
   37.9390   25.3220   34.9930 C   0  0  0  0  0  0  0  0  0  0  0  0
   37.8690   26.4850   35.6520 N   0  0  0  0  0  0  0  0  0  0  0  0
   38.4240   24.1750   35.6980 N   0  0  0  0  0  0  0  0  0  0  0  0
   37.3320   28.5330   35.4830 H   0  0  0  0  0  0  0  0  0  0  0  0
   37.5140   23.6830   35.8510 H   0  0  0  0  0  0  0  0  0  0  0  0
   39.4660   24.1520   35.8520 H   0  0  0  0  0  0  0  0  0  0  0  0
   38.9730   26.3990   30.9950 O   0  0  0  0  0  0  0  0  0  0  0  0
   37.9610   25.6300   30.8510 C   0  0  0  0  0  0  0  0  0  0  0  0
   36.7140   26.0690   31.5900 C   0  0  1  0  0  3  0  0  0  0  0  0
   35.8170   24.8980   31.3360 C   0  0  0  0  0  3  0  0  0  0  0  0
   35.1940   25.1300   30.4430 H   0  0  0  0  0  0  0  0  0  0  0  0
   36.7230   23.7410   30.9510 C   0  0  0  0  0  3  0  0  0  0  0  0
   37.1460   23.2780   31.8490 H   0  0  0  0  0  0  0  0  0  0  0  0
   37.7140   24.4230   30.1410 N   0  0  0  0  0  0  0  0  0  0  0  0
   38.2370   24.2720   29.2640 H   0  0  0  0  0  0  0  0  0  0  0  0
   36.3950   28.6750   32.9470 C   0  0  1  0  0  0  0  0  0  0  0  0
   35.0610   28.6350   32.4340 C   0  0  0  0  0  0  0  0  0  0  0  0
   35.2520   29.3730   33.7480 C   0  0  2  0  0  0  0  0  0  0  0  0
   37.1580   29.4630   32.7200 H   0  0  0  0  0  0  0  0  0  0  0  0
   34.3860   27.7630   32.4780 H   0  0  0  0  0  0  0  0  0  0  0  0
   34.7810   29.2880   31.5590 H   0  0  0  0  0  0  0  0  0  0  0  0
   34.6010   28.8910   34.4770 H   0  0  0  0  0  0  0  0  0  0  0  0
   36.2620   31.3540   35.9000 Cl  0  0  0  0  0  0  0  0  0  0  0  0
   35.5410   31.8530   34.3970 C   0  0  0  0  0  0  0  0  0  0  0  0
   35.1040   30.8230   33.5950 C   0  0  0  0  0  0  0  0  0  0  0  0
   34.5070   31.1960   32.3980 C   0  0  0  0  0  0  0  0  0  0  0  0
   34.3630   32.5350   32.0410 C   0  0  0  0  0  0  0  0  0  0  0  0
   34.8270   33.5530   32.9010 C   0  0  0  0  0  0  0  0  0  0  0  0
   34.6780   35.2640   32.5590 Cl  0  0  0  0  0  0  0  0  0  0  0  0
   35.4290   33.1690   34.1050 C   0  0  0  0  0  0  0  0  0  0  0  0
   34.0740   30.6640   31.5690 H   0  0  0  0  0  0  0  0  0  0  0  0
   33.9280   32.9670   31.1590 H   0  0  0  0  0  0  0  0  0  0  0  0
   35.8090   33.8890   34.8140 H   0  0  0  0  0  0  0  0  0  0  0  0
  1  8  1  0  0  0  0
  1  6  1  0  0  0  0
  2  1  2  0  0  0  0
  3  2  1  0  0  0  0
  3  4  2  0  0  0  0
  4  5  1  0  0  0  0
  5  6  2  0  0  0  0
  5  7  1  0  0  0  0
  7  9  1  0  0  0  0
  7 10  1  0  0  0  0
 12 11  2  0  0  0  0
 12 13  1  0  0  0  0
 13  3  1  1  0  0  0
 14 13  1  0  0  0  0
 15 14  1  0  0  0  0
 16 14  1  0  0  0  0
 16 17  1  0  0  0  0
 18 12  1  0  0  0  0
 18 16  1  0  0  0  0
 19 18  1  0  0  0  0
 20 23  1  6  0  0  0
 20  2  1  0  0  0  0
 20 22  1  0  0  0  0
 21 24  1  0  0  0  0
 21 20  1  0  0  0  0
 21 22  1  0  0  0  0
 22 26  1  1  0  0  0
 25 21  1  0  0  0  0
 28 27  1  0  0  0  0
 29 22  1  0  0  0  0
 29 28  2  0  0  0  0
 30 29  1  0  0  0  0
 31 30  2  0  0  0  0
 31 32  1  0  0  0  0
 32 34  2  0  0  0  0
 33 32  1  0  0  0  0
 34 28  1  0  0  0  0
 34 37  1  0  0  0  0
 35 30  1  0  0  0  0
 36 31  1  0  0  0  0
M  END
>  <minimizedAffinity>
-5.42848635

$$$$
