
 OpenBabel03272506533D

 44 47  0  0  1  0  0  0  0  0999 V2000
   34.1010   29.4240   48.0770 C   0  0  1  0  0  0  0  0  0  0  0  0
   33.2040   29.4180   46.9490 C   0  0  0  0  0  0  0  0  0  0  0  0
   33.1860   28.1590   46.1120 C   0  0  0  0  0  0  0  0  0  0  0  0
   33.2290   26.8970   46.8120 C   0  0  2  0  0  0  0  0  0  0  0  0
   34.1610   26.8680   48.0310 C   0  0  0  0  0  0  0  0  0  0  0  0
   34.0130   28.1170   48.8470 C   0  0  0  0  0  0  0  0  0  0  0  0
   33.7090   30.1590   48.8510 H   0  0  0  0  0  0  0  0  0  0  0  0
   33.2930   30.2430   46.2370 H   0  0  0  0  0  0  0  0  0  0  0  0
   32.1490   29.5080   47.3350 H   0  0  0  0  0  0  0  0  0  0  0  0
   34.1980   28.2580   45.5860 H   0  0  0  0  0  0  0  0  0  0  0  0
   32.3460   28.2290   45.4060 H   0  0  0  0  0  0  0  0  0  0  0  0
   32.2840   26.5540   47.2790 H   0  0  0  0  0  0  0  0  0  0  0  0
   34.1090   26.0790   48.7070 H   0  0  0  0  0  0  0  0  0  0  0  0
   35.2040   26.9010   47.5970 H   0  0  0  0  0  0  0  0  0  0  0  0
   33.0490   28.0870   49.4030 H   0  0  0  0  0  0  0  0  0  0  0  0
   34.8220   28.1250   49.6030 H   0  0  0  0  0  0  0  0  0  0  0  0
   33.7700   25.8730   45.8890 C   0  0  0  0  0  0  0  0  0  0  0  0
   34.5510   26.3010   44.7950 C   0  0  0  0  0  0  0  0  0  0  0  0
   35.0840   25.3970   43.8970 C   0  0  0  0  0  0  0  0  0  0  0  0
   34.8420   24.0920   44.0920 C   0  0  0  0  0  0  0  0  0  0  0  0
   34.0800   23.6390   45.1450 C   0  0  0  0  0  0  0  0  0  0  0  0
   33.5390   24.5440   46.0460 C   0  0  0  0  0  0  0  0  0  0  0  0
   34.8210   27.3030   44.4850 H   0  0  0  0  0  0  0  0  0  0  0  0
   35.6860   25.6480   43.0420 H   0  0  0  0  0  0  0  0  0  0  0  0
   35.2530   23.3290   43.4020 H   0  0  0  0  0  0  0  0  0  0  0  0
   33.9390   22.5470   45.2260 H   0  0  0  0  0  0  0  0  0  0  0  0
   34.5480   23.2890   48.2860 O   0  0  0  0  0  0  0  0  0  0  0  0
   33.3530   23.0470   47.9100 C   0  0  0  0  0  0  0  0  0  0  0  0
   32.6280   23.9350   47.0180 C   0  0  2  0  0  3  0  0  0  0  0  0
   31.6940   22.9170   46.2830 C   0  0  0  0  0  3  0  0  0  0  0  0
   30.6990   23.3360   46.1100 H   0  0  0  0  0  0  0  0  0  0  0  0
   31.6360   21.7320   47.1740 C   0  0  0  0  0  3  0  0  0  0  0  0
   30.6210   21.5190   47.5680 H   0  0  0  0  0  0  0  0  0  0  0  0
   32.5590   21.9520   48.2590 N   0  0  0  0  0  0  0  0  0  0  0  0
   32.6080   21.3920   49.1280 H   0  0  0  0  0  0  0  0  0  0  0  0
   35.9200   30.4000   46.6690 C   0  0  0  0  0  0  0  0  0  0  0  0
   35.4850   29.8740   47.8790 C   0  0  0  0  0  0  0  0  0  0  0  0
   36.4180   29.7810   48.9150 C   0  0  0  0  0  0  0  0  0  0  0  0
   37.6970   30.2090   48.6890 N   0  0  0  0  0  0  0  0  0  0  0  0
   38.0800   30.7160   47.4940 C   0  0  0  0  0  0  0  0  0  0  0  0
   37.1770   30.8110   46.4760 N   0  0  0  0  0  0  0  0  0  0  0  0
   35.3590   30.5620   45.7900 H   0  0  0  0  0  0  0  0  0  0  0  0
   36.1520   29.3830   49.8800 H   0  0  0  0  0  0  0  0  0  0  0  0
   39.1140   31.0080   47.4710 H   0  0  0  0  0  0  0  0  0  0  0  0
  1  6  1  0  0  0  0
  1  7  1  1  0  0  0
  2  9  1  0  0  0  0
  2  1  1  0  0  0  0
  3  4  1  0  0  0  0
  3  2  1  0  0  0  0
  4 12  1  1  0  0  0
  4  5  1  0  0  0  0
  5 13  1  0  0  0  0
  5  6  1  0  0  0  0
  6 15  1  0  0  0  0
  6 16  1  0  0  0  0
  8  2  1  0  0  0  0
 10  3  1  0  0  0  0
 11  3  1  0  0  0  0
 14  5  1  0  0  0  0
 17 22  1  0  0  0  0
 17  4  1  0  0  0  0
 18 17  2  0  0  0  0
 19 20  2  0  0  0  0
 19 18  1  0  0  0  0
 20 21  1  0  0  0  0
 21 26  1  0  0  0  0
 21 22  2  0  0  0  0
 23 18  1  0  0  0  0
 24 19  1  0  0  0  0
 25 20  1  0  0  0  0
 28 34  1  0  0  0  0
 28 27  2  0  0  0  0
 29 22  1  6  0  0  0
 29 28  1  0  0  0  0
 30 29  1  0  0  0  0
 30 32  1  0  0  0  0
 31 30  1  0  0  0  0
 32 33  1  0  0  0  0
 32 34  1  0  0  0  0
 34 35  1  0  0  0  0
 36 37  1  0  0  0  0
 37  1  1  0  0  0  0
 37 38  2  0  0  0  0
 38 43  1  0  0  0  0
 39 38  1  0  0  0  0
 40 39  2  0  0  0  0
 41 36  2  0  0  0  0
 41 40  1  0  0  0  0
 42 36  1  0  0  0  0
 44 40  1  0  0  0  0
M  END
>  <minimizedAffinity>
-4.42691469

>  <minimizedRMSD>
1.55631852

$$$$
