
 OpenBabel03272510193D

 36 39  0  0  1  0  0  0  0  0999 V2000
   37.4210   29.2480   50.9170 Br  0  0  0  0  0  0  0  0  0  0  0  0
   36.0340   29.2940   49.6050 C   0  0  0  0  0  0  0  0  0  0  0  0
   36.0280   30.2590   48.6120 C   0  0  0  0  0  0  0  0  0  0  0  0
   35.0000   30.2420   47.6930 C   0  0  0  0  0  0  0  0  0  0  0  0
   33.9790   29.2990   47.7250 C   0  0  0  0  0  0  0  0  0  0  0  0
   34.0120   28.3610   48.7170 C   0  0  0  0  0  0  0  0  0  0  0  0
   35.0360   28.3680   49.6430 C   0  0  0  0  0  0  0  0  0  0  0  0
   35.0010   30.9880   46.9310 H   0  0  0  0  0  0  0  0  0  0  0  0
   33.2560   27.5890   48.8170 H   0  0  0  0  0  0  0  0  0  0  0  0
   35.0600   27.6240   50.4250 H   0  0  0  0  0  0  0  0  0  0  0  0
   38.0130   33.1960   49.4730 C   0  0  0  0  0  0  0  0  0  0  0  0
   39.0380   33.2020   48.4790 C   0  0  0  0  0  0  0  0  0  0  0  0
   39.0230   32.1930   47.5340 C   0  0  0  0  0  0  0  0  0  0  0  0
   38.0390   31.2380   47.5840 N   0  0  0  0  0  0  0  0  0  0  0  0
   37.0840   31.2670   48.5440 C   0  0  0  0  0  0  0  0  0  0  0  0
   37.0710   32.2480   49.4890 N   0  0  0  0  0  0  0  0  0  0  0  0
   38.0580   34.0020   50.1970 H   0  0  0  0  0  0  0  0  0  0  0  0
   39.7910   33.9860   48.4920 H   0  0  0  0  0  0  0  0  0  0  0  0
   39.7870   32.1660   46.7640 H   0  0  0  0  0  0  0  0  0  0  0  0
   32.8940   29.2680   46.7700 C   0  0  0  0  0  0  0  0  0  0  0  0
   31.8040   28.4380   46.8340 C   0  0  0  0  0  0  0  0  0  0  0  0
   30.7840   28.4390   45.8950 C   0  0  0  0  0  0  0  0  0  0  0  0
   30.8530   29.2870   44.8680 N   0  0  0  0  0  0  0  0  0  0  0  0
   31.9100   30.1100   44.7810 C   0  0  0  0  0  0  0  0  0  0  0  0
   32.8860   30.0960   45.6970 N   0  0  0  0  0  0  0  0  0  0  0  0
   31.7430   27.7430   47.6730 H   0  0  0  0  0  0  0  0  0  0  0  0
   29.9550   27.7610   46.0050 H   0  0  0  0  0  0  0  0  0  0  0  0
   31.5790   33.1670   45.0290 O   0  0  0  0  0  0  0  0  0  0  0  0
   31.5960   32.4370   43.9890 C   0  0  0  0  0  0  0  0  0  0  0  0
   31.9640   31.0460   43.6270 C   0  0  2  0  0  3  0  0  0  0  0  0
   30.9120   30.6620   42.6050 C   0  0  0  0  0  3  0  0  0  0  0  0
   31.2560   29.9120   41.8900 H   0  0  0  0  0  0  0  0  0  0  0  0
   30.5400   31.9760   41.9240 C   0  0  0  0  0  3  0  0  0  0  0  0
   30.9560   31.9420   40.9050 H   0  0  0  0  0  0  0  0  0  0  0  0
   31.1540   33.0120   42.7430 N   0  0  0  0  0  0  0  0  0  0  0  0
   31.1920   33.9890   42.3370 H   0  0  0  0  0  0  0  0  0  0  0  0
  2  7  1  0  0  0  0
  2  1  1  0  0  0  0
  3  2  2  0  0  0  0
  4  5  2  0  0  0  0
  4  3  1  0  0  0  0
  5  6  1  0  0  0  0
  6  9  1  0  0  0  0
  6  7  2  0  0  0  0
  7 10  1  0  0  0  0
  8  4  1  0  0  0  0
 11 16  1  0  0  0  0
 11 17  1  0  0  0  0
 12 18  1  0  0  0  0
 12 11  2  0  0  0  0
 13 14  2  0  0  0  0
 13 12  1  0  0  0  0
 14 15  1  0  0  0  0
 15  3  1  0  0  0  0
 15 16  2  0  0  0  0
 19 13  1  0  0  0  0
 20 21  1  0  0  0  0
 20  5  1  0  0  0  0
 21 26  1  0  0  0  0
 22 27  1  0  0  0  0
 22 21  2  0  0  0  0
 23 22  1  0  0  0  0
 24 23  2  0  0  0  0
 24 25  1  0  0  0  0
 25 20  2  0  0  0  0
 29 28  2  0  0  0  0
 30 29  1  0  0  0  0
 30 24  1  1  0  0  0
 31 30  1  0  0  0  0
 32 31  1  0  0  0  0
 33 31  1  0  0  0  0
 33 35  1  0  0  0  0
 34 33  1  0  0  0  0
 35 29  1  0  0  0  0
 36 35  1  0  0  0  0
M  END
>  <minimizedAffinity>
-6.24084663

>  <minimizedRMSD>
0.999019802

$$$$
