
 OpenBabel03272506473D

 42 45  0  0  1  0  0  0  0  0999 V2000
   32.3220   28.6320   47.5540 C   0  0  2  0  0  0  0  0  0  0  0  0
   33.6060   28.4040   48.2980 C   0  0  1  0  0  0  0  0  0  0  0  0
   33.9040   27.0770   48.2270 O   0  0  0  0  0  0  0  0  0  0  0  0
   33.0920   26.4710   47.2740 C   0  0  0  0  0  0  0  0  0  0  0  0
   32.5090   27.5730   46.4230 C   0  0  1  0  0  0  0  0  0  0  0  0
   31.4110   28.3780   48.0920 H   0  0  0  0  0  0  0  0  0  0  0  0
   33.5190   28.7620   49.3410 H   0  0  0  0  0  0  0  0  0  0  0  0
   33.6840   25.7610   46.6330 H   0  0  0  0  0  0  0  0  0  0  0  0
   32.3880   25.8570   47.8170 H   0  0  0  0  0  0  0  0  0  0  0  0
   33.2420   27.9750   45.7310 H   0  0  0  0  0  0  0  0  0  0  0  0
   32.3070   29.9190   46.9770 O   0  0  0  0  0  0  0  0  0  0  0  0
   32.5210   29.8260   46.0170 H   0  0  0  0  0  0  0  0  0  0  0  0
   34.9290   29.3290   47.4220 S   0  0  0  0  0  0  0  0  0  0  0  0
   37.3740   29.4720   50.5370 C   0  0  0  0  0  0  0  0  0  0  0  0
   37.9360   30.7420   50.5070 C   0  0  0  0  0  0  0  0  0  0  0  0
   37.5390   31.6000   49.4690 C   0  0  0  0  0  0  0  0  0  0  0  0
   36.6340   31.1500   48.5540 N   0  0  0  0  0  0  0  0  0  0  0  0
   36.1180   29.9010   48.6330 C   0  0  0  0  0  0  0  0  0  0  0  0
   36.4800   29.0440   49.6240 N   0  0  0  0  0  0  0  0  0  0  0  0
   37.6650   28.7940   51.3270 H   0  0  0  0  0  0  0  0  0  0  0  0
   38.6470   31.1030   51.2200 H   0  0  0  0  0  0  0  0  0  0  0  0
   37.9220   32.6070   49.3640 H   0  0  0  0  0  0  0  0  0  0  0  0
   31.3000   27.1640   45.9210 O   0  0  0  0  0  0  0  0  0  0  0  0
   30.6850   29.1110   43.8010 Cl  0  0  0  0  0  0  0  0  0  0  0  0
   29.7320   28.6940   45.2070 C   0  0  0  0  0  0  0  0  0  0  0  0
   30.1240   27.7520   46.1320 C   0  0  0  0  0  0  0  0  0  0  0  0
   29.2690   27.4880   47.2030 C   0  0  0  0  0  0  0  0  0  0  0  0
   28.0690   28.1540   47.3260 C   0  0  0  0  0  0  0  0  0  0  0  0
   27.6670   29.1020   46.4040 C   0  0  0  0  0  0  0  0  0  0  0  0
   28.5070   29.3700   45.3380 C   0  0  0  0  0  0  0  0  0  0  0  0
   29.4860   26.7670   47.9710 H   0  0  0  0  0  0  0  0  0  0  0  0
   27.3720   27.9950   48.1280 H   0  0  0  0  0  0  0  0  0  0  0  0
   26.7250   29.6520   46.4650 H   0  0  0  0  0  0  0  0  0  0  0  0
   29.6310   32.2130   44.7250 O   0  0  0  0  0  0  0  0  0  0  0  0
   28.4440   31.7560   44.7380 C   0  0  0  0  0  0  0  0  0  0  0  0
   28.0930   30.3820   44.3400 C   0  0  2  0  0  3  0  0  0  0  0  0
   26.6020   30.4510   44.1510 C   0  0  0  0  0  3  0  0  0  0  0  0
   26.0410   29.8990   44.9370 H   0  0  0  0  0  0  0  0  0  0  0  0
   26.1860   31.9040   44.2770 C   0  0  0  0  0  3  0  0  0  0  0  0
   26.1380   32.4270   43.3020 H   0  0  0  0  0  0  0  0  0  0  0  0
   27.2370   32.4360   45.1270 N   0  0  0  0  0  0  0  0  0  0  0  0
   27.2300   33.1670   45.8960 H   0  0  0  0  0  0  0  0  0  0  0  0
  1  6  1  1  0  0  0
  1  2  1  0  0  0  0
  2  7  1  1  0  0  0
  3  2  1  0  0  0  0
  4  9  1  0  0  0  0
  4  3  1  0  0  0  0
  5 10  1  6  0  0  0
  5  4  1  0  0  0  0
  5  1  1  0  0  0  0
  8  4  1  0  0  0  0
 11  1  1  0  0  0  0
 12 11  1  0  0  0  0
 13  2  1  0  0  0  0
 13 18  1  0  0  0  0
 14 20  1  0  0  0  0
 15 14  1  0  0  0  0
 15 21  1  0  0  0  0
 16 15  2  0  0  0  0
 17 18  2  0  0  0  0
 17 16  1  0  0  0  0
 18 19  1  0  0  0  0
 19 14  2  0  0  0  0
 22 16  1  0  0  0  0
 23 26  1  0  0  0  0
 23  5  1  0  0  0  0
 24 25  1  0  0  0  0
 25 30  2  0  0  0  0
 25 26  1  0  0  0  0
 26 27  2  0  0  0  0
 27 28  1  0  0  0  0
 27 31  1  0  0  0  0
 28 32  1  0  0  0  0
 29 33  1  0  0  0  0
 29 28  2  0  0  0  0
 30 29  1  0  0  0  0
 34 35  2  0  0  0  0
 35 41  1  0  0  0  0
 36 35  1  0  0  0  0
 36 30  1  1  0  0  0
 37 39  1  0  0  0  0
 37 36  1  0  0  0  0
 37 38  1  0  0  0  0
 39 41  1  0  0  0  0
 40 39  1  0  0  0  0
 41 42  1  0  0  0  0
M  END
>  <minimizedAffinity>
-5.06608343

>  <minimizedRMSD>
1.03523874

$$$$
