
 OpenBabel03272506543D

 44 47  0  0  1  0  0  0  0  0999 V2000
   38.9830   25.7290   35.4780 C   0  0  1  0  0  0  0  0  0  0  0  0
   38.4280   26.9110   36.0870 C   0  0  0  0  0  0  0  0  0  0  0  0
   37.6750   27.8490   35.1710 C   0  0  0  0  0  0  0  0  0  0  0  0
   36.8050   27.2550   34.1830 C   0  0  2  0  0  0  0  0  0  0  0  0
   37.3550   25.9830   33.5220 C   0  0  0  0  0  0  0  0  0  0  0  0
   37.9780   25.0780   34.5420 C   0  0  0  0  0  0  0  0  0  0  0  0
   39.0910   24.9240   36.2740 H   0  0  0  0  0  0  0  0  0  0  0  0
   39.1100   27.5440   36.6610 H   0  0  0  0  0  0  0  0  0  0  0  0
   37.6580   26.5900   36.8450 H   0  0  0  0  0  0  0  0  0  0  0  0
   38.5510   28.2970   34.5850 H   0  0  0  0  0  0  0  0  0  0  0  0
   37.1670   28.6010   35.7920 H   0  0  0  0  0  0  0  0  0  0  0  0
   35.8250   26.8820   34.5420 H   0  0  0  0  0  0  0  0  0  0  0  0
   36.7270   25.3810   32.9530 H   0  0  0  0  0  0  0  0  0  0  0  0
   38.2010   26.3430   32.8660 H   0  0  0  0  0  0  0  0  0  0  0  0
   37.1800   24.5910   35.1470 H   0  0  0  0  0  0  0  0  0  0  0  0
   38.5090   24.2710   33.9990 H   0  0  0  0  0  0  0  0  0  0  0  0
   36.6340   28.2220   33.0750 C   0  0  0  0  0  0  0  0  0  0  0  0
   37.4320   28.0690   31.9220 C   0  0  0  0  0  0  0  0  0  0  0  0
   37.3220   28.9380   30.8530 C   0  0  0  0  0  0  0  0  0  0  0  0
   36.4300   29.9360   30.9370 C   0  0  0  0  0  0  0  0  0  0  0  0
   35.6390   30.1190   32.0490 C   0  0  0  0  0  0  0  0  0  0  0  0
   35.7510   29.2520   33.1260 C   0  0  0  0  0  0  0  0  0  0  0  0
   38.2030   27.3420   31.7020 H   0  0  0  0  0  0  0  0  0  0  0  0
   37.8940   28.8850   29.9440 H   0  0  0  0  0  0  0  0  0  0  0  0
   36.3010   30.6540   30.1030 H   0  0  0  0  0  0  0  0  0  0  0  0
   34.9320   30.9660   32.0240 H   0  0  0  0  0  0  0  0  0  0  0  0
   33.0040   28.9970   33.0970 O   0  0  0  0  0  0  0  0  0  0  0  0
   33.5590   29.7710   33.9480 C   0  0  0  0  0  0  0  0  0  0  0  0
   34.9640   29.6590   34.2930 C   0  0  2  0  0  3  0  0  0  0  0  0
   35.2990   31.1450   34.6500 C   0  0  0  0  0  3  0  0  0  0  0  0
   35.9830   31.2100   35.5010 H   0  0  0  0  0  0  0  0  0  0  0  0
   33.9920   31.7740   34.9560 C   0  0  0  0  0  3  0  0  0  0  0  0
   33.9020   32.1320   36.0010 H   0  0  0  0  0  0  0  0  0  0  0  0
   32.9610   30.8090   34.6660 N   0  0  0  0  0  0  0  0  0  0  0  0
   31.9680   30.8880   34.9450 H   0  0  0  0  0  0  0  0  0  0  0  0
   40.8310   26.9620   34.3360 C   0  0  0  0  0  0  0  0  0  0  0  0
   40.3330   25.7970   34.9030 C   0  0  0  0  0  0  0  0  0  0  0  0
   41.1640   24.6730   34.9090 C   0  0  0  0  0  0  0  0  0  0  0  0
   42.4140   24.7790   34.3620 N   0  0  0  0  0  0  0  0  0  0  0  0
   42.8620   25.9340   33.8180 C   0  0  0  0  0  0  0  0  0  0  0  0
   42.0580   27.0350   33.8080 N   0  0  0  0  0  0  0  0  0  0  0  0
   40.3590   27.9030   34.2590 H   0  0  0  0  0  0  0  0  0  0  0  0
   40.8450   23.7360   35.3310 H   0  0  0  0  0  0  0  0  0  0  0  0
   43.8610   25.8590   33.4310 H   0  0  0  0  0  0  0  0  0  0  0  0
  1  2  1  0  0  0  0
  1  7  1  1  0  0  0
  2  8  1  0  0  0  0
  2  9  1  0  0  0  0
  3 11  1  0  0  0  0
  3  2  1  0  0  0  0
  4 12  1  1  0  0  0
  4  3  1  0  0  0  0
  5  4  1  0  0  0  0
  5  6  1  0  0  0  0
  6 15  1  0  0  0  0
  6  1  1  0  0  0  0
 10  3  1  0  0  0  0
 13  5  1  0  0  0  0
 14  5  1  0  0  0  0
 16  6  1  0  0  0  0
 17 22  1  0  0  0  0
 17  4  1  0  0  0  0
 18 17  2  0  0  0  0
 19 20  2  0  0  0  0
 19 18  1  0  0  0  0
 20 21  1  0  0  0  0
 21 22  2  0  0  0  0
 23 18  1  0  0  0  0
 24 19  1  0  0  0  0
 25 20  1  0  0  0  0
 26 21  1  0  0  0  0
 27 28  2  0  0  0  0
 28 29  1  0  0  0  0
 28 34  1  0  0  0  0
 29 22  1  6  0  0  0
 29 30  1  0  0  0  0
 30 32  1  0  0  0  0
 30 31  1  0  0  0  0
 32 33  1  0  0  0  0
 34 35  1  0  0  0  0
 34 32  1  0  0  0  0
 36 37  1  0  0  0  0
 37 38  2  0  0  0  0
 37  1  1  0  0  0  0
 38 43  1  0  0  0  0
 39 38  1  0  0  0  0
 40 39  2  0  0  0  0
 41 40  1  0  0  0  0
 41 36  2  0  0  0  0
 42 36  1  0  0  0  0
 44 40  1  0  0  0  0
M  END
>  <minimizedAffinity>
-5.88311481

$$$$

 OpenBabel03272506543D

 44 47  0  0  1  0  0  0  0  0999 V2000
   35.1940   31.1560   32.8000 C   0  0  1  0  0  0  0  0  0  0  0  0
   35.8130   30.4580   31.7010 C   0  0  0  0  0  0  0  0  0  0  0  0
   36.6260   29.2340   32.0550 C   0  0  0  0  0  0  0  0  0  0  0  0
   36.0880   28.3490   33.0610 C   0  0  2  0  0  0  0  0  0  0  0  0
   35.4050   29.0550   34.2410 C   0  0  0  0  0  0  0  0  0  0  0  0
   34.5380   30.1800   33.7620 C   0  0  0  0  0  0  0  0  0  0  0  0
   34.2860   31.7190   32.4100 H   0  0  0  0  0  0  0  0  0  0  0  0
   36.4430   31.0460   31.0290 H   0  0  0  0  0  0  0  0  0  0  0  0
   34.9980   30.0630   31.0290 H   0  0  0  0  0  0  0  0  0  0  0  0
   37.5360   29.7340   32.5360 H   0  0  0  0  0  0  0  0  0  0  0  0
   36.8860   28.7140   31.1220 H   0  0  0  0  0  0  0  0  0  0  0  0
   35.2740   27.6680   32.7430 H   0  0  0  0  0  0  0  0  0  0  0  0
   34.8210   28.5080   34.9060 H   0  0  0  0  0  0  0  0  0  0  0  0
   36.2500   29.5360   34.8170 H   0  0  0  0  0  0  0  0  0  0  0  0
   33.6180   29.7670   33.2900 H   0  0  0  0  0  0  0  0  0  0  0  0
   34.2150   30.7590   34.6490 H   0  0  0  0  0  0  0  0  0  0  0  0
   37.2110   27.5930   33.6620 C   0  0  0  0  0  0  0  0  0  0  0  0
   37.5540   27.8550   35.0050 C   0  0  0  0  0  0  0  0  0  0  0  0
   38.5920   27.1840   35.6240 C   0  0  0  0  0  0  0  0  0  0  0  0
   39.2690   26.2700   34.9130 C   0  0  0  0  0  0  0  0  0  0  0  0
   38.9650   25.9930   33.6000 C   0  0  0  0  0  0  0  0  0  0  0  0
   37.9280   26.6680   32.9730 C   0  0  0  0  0  0  0  0  0  0  0  0
   37.1310   28.5640   35.7040 H   0  0  0  0  0  0  0  0  0  0  0  0
   38.9110   27.3300   36.6400 H   0  0  0  0  0  0  0  0  0  0  0  0
   40.1040   25.7030   35.3680 H   0  0  0  0  0  0  0  0  0  0  0  0
   39.5760   25.2220   33.0980 H   0  0  0  0  0  0  0  0  0  0  0  0
   36.1640   24.7470   32.0730 O   0  0  0  0  0  0  0  0  0  0  0  0
   37.1180   25.1340   31.3170 C   0  0  0  0  0  0  0  0  0  0  0  0
   37.8210   26.3840   31.5400 C   0  0  2  0  0  3  0  0  0  0  0  0
   39.2370   26.0300   30.9760 C   0  0  0  0  0  3  0  0  0  0  0  0
   39.6790   26.8750   30.4400 H   0  0  0  0  0  0  0  0  0  0  0  0
   39.0170   24.8720   30.0760 C   0  0  0  0  0  3  0  0  0  0  0  0
   39.2640   25.0770   29.0150 H   0  0  0  0  0  0  0  0  0  0  0  0
   37.6380   24.4730   30.2020 N   0  0  0  0  0  0  0  0  0  0  0  0
   37.1420   23.8170   29.5730 H   0  0  0  0  0  0  0  0  0  0  0  0
   35.9140   32.3590   34.8680 C   0  0  0  0  0  0  0  0  0  0  0  0
   35.9540   32.2070   33.4880 C   0  0  0  0  0  0  0  0  0  0  0  0
   36.7490   33.0990   32.7630 C   0  0  0  0  0  0  0  0  0  0  0  0
   37.4400   34.0650   33.4420 N   0  0  0  0  0  0  0  0  0  0  0  0
   37.3730   34.1790   34.7890 C   0  0  0  0  0  0  0  0  0  0  0  0
   36.6000   33.3130   35.5050 N   0  0  0  0  0  0  0  0  0  0  0  0
   35.3890   31.7740   35.5730 H   0  0  0  0  0  0  0  0  0  0  0  0
   36.8280   33.0420   31.6910 H   0  0  0  0  0  0  0  0  0  0  0  0
   37.9700   34.9840   35.1740 H   0  0  0  0  0  0  0  0  0  0  0  0
  1  7  1  6  0  0  0
  1 37  1  0  0  0  0
  1  6  1  0  0  0  0
  2  3  1  0  0  0  0
  2  1  1  0  0  0  0
  3 10  1  0  0  0  0
  3  4  1  0  0  0  0
  4 12  1  6  0  0  0
  4 17  1  0  0  0  0
  4  5  1  0  0  0  0
  5 14  1  0  0  0  0
  5 13  1  0  0  0  0
  6  5  1  0  0  0  0
  6 16  1  0  0  0  0
  8  2  1  0  0  0  0
  9  2  1  0  0  0  0
 11  3  1  0  0  0  0
 15  6  1  0  0  0  0
 17 18  1  0  0  0  0
 18 19  2  0  0  0  0
 18 23  1  0  0  0  0
 19 24  1  0  0  0  0
 20 25  1  0  0  0  0
 20 19  1  0  0  0  0
 21 20  2  0  0  0  0
 22 21  1  0  0  0  0
 22 17  2  0  0  0  0
 26 21  1  0  0  0  0
 28 29  1  0  0  0  0
 28 27  2  0  0  0  0
 29 22  1  1  0  0  0
 30 29  1  0  0  0  0
 31 30  1  0  0  0  0
 32 34  1  0  0  0  0
 32 30  1  0  0  0  0
 33 32  1  0  0  0  0
 34 28  1  0  0  0  0
 35 34  1  0  0  0  0
 36 41  1  0  0  0  0
 36 42  1  0  0  0  0
 37 36  2  0  0  0  0
 38 39  2  0  0  0  0
 38 37  1  0  0  0  0
 39 40  1  0  0  0  0
 40 44  1  0  0  0  0
 40 41  2  0  0  0  0
 43 38  1  0  0  0  0
M  END
>  <minimizedAffinity>
-5.74208784

$$$$

 OpenBabel03272506543D

 44 47  0  0  1  0  0  0  0  0999 V2000
   35.7550   27.8920   31.7370 C   0  0  1  0  0  0  0  0  0  0  0  0
   36.0430   26.4920   31.5450 C   0  0  0  0  0  0  0  0  0  0  0  0
   37.2580   25.9520   32.2660 C   0  0  0  0  0  0  0  0  0  0  0  0
   37.4780   26.3990   33.6210 C   0  0  2  0  0  0  0  0  0  0  0  0
   37.1650   27.8810   33.8700 C   0  0  0  0  0  0  0  0  0  0  0  0
   35.8830   28.2770   33.2010 C   0  0  0  0  0  0  0  0  0  0  0  0
   34.6440   28.0620   31.5640 H   0  0  0  0  0  0  0  0  0  0  0  0
   36.1300   26.1380   30.5160 H   0  0  0  0  0  0  0  0  0  0  0  0
   35.1850   25.8940   31.9650 H   0  0  0  0  0  0  0  0  0  0  0  0
   38.0870   26.4330   31.6410 H   0  0  0  0  0  0  0  0  0  0  0  0
   37.2530   24.8570   32.1720 H   0  0  0  0  0  0  0  0  0  0  0  0
   36.8520   25.9320   34.4080 H   0  0  0  0  0  0  0  0  0  0  0  0
   37.1020   28.2430   34.8430 H   0  0  0  0  0  0  0  0  0  0  0  0
   37.9840   28.4420   33.3300 H   0  0  0  0  0  0  0  0  0  0  0  0
   35.0220   27.8520   33.7660 H   0  0  0  0  0  0  0  0  0  0  0  0
   35.7960   29.3790   33.2610 H   0  0  0  0  0  0  0  0  0  0  0  0
   38.9190   26.2520   33.9300 C   0  0  0  0  0  0  0  0  0  0  0  0
   39.8120   27.2310   33.4470 C   0  0  0  0  0  0  0  0  0  0  0  0
   41.1680   27.1520   33.6990 C   0  0  0  0  0  0  0  0  0  0  0  0
   41.6190   26.1150   34.4210 C   0  0  0  0  0  0  0  0  0  0  0  0
   40.7770   25.1390   34.9030 C   0  0  0  0  0  0  0  0  0  0  0  0
   39.4160   25.2120   34.6480 C   0  0  0  0  0  0  0  0  0  0  0  0
   39.6200   28.1070   32.8400 H   0  0  0  0  0  0  0  0  0  0  0  0
   41.9070   27.8570   33.3640 H   0  0  0  0  0  0  0  0  0  0  0  0
   42.6970   26.0120   34.6540 H   0  0  0  0  0  0  0  0  0  0  0  0
   41.2400   24.3270   35.4900 H   0  0  0  0  0  0  0  0  0  0  0  0
   38.1340   25.2170   37.0910 O   0  0  0  0  0  0  0  0  0  0  0  0
   38.3790   24.1080   36.5060 C   0  0  0  0  0  0  0  0  0  0  0  0
   38.6700   24.0300   35.0860 C   0  0  2  0  0  3  0  0  0  0  0  0
   39.6110   22.7800   35.0460 C   0  0  0  0  0  3  0  0  0  0  0  0
   39.4230   22.1630   34.1630 H   0  0  0  0  0  0  0  0  0  0  0  0
   39.3220   22.0380   36.2970 C   0  0  0  0  0  3  0  0  0  0  0  0
   38.9020   21.0260   36.1290 H   0  0  0  0  0  0  0  0  0  0  0  0
   38.4140   22.8360   37.0820 N   0  0  0  0  0  0  0  0  0  0  0  0
   37.8930   22.5090   37.9150 H   0  0  0  0  0  0  0  0  0  0  0  0
   37.0210   28.4890   29.6690 C   0  0  0  0  0  0  0  0  0  0  0  0
   36.3750   28.8720   30.8360 C   0  0  0  0  0  0  0  0  0  0  0  0
   36.3330   30.2360   31.1350 C   0  0  0  0  0  0  0  0  0  0  0  0
   36.9250   31.1160   30.2690 N   0  0  0  0  0  0  0  0  0  0  0  0
   37.5450   30.7010   29.1410 C   0  0  0  0  0  0  0  0  0  0  0  0
   37.5910   29.3720   28.8410 N   0  0  0  0  0  0  0  0  0  0  0  0
   37.1360   27.5160   29.2750 H   0  0  0  0  0  0  0  0  0  0  0  0
   35.8490   30.6060   32.0230 H   0  0  0  0  0  0  0  0  0  0  0  0
   37.9590   31.5090   28.5660 H   0  0  0  0  0  0  0  0  0  0  0  0
  1  7  1  6  0  0  0
  1  6  1  0  0  0  0
  2  1  1  0  0  0  0
  2  9  1  0  0  0  0
  2  3  1  0  0  0  0
  3  4  1  0  0  0  0
  4  5  1  0  0  0  0
  4 17  1  0  0  0  0
  4 12  1  1  0  0  0
  5 13  1  0  0  0  0
  6 16  1  0  0  0  0
  6 15  1  0  0  0  0
  6  5  1  0  0  0  0
  8  2  1  0  0  0  0
 10  3  1  0  0  0  0
 11  3  1  0  0  0  0
 14  5  1  0  0  0  0
 17 22  1  0  0  0  0
 18 19  1  0  0  0  0
 18 17  2  0  0  0  0
 19 20  2  0  0  0  0
 20 25  1  0  0  0  0
 20 21  1  0  0  0  0
 21 26  1  0  0  0  0
 22 21  2  0  0  0  0
 23 18  1  0  0  0  0
 24 19  1  0  0  0  0
 28 34  1  0  0  0  0
 28 27  2  0  0  0  0
 29 22  1  1  0  0  0
 29 28  1  0  0  0  0
 30 29  1  0  0  0  0
 30 32  1  0  0  0  0
 31 30  1  0  0  0  0
 32 34  1  0  0  0  0
 33 32  1  0  0  0  0
 34 35  1  0  0  0  0
 36 37  1  0  0  0  0
 37 38  2  0  0  0  0
 37  1  1  0  0  0  0
 38 43  1  0  0  0  0
 39 38  1  0  0  0  0
 40 39  2  0  0  0  0
 41 40  1  0  0  0  0
 41 36  2  0  0  0  0
 42 36  1  0  0  0  0
 44 40  1  0  0  0  0
M  END
>  <minimizedAffinity>
-5.67180252

$$$$

 OpenBabel03272506543D

 44 47  0  0  1  0  0  0  0  0999 V2000
   38.3520   27.0130   32.3170 C   0  0  1  0  0  0  0  0  0  0  0  0
   39.5890   27.2060   33.0320 C   0  0  0  0  0  0  0  0  0  0  0  0
   39.8250   26.3020   34.2210 C   0  0  0  0  0  0  0  0  0  0  0  0
   39.4580   24.9130   34.0810 C   0  0  2  0  0  0  0  0  0  0  0  0
   38.1540   24.6650   33.3110 C   0  0  0  0  0  0  0  0  0  0  0  0
   38.0800   25.5350   32.0920 C   0  0  0  0  0  0  0  0  0  0  0  0
   38.4890   27.3740   31.2480 H   0  0  0  0  0  0  0  0  0  0  0  0
   39.8100   28.2170   33.3810 H   0  0  0  0  0  0  0  0  0  0  0  0
   40.4420   26.9700   32.3330 H   0  0  0  0  0  0  0  0  0  0  0  0
   39.0750   26.7500   34.9600 H   0  0  0  0  0  0  0  0  0  0  0  0
   40.8640   26.4390   34.5540 H   0  0  0  0  0  0  0  0  0  0  0  0
   40.1520   24.2690   33.5050 H   0  0  0  0  0  0  0  0  0  0  0  0
   37.9140   23.7050   32.9910 H   0  0  0  0  0  0  0  0  0  0  0  0
   37.3380   25.0280   34.0030 H   0  0  0  0  0  0  0  0  0  0  0  0
   38.7800   25.1500   31.3160 H   0  0  0  0  0  0  0  0  0  0  0  0
   37.0570   25.4480   31.6760 H   0  0  0  0  0  0  0  0  0  0  0  0
   39.2180   24.3590   35.4340 C   0  0  0  0  0  0  0  0  0  0  0  0
   38.0560   24.7590   36.1260 C   0  0  0  0  0  0  0  0  0  0  0  0
   37.7730   24.2790   37.3910 C   0  0  0  0  0  0  0  0  0  0  0  0
   38.6360   23.4170   37.9490 C   0  0  0  0  0  0  0  0  0  0  0  0
   39.7820   23.0090   37.3050 C   0  0  0  0  0  0  0  0  0  0  0  0
   40.0720   23.4930   36.0370 C   0  0  0  0  0  0  0  0  0  0  0  0
   37.2780   25.4520   35.8340 H   0  0  0  0  0  0  0  0  0  0  0  0
   36.9110   24.5380   37.9780 H   0  0  0  0  0  0  0  0  0  0  0  0
   38.4490   23.0010   38.9580 H   0  0  0  0  0  0  0  0  0  0  0  0
   40.4290   22.2950   37.8420 H   0  0  0  0  0  0  0  0  0  0  0  0
   40.2950   21.5410   34.1000 O   0  0  0  0  0  0  0  0  0  0  0  0
   41.3110   21.8470   34.8100 C   0  0  0  0  0  0  0  0  0  0  0  0
   41.3930   23.0970   35.5440 C   0  0  2  0  0  3  0  0  0  0  0  0
   42.2910   22.6710   36.7530 C   0  0  0  0  0  3  0  0  0  0  0  0
   42.9950   23.4610   37.0290 H   0  0  0  0  0  0  0  0  0  0  0  0
   42.9980   21.4490   36.2990 C   0  0  0  0  0  3  0  0  0  0  0  0
   44.0990   21.5640   36.2460 H   0  0  0  0  0  0  0  0  0  0  0  0
   42.4680   21.0890   35.0080 N   0  0  0  0  0  0  0  0  0  0  0  0
   42.8810   20.3950   34.3610 H   0  0  0  0  0  0  0  0  0  0  0  0
   36.9030   27.9980   34.0970 C   0  0  0  0  0  0  0  0  0  0  0  0
   37.1590   27.7490   32.7560 C   0  0  0  0  0  0  0  0  0  0  0  0
   36.2350   28.2250   31.8210 C   0  0  0  0  0  0  0  0  0  0  0  0
   35.1370   28.9050   32.2720 N   0  0  0  0  0  0  0  0  0  0  0  0
   34.9240   29.1260   33.5900 C   0  0  0  0  0  0  0  0  0  0  0  0
   35.8200   28.6660   34.5090 N   0  0  0  0  0  0  0  0  0  0  0  0
   37.4910   27.7340   34.9340 H   0  0  0  0  0  0  0  0  0  0  0  0
   36.3690   28.0690   30.7640 H   0  0  0  0  0  0  0  0  0  0  0  0
   34.0200   29.6730   33.7850 H   0  0  0  0  0  0  0  0  0  0  0  0
  1  7  1  6  0  0  0
  1 37  1  0  0  0  0
  1  2  1  0  0  0  0
  2  8  1  0  0  0  0
  2  3  1  0  0  0  0
  3 11  1  0  0  0  0
  3 10  1  0  0  0  0
  4 12  1  6  0  0  0
  4  3  1  0  0  0  0
  4 17  1  0  0  0  0
  5 14  1  0  0  0  0
  5  4  1  0  0  0  0
  6  1  1  0  0  0  0
  6  5  1  0  0  0  0
  9  2  1  0  0  0  0
 13  5  1  0  0  0  0
 15  6  1  0  0  0  0
 16  6  1  0  0  0  0
 17 22  2  0  0  0  0
 17 18  1  0  0  0  0
 18 19  2  0  0  0  0
 19 20  1  0  0  0  0
 19 24  1  0  0  0  0
 20 25  1  0  0  0  0
 21 26  1  0  0  0  0
 21 20  2  0  0  0  0
 22 21  1  0  0  0  0
 23 18  1  0  0  0  0
 27 28  2  0  0  0  0
 28 34  1  0  0  0  0
 28 29  1  0  0  0  0
 29 22  1  1  0  0  0
 29 30  1  0  0  0  0
 30 31  1  0  0  0  0
 32 30  1  0  0  0  0
 33 32  1  0  0  0  0
 34 32  1  0  0  0  0
 35 34  1  0  0  0  0
 36 41  1  0  0  0  0
 36 42  1  0  0  0  0
 37 36  2  0  0  0  0
 38 39  2  0  0  0  0
 38 37  1  0  0  0  0
 39 40  1  0  0  0  0
 40 44  1  0  0  0  0
 40 41  2  0  0  0  0
 43 38  1  0  0  0  0
M  END
>  <minimizedAffinity>
-5.57816029

$$$$

 OpenBabel03272506543D

 44 47  0  0  1  0  0  0  0  0999 V2000
   37.9490   25.0800   35.4540 C   0  0  1  0  0  0  0  0  0  0  0  0
   38.0830   26.5060   35.6200 C   0  0  0  0  0  0  0  0  0  0  0  0
   39.0450   27.2040   34.6850 C   0  0  0  0  0  0  0  0  0  0  0  0
   39.0440   26.7880   33.3020 C   0  0  2  0  0  0  0  0  0  0  0  0
   38.8860   25.2770   33.0830 C   0  0  0  0  0  0  0  0  0  0  0  0
   37.8290   24.7140   33.9850 C   0  0  0  0  0  0  0  0  0  0  0  0
   36.9290   24.7620   35.8420 H   0  0  0  0  0  0  0  0  0  0  0  0
   38.3280   26.8710   36.6200 H   0  0  0  0  0  0  0  0  0  0  0  0
   37.0870   26.9830   35.3960 H   0  0  0  0  0  0  0  0  0  0  0  0
   40.0400   26.8400   35.1180 H   0  0  0  0  0  0  0  0  0  0  0  0
   38.9150   28.2880   34.8060 H   0  0  0  0  0  0  0  0  0  0  0  0
   38.2160   27.1650   32.6680 H   0  0  0  0  0  0  0  0  0  0  0  0
   38.6770   24.9080   32.1330 H   0  0  0  0  0  0  0  0  0  0  0  0
   39.8640   24.8320   33.4340 H   0  0  0  0  0  0  0  0  0  0  0  0
   36.8230   25.0180   33.6150 H   0  0  0  0  0  0  0  0  0  0  0  0
   37.8790   23.6100   33.9160 H   0  0  0  0  0  0  0  0  0  0  0  0
   40.3610   27.1270   32.7150 C   0  0  0  0  0  0  0  0  0  0  0  0
   41.4910   27.1260   33.5580 C   0  0  0  0  0  0  0  0  0  0  0  0
   42.7480   27.4340   33.0740 C   0  0  0  0  0  0  0  0  0  0  0  0
   42.8690   27.7340   31.7720 C   0  0  0  0  0  0  0  0  0  0  0  0
   41.7870   27.7500   30.9210 C   0  0  0  0  0  0  0  0  0  0  0  0
   40.5230   27.4470   31.4050 C   0  0  0  0  0  0  0  0  0  0  0  0
   41.5650   26.9310   34.6210 H   0  0  0  0  0  0  0  0  0  0  0  0
   43.6530   27.4550   33.6540 H   0  0  0  0  0  0  0  0  0  0  0  0
   43.8570   27.9820   31.3360 H   0  0  0  0  0  0  0  0  0  0  0  0
   41.9860   28.0060   29.8660 H   0  0  0  0  0  0  0  0  0  0  0  0
   39.7450   25.3830   29.7480 O   0  0  0  0  0  0  0  0  0  0  0  0
   39.4410   26.5860   29.4470 C   0  0  0  0  0  0  0  0  0  0  0  0
   39.4520   27.6550   30.4280 C   0  0  2  0  0  3  0  0  0  0  0  0
   39.8090   28.8810   29.5230 C   0  0  0  0  0  3  0  0  0  0  0  0
   39.2580   29.7770   29.8240 H   0  0  0  0  0  0  0  0  0  0  0  0
   39.4520   28.4630   28.1460 C   0  0  0  0  0  3  0  0  0  0  0  0
   38.6480   29.0730   27.6880 H   0  0  0  0  0  0  0  0  0  0  0  0
   39.0640   27.0760   28.1940 N   0  0  0  0  0  0  0  0  0  0  0  0
   38.5940   26.5560   27.4320 H   0  0  0  0  0  0  0  0  0  0  0  0
   40.0530   23.7460   35.6320 C   0  0  0  0  0  0  0  0  0  0  0  0
   38.8630   24.1940   36.1880 C   0  0  0  0  0  0  0  0  0  0  0  0
   38.5530   23.7700   37.4830 C   0  0  0  0  0  0  0  0  0  0  0  0
   39.4300   22.9440   38.1310 N   0  0  0  0  0  0  0  0  0  0  0  0
   40.5810   22.5290   37.5530 C   0  0  0  0  0  0  0  0  0  0  0  0
   40.8920   22.9380   36.2900 N   0  0  0  0  0  0  0  0  0  0  0  0
   40.4580   23.9740   34.6840 H   0  0  0  0  0  0  0  0  0  0  0  0
   37.6470   24.0780   37.9760 H   0  0  0  0  0  0  0  0  0  0  0  0
   41.1630   21.8860   38.1860 H   0  0  0  0  0  0  0  0  0  0  0  0
  1  2  1  0  0  0  0
  1  7  1  1  0  0  0
  1 37  1  0  0  0  0
  2  8  1  0  0  0  0
  3 11  1  0  0  0  0
  3 10  1  0  0  0  0
  3  2  1  0  0  0  0
  4 12  1  6  0  0  0
  4  3  1  0  0  0  0
  5  4  1  0  0  0  0
  5 14  1  0  0  0  0
  5  6  1  0  0  0  0
  6  1  1  0  0  0  0
  9  2  1  0  0  0  0
 13  5  1  0  0  0  0
 15  6  1  0  0  0  0
 16  6  1  0  0  0  0
 17  4  1  0  0  0  0
 17 18  1  0  0  0  0
 18 23  1  0  0  0  0
 19 18  2  0  0  0  0
 19 24  1  0  0  0  0
 20 19  1  0  0  0  0
 21 22  1  0  0  0  0
 21 20  2  0  0  0  0
 22 17  2  0  0  0  0
 25 20  1  0  0  0  0
 26 21  1  0  0  0  0
 28 27  2  0  0  0  0
 28 29  1  0  0  0  0
 29 22  1  1  0  0  0
 30 31  1  0  0  0  0
 30 29  1  0  0  0  0
 32 34  1  0  0  0  0
 32 30  1  0  0  0  0
 33 32  1  0  0  0  0
 34 28  1  0  0  0  0
 35 34  1  0  0  0  0
 36 37  2  0  0  0  0
 36 41  1  0  0  0  0
 37 38  1  0  0  0  0
 38 43  1  0  0  0  0
 38 39  2  0  0  0  0
 40 39  1  0  0  0  0
 40 44  1  0  0  0  0
 41 40  2  0  0  0  0
 42 36  1  0  0  0  0
M  END
>  <minimizedAffinity>
-5.56448221

$$$$

 OpenBabel03272506543D

 44 47  0  0  1  0  0  0  0  0999 V2000
   39.8850   24.8730   35.3160 C   0  0  1  0  0  0  0  0  0  0  0  0
   40.3630   26.1650   34.8910 C   0  0  0  0  0  0  0  0  0  0  0  0
   39.3260   27.1150   34.3350 C   0  0  0  0  0  0  0  0  0  0  0  0
   38.0500   27.1710   35.0090 C   0  0  2  0  0  0  0  0  0  0  0  0
   37.5150   25.8160   35.4910 C   0  0  0  0  0  0  0  0  0  0  0  0
   38.6060   25.0060   36.1250 C   0  0  0  0  0  0  0  0  0  0  0  0
   40.5970   24.4610   36.1010 H   0  0  0  0  0  0  0  0  0  0  0  0
   41.1900   26.1810   34.1770 H   0  0  0  0  0  0  0  0  0  0  0  0
   40.7750   26.7030   35.7920 H   0  0  0  0  0  0  0  0  0  0  0  0
   39.1230   26.6150   33.3260 H   0  0  0  0  0  0  0  0  0  0  0  0
   39.7940   28.1030   34.2190 H   0  0  0  0  0  0  0  0  0  0  0  0
   38.0120   27.7460   35.9560 H   0  0  0  0  0  0  0  0  0  0  0  0
   36.7130   25.7800   36.1530 H   0  0  0  0  0  0  0  0  0  0  0  0
   37.2280   25.2670   34.5460 H   0  0  0  0  0  0  0  0  0  0  0  0
   38.8510   25.4280   37.1260 H   0  0  0  0  0  0  0  0  0  0  0  0
   38.2150   23.9830   36.2920 H   0  0  0  0  0  0  0  0  0  0  0  0
   37.0390   27.6640   34.0450 C   0  0  0  0  0  0  0  0  0  0  0  0
   36.2550   28.7790   34.4070 C   0  0  0  0  0  0  0  0  0  0  0  0
   35.2940   29.2880   33.5540 C   0  0  0  0  0  0  0  0  0  0  0  0
   35.1250   28.6930   32.3630 C   0  0  0  0  0  0  0  0  0  0  0  0
   35.8680   27.6000   31.9800 C   0  0  0  0  0  0  0  0  0  0  0  0
   36.8300   27.0830   32.8360 C   0  0  0  0  0  0  0  0  0  0  0  0
   36.2490   29.3560   35.3230 H   0  0  0  0  0  0  0  0  0  0  0  0
   34.6600   30.1310   33.7600 H   0  0  0  0  0  0  0  0  0  0  0  0
   34.3710   29.0680   31.6440 H   0  0  0  0  0  0  0  0  0  0  0  0
   35.6600   27.1810   30.9800 H   0  0  0  0  0  0  0  0  0  0  0  0
   38.6350   27.1220   30.7500 O   0  0  0  0  0  0  0  0  0  0  0  0
   38.0590   26.0270   31.0690 C   0  0  0  0  0  0  0  0  0  0  0  0
   37.4300   25.8330   32.3620 C   0  0  2  0  0  3  0  0  0  0  0  0
   36.2940   24.8240   31.9890 C   0  0  0  0  0  3  0  0  0  0  0  0
   36.1500   24.0730   32.7710 H   0  0  0  0  0  0  0  0  0  0  0  0
   36.7310   24.2030   30.7150 C   0  0  0  0  0  3  0  0  0  0  0  0
   36.9070   23.1110   30.7880 H   0  0  0  0  0  0  0  0  0  0  0  0
   37.9300   24.8770   30.2860 N   0  0  0  0  0  0  0  0  0  0  0  0
   38.5660   24.5550   29.5350 H   0  0  0  0  0  0  0  0  0  0  0  0
   40.4660   23.8660   33.1040 C   0  0  0  0  0  0  0  0  0  0  0  0
   39.8240   23.7830   34.3320 C   0  0  0  0  0  0  0  0  0  0  0  0
   39.1070   22.6160   34.6100 C   0  0  0  0  0  0  0  0  0  0  0  0
   39.0740   21.6260   33.6660 N   0  0  0  0  0  0  0  0  0  0  0  0
   39.7130   21.7470   32.4790 C   0  0  0  0  0  0  0  0  0  0  0  0
   40.4160   22.8820   32.2010 N   0  0  0  0  0  0  0  0  0  0  0  0
   41.0630   24.6540   32.7320 H   0  0  0  0  0  0  0  0  0  0  0  0
   38.5850   22.4820   35.5410 H   0  0  0  0  0  0  0  0  0  0  0  0
   39.5950   20.8870   31.8470 H   0  0  0  0  0  0  0  0  0  0  0  0
  1  7  1  1  0  0  0
  1  6  1  0  0  0  0
  2  1  1  0  0  0  0
  2  9  1  0  0  0  0
  3  2  1  0  0  0  0
  3  4  1  0  0  0  0
  4  5  1  0  0  0  0
  4 12  1  1  0  0  0
  5  6  1  0  0  0  0
  5 13  1  0  0  0  0
  6 16  1  0  0  0  0
  6 15  1  0  0  0  0
  8  2  1  0  0  0  0
 10  3  1  0  0  0  0
 11  3  1  0  0  0  0
 14  5  1  0  0  0  0
 17 18  1  0  0  0  0
 17  4  1  0  0  0  0
 18 23  1  0  0  0  0
 19 24  1  0  0  0  0
 19 18  2  0  0  0  0
 20 19  1  0  0  0  0
 21 20  2  0  0  0  0
 21 22  1  0  0  0  0
 22 17  2  0  0  0  0
 25 20  1  0  0  0  0
 26 21  1  0  0  0  0
 27 28  2  0  0  0  0
 28 29  1  0  0  0  0
 29 22  1  6  0  0  0
 30 29  1  0  0  0  0
 30 31  1  0  0  0  0
 32 33  1  0  0  0  0
 32 30  1  0  0  0  0
 34 32  1  0  0  0  0
 34 28  1  0  0  0  0
 35 34  1  0  0  0  0
 36 37  1  0  0  0  0
 37 38  2  0  0  0  0
 37  1  1  0  0  0  0
 38 43  1  0  0  0  0
 39 38  1  0  0  0  0
 40 39  2  0  0  0  0
 41 40  1  0  0  0  0
 41 36  2  0  0  0  0
 42 36  1  0  0  0  0
 44 40  1  0  0  0  0
M  END
>  <minimizedAffinity>
-5.54553509

$$$$

 OpenBabel03272506543D

 44 47  0  0  1  0  0  0  0  0999 V2000
   39.3550   23.2340   34.3800 C   0  0  1  0  0  0  0  0  0  0  0  0
   38.2260   23.1090   33.4930 C   0  0  0  0  0  0  0  0  0  0  0  0
   37.5740   24.4000   33.0510 C   0  0  0  0  0  0  0  0  0  0  0  0
   38.4450   25.5010   32.7140 C   0  0  2  0  0  0  0  0  0  0  0  0
   39.6700   25.6570   33.6270 C   0  0  0  0  0  0  0  0  0  0  0  0
   40.3000   24.3260   33.9070 C   0  0  0  0  0  0  0  0  0  0  0  0
   40.0120   22.3130   34.2660 H   0  0  0  0  0  0  0  0  0  0  0  0
   37.4070   22.4610   33.8150 H   0  0  0  0  0  0  0  0  0  0  0  0
   38.5810   22.6370   32.5330 H   0  0  0  0  0  0  0  0  0  0  0  0
   37.0540   24.7010   34.0240 H   0  0  0  0  0  0  0  0  0  0  0  0
   36.8540   24.1650   32.2540 H   0  0  0  0  0  0  0  0  0  0  0  0
   38.9430   25.4590   31.7240 H   0  0  0  0  0  0  0  0  0  0  0  0
   40.4480   26.2880   33.3490 H   0  0  0  0  0  0  0  0  0  0  0  0
   39.2500   26.0170   34.6120 H   0  0  0  0  0  0  0  0  0  0  0  0
   40.8410   23.9710   33.0010 H   0  0  0  0  0  0  0  0  0  0  0  0
   41.0590   24.4710   34.7010 H   0  0  0  0  0  0  0  0  0  0  0  0
   37.6830   26.7610   32.8740 C   0  0  0  0  0  0  0  0  0  0  0  0
   37.1130   27.0450   34.1320 C   0  0  0  0  0  0  0  0  0  0  0  0
   36.3890   28.2020   34.3470 C   0  0  0  0  0  0  0  0  0  0  0  0
   36.2420   29.0570   33.3240 C   0  0  0  0  0  0  0  0  0  0  0  0
   36.7800   28.8090   32.0810 C   0  0  0  0  0  0  0  0  0  0  0  0
   37.5020   27.6460   31.8600 C   0  0  0  0  0  0  0  0  0  0  0  0
   37.1180   26.4620   35.0450 H   0  0  0  0  0  0  0  0  0  0  0  0
   35.9260   28.4860   35.2750 H   0  0  0  0  0  0  0  0  0  0  0  0
   35.6760   30.0010   33.4490 H   0  0  0  0  0  0  0  0  0  0  0  0
   36.6090   29.5730   31.3020 H   0  0  0  0  0  0  0  0  0  0  0  0
   40.1260   27.9740   31.0740 O   0  0  0  0  0  0  0  0  0  0  0  0
   39.1960   27.9950   30.1990 C   0  0  0  0  0  0  0  0  0  0  0  0
   37.8790   27.4430   30.4590 C   0  0  2  0  0  3  0  0  0  0  0  0
   36.9920   28.3560   29.5480 C   0  0  0  0  0  3  0  0  0  0  0  0
   36.1890   27.7890   29.0700 H   0  0  0  0  0  0  0  0  0  0  0  0
   37.9250   28.9250   28.5450 C   0  0  0  0  0  3  0  0  0  0  0  0
   37.6980   28.6240   27.5030 H   0  0  0  0  0  0  0  0  0  0  0  0
   39.2600   28.5180   28.9060 N   0  0  0  0  0  0  0  0  0  0  0  0
   40.0980   28.6050   28.3040 H   0  0  0  0  0  0  0  0  0  0  0  0
   37.9410   23.7950   36.3620 C   0  0  0  0  0  0  0  0  0  0  0  0
   39.1150   23.2790   35.8290 C   0  0  0  0  0  0  0  0  0  0  0  0
   40.0760   22.8000   36.7230 C   0  0  0  0  0  0  0  0  0  0  0  0
   39.8130   22.8620   38.0650 N   0  0  0  0  0  0  0  0  0  0  0  0
   38.6560   23.3730   38.5440 C   0  0  0  0  0  0  0  0  0  0  0  0
   37.7120   23.8430   37.6790 N   0  0  0  0  0  0  0  0  0  0  0  0
   37.1050   24.1810   35.8460 H   0  0  0  0  0  0  0  0  0  0  0  0
   41.0090   22.3860   36.3820 H   0  0  0  0  0  0  0  0  0  0  0  0
   38.5980   23.3530   39.6160 H   0  0  0  0  0  0  0  0  0  0  0  0
  1  7  1  6  0  0  0
  1 37  1  0  0  0  0
  2  8  1  0  0  0  0
  2  1  1  0  0  0  0
  3  2  1  0  0  0  0
  3 10  1  0  0  0  0
  4 12  1  6  0  0  0
  4 17  1  0  0  0  0
  4  3  1  0  0  0  0
  4  5  1  0  0  0  0
  5  6  1  0  0  0  0
  5 14  1  0  0  0  0
  6  1  1  0  0  0  0
  6 16  1  0  0  0  0
  9  2  1  0  0  0  0
 11  3  1  0  0  0  0
 13  5  1  0  0  0  0
 15  6  1  0  0  0  0
 17 18  1  0  0  0  0
 18 19  2  0  0  0  0
 18 23  1  0  0  0  0
 19 24  1  0  0  0  0
 20 25  1  0  0  0  0
 20 19  1  0  0  0  0
 21 20  2  0  0  0  0
 22 21  1  0  0  0  0
 22 17  2  0  0  0  0
 26 21  1  0  0  0  0
 28 29  1  0  0  0  0
 28 27  2  0  0  0  0
 29 22  1  1  0  0  0
 30 29  1  0  0  0  0
 31 30  1  0  0  0  0
 32 34  1  0  0  0  0
 32 30  1  0  0  0  0
 33 32  1  0  0  0  0
 34 28  1  0  0  0  0
 35 34  1  0  0  0  0
 36 41  1  0  0  0  0
 37 36  2  0  0  0  0
 37 38  1  0  0  0  0
 38 39  2  0  0  0  0
 39 40  1  0  0  0  0
 40 44  1  0  0  0  0
 41 40  2  0  0  0  0
 42 36  1  0  0  0  0
 43 38  1  0  0  0  0
M  END
>  <minimizedAffinity>
-5.51237631

$$$$

 OpenBabel03272506543D

 44 47  0  0  1  0  0  0  0  0999 V2000
   36.1070   27.1880   31.7030 C   0  0  1  0  0  0  0  0  0  0  0  0
   35.1210   26.2780   31.1740 C   0  0  0  0  0  0  0  0  0  0  0  0
   35.5850   24.8630   30.9140 C   0  0  0  0  0  0  0  0  0  0  0  0
   36.4490   24.2570   31.8980 C   0  0  2  0  0  0  0  0  0  0  0  0
   37.5030   25.1980   32.4980 C   0  0  0  0  0  0  0  0  0  0  0  0
   36.9040   26.5350   32.8190 C   0  0  0  0  0  0  0  0  0  0  0  0
   35.5730   28.0140   32.2720 H   0  0  0  0  0  0  0  0  0  0  0  0
   34.5930   26.5870   30.2680 H   0  0  0  0  0  0  0  0  0  0  0  0
   34.3010   26.1630   31.9380 H   0  0  0  0  0  0  0  0  0  0  0  0
   36.2380   25.0360   29.9900 H   0  0  0  0  0  0  0  0  0  0  0  0
   34.7010   24.2500   30.6840 H   0  0  0  0  0  0  0  0  0  0  0  0
   35.9670   23.8860   32.8250 H   0  0  0  0  0  0  0  0  0  0  0  0
   38.0330   24.9120   33.3460 H   0  0  0  0  0  0  0  0  0  0  0  0
   38.2380   25.3800   31.6590 H   0  0  0  0  0  0  0  0  0  0  0  0
   36.2590   26.4470   33.7230 H   0  0  0  0  0  0  0  0  0  0  0  0
   37.7320   27.2230   33.0790 H   0  0  0  0  0  0  0  0  0  0  0  0
   37.2250   23.1830   31.2360 C   0  0  0  0  0  0  0  0  0  0  0  0
   38.2830   23.5500   30.3780 C   0  0  0  0  0  0  0  0  0  0  0  0
   39.0440   22.5970   29.7300 C   0  0  0  0  0  0  0  0  0  0  0  0
   38.7530   21.3040   29.9370 C   0  0  0  0  0  0  0  0  0  0  0  0
   37.7250   20.9100   30.7630 C   0  0  0  0  0  0  0  0  0  0  0  0
   36.9540   21.8640   31.4120 C   0  0  0  0  0  0  0  0  0  0  0  0
   38.6320   24.5330   30.0890 H   0  0  0  0  0  0  0  0  0  0  0  0
   39.8630   22.8000   29.0630 H   0  0  0  0  0  0  0  0  0  0  0  0
   39.3390   20.5040   29.4440 H   0  0  0  0  0  0  0  0  0  0  0  0
   37.5630   19.8240   30.8740 H   0  0  0  0  0  0  0  0  0  0  0  0
   37.0620   21.5330   34.1490 O   0  0  0  0  0  0  0  0  0  0  0  0
   36.1880   20.8980   33.4680 C   0  0  0  0  0  0  0  0  0  0  0  0
   35.8050   21.3050   32.1280 C   0  0  2  0  0  3  0  0  0  0  0  0
   35.4240   19.9250   31.4980 C   0  0  0  0  0  3  0  0  0  0  0  0
   34.5540   20.0090   30.8410 H   0  0  0  0  0  0  0  0  0  0  0  0
   35.1480   19.0350   32.6520 C   0  0  0  0  0  3  0  0  0  0  0  0
   34.1020   18.6700   32.6950 H   0  0  0  0  0  0  0  0  0  0  0  0
   35.4760   19.7600   33.8540 N   0  0  0  0  0  0  0  0  0  0  0  0
   35.2230   19.4740   34.8160 H   0  0  0  0  0  0  0  0  0  0  0  0
   38.1620   27.4350   30.3050 C   0  0  0  0  0  0  0  0  0  0  0  0
   36.9530   27.9380   30.7650 C   0  0  0  0  0  0  0  0  0  0  0  0
   36.5590   29.1970   30.3050 C   0  0  0  0  0  0  0  0  0  0  0  0
   37.3770   29.8630   29.4330 N   0  0  0  0  0  0  0  0  0  0  0  0
   38.5490   29.3370   29.0090 C   0  0  0  0  0  0  0  0  0  0  0  0
   38.9420   28.1090   29.4520 N   0  0  0  0  0  0  0  0  0  0  0  0
   38.6090   26.5040   30.5270 H   0  0  0  0  0  0  0  0  0  0  0  0
   35.6340   29.6490   30.6190 H   0  0  0  0  0  0  0  0  0  0  0  0
   39.0770   29.9790   28.3280 H   0  0  0  0  0  0  0  0  0  0  0  0
  1  7  1  1  0  0  0
  1  6  1  0  0  0  0
  2  1  1  0  0  0  0
  2  9  1  0  0  0  0
  3  2  1  0  0  0  0
  3  4  1  0  0  0  0
  4  5  1  0  0  0  0
  4 12  1  1  0  0  0
  5  6  1  0  0  0  0
  5 13  1  0  0  0  0
  6 16  1  0  0  0  0
  6 15  1  0  0  0  0
  8  2  1  0  0  0  0
 10  3  1  0  0  0  0
 11  3  1  0  0  0  0
 14  5  1  0  0  0  0
 17 22  1  0  0  0  0
 17  4  1  0  0  0  0
 18 17  2  0  0  0  0
 19 20  2  0  0  0  0
 19 18  1  0  0  0  0
 20 21  1  0  0  0  0
 21 26  1  0  0  0  0
 21 22  2  0  0  0  0
 23 18  1  0  0  0  0
 24 19  1  0  0  0  0
 25 20  1  0  0  0  0
 28 34  1  0  0  0  0
 28 27  2  0  0  0  0
 29 22  1  6  0  0  0
 29 28  1  0  0  0  0
 30 29  1  0  0  0  0
 30 32  1  0  0  0  0
 31 30  1  0  0  0  0
 32 33  1  0  0  0  0
 32 34  1  0  0  0  0
 34 35  1  0  0  0  0
 36 42  1  0  0  0  0
 36 37  1  0  0  0  0
 37  1  1  0  0  0  0
 38 43  1  0  0  0  0
 38 37  2  0  0  0  0
 39 38  1  0  0  0  0
 40 39  2  0  0  0  0
 40 41  1  0  0  0  0
 41 36  2  0  0  0  0
 44 40  1  0  0  0  0
M  END
>  <minimizedAffinity>
-5.4909482

$$$$

 OpenBabel03272506543D

 44 47  0  0  1  0  0  0  0  0999 V2000
   37.6390   26.7110   32.7160 C   0  0  1  0  0  0  0  0  0  0  0  0
   37.0020   27.1590   33.9290 C   0  0  0  0  0  0  0  0  0  0  0  0
   36.4800   28.5780   33.9290 C   0  0  0  0  0  0  0  0  0  0  0  0
   35.8180   29.0410   32.7330 C   0  0  2  0  0  0  0  0  0  0  0  0
   36.4580   28.5710   31.4190 C   0  0  0  0  0  0  0  0  0  0  0  0
   36.8320   27.1210   31.4960 C   0  0  0  0  0  0  0  0  0  0  0  0
   37.5590   25.5780   32.6590 H   0  0  0  0  0  0  0  0  0  0  0  0
   37.5670   27.0530   34.8580 H   0  0  0  0  0  0  0  0  0  0  0  0
   36.0830   26.5280   34.1000 H   0  0  0  0  0  0  0  0  0  0  0  0
   37.4700   29.1510   33.9790 H   0  0  0  0  0  0  0  0  0  0  0  0
   35.8760   28.7210   34.8360 H   0  0  0  0  0  0  0  0  0  0  0  0
   34.7750   28.7000   32.5760 H   0  0  0  0  0  0  0  0  0  0  0  0
   35.9450   28.6850   30.5210 H   0  0  0  0  0  0  0  0  0  0  0  0
   37.4310   29.1410   31.3520 H   0  0  0  0  0  0  0  0  0  0  0  0
   35.9130   26.4950   31.4400 H   0  0  0  0  0  0  0  0  0  0  0  0
   37.4420   26.8820   30.6030 H   0  0  0  0  0  0  0  0  0  0  0  0
   35.9060   30.5190   32.6970 C   0  0  0  0  0  0  0  0  0  0  0  0
   36.4460   31.1310   31.5470 C   0  0  0  0  0  0  0  0  0  0  0  0
   36.5560   32.5050   31.4500 C   0  0  0  0  0  0  0  0  0  0  0  0
   36.1320   33.2500   32.4830 C   0  0  0  0  0  0  0  0  0  0  0  0
   35.6040   32.6850   33.6220 C   0  0  0  0  0  0  0  0  0  0  0  0
   35.4970   31.3060   33.7250 C   0  0  0  0  0  0  0  0  0  0  0  0
   36.8480   30.6850   30.6470 H   0  0  0  0  0  0  0  0  0  0  0  0
   36.9570   33.0420   30.6090 H   0  0  0  0  0  0  0  0  0  0  0  0
   36.1940   34.3540   32.4490 H   0  0  0  0  0  0  0  0  0  0  0  0
   35.2790   33.3790   34.4170 H   0  0  0  0  0  0  0  0  0  0  0  0
   32.8150   30.9250   34.2470 O   0  0  0  0  0  0  0  0  0  0  0  0
   33.6380   31.0450   35.2170 C   0  0  0  0  0  0  0  0  0  0  0  0
   35.0660   30.8460   35.0470 C   0  0  2  0  0  3  0  0  0  0  0  0
   35.6300   31.8120   36.1410 C   0  0  0  0  0  3  0  0  0  0  0  0
   36.5040   31.3870   36.6420 H   0  0  0  0  0  0  0  0  0  0  0  0
   34.5090   32.0210   37.0890 C   0  0  0  0  0  3  0  0  0  0  0  0
   34.7150   31.6480   38.1130 H   0  0  0  0  0  0  0  0  0  0  0  0
   33.3450   31.3700   36.5430 N   0  0  0  0  0  0  0  0  0  0  0  0
   32.4630   31.1870   37.0540 H   0  0  0  0  0  0  0  0  0  0  0  0
   39.9290   27.1020   33.6340 C   0  0  0  0  0  0  0  0  0  0  0  0
   39.0800   26.9410   32.5480 C   0  0  0  0  0  0  0  0  0  0  0  0
   39.6440   27.0070   31.2710 C   0  0  0  0  0  0  0  0  0  0  0  0
   40.9900   27.2240   31.1570 N   0  0  0  0  0  0  0  0  0  0  0  0
   41.7830   27.3760   32.2430 C   0  0  0  0  0  0  0  0  0  0  0  0
   41.2420   27.3130   33.4930 N   0  0  0  0  0  0  0  0  0  0  0  0
   39.6890   27.0650   34.6610 H   0  0  0  0  0  0  0  0  0  0  0  0
   39.0460   26.8910   30.3820 H   0  0  0  0  0  0  0  0  0  0  0  0
   42.8150   27.5390   31.9920 H   0  0  0  0  0  0  0  0  0  0  0  0
  1  7  1  1  0  0  0
  1  2  1  0  0  0  0
  2  3  1  0  0  0  0
  2  9  1  0  0  0  0
  2  8  1  0  0  0  0
  3 10  1  0  0  0  0
  3 11  1  0  0  0  0
  4 12  1  1  0  0  0
  4  3  1  0  0  0  0
  5  6  1  0  0  0  0
  5  4  1  0  0  0  0
  6  1  1  0  0  0  0
 13  5  1  0  0  0  0
 14  5  1  0  0  0  0
 15  6  1  0  0  0  0
 16  6  1  0  0  0  0
 17  4  1  0  0  0  0
 17 22  1  0  0  0  0
 18 17  2  0  0  0  0
 19 18  1  0  0  0  0
 19 20  2  0  0  0  0
 20 21  1  0  0  0  0
 21 22  2  0  0  0  0
 21 26  1  0  0  0  0
 23 18  1  0  0  0  0
 24 19  1  0  0  0  0
 25 20  1  0  0  0  0
 27 28  2  0  0  0  0
 28 34  1  0  0  0  0
 29 22  1  6  0  0  0
 29 28  1  0  0  0  0
 29 30  1  0  0  0  0
 30 31  1  0  0  0  0
 30 32  1  0  0  0  0
 32 33  1  0  0  0  0
 34 35  1  0  0  0  0
 34 32  1  0  0  0  0
 36 42  1  0  0  0  0
 37  1  1  0  0  0  0
 37 36  2  0  0  0  0
 38 37  1  0  0  0  0
 39 38  2  0  0  0  0
 39 40  1  0  0  0  0
 40 41  2  0  0  0  0
 41 36  1  0  0  0  0
 43 38  1  0  0  0  0
 44 40  1  0  0  0  0
M  END
>  <minimizedAffinity>
-5.48762751

$$$$
