
 OpenBabel03272508113D

 34 36  0  0  1  0  0  0  0  0999 V2000
   36.6820   29.4540   43.9710 Cl  0  0  0  0  0  0  0  0  0  0  0  0
   38.3360   29.8280   43.4800 C   0  0  0  0  0  0  0  0  0  0  0  0
   39.3200   30.3050   44.3560 C   0  0  0  0  0  0  0  0  0  0  0  0
   40.5800   30.5590   43.8400 C   0  0  0  0  0  0  0  0  0  0  0  0
   40.8430   30.3450   42.4970 C   0  0  0  0  0  0  0  0  0  0  0  0
   39.9030   29.8840   41.6340 C   0  0  0  0  0  0  0  0  0  0  0  0
   38.6660   29.6340   42.1380 C   0  0  0  0  0  0  0  0  0  0  0  0
   41.2740   30.9170   44.5630 H   0  0  0  0  0  0  0  0  0  0  0  0
   41.8580   30.5710   42.1790 H   0  0  0  0  0  0  0  0  0  0  0  0
   40.1780   29.7390   40.5960 H   0  0  0  0  0  0  0  0  0  0  0  0
   38.1120   26.8100   41.3070 O   0  0  0  0  0  0  0  0  0  0  0  0
   38.0140   27.8360   40.5830 C   0  0  0  0  0  0  0  0  0  0  0  0
   37.6080   29.1220   41.1950 C   0  0  2  0  0  3  0  0  0  0  0  0
   37.5130   30.1190   40.0560 C   0  0  0  0  0  3  0  0  0  0  0  0
   36.4540   30.1770   39.6850 H   0  0  0  0  0  0  0  0  0  0  0  0
   38.4140   29.4910   39.0190 C   0  0  0  0  0  3  0  0  0  0  0  0
   38.1870   29.8520   38.0000 H   0  0  0  0  0  0  0  0  0  0  0  0
   38.2230   28.0650   39.1760 N   0  0  0  0  0  0  0  0  0  0  0  0
   38.2080   27.2260   38.5230 H   0  0  0  0  0  0  0  0  0  0  0  0
   38.8570   30.4480   45.6410 O   0  0  0  0  0  0  0  0  0  0  0  0
   39.4430   32.5110   47.0860 O   0  0  0  0  0  0  0  0  0  0  0  0
   38.3050   31.8310   46.4100 P   0  0  1  0  0  0  0  0  0  0  0  0
   37.7120   32.8460   45.1620 O   0  0  0  0  0  0  0  0  0  0  0  0
   36.9050   32.3880   44.8180 H   0  0  0  0  0  0  0  0  0  0  0  0
   37.0340   31.4280   47.4560 O   0  0  0  0  0  0  0  0  0  0  0  0
   37.6200   30.5260   50.9770 C   0  0  0  0  0  0  0  0  0  0  0  0
   37.7120   31.3060   49.8220 C   0  0  0  0  0  0  0  0  0  0  0  0
   37.0780   30.8540   48.6590 C   0  0  0  0  0  0  0  0  0  0  0  0
   36.3990   29.6650   48.7220 N   0  0  0  0  0  0  0  0  0  0  0  0
   36.3360   28.9450   49.8580 C   0  0  0  0  0  0  0  0  0  0  0  0
   36.9500   29.3840   50.9810 N   0  0  0  0  0  0  0  0  0  0  0  0
   38.1430   30.9730   51.7970 H   0  0  0  0  0  0  0  0  0  0  0  0
   38.2100   32.2430   49.6510 H   0  0  0  0  0  0  0  0  0  0  0  0
   35.7990   28.0010   49.9190 H   0  0  0  0  0  0  0  0  0  0  0  0
  2  1  1  0  0  0  0
  2  3  1  0  0  0  0
  3 20  1  0  0  0  0
  4  3  2  0  0  0  0
  4  8  1  0  0  0  0
  5  4  1  0  0  0  0
  6  7  1  0  0  0  0
  6  5  2  0  0  0  0
  7  2  2  0  0  0  0
  9  5  1  0  0  0  0
 10  6  1  0  0  0  0
 12 13  1  0  0  0  0
 12 11  2  0  0  0  0
 13  7  1  1  0  0  0
 14 13  1  0  0  0  0
 15 14  1  0  0  0  0
 16 18  1  0  0  0  0
 16 14  1  0  0  0  0
 17 16  1  0  0  0  0
 18 12  1  0  0  0  0
 19 18  1  0  0  0  0
 20 22  1  0  0  0  0
 22 21  2  1  0  0  0
 22 25  1  0  0  0  0
 23 22  1  0  0  0  0
 24 23  1  0  0  0  0
 25 28  1  0  0  0  0
 26 31  1  0  0  0  0
 26 32  1  0  0  0  0
 27 26  2  0  0  0  0
 28 29  2  0  0  0  0
 28 27  1  0  0  0  0
 29 30  1  0  0  0  0
 30 34  1  0  0  0  0
 30 31  2  0  0  0  0
 33 27  1  0  0  0  0
M  END
>  <minimizedAffinity>
-4.93819046

>  <minimizedRMSD>
0.155759662

$$$$
