
 OpenBabel03272504333D

 40 43  0  0  1  0  0  0  0  0999 V2000
   35.4410   29.6320   47.7010 C   0  0  0  0  0  0  0  0  0  0  0  0
   35.6740   30.1120   46.4220 C   0  0  0  0  0  0  0  0  0  0  0  0
   34.6890   30.0220   45.4530 C   0  0  0  0  0  0  0  0  0  0  0  0
   33.5060   29.4500   45.8160 N   0  0  0  0  0  0  0  0  0  0  0  0
   33.3060   28.9910   47.0730 C   0  0  0  0  0  0  0  0  0  0  0  0
   34.2600   29.0770   48.0140 N   0  0  0  0  0  0  0  0  0  0  0  0
   36.6410   30.5430   46.2430 H   0  0  0  0  0  0  0  0  0  0  0  0
   34.8790   30.3990   44.4600 H   0  0  0  0  0  0  0  0  0  0  0  0
   36.4140   29.6940   48.7460 N   0  0  0  0  0  0  0  0  0  0  0  0
   36.3150   28.8860   49.9550 C   0  0  0  0  0  0  0  0  0  0  0  0
   36.6210   29.6140   51.2230 C   0  0  0  0  0  0  0  0  0  0  0  0
   37.4960   30.7110   51.1520 N   0  0  0  0  0  0  0  0  0  0  0  0
   37.3950   31.4760   49.9200 C   0  0  0  0  0  0  0  0  0  0  0  0
   37.5820   30.5020   48.7920 C   0  0  0  0  0  0  0  0  0  0  0  0
   37.0130   28.0150   49.8110 H   0  0  0  0  0  0  0  0  0  0  0  0
   35.2920   28.4370   49.9860 H   0  0  0  0  0  0  0  0  0  0  0  0
   35.6430   29.9080   51.6860 H   0  0  0  0  0  0  0  0  0  0  0  0
   37.0520   28.8610   51.9440 H   0  0  0  0  0  0  0  0  0  0  0  0
   38.4820   30.5600   51.4570 H   0  0  0  0  0  0  0  0  0  0  0  0
   36.4390   31.9990   49.8490 H   0  0  0  0  0  0  0  0  0  0  0  0
   38.2790   32.1590   49.9260 H   0  0  0  0  0  0  0  0  0  0  0  0
   38.4770   29.8710   48.9690 H   0  0  0  0  0  0  0  0  0  0  0  0
   37.7100   31.0310   47.8410 H   0  0  0  0  0  0  0  0  0  0  0  0
   32.0120   28.3900   47.3930 C   0  0  0  0  0  0  0  0  0  0  0  0
   31.8420   27.6910   48.5730 C   0  0  0  0  0  0  0  0  0  0  0  0
   30.6470   27.0980   48.9380 C   0  0  0  0  0  0  0  0  0  0  0  0
   29.6340   27.2420   48.0580 N   0  0  0  0  0  0  0  0  0  0  0  0
   29.8060   27.9230   46.9060 C   0  0  0  0  0  0  0  0  0  0  0  0
   30.9710   28.5000   46.5550 N   0  0  0  0  0  0  0  0  0  0  0  0
   32.6820   27.6010   49.2520 H   0  0  0  0  0  0  0  0  0  0  0  0
   30.5770   26.5660   49.8750 H   0  0  0  0  0  0  0  0  0  0  0  0
   28.9880   30.5190   45.5400 O   0  0  0  0  0  0  0  0  0  0  0  0
   28.2890   29.4750   45.7270 C   0  0  0  0  0  0  0  0  0  0  0  0
   28.6750   28.0690   45.9500 C   0  0  2  0  0  3  0  0  0  0  0  0
   27.3870   27.4720   46.5040 C   0  0  0  0  0  3  0  0  0  0  0  0
   27.3090   27.7700   47.5510 H   0  0  0  0  0  0  0  0  0  0  0  0
   26.3520   28.2070   45.6620 C   0  0  0  0  0  3  0  0  0  0  0  0
   26.4080   27.8160   44.6340 H   0  0  0  0  0  0  0  0  0  0  0  0
   26.8700   29.5740   45.7380 N   0  0  0  0  0  0  0  0  0  0  0  0
   26.2380   30.4220   45.7890 H   0  0  0  0  0  0  0  0  0  0  0  0
  1  6  1  0  0  0  0
  1  9  1  0  0  0  0
  2  1  2  0  0  0  0
  3  4  2  0  0  0  0
  3  2  1  0  0  0  0
  4  5  1  0  0  0  0
  5 24  1  0  0  0  0
  5  6  2  0  0  0  0
  7  2  1  0  0  0  0
  8  3  1  0  0  0  0
  9 14  1  0  0  0  0
  9 10  1  0  0  0  0
 10 16  1  0  0  0  0
 10 11  1  0  0  0  0
 11 17  1  0  0  0  0
 11 18  1  0  0  0  0
 12 11  1  0  0  0  0
 12 19  1  0  0  0  0
 13 21  1  0  0  0  0
 13 12  1  0  0  0  0
 14 22  1  0  0  0  0
 14 13  1  0  0  0  0
 15 10  1  0  0  0  0
 20 13  1  0  0  0  0
 23 14  1  0  0  0  0
 24 25  1  0  0  0  0
 25 26  2  0  0  0  0
 25 30  1  0  0  0  0
 26 31  1  0  0  0  0
 27 26  1  0  0  0  0
 28 27  2  0  0  0  0
 29 28  1  0  0  0  0
 29 24  2  0  0  0  0
 32 33  2  0  0  0  0
 33 39  1  0  0  0  0
 33 34  1  0  0  0  0
 34 35  1  0  0  0  0
 34 28  1  1  0  0  0
 35 36  1  0  0  0  0
 37 39  1  0  0  0  0
 37 35  1  0  0  0  0
 38 37  1  0  0  0  0
 39 40  1  0  0  0  0
M  END
>  <minimizedAffinity>
-5.29395437

>  <minimizedRMSD>
0.623985827

$$$$
