
 OpenBabel03272506463D

 42 44  0  0  1  0  0  0  0  0999 V2000
   32.1670   28.5330   47.3520 C   0  0  2  0  0  0  0  0  0  0  0  0
   33.4070   28.3600   48.1810 C   0  0  1  0  0  0  0  0  0  0  0  0
   33.8360   27.0760   48.0320 O   0  0  0  0  0  0  0  0  0  0  0  0
   33.1600   26.4830   46.9710 C   0  0  0  0  0  0  0  0  0  0  0  0
   32.5400   27.5950   46.1620 C   0  0  1  0  0  0  0  0  0  0  0  0
   31.2460   28.1540   47.7910 H   0  0  0  0  0  0  0  0  0  0  0  0
   33.2070   28.6190   49.2380 H   0  0  0  0  0  0  0  0  0  0  0  0
   33.8640   25.8850   46.3290 H   0  0  0  0  0  0  0  0  0  0  0  0
   32.4790   25.7640   47.4050 H   0  0  0  0  0  0  0  0  0  0  0  0
   33.2810   28.1180   45.5670 H   0  0  0  0  0  0  0  0  0  0  0  0
   32.0720   29.8580   46.8770 O   0  0  0  0  0  0  0  0  0  0  0  0
   32.3650   29.8660   45.9330 H   0  0  0  0  0  0  0  0  0  0  0  0
   34.6970   29.4710   47.4910 S   0  0  0  0  0  0  0  0  0  0  0  0
   37.1010   29.2410   50.6330 C   0  0  0  0  0  0  0  0  0  0  0  0
   37.5720   30.5320   50.8320 C   0  0  0  0  0  0  0  0  0  0  0  0
   37.1240   31.5270   49.9490 C   0  0  0  0  0  0  0  0  0  0  0  0
   36.2600   31.1820   48.9530 N   0  0  0  0  0  0  0  0  0  0  0  0
   35.8330   29.9050   48.8050 C   0  0  0  0  0  0  0  0  0  0  0  0
   36.2460   28.9170   49.6420 N   0  0  0  0  0  0  0  0  0  0  0  0
   37.4330   28.4580   51.3000 H   0  0  0  0  0  0  0  0  0  0  0  0
   38.2500   30.8120   51.6110 H   0  0  0  0  0  0  0  0  0  0  0  0
   37.4360   32.5610   50.0260 H   0  0  0  0  0  0  0  0  0  0  0  0
   31.4170   27.1230   45.5320 O   0  0  0  0  0  0  0  0  0  0  0  0
   29.8370   29.2240   44.2070 Cl  0  0  0  0  0 15  0  0  0  0  0  0
   29.3400   28.1190   45.4690 C   0  0  0  0  0  3  0  0  0  0  0  0
   30.1740   27.1660   46.0080 C   0  0  0  0  0  0  0  0  0  0  0  0
   29.6580   26.3260   46.9970 C   0  0  0  0  0  0  0  0  0  0  0  0
   28.3530   26.4540   47.4170 C   0  0  0  0  0  0  0  0  0  0  0  0
   27.5080   27.4080   46.8830 C   0  0  0  0  0  0  0  0  0  0  0  0
   28.0100   28.2440   45.9020 C   0  0  0  0  0  0  0  0  0  0  0  0
   30.2300   25.5500   47.4720 H   0  0  0  0  0  0  0  0  0  0  0  0
   27.9020   25.8380   48.1730 H   0  0  0  0  0  0  0  0  0  0  0  0
   26.4670   27.5430   47.1880 H   0  0  0  0  0  0  0  0  0  0  0  0
   25.3060   27.9740   44.3720 O   0  0  0  0  0  0  0  0  0  0  0  0
   26.2970   28.7560   44.2100 C   0  0  0  0  0  0  0  0  0  0  0  0
   27.1180   29.2740   45.3180 C   0  0  2  0  0  3  0  0  0  0  0  0
   27.8670   30.4140   44.6850 C   0  0  0  0  0  3  0  0  0  0  0  0
   28.9530   30.2020   44.5590 H   0  0  0  0  0  0  0  0  0  0  0  0
   27.3120   30.6140   43.2880 C   0  0  0  0  0  3  0  0  0  0  0  0
   26.5080   31.3750   43.2460 H   0  0  0  0  0  0  0  0  0  0  0  0
   26.8170   29.2840   42.9760 N   0  0  0  0  0  0  0  0  0  0  0  0
   26.7920   28.7250   42.0760 H   0  0  0  0  0  0  0  0  0  0  0  0
  1  6  1  1  0  0  0
  1  2  1  0  0  0  0
  2  7  1  1  0  0  0
  3  2  1  0  0  0  0
  4  9  1  0  0  0  0
  4  3  1  0  0  0  0
  5 10  1  6  0  0  0
  5  4  1  0  0  0  0
  5  1  1  0  0  0  0
  8  4  1  0  0  0  0
 11  1  1  0  0  0  0
 12 11  1  0  0  0  0
 13  2  1  0  0  0  0
 13 18  1  0  0  0  0
 14 15  1  0  0  0  0
 14 20  1  0  0  0  0
 15 21  1  0  0  0  0
 16 22  1  0  0  0  0
 16 15  2  0  0  0  0
 17 16  1  0  0  0  0
 18 17  2  0  0  0  0
 18 19  1  0  0  0  0
 19 14  2  0  0  0  0
 23 26  1  0  0  0  0
 23  5  1  0  0  0  0
 25 30  2  0  0  0  0
 25 26  1  0  0  0  0
 26 27  2  0  0  0  0
 27 28  1  0  0  0  0
 27 31  1  0  0  0  0
 28 32  1  0  0  0  0
 29 33  1  0  0  0  0
 29 28  2  0  0  0  0
 30 29  1  0  0  0  0
 35 34  2  0  0  0  0
 35 36  1  0  0  0  0
 36 30  1  6  0  0  0
 37 36  1  0  0  0  0
 38 37  1  0  0  0  0
 39 37  1  0  0  0  0
 40 39  1  0  0  0  0
 41 39  1  0  0  0  0
 41 35  1  0  0  0  0
 42 41  1  0  0  0  0
M  END
>  <minimizedAffinity>
-5.08177423

>  <minimizedRMSD>
0.167569831

$$$$
