
 OpenBabel03272506473D

 42 45  0  0  1  0  0  0  0  0999 V2000
   31.9270   28.5370   47.3760 C   0  0  2  0  0  0  0  0  0  0  0  0
   33.1540   28.2340   48.1840 C   0  0  1  0  0  0  0  0  0  0  0  0
   33.4200   26.9040   48.0640 O   0  0  0  0  0  0  0  0  0  0  0  0
   32.6520   26.3710   47.0340 C   0  0  0  0  0  0  0  0  0  0  0  0
   32.1540   27.5300   46.2060 C   0  0  1  0  0  0  0  0  0  0  0  0
   30.9760   28.2850   47.8430 H   0  0  0  0  0  0  0  0  0  0  0  0
   33.0120   28.5430   49.2370 H   0  0  0  0  0  0  0  0  0  0  0  0
   33.2630   25.6750   46.3950 H   0  0  0  0  0  0  0  0  0  0  0  0
   31.8990   25.7520   47.5010 H   0  0  0  0  0  0  0  0  0  0  0  0
   32.9400   27.9430   45.5820 H   0  0  0  0  0  0  0  0  0  0  0  0
   31.9830   29.8510   46.8650 O   0  0  0  0  0  0  0  0  0  0  0  0
   32.2540   29.7980   45.9160 H   0  0  0  0  0  0  0  0  0  0  0  0
   34.5550   29.1600   47.4390 S   0  0  0  0  0  0  0  0  0  0  0  0
   36.7270   29.2970   50.7490 C   0  0  0  0  0  0  0  0  0  0  0  0
   37.2470   30.5840   50.7970 C   0  0  0  0  0  0  0  0  0  0  0  0
   36.9080   31.4570   49.7510 C   0  0  0  0  0  0  0  0  0  0  0  0
   36.0970   31.0040   48.7530 N   0  0  0  0  0  0  0  0  0  0  0  0
   35.6190   29.7370   48.7580 C   0  0  0  0  0  0  0  0  0  0  0  0
   35.9270   28.8660   49.7540 N   0  0  0  0  0  0  0  0  0  0  0  0
   36.9750   28.6070   51.5440 H   0  0  0  0  0  0  0  0  0  0  0  0
   37.8830   30.9480   51.5760 H   0  0  0  0  0  0  0  0  0  0  0  0
   37.2640   32.4780   49.7020 H   0  0  0  0  0  0  0  0  0  0  0  0
   30.9680   27.1830   45.6110 O   0  0  0  0  0  0  0  0  0  0  0  0
   29.4290   29.4820   44.6060 Cl  0  0  0  0  0  0  0  0  0  0  0  0
   28.9510   28.2840   45.7870 C   0  0  0  0  0  0  0  0  0  0  0  0
   29.7630   27.2410   46.1730 C   0  0  0  0  0  0  0  0  0  0  0  0
   29.2640   26.3330   47.1100 C   0  0  0  0  0  0  0  0  0  0  0  0
   27.9970   26.4840   47.6290 C   0  0  0  0  0  0  0  0  0  0  0  0
   27.1760   27.5290   47.2490 C   0  0  0  0  0  0  0  0  0  0  0  0
   27.6610   28.4320   46.3210 C   0  0  0  0  0  0  0  0  0  0  0  0
   29.8200   25.4860   47.4680 H   0  0  0  0  0  0  0  0  0  0  0  0
   27.5610   25.8200   48.3520 H   0  0  0  0  0  0  0  0  0  0  0  0
   26.1660   27.6840   47.6370 H   0  0  0  0  0  0  0  0  0  0  0  0
   25.7160   28.7200   43.9000 O   0  0  0  0  0  0  0  0  0  0  0  0
   26.5050   29.5480   44.4560 C   0  0  0  0  0  0  0  0  0  0  0  0
   26.7940   29.5580   45.9010 C   0  0  2  0  0  3  0  0  0  0  0  0
   27.4290   30.9040   46.1140 C   0  0  0  0  0  3  0  0  0  0  0  0
   28.5160   30.8390   46.3420 H   0  0  0  0  0  0  0  0  0  0  0  0
   27.3150   31.6800   44.8170 C   0  0  0  0  0  3  0  0  0  0  0  0
   26.4170   32.3280   44.7760 H   0  0  0  0  0  0  0  0  0  0  0  0
   27.2570   30.6080   43.8380 N   0  0  0  0  0  0  0  0  0  0  0  0
   27.6450   30.5180   42.8560 H   0  0  0  0  0  0  0  0  0  0  0  0
  1  6  1  1  0  0  0
  1  2  1  0  0  0  0
  2  7  1  1  0  0  0
  3  2  1  0  0  0  0
  4  9  1  0  0  0  0
  4  3  1  0  0  0  0
  5 10  1  6  0  0  0
  5  4  1  0  0  0  0
  5  1  1  0  0  0  0
  8  4  1  0  0  0  0
 11  1  1  0  0  0  0
 12 11  1  0  0  0  0
 13  2  1  0  0  0  0
 13 18  1  0  0  0  0
 14 15  1  0  0  0  0
 14 20  1  0  0  0  0
 15 21  1  0  0  0  0
 16 15  2  0  0  0  0
 17 18  2  0  0  0  0
 17 16  1  0  0  0  0
 18 19  1  0  0  0  0
 19 14  2  0  0  0  0
 22 16  1  0  0  0  0
 23 26  1  0  0  0  0
 23  5  1  0  0  0  0
 24 25  1  0  0  0  0
 25 26  2  0  0  0  0
 25 30  1  0  0  0  0
 26 27  1  0  0  0  0
 27 31  1  0  0  0  0
 27 28  2  0  0  0  0
 28 32  1  0  0  0  0
 29 28  1  0  0  0  0
 29 33  1  0  0  0  0
 30 29  2  0  0  0  0
 34 35  2  0  0  0  0
 35 36  1  0  0  0  0
 36 37  1  0  0  0  0
 36 30  1  6  0  0  0
 37 38  1  0  0  0  0
 39 37  1  0  0  0  0
 40 39  1  0  0  0  0
 41 35  1  0  0  0  0
 41 39  1  0  0  0  0
 42 41  1  0  0  0  0
M  END
>  <minimizedAffinity>
-5.15924692

>  <minimizedRMSD>
0.551035345

$$$$
