
 OpenBabel03272506463D

 42 45  0  0  1  0  0  0  0  0999 V2000
   32.2590   28.3140   47.4300 C   0  0  2  0  0  0  0  0  0  0  0  0
   33.4500   28.3890   48.3400 C   0  0  1  0  0  0  0  0  0  0  0  0
   34.0210   27.1540   48.3880 O   0  0  0  0  0  0  0  0  0  0  0  0
   33.4850   26.3580   47.3800 C   0  0  0  0  0  0  0  0  0  0  0  0
   32.8090   27.2810   46.3980 C   0  0  1  0  0  0  0  0  0  0  0  0
   31.3550   27.8920   47.8650 H   0  0  0  0  0  0  0  0  0  0  0  0
   33.1520   28.7550   49.3400 H   0  0  0  0  0  0  0  0  0  0  0  0
   34.2910   25.7670   46.8630 H   0  0  0  0  0  0  0  0  0  0  0  0
   32.8560   25.6270   47.8680 H   0  0  0  0  0  0  0  0  0  0  0  0
   33.5300   27.8050   45.7790 H   0  0  0  0  0  0  0  0  0  0  0  0
   32.0570   29.5490   46.7770 O   0  0  0  0  0  0  0  0  0  0  0  0
   32.4120   29.4700   45.8580 H   0  0  0  0  0  0  0  0  0  0  0  0
   34.6600   29.5430   47.5800 S   0  0  0  0  0  0  0  0  0  0  0  0
   37.2700   29.3070   50.5510 C   0  0  0  0  0  0  0  0  0  0  0  0
   37.7600   30.5960   50.7160 C   0  0  0  0  0  0  0  0  0  0  0  0
   37.2570   31.5920   49.8630 C   0  0  0  0  0  0  0  0  0  0  0  0
   36.3260   31.2480   48.9290 N   0  0  0  0  0  0  0  0  0  0  0  0
   35.8840   29.9740   48.8130 C   0  0  0  0  0  0  0  0  0  0  0  0
   36.3490   28.9850   49.6210 N   0  0  0  0  0  0  0  0  0  0  0  0
   37.6430   28.5240   51.1960 H   0  0  0  0  0  0  0  0  0  0  0  0
   38.4900   30.8740   51.4460 H   0  0  0  0  0  0  0  0  0  0  0  0
   37.5780   32.6240   49.9170 H   0  0  0  0  0  0  0  0  0  0  0  0
   31.7870   26.6090   45.7750 O   0  0  0  0  0  0  0  0  0  0  0  0
   30.2790   27.4320   43.3860 Cl  0  0  0  0  0  0  0  0  0  0  0  0
   29.6800   27.1250   45.0000 C   0  0  0  0  0  0  0  0  0  0  0  0
   30.4890   26.7340   46.0430 C   0  0  0  0  0  0  0  0  0  0  0  0
   29.8930   26.4970   47.2840 C   0  0  0  0  0  0  0  0  0  0  0  0
   28.5360   26.6550   47.4520 C   0  0  0  0  0  0  0  0  0  0  0  0
   27.7150   27.0490   46.4120 C   0  0  0  0  0  0  0  0  0  0  0  0
   28.2960   27.2840   45.1790 C   0  0  0  0  0  0  0  0  0  0  0  0
   30.4410   26.1840   48.1540 H   0  0  0  0  0  0  0  0  0  0  0  0
   28.0220   26.4890   48.3820 H   0  0  0  0  0  0  0  0  0  0  0  0
   26.6350   27.1850   46.5050 H   0  0  0  0  0  0  0  0  0  0  0  0
   26.5510   29.8400   44.7890 O   0  0  0  0  0  0  0  0  0  0  0  0
   26.3570   28.6240   44.4690 C   0  0  0  0  0  0  0  0  0  0  0  0
   27.4320   27.7060   44.0530 C   0  0  2  0  0  3  0  0  0  0  0  0
   26.6820   26.5640   43.4220 C   0  0  0  0  0  3  0  0  0  0  0  0
   26.7210   25.6340   44.0310 H   0  0  0  0  0  0  0  0  0  0  0  0
   25.2200   26.9570   43.3450 C   0  0  0  0  0  3  0  0  0  0  0  0
   24.9450   27.4170   42.3750 H   0  0  0  0  0  0  0  0  0  0  0  0
   25.1120   27.9020   44.4430 N   0  0  0  0  0  0  0  0  0  0  0  0
   24.3350   28.1040   45.1370 H   0  0  0  0  0  0  0  0  0  0  0  0
  1  6  1  1  0  0  0
  1  2  1  0  0  0  0
  2  3  1  0  0  0  0
  2  7  1  1  0  0  0
  4  9  1  0  0  0  0
  4  3  1  0  0  0  0
  5 10  1  6  0  0  0
  5  4  1  0  0  0  0
  5  1  1  0  0  0  0
  8  4  1  0  0  0  0
 11  1  1  0  0  0  0
 12 11  1  0  0  0  0
 13  2  1  0  0  0  0
 13 18  1  0  0  0  0
 14 15  1  0  0  0  0
 14 20  1  0  0  0  0
 15 21  1  0  0  0  0
 16 22  1  0  0  0  0
 16 15  2  0  0  0  0
 17 16  1  0  0  0  0
 18 17  2  0  0  0  0
 18 19  1  0  0  0  0
 19 14  2  0  0  0  0
 23 26  1  0  0  0  0
 23  5  1  0  0  0  0
 24 25  1  0  0  0  0
 25 30  2  0  0  0  0
 25 26  1  0  0  0  0
 26 27  2  0  0  0  0
 27 28  1  0  0  0  0
 27 31  1  0  0  0  0
 28 32  1  0  0  0  0
 29 33  1  0  0  0  0
 29 28  2  0  0  0  0
 30 29  1  0  0  0  0
 35 34  2  0  0  0  0
 36 35  1  0  0  0  0
 36 30  1  1  0  0  0
 37 38  1  0  0  0  0
 37 36  1  0  0  0  0
 39 37  1  0  0  0  0
 39 41  1  0  0  0  0
 40 39  1  0  0  0  0
 41 35  1  0  0  0  0
 41 42  1  0  0  0  0
M  END
>  <minimizedAffinity>
-5.37979174

>  <minimizedRMSD>
1.16598225

$$$$
