
 OpenBabel03272505183D

 33 35  0  0  1  0  0  0  0  0999 V2000
   37.4170   29.6040   50.1420 C   0  0  0  0  0  0  0  0  0  0  0  0
   38.2750   30.2330   49.2190 C   0  0  0  0  0  0  0  0  0  0  0  0
   37.8140   30.6290   47.9700 C   0  0  0  0  0  0  0  0  0  0  0  0
   36.5040   30.3500   47.7630 N   0  0  0  0  0  0  0  0  0  0  0  0
   35.6790   29.7570   48.6250 C   0  0  0  0  0  0  0  0  0  0  0  0
   36.1420   29.3780   49.8300 N   0  0  0  0  0  0  0  0  0  0  0  0
   37.8620   29.3290   51.0910 H   0  0  0  0  0  0  0  0  0  0  0  0
   39.2960   30.4040   49.4940 H   0  0  0  0  0  0  0  0  0  0  0  0
   39.1630   32.5440   47.3620 C   0  0  0  0  0  0  0  0  0  0  0  0
   38.7590   31.2650   47.0880 C   0  0  0  0  0  0  0  0  0  0  0  0
   39.2880   30.6660   45.9740 C   0  0  0  0  0  0  0  0  0  0  0  0
   40.1710   31.2900   45.1660 C   0  0  0  0  0  0  0  0  0  0  0  0
   40.6020   32.5850   45.4130 C   0  0  0  0  0  0  0  0  0  0  0  0
   40.0760   33.1850   46.5240 C   0  0  0  0  0  0  0  0  0  0  0  0
   38.9620   29.6500   45.7640 H   0  0  0  0  0  0  0  0  0  0  0  0
   40.5330   30.7360   44.3100 H   0  0  0  0  0  0  0  0  0  0  0  0
   41.3110   33.0450   44.7370 H   0  0  0  0  0  0  0  0  0  0  0  0
   40.4560   34.1970   46.6560 H   0  0  0  0  0  0  0  0  0  0  0  0
   39.4700   34.4290   48.8110 N   0  0  0  0  0  0  0  0  0  0  0  0
   38.7630   33.3790   48.4590 C   0  0  0  0  0  0  0  0  0  0  0  0
   37.7740   33.5440   49.4470 N   0  0  0  0  0  0  0  0  0  0  0  0
   39.1630   35.0350   49.6050 H   0  0  0  0  0  0  0  0  0  0  0  0
   37.8310   33.0140   50.3510 H   0  0  0  0  0  0  0  0  0  0  0  0
   36.9390   34.1380   49.4480 H   0  0  0  0  0  0  0  0  0  0  0  0
   33.6240   29.3230   50.4060 O   0  0  0  0  0  0  0  0  0  0  0  0
   33.5260   28.7360   49.2780 C   0  0  0  0  0  0  0  0  0  0  0  0
   34.2580   29.5260   48.2290 C   0  0  2  0  0  3  0  0  0  0  0  0
   34.1640   28.6120   47.0300 C   0  0  0  0  0  3  0  0  0  0  0  0
   33.3250   28.9300   46.3830 H   0  0  0  0  0  0  0  0  0  0  0  0
   33.8110   27.2560   47.6050 C   0  0  0  0  0  3  0  0  0  0  0  0
   34.7390   26.7600   47.9520 H   0  0  0  0  0  0  0  0  0  0  0  0
   32.9370   27.5690   48.7140 N   0  0  0  0  0  0  0  0  0  0  0  0
   32.0660   27.2680   49.2360 H   0  0  0  0  0  0  0  0  0  0  0  0
  1  7  1  0  0  0  0
  2  8  1  0  0  0  0
  2  1  2  0  0  0  0
  3  2  1  0  0  0  0
  4  3  2  0  0  0  0
  4  5  1  0  0  0  0
  5  6  2  0  0  0  0
  6  1  1  0  0  0  0
  9 20  1  0  0  0  0
 10  9  1  0  0  0  0
 10  3  1  0  0  0  0
 11 10  2  0  0  0  0
 12 13  2  0  0  0  0
 12 11  1  0  0  0  0
 13 14  1  0  0  0  0
 14 18  1  0  0  0  0
 14  9  2  0  0  0  0
 15 11  1  0  0  0  0
 16 12  1  0  0  0  0
 17 13  1  0  0  0  0
 19 22  1  0  0  0  0
 20 19  2  0  0  0  0
 20 21  1  0  0  0  0
 21 24  1  0  0  0  0
 21 23  1  0  0  0  0
 26 25  2  0  0  0  0
 27  5  1  1  0  0  0
 27 26  1  0  0  0  0
 28 30  1  0  0  0  0
 28 27  1  0  0  0  0
 29 28  1  0  0  0  0
 30 31  1  0  0  0  0
 30 32  1  0  0  0  0
 32 33  1  0  0  0  0
 32 26  1  0  0  0  0
M  END
>  <minimizedAffinity>
-6.48524857

>  <minimizedRMSD>
1.49013424

$$$$
