
 OpenBabel03272505143D

 39 42  0  0  1  0  0  0  0  0999 V2000
   39.2550   24.1030   31.2670 S   0  0  0  0  0  0  0  0  0  0  0  0
   38.8590   27.1880   31.5880 Cl  0  0  0  0  0  0  0  0  0  0  0  0
   37.4540   26.1960   31.3000 C   0  0  0  0  0  0  0  0  0  0  0  0
   36.2280   26.8300   31.2300 C   0  0  0  0  0  0  0  0  0  0  0  0
   35.1080   26.0460   31.0020 C   0  0  0  0  0  0  0  0  0  0  0  0
   35.2320   24.6940   30.8560 C   0  0  0  0  0  0  0  0  0  0  0  0
   36.4970   24.1220   30.9390 C   0  0  0  0  0  0  0  0  0  0  0  0
   37.6500   24.8220   31.1600 C   0  0  0  0  0  0  0  0  0  0  0  0
   34.1320   26.5030   30.9400 H   0  0  0  0  0  0  0  0  0  0  0  0
   34.3350   24.1120   30.6780 H   0  0  0  0  0  0  0  0  0  0  0  0
   36.5550   23.0400   30.8170 H   0  0  0  0  0  0  0  0  0  0  0  0
   35.7470   30.0610   32.8420 C   0  0  0  0  0  0  0  0  0  0  0  0
   35.9510   30.9940   31.8010 C   0  0  0  0  0  0  0  0  0  0  0  0
   36.2580   30.4890   30.5320 C   0  0  0  0  0  0  0  0  0  0  0  0
   36.3430   29.1360   30.3690 N   0  0  0  0  0  0  0  0  0  0  0  0
   36.1400   28.2930   31.3940 C   0  0  0  0  0  0  0  0  0  0  0  0
   35.8460   28.7500   32.6080 N   0  0  0  0  0  0  0  0  0  0  0  0
   35.5050   30.3710   33.8540 H   0  0  0  0  0  0  0  0  0  0  0  0
   35.8680   32.0380   32.0060 H   0  0  0  0  0  0  0  0  0  0  0  0
   36.4170   31.1700   29.7290 H   0  0  0  0  0  0  0  0  0  0  0  0
   37.7720   22.6680   33.6430 Cl  0  0  0  0  0  0  0  0  0  0  0  0
   39.2360   23.5890   33.9170 C   0  0  0  0  0  0  0  0  0  0  0  0
   39.9510   24.2530   32.9170 C   0  0  0  0  0  0  0  0  0  0  0  0
   41.0940   24.9500   33.2410 C   0  0  0  0  0  0  0  0  0  0  0  0
   41.5350   25.0000   34.5260 C   0  0  0  0  0  0  0  0  0  0  0  0
   40.8660   24.3620   35.5510 C   0  0  0  0  0  0  0  0  0  0  0  0
   39.7180   23.6630   35.2120 C   0  0  0  0  0  0  0  0  0  0  0  0
   41.5520   25.4210   32.3650 H   0  0  0  0  0  0  0  0  0  0  0  0
   42.4430   25.5710   34.7000 H   0  0  0  0  0  0  0  0  0  0  0  0
   41.2320   24.4110   36.5730 H   0  0  0  0  0  0  0  0  0  0  0  0
   40.8040   21.5000   36.9470 O   0  0  0  0  0  0  0  0  0  0  0  0
   39.9530   22.3560   37.3070 C   0  0  0  0  0  0  0  0  0  0  0  0
   39.0310   22.9930   36.3460 C   0  0  1  0  0  3  0  0  0  0  0  0
   38.1570   23.9210   37.1250 C   0  0  0  0  0  3  0  0  0  0  0  0
   37.1240   23.8720   36.7270 H   0  0  0  0  0  0  0  0  0  0  0  0
   38.2390   23.2930   38.5180 C   0  0  0  0  0  3  0  0  0  0  0  0
   37.9570   23.9970   39.3200 H   0  0  0  0  0  0  0  0  0  0  0  0
   39.6550   22.9100   38.6020 N   0  0  0  0  0  0  0  0  0  0  0  0
   40.4080   22.9600   39.3510 H   0  0  0  0  0  0  0  0  0  0  0  0
  1 23  1  0  0  0  0
  3  2  1  0  0  0  0
  4  3  1  0  0  0  0
  4 16  1  0  0  0  0
  5  4  2  0  0  0  0
  6  7  2  0  0  0  0
  6  5  1  0  0  0  0
  7  8  1  0  0  0  0
  8  1  1  0  0  0  0
  8  3  2  0  0  0  0
  9  5  1  0  0  0  0
 10  6  1  0  0  0  0
 11  7  1  0  0  0  0
 12 18  1  0  0  0  0
 13 19  1  0  0  0  0
 13 12  2  0  0  0  0
 14 13  1  0  0  0  0
 15 14  2  0  0  0  0
 15 16  1  0  0  0  0
 16 17  2  0  0  0  0
 17 12  1  0  0  0  0
 20 14  1  0  0  0  0
 21 22  1  0  0  0  0
 22 27  1  0  0  0  0
 23 24  1  0  0  0  0
 23 22  2  0  0  0  0
 24 25  2  0  0  0  0
 25 29  1  0  0  0  0
 25 26  1  0  0  0  0
 26 30  1  0  0  0  0
 27 26  2  0  0  0  0
 28 24  1  0  0  0  0
 31 32  2  0  0  0  0
 32 38  1  0  0  0  0
 33 27  1  6  0  0  0
 33 34  1  0  0  0  0
 33 32  1  0  0  0  0
 34 36  1  0  0  0  0
 35 34  1  0  0  0  0
 36 38  1  0  0  0  0
 36 37  1  0  0  0  0
 38 39  1  0  0  0  0
M  END
>  <minimizedAffinity>
-6.1237216

$$$$

 OpenBabel03272505143D

 39 42  0  0  1  0  0  0  0  0999 V2000
   37.9880   25.9720   32.7240 S   0  0  0  0  0  0  0  0  0  0  0  0
   36.5130   27.5690   34.9710 Cl  0  0  0  0  0  0  0  0  0  0  0  0
   36.6020   28.2700   33.3770 C   0  0  0  0  0  0  0  0  0  0  0  0
   36.0110   29.5040   33.1880 C   0  0  0  0  0  0  0  0  0  0  0  0
   36.0790   30.0650   31.9220 C   0  0  0  0  0  0  0  0  0  0  0  0
   36.7120   29.4040   30.9090 C   0  0  0  0  0  0  0  0  0  0  0  0
   37.2860   28.1640   31.1700 C   0  0  0  0  0  0  0  0  0  0  0  0
   37.2640   27.5420   32.3870 C   0  0  0  0  0  0  0  0  0  0  0  0
   35.6300   31.0280   31.7330 H   0  0  0  0  0  0  0  0  0  0  0  0
   36.7460   29.8730   29.9330 H   0  0  0  0  0  0  0  0  0  0  0  0
   37.7820   27.6680   30.3360 H   0  0  0  0  0  0  0  0  0  0  0  0
   33.3420   30.5570   35.4330 C   0  0  0  0  0  0  0  0  0  0  0  0
   33.9930   31.3990   36.3620 C   0  0  0  0  0  0  0  0  0  0  0  0
   35.3680   31.5980   36.2010 C   0  0  0  0  0  0  0  0  0  0  0  0
   36.0030   30.9750   35.1650 N   0  0  0  0  0  0  0  0  0  0  0  0
   35.3370   30.1830   34.3100 C   0  0  0  0  0  0  0  0  0  0  0  0
   34.0290   29.9800   34.4440 N   0  0  0  0  0  0  0  0  0  0  0  0
   32.2770   30.3510   35.4880 H   0  0  0  0  0  0  0  0  0  0  0  0
   33.4280   31.8530   37.1470 H   0  0  0  0  0  0  0  0  0  0  0  0
   35.8840   32.2300   36.8870 H   0  0  0  0  0  0  0  0  0  0  0  0
   38.7240   23.0530   33.6420 Cl  0  0  0  0  0  0  0  0  0  0  0  0
   37.3390   23.3540   32.6140 C   0  0  0  0  0  0  0  0  0  0  0  0
   36.9470   24.6170   32.1650 C   0  0  0  0  0  0  0  0  0  0  0  0
   35.8370   24.7430   31.3580 C   0  0  0  0  0  0  0  0  0  0  0  0
   35.1180   23.6490   30.9930 C   0  0  0  0  0  0  0  0  0  0  0  0
   35.4620   22.3790   31.4090 C   0  0  0  0  0  0  0  0  0  0  0  0
   36.5800   22.2660   32.2210 C   0  0  0  0  0  0  0  0  0  0  0  0
   35.6460   25.7850   31.0810 H   0  0  0  0  0  0  0  0  0  0  0  0
   34.2580   23.8310   30.3550 H   0  0  0  0  0  0  0  0  0  0  0  0
   34.8770   21.5140   31.1090 H   0  0  0  0  0  0  0  0  0  0  0  0
   35.5240   20.8070   34.5920 O   0  0  0  0  0  0  0  0  0  0  0  0
   35.8950   20.2650   33.5180 C   0  0  0  0  0  0  0  0  0  0  0  0
   36.9120   20.8800   32.6440 C   0  0  1  0  0  3  0  0  0  0  0  0
   37.1180   19.9540   31.4890 C   0  0  0  0  0  3  0  0  0  0  0  0
   38.1950   19.9250   31.2300 H   0  0  0  0  0  0  0  0  0  0  0  0
   36.6620   18.6270   32.0990 C   0  0  0  0  0  3  0  0  0  0  0  0
   36.4010   17.8760   31.3360 H   0  0  0  0  0  0  0  0  0  0  0  0
   35.4910   19.0350   32.8870 N   0  0  0  0  0  0  0  0  0  0  0  0
   34.5200   18.6380   33.0570 H   0  0  0  0  0  0  0  0  0  0  0  0
  3  2  1  0  0  0  0
  4  3  1  0  0  0  0
  4 16  1  0  0  0  0
  5  4  2  0  0  0  0
  6  7  2  0  0  0  0
  6  5  1  0  0  0  0
  7  8  1  0  0  0  0
  8  1  1  0  0  0  0
  8  3  2  0  0  0  0
  9  5  1  0  0  0  0
 10  6  1  0  0  0  0
 11  7  1  0  0  0  0
 12 18  1  0  0  0  0
 12 13  1  0  0  0  0
 13 19  1  0  0  0  0
 14 13  2  0  0  0  0
 14 20  1  0  0  0  0
 15 14  1  0  0  0  0
 16 17  1  0  0  0  0
 16 15  2  0  0  0  0
 17 12  2  0  0  0  0
 22 21  1  0  0  0  0
 23 22  2  0  0  0  0
 23  1  1  0  0  0  0
 24 23  1  0  0  0  0
 25 24  2  0  0  0  0
 25 26  1  0  0  0  0
 26 27  2  0  0  0  0
 27 22  1  0  0  0  0
 28 24  1  0  0  0  0
 29 25  1  0  0  0  0
 30 26  1  0  0  0  0
 32 31  2  0  0  0  0
 33 27  1  6  0  0  0
 33 32  1  0  0  0  0
 34 36  1  0  0  0  0
 34 33  1  0  0  0  0
 35 34  1  0  0  0  0
 36 38  1  0  0  0  0
 37 36  1  0  0  0  0
 38 39  1  0  0  0  0
 38 32  1  0  0  0  0
M  END
>  <minimizedAffinity>
-5.9569006

$$$$

 OpenBabel03272505143D

 39 42  0  0  1  0  0  0  0  0999 V2000
   38.7920   27.1970   32.2730 S   0  0  0  0  0  0  0  0  0  0  0  0
   40.2700   25.8060   34.6510 Cl  0  0  0  0  0  0  0  0  0  0  0  0
   39.0380   24.9100   33.8020 C   0  0  0  0  0  0  0  0  0  0  0  0
   38.7770   23.6220   34.2270 C   0  0  0  0  0  0  0  0  0  0  0  0
   37.7980   22.9050   33.5550 C   0  0  0  0  0  0  0  0  0  0  0  0
   37.1270   23.4720   32.5100 C   0  0  0  0  0  0  0  0  0  0  0  0
   37.4410   24.7740   32.1350 C   0  0  0  0  0  0  0  0  0  0  0  0
   38.3890   25.5470   32.7430 C   0  0  0  0  0  0  0  0  0  0  0  0
   37.5650   21.8970   33.8560 H   0  0  0  0  0  0  0  0  0  0  0  0
   36.3680   22.8840   32.0070 H   0  0  0  0  0  0  0  0  0  0  0  0
   36.8830   25.1910   31.2960 H   0  0  0  0  0  0  0  0  0  0  0  0
   39.6720   22.8040   37.6620 C   0  0  0  0  0  0  0  0  0  0  0  0
   40.8470   22.0310   37.5320 C   0  0  0  0  0  0  0  0  0  0  0  0
   41.3260   21.7960   36.2380 C   0  0  0  0  0  0  0  0  0  0  0  0
   40.6400   22.3200   35.1800 N   0  0  0  0  0  0  0  0  0  0  0  0
   39.5270   23.0490   35.3600 C   0  0  0  0  0  0  0  0  0  0  0  0
   39.0540   23.2850   36.5810 N   0  0  0  0  0  0  0  0  0  0  0  0
   39.2360   23.0320   38.6300 H   0  0  0  0  0  0  0  0  0  0  0  0
   41.3290   21.6530   38.4070 H   0  0  0  0  0  0  0  0  0  0  0  0
   42.2110   21.2160   36.1110 H   0  0  0  0  0  0  0  0  0  0  0  0
   37.0590   27.7300   34.8460 Cl  0  0  0  0  0  0  0  0  0  0  0  0
   36.6120   28.4170   33.2980 C   0  0  0  0  0  0  0  0  0  0  0  0
   37.3270   28.2270   32.1130 C   0  0  0  0  0  0  0  0  0  0  0  0
   36.8880   28.8150   30.9470 C   0  0  0  0  0  0  0  0  0  0  0  0
   35.7640   29.5780   30.9370 C   0  0  0  0  0  0  0  0  0  0  0  0
   35.0200   29.7970   32.0790 C   0  0  0  0  0  0  0  0  0  0  0  0
   35.4730   29.2010   33.2460 C   0  0  0  0  0  0  0  0  0  0  0  0
   37.5400   28.5840   30.0990 H   0  0  0  0  0  0  0  0  0  0  0  0
   35.4820   30.0060   29.9790 H   0  0  0  0  0  0  0  0  0  0  0  0
   34.1240   30.4090   32.0540 H   0  0  0  0  0  0  0  0  0  0  0  0
   36.1250   31.0070   35.5220 O   0  0  0  0  0  0  0  0  0  0  0  0
   34.9610   30.7350   35.1260 C   0  0  0  0  0  0  0  0  0  0  0  0
   34.6430   29.4630   34.4500 C   0  0  1  0  0  3  0  0  0  0  0  0
   33.1780   29.4760   34.1530 C   0  0  0  0  0  3  0  0  0  0  0  0
   32.7600   28.4650   34.3250 H   0  0  0  0  0  0  0  0  0  0  0  0
   32.6790   30.4650   35.2080 C   0  0  0  0  0  3  0  0  0  0  0  0
   31.6930   30.8920   34.9600 H   0  0  0  0  0  0  0  0  0  0  0  0
   33.7350   31.4870   35.1980 N   0  0  0  0  0  0  0  0  0  0  0  0
   33.7570   32.5490   35.2320 H   0  0  0  0  0  0  0  0  0  0  0  0
  1  8  1  0  0  0  0
  3  4  1  0  0  0  0
  3  2  1  0  0  0  0
  4 16  1  0  0  0  0
  5  9  1  0  0  0  0
  5  4  2  0  0  0  0
  6  5  1  0  0  0  0
  7  6  2  0  0  0  0
  7  8  1  0  0  0  0
  8  3  2  0  0  0  0
 10  6  1  0  0  0  0
 11  7  1  0  0  0  0
 12 18  1  0  0  0  0
 13 12  1  0  0  0  0
 13 19  1  0  0  0  0
 14 13  2  0  0  0  0
 15 16  2  0  0  0  0
 15 14  1  0  0  0  0
 16 17  1  0  0  0  0
 17 12  2  0  0  0  0
 20 14  1  0  0  0  0
 22 21  1  0  0  0  0
 23  1  1  0  0  0  0
 23 22  2  0  0  0  0
 24 23  1  0  0  0  0
 25 24  2  0  0  0  0
 25 26  1  0  0  0  0
 26 27  2  0  0  0  0
 27 22  1  0  0  0  0
 28 24  1  0  0  0  0
 29 25  1  0  0  0  0
 30 26  1  0  0  0  0
 32 38  1  0  0  0  0
 32 31  2  0  0  0  0
 33 27  1  6  0  0  0
 33 32  1  0  0  0  0
 34 35  1  0  0  0  0
 34 33  1  0  0  0  0
 34 36  1  0  0  0  0
 37 36  1  0  0  0  0
 38 36  1  0  0  0  0
 38 39  1  0  0  0  0
M  END
>  <minimizedAffinity>
-5.81200886

$$$$

 OpenBabel03272505143D

 39 42  0  0  1  0  0  0  0  0999 V2000
   37.3010   26.2840   32.0750 S   0  0  0  0  0  0  0  0  0  0  0  0
   36.1550   27.7500   34.5870 Cl  0  0  0  0  0  0  0  0  0  0  0  0
   36.2210   28.6200   33.0770 C   0  0  0  0  0  0  0  0  0  0  0  0
   35.7590   29.9220   33.0690 C   0  0  0  0  0  0  0  0  0  0  0  0
   35.8100   30.6180   31.8710 C   0  0  0  0  0  0  0  0  0  0  0  0
   36.3020   30.0180   30.7470 C   0  0  0  0  0  0  0  0  0  0  0  0
   36.7500   28.7040   30.8270 C   0  0  0  0  0  0  0  0  0  0  0  0
   36.7350   27.9500   31.9670 C   0  0  0  0  0  0  0  0  0  0  0  0
   35.4590   31.6370   31.8230 H   0  0  0  0  0  0  0  0  0  0  0  0
   36.3270   30.5920   29.8280 H   0  0  0  0  0  0  0  0  0  0  0  0
   37.1350   28.2600   29.9090 H   0  0  0  0  0  0  0  0  0  0  0  0
   33.3840   30.8930   35.6550 C   0  0  0  0  0  0  0  0  0  0  0  0
   34.1660   31.6240   36.5770 C   0  0  0  0  0  0  0  0  0  0  0  0
   35.5270   31.7770   36.2910 C   0  0  0  0  0  0  0  0  0  0  0  0
   36.0240   31.2180   35.1490 N   0  0  0  0  0  0  0  0  0  0  0  0
   35.2360   30.5310   34.3060 C   0  0  0  0  0  0  0  0  0  0  0  0
   33.9390   30.3730   34.5570 N   0  0  0  0  0  0  0  0  0  0  0  0
   32.3210   30.7290   35.8030 H   0  0  0  0  0  0  0  0  0  0  0  0
   33.7070   32.0320   37.4500 H   0  0  0  0  0  0  0  0  0  0  0  0
   36.1400   32.3240   36.9700 H   0  0  0  0  0  0  0  0  0  0  0  0
   37.7590   23.5120   33.4930 Cl  0  0  0  0  0  0  0  0  0  0  0  0
   38.8390   24.8610   33.7770 C   0  0  0  0  0  0  0  0  0  0  0  0
   38.7030   26.1210   33.1870 C   0  0  0  0  0  0  0  0  0  0  0  0
   39.6110   27.1150   33.4800 C   0  0  0  0  0  0  0  0  0  0  0  0
   40.6390   26.8840   34.3390 C   0  0  0  0  0  0  0  0  0  0  0  0
   40.8180   25.6590   34.9490 C   0  0  0  0  0  0  0  0  0  0  0  0
   39.8990   24.6670   34.6450 C   0  0  0  0  0  0  0  0  0  0  0  0
   39.3860   28.0470   32.9510 H   0  0  0  0  0  0  0  0  0  0  0  0
   41.3100   27.7190   34.5190 H   0  0  0  0  0  0  0  0  0  0  0  0
   41.6450   25.4900   35.6330 H   0  0  0  0  0  0  0  0  0  0  0  0
   42.2440   22.8610   34.3200 O   0  0  0  0  0  0  0  0  0  0  0  0
   41.5490   22.9610   35.3650 C   0  0  0  0  0  0  0  0  0  0  0  0
   40.1310   23.3650   35.3240 C   0  0  1  0  0  3  0  0  0  0  0  0
   39.6270   23.3470   36.7310 C   0  0  0  0  0  3  0  0  0  0  0  0
   38.5940   22.9480   36.7450 H   0  0  0  0  0  0  0  0  0  0  0  0
   40.6060   22.3630   37.3740 C   0  0  0  0  0  3  0  0  0  0  0  0
   40.6450   22.4580   38.4730 H   0  0  0  0  0  0  0  0  0  0  0  0
   41.8810   22.7410   36.7490 N   0  0  0  0  0  0  0  0  0  0  0  0
   42.8800   22.8660   37.0880 H   0  0  0  0  0  0  0  0  0  0  0  0
  1 23  1  0  0  0  0
  3  2  1  0  0  0  0
  4  3  1  0  0  0  0
  4 16  1  0  0  0  0
  5  4  2  0  0  0  0
  6  7  2  0  0  0  0
  6  5  1  0  0  0  0
  7  8  1  0  0  0  0
  8  1  1  0  0  0  0
  8  3  2  0  0  0  0
  9  5  1  0  0  0  0
 10  6  1  0  0  0  0
 11  7  1  0  0  0  0
 12 18  1  0  0  0  0
 12 13  1  0  0  0  0
 13 19  1  0  0  0  0
 14 13  2  0  0  0  0
 14 20  1  0  0  0  0
 15 14  1  0  0  0  0
 16 17  1  0  0  0  0
 16 15  2  0  0  0  0
 17 12  2  0  0  0  0
 21 22  1  0  0  0  0
 22 27  1  0  0  0  0
 23 24  1  0  0  0  0
 23 22  2  0  0  0  0
 24 25  2  0  0  0  0
 25 29  1  0  0  0  0
 25 26  1  0  0  0  0
 26 30  1  0  0  0  0
 27 26  2  0  0  0  0
 28 24  1  0  0  0  0
 31 32  2  0  0  0  0
 32 38  1  0  0  0  0
 33 27  1  1  0  0  0
 33 32  1  0  0  0  0
 33 34  1  0  0  0  0
 34 35  1  0  0  0  0
 34 36  1  0  0  0  0
 36 37  1  0  0  0  0
 38 39  1  0  0  0  0
 38 36  1  0  0  0  0
M  END
>  <minimizedAffinity>
-5.79805136

$$$$

 OpenBabel03272505143D

 39 42  0  0  1  0  0  0  0  0999 V2000
   38.4000   26.5370   30.9600 S   0  0  0  0  0  0  0  0  0  0  0  0
   36.0970   27.9680   32.5170 Cl  0  0  0  0  0  0  0  0  0  0  0  0
   36.9580   28.8680   31.2970 C   0  0  0  0  0  0  0  0  0  0  0  0
   36.5740   30.1780   31.0800 C   0  0  0  0  0  0  0  0  0  0  0  0
   37.2560   30.8980   30.1100 C   0  0  0  0  0  0  0  0  0  0  0  0
   38.2680   30.3140   29.4050 C   0  0  0  0  0  0  0  0  0  0  0  0
   38.6020   28.9910   29.6750 C   0  0  0  0  0  0  0  0  0  0  0  0
   37.9820   28.2130   30.6130 C   0  0  0  0  0  0  0  0  0  0  0  0
   36.9870   31.9230   29.9100 H   0  0  0  0  0  0  0  0  0  0  0  0
   38.7790   30.9060   28.6550 H   0  0  0  0  0  0  0  0  0  0  0  0
   39.4160   28.5610   29.0910 H   0  0  0  0  0  0  0  0  0  0  0  0
   33.2030   31.2180   31.9860 C   0  0  0  0  0  0  0  0  0  0  0  0
   33.3650   31.8370   33.2450 C   0  0  0  0  0  0  0  0  0  0  0  0
   34.6580   31.8900   33.7770 C   0  0  0  0  0  0  0  0  0  0  0  0
   35.6850   31.3460   33.0590 N   0  0  0  0  0  0  0  0  0  0  0  0
   35.4750   30.7680   31.8650 C   0  0  0  0  0  0  0  0  0  0  0  0
   34.2540   30.7070   31.3400 N   0  0  0  0  0  0  0  0  0  0  0  0
   32.2330   31.1360   31.5040 H   0  0  0  0  0  0  0  0  0  0  0  0
   32.5140   32.2400   33.7470 H   0  0  0  0  0  0  0  0  0  0  0  0
   34.8100   32.3520   34.7250 H   0  0  0  0  0  0  0  0  0  0  0  0
   37.0830   24.3170   32.7600 Cl  0  0  0  0  0  0  0  0  0  0  0  0
   38.3770   25.3250   33.3730 C   0  0  0  0  0  0  0  0  0  0  0  0
   39.0110   26.3300   32.6380 C   0  0  0  0  0  0  0  0  0  0  0  0
   40.0220   27.0670   33.2170 C   0  0  0  0  0  0  0  0  0  0  0  0
   40.4080   26.8270   34.4970 C   0  0  0  0  0  0  0  0  0  0  0  0
   39.8140   25.8470   35.2670 C   0  0  0  0  0  0  0  0  0  0  0  0
   38.8000   25.1120   34.6730 C   0  0  0  0  0  0  0  0  0  0  0  0
   40.4280   27.8170   32.5300 H   0  0  0  0  0  0  0  0  0  0  0  0
   41.2100   27.4510   34.8810 H   0  0  0  0  0  0  0  0  0  0  0  0
   40.1350   25.6680   36.2890 H   0  0  0  0  0  0  0  0  0  0  0  0
   39.4650   22.2100   34.7330 O   0  0  0  0  0  0  0  0  0  0  0  0
   39.0360   22.8730   35.7140 C   0  0  0  0  0  0  0  0  0  0  0  0
   38.1900   24.0690   35.5380 C   0  0  1  0  0  3  0  0  0  0  0  0
   37.8510   24.5730   36.9030 C   0  0  0  0  0  3  0  0  0  0  0  0
   36.7990   24.9200   36.9150 H   0  0  0  0  0  0  0  0  0  0  0  0
   38.0180   23.2970   37.7310 C   0  0  0  0  0  3  0  0  0  0  0  0
   38.1570   23.5010   38.8060 H   0  0  0  0  0  0  0  0  0  0  0  0
   39.2160   22.6940   37.1300 N   0  0  0  0  0  0  0  0  0  0  0  0
   40.0850   22.2090   37.5050 H   0  0  0  0  0  0  0  0  0  0  0  0
  1 23  1  0  0  0  0
  3  2  1  0  0  0  0
  4  3  1  0  0  0  0
  4 16  1  0  0  0  0
  5  4  2  0  0  0  0
  6  7  2  0  0  0  0
  6  5  1  0  0  0  0
  7  8  1  0  0  0  0
  8  1  1  0  0  0  0
  8  3  2  0  0  0  0
  9  5  1  0  0  0  0
 10  6  1  0  0  0  0
 11  7  1  0  0  0  0
 12 13  1  0  0  0  0
 13 19  1  0  0  0  0
 13 14  2  0  0  0  0
 14 20  1  0  0  0  0
 15 14  1  0  0  0  0
 16 15  2  0  0  0  0
 17 16  1  0  0  0  0
 17 12  2  0  0  0  0
 18 12  1  0  0  0  0
 21 22  1  0  0  0  0
 22 27  1  0  0  0  0
 23 24  1  0  0  0  0
 23 22  2  0  0  0  0
 24 25  2  0  0  0  0
 25 29  1  0  0  0  0
 25 26  1  0  0  0  0
 26 30  1  0  0  0  0
 27 26  2  0  0  0  0
 28 24  1  0  0  0  0
 31 32  2  0  0  0  0
 32 38  1  0  0  0  0
 33 27  1  6  0  0  0
 33 32  1  0  0  0  0
 33 34  1  0  0  0  0
 34 35  1  0  0  0  0
 34 36  1  0  0  0  0
 36 37  1  0  0  0  0
 38 39  1  0  0  0  0
 38 36  1  0  0  0  0
M  END
>  <minimizedAffinity>
-5.58899784

$$$$

 OpenBabel03272505143D

 39 42  0  0  1  0  0  0  0  0999 V2000
   37.8220   25.4880   31.6730 S   0  0  0  0  0  0  0  0  0  0  0  0
   35.6860   27.7710   31.6570 Cl  0  0  0  0  0  0  0  0  0  0  0  0
   36.6580   27.5540   33.0880 C   0  0  0  0  0  0  0  0  0  0  0  0
   36.4330   28.4100   34.1490 C   0  0  0  0  0  0  0  0  0  0  0  0
   37.2040   28.2420   35.2900 C   0  0  0  0  0  0  0  0  0  0  0  0
   38.1500   27.2590   35.3410 C   0  0  0  0  0  0  0  0  0  0  0  0
   38.3240   26.4330   34.2360 C   0  0  0  0  0  0  0  0  0  0  0  0
   37.6060   26.5310   33.0770 C   0  0  0  0  0  0  0  0  0  0  0  0
   37.0580   28.8890   36.1400 H   0  0  0  0  0  0  0  0  0  0  0  0
   38.7330   27.1550   36.2490 H   0  0  0  0  0  0  0  0  0  0  0  0
   39.0880   25.6600   34.3170 H   0  0  0  0  0  0  0  0  0  0  0  0
   33.2020   30.0600   34.4750 C   0  0  0  0  0  0  0  0  0  0  0  0
   33.4150   31.3380   33.9110 C   0  0  0  0  0  0  0  0  0  0  0  0
   34.6920   31.6210   33.4160 C   0  0  0  0  0  0  0  0  0  0  0  0
   35.6570   30.6580   33.5030 N   0  0  0  0  0  0  0  0  0  0  0  0
   35.4010   29.4580   34.0500 C   0  0  0  0  0  0  0  0  0  0  0  0
   34.1940   29.1670   34.5260 N   0  0  0  0  0  0  0  0  0  0  0  0
   32.2400   29.7620   34.8810 H   0  0  0  0  0  0  0  0  0  0  0  0
   32.6110   32.0400   33.8780 H   0  0  0  0  0  0  0  0  0  0  0  0
   34.8810   32.5770   32.9840 H   0  0  0  0  0  0  0  0  0  0  0  0
   35.4810   23.4480   31.1600 Cl  0  0  0  0  0  0  0  0  0  0  0  0
   36.9900   22.9290   31.8830 C   0  0  0  0  0  0  0  0  0  0  0  0
   38.0740   23.7710   32.1420 C   0  0  0  0  0  0  0  0  0  0  0  0
   39.2170   23.2590   32.7140 C   0  0  0  0  0  0  0  0  0  0  0  0
   39.3030   21.9400   33.0310 C   0  0  0  0  0  0  0  0  0  0  0  0
   38.2610   21.0650   32.7960 C   0  0  0  0  0  0  0  0  0  0  0  0
   37.1170   21.5930   32.2190 C   0  0  0  0  0  0  0  0  0  0  0  0
   39.9840   24.0270   32.8610 H   0  0  0  0  0  0  0  0  0  0  0  0
   40.2370   21.6140   33.4800 H   0  0  0  0  0  0  0  0  0  0  0  0
   38.3450   20.0140   33.0560 H   0  0  0  0  0  0  0  0  0  0  0  0
   36.7150   19.8840   29.8140 O   0  0  0  0  0  0  0  0  0  0  0  0
   36.3500   19.5850   30.9820 C   0  0  0  0  0  0  0  0  0  0  0  0
   36.0220   20.6150   31.9860 C   0  0  1  0  0  3  0  0  0  0  0  0
   35.6070   19.9000   33.2300 C   0  0  0  0  0  3  0  0  0  0  0  0
   34.7600   20.4400   33.6980 H   0  0  0  0  0  0  0  0  0  0  0  0
   35.1530   18.5580   32.6530 C   0  0  0  0  0  3  0  0  0  0  0  0
   35.1320   17.7540   33.4090 H   0  0  0  0  0  0  0  0  0  0  0  0
   36.1650   18.3070   31.6180 N   0  0  0  0  0  0  0  0  0  0  0  0
   36.7180   17.4590   31.2930 H   0  0  0  0  0  0  0  0  0  0  0  0
  1 23  1  0  0  0  0
  1  8  1  0  0  0  0
  2  3  1  0  0  0  0
  3  4  1  0  0  0  0
  4  5  2  0  0  0  0
  5  6  1  0  0  0  0
  5  9  1  0  0  0  0
  6 10  1  0  0  0  0
  7 11  1  0  0  0  0
  7  6  2  0  0  0  0
  8  3  2  0  0  0  0
  8  7  1  0  0  0  0
 12 17  1  0  0  0  0
 12 18  1  0  0  0  0
 13 12  2  0  0  0  0
 14 15  2  0  0  0  0
 14 13  1  0  0  0  0
 15 16  1  0  0  0  0
 16  4  1  0  0  0  0
 16 17  2  0  0  0  0
 19 13  1  0  0  0  0
 20 14  1  0  0  0  0
 21 22  1  0  0  0  0
 22 23  2  0  0  0  0
 22 27  1  0  0  0  0
 23 24  1  0  0  0  0
 24 28  1  0  0  0  0
 24 25  2  0  0  0  0
 25 29  1  0  0  0  0
 26 25  1  0  0  0  0
 26 30  1  0  0  0  0
 27 26  2  0  0  0  0
 31 32  2  0  0  0  0
 32 38  1  0  0  0  0
 32 33  1  0  0  0  0
 33 27  1  1  0  0  0
 33 34  1  0  0  0  0
 34 35  1  0  0  0  0
 36 34  1  0  0  0  0
 36 37  1  0  0  0  0
 38 36  1  0  0  0  0
 39 38  1  0  0  0  0
M  END
>  <minimizedAffinity>
-5.5889616

$$$$

 OpenBabel03272505143D

 39 42  0  0  1  0  0  0  0  0999 V2000
   36.3770   27.2520   31.9070 S   0  0  0  0  0  0  0  0  0  0  0  0
   35.6510   30.1860   32.7080 Cl  0  0  0  0  0  0  0  0  0  0  0  0
   36.4060   29.9110   31.1610 C   0  0  0  0  0  0  0  0  0  0  0  0
   36.6450   31.0130   30.3620 C   0  0  0  0  0  0  0  0  0  0  0  0
   37.2460   30.8000   29.1310 C   0  0  0  0  0  0  0  0  0  0  0  0
   37.5800   29.5350   28.7380 C   0  0  0  0  0  0  0  0  0  0  0  0
   37.3100   28.4720   29.5920 C   0  0  0  0  0  0  0  0  0  0  0  0
   36.7230   28.5960   30.8210 C   0  0  0  0  0  0  0  0  0  0  0  0
   37.4500   31.6340   28.4780 H   0  0  0  0  0  0  0  0  0  0  0  0
   38.0480   29.4060   27.7700 H   0  0  0  0  0  0  0  0  0  0  0  0
   37.5920   27.4780   29.2430 H   0  0  0  0  0  0  0  0  0  0  0  0
   36.9160   34.2670   31.9760 C   0  0  0  0  0  0  0  0  0  0  0  0
   35.6630   34.8720   31.7330 C   0  0  0  0  0  0  0  0  0  0  0  0
   34.7220   34.1380   31.0030 C   0  0  0  0  0  0  0  0  0  0  0  0
   35.0600   32.8890   30.5680 N   0  0  0  0  0  0  0  0  0  0  0  0
   36.2680   32.3600   30.8260 C   0  0  0  0  0  0  0  0  0  0  0  0
   37.1770   33.0400   31.5190 N   0  0  0  0  0  0  0  0  0  0  0  0
   37.7000   34.7700   32.5350 H   0  0  0  0  0  0  0  0  0  0  0  0
   35.4710   35.8540   32.1060 H   0  0  0  0  0  0  0  0  0  0  0  0
   33.7680   34.5700   30.8050 H   0  0  0  0  0  0  0  0  0  0  0  0
   39.3090   26.2490   31.3570 Cl  0  0  0  0  0  0  0  0  0  0  0  0
   38.8080   26.7350   32.9630 C   0  0  0  0  0  0  0  0  0  0  0  0
   37.5270   27.1900   33.2870 C   0  0  0  0  0  0  0  0  0  0  0  0
   37.2370   27.5480   34.5860 C   0  0  0  0  0  0  0  0  0  0  0  0
   38.1840   27.4630   35.5570 C   0  0  0  0  0  0  0  0  0  0  0  0
   39.4630   27.0190   35.2900 C   0  0  0  0  0  0  0  0  0  0  0  0
   39.7430   26.6630   33.9800 C   0  0  0  0  0  0  0  0  0  0  0  0
   36.2010   27.8860   34.6980 H   0  0  0  0  0  0  0  0  0  0  0  0
   37.8770   27.7620   36.5540 H   0  0  0  0  0  0  0  0  0  0  0  0
   40.2090   26.9560   36.0770 H   0  0  0  0  0  0  0  0  0  0  0  0
   41.9140   28.1150   32.5490 O   0  0  0  0  0  0  0  0  0  0  0  0
   42.0920   27.2790   33.4740 C   0  0  0  0  0  0  0  0  0  0  0  0
   41.1320   26.1910   33.7390 C   0  0  1  0  0  3  0  0  0  0  0  0
   41.6780   25.3900   34.8760 C   0  0  0  0  0  3  0  0  0  0  0  0
   41.4890   24.3140   34.6910 H   0  0  0  0  0  0  0  0  0  0  0  0
   43.1690   25.7130   34.7660 C   0  0  0  0  0  3  0  0  0  0  0  0
   43.7180   25.5130   35.7020 H   0  0  0  0  0  0  0  0  0  0  0  0
   43.1510   27.1460   34.4390 N   0  0  0  0  0  0  0  0  0  0  0  0
   43.7100   27.9970   34.7460 H   0  0  0  0  0  0  0  0  0  0  0  0
  1 23  1  0  0  0  0
  3  2  1  0  0  0  0
  4 16  1  0  0  0  0
  4  3  2  0  0  0  0
  5  4  1  0  0  0  0
  6  5  2  0  0  0  0
  6  7  1  0  0  0  0
  7  8  2  0  0  0  0
  8  3  1  0  0  0  0
  8  1  1  0  0  0  0
  9  5  1  0  0  0  0
 10  6  1  0  0  0  0
 11  7  1  0  0  0  0
 12 18  1  0  0  0  0
 13 12  1  0  0  0  0
 13 19  1  0  0  0  0
 14 13  2  0  0  0  0
 15 16  2  0  0  0  0
 15 14  1  0  0  0  0
 16 17  1  0  0  0  0
 17 12  2  0  0  0  0
 20 14  1  0  0  0  0
 21 22  1  0  0  0  0
 22 23  2  0  0  0  0
 22 27  1  0  0  0  0
 23 24  1  0  0  0  0
 24 28  1  0  0  0  0
 24 25  2  0  0  0  0
 25 29  1  0  0  0  0
 26 25  1  0  0  0  0
 26 30  1  0  0  0  0
 27 26  2  0  0  0  0
 31 32  2  0  0  0  0
 32 33  1  0  0  0  0
 32 38  1  0  0  0  0
 33 27  1  1  0  0  0
 33 34  1  0  0  0  0
 35 34  1  0  0  0  0
 36 34  1  0  0  0  0
 36 37  1  0  0  0  0
 38 39  1  0  0  0  0
 38 36  1  0  0  0  0
M  END
>  <minimizedAffinity>
-5.55096912

$$$$

 OpenBabel03272505143D

 39 42  0  0  1  0  0  0  0  0999 V2000
   38.0880   26.7290   31.8320 S   0  0  0  0  0  0  0  0  0  0  0  0
   37.2000   29.3160   30.3180 Cl  0  0  0  0  0  0  0  0  0  0  0  0
   36.6790   29.1000   31.9680 C   0  0  0  0  0  0  0  0  0  0  0  0
   35.8950   30.0910   32.5250 C   0  0  0  0  0  0  0  0  0  0  0  0
   35.4780   29.9240   33.8370 C   0  0  0  0  0  0  0  0  0  0  0  0
   35.8420   28.8110   34.5380 C   0  0  0  0  0  0  0  0  0  0  0  0
   36.6330   27.8520   33.9140 C   0  0  0  0  0  0  0  0  0  0  0  0
   37.0850   27.9390   32.6270 C   0  0  0  0  0  0  0  0  0  0  0  0
   34.8640   30.6750   34.3080 H   0  0  0  0  0  0  0  0  0  0  0  0
   35.4980   28.7120   35.5610 H   0  0  0  0  0  0  0  0  0  0  0  0
   36.9030   26.9770   34.5070 H   0  0  0  0  0  0  0  0  0  0  0  0
   33.8760   32.3530   30.5050 C   0  0  0  0  0  0  0  0  0  0  0  0
   34.7420   33.4380   30.2430 C   0  0  0  0  0  0  0  0  0  0  0  0
   36.0350   33.3770   30.7750 C   0  0  0  0  0  0  0  0  0  0  0  0
   36.3880   32.2830   31.5120 N   0  0  0  0  0  0  0  0  0  0  0  0
   35.5250   31.2780   31.7320 C   0  0  0  0  0  0  0  0  0  0  0  0
   34.2920   31.3150   31.2350 N   0  0  0  0  0  0  0  0  0  0  0  0
   32.8580   32.3240   30.1290 H   0  0  0  0  0  0  0  0  0  0  0  0
   34.3930   34.2600   29.6570 H   0  0  0  0  0  0  0  0  0  0  0  0
   36.7080   34.1820   30.5920 H   0  0  0  0  0  0  0  0  0  0  0  0
   39.8000   26.4470   34.4580 Cl  0  0  0  0  0  0  0  0  0  0  0  0
   38.8440   25.1090   33.8550 C   0  0  0  0  0  0  0  0  0  0  0  0
   38.0590   25.1550   32.7000 C   0  0  0  0  0  0  0  0  0  0  0  0
   37.3440   24.0430   32.3140 C   0  0  0  0  0  0  0  0  0  0  0  0
   37.3930   22.8990   33.0460 C   0  0  0  0  0  0  0  0  0  0  0  0
   38.1520   22.8000   34.1940 C   0  0  0  0  0  0  0  0  0  0  0  0
   38.8670   23.9260   34.5720 C   0  0  0  0  0  0  0  0  0  0  0  0
   36.7760   24.2180   31.3950 H   0  0  0  0  0  0  0  0  0  0  0  0
   36.8020   22.0660   32.6750 H   0  0  0  0  0  0  0  0  0  0  0  0
   38.1810   21.8780   34.7680 H   0  0  0  0  0  0  0  0  0  0  0  0
   38.0860   24.7370   37.3290 O   0  0  0  0  0  0  0  0  0  0  0  0
   38.8620   23.7850   37.0490 C   0  0  0  0  0  0  0  0  0  0  0  0
   39.6690   23.7740   35.8140 C   0  0  1  0  0  3  0  0  0  0  0  0
   40.4810   22.5190   35.8310 C   0  0  0  0  0  3  0  0  0  0  0  0
   41.4940   22.7320   35.4350 H   0  0  0  0  0  0  0  0  0  0  0  0
   40.5260   22.2260   37.3310 C   0  0  0  0  0  3  0  0  0  0  0  0
   40.7720   21.1730   37.5520 H   0  0  0  0  0  0  0  0  0  0  0  0
   39.1610   22.5670   37.7550 N   0  0  0  0  0  0  0  0  0  0  0  0
   38.4430   22.1340   38.4080 H   0  0  0  0  0  0  0  0  0  0  0  0
  1  8  1  0  0  0  0
  1 23  1  0  0  0  0
  2  3  1  0  0  0  0
  3  4  2  0  0  0  0
  3  8  1  0  0  0  0
  4  5  1  0  0  0  0
  5  9  1  0  0  0  0
  5  6  2  0  0  0  0
  6 10  1  0  0  0  0
  7 11  1  0  0  0  0
  7  6  1  0  0  0  0
  8  7  2  0  0  0  0
 12 17  1  0  0  0  0
 13 12  2  0  0  0  0
 13 14  1  0  0  0  0
 14 15  2  0  0  0  0
 15 16  1  0  0  0  0
 16  4  1  0  0  0  0
 17 16  2  0  0  0  0
 18 12  1  0  0  0  0
 19 13  1  0  0  0  0
 20 14  1  0  0  0  0
 22 21  1  0  0  0  0
 22 27  1  0  0  0  0
 23 22  2  0  0  0  0
 24 23  1  0  0  0  0
 24 25  2  0  0  0  0
 25 26  1  0  0  0  0
 26 27  2  0  0  0  0
 26 30  1  0  0  0  0
 28 24  1  0  0  0  0
 29 25  1  0  0  0  0
 32 31  2  0  0  0  0
 32 38  1  0  0  0  0
 33 27  1  6  0  0  0
 33 34  1  0  0  0  0
 33 32  1  0  0  0  0
 34 36  1  0  0  0  0
 35 34  1  0  0  0  0
 36 37  1  0  0  0  0
 36 38  1  0  0  0  0
 38 39  1  0  0  0  0
M  END
>  <minimizedAffinity>
-5.53797913

$$$$

 OpenBabel03272505143D

 39 42  0  0  1  0  0  0  0  0999 V2000
   35.9260   29.2030   32.9850 S   0  0  0  0  0  0  0  0  0  0  0  0
   36.2530   26.6270   31.2440 Cl  0  0  0  0  0  0  0  0  0  0  0  0
   36.8740   26.6120   32.8730 C   0  0  0  0  0  0  0  0  0  0  0  0
   37.4820   25.4520   33.3140 C   0  0  0  0  0  0  0  0  0  0  0  0
   37.9770   25.4340   34.6090 C   0  0  0  0  0  0  0  0  0  0  0  0
   37.8560   26.5360   35.4060 C   0  0  0  0  0  0  0  0  0  0  0  0
   37.2330   27.6700   34.8980 C   0  0  0  0  0  0  0  0  0  0  0  0
   36.7190   27.7700   33.6350 C   0  0  0  0  0  0  0  0  0  0  0  0
   38.4590   24.5480   34.9900 H   0  0  0  0  0  0  0  0  0  0  0  0
   38.2560   26.4870   36.4130 H   0  0  0  0  0  0  0  0  0  0  0  0
   37.1560   28.5290   35.5650 H   0  0  0  0  0  0  0  0  0  0  0  0
   38.9380   23.0670   30.9770 C   0  0  0  0  0  0  0  0  0  0  0  0
   37.8920   22.1480   30.7340 C   0  0  0  0  0  0  0  0  0  0  0  0
   36.6760   22.3650   31.3900 C   0  0  0  0  0  0  0  0  0  0  0  0
   36.5640   23.4420   32.2220 N   0  0  0  0  0  0  0  0  0  0  0  0
   37.5900   24.2850   32.4190 C   0  0  0  0  0  0  0  0  0  0  0  0
   38.7560   24.0980   31.8050 N   0  0  0  0  0  0  0  0  0  0  0  0
   39.9120   22.9690   30.5070 H   0  0  0  0  0  0  0  0  0  0  0  0
   38.0550   21.3280   30.0690 H   0  0  0  0  0  0  0  0  0  0  0  0
   35.8700   21.6880   31.2250 H   0  0  0  0  0  0  0  0  0  0  0  0
   32.7880   29.4140   33.0840 Cl  0  0  0  0  0  0  0  0  0  0  0  0
   33.7860   30.2490   34.2560 C   0  0  0  0  0  0  0  0  0  0  0  0
   35.1820   30.2060   34.2790 C   0  0  0  0  0  0  0  0  0  0  0  0
   35.8730   30.9010   35.2470 C   0  0  0  0  0  0  0  0  0  0  0  0
   35.2100   31.6310   36.1820 C   0  0  0  0  0  0  0  0  0  0  0  0
   33.8310   31.7080   36.2040 C   0  0  0  0  0  0  0  0  0  0  0  0
   33.1480   31.0030   35.2250 C   0  0  0  0  0  0  0  0  0  0  0  0
   36.9560   30.7790   35.1470 H   0  0  0  0  0  0  0  0  0  0  0  0
   35.8250   32.1510   36.9100 H   0  0  0  0  0  0  0  0  0  0  0  0
   33.3160   32.2960   36.9580 H   0  0  0  0  0  0  0  0  0  0  0  0
   31.2330   28.9740   36.2640 O   0  0  0  0  0  0  0  0  0  0  0  0
   31.0450   30.2190   36.2800 C   0  0  0  0  0  0  0  0  0  0  0  0
   31.6680   31.1150   35.2870 C   0  0  1  0  0  3  0  0  0  0  0  0
   31.2030   32.5020   35.5930 C   0  0  0  0  0  3  0  0  0  0  0  0
   31.0080   33.0410   34.6450 H   0  0  0  0  0  0  0  0  0  0  0  0
   29.8990   32.2100   36.3380 C   0  0  0  0  0  3  0  0  0  0  0  0
   29.5620   33.0600   36.9560 H   0  0  0  0  0  0  0  0  0  0  0  0
   30.2650   31.0490   37.1600 N   0  0  0  0  0  0  0  0  0  0  0  0
   30.0810   30.7460   38.1620 H   0  0  0  0  0  0  0  0  0  0  0  0
  1  8  1  0  0  0  0
  1 23  1  0  0  0  0
  2  3  1  0  0  0  0
  3  4  2  0  0  0  0
  3  8  1  0  0  0  0
  4  5  1  0  0  0  0
  5  9  1  0  0  0  0
  5  6  2  0  0  0  0
  6 10  1  0  0  0  0
  7  6  1  0  0  0  0
  7 11  1  0  0  0  0
  8  7  2  0  0  0  0
 12 17  1  0  0  0  0
 13 12  2  0  0  0  0
 13 14  1  0  0  0  0
 14 15  2  0  0  0  0
 15 16  1  0  0  0  0
 16  4  1  0  0  0  0
 17 16  2  0  0  0  0
 18 12  1  0  0  0  0
 19 13  1  0  0  0  0
 20 14  1  0  0  0  0
 21 22  1  0  0  0  0
 22 23  2  0  0  0  0
 22 27  1  0  0  0  0
 23 24  1  0  0  0  0
 24 25  2  0  0  0  0
 25 26  1  0  0  0  0
 25 29  1  0  0  0  0
 26 30  1  0  0  0  0
 27 26  2  0  0  0  0
 28 24  1  0  0  0  0
 31 32  2  0  0  0  0
 32 38  1  0  0  0  0
 33 27  1  1  0  0  0
 33 34  1  0  0  0  0
 33 32  1  0  0  0  0
 34 36  1  0  0  0  0
 35 34  1  0  0  0  0
 36 37  1  0  0  0  0
 36 38  1  0  0  0  0
 38 39  1  0  0  0  0
M  END
>  <minimizedAffinity>
-5.51358557

$$$$
