
 OpenBabel03272505173D

 42 45  0  0  1  0  0  0  0  0999 V2000
   39.4130   24.4330   34.3750 N   0  0  0  0  0  0  0  0  0  0  0  0
   40.7150   25.0480   34.5050 C   0  0  0  0  0  0  0  0  0  0  0  0
   41.6180   24.0950   35.1860 C   0  0  0  0  0  0  0  0  0  0  0  0
   41.4860   22.8070   34.6410 N   0  0  0  0  0  0  0  0  0  0  0  0
   40.2020   22.2370   34.8670 C   0  0  0  0  0  0  0  0  0  0  0  0
   39.1550   23.2470   35.1400 C   0  0  1  0  0  0  0  0  0  0  0  0
   40.5620   25.9980   35.0970 H   0  0  0  0  0  0  0  0  0  0  0  0
   41.0470   25.3120   33.4950 H   0  0  0  0  0  0  0  0  0  0  0  0
   41.7770   24.2090   36.2600 H   0  0  0  0  0  0  0  0  0  0  0  0
   42.6390   24.4150   34.7920 H   0  0  0  0  0  0  0  0  0  0  0  0
   42.2910   22.1740   34.7640 H   0  0  0  0  0  0  0  0  0  0  0  0
   40.3070   21.5870   35.7850 H   0  0  0  0  0  0  0  0  0  0  0  0
   40.0360   21.5270   34.0370 H   0  0  0  0  0  0  0  0  0  0  0  0
   38.2840   22.7550   34.6260 H   0  0  0  0  0  0  0  0  0  0  0  0
   38.6950   27.2590   34.7440 Cl  0  0  0  0  0  0  0  0  0  0  0  0
   37.9070   26.2100   33.6200 C   0  0  0  0  0  0  0  0  0  0  0  0
   36.8900   26.6790   32.8560 C   0  0  0  0  0  0  0  0  0  0  0  0
   36.3380   25.7670   31.9590 C   0  0  0  0  0  0  0  0  0  0  0  0
   36.7440   24.4780   31.8090 C   0  0  0  0  0  0  0  0  0  0  0  0
   37.7850   24.0440   32.6120 C   0  0  0  0  0  0  0  0  0  0  0  0
   38.3710   24.9130   33.5250 C   0  0  0  0  0  0  0  0  0  0  0  0
   35.5150   26.1110   31.3260 H   0  0  0  0  0  0  0  0  0  0  0  0
   36.2720   23.8190   31.0920 H   0  0  0  0  0  0  0  0  0  0  0  0
   38.1600   23.0370   32.5510 H   0  0  0  0  0  0  0  0  0  0  0  0
   36.0990   30.2750   32.1070 C   0  0  0  0  0  0  0  0  0  0  0  0
   36.5570   28.9610   31.9500 C   0  0  0  0  0  0  0  0  0  0  0  0
   36.4430   28.0450   32.9960 C   0  0  0  0  0  0  0  0  0  0  0  0
   35.8740   28.4900   34.1600 N   0  0  0  0  0  0  0  0  0  0  0  0
   35.4380   29.7550   34.2990 C   0  0  0  0  0  0  0  0  0  0  0  0
   35.5470   30.6480   33.2830 N   0  0  0  0  0  0  0  0  0  0  0  0
   36.1430   31.0510   31.3580 H   0  0  0  0  0  0  0  0  0  0  0  0
   36.9930   28.8460   30.9800 H   0  0  0  0  0  0  0  0  0  0  0  0
   35.0230   29.9160   35.2840 H   0  0  0  0  0  0  0  0  0  0  0  0
   40.6530   22.1220   37.7150 O   0  0  0  0  0  0  0  0  0  0  0  0
   39.5690   22.7290   37.4480 C   0  0  0  0  0  0  0  0  0  0  0  0
   38.5840   23.3490   36.4790 C   0  0  1  0  0  3  0  0  0  0  0  0
   38.2960   24.6060   37.1580 C   0  0  0  0  0  3  0  0  0  0  0  0
   39.2580   25.1620   37.3650 H   0  0  0  0  0  0  0  0  0  0  0  0
   37.9270   24.0970   38.5640 C   0  0  0  0  0  3  0  0  0  0  0  0
   38.1050   24.8810   39.3160 H   0  0  0  0  0  0  0  0  0  0  0  0
   38.8770   22.9800   38.6920 N   0  0  0  0  0  0  0  0  0  0  0  0
   38.8490   22.5930   39.6840 H   0  0  0  0  0  0  0  0  0  0  0  0
  1  2  1  0  0  0  0
  1  6  1  0  0  0  0
  2  7  1  0  0  0  0
  2  3  1  0  0  0  0
  3  9  1  0  0  0  0
  4 11  1  0  0  0  0
  4  5  1  0  0  0  0
  4  3  1  0  0  0  0
  5  6  1  0  0  0  0
  5 12  1  0  0  0  0
  6 14  1  6  0  0  0
  6 36  1  0  0  0  0
  8  2  1  0  0  0  0
 10  3  1  0  0  0  0
 13  5  1  0  0  0  0
 16 15  1  0  0  0  0
 17 27  1  0  0  0  0
 17 16  2  0  0  0  0
 18 17  1  0  0  0  0
 19 18  2  0  0  0  0
 19 20  1  0  0  0  0
 20 21  2  0  0  0  0
 21 16  1  0  0  0  0
 21  1  1  0  0  0  0
 22 18  1  0  0  0  0
 23 19  1  0  0  0  0
 24 20  1  0  0  0  0
 25 30  1  0  0  0  0
 26 25  2  0  0  0  0
 26 27  1  0  0  0  0
 27 28  2  0  0  0  0
 28 29  1  0  0  0  0
 29 33  1  0  0  0  0
 30 29  2  0  0  0  0
 31 25  1  0  0  0  0
 32 26  1  0  0  0  0
 35 34  2  0  0  0  0
 35 41  1  0  0  0  0
 36 37  1  1  0  0  0
 36 35  1  0  0  0  0
 37 38  1  0  0  0  0
 37 39  1  0  0  0  0
 39 41  1  0  0  0  0
 39 40  1  0  0  0  0
 41 42  1  0  0  0  0
M  END
>  <minimizedAffinity>
-6.25076962

$$$$

 OpenBabel03272505173D

 42 45  0  0  1  0  0  0  0  0999 V2000
   38.6880   24.4700   34.1300 N   0  0  0  0  0  0  0  0  0  0  0  0
   39.3440   24.1580   32.8790 C   0  0  0  0  0  0  0  0  0  0  0  0
   39.3230   22.6920   32.6910 C   0  0  0  0  0  0  0  0  0  0  0  0
   38.0520   22.1700   32.9810 N   0  0  0  0  0  0  0  0  0  0  0  0
   37.6910   22.3150   34.3500 C   0  0  0  0  0  0  0  0  0  0  0  0
   38.4390   23.3890   35.0400 C   0  0  1  0  0  0  0  0  0  0  0  0
   40.3930   24.5710   32.9580 H   0  0  0  0  0  0  0  0  0  0  0  0
   38.8100   24.7040   32.0930 H   0  0  0  0  0  0  0  0  0  0  0  0
   40.2120   22.1220   32.9660 H   0  0  0  0  0  0  0  0  0  0  0  0
   39.3620   22.6000   31.5550 H   0  0  0  0  0  0  0  0  0  0  0  0
   37.8180   21.2660   32.5440 H   0  0  0  0  0  0  0  0  0  0  0  0
   37.9540   21.3340   34.8460 H   0  0  0  0  0  0  0  0  0  0  0  0
   36.5870   22.3540   34.3700 H   0  0  0  0  0  0  0  0  0  0  0  0
   37.6310   23.7680   35.7250 H   0  0  0  0  0  0  0  0  0  0  0  0
   36.9150   25.8210   32.2130 Cl  0  0  0  0  0  0  0  0  0  0  0  0
   37.4510   26.5380   33.6910 C   0  0  0  0  0  0  0  0  0  0  0  0
   37.0610   27.7950   34.0140 C   0  0  0  0  0  0  0  0  0  0  0  0
   37.5200   28.2740   35.2390 C   0  0  0  0  0  0  0  0  0  0  0  0
   38.3090   27.5810   36.1010 C   0  0  0  0  0  0  0  0  0  0  0  0
   38.6830   26.3010   35.7290 C   0  0  0  0  0  0  0  0  0  0  0  0
   38.2540   25.7740   34.5150 C   0  0  0  0  0  0  0  0  0  0  0  0
   37.2240   29.2860   35.5320 H   0  0  0  0  0  0  0  0  0  0  0  0
   38.6320   28.0120   37.0400 H   0  0  0  0  0  0  0  0  0  0  0  0
   39.3080   25.6910   36.3580 H   0  0  0  0  0  0  0  0  0  0  0  0
   34.1250   29.6460   32.5720 C   0  0  0  0  0  0  0  0  0  0  0  0
   34.9130   28.8970   33.4550 C   0  0  0  0  0  0  0  0  0  0  0  0
   36.2200   28.5500   33.1140 C   0  0  0  0  0  0  0  0  0  0  0  0
   36.6830   28.9700   31.8950 N   0  0  0  0  0  0  0  0  0  0  0  0
   35.9170   29.6890   31.0540 C   0  0  0  0  0  0  0  0  0  0  0  0
   34.6450   30.0280   31.3840 N   0  0  0  0  0  0  0  0  0  0  0  0
   33.1080   29.9600   32.7470 H   0  0  0  0  0  0  0  0  0  0  0  0
   34.3410   28.6510   34.3250 H   0  0  0  0  0  0  0  0  0  0  0  0
   36.4530   29.9250   30.1470 H   0  0  0  0  0  0  0  0  0  0  0  0
   37.7200   23.2240   38.1370 O   0  0  0  0  0  0  0  0  0  0  0  0
   38.7370   23.0450   37.3980 C   0  0  0  0  0  0  0  0  0  0  0  0
   39.4320   23.0410   36.0520 C   0  0  1  0  0  3  0  0  0  0  0  0
   40.1310   21.7640   36.1150 C   0  0  0  0  0  3  0  0  0  0  0  0
   39.3970   20.9330   36.3350 H   0  0  0  0  0  0  0  0  0  0  0  0
   40.8570   21.8990   37.4660 C   0  0  0  0  0  3  0  0  0  0  0  0
   41.0700   20.9040   37.8900 H   0  0  0  0  0  0  0  0  0  0  0  0
   39.8340   22.6220   38.2390 N   0  0  0  0  0  0  0  0  0  0  0  0
   40.1260   22.6800   39.2620 H   0  0  0  0  0  0  0  0  0  0  0  0
  1 21  1  0  0  0  0
  1  6  1  0  0  0  0
  2  7  1  0  0  0  0
  2  1  1  0  0  0  0
  3  2  1  0  0  0  0
  3  9  1  0  0  0  0
  3  4  1  0  0  0  0
  4  5  1  0  0  0  0
  5 13  1  0  0  0  0
  5 12  1  0  0  0  0
  5  6  1  0  0  0  0
  6 14  1  1  0  0  0
  6 36  1  0  0  0  0
  8  2  1  0  0  0  0
 10  3  1  0  0  0  0
 11  4  1  0  0  0  0
 15 16  1  0  0  0  0
 16 17  2  0  0  0  0
 16 21  1  0  0  0  0
 17 18  1  0  0  0  0
 18 22  1  0  0  0  0
 18 19  2  0  0  0  0
 19 23  1  0  0  0  0
 20 19  1  0  0  0  0
 20 24  1  0  0  0  0
 21 20  2  0  0  0  0
 25 31  1  0  0  0  0
 25 26  1  0  0  0  0
 26 32  1  0  0  0  0
 27 26  2  0  0  0  0
 27 17  1  0  0  0  0
 28 27  1  0  0  0  0
 29 30  1  0  0  0  0
 29 28  2  0  0  0  0
 30 25  2  0  0  0  0
 33 29  1  0  0  0  0
 35 34  2  0  0  0  0
 35 41  1  0  0  0  0
 36 37  1  6  0  0  0
 36 35  1  0  0  0  0
 37 38  1  0  0  0  0
 37 39  1  0  0  0  0
 39 40  1  0  0  0  0
 39 41  1  0  0  0  0
 41 42  1  0  0  0  0
M  END
>  <minimizedAffinity>
-5.98117733

$$$$

 OpenBabel03272505173D

 42 45  0  0  1  0  0  0  0  0999 V2000
   37.9700   23.1150   34.0460 N   0  0  0  0  0  0  0  0  0  0  0  0
   37.7400   24.4100   33.4470 C   0  0  0  0  0  0  0  0  0  0  0  0
   38.8230   25.3230   33.8730 C   0  0  0  0  0  0  0  0  0  0  0  0
   40.0750   24.6960   33.7650 N   0  0  0  0  0  0  0  0  0  0  0  0
   40.2250   23.5960   34.6550 C   0  0  0  0  0  0  0  0  0  0  0  0
   38.9330   23.0310   35.1060 C   0  0  1  0  0  0  0  0  0  0  0  0
   36.7220   24.7490   33.8000 H   0  0  0  0  0  0  0  0  0  0  0  0
   37.7030   24.2580   32.3620 H   0  0  0  0  0  0  0  0  0  0  0  0
   38.6310   25.9980   34.7090 H   0  0  0  0  0  0  0  0  0  0  0  0
   38.8550   26.0670   33.0100 H   0  0  0  0  0  0  0  0  0  0  0  0
   40.8920   25.3190   33.6730 H   0  0  0  0  0  0  0  0  0  0  0  0
   40.7630   24.0020   35.5620 H   0  0  0  0  0  0  0  0  0  0  0  0
   40.9520   22.9160   34.1760 H   0  0  0  0  0  0  0  0  0  0  0  0
   39.2150   21.9430   35.1560 H   0  0  0  0  0  0  0  0  0  0  0  0
   39.0500   21.8460   31.6250 Cl  0  0  0  0  0  0  0  0  0  0  0  0
   37.6970   21.2310   32.5060 C   0  0  0  0  0  0  0  0  0  0  0  0
   37.0680   20.1080   32.0810 C   0  0  0  0  0  0  0  0  0  0  0  0
   36.0080   19.6730   32.8730 C   0  0  0  0  0  0  0  0  0  0  0  0
   35.5800   20.2870   34.0090 C   0  0  0  0  0  0  0  0  0  0  0  0
   36.2530   21.4300   34.4030 C   0  0  0  0  0  0  0  0  0  0  0  0
   37.3180   21.9090   33.6470 C   0  0  0  0  0  0  0  0  0  0  0  0
   35.4760   18.7700   32.5600 H   0  0  0  0  0  0  0  0  0  0  0  0
   34.7480   19.8960   34.5810 H   0  0  0  0  0  0  0  0  0  0  0  0
   35.9730   21.9710   35.2900 H   0  0  0  0  0  0  0  0  0  0  0  0
   37.2080   18.8330   28.5480 C   0  0  0  0  0  0  0  0  0  0  0  0
   36.7520   19.4770   29.7050 C   0  0  0  0  0  0  0  0  0  0  0  0
   37.5060   19.4380   30.8780 C   0  0  0  0  0  0  0  0  0  0  0  0
   38.6900   18.7500   30.8400 N   0  0  0  0  0  0  0  0  0  0  0  0
   39.1180   18.1350   29.7230 C   0  0  0  0  0  0  0  0  0  0  0  0
   38.3870   18.1720   28.5800 N   0  0  0  0  0  0  0  0  0  0  0  0
   36.6980   18.8090   27.5990 H   0  0  0  0  0  0  0  0  0  0  0  0
   35.7960   19.9180   29.5170 H   0  0  0  0  0  0  0  0  0  0  0  0
   40.0680   17.6470   29.8890 H   0  0  0  0  0  0  0  0  0  0  0  0
   40.7350   22.0930   37.5570 O   0  0  0  0  0  0  0  0  0  0  0  0
   39.6150   22.6650   37.3790 C   0  0  0  0  0  0  0  0  0  0  0  0
   38.5140   23.2080   36.4930 C   0  0  1  0  0  3  0  0  0  0  0  0
   38.2760   24.5010   37.1220 C   0  0  0  0  0  3  0  0  0  0  0  0
   39.2430   25.0830   37.1850 H   0  0  0  0  0  0  0  0  0  0  0  0
   38.0790   24.0750   38.5890 C   0  0  0  0  0  3  0  0  0  0  0  0
   38.3230   24.9080   39.2680 H   0  0  0  0  0  0  0  0  0  0  0  0
   39.0620   22.9830   38.6770 N   0  0  0  0  0  0  0  0  0  0  0  0
   39.1540   22.6580   39.6870 H   0  0  0  0  0  0  0  0  0  0  0  0
  1  6  1  0  0  0  0
  2  7  1  0  0  0  0
  2  3  1  0  0  0  0
  2  1  1  0  0  0  0
  3  9  1  0  0  0  0
  4  3  1  0  0  0  0
  4  5  1  0  0  0  0
  5  6  1  0  0  0  0
  5 12  1  0  0  0  0
  6 14  1  6  0  0  0
  6 36  1  0  0  0  0
  8  2  1  0  0  0  0
 10  3  1  0  0  0  0
 11  4  1  0  0  0  0
 13  5  1  0  0  0  0
 15 16  1  0  0  0  0
 16 21  1  0  0  0  0
 17 16  2  0  0  0  0
 17 18  1  0  0  0  0
 18 19  2  0  0  0  0
 19 20  1  0  0  0  0
 19 23  1  0  0  0  0
 20 24  1  0  0  0  0
 21  1  1  0  0  0  0
 21 20  2  0  0  0  0
 22 18  1  0  0  0  0
 25 30  2  0  0  0  0
 25 26  1  0  0  0  0
 26 27  2  0  0  0  0
 27 17  1  0  0  0  0
 28 27  1  0  0  0  0
 29 33  1  0  0  0  0
 29 28  2  0  0  0  0
 30 29  1  0  0  0  0
 31 25  1  0  0  0  0
 32 26  1  0  0  0  0
 35 34  2  0  0  0  0
 35 41  1  0  0  0  0
 36 37  1  1  0  0  0
 36 35  1  0  0  0  0
 37 38  1  0  0  0  0
 37 39  1  0  0  0  0
 39 41  1  0  0  0  0
 39 40  1  0  0  0  0
 41 42  1  0  0  0  0
M  END
>  <minimizedAffinity>
-5.68265104

$$$$

 OpenBabel03272505173D

 42 45  0  0  1  0  0  0  0  0999 V2000
   39.6040   24.2280   33.8970 N   0  0  0  0  0  0  0  0  0  0  0  0
   40.8070   25.0300   33.8680 C   0  0  0  0  0  0  0  0  0  0  0  0
   41.8560   24.3280   34.6380 C   0  0  0  0  0  0  0  0  0  0  0  0
   41.8970   22.9660   34.2990 N   0  0  0  0  0  0  0  0  0  0  0  0
   40.7160   22.2650   34.6720 C   0  0  0  0  0  0  0  0  0  0  0  0
   39.5420   23.1510   34.8430 C   0  0  1  0  0  0  0  0  0  0  0  0
   40.5350   26.0300   34.3180 H   0  0  0  0  0  0  0  0  0  0  0  0
   41.0680   25.1780   32.8140 H   0  0  0  0  0  0  0  0  0  0  0  0
   42.0280   24.6280   35.6730 H   0  0  0  0  0  0  0  0  0  0  0  0
   42.8090   24.7220   34.1490 H   0  0  0  0  0  0  0  0  0  0  0  0
   42.7880   22.4770   34.4750 H   0  0  0  0  0  0  0  0  0  0  0  0
   40.9390   21.7870   35.6700 H   0  0  0  0  0  0  0  0  0  0  0  0
   40.6300   21.4190   33.9660 H   0  0  0  0  0  0  0  0  0  0  0  0
   38.7370   22.4690   34.4520 H   0  0  0  0  0  0  0  0  0  0  0  0
   39.0490   27.0200   33.1660 Cl  0  0  0  0  0  0  0  0  0  0  0  0
   38.0830   25.6850   32.6490 C   0  0  0  0  0  0  0  0  0  0  0  0
   36.9940   25.9000   31.8700 C   0  0  0  0  0  0  0  0  0  0  0  0
   36.2960   24.7590   31.4790 C   0  0  0  0  0  0  0  0  0  0  0  0
   36.6290   23.4860   31.8210 C   0  0  0  0  0  0  0  0  0  0  0  0
   37.7470   23.3160   32.6190 C   0  0  0  0  0  0  0  0  0  0  0  0
   38.4800   24.4210   33.0380 C   0  0  0  0  0  0  0  0  0  0  0  0
   35.4120   24.8950   30.8500 H   0  0  0  0  0  0  0  0  0  0  0  0
   36.0430   22.6410   31.4830 H   0  0  0  0  0  0  0  0  0  0  0  0
   38.0730   22.3390   32.9310 H   0  0  0  0  0  0  0  0  0  0  0  0
   35.4320   29.3180   31.8970 C   0  0  0  0  0  0  0  0  0  0  0  0
   35.7620   28.0110   32.2770 C   0  0  0  0  0  0  0  0  0  0  0  0
   36.6220   27.2440   31.4920 C   0  0  0  0  0  0  0  0  0  0  0  0
   37.1160   27.8220   30.3530 N   0  0  0  0  0  0  0  0  0  0  0  0
   36.7910   29.0790   29.9970 C   0  0  0  0  0  0  0  0  0  0  0  0
   35.9550   29.8280   30.7600 N   0  0  0  0  0  0  0  0  0  0  0  0
   34.7790   29.9850   32.4380 H   0  0  0  0  0  0  0  0  0  0  0  0
   35.2390   27.7560   33.1750 H   0  0  0  0  0  0  0  0  0  0  0  0
   37.2750   29.3570   29.0720 H   0  0  0  0  0  0  0  0  0  0  0  0
   36.9020   21.7020   35.8750 O   0  0  0  0  0  0  0  0  0  0  0  0
   37.7620   22.5210   36.3250 C   0  0  0  0  0  0  0  0  0  0  0  0
   39.0000   23.3790   36.1790 C   0  0  1  0  0  3  0  0  0  0  0  0
   39.6990   23.0560   37.4160 C   0  0  0  0  0  3  0  0  0  0  0  0
   39.8350   21.9380   37.5010 H   0  0  0  0  0  0  0  0  0  0  0  0
   38.5850   23.3100   38.4500 C   0  0  0  0  0  3  0  0  0  0  0  0
   38.7650   22.7190   39.3620 H   0  0  0  0  0  0  0  0  0  0  0  0
   37.4170   22.8240   37.6960 N   0  0  0  0  0  0  0  0  0  0  0  0
   36.5620   22.8000   38.3300 H   0  0  0  0  0  0  0  0  0  0  0  0
  1  6  1  0  0  0  0
  2  1  1  0  0  0  0
  2  7  1  0  0  0  0
  2  3  1  0  0  0  0
  3  9  1  0  0  0  0
  4 11  1  0  0  0  0
  4  3  1  0  0  0  0
  4  5  1  0  0  0  0
  5  6  1  0  0  0  0
  5 12  1  0  0  0  0
  6 14  1  6  0  0  0
  6 36  1  0  0  0  0
  8  2  1  0  0  0  0
 10  3  1  0  0  0  0
 13  5  1  0  0  0  0
 16 21  1  0  0  0  0
 16 15  1  0  0  0  0
 17 16  2  0  0  0  0
 18 19  2  0  0  0  0
 18 17  1  0  0  0  0
 19 20  1  0  0  0  0
 20 24  1  0  0  0  0
 20 21  2  0  0  0  0
 21  1  1  0  0  0  0
 22 18  1  0  0  0  0
 23 19  1  0  0  0  0
 25 26  1  0  0  0  0
 25 31  1  0  0  0  0
 26 32  1  0  0  0  0
 27 17  1  0  0  0  0
 27 26  2  0  0  0  0
 28 27  1  0  0  0  0
 29 28  2  0  0  0  0
 29 30  1  0  0  0  0
 30 25  2  0  0  0  0
 33 29  1  0  0  0  0
 34 35  2  0  0  0  0
 35 41  1  0  0  0  0
 36 35  1  6  0  0  0
 36 37  1  0  0  0  0
 37 38  1  0  0  0  0
 37 39  1  0  0  0  0
 39 40  1  0  0  0  0
 41 42  1  0  0  0  0
 41 39  1  0  0  0  0
M  END
>  <minimizedAffinity>
-5.65852499

$$$$

 OpenBabel03272505173D

 42 45  0  0  1  0  0  0  0  0999 V2000
   38.7390   24.4260   35.4970 N   0  0  0  0  0  0  0  0  0  0  0  0
   37.9170   24.6780   36.6590 C   0  0  0  0  0  0  0  0  0  0  0  0
   37.7380   23.4050   37.3910 C   0  0  0  0  0  0  0  0  0  0  0  0
   38.9600   22.7240   37.5130 N   0  0  0  0  0  0  0  0  0  0  0  0
   39.4830   22.2930   36.2610 C   0  0  0  0  0  0  0  0  0  0  0  0
   38.9520   23.0610   35.1120 C   0  0  1  0  0  0  0  0  0  0  0  0
   36.9420   25.0990   36.2760 H   0  0  0  0  0  0  0  0  0  0  0  0
   38.4250   25.4490   37.2490 H   0  0  0  0  0  0  0  0  0  0  0  0
   36.8210   22.8370   37.2240 H   0  0  0  0  0  0  0  0  0  0  0  0
   37.5630   23.7700   38.4570 H   0  0  0  0  0  0  0  0  0  0  0  0
   39.0320   22.0500   38.2900 H   0  0  0  0  0  0  0  0  0  0  0  0
   39.1580   21.2180   36.1410 H   0  0  0  0  0  0  0  0  0  0  0  0
   40.5790   22.2440   36.3920 H   0  0  0  0  0  0  0  0  0  0  0  0
   39.8700   23.0830   34.4630 H   0  0  0  0  0  0  0  0  0  0  0  0
   37.0830   25.5620   33.3500 Cl  0  0  0  0  0  0  0  0  0  0  0  0
   38.7190   26.0320   33.6470 C   0  0  0  0  0  0  0  0  0  0  0  0
   39.3080   26.9660   32.8620 C   0  0  0  0  0  0  0  0  0  0  0  0
   40.6180   27.3000   33.1980 C   0  0  0  0  0  0  0  0  0  0  0  0
   41.3190   26.7630   34.2330 C   0  0  0  0  0  0  0  0  0  0  0  0
   40.6760   25.8120   35.0070 C   0  0  0  0  0  0  0  0  0  0  0  0
   39.3690   25.4410   34.7140 C   0  0  0  0  0  0  0  0  0  0  0  0
   41.1250   28.0510   32.5850 H   0  0  0  0  0  0  0  0  0  0  0  0
   42.3360   27.0670   34.4410 H   0  0  0  0  0  0  0  0  0  0  0  0
   41.1650   25.3420   35.8420 H   0  0  0  0  0  0  0  0  0  0  0  0
   38.2780   27.9580   29.3860 C   0  0  0  0  0  0  0  0  0  0  0  0
   39.0100   27.3950   30.4390 C   0  0  0  0  0  0  0  0  0  0  0  0
   38.5830   27.5520   31.7580 C   0  0  0  0  0  0  0  0  0  0  0  0
   37.4370   28.2720   31.9650 N   0  0  0  0  0  0  0  0  0  0  0  0
   36.7420   28.8100   30.9460 C   0  0  0  0  0  0  0  0  0  0  0  0
   37.1540   28.6580   29.6620 N   0  0  0  0  0  0  0  0  0  0  0  0
   38.5270   27.8900   28.3390 H   0  0  0  0  0  0  0  0  0  0  0  0
   39.8800   26.9100   30.0510 H   0  0  0  0  0  0  0  0  0  0  0  0
   35.8720   29.3400   31.3060 H   0  0  0  0  0  0  0  0  0  0  0  0
   39.9850   21.1220   32.8080 O   0  0  0  0  0  0  0  0  0  0  0  0
   38.8740   21.5620   33.2380 C   0  0  0  0  0  0  0  0  0  0  0  0
   38.0410   22.4140   34.1730 C   0  0  1  0  0  3  0  0  0  0  0  0
   37.0060   21.4610   34.5540 C   0  0  0  0  0  3  0  0  0  0  0  0
   37.4790   20.5230   34.9700 H   0  0  0  0  0  0  0  0  0  0  0  0
   36.5350   20.9780   33.1690 C   0  0  0  0  0  3  0  0  0  0  0  0
   36.0920   19.9730   33.2420 H   0  0  0  0  0  0  0  0  0  0  0  0
   37.8190   20.9660   32.4480 N   0  0  0  0  0  0  0  0  0  0  0  0
   37.6930   20.5160   31.4910 H   0  0  0  0  0  0  0  0  0  0  0  0
  1  2  1  0  0  0  0
  2  8  1  0  0  0  0
  2  3  1  0  0  0  0
  3  4  1  0  0  0  0
  3 10  1  0  0  0  0
  4 11  1  0  0  0  0
  5 13  1  0  0  0  0
  5  4  1  0  0  0  0
  6 14  1  6  0  0  0
  6  1  1  0  0  0  0
  6  5  1  0  0  0  0
  7  2  1  0  0  0  0
  9  3  1  0  0  0  0
 12  5  1  0  0  0  0
 15 16  1  0  0  0  0
 16 21  1  0  0  0  0
 17 18  1  0  0  0  0
 17 16  2  0  0  0  0
 18 19  2  0  0  0  0
 19 23  1  0  0  0  0
 19 20  1  0  0  0  0
 20 24  1  0  0  0  0
 21 20  2  0  0  0  0
 21  1  1  0  0  0  0
 22 18  1  0  0  0  0
 25 30  2  0  0  0  0
 25 26  1  0  0  0  0
 26 27  2  0  0  0  0
 27 28  1  0  0  0  0
 27 17  1  0  0  0  0
 29 33  1  0  0  0  0
 29 28  2  0  0  0  0
 30 29  1  0  0  0  0
 31 25  1  0  0  0  0
 32 26  1  0  0  0  0
 34 35  2  0  0  0  0
 36 35  1  6  0  0  0
 36 37  1  0  0  0  0
 36  6  1  0  0  0  0
 37 38  1  0  0  0  0
 39 40  1  0  0  0  0
 39 37  1  0  0  0  0
 41 39  1  0  0  0  0
 41 35  1  0  0  0  0
 42 41  1  0  0  0  0
M  END
>  <minimizedAffinity>
-5.55648708

$$$$

 OpenBabel03272505173D

 42 45  0  0  1  0  0  0  0  0999 V2000
   39.1270   26.0000   33.9710 N   0  0  0  0  0  0  0  0  0  0  0  0
   40.3910   26.5450   34.4130 C   0  0  0  0  0  0  0  0  0  0  0  0
   41.3030   25.4240   34.7220 C   0  0  0  0  0  0  0  0  0  0  0  0
   41.2590   24.4520   33.7100 N   0  0  0  0  0  0  0  0  0  0  0  0
   39.9940   23.8070   33.6140 C   0  0  0  0  0  0  0  0  0  0  0  0
   38.8890   24.6030   34.1950 C   0  0  1  0  0  0  0  0  0  0  0  0
   40.1650   27.1830   35.3180 H   0  0  0  0  0  0  0  0  0  0  0  0
   40.7580   27.1940   33.6090 H   0  0  0  0  0  0  0  0  0  0  0  0
   41.4050   25.1110   35.7630 H   0  0  0  0  0  0  0  0  0  0  0  0
   42.3260   25.8990   34.5490 H   0  0  0  0  0  0  0  0  0  0  0  0
   42.0860   23.8410   33.6250 H   0  0  0  0  0  0  0  0  0  0  0  0
   40.0850   22.8520   34.2100 H   0  0  0  0  0  0  0  0  0  0  0  0
   39.9010   23.4760   32.5640 H   0  0  0  0  0  0  0  0  0  0  0  0
   38.0670   24.3310   33.4760 H   0  0  0  0  0  0  0  0  0  0  0  0
   37.6300   27.8560   35.6900 Cl  0  0  0  0  0  0  0  0  0  0  0  0
   37.2990   27.6290   34.0100 C   0  0  0  0  0  0  0  0  0  0  0  0
   36.2940   28.3200   33.4190 C   0  0  0  0  0  0  0  0  0  0  0  0
   36.1230   28.0920   32.0550 C   0  0  0  0  0  0  0  0  0  0  0  0
   36.8780   27.2450   31.3060 C   0  0  0  0  0  0  0  0  0  0  0  0
   37.8920   26.5590   31.9530 C   0  0  0  0  0  0  0  0  0  0  0  0
   38.1050   26.7490   33.3140 C   0  0  0  0  0  0  0  0  0  0  0  0
   35.3210   28.6330   31.5450 H   0  0  0  0  0  0  0  0  0  0  0  0
   36.6940   27.1120   30.2480 H   0  0  0  0  0  0  0  0  0  0  0  0
   38.5310   25.8710   31.4280 H   0  0  0  0  0  0  0  0  0  0  0  0
   35.2080   31.2330   35.5310 C   0  0  0  0  0  0  0  0  0  0  0  0
   36.0240   30.3590   34.8010 C   0  0  0  0  0  0  0  0  0  0  0  0
   35.4800   29.2280   34.1940 C   0  0  0  0  0  0  0  0  0  0  0  0
   34.1350   29.0180   34.3490 N   0  0  0  0  0  0  0  0  0  0  0  0
   33.3610   29.8630   35.0540 C   0  0  0  0  0  0  0  0  0  0  0  0
   33.8880   30.9660   35.6440 N   0  0  0  0  0  0  0  0  0  0  0  0
   35.5370   32.1290   36.0330 H   0  0  0  0  0  0  0  0  0  0  0  0
   37.0380   30.6980   34.8410 H   0  0  0  0  0  0  0  0  0  0  0  0
   32.3330   29.5320   35.0640 H   0  0  0  0  0  0  0  0  0  0  0  0
   37.7270   21.6580   34.5360 O   0  0  0  0  0  0  0  0  0  0  0  0
   37.8380   22.7110   35.2370 C   0  0  0  0  0  0  0  0  0  0  0  0
   38.2500   24.1560   35.4290 C   0  0  1  0  0  3  0  0  0  0  0  0
   38.9210   24.0740   36.7200 C   0  0  0  0  0  3  0  0  0  0  0  0
   39.7340   23.2910   36.6830 H   0  0  0  0  0  0  0  0  0  0  0  0
   37.8450   23.3600   37.5590 C   0  0  0  0  0  3  0  0  0  0  0  0
   38.3080   22.8260   38.4040 H   0  0  0  0  0  0  0  0  0  0  0  0
   37.3020   22.4350   36.5500 N   0  0  0  0  0  0  0  0  0  0  0  0
   36.6230   21.7550   37.0110 H   0  0  0  0  0  0  0  0  0  0  0  0
  1  6  1  0  0  0  0
  1  2  1  0  0  0  0
  2  3  1  0  0  0  0
  2  7  1  0  0  0  0
  3  9  1  0  0  0  0
  4  3  1  0  0  0  0
  5  4  1  0  0  0  0
  5  6  1  0  0  0  0
  5 12  1  0  0  0  0
  6 14  1  6  0  0  0
  6 36  1  0  0  0  0
  8  2  1  0  0  0  0
 10  3  1  0  0  0  0
 11  4  1  0  0  0  0
 13  5  1  0  0  0  0
 16 15  1  0  0  0  0
 17 16  1  0  0  0  0
 17 27  1  0  0  0  0
 18 17  2  0  0  0  0
 19 20  2  0  0  0  0
 19 18  1  0  0  0  0
 20 21  1  0  0  0  0
 21  1  1  0  0  0  0
 21 16  2  0  0  0  0
 22 18  1  0  0  0  0
 23 19  1  0  0  0  0
 24 20  1  0  0  0  0
 25 30  1  0  0  0  0
 25 31  1  0  0  0  0
 26 32  1  0  0  0  0
 26 25  2  0  0  0  0
 27 28  2  0  0  0  0
 27 26  1  0  0  0  0
 28 29  1  0  0  0  0
 29 33  1  0  0  0  0
 29 30  2  0  0  0  0
 34 35  2  0  0  0  0
 35 41  1  0  0  0  0
 36 35  1  6  0  0  0
 36 37  1  0  0  0  0
 37 39  1  0  0  0  0
 38 37  1  0  0  0  0
 39 40  1  0  0  0  0
 41 42  1  0  0  0  0
 41 39  1  0  0  0  0
M  END
>  <minimizedAffinity>
-5.5551815

$$$$

 OpenBabel03272505173D

 42 45  0  0  1  0  0  0  0  0999 V2000
   39.1240   26.2020   34.2330 N   0  0  0  0  0  0  0  0  0  0  0  0
   40.3880   26.6570   34.7660 C   0  0  0  0  0  0  0  0  0  0  0  0
   41.2990   25.4960   34.8660 C   0  0  0  0  0  0  0  0  0  0  0  0
   41.2530   24.7250   33.6940 N   0  0  0  0  0  0  0  0  0  0  0  0
   39.9870   24.1100   33.4830 C   0  0  0  0  0  0  0  0  0  0  0  0
   38.8830   24.7880   34.1990 C   0  0  1  0  0  0  0  0  0  0  0  0
   40.1630   27.1190   35.7720 H   0  0  0  0  0  0  0  0  0  0  0  0
   40.7560   27.4400   34.0940 H   0  0  0  0  0  0  0  0  0  0  0  0
   41.4010   24.9990   35.8330 H   0  0  0  0  0  0  0  0  0  0  0  0
   42.3220   25.9930   34.7820 H   0  0  0  0  0  0  0  0  0  0  0  0
   42.0790   24.1380   33.5000 H   0  0  0  0  0  0  0  0  0  0  0  0
   40.0770   23.0620   33.8950 H   0  0  0  0  0  0  0  0  0  0  0  0
   39.8940   23.9760   32.3900 H   0  0  0  0  0  0  0  0  0  0  0  0
   38.0610   24.6530   33.4420 H   0  0  0  0  0  0  0  0  0  0  0  0
   39.5440   27.1570   31.4850 Cl  0  0  0  0  0  0  0  0  0  0  0  0
   38.1930   27.6130   32.4610 C   0  0  0  0  0  0  0  0  0  0  0  0
   37.2600   28.4640   31.9690 C   0  0  0  0  0  0  0  0  0  0  0  0
   36.1940   28.7490   32.8190 C   0  0  0  0  0  0  0  0  0  0  0  0
   36.0370   28.2420   34.0710 C   0  0  0  0  0  0  0  0  0  0  0  0
   37.0160   27.3770   34.5310 C   0  0  0  0  0  0  0  0  0  0  0  0
   38.1030   27.0610   33.7230 C   0  0  0  0  0  0  0  0  0  0  0  0
   35.4210   29.4330   32.4540 H   0  0  0  0  0  0  0  0  0  0  0  0
   35.1830   28.5030   34.6810 H   0  0  0  0  0  0  0  0  0  0  0  0
   36.9620   26.9360   35.5100 H   0  0  0  0  0  0  0  0  0  0  0  0
   37.3400   30.8770   29.0890 C   0  0  0  0  0  0  0  0  0  0  0  0
   37.1750   30.3660   30.3820 C   0  0  0  0  0  0  0  0  0  0  0  0
   37.4040   29.0150   30.6410 C   0  0  0  0  0  0  0  0  0  0  0  0
   37.7880   28.2300   29.5860 N   0  0  0  0  0  0  0  0  0  0  0  0
   37.9410   28.7320   28.3470 C   0  0  0  0  0  0  0  0  0  0  0  0
   37.7200   30.0470   28.0930 N   0  0  0  0  0  0  0  0  0  0  0  0
   37.1880   31.9040   28.7940 H   0  0  0  0  0  0  0  0  0  0  0  0
   36.8410   31.1440   31.0350 H   0  0  0  0  0  0  0  0  0  0  0  0
   38.2450   27.9630   27.6520 H   0  0  0  0  0  0  0  0  0  0  0  0
   38.1270   21.6960   34.1510 O   0  0  0  0  0  0  0  0  0  0  0  0
   38.0500   22.6700   34.9620 C   0  0  0  0  0  0  0  0  0  0  0  0
   38.2440   24.1260   35.3310 C   0  0  1  0  0  3  0  0  0  0  0  0
   38.8450   23.9900   36.6520 C   0  0  0  0  0  3  0  0  0  0  0  0
   39.7600   23.3310   36.5930 H   0  0  0  0  0  0  0  0  0  0  0  0
   37.8330   23.0500   37.3340 C   0  0  0  0  0  3  0  0  0  0  0  0
   38.3170   22.4910   38.1500 H   0  0  0  0  0  0  0  0  0  0  0  0
   37.4830   22.1800   36.1990 N   0  0  0  0  0  0  0  0  0  0  0  0
   36.8810   21.3690   36.5360 H   0  0  0  0  0  0  0  0  0  0  0  0
  1  2  1  0  0  0  0
  2  3  1  0  0  0  0
  2  7  1  0  0  0  0
  3  9  1  0  0  0  0
  4  3  1  0  0  0  0
  5  4  1  0  0  0  0
  5 12  1  0  0  0  0
  5  6  1  0  0  0  0
  6 14  1  6  0  0  0
  6  1  1  0  0  0  0
  6 36  1  0  0  0  0
  8  2  1  0  0  0  0
 10  3  1  0  0  0  0
 11  4  1  0  0  0  0
 13  5  1  0  0  0  0
 15 16  1  0  0  0  0
 16 21  1  0  0  0  0
 17 16  2  0  0  0  0
 17 18  1  0  0  0  0
 18 19  2  0  0  0  0
 19 20  1  0  0  0  0
 19 23  1  0  0  0  0
 20 24  1  0  0  0  0
 21  1  1  0  0  0  0
 21 20  2  0  0  0  0
 22 18  1  0  0  0  0
 25 26  1  0  0  0  0
 26 27  2  0  0  0  0
 26 32  1  0  0  0  0
 27 17  1  0  0  0  0
 28 27  1  0  0  0  0
 29 28  2  0  0  0  0
 30 29  1  0  0  0  0
 30 25  2  0  0  0  0
 31 25  1  0  0  0  0
 33 29  1  0  0  0  0
 34 35  2  0  0  0  0
 35 41  1  0  0  0  0
 36 35  1  6  0  0  0
 36 37  1  0  0  0  0
 37 39  1  0  0  0  0
 38 37  1  0  0  0  0
 39 40  1  0  0  0  0
 41 42  1  0  0  0  0
 41 39  1  0  0  0  0
M  END
>  <minimizedAffinity>
-5.54801893

$$$$

 OpenBabel03272505173D

 42 45  0  0  1  0  0  0  0  0999 V2000
   35.2090   29.3470   33.3430 N   0  0  0  0  0  0  0  0  0  0  0  0
   33.9930   28.9890   32.6480 C   0  0  0  0  0  0  0  0  0  0  0  0
   33.2250   30.2230   32.3800 C   0  0  0  0  0  0  0  0  0  0  0  0
   34.0630   31.2330   31.8810 N   0  0  0  0  0  0  0  0  0  0  0  0
   35.0330   31.6680   32.8260 C   0  0  0  0  0  0  0  0  0  0  0  0
   35.3020   30.6710   33.8870 C   0  0  1  0  0  0  0  0  0  0  0  0
   33.4390   28.2710   33.3230 H   0  0  0  0  0  0  0  0  0  0  0  0
   34.2900   28.4570   31.7370 H   0  0  0  0  0  0  0  0  0  0  0  0
   32.4140   30.4870   33.0620 H   0  0  0  0  0  0  0  0  0  0  0  0
   32.6280   29.9320   31.4530 H   0  0  0  0  0  0  0  0  0  0  0  0
   33.6070   31.9740   31.3260 H   0  0  0  0  0  0  0  0  0  0  0  0
   34.6000   32.5890   33.3160 H   0  0  0  0  0  0  0  0  0  0  0  0
   35.8880   32.0400   32.2330 H   0  0  0  0  0  0  0  0  0  0  0  0
   36.4030   30.8480   34.0320 H   0  0  0  0  0  0  0  0  0  0  0  0
   36.7640   28.8180   30.9050 Cl  0  0  0  0  0  0  0  0  0  0  0  0
   37.1260   28.1170   32.4420 C   0  0  0  0  0  0  0  0  0  0  0  0
   38.1710   27.2630   32.5670 C   0  0  0  0  0  0  0  0  0  0  0  0
   38.4010   26.7730   33.8510 C   0  0  0  0  0  0  0  0  0  0  0  0
   37.6650   27.0890   34.9500 C   0  0  0  0  0  0  0  0  0  0  0  0
   36.6070   27.9640   34.7730 C   0  0  0  0  0  0  0  0  0  0  0  0
   36.3320   28.4810   33.5120 C   0  0  0  0  0  0  0  0  0  0  0  0
   39.2370   26.0810   33.9900 H   0  0  0  0  0  0  0  0  0  0  0  0
   37.8970   26.6740   35.9220 H   0  0  0  0  0  0  0  0  0  0  0  0
   35.9780   28.2600   35.5950 H   0  0  0  0  0  0  0  0  0  0  0  0
   40.8730   27.2720   29.9550 C   0  0  0  0  0  0  0  0  0  0  0  0
   40.1060   27.6430   31.0670 C   0  0  0  0  0  0  0  0  0  0  0  0
   38.9690   26.9140   31.4150 C   0  0  0  0  0  0  0  0  0  0  0  0
   38.6470   25.8410   30.6270 N   0  0  0  0  0  0  0  0  0  0  0  0
   39.3900   25.4950   29.5610 C   0  0  0  0  0  0  0  0  0  0  0  0
   40.4980   26.2020   29.2210 N   0  0  0  0  0  0  0  0  0  0  0  0
   41.7650   27.7720   29.6110 H   0  0  0  0  0  0  0  0  0  0  0  0
   40.5210   28.5240   31.5100 H   0  0  0  0  0  0  0  0  0  0  0  0
   38.9780   24.6260   29.0660 H   0  0  0  0  0  0  0  0  0  0  0  0
   36.7620   32.7870   35.7650 O   0  0  0  0  0  0  0  0  0  0  0  0
   35.7690   31.9980   35.8330 C   0  0  0  0  0  0  0  0  0  0  0  0
   34.8600   30.9350   35.2530 C   0  0  1  0  0  3  0  0  0  0  0  0
   33.5540   31.4780   35.6050 C   0  0  0  0  0  3  0  0  0  0  0  0
   33.4550   32.5320   35.2110 H   0  0  0  0  0  0  0  0  0  0  0  0
   33.7430   31.7290   37.1120 C   0  0  0  0  0  3  0  0  0  0  0  0
   33.0580   32.5180   37.4600 H   0  0  0  0  0  0  0  0  0  0  0  0
   35.1480   32.1690   37.1270 N   0  0  0  0  0  0  0  0  0  0  0  0
   35.4080   32.5210   38.0990 H   0  0  0  0  0  0  0  0  0  0  0  0
  1 21  1  0  0  0  0
  1  6  1  0  0  0  0
  2  7  1  0  0  0  0
  2  1  1  0  0  0  0
  3  2  1  0  0  0  0
  3  9  1  0  0  0  0
  4  3  1  0  0  0  0
  4  5  1  0  0  0  0
  5 12  1  0  0  0  0
  5  6  1  0  0  0  0
  6 14  1  1  0  0  0
  6 36  1  0  0  0  0
  8  2  1  0  0  0  0
 10  3  1  0  0  0  0
 11  4  1  0  0  0  0
 13  5  1  0  0  0  0
 15 16  1  0  0  0  0
 16 17  2  0  0  0  0
 16 21  1  0  0  0  0
 17 18  1  0  0  0  0
 18 22  1  0  0  0  0
 18 19  2  0  0  0  0
 19 23  1  0  0  0  0
 20 19  1  0  0  0  0
 20 24  1  0  0  0  0
 21 20  2  0  0  0  0
 25 26  1  0  0  0  0
 26 27  2  0  0  0  0
 26 32  1  0  0  0  0
 27 17  1  0  0  0  0
 28 27  1  0  0  0  0
 29 28  2  0  0  0  0
 30 29  1  0  0  0  0
 30 25  2  0  0  0  0
 31 25  1  0  0  0  0
 33 29  1  0  0  0  0
 34 35  2  0  0  0  0
 35 41  1  0  0  0  0
 36 37  1  6  0  0  0
 36 35  1  0  0  0  0
 37 39  1  0  0  0  0
 38 37  1  0  0  0  0
 39 41  1  0  0  0  0
 39 40  1  0  0  0  0
 41 42  1  0  0  0  0
M  END
>  <minimizedAffinity>
-5.5433712

$$$$

 OpenBabel03272505173D

 42 45  0  0  1  0  0  0  0  0999 V2000
   39.5210   24.8600   34.0720 N   0  0  0  0  0  0  0  0  0  0  0  0
   40.8620   24.7650   33.5410 C   0  0  0  0  0  0  0  0  0  0  0  0
   41.4400   26.1240   33.4810 C   0  0  0  0  0  0  0  0  0  0  0  0
   41.1920   26.8240   34.6730 N   0  0  0  0  0  0  0  0  0  0  0  0
   39.8080   27.0820   34.8870 C   0  0  0  0  0  0  0  0  0  0  0  0
   38.9210   26.1610   34.1420 C   0  0  1  0  0  0  0  0  0  0  0  0
   40.7680   24.2880   32.5200 H   0  0  0  0  0  0  0  0  0  0  0  0
   41.4190   24.0850   34.1960 H   0  0  0  0  0  0  0  0  0  0  0  0
   41.4120   26.6580   32.5300 H   0  0  0  0  0  0  0  0  0  0  0  0
   42.5570   25.9080   33.5630 H   0  0  0  0  0  0  0  0  0  0  0  0
   41.8360   27.5990   34.8920 H   0  0  0  0  0  0  0  0  0  0  0  0
   39.6240   28.1290   34.5040 H   0  0  0  0  0  0  0  0  0  0  0  0
   39.6800   27.1560   35.9820 H   0  0  0  0  0  0  0  0  0  0  0  0
   38.0900   26.0570   34.8930 H   0  0  0  0  0  0  0  0  0  0  0  0
   38.3570   23.1490   31.9850 Cl  0  0  0  0  0  0  0  0  0  0  0  0
   38.1210   22.8900   33.6760 C   0  0  0  0  0  0  0  0  0  0  0  0
   37.3540   21.8560   34.1020 C   0  0  0  0  0  0  0  0  0  0  0  0
   37.2480   21.7110   35.4830 C   0  0  0  0  0  0  0  0  0  0  0  0
   37.8460   22.5180   36.4000 C   0  0  0  0  0  0  0  0  0  0  0  0
   38.6180   23.5610   35.9190 C   0  0  0  0  0  0  0  0  0  0  0  0
   38.7570   23.7520   34.5480 C   0  0  0  0  0  0  0  0  0  0  0  0
   36.6370   20.8870   35.8630 H   0  0  0  0  0  0  0  0  0  0  0  0
   37.7230   22.3500   37.4620 H   0  0  0  0  0  0  0  0  0  0  0  0
   39.1220   24.2420   36.5820 H   0  0  0  0  0  0  0  0  0  0  0  0
   34.7400   20.2000   31.9700 C   0  0  0  0  0  0  0  0  0  0  0  0
   35.3360   21.0430   32.9160 C   0  0  0  0  0  0  0  0  0  0  0  0
   36.7100   20.9850   33.1460 C   0  0  0  0  0  0  0  0  0  0  0  0
   37.4310   20.0760   32.4170 N   0  0  0  0  0  0  0  0  0  0  0  0
   36.8480   19.2700   31.5120 C   0  0  0  0  0  0  0  0  0  0  0  0
   35.5100   19.3260   31.2850 N   0  0  0  0  0  0  0  0  0  0  0  0
   33.6900   20.1730   31.7230 H   0  0  0  0  0  0  0  0  0  0  0  0
   34.5850   21.6420   33.3860 H   0  0  0  0  0  0  0  0  0  0  0  0
   37.5750   18.6250   31.0410 H   0  0  0  0  0  0  0  0  0  0  0  0
   36.4280   28.0980   34.5530 O   0  0  0  0  0  0  0  0  0  0  0  0
   37.0510   27.5610   33.5850 C   0  0  0  0  0  0  0  0  0  0  0  0
   38.1350   26.6670   33.0210 C   0  0  1  0  0  3  0  0  0  0  0  0
   38.6630   27.5200   31.9640 C   0  0  0  0  0  3  0  0  0  0  0  0
   38.9700   28.5200   32.3920 H   0  0  0  0  0  0  0  0  0  0  0  0
   37.3680   27.8900   31.2180 C   0  0  0  0  0  3  0  0  0  0  0  0
   37.4910   28.8450   30.6830 H   0  0  0  0  0  0  0  0  0  0  0  0
   36.4390   28.0070   32.3540 N   0  0  0  0  0  0  0  0  0  0  0  0
   35.5060   28.4000   32.0210 H   0  0  0  0  0  0  0  0  0  0  0  0
  1  6  1  0  0  0  0
  1 21  1  0  0  0  0
  2  1  1  0  0  0  0
  2  8  1  0  0  0  0
  3  2  1  0  0  0  0
  3 10  1  0  0  0  0
  3  4  1  0  0  0  0
  4  5  1  0  0  0  0
  4 11  1  0  0  0  0
  5 13  1  0  0  0  0
  6  5  1  0  0  0  0
  6 14  1  1  0  0  0
  7  2  1  0  0  0  0
  9  3  1  0  0  0  0
 12  5  1  0  0  0  0
 15 16  1  0  0  0  0
 16 17  2  0  0  0  0
 16 21  1  0  0  0  0
 17 18  1  0  0  0  0
 18 22  1  0  0  0  0
 18 19  2  0  0  0  0
 19 23  1  0  0  0  0
 20 19  1  0  0  0  0
 20 24  1  0  0  0  0
 21 20  2  0  0  0  0
 25 26  1  0  0  0  0
 26 27  2  0  0  0  0
 26 32  1  0  0  0  0
 27 17  1  0  0  0  0
 28 27  1  0  0  0  0
 29 28  2  0  0  0  0
 30 29  1  0  0  0  0
 30 25  2  0  0  0  0
 31 25  1  0  0  0  0
 33 29  1  0  0  0  0
 35 34  2  0  0  0  0
 36 37  1  6  0  0  0
 36 35  1  0  0  0  0
 36  6  1  0  0  0  0
 37 38  1  0  0  0  0
 39 37  1  0  0  0  0
 39 41  1  0  0  0  0
 40 39  1  0  0  0  0
 41 35  1  0  0  0  0
 42 41  1  0  0  0  0
M  END
>  <minimizedAffinity>
-5.40110731

$$$$
