
 OpenBabel03272505183D

 33 35  0  0  1  0  0  0  0  0999 V2000
   37.4170   29.6060   50.1420 C   0  0  0  0  0  0  0  0  0  0  0  0
   38.2750   30.2340   49.2190 C   0  0  0  0  0  0  0  0  0  0  0  0
   37.8140   30.6300   47.9700 C   0  0  0  0  0  0  0  0  0  0  0  0
   36.5040   30.3500   47.7630 N   0  0  0  0  0  0  0  0  0  0  0  0
   35.6790   29.7580   48.6250 C   0  0  0  0  0  0  0  0  0  0  0  0
   36.1410   29.3800   49.8300 N   0  0  0  0  0  0  0  0  0  0  0  0
   37.8620   29.3310   51.0920 H   0  0  0  0  0  0  0  0  0  0  0  0
   39.2960   30.4050   49.4940 H   0  0  0  0  0  0  0  0  0  0  0  0
   39.1640   32.5440   47.3610 C   0  0  0  0  0  0  0  0  0  0  0  0
   38.7590   31.2650   47.0870 C   0  0  0  0  0  0  0  0  0  0  0  0
   39.2880   30.6660   45.9730 C   0  0  0  0  0  0  0  0  0  0  0  0
   40.1720   31.2900   45.1660 C   0  0  0  0  0  0  0  0  0  0  0  0
   40.6030   32.5840   45.4120 C   0  0  0  0  0  0  0  0  0  0  0  0
   40.0770   33.1840   46.5230 C   0  0  0  0  0  0  0  0  0  0  0  0
   38.9620   29.6490   45.7640 H   0  0  0  0  0  0  0  0  0  0  0  0
   40.5330   30.7350   44.3100 H   0  0  0  0  0  0  0  0  0  0  0  0
   41.3120   33.0440   44.7360 H   0  0  0  0  0  0  0  0  0  0  0  0
   40.4570   34.1960   46.6550 H   0  0  0  0  0  0  0  0  0  0  0  0
   39.4690   34.4310   48.8080 N   0  0  0  0  0  0  0  0  0  0  0  0
   38.7640   33.3800   48.4580 C   0  0  0  0  0  0  0  0  0  0  0  0
   37.7760   33.5440   49.4470 N   0  0  0  0  0  0  0  0  0  0  0  0
   39.1620   35.0370   49.6020 H   0  0  0  0  0  0  0  0  0  0  0  0
   37.8350   33.0150   50.3510 H   0  0  0  0  0  0  0  0  0  0  0  0
   36.9400   34.1360   49.4490 H   0  0  0  0  0  0  0  0  0  0  0  0
   33.6240   29.3230   50.4060 O   0  0  0  0  0  0  0  0  0  0  0  0
   33.5260   28.7370   49.2780 C   0  0  0  0  0  0  0  0  0  0  0  0
   34.2580   29.5270   48.2290 C   0  0  2  0  0  3  0  0  0  0  0  0
   34.1640   28.6130   47.0300 C   0  0  0  0  0  3  0  0  0  0  0  0
   33.3250   28.9310   46.3830 H   0  0  0  0  0  0  0  0  0  0  0  0
   33.8120   27.2570   47.6050 C   0  0  0  0  0  3  0  0  0  0  0  0
   34.7400   26.7600   47.9510 H   0  0  0  0  0  0  0  0  0  0  0  0
   32.9380   27.5690   48.7140 N   0  0  0  0  0  0  0  0  0  0  0  0
   32.0670   27.2670   49.2360 H   0  0  0  0  0  0  0  0  0  0  0  0
  1  7  1  0  0  0  0
  2  8  1  0  0  0  0
  2  1  2  0  0  0  0
  3  2  1  0  0  0  0
  4  3  2  0  0  0  0
  4  5  1  0  0  0  0
  5  6  2  0  0  0  0
  6  1  1  0  0  0  0
  9 20  1  0  0  0  0
 10  9  1  0  0  0  0
 10  3  1  0  0  0  0
 11 10  2  0  0  0  0
 12 13  2  0  0  0  0
 12 11  1  0  0  0  0
 13 14  1  0  0  0  0
 14 18  1  0  0  0  0
 14  9  2  0  0  0  0
 15 11  1  0  0  0  0
 16 12  1  0  0  0  0
 17 13  1  0  0  0  0
 19 22  1  0  0  0  0
 20 19  2  0  0  0  0
 20 21  1  0  0  0  0
 21 24  1  0  0  0  0
 21 23  1  0  0  0  0
 26 25  2  0  0  0  0
 27  5  1  1  0  0  0
 27 26  1  0  0  0  0
 28 30  1  0  0  0  0
 28 27  1  0  0  0  0
 29 28  1  0  0  0  0
 30 31  1  0  0  0  0
 30 32  1  0  0  0  0
 32 33  1  0  0  0  0
 32 26  1  0  0  0  0
M  END
>  <minimizedAffinity>
-6.4864769

>  <minimizedRMSD>
1.03276181

$$$$
