
 OpenBabel03272510263D

 45 49  0  0  1  0  0  0  0  0999 V2000
   39.2490   33.3590   43.0730 O   0  0  0  0  0  0  0  0  0  0  0  0
   35.9710   30.1940   46.8310 C   0  0  0  0  0  0  0  0  0  0  0  0
   36.8870   30.7130   47.7430 C   0  0  0  0  0  0  0  0  0  0  0  0
   37.9100   31.5620   47.3280 C   0  0  0  0  0  0  0  0  0  0  0  0
   37.9620   31.8560   45.9740 C   0  0  0  0  0  0  0  0  0  0  0  0
   38.8640   32.6530   45.3330 N   0  0  0  0  0  0  0  0  0  0  0  0
   38.5190   32.6340   44.0310 C   0  0  0  0  0  0  0  0  0  0  0  0
   37.4630   31.8740   43.8440 N   0  0  0  0  0  0  0  0  0  0  0  0
   37.0700   31.3600   45.0340 C   0  0  0  0  0  0  0  0  0  0  0  0
   36.0510   30.5080   45.4810 C   0  0  0  0  0  0  0  0  0  0  0  0
   35.1630   29.5320   47.1100 H   0  0  0  0  0  0  0  0  0  0  0  0
   38.6040   31.9540   48.0310 H   0  0  0  0  0  0  0  0  0  0  0  0
   39.6690   33.1770   45.7650 H   0  0  0  0  0  0  0  0  0  0  0  0
   35.3680   30.1330   44.7420 H   0  0  0  0  0  0  0  0  0  0  0  0
   37.4050   30.1110   51.4050 C   0  0  0  0  0  0  0  0  0  0  0  0
   37.6650   30.5420   50.1180 C   0  0  0  0  0  0  0  0  0  0  0  0
   36.7200   30.3130   49.1250 C   0  0  0  0  0  0  0  0  0  0  0  0
   35.5780   29.6680   49.4820 N   0  0  0  0  0  0  0  0  0  0  0  0
   35.3280   29.2490   50.7390 C   0  0  0  0  0  0  0  0  0  0  0  0
   36.2390   29.4730   51.6850 N   0  0  0  0  0  0  0  0  0  0  0  0
   38.1900   30.3260   52.1250 H   0  0  0  0  0  0  0  0  0  0  0  0
   38.5850   31.0600   49.8350 H   0  0  0  0  0  0  0  0  0  0  0  0
   34.3990   28.7400   50.9650 H   0  0  0  0  0  0  0  0  0  0  0  0
   39.0130   31.3480   42.0240 N   0  0  0  0  0  0  0  0  0  0  0  0
   39.3510   32.7440   41.7870 C   0  0  1  0  0  0  0  0  0  0  0  0
   38.4120   33.3220   40.8330 C   0  0  0  0  0  0  0  0  0  0  0  0
   38.5680   32.6690   39.5970 O   0  0  0  0  0  0  0  0  0  0  0  0
   38.4610   31.3110   39.6370 C   0  0  0  0  0  0  0  0  0  0  0  0
   39.2290   30.6720   40.7670 C   0  0  1  0  0  0  0  0  0  0  0  0
   39.6600   30.9870   42.7330 H   0  0  0  0  0  0  0  0  0  0  0  0
   40.3780   32.9070   41.4320 H   0  0  0  0  0  0  0  0  0  0  0  0
   38.7740   34.3710   40.6020 H   0  0  0  0  0  0  0  0  0  0  0  0
   37.3690   33.3960   40.9640 H   0  0  0  0  0  0  0  0  0  0  0  0
   38.7830   30.9070   38.6840 H   0  0  0  0  0  0  0  0  0  0  0  0
   37.3940   31.0370   39.7720 H   0  0  0  0  0  0  0  0  0  0  0  0
   38.8080   29.6510   40.8990 H   0  0  0  0  0  0  0  0  0  0  0  0
   41.7480   29.4720   42.5150 O   0  0  0  0  0  0  0  0  0  0  0  0
   41.1210   29.3840   41.4320 C   0  0  0  0  0  0  0  0  0  0  0  0
   40.6940   30.5010   40.5160 C   0  0  1  0  0  0  0  0  0  0  0  0
   40.9820   29.8460   39.1940 C   0  0  0  0  0  0  0  0  0  0  0  0
   42.0980   29.7440   39.1430 H   0  0  0  0  0  0  0  0  0  0  0  0
   40.4510   28.4590   39.3970 C   0  0  0  0  0  0  0  0  0  0  0  0
   39.3800   28.3690   39.1130 H   0  0  0  0  0  0  0  0  0  0  0  0
   40.6630   28.1850   40.8130 N   0  0  0  0  0  0  0  0  0  0  0  0
   40.4970   27.2610   41.2630 H   0  0  0  0  0  0  0  0  0  0  0  0
  1  7  1  0  0  0  0
  2 11  1  0  0  0  0
  2  3  1  0  0  0  0
  3 17  1  0  0  0  0
  4  3  2  0  0  0  0
  4 12  1  0  0  0  0
  5  4  1  0  0  0  0
  6 13  1  0  0  0  0
  6  5  1  0  0  0  0
  7  6  1  0  0  0  0
  8  7  2  0  0  0  0
  8  9  1  0  0  0  0
  9 10  1  0  0  0  0
  9  5  2  0  0  0  0
 10  2  2  0  0  0  0
 14 10  1  0  0  0  0
 15 20  1  0  0  0  0
 15 21  1  0  0  0  0
 16 15  2  0  0  0  0
 17 18  2  0  0  0  0
 17 16  1  0  0  0  0
 18 19  1  0  0  0  0
 19 23  1  0  0  0  0
 19 20  2  0  0  0  0
 22 16  1  0  0  0  0
 24 30  1  0  0  0  0
 25 31  1  6  0  0  0
 25 24  1  0  0  0  0
 25  1  1  0  0  0  0
 26 33  1  0  0  0  0
 26 25  1  0  0  0  0
 27 28  1  0  0  0  0
 27 26  1  0  0  0  0
 28 35  1  0  0  0  0
 28 29  1  0  0  0  0
 29 36  1  1  0  0  0
 29 24  1  0  0  0  0
 32 26  1  0  0  0  0
 34 28  1  0  0  0  0
 38 37  2  0  0  0  0
 39 40  1  6  0  0  0
 39 29  1  0  0  0  0
 39 38  1  0  0  0  0
 40 42  1  0  0  0  0
 41 40  1  0  0  0  0
 42 44  1  0  0  0  0
 43 42  1  0  0  0  0
 44 45  1  0  0  0  0
 44 38  1  0  0  0  0
M  END
>  <minimizedAffinity>
-6.00807858

>  <minimizedRMSD>
1.21402931

$$$$
