
 OpenBabel03272509063D

 33 35  0  0  1  0  0  0  0  0999 V2000
   38.9020   26.5570   34.3080 C   0  0  0  0  0  0  0  0  0  0  0  0
   39.3460   25.6490   35.2950 C   0  0  0  0  0  0  0  0  0  0  0  0
   38.8870   24.3000   35.2000 C   0  0  0  0  0  0  0  0  0  0  0  0
   38.0620   24.0260   34.1580 N   0  0  0  0  0  0  0  0  0  0  0  0
   37.6680   24.9140   33.2480 C   0  0  0  0  0  0  0  0  0  0  0  0
   38.0890   26.1790   33.3220 N   0  0  0  0  0  0  0  0  0  0  0  0
   39.2820   27.5660   34.4290 H   0  0  0  0  0  0  0  0  0  0  0  0
   40.0000   25.8910   36.1140 H   0  0  0  0  0  0  0  0  0  0  0  0
   37.9570   24.2210   38.2030 O   0  0  0  0  0  0  0  0  0  0  0  0
   38.7600   23.5090   37.5460 C   0  0  0  0  0  0  0  0  0  0  0  0
   39.2720   23.2660   36.1580 C   0  0  2  0  0  3  0  0  0  0  0  0
   40.7370   23.1470   36.4080 C   0  0  0  0  0  3  0  0  0  0  0  0
   41.1610   24.1250   36.7490 H   0  0  0  0  0  0  0  0  0  0  0  0
   40.7640   22.2330   37.6370 C   0  0  0  0  0  3  0  0  0  0  0  0
   41.6600   22.4020   38.2620 H   0  0  0  0  0  0  0  0  0  0  0  0
   39.5190   22.5390   38.2980 N   0  0  0  0  0  0  0  0  0  0  0  0
   39.3970   21.9950   39.2050 H   0  0  0  0  0  0  0  0  0  0  0  0
   36.7900   24.4250   32.2160 C   0  0  0  0  0  3  0  0  0  0  0  0
   36.5610   23.1500   32.1310 C   0  0  0  0  0  3  0  0  0  0  0  0
   35.7100   22.4320   31.1720 C   0  0  0  0  0  0  0  0  0  0  0  0
   35.9890   22.6790   30.1190 H   0  0  0  0  0  0  0  0  0  0  0  0
   34.6510   22.6940   31.2880 H   0  0  0  0  0  0  0  0  0  0  0  0
   35.8260   20.9420   31.3050 C   0  0  0  0  0  0  0  0  0  0  0  0
   36.4240   20.0830   30.4220 C   0  0  0  0  0  0  0  0  0  0  0  0
   36.4600   18.7260   30.6680 C   0  0  0  0  0  0  0  0  0  0  0  0
   35.8940   18.1800   31.8120 C   0  0  0  0  0  0  0  0  0  0  0  0
   35.2910   19.0170   32.7080 C   0  0  0  0  0  0  0  0  0  0  0  0
   35.2520   20.3850   32.4640 C   0  0  0  0  0  0  0  0  0  0  0  0
   36.8580   20.5530   29.5320 H   0  0  0  0  0  0  0  0  0  0  0  0
   36.9420   18.0750   29.9470 H   0  0  0  0  0  0  0  0  0  0  0  0
   35.9090   17.1270   32.0240 H   0  0  0  0  0  0  0  0  0  0  0  0
   34.8220   18.6800   33.6300 H   0  0  0  0  0  0  0  0  0  0  0  0
   34.7660   21.0400   33.1910 H   0  0  0  0  0  0  0  0  0  0  0  0
  1  7  1  0  0  0  0
  1  2  1  0  0  0  0
  2  8  1  0  0  0  0
  3  2  2  0  0  0  0
  4  3  1  0  0  0  0
  5  6  1  0  0  0  0
  5  4  2  0  0  0  0
  6  1  2  0  0  0  0
 10  9  2  0  0  0  0
 10 16  1  0  0  0  0
 11  3  1  6  0  0  0
 11 12  1  0  0  0  0
 11 10  1  0  0  0  0
 12 13  1  0  0  0  0
 12 14  1  0  0  0  0
 14 15  1  0  0  0  0
 14 16  1  0  0  0  0
 16 17  1  0  0  0  0
 18  5  1  0  0  0  0
 19 18  2  0  0  0  0
 20 22  1  0  0  0  0
 20 23  1  0  0  0  0
 20 19  1  0  0  0  0
 21 20  1  0  0  0  0
 23 28  1  0  0  0  0
 24 25  1  0  0  0  0
 24 23  2  0  0  0  0
 25 26  2  0  0  0  0
 26 31  1  0  0  0  0
 26 27  1  0  0  0  0
 27 32  1  0  0  0  0
 28 27  2  0  0  0  0
 28 33  1  0  0  0  0
 29 24  1  0  0  0  0
 30 25  1  0  0  0  0
M  END
>  <minimizedAffinity>
-5.95808458

$$$$

 OpenBabel03272509063D

 33 35  0  0  1  0  0  0  0  0999 V2000
   40.3040   26.7920   34.2010 C   0  0  0  0  0  0  0  0  0  0  0  0
   40.5070   25.5690   34.8790 C   0  0  0  0  0  0  0  0  0  0  0  0
   39.3590   24.9330   35.4440 C   0  0  0  0  0  0  0  0  0  0  0  0
   38.1780   25.5780   35.2680 N   0  0  0  0  0  0  0  0  0  0  0  0
   38.0320   26.7310   34.6200 C   0  0  0  0  0  0  0  0  0  0  0  0
   39.0950   27.3380   34.0860 N   0  0  0  0  0  0  0  0  0  0  0  0
   41.2100   27.2290   33.7930 H   0  0  0  0  0  0  0  0  0  0  0  0
   41.4550   25.0770   35.0050 H   0  0  0  0  0  0  0  0  0  0  0  0
   38.1370   24.4420   38.2990 O   0  0  0  0  0  0  0  0  0  0  0  0
   38.8450   23.7240   37.5450 C   0  0  0  0  0  0  0  0  0  0  0  0
   39.4350   23.6680   36.1680 C   0  0  2  0  0  3  0  0  0  0  0  0
   40.8150   23.1880   36.4660 C   0  0  0  0  0  3  0  0  0  0  0  0
   41.3880   23.9620   37.0380 H   0  0  0  0  0  0  0  0  0  0  0  0
   40.5380   22.0580   37.4620 C   0  0  0  0  0  3  0  0  0  0  0  0
   41.3820   21.8980   38.1580 H   0  0  0  0  0  0  0  0  0  0  0  0
   39.3180   22.4810   38.1040 N   0  0  0  0  0  0  0  0  0  0  0  0
   39.0010   21.8020   38.8600 H   0  0  0  0  0  0  0  0  0  0  0  0
   36.6920   27.2550   34.5420 C   0  0  0  0  0  3  0  0  0  0  0  0
   36.4880   28.3860   33.9360 C   0  0  0  0  0  3  0  0  0  0  0  0
   35.2220   29.1030   33.7350 C   0  0  0  0  0  0  0  0  0  0  0  0
   34.3510   28.4060   33.7680 H   0  0  0  0  0  0  0  0  0  0  0  0
   35.1870   29.6080   32.7610 H   0  0  0  0  0  0  0  0  0  0  0  0
   34.9770   30.1400   34.7930 C   0  0  0  0  0  0  0  0  0  0  0  0
   35.9060   30.9710   35.3580 C   0  0  0  0  0  0  0  0  0  0  0  0
   35.5440   31.8850   36.3260 C   0  0  0  0  0  0  0  0  0  0  0  0
   34.2310   31.9960   36.7640 C   0  0  0  0  0  0  0  0  0  0  0  0
   33.2850   31.1770   36.2140 C   0  0  0  0  0  0  0  0  0  0  0  0
   33.6460   30.2560   35.2390 C   0  0  0  0  0  0  0  0  0  0  0  0
   36.9300   30.8520   34.9860 H   0  0  0  0  0  0  0  0  0  0  0  0
   36.3060   32.5280   36.7530 H   0  0  0  0  0  0  0  0  0  0  0  0
   33.9260   32.7000   37.5170 H   0  0  0  0  0  0  0  0  0  0  0  0
   32.2340   31.1940   36.4950 H   0  0  0  0  0  0  0  0  0  0  0  0
   32.8770   29.6080   34.8100 H   0  0  0  0  0  0  0  0  0  0  0  0
  1  2  1  0  0  0  0
  2  8  1  0  0  0  0
  2  3  2  0  0  0  0
  4  3  1  0  0  0  0
  5  4  2  0  0  0  0
  6  1  2  0  0  0  0
  6  5  1  0  0  0  0
  7  1  1  0  0  0  0
 10 16  1  0  0  0  0
 10  9  2  0  0  0  0
 11  3  1  1  0  0  0
 11 12  1  0  0  0  0
 11 10  1  0  0  0  0
 12 13  1  0  0  0  0
 12 14  1  0  0  0  0
 14 16  1  0  0  0  0
 14 15  1  0  0  0  0
 16 17  1  0  0  0  0
 18  5  1  0  0  0  0
 19 18  2  0  0  0  0
 20 21  1  0  0  0  0
 20 19  1  0  0  0  0
 20 23  1  0  0  0  0
 22 20  1  0  0  0  0
 23 28  2  0  0  0  0
 23 24  1  0  0  0  0
 24 25  2  0  0  0  0
 25 30  1  0  0  0  0
 25 26  1  0  0  0  0
 26 31  1  0  0  0  0
 27 32  1  0  0  0  0
 27 26  2  0  0  0  0
 28 27  1  0  0  0  0
 29 24  1  0  0  0  0
 33 28  1  0  0  0  0
M  END
>  <minimizedAffinity>
-5.95742655

$$$$

 OpenBabel03272509063D

 33 35  0  0  1  0  0  0  0  0999 V2000
   37.6590   24.4670   32.8410 C   0  0  0  0  0  0  0  0  0  0  0  0
   38.1990   23.5370   33.7570 C   0  0  0  0  0  0  0  0  0  0  0  0
   38.3790   23.9740   35.1060 C   0  0  0  0  0  0  0  0  0  0  0  0
   38.0060   25.2520   35.3700 N   0  0  0  0  0  0  0  0  0  0  0  0
   37.5000   26.0960   34.4740 C   0  0  0  0  0  0  0  0  0  0  0  0
   37.3260   25.7030   33.2090 N   0  0  0  0  0  0  0  0  0  0  0  0
   37.5450   24.0820   31.8320 H   0  0  0  0  0  0  0  0  0  0  0  0
   38.4870   22.5280   33.5230 H   0  0  0  0  0  0  0  0  0  0  0  0
   37.6740   24.2060   38.1610 O   0  0  0  0  0  0  0  0  0  0  0  0
   38.4930   23.4860   37.5330 C   0  0  0  0  0  0  0  0  0  0  0  0
   38.9270   23.1100   36.1480 C   0  0  2  0  0  3  0  0  0  0  0  0
   40.4110   23.1500   36.2900 C   0  0  0  0  0  3  0  0  0  0  0  0
   40.7630   24.1970   36.4720 H   0  0  0  0  0  0  0  0  0  0  0  0
   40.6110   22.4090   37.6160 C   0  0  0  0  0  3  0  0  0  0  0  0
   41.5280   22.7330   38.1410 H   0  0  0  0  0  0  0  0  0  0  0  0
   39.3920   22.6900   38.3340 N   0  0  0  0  0  0  0  0  0  0  0  0
   39.3860   22.2600   39.3080 H   0  0  0  0  0  0  0  0  0  0  0  0
   37.1670   27.4130   34.9530 C   0  0  0  0  0  3  0  0  0  0  0  0
   36.3540   28.1510   34.2600 C   0  0  0  0  0  3  0  0  0  0  0  0
   35.8760   29.5100   34.5510 C   0  0  0  0  0  0  0  0  0  0  0  0
   36.4910   30.2780   34.0220 H   0  0  0  0  0  0  0  0  0  0  0  0
   35.9310   29.7440   35.6220 H   0  0  0  0  0  0  0  0  0  0  0  0
   34.4570   29.7260   34.1120 C   0  0  0  0  0  0  0  0  0  0  0  0
   33.3280   29.5420   34.8650 C   0  0  0  0  0  0  0  0  0  0  0  0
   32.0760   29.7770   34.3350 C   0  0  0  0  0  0  0  0  0  0  0  0
   31.9120   30.2060   33.0250 C   0  0  0  0  0  0  0  0  0  0  0  0
   33.0240   30.3960   32.2530 C   0  0  0  0  0  0  0  0  0  0  0  0
   34.2860   30.1600   32.7840 C   0  0  0  0  0  0  0  0  0  0  0  0
   33.5010   29.2030   35.8930 H   0  0  0  0  0  0  0  0  0  0  0  0
   31.2040   29.6210   34.9610 H   0  0  0  0  0  0  0  0  0  0  0  0
   30.9470   30.3950   32.5910 H   0  0  0  0  0  0  0  0  0  0  0  0
   32.9920   30.7300   31.2180 H   0  0  0  0  0  0  0  0  0  0  0  0
   35.1650   30.3170   32.1530 H   0  0  0  0  0  0  0  0  0  0  0  0
  1  6  2  0  0  0  0
  1  2  1  0  0  0  0
  2  3  2  0  0  0  0
  3  4  1  0  0  0  0
  5 18  1  0  0  0  0
  5  4  2  0  0  0  0
  6  5  1  0  0  0  0
  7  1  1  0  0  0  0
  8  2  1  0  0  0  0
 10  9  2  0  0  0  0
 10 16  1  0  0  0  0
 11  3  1  6  0  0  0
 11 12  1  0  0  0  0
 11 10  1  0  0  0  0
 12 13  1  0  0  0  0
 12 14  1  0  0  0  0
 14 15  1  0  0  0  0
 14 16  1  0  0  0  0
 16 17  1  0  0  0  0
 19 20  1  0  0  0  0
 19 18  2  0  0  0  0
 20 22  1  0  0  0  0
 21 20  1  0  0  0  0
 23 20  1  0  0  0  0
 23 24  1  0  0  0  0
 24 29  1  0  0  0  0
 25 24  2  0  0  0  0
 25 30  1  0  0  0  0
 26 25  1  0  0  0  0
 27 28  1  0  0  0  0
 27 26  2  0  0  0  0
 28 23  2  0  0  0  0
 31 26  1  0  0  0  0
 32 27  1  0  0  0  0
 33 28  1  0  0  0  0
M  END
>  <minimizedAffinity>
-5.64793491

$$$$

 OpenBabel03272509063D

 33 35  0  0  1  0  0  0  0  0999 V2000
   41.9380   26.2320   34.2050 C   0  0  0  0  0  0  0  0  0  0  0  0
   42.0760   24.9130   34.6910 C   0  0  0  0  0  0  0  0  0  0  0  0
   40.9710   24.3590   35.4080 C   0  0  0  0  0  0  0  0  0  0  0  0
   39.8910   25.1680   35.5510 N   0  0  0  0  0  0  0  0  0  0  0  0
   39.8040   26.4080   35.0760 C   0  0  0  0  0  0  0  0  0  0  0  0
   40.8270   26.9400   34.4030 N   0  0  0  0  0  0  0  0  0  0  0  0
   42.8060   26.6010   33.6690 H   0  0  0  0  0  0  0  0  0  0  0  0
   42.9430   24.2910   34.5650 H   0  0  0  0  0  0  0  0  0  0  0  0
   39.2050   23.4050   37.8290 O   0  0  0  0  0  0  0  0  0  0  0  0
   40.1130   22.8370   37.1660 C   0  0  0  0  0  0  0  0  0  0  0  0
   40.9880   23.0070   35.9610 C   0  0  2  0  0  3  0  0  0  0  0  0
   42.3050   22.5550   36.4950 C   0  0  0  0  0  3  0  0  0  0  0  0
   42.6790   23.2650   37.2760 H   0  0  0  0  0  0  0  0  0  0  0  0
   41.9090   21.2820   37.2480 C   0  0  0  0  0  3  0  0  0  0  0  0
   42.5930   21.0640   38.0880 H   0  0  0  0  0  0  0  0  0  0  0  0
   40.5500   21.5500   37.6500 N   0  0  0  0  0  0  0  0  0  0  0  0
   40.1320   20.7550   38.2220 H   0  0  0  0  0  0  0  0  0  0  0  0
   38.5690   27.1050   35.3330 C   0  0  0  0  0  3  0  0  0  0  0  0
   37.7320   27.2900   34.3580 C   0  0  0  0  0  3  0  0  0  0  0  0
   36.4270   27.9650   34.3860 C   0  0  0  0  0  0  0  0  0  0  0  0
   36.3310   28.6260   35.2810 H   0  0  0  0  0  0  0  0  0  0  0  0
   35.5960   27.2500   34.4300 H   0  0  0  0  0  0  0  0  0  0  0  0
   36.2080   28.8400   33.1850 C   0  0  0  0  0  0  0  0  0  0  0  0
   35.6310   30.0810   33.1690 C   0  0  0  0  0  0  0  0  0  0  0  0
   35.4900   30.7820   31.9890 C   0  0  0  0  0  0  0  0  0  0  0  0
   35.9250   30.2590   30.7790 C   0  0  0  0  0  0  0  0  0  0  0  0
   36.5040   29.0210   30.7690 C   0  0  0  0  0  0  0  0  0  0  0  0
   36.6480   28.3130   31.9560 C   0  0  0  0  0  0  0  0  0  0  0  0
   35.3010   30.4580   34.1440 H   0  0  0  0  0  0  0  0  0  0  0  0
   35.0280   31.7630   32.0130 H   0  0  0  0  0  0  0  0  0  0  0  0
   35.8250   30.7860   29.8470 H   0  0  0  0  0  0  0  0  0  0  0  0
   36.8740   28.5330   29.8700 H   0  0  0  0  0  0  0  0  0  0  0  0
   37.1140   27.3240   31.9310 H   0  0  0  0  0  0  0  0  0  0  0  0
  1  6  2  0  0  0  0
  1  2  1  0  0  0  0
  2  3  2  0  0  0  0
  3  4  1  0  0  0  0
  5 18  1  0  0  0  0
  5  4  2  0  0  0  0
  6  5  1  0  0  0  0
  7  1  1  0  0  0  0
  8  2  1  0  0  0  0
 10 16  1  0  0  0  0
 10  9  2  0  0  0  0
 11  3  1  1  0  0  0
 11 12  1  0  0  0  0
 11 10  1  0  0  0  0
 12 14  1  0  0  0  0
 12 13  1  0  0  0  0
 14 16  1  0  0  0  0
 14 15  1  0  0  0  0
 16 17  1  0  0  0  0
 19 20  1  0  0  0  0
 19 18  2  0  0  0  0
 20 22  1  0  0  0  0
 20 21  1  0  0  0  0
 23 20  1  0  0  0  0
 24 23  1  0  0  0  0
 24 29  1  0  0  0  0
 25 30  1  0  0  0  0
 25 24  2  0  0  0  0
 26 25  1  0  0  0  0
 27 26  2  0  0  0  0
 27 28  1  0  0  0  0
 28 23  2  0  0  0  0
 31 26  1  0  0  0  0
 32 27  1  0  0  0  0
 33 28  1  0  0  0  0
M  END
>  <minimizedAffinity>
-5.57174873

$$$$

 OpenBabel03272509063D

 33 35  0  0  1  0  0  0  0  0999 V2000
   40.1900   26.6950   33.2700 C   0  0  0  0  0  0  0  0  0  0  0  0
   40.2010   25.7300   34.3010 C   0  0  0  0  0  0  0  0  0  0  0  0
   38.9520   25.4120   34.9170 C   0  0  0  0  0  0  0  0  0  0  0  0
   37.8700   26.0800   34.4410 N   0  0  0  0  0  0  0  0  0  0  0  0
   37.9050   26.9840   33.4660 C   0  0  0  0  0  0  0  0  0  0  0  0
   39.0640   27.2910   32.8790 N   0  0  0  0  0  0  0  0  0  0  0  0
   41.1650   26.8960   32.8380 H   0  0  0  0  0  0  0  0  0  0  0  0
   41.0730   25.2130   34.6610 H   0  0  0  0  0  0  0  0  0  0  0  0
   38.7750   22.3040   34.4790 O   0  0  0  0  0  0  0  0  0  0  0  0
   38.6790   23.0210   35.5090 C   0  0  0  0  0  0  0  0  0  0  0  0
   38.8290   24.4330   35.9930 C   0  0  2  0  0  3  0  0  0  0  0  0
   37.6140   24.5750   36.8460 C   0  0  0  0  0  3  0  0  0  0  0  0
   36.6860   24.5380   36.2210 H   0  0  0  0  0  0  0  0  0  0  0  0
   37.6370   23.2610   37.6320 C   0  0  0  0  0  3  0  0  0  0  0  0
   36.6250   22.9420   37.9430 H   0  0  0  0  0  0  0  0  0  0  0  0
   38.2890   22.3480   36.7240 N   0  0  0  0  0  0  0  0  0  0  0  0
   38.3570   21.3630   37.1200 H   0  0  0  0  0  0  0  0  0  0  0  0
   36.6450   27.5820   33.1040 C   0  0  0  0  0  3  0  0  0  0  0  0
   36.1510   28.5210   33.8530 C   0  0  0  0  0  3  0  0  0  0  0  0
   34.8970   29.2670   33.6820 C   0  0  0  0  0  0  0  0  0  0  0  0
   34.0200   28.5790   33.6290 H   0  0  0  0  0  0  0  0  0  0  0  0
   34.8930   29.8560   32.7550 H   0  0  0  0  0  0  0  0  0  0  0  0
   34.6310   30.2100   34.8190 C   0  0  0  0  0  0  0  0  0  0  0  0
   33.4340   30.4160   35.4510 C   0  0  0  0  0  0  0  0  0  0  0  0
   33.3260   31.3190   36.4890 C   0  0  0  0  0  0  0  0  0  0  0  0
   34.4210   32.0500   36.9300 C   0  0  0  0  0  0  0  0  0  0  0  0
   35.6260   31.8630   36.3140 C   0  0  0  0  0  0  0  0  0  0  0  0
   35.7380   30.9550   35.2690 C   0  0  0  0  0  0  0  0  0  0  0  0
   32.5960   29.8190   35.0730 H   0  0  0  0  0  0  0  0  0  0  0  0
   32.3630   31.4560   36.9670 H   0  0  0  0  0  0  0  0  0  0  0  0
   34.3610   32.7590   37.7360 H   0  0  0  0  0  0  0  0  0  0  0  0
   36.5360   32.3910   36.5920 H   0  0  0  0  0  0  0  0  0  0  0  0
   36.7100   30.8160   34.7870 H   0  0  0  0  0  0  0  0  0  0  0  0
  1  2  1  0  0  0  0
  2  8  1  0  0  0  0
  2  3  2  0  0  0  0
  4  3  1  0  0  0  0
  5  4  2  0  0  0  0
  6  1  2  0  0  0  0
  6  5  1  0  0  0  0
  7  1  1  0  0  0  0
  9 10  2  0  0  0  0
 10 11  1  0  0  0  0
 10 16  1  0  0  0  0
 11  3  1  6  0  0  0
 11 12  1  0  0  0  0
 12 14  1  0  0  0  0
 13 12  1  0  0  0  0
 14 15  1  0  0  0  0
 16 17  1  0  0  0  0
 16 14  1  0  0  0  0
 18  5  1  0  0  0  0
 18 19  2  0  0  0  0
 20 19  1  0  0  0  0
 20 23  1  0  0  0  0
 21 20  1  0  0  0  0
 22 20  1  0  0  0  0
 23 28  2  0  0  0  0
 23 24  1  0  0  0  0
 24 25  2  0  0  0  0
 25 26  1  0  0  0  0
 25 30  1  0  0  0  0
 26 31  1  0  0  0  0
 27 32  1  0  0  0  0
 27 26  2  0  0  0  0
 28 27  1  0  0  0  0
 29 24  1  0  0  0  0
 33 28  1  0  0  0  0
M  END
>  <minimizedAffinity>
-5.57158709

$$$$

 OpenBabel03272509063D

 33 35  0  0  1  0  0  0  0  0999 V2000
   38.8400   27.0460   33.2070 C   0  0  0  0  0  0  0  0  0  0  0  0
   39.1660   26.4320   34.4370 C   0  0  0  0  0  0  0  0  0  0  0  0
   38.6340   25.1290   34.6820 C   0  0  0  0  0  0  0  0  0  0  0  0
   37.8600   24.6100   33.6960 N   0  0  0  0  0  0  0  0  0  0  0  0
   37.5770   25.2240   32.5500 C   0  0  0  0  0  0  0  0  0  0  0  0
   38.0670   26.4420   32.3050 N   0  0  0  0  0  0  0  0  0  0  0  0
   39.2710   28.0330   33.0750 H   0  0  0  0  0  0  0  0  0  0  0  0
   39.7820   26.8650   35.2040 H   0  0  0  0  0  0  0  0  0  0  0  0
   39.1370   22.0280   34.8190 O   0  0  0  0  0  0  0  0  0  0  0  0
   39.0180   22.9080   35.7120 C   0  0  0  0  0  0  0  0  0  0  0  0
   38.8970   24.3890   35.9130 C   0  0  2  0  0  3  0  0  0  0  0  0
   37.8140   24.4520   36.9360 C   0  0  0  0  0  3  0  0  0  0  0  0
   36.8420   24.0970   36.5060 H   0  0  0  0  0  0  0  0  0  0  0  0
   38.2550   23.3620   37.9170 C   0  0  0  0  0  3  0  0  0  0  0  0
   37.4000   22.9130   38.4560 H   0  0  0  0  0  0  0  0  0  0  0  0
   38.9710   22.4350   37.0740 N   0  0  0  0  0  0  0  0  0  0  0  0
   39.3240   21.5870   37.6120 H   0  0  0  0  0  0  0  0  0  0  0  0
   36.7350   24.5040   31.6290 C   0  0  0  0  0  3  0  0  0  0  0  0
   36.3670   23.2930   31.9220 C   0  0  0  0  0  3  0  0  0  0  0  0
   35.5200   22.3790   31.1450 C   0  0  0  0  0  0  0  0  0  0  0  0
   35.7500   22.4410   30.0540 H   0  0  0  0  0  0  0  0  0  0  0  0
   34.4540   22.6120   31.2570 H   0  0  0  0  0  0  0  0  0  0  0  0
   35.7140   20.9430   31.5380 C   0  0  0  0  0  0  0  0  0  0  0  0
   34.7950   20.1260   32.1400 C   0  0  0  0  0  0  0  0  0  0  0  0
   35.1050   18.8170   32.4500 C   0  0  0  0  0  0  0  0  0  0  0  0
   36.3540   18.2820   32.1670 C   0  0  0  0  0  0  0  0  0  0  0  0
   37.2890   19.0780   31.5670 C   0  0  0  0  0  0  0  0  0  0  0  0
   36.9800   20.3960   31.2530 C   0  0  0  0  0  0  0  0  0  0  0  0
   33.8220   20.5870   32.3460 H   0  0  0  0  0  0  0  0  0  0  0  0
   34.3530   18.1980   32.9260 H   0  0  0  0  0  0  0  0  0  0  0  0
   36.6190   17.2660   32.4000 H   0  0  0  0  0  0  0  0  0  0  0  0
   38.2920   18.7450   31.3080 H   0  0  0  0  0  0  0  0  0  0  0  0
   37.7390   21.0200   30.7730 H   0  0  0  0  0  0  0  0  0  0  0  0
  1  2  1  0  0  0  0
  2  3  2  0  0  0  0
  2  8  1  0  0  0  0
  4  3  1  0  0  0  0
  5  4  2  0  0  0  0
  6  5  1  0  0  0  0
  6  1  2  0  0  0  0
  7  1  1  0  0  0  0
  9 10  2  0  0  0  0
 10 11  1  0  0  0  0
 10 16  1  0  0  0  0
 11  3  1  6  0  0  0
 11 12  1  0  0  0  0
 12 14  1  0  0  0  0
 13 12  1  0  0  0  0
 14 15  1  0  0  0  0
 16 17  1  0  0  0  0
 16 14  1  0  0  0  0
 18 19  2  0  0  0  0
 18  5  1  0  0  0  0
 20 22  1  0  0  0  0
 20 23  1  0  0  0  0
 20 19  1  0  0  0  0
 21 20  1  0  0  0  0
 23 24  1  0  0  0  0
 24 29  1  0  0  0  0
 24 25  2  0  0  0  0
 25 30  1  0  0  0  0
 26 31  1  0  0  0  0
 26 25  1  0  0  0  0
 27 26  2  0  0  0  0
 28 23  2  0  0  0  0
 28 27  1  0  0  0  0
 32 27  1  0  0  0  0
 33 28  1  0  0  0  0
M  END
>  <minimizedAffinity>
-5.55521727

$$$$

 OpenBabel03272509063D

 33 35  0  0  1  0  0  0  0  0999 V2000
   40.0360   25.9480   32.7270 C   0  0  0  0  0  0  0  0  0  0  0  0
   40.0610   25.0840   33.8450 C   0  0  0  0  0  0  0  0  0  0  0  0
   38.9610   25.1560   34.7540 C   0  0  0  0  0  0  0  0  0  0  0  0
   37.9950   26.0580   34.4460 N   0  0  0  0  0  0  0  0  0  0  0  0
   38.0120   26.8540   33.3790 C   0  0  0  0  0  0  0  0  0  0  0  0
   39.0320   26.7990   32.5200 N   0  0  0  0  0  0  0  0  0  0  0  0
   40.8950   25.8510   32.0710 H   0  0  0  0  0  0  0  0  0  0  0  0
   40.8390   24.3770   34.0680 H   0  0  0  0  0  0  0  0  0  0  0  0
   37.8850   22.2020   34.7700 O   0  0  0  0  0  0  0  0  0  0  0  0
   38.2410   22.9780   35.6940 C   0  0  0  0  0  0  0  0  0  0  0  0
   38.8670   24.3180   35.9460 C   0  0  2  0  0  3  0  0  0  0  0  0
   37.9870   24.8470   37.0270 C   0  0  0  0  0  3  0  0  0  0  0  0
   36.9540   25.0340   36.6400 H   0  0  0  0  0  0  0  0  0  0  0  0
   37.8700   23.6300   37.9490 C   0  0  0  0  0  3  0  0  0  0  0  0
   36.9230   23.6280   38.5200 H   0  0  0  0  0  0  0  0  0  0  0  0
   38.0120   22.5180   37.0420 N   0  0  0  0  0  0  0  0  0  0  0  0
   37.9230   21.5780   37.5340 H   0  0  0  0  0  0  0  0  0  0  0  0
   36.8890   27.7440   33.2280 C   0  0  0  0  0  3  0  0  0  0  0  0
   36.3430   28.2600   34.2880 C   0  0  0  0  0  3  0  0  0  0  0  0
   35.2020   29.1820   34.3760 C   0  0  0  0  0  0  0  0  0  0  0  0
   34.5600   28.9500   35.2590 H   0  0  0  0  0  0  0  0  0  0  0  0
   34.5570   29.1210   33.4900 H   0  0  0  0  0  0  0  0  0  0  0  0
   35.6320   30.6130   34.5260 C   0  0  0  0  0  0  0  0  0  0  0  0
   35.9570   31.2540   35.6910 C   0  0  0  0  0  0  0  0  0  0  0  0
   36.3380   32.5800   35.6880 C   0  0  0  0  0  0  0  0  0  0  0  0
   36.4050   33.3120   34.5110 C   0  0  0  0  0  0  0  0  0  0  0  0
   36.0850   32.6950   33.3350 C   0  0  0  0  0  0  0  0  0  0  0  0
   35.7010   31.3590   33.3340 C   0  0  0  0  0  0  0  0  0  0  0  0
   35.8910   30.6410   36.5970 H   0  0  0  0  0  0  0  0  0  0  0  0
   36.5880   33.0560   36.6300 H   0  0  0  0  0  0  0  0  0  0  0  0
   36.6980   34.3460   34.4840 H   0  0  0  0  0  0  0  0  0  0  0  0
   36.1090   33.1890   32.3660 H   0  0  0  0  0  0  0  0  0  0  0  0
   35.4480   30.8800   32.3840 H   0  0  0  0  0  0  0  0  0  0  0  0
  1  2  1  0  0  0  0
  2  8  1  0  0  0  0
  2  3  2  0  0  0  0
  4  3  1  0  0  0  0
  5  4  2  0  0  0  0
  6  1  2  0  0  0  0
  6  5  1  0  0  0  0
  7  1  1  0  0  0  0
  9 10  2  0  0  0  0
 10 11  1  0  0  0  0
 10 16  1  0  0  0  0
 11  3  1  6  0  0  0
 11 12  1  0  0  0  0
 12 14  1  0  0  0  0
 13 12  1  0  0  0  0
 14 15  1  0  0  0  0
 16 17  1  0  0  0  0
 16 14  1  0  0  0  0
 18  5  1  0  0  0  0
 18 19  2  0  0  0  0
 19 20  1  0  0  0  0
 20 23  1  0  0  0  0
 20 21  1  0  0  0  0
 22 20  1  0  0  0  0
 23 24  1  0  0  0  0
 24 29  1  0  0  0  0
 25 24  2  0  0  0  0
 25 30  1  0  0  0  0
 26 25  1  0  0  0  0
 27 26  2  0  0  0  0
 28 27  1  0  0  0  0
 28 23  2  0  0  0  0
 31 26  1  0  0  0  0
 32 27  1  0  0  0  0
 33 28  1  0  0  0  0
M  END
>  <minimizedAffinity>
-5.50744581

$$$$

 OpenBabel03272509063D

 33 35  0  0  1  0  0  0  0  0999 V2000
   33.9540   29.6100   33.2490 C   0  0  0  0  0  0  0  0  0  0  0  0
   33.9220   30.6860   34.1630 C   0  0  0  0  0  0  0  0  0  0  0  0
   34.9970   30.7850   35.0990 C   0  0  0  0  0  0  0  0  0  0  0  0
   35.9500   29.8230   35.0110 N   0  0  0  0  0  0  0  0  0  0  0  0
   35.9410   28.8240   34.1310 C   0  0  0  0  0  0  0  0  0  0  0  0
   34.9440   28.7180   33.2500 N   0  0  0  0  0  0  0  0  0  0  0  0
   33.1140   29.5850   32.5630 H   0  0  0  0  0  0  0  0  0  0  0  0
   33.1550   31.4380   34.2130 H   0  0  0  0  0  0  0  0  0  0  0  0
   32.9740   31.1600   37.4760 O   0  0  0  0  0  0  0  0  0  0  0  0
   33.9440   31.8530   37.0720 C   0  0  0  0  0  0  0  0  0  0  0  0
   35.0810   31.8500   36.0950 C   0  0  2  0  0  3  0  0  0  0  0  0
   34.9960   33.2360   35.5510 C   0  0  0  0  0  3  0  0  0  0  0  0
   34.0540   33.3720   34.9600 H   0  0  0  0  0  0  0  0  0  0  0  0
   34.8040   34.0560   36.8300 C   0  0  0  0  0  3  0  0  0  0  0  0
   34.2510   34.9950   36.6460 H   0  0  0  0  0  0  0  0  0  0  0  0
   34.1240   33.1350   37.7090 N   0  0  0  0  0  0  0  0  0  0  0  0
   33.8880   33.5720   38.6500 H   0  0  0  0  0  0  0  0  0  0  0  0
   37.0460   27.9030   34.2000 C   0  0  0  0  0  3  0  0  0  0  0  0
   37.7350   27.8190   35.2980 C   0  0  0  0  0  3  0  0  0  0  0  0
   38.8890   26.9610   35.5940 C   0  0  0  0  0  0  0  0  0  0  0  0
   39.3780   27.2540   36.5540 H   0  0  0  0  0  0  0  0  0  0  0  0
   39.6590   27.0260   34.8140 H   0  0  0  0  0  0  0  0  0  0  0  0
   38.5080   25.5150   35.7340 C   0  0  0  0  0  0  0  0  0  0  0  0
   38.5880   24.5480   34.7690 C   0  0  0  0  0  0  0  0  0  0  0  0
   38.2020   23.2500   35.0320 C   0  0  0  0  0  0  0  0  0  0  0  0
   37.7200   22.8760   36.2790 C   0  0  0  0  0  0  0  0  0  0  0  0
   37.6300   23.8240   37.2590 C   0  0  0  0  0  0  0  0  0  0  0  0
   38.0180   25.1320   36.9980 C   0  0  0  0  0  0  0  0  0  0  0  0
   38.9740   24.8840   33.7990 H   0  0  0  0  0  0  0  0  0  0  0  0
   38.2790   22.5090   34.2440 H   0  0  0  0  0  0  0  0  0  0  0  0
   37.4120   21.8710   36.5070 H   0  0  0  0  0  0  0  0  0  0  0  0
   37.2650   23.6220   38.2640 H   0  0  0  0  0  0  0  0  0  0  0  0
   37.9400   25.8780   37.7930 H   0  0  0  0  0  0  0  0  0  0  0  0
  1  6  2  0  0  0  0
  1  2  1  0  0  0  0
  2  8  1  0  0  0  0
  2  3  2  0  0  0  0
  4  3  1  0  0  0  0
  5 18  1  0  0  0  0
  5  4  2  0  0  0  0
  6  5  1  0  0  0  0
  7  1  1  0  0  0  0
 10  9  2  0  0  0  0
 10 16  1  0  0  0  0
 11  3  1  6  0  0  0
 11 10  1  0  0  0  0
 12 11  1  0  0  0  0
 12 14  1  0  0  0  0
 13 12  1  0  0  0  0
 14 16  1  0  0  0  0
 15 14  1  0  0  0  0
 16 17  1  0  0  0  0
 18 19  2  0  0  0  0
 19 20  1  0  0  0  0
 20 23  1  0  0  0  0
 20 21  1  0  0  0  0
 22 20  1  0  0  0  0
 23 28  1  0  0  0  0
 24 25  1  0  0  0  0
 24 23  2  0  0  0  0
 25 26  2  0  0  0  0
 26 31  1  0  0  0  0
 26 27  1  0  0  0  0
 27 32  1  0  0  0  0
 28 27  2  0  0  0  0
 28 33  1  0  0  0  0
 29 24  1  0  0  0  0
 30 25  1  0  0  0  0
M  END
>  <minimizedAffinity>
-5.48299313

$$$$

 OpenBabel03272509063D

 33 35  0  0  1  0  0  0  0  0999 V2000
   38.0200   25.3540   35.7940 C   0  0  0  0  0  0  0  0  0  0  0  0
   38.1940   24.2350   34.9500 C   0  0  0  0  0  0  0  0  0  0  0  0
   37.8370   24.3890   33.5750 C   0  0  0  0  0  0  0  0  0  0  0  0
   37.3610   25.6090   33.2190 N   0  0  0  0  0  0  0  0  0  0  0  0
   37.2130   26.6380   34.0500 C   0  0  0  0  0  0  0  0  0  0  0  0
   37.5430   26.5100   35.3370 N   0  0  0  0  0  0  0  0  0  0  0  0
   38.3070   25.1800   36.8270 H   0  0  0  0  0  0  0  0  0  0  0  0
   38.5730   23.2770   35.2560 H   0  0  0  0  0  0  0  0  0  0  0  0
   35.5110   23.3750   31.7170 O   0  0  0  0  0  0  0  0  0  0  0  0
   36.6870   22.9660   31.9020 C   0  0  0  0  0  0  0  0  0  0  0  0
   37.9690   23.3090   32.6000 C   0  0  2  0  0  3  0  0  0  0  0  0
   38.3520   21.9840   33.1670 C   0  0  0  0  0  3  0  0  0  0  0  0
   37.6230   21.6660   33.9550 H   0  0  0  0  0  0  0  0  0  0  0  0
   38.1020   21.0570   31.9740 C   0  0  0  0  0  3  0  0  0  0  0  0
   37.8540   20.0270   32.2900 H   0  0  0  0  0  0  0  0  0  0  0  0
   37.0420   21.7250   31.2580 N   0  0  0  0  0  0  0  0  0  0  0  0
   36.7280   21.1800   30.3990 H   0  0  0  0  0  0  0  0  0  0  0  0
   36.6900   27.8520   33.4770 C   0  0  0  0  0  3  0  0  0  0  0  0
   36.1310   28.7290   34.2540 C   0  0  0  0  0  3  0  0  0  0  0  0
   35.5360   30.0240   33.8960 C   0  0  0  0  0  0  0  0  0  0  0  0
   34.8170   29.9200   33.0480 H   0  0  0  0  0  0  0  0  0  0  0  0
   36.2950   30.7510   33.5800 H   0  0  0  0  0  0  0  0  0  0  0  0
   34.7680   30.6360   35.0320 C   0  0  0  0  0  0  0  0  0  0  0  0
   33.4500   30.4270   35.3380 C   0  0  0  0  0  0  0  0  0  0  0  0
   32.8640   31.0570   36.4170 C   0  0  0  0  0  0  0  0  0  0  0  0
   33.5840   31.9230   37.2290 C   0  0  0  0  0  0  0  0  0  0  0  0
   34.9010   32.1480   36.9430 C   0  0  0  0  0  0  0  0  0  0  0  0
   35.4940   31.5160   35.8570 C   0  0  0  0  0  0  0  0  0  0  0  0
   32.9180   29.7370   34.6730 H   0  0  0  0  0  0  0  0  0  0  0  0
   31.8180   30.8680   36.6300 H   0  0  0  0  0  0  0  0  0  0  0  0
   33.1490   32.4260   38.0740 H   0  0  0  0  0  0  0  0  0  0  0  0
   35.5420   32.8100   37.5230 H   0  0  0  0  0  0  0  0  0  0  0  0
   36.5490   31.7070   35.6430 H   0  0  0  0  0  0  0  0  0  0  0  0
  1  7  1  0  0  0  0
  2  8  1  0  0  0  0
  2  1  2  0  0  0  0
  3  2  1  0  0  0  0
  4  3  2  0  0  0  0
  4  5  1  0  0  0  0
  5  6  2  0  0  0  0
  6  1  1  0  0  0  0
  9 10  2  0  0  0  0
 10 11  1  0  0  0  0
 11 12  1  0  0  0  0
 11  3  1  1  0  0  0
 12 13  1  0  0  0  0
 14 15  1  0  0  0  0
 14 12  1  0  0  0  0
 16 10  1  0  0  0  0
 16 14  1  0  0  0  0
 17 16  1  0  0  0  0
 18  5  1  0  0  0  0
 18 19  2  0  0  0  0
 20 19  1  0  0  0  0
 20 23  1  0  0  0  0
 21 20  1  0  0  0  0
 22 20  1  0  0  0  0
 23 24  2  0  0  0  0
 23 28  1  0  0  0  0
 24 25  1  0  0  0  0
 25 30  1  0  0  0  0
 25 26  2  0  0  0  0
 26 31  1  0  0  0  0
 27 26  1  0  0  0  0
 27 32  1  0  0  0  0
 28 27  2  0  0  0  0
 29 24  1  0  0  0  0
 33 28  1  0  0  0  0
M  END
>  <minimizedAffinity>
-5.33744955

$$$$
