
 OpenBabel03272508113D

 34 36  0  0  1  0  0  0  0  0999 V2000
   36.7150   29.4260   44.0230 Cl  0  0  0  0  0  0  0  0  0  0  0  0
   38.3750   29.8180   43.5660 C   0  0  0  0  0  0  0  0  0  0  0  0
   39.3330   30.3110   44.4620 C   0  0  0  0  0  0  0  0  0  0  0  0
   40.6010   30.5780   43.9720 C   0  0  0  0  0  0  0  0  0  0  0  0
   40.8960   30.3610   42.6360 C   0  0  0  0  0  0  0  0  0  0  0  0
   39.9810   29.8850   41.7550 C   0  0  0  0  0  0  0  0  0  0  0  0
   38.7370   29.6210   42.2340 C   0  0  0  0  0  0  0  0  0  0  0  0
   41.2740   30.9500   44.7080 H   0  0  0  0  0  0  0  0  0  0  0  0
   41.9150   30.5990   42.3400 H   0  0  0  0  0  0  0  0  0  0  0  0
   40.2810   29.7380   40.7240 H   0  0  0  0  0  0  0  0  0  0  0  0
   38.7890   27.0760   40.6550 O   0  0  0  0  0  0  0  0  0  0  0  0
   38.3220   28.1820   40.2760 C   0  0  0  0  0  0  0  0  0  0  0  0
   37.7070   29.0910   41.2690 C   0  0  2  0  0  3  0  0  0  0  0  0
   37.1820   30.2790   40.4860 C   0  0  0  0  0  3  0  0  0  0  0  0
   36.0980   30.1250   40.2350 H   0  0  0  0  0  0  0  0  0  0  0  0
   38.0370   30.2300   39.2410 C   0  0  0  0  0  3  0  0  0  0  0  0
   37.5660   30.7620   38.3960 H   0  0  0  0  0  0  0  0  0  0  0  0
   38.2400   28.8190   38.9870 N   0  0  0  0  0  0  0  0  0  0  0  0
   38.3340   28.2120   38.1190 H   0  0  0  0  0  0  0  0  0  0  0  0
   38.8400   30.4550   45.7350 O   0  0  0  0  0  0  0  0  0  0  0  0
   39.3980   32.5250   47.1820 O   0  0  0  0  0  0  0  0  0  0  0  0
   38.2730   31.8390   46.4920 P   0  0  1  0  0  0  0  0  0  0  0  0
   37.6950   32.8480   45.2320 O   0  0  0  0  0  0  0  0  0  0  0  0
   36.8950   32.3860   44.8770 H   0  0  0  0  0  0  0  0  0  0  0  0
   36.9870   31.4350   47.5200 O   0  0  0  0  0  0  0  0  0  0  0  0
   37.5010   30.5330   51.0520 C   0  0  0  0  0  0  0  0  0  0  0  0
   37.6010   31.3220   49.9040 C   0  0  0  0  0  0  0  0  0  0  0  0
   37.0150   30.8560   48.7210 C   0  0  0  0  0  0  0  0  0  0  0  0
   36.3720   29.6460   48.7600 N   0  0  0  0  0  0  0  0  0  0  0  0
   36.2990   28.9190   49.8900 C   0  0  0  0  0  0  0  0  0  0  0  0
   36.8660   29.3700   51.0320 N   0  0  0  0  0  0  0  0  0  0  0  0
   37.9860   30.9910   51.8890 H   0  0  0  0  0  0  0  0  0  0  0  0
   38.0740   32.2740   49.7510 H   0  0  0  0  0  0  0  0  0  0  0  0
   35.7900   27.9580   49.9310 H   0  0  0  0  0  0  0  0  0  0  0  0
  2  1  1  0  0  0  0
  2  3  1  0  0  0  0
  3 20  1  0  0  0  0
  4  3  2  0  0  0  0
  4  8  1  0  0  0  0
  5  4  1  0  0  0  0
  6  7  1  0  0  0  0
  6  5  2  0  0  0  0
  7  2  2  0  0  0  0
  9  5  1  0  0  0  0
 10  6  1  0  0  0  0
 12 11  2  0  0  0  0
 12 13  1  0  0  0  0
 13  7  1  1  0  0  0
 14 13  1  0  0  0  0
 15 14  1  0  0  0  0
 16 14  1  0  0  0  0
 17 16  1  0  0  0  0
 18 16  1  0  0  0  0
 18 12  1  0  0  0  0
 19 18  1  0  0  0  0
 20 22  1  0  0  0  0
 22 21  2  1  0  0  0
 22 25  1  0  0  0  0
 23 22  1  0  0  0  0
 24 23  1  0  0  0  0
 25 28  1  0  0  0  0
 26 32  1  0  0  0  0
 27 26  2  0  0  0  0
 28 29  2  0  0  0  0
 28 27  1  0  0  0  0
 29 30  1  0  0  0  0
 30 34  1  0  0  0  0
 30 31  2  0  0  0  0
 31 26  1  0  0  0  0
 33 27  1  0  0  0  0
M  END
>  <minimizedAffinity>
-4.92380714

>  <minimizedRMSD>
0.315773457

$$$$
