
 OpenBabel03272505183D

 33 35  0  0  1  0  0  0  0  0999 V2000
   37.5310   29.7870   50.1840 C   0  0  0  0  0  0  0  0  0  0  0  0
   38.3800   30.3620   49.2200 C   0  0  0  0  0  0  0  0  0  0  0  0
   37.9010   30.7150   47.9650 C   0  0  0  0  0  0  0  0  0  0  0  0
   36.5830   30.4510   47.7950 N   0  0  0  0  0  0  0  0  0  0  0  0
   35.7650   29.9080   48.6960 C   0  0  0  0  0  0  0  0  0  0  0  0
   36.2460   29.5710   49.9060 N   0  0  0  0  0  0  0  0  0  0  0  0
   37.9900   29.5420   51.1350 H   0  0  0  0  0  0  0  0  0  0  0  0
   39.4100   30.5260   49.4680 H   0  0  0  0  0  0  0  0  0  0  0  0
   39.2520   32.5880   47.2400 C   0  0  0  0  0  0  0  0  0  0  0  0
   38.8390   31.2980   47.0390 C   0  0  0  0  0  0  0  0  0  0  0  0
   39.3530   30.6380   45.9530 C   0  0  0  0  0  0  0  0  0  0  0  0
   40.2300   31.2130   45.1040 C   0  0  0  0  0  0  0  0  0  0  0  0
   40.6690   32.5170   45.2750 C   0  0  0  0  0  0  0  0  0  0  0  0
   40.1590   33.1780   46.3580 C   0  0  0  0  0  0  0  0  0  0  0  0
   39.0190   29.6130   45.8020 H   0  0  0  0  0  0  0  0  0  0  0  0
   40.5790   30.6110   44.2740 H   0  0  0  0  0  0  0  0  0  0  0  0
   41.3730   32.9360   44.5680 H   0  0  0  0  0  0  0  0  0  0  0  0
   40.5440   34.1940   46.4310 H   0  0  0  0  0  0  0  0  0  0  0  0
   39.6240   34.5030   48.6330 N   0  0  0  0  0  0  0  0  0  0  0  0
   38.8680   33.4830   48.2940 C   0  0  0  0  0  0  0  0  0  0  0  0
   37.8610   33.7390   49.2440 N   0  0  0  0  0  0  0  0  0  0  0  0
   39.3280   35.1530   49.3960 H   0  0  0  0  0  0  0  0  0  0  0  0
   37.8600   33.2390   50.1670 H   0  0  0  0  0  0  0  0  0  0  0  0
   37.0620   34.3780   49.1980 H   0  0  0  0  0  0  0  0  0  0  0  0
   33.7510   29.5180   50.5320 O   0  0  0  0  0  0  0  0  0  0  0  0
   33.6190   28.9180   49.4130 C   0  0  0  0  0  0  0  0  0  0  0  0
   34.3330   29.6870   48.3380 C   0  0  2  0  0  0  0  0  0  0  0  0
   34.2010   28.7590   47.1530 C   0  0  0  0  0  0  0  0  0  0  0  0
   33.3500   29.0780   46.5220 H   0  0  0  0  0  0  0  0  0  0  0  0
   33.8490   27.4150   47.7520 C   0  0  0  0  0  0  0  0  0  0  0  0
   34.7810   26.9130   48.0830 H   0  0  0  0  0  0  0  0  0  0  0  0
   33.0060   27.7490   48.8780 N   0  0  0  0  0  0  0  0  0  0  0  0
   32.1450   27.4630   49.4250 H   0  0  0  0  0  0  0  0  0  0  0  0
  1  7  1  0  0  0  0
  2  8  1  0  0  0  0
  2  1  2  0  0  0  0
  3  2  1  0  0  0  0
  4  3  2  0  0  0  0
  4  5  1  0  0  0  0
  5  6  2  0  0  0  0
  6  1  1  0  0  0  0
  9 20  1  0  0  0  0
 10  9  1  0  0  0  0
 10  3  1  0  0  0  0
 11 10  2  0  0  0  0
 12 13  2  0  0  0  0
 12 11  1  0  0  0  0
 13 14  1  0  0  0  0
 14 18  1  0  0  0  0
 14  9  2  0  0  0  0
 15 11  1  0  0  0  0
 16 12  1  0  0  0  0
 17 13  1  0  0  0  0
 19 22  1  0  0  0  0
 20 19  2  0  0  0  0
 20 21  1  0  0  0  0
 21 23  1  0  0  0  0
 24 21  1  0  0  0  0
 26 25  2  0  0  0  0
 27  5  1  1  0  0  0
 27 26  1  0  0  0  0
 28 30  1  0  0  0  0
 28 27  1  0  0  0  0
 29 28  1  0  0  0  0
 30 31  1  0  0  0  0
 30 32  1  0  0  0  0
 32 26  1  0  0  0  0
 32 33  1  0  0  0  0
M  END
>  <minimizedAffinity>
-6.50502586

>  <minimizedRMSD>
1.59983122

$$$$
