
 OpenBabel03272502173D

 33 35  0  0  1  0  0  0  0  0999 V2000
   37.0620   30.5920   48.9370 C   0  0  0  0  0  0  0  0  0  0  0  0
   37.0840   31.6440   49.8840 C   0  0  0  0  0  0  0  0  0  0  0  0
   37.7850   32.7980   49.5690 C   0  0  0  0  0  0  0  0  0  0  0  0
   38.4210   32.8590   48.3550 N   0  0  0  0  0  0  0  0  0  0  0  0
   38.3810   31.8440   47.4800 C   0  0  0  0  0  0  0  0  0  0  0  0
   37.7050   30.7150   47.7700 N   0  0  0  0  0  0  0  0  0  0  0  0
   36.6180   31.6680   50.8380 H   0  0  0  0  0  0  0  0  0  0  0  0
   37.8470   33.6450   50.2410 H   0  0  0  0  0  0  0  0  0  0  0  0
   40.4690   34.0470   46.9920 O   0  0  0  0  0  0  0  0  0  0  0  0
   39.9660   33.2070   46.1870 C   0  0  0  0  0  0  0  0  0  0  0  0
   39.0940   31.9790   46.1830 C   0  0  2  0  0  3  0  0  0  0  0  0
   38.2020   32.2820   45.0220 C   0  0  0  0  0  3  0  0  0  0  0  0
   37.6910   31.3540   44.6620 H   0  0  0  0  0  0  0  0  0  0  0  0
   39.1930   32.8140   43.9920 C   0  0  0  0  0  3  0  0  0  0  0  0
   39.6430   31.9710   43.4050 H   0  0  0  0  0  0  0  0  0  0  0  0
   40.2540   33.3820   44.7950 N   0  0  0  0  0  0  0  0  0  0  0  0
   41.0800   33.8390   44.3060 H   0  0  0  0  0  0  0  0  0  0  0  0
   36.1280   29.1960   49.4940 S   0  0  0  0  0  0  0  0  0  0  0  0
   33.6870   28.1230   49.0580 N   0  0  0  0  0  0  0  0  0  0  0  0
   34.3390   29.4110   49.1480 C   0  0  2  0  0  0  0  0  0  0  0  0
   34.1970   30.1060   47.8110 C   0  0  0  0  0  0  0  0  0  0  0  0
   33.1550   29.5270   47.0580 O   0  0  0  0  0  0  0  0  0  0  0  0
   33.6610   28.2640   46.6760 C   0  0  0  0  0  0  0  0  0  0  0  0
   34.1450   27.4600   47.8580 C   0  0  2  0  0  0  0  0  0  0  0  0
   32.6710   28.2130   49.1250 H   0  0  0  0  0  0  0  0  0  0  0  0
   33.9210   29.9920   49.9770 H   0  0  0  0  0  0  0  0  0  0  0  0
   35.1150   30.0160   47.1960 H   0  0  0  0  0  0  0  0  0  0  0  0
   33.9790   31.1780   48.0250 H   0  0  0  0  0  0  0  0  0  0  0  0
   32.9170   27.7240   46.0770 H   0  0  0  0  0  0  0  0  0  0  0  0
   34.5160   28.5070   45.9930 H   0  0  0  0  0  0  0  0  0  0  0  0
   35.2520   27.4210   47.8810 H   0  0  0  0  0  0  0  0  0  0  0  0
   33.5890   26.1650   47.8290 O   0  0  0  0  0  0  0  0  0  0  0  0
   34.3260   25.5200   47.6910 H   0  0  0  0  0  0  0  0  0  0  0  0
  1 18  1  0  0  0  0
  1  2  1  0  0  0  0
  2  7  1  0  0  0  0
  3  2  2  0  0  0  0
  3  8  1  0  0  0  0
  4  3  1  0  0  0  0
  5  6  1  0  0  0  0
  5  4  2  0  0  0  0
  6  1  2  0  0  0  0
 10  9  2  0  0  0  0
 11 10  1  0  0  0  0
 11  5  1  1  0  0  0
 12 11  1  0  0  0  0
 13 12  1  0  0  0  0
 14 16  1  0  0  0  0
 14 12  1  0  0  0  0
 15 14  1  0  0  0  0
 16 10  1  0  0  0  0
 17 16  1  0  0  0  0
 19 25  1  0  0  0  0
 19 20  1  0  0  0  0
 20 18  1  0  0  0  0
 20 26  1  1  0  0  0
 21 28  1  0  0  0  0
 21 20  1  0  0  0  0
 22 21  1  0  0  0  0
 23 22  1  0  0  0  0
 23 24  1  0  0  0  0
 24 31  1  6  0  0  0
 24 19  1  0  0  0  0
 27 21  1  0  0  0  0
 29 23  1  0  0  0  0
 30 23  1  0  0  0  0
 32 24  1  0  0  0  0
 33 32  1  0  0  0  0
M  END
>  <minimizedAffinity>
-5.5479126

>  <minimizedRMSD>
0.806239426

$$$$
