
 OpenBabel03272504333D

 40 43  0  0  1  0  0  0  0  0999 V2000
   34.9690   29.5820   47.5410 C   0  0  0  0  0  0  0  0  0  0  0  0
   35.1110   29.9470   46.2120 C   0  0  0  0  0  0  0  0  0  0  0  0
   34.0610   29.7750   45.3250 C   0  0  0  0  0  0  0  0  0  0  0  0
   32.9070   29.2420   45.8180 N   0  0  0  0  0  0  0  0  0  0  0  0
   32.7970   28.8960   47.1220 C   0  0  0  0  0  0  0  0  0  0  0  0
   33.8140   29.0610   47.9830 N   0  0  0  0  0  0  0  0  0  0  0  0
   36.0620   30.3570   45.9290 H   0  0  0  0  0  0  0  0  0  0  0  0
   34.1800   30.0620   44.2920 H   0  0  0  0  0  0  0  0  0  0  0  0
   36.0120   29.7330   48.5070 N   0  0  0  0  0  0  0  0  0  0  0  0
   36.1260   28.8710   49.6760 C   0  0  0  0  0  0  0  0  0  0  0  0
   36.4410   29.5800   50.9510 C   0  0  0  0  0  0  0  0  0  0  0  0
   37.1550   30.7890   50.8680 N   0  0  0  0  0  0  0  0  0  0  0  0
   36.8470   31.5830   49.6890 C   0  0  0  0  0  0  0  0  0  0  0  0
   37.0630   30.6900   48.5000 C   0  0  0  0  0  0  0  0  0  0  0  0
   36.9170   28.1090   49.4300 H   0  0  0  0  0  0  0  0  0  0  0  0
   35.1770   28.2860   49.7650 H   0  0  0  0  0  0  0  0  0  0  0  0
   35.4770   29.7200   51.5060 H   0  0  0  0  0  0  0  0  0  0  0  0
   37.0290   28.8640   51.5950 H   0  0  0  0  0  0  0  0  0  0  0  0
   38.1750   30.7600   51.0840 H   0  0  0  0  0  0  0  0  0  0  0  0
   35.8280   31.9730   49.7220 H   0  0  0  0  0  0  0  0  0  0  0  0
   37.6310   32.3780   49.6590 H   0  0  0  0  0  0  0  0  0  0  0  0
   38.0450   30.1790   48.5720 H   0  0  0  0  0  0  0  0  0  0  0  0
   37.0370   31.2690   47.5710 H   0  0  0  0  0  0  0  0  0  0  0  0
   31.5290   28.3300   47.5830 C   0  0  0  0  0  0  0  0  0  0  0  0
   31.5100   27.4370   48.6380 C   0  0  0  0  0  0  0  0  0  0  0  0
   30.3480   26.8640   49.1240 C   0  0  0  0  0  0  0  0  0  0  0  0
   29.2120   27.2330   48.4970 N   0  0  0  0  0  0  0  0  0  0  0  0
   29.2370   28.1030   47.4670 C   0  0  0  0  0  0  0  0  0  0  0  0
   30.3700   28.6590   46.9970 N   0  0  0  0  0  0  0  0  0  0  0  0
   32.4460   27.1690   49.1140 H   0  0  0  0  0  0  0  0  0  0  0  0
   30.3980   26.1730   49.9520 H   0  0  0  0  0  0  0  0  0  0  0  0
   27.7990   26.4590   45.3470 O   0  0  0  0  0  0  0  0  0  0  0  0
   27.6990   27.7040   45.5770 C   0  0  0  0  0  0  0  0  0  0  0  0
   27.9720   28.4950   46.7900 C   0  0  2  0  0  3  0  0  0  0  0  0
   28.0480   29.9130   46.2320 C   0  0  0  0  0  3  0  0  0  0  0  0
   29.0250   30.0280   45.7590 H   0  0  0  0  0  0  0  0  0  0  0  0
   26.9480   29.8590   45.1780 C   0  0  0  0  0  3  0  0  0  0  0  0
   25.9800   29.8280   45.6990 H   0  0  0  0  0  0  0  0  0  0  0  0
   27.2520   28.5730   44.5450 N   0  0  0  0  0  0  0  0  0  0  0  0
   27.1320   28.4070   43.5050 H   0  0  0  0  0  0  0  0  0  0  0  0
  1  6  1  0  0  0  0
  1  9  1  0  0  0  0
  2  1  2  0  0  0  0
  3  4  2  0  0  0  0
  3  2  1  0  0  0  0
  4  5  1  0  0  0  0
  5 24  1  0  0  0  0
  5  6  2  0  0  0  0
  7  2  1  0  0  0  0
  8  3  1  0  0  0  0
  9 10  1  0  0  0  0
 10 16  1  0  0  0  0
 10 11  1  0  0  0  0
 11 17  1  0  0  0  0
 11 18  1  0  0  0  0
 12 11  1  0  0  0  0
 12 19  1  0  0  0  0
 13 20  1  0  0  0  0
 13 12  1  0  0  0  0
 14  9  1  0  0  0  0
 14 22  1  0  0  0  0
 14 13  1  0  0  0  0
 15 10  1  0  0  0  0
 21 13  1  0  0  0  0
 23 14  1  0  0  0  0
 24 25  1  0  0  0  0
 25 30  1  0  0  0  0
 25 26  2  0  0  0  0
 26 31  1  0  0  0  0
 27 26  1  0  0  0  0
 28 27  2  0  0  0  0
 29 28  1  0  0  0  0
 29 24  2  0  0  0  0
 32 33  2  0  0  0  0
 33 34  1  0  0  0  0
 34 28  1  6  0  0  0
 35 34  1  0  0  0  0
 36 35  1  0  0  0  0
 37 38  1  0  0  0  0
 37 35  1  0  0  0  0
 39 37  1  0  0  0  0
 39 33  1  0  0  0  0
 40 39  1  0  0  0  0
M  END
>  <minimizedAffinity>
-5.14148331

>  <minimizedRMSD>
0.31306082

$$$$
