
 OpenBabel03272504333D

 40 43  0  0  1  0  0  0  0  0999 V2000
   34.9490   29.5730   47.5480 C   0  0  0  0  0  0  0  0  0  0  0  0
   35.0900   29.9270   46.2150 C   0  0  0  0  0  0  0  0  0  0  0  0
   34.0370   29.7560   45.3330 C   0  0  0  0  0  0  0  0  0  0  0  0
   32.8810   29.2340   45.8330 N   0  0  0  0  0  0  0  0  0  0  0  0
   32.7710   28.8980   47.1400 C   0  0  0  0  0  0  0  0  0  0  0  0
   33.7920   29.0630   47.9960 N   0  0  0  0  0  0  0  0  0  0  0  0
   36.0430   30.3290   45.9270 H   0  0  0  0  0  0  0  0  0  0  0  0
   34.1550   30.0350   44.2980 H   0  0  0  0  0  0  0  0  0  0  0  0
   35.9960   29.7240   48.5090 N   0  0  0  0  0  0  0  0  0  0  0  0
   36.1120   28.8650   49.6800 C   0  0  0  0  0  0  0  0  0  0  0  0
   36.4330   29.5770   50.9520 C   0  0  0  0  0  0  0  0  0  0  0  0
   37.1500   30.7840   50.8630 N   0  0  0  0  0  0  0  0  0  0  0  0
   36.8400   31.5750   49.6830 C   0  0  0  0  0  0  0  0  0  0  0  0
   37.0490   30.6780   48.4970 C   0  0  0  0  0  0  0  0  0  0  0  0
   36.9000   28.1000   49.4350 H   0  0  0  0  0  0  0  0  0  0  0  0
   35.1620   28.2830   49.7740 H   0  0  0  0  0  0  0  0  0  0  0  0
   35.4710   29.7210   51.5110 H   0  0  0  0  0  0  0  0  0  0  0  0
   37.0210   28.8620   51.5960 H   0  0  0  0  0  0  0  0  0  0  0  0
   38.1700   30.7530   51.0760 H   0  0  0  0  0  0  0  0  0  0  0  0
   35.8220   31.9680   49.7190 H   0  0  0  0  0  0  0  0  0  0  0  0
   37.6260   32.3680   49.6490 H   0  0  0  0  0  0  0  0  0  0  0  0
   38.0300   30.1650   48.5660 H   0  0  0  0  0  0  0  0  0  0  0  0
   37.0220   31.2550   47.5660 H   0  0  0  0  0  0  0  0  0  0  0  0
   31.5020   28.3430   47.6080 C   0  0  0  0  0  0  0  0  0  0  0  0
   31.4770   27.4730   48.6810 C   0  0  0  0  0  0  0  0  0  0  0  0
   30.3140   26.9120   49.1760 C   0  0  0  0  0  0  0  0  0  0  0  0
   29.1800   27.2690   48.5370 N   0  0  0  0  0  0  0  0  0  0  0  0
   29.2100   28.1180   47.4890 C   0  0  0  0  0  0  0  0  0  0  0  0
   30.3450   28.6620   47.0110 N   0  0  0  0  0  0  0  0  0  0  0  0
   32.4110   27.2140   49.1660 H   0  0  0  0  0  0  0  0  0  0  0  0
   30.3600   26.2390   50.0180 H   0  0  0  0  0  0  0  0  0  0  0  0
   27.8080   26.4600   45.3540 O   0  0  0  0  0  0  0  0  0  0  0  0
   27.6940   27.7040   45.5840 C   0  0  0  0  0  0  0  0  0  0  0  0
   27.9470   28.4970   46.8000 C   0  0  2  0  0  3  0  0  0  0  0  0
   28.0140   29.9160   46.2430 C   0  0  0  0  0  3  0  0  0  0  0  0
   28.9940   30.0410   45.7800 H   0  0  0  0  0  0  0  0  0  0  0  0
   26.9250   29.8510   45.1790 C   0  0  0  0  0  3  0  0  0  0  0  0
   25.9510   29.8100   45.6900 H   0  0  0  0  0  0  0  0  0  0  0  0
   27.2490   28.5690   44.5470 N   0  0  0  0  0  0  0  0  0  0  0  0
   27.1410   28.4020   43.5070 H   0  0  0  0  0  0  0  0  0  0  0  0
  1  6  1  0  0  0  0
  1  9  1  0  0  0  0
  2  1  2  0  0  0  0
  3  4  2  0  0  0  0
  3  2  1  0  0  0  0
  4  5  1  0  0  0  0
  5 24  1  0  0  0  0
  5  6  2  0  0  0  0
  7  2  1  0  0  0  0
  8  3  1  0  0  0  0
  9 10  1  0  0  0  0
 10 16  1  0  0  0  0
 10 11  1  0  0  0  0
 11 17  1  0  0  0  0
 11 18  1  0  0  0  0
 12 11  1  0  0  0  0
 12 19  1  0  0  0  0
 13 20  1  0  0  0  0
 13 12  1  0  0  0  0
 14  9  1  0  0  0  0
 14 22  1  0  0  0  0
 14 13  1  0  0  0  0
 15 10  1  0  0  0  0
 21 13  1  0  0  0  0
 23 14  1  0  0  0  0
 24 25  1  0  0  0  0
 25 30  1  0  0  0  0
 25 26  2  0  0  0  0
 26 31  1  0  0  0  0
 27 26  1  0  0  0  0
 28 27  2  0  0  0  0
 29 28  1  0  0  0  0
 29 24  2  0  0  0  0
 32 33  2  0  0  0  0
 33 34  1  0  0  0  0
 34 28  1  6  0  0  0
 35 34  1  0  0  0  0
 36 35  1  0  0  0  0
 37 38  1  0  0  0  0
 37 35  1  0  0  0  0
 39 37  1  0  0  0  0
 39 33  1  0  0  0  0
 40 39  1  0  0  0  0
M  END
>  <minimizedAffinity>
-5.15003681

>  <minimizedRMSD>
0.469813496

$$$$
