
 OpenBabel03272506203D

 44 47  0  0  1  0  0  0  0  0999 V2000
   36.8700   31.0800   46.2690 C   0  0  2  0  0  0  0  0  0  0  0  0
   37.7630   31.4690   47.4460 C   0  0  0  0  0  0  0  0  0  0  0  0
   37.7600   30.4610   48.5380 C   0  0  0  0  0  0  0  0  0  0  0  0
   36.3880   30.1290   49.0220 C   0  0  0  0  0  0  0  0  0  0  0  0
   35.4090   29.8940   47.9260 C   0  0  0  0  0  0  0  0  0  0  0  0
   36.0340   29.8940   46.5350 C   0  0  1  0  0  0  0  0  0  0  0  0
   36.2690   31.9530   45.9420 H   0  0  0  0  0  0  0  0  0  0  0  0
   37.3460   32.4090   47.8580 H   0  0  0  0  0  0  0  0  0  0  0  0
   38.8020   31.6920   47.1450 H   0  0  0  0  0  0  0  0  0  0  0  0
   38.3920   30.8130   49.3490 H   0  0  0  0  0  0  0  0  0  0  0  0
   38.2160   29.4880   48.1970 H   0  0  0  0  0  0  0  0  0  0  0  0
   36.4830   29.2630   49.7190 H   0  0  0  0  0  0  0  0  0  0  0  0
   36.0550   30.9920   49.6440 H   0  0  0  0  0  0  0  0  0  0  0  0
   34.5550   30.6080   48.0040 H   0  0  0  0  0  0  0  0  0  0  0  0
   34.9800   28.8760   48.0830 H   0  0  0  0  0  0  0  0  0  0  0  0
   36.5820   28.9350   46.4460 H   0  0  0  0  0  0  0  0  0  0  0  0
   37.7500   30.7690   45.0940 C   0  0  0  0  0  0  0  0  0  0  0  0
   37.5960   31.6070   43.9880 C   0  0  0  0  0  0  0  0  0  0  0  0
   38.3960   31.3410   42.8710 C   0  0  0  0  0  0  0  0  0  0  0  0
   39.2870   30.2760   42.9100 N   0  0  0  0  0  0  0  0  0  0  0  0
   39.3950   29.4850   44.0230 C   0  0  0  0  0  0  0  0  0  0  0  0
   38.6400   29.7350   45.0850 N   0  0  0  0  0  0  0  0  0  0  0  0
   38.3260   32.1290   41.7030 N   0  0  0  0  0  0  0  0  0  0  0  0
   38.5980   33.4700   41.7260 C   0  0  0  0  0  0  0  0  0  0  0  0
   38.5270   34.2230   40.5780 C   0  0  0  0  0  0  0  0  0  0  0  0
   38.1800   33.5910   39.4150 C   0  0  0  0  0  0  0  0  0  0  0  0
   38.1120   34.2770   38.3500 O   0  0  0  0  0  0  0  0  0  0  0  0
   37.9090   32.2620   39.3830 N   0  0  0  0  0  0  0  0  0  0  0  0
   37.9940   31.5800   40.5390 C   0  0  0  0  0  0  0  0  0  0  0  0
   37.7230   30.3430   40.4090 O   0  0  0  0  0  0  0  0  0  0  0  0
   36.9360   32.4400   43.8810 H   0  0  0  0  0  0  0  0  0  0  0  0
   40.1080   28.6750   43.9860 H   0  0  0  0  0  0  0  0  0  0  0  0
   38.8720   33.9260   42.6830 H   0  0  0  0  0  0  0  0  0  0  0  0
   38.7560   35.2780   40.6720 H   0  0  0  0  0  0  0  0  0  0  0  0
   37.6480   31.8340   38.4670 H   0  0  0  0  0  0  0  0  0  0  0  0
   32.7560   29.7380   47.0030 O   0  0  0  0  0  0  0  0  0  0  0  0
   33.6300   29.3200   46.2060 C   0  0  0  0  0  0  0  0  0  0  0  0
   34.8680   29.8440   45.5640 C   0  0  2  0  0  3  0  0  0  0  0  0
   35.1240   28.9320   44.3860 C   0  0  0  0  0  3  0  0  0  0  0  0
   36.2290   28.7460   44.2470 H   0  0  0  0  0  0  0  0  0  0  0  0
   34.3530   27.6630   44.6060 C   0  0  0  0  0  3  0  0  0  0  0  0
   33.6600   27.4390   43.7560 H   0  0  0  0  0  0  0  0  0  0  0  0
   33.4760   27.9840   45.7280 N   0  0  0  0  0  0  0  0  0  0  0  0
   32.8430   27.1940   46.0440 H   0  0  0  0  0  0  0  0  0  0  0  0
  1  7  1  6  0  0  0
  1  6  1  0  0  0  0
  1  2  1  0  0  0  0
  2  8  1  0  0  0  0
  2  3  1  0  0  0  0
  3  4  1  0  0  0  0
  3 10  1  0  0  0  0
  4 13  1  0  0  0  0
  4 12  1  0  0  0  0
  5 14  1  0  0  0  0
  5 15  1  0  0  0  0
  5  4  1  0  0  0  0
  6 16  1  6  0  0  0
  6  5  1  0  0  0  0
  9  2  1  0  0  0  0
 11  3  1  0  0  0  0
 17  1  1  0  0  0  0
 18 17  2  0  0  0  0
 19 20  2  0  0  0  0
 19 18  1  0  0  0  0
 20 21  1  0  0  0  0
 21 22  2  0  0  0  0
 22 17  1  0  0  0  0
 23 24  1  0  0  0  0
 23 19  1  0  0  0  0
 24 33  1  0  0  0  0
 25 34  1  0  0  0  0
 25 24  2  0  0  0  0
 26 25  1  0  0  0  0
 27 26  2  0  0  0  0
 28 26  1  0  0  0  0
 28 29  1  0  0  0  0
 29 23  1  0  0  0  0
 30 29  2  0  0  0  0
 31 18  1  0  0  0  0
 32 21  1  0  0  0  0
 35 28  1  0  0  0  0
 37 36  2  0  0  0  0
 38 39  1  6  0  0  0
 38 37  1  0  0  0  0
 38  6  1  0  0  0  0
 39 41  1  0  0  0  0
 40 39  1  0  0  0  0
 41 43  1  0  0  0  0
 42 41  1  0  0  0  0
 43 44  1  0  0  0  0
 43 37  1  0  0  0  0
M  END
>  <minimizedAffinity>
-4.44915819

>  <minimizedRMSD>
6.46861839

$$$$
