
 OpenBabel03272505183D

 33 35  0  0  1  0  0  0  0  0999 V2000
   37.5440   29.7910   50.2540 C   0  0  0  0  0  0  0  0  0  0  0  0
   38.3870   30.3390   49.2680 C   0  0  0  0  0  0  0  0  0  0  0  0
   37.8770   30.7680   48.0500 C   0  0  0  0  0  0  0  0  0  0  0  0
   36.5370   30.6000   47.9350 N   0  0  0  0  0  0  0  0  0  0  0  0
   35.7250   30.0840   48.8570 C   0  0  0  0  0  0  0  0  0  0  0  0
   36.2360   29.6740   50.0320 N   0  0  0  0  0  0  0  0  0  0  0  0
   38.0290   29.4830   51.1740 H   0  0  0  0  0  0  0  0  0  0  0  0
   39.4360   30.4240   49.4710 H   0  0  0  0  0  0  0  0  0  0  0  0
   39.2460   32.6030   47.2660 C   0  0  0  0  0  0  0  0  0  0  0  0
   38.8100   31.3170   47.0980 C   0  0  0  0  0  0  0  0  0  0  0  0
   39.2970   30.6250   46.0190 C   0  0  0  0  0  0  0  0  0  0  0  0
   40.1700   31.1690   45.1450 C   0  0  0  0  0  0  0  0  0  0  0  0
   40.6320   32.4690   45.2830 C   0  0  0  0  0  0  0  0  0  0  0  0
   40.1480   33.1600   46.3590 C   0  0  0  0  0  0  0  0  0  0  0  0
   38.9450   29.6030   45.8940 H   0  0  0  0  0  0  0  0  0  0  0  0
   40.4970   30.5450   44.3230 H   0  0  0  0  0  0  0  0  0  0  0  0
   41.3320   32.8620   44.5570 H   0  0  0  0  0  0  0  0  0  0  0  0
   40.5510   34.1710   46.4050 H   0  0  0  0  0  0  0  0  0  0  0  0
   39.6600   34.5490   48.6030 N   0  0  0  0  0  0  0  0  0  0  0  0
   38.8920   33.5260   48.3070 C   0  0  0  0  0  0  0  0  0  0  0  0
   37.9090   33.8100   49.2740 N   0  0  0  0  0  0  0  0  0  0  0  0
   39.3860   35.2190   49.3560 H   0  0  0  0  0  0  0  0  0  0  0  0
   37.9270   33.3320   50.2080 H   0  0  0  0  0  0  0  0  0  0  0  0
   37.1130   34.4530   49.2320 H   0  0  0  0  0  0  0  0  0  0  0  0
   33.7790   29.7180   50.7700 O   0  0  0  0  0  0  0  0  0  0  0  0
   33.5560   29.1910   49.6290 C   0  0  0  0  0  0  0  0  0  0  0  0
   34.2670   29.9740   48.5610 C   0  0  2  0  0  3  0  0  0  0  0  0
   34.0170   29.1240   47.3370 C   0  0  0  0  0  3  0  0  0  0  0  0
   33.1600   29.5310   46.7690 H   0  0  0  0  0  0  0  0  0  0  0  0
   33.6070   27.7720   47.8820 C   0  0  0  0  0  3  0  0  0  0  0  0
   34.5180   27.1950   48.1370 H   0  0  0  0  0  0  0  0  0  0  0  0
   32.8420   28.0960   49.0660 N   0  0  0  0  0  0  0  0  0  0  0  0
   31.9920   27.8330   49.6400 H   0  0  0  0  0  0  0  0  0  0  0  0
  1  7  1  0  0  0  0
  2  8  1  0  0  0  0
  2  1  2  0  0  0  0
  3  2  1  0  0  0  0
  4  3  2  0  0  0  0
  4  5  1  0  0  0  0
  5  6  2  0  0  0  0
  6  1  1  0  0  0  0
  9 20  1  0  0  0  0
 10  9  1  0  0  0  0
 10  3  1  0  0  0  0
 11 10  2  0  0  0  0
 12 13  2  0  0  0  0
 12 11  1  0  0  0  0
 13 14  1  0  0  0  0
 14 18  1  0  0  0  0
 14  9  2  0  0  0  0
 15 11  1  0  0  0  0
 16 12  1  0  0  0  0
 17 13  1  0  0  0  0
 19 22  1  0  0  0  0
 20 19  2  0  0  0  0
 20 21  1  0  0  0  0
 21 23  1  0  0  0  0
 24 21  1  0  0  0  0
 26 25  2  0  0  0  0
 27  5  1  1  0  0  0
 27 26  1  0  0  0  0
 28 30  1  0  0  0  0
 28 27  1  0  0  0  0
 29 28  1  0  0  0  0
 30 31  1  0  0  0  0
 30 32  1  0  0  0  0
 32 26  1  0  0  0  0
 32 33  1  0  0  0  0
M  END
>  <minimizedAffinity>
-6.34864044

>  <minimizedRMSD>
0.946655214

$$$$
