
 OpenBabel03272504293D

 42 45  0  0  1  0  0  0  0  0999 V2000
   38.0600   25.7840   33.6420 C   0  0  0  0  0  0  0  0  0  0  0  0
   37.9880   26.9260   34.3580 C   0  0  0  0  0  0  0  0  0  0  0  0
   38.9360   27.2440   35.2520 C   0  0  0  0  0  0  0  0  0  0  0  0
   39.9830   26.3950   35.4330 N   0  0  0  0  0  0  0  0  0  0  0  0
   40.0420   25.2770   34.7220 C   0  0  0  0  0  0  0  0  0  0  0  0
   39.0970   24.9530   33.8270 N   0  0  0  0  0  0  0  0  0  0  0  0
   37.1450   27.5910   34.2010 H   0  0  0  0  0  0  0  0  0  0  0  0
   38.8610   28.1670   35.8180 H   0  0  0  0  0  0  0  0  0  0  0  0
   41.1500   23.4530   35.9390 C   0  0  0  0  0  0  0  0  0  0  0  0
   41.2080   24.4620   34.9750 C   0  0  0  0  0  0  0  0  0  0  0  0
   42.3360   24.7640   34.2390 C   0  0  0  0  0  0  0  0  0  0  0  0
   43.4870   24.0380   34.4550 C   0  0  0  0  0  0  0  0  0  0  0  0
   43.5270   23.0270   35.3840 C   0  0  0  0  0  0  0  0  0  0  0  0
   42.3710   22.8010   36.0590 C   0  0  0  0  0  0  0  0  0  0  0  0
   42.3340   25.5550   33.5020 H   0  0  0  0  0  0  0  0  0  0  0  0
   44.3680   24.2920   33.8640 H   0  0  0  0  0  0  0  0  0  0  0  0
   44.4090   22.4550   35.5650 H   0  0  0  0  0  0  0  0  0  0  0  0
   42.4040   21.9910   36.8020 H   0  0  0  0  0  0  0  0  0  0  0  0
   39.8040   23.0450   36.8300 S   0  0  0  0  0  0  0  0  0  0  0  0
   40.5480   22.1950   37.9120 O   0  0  0  0  0  0  0  0  0  0  0  0
   38.9690   22.1180   35.9840 O   0  0  0  0  0  0  0  0  0  0  0  0
   38.6860   23.3590   37.9270 C   0  0  0  0  0  0  0  0  0  0  0  0
   37.3540   22.8950   37.8810 F   0  0  0  0  0  0  0  0  0  0  0  0
   38.1960   24.7360   37.7520 F   0  0  0  0  0  0  0  0  0  0  0  0
   39.0260   23.7430   39.2550 F   0  0  0  0  0  0  0  0  0  0  0  0
   35.3970   25.9330   31.1200 C   0  0  0  0  0  0  0  0  0  0  0  0
   35.1760   24.5730   30.8270 C   0  0  0  0  0  0  0  0  0  0  0  0
   35.9520   23.6360   31.5100 C   0  0  0  0  0  0  0  0  0  0  0  0
   36.8680   24.0920   32.4100 N   0  0  0  0  0  0  0  0  0  0  0  0
   37.0520   25.4210   32.6650 C   0  0  0  0  0  0  0  0  0  0  0  0
   36.3130   26.3300   32.0170 N   0  0  0  0  0  0  0  0  0  0  0  0
   34.7950   26.6480   30.5890 H   0  0  0  0  0  0  0  0  0  0  0  0
   34.4270   24.3020   30.0970 H   0  0  0  0  0  0  0  0  0  0  0  0
   37.9910   21.7890   30.4090 O   0  0  0  0  0  0  0  0  0  0  0  0
   36.9730   21.4210   31.0660 C   0  0  0  0  0  0  0  0  0  0  0  0
   35.7470   22.2080   31.2290 C   0  0  1  0  0  3  0  0  0  0  0  0
   35.0970   21.4950   32.4220 C   0  0  0  0  0  3  0  0  0  0  0  0
   35.6350   21.8350   33.3170 H   0  0  0  0  0  0  0  0  0  0  0  0
   35.4780   20.0440   32.1190 C   0  0  0  0  0  3  0  0  0  0  0  0
   34.8580   19.6510   31.3000 H   0  0  0  0  0  0  0  0  0  0  0  0
   36.8940   20.1540   31.7500 N   0  0  0  0  0  0  0  0  0  0  0  0
   37.7330   19.5170   31.9000 H   0  0  0  0  0  0  0  0  0  0  0  0
  1  6  2  0  0  0  0
  1  2  1  0  0  0  0
  2  3  2  0  0  0  0
  3  4  1  0  0  0  0
  3  8  1  0  0  0  0
  5 10  1  0  0  0  0
  5  4  2  0  0  0  0
  6  5  1  0  0  0  0
  7  2  1  0  0  0  0
  9 14  1  0  0  0  0
  9 19  1  0  0  0  0
 10  9  2  0  0  0  0
 11 12  2  0  0  0  0
 11 10  1  0  0  0  0
 12 13  1  0  0  0  0
 13 17  1  0  0  0  0
 13 14  2  0  0  0  0
 14 18  1  0  0  0  0
 15 11  1  0  0  0  0
 16 12  1  0  0  0  0
 19 20  2  0  0  0  0
 19 22  1  0  0  0  0
 21 19  2  0  0  0  0
 22 25  1  0  0  0  0
 23 22  1  0  0  0  0
 24 22  1  0  0  0  0
 26 31  1  0  0  0  0
 27 26  2  0  0  0  0
 27 28  1  0  0  0  0
 28 29  2  0  0  0  0
 29 30  1  0  0  0  0
 30  1  1  0  0  0  0
 31 30  2  0  0  0  0
 32 26  1  0  0  0  0
 33 27  1  0  0  0  0
 34 35  2  0  0  0  0
 35 36  1  0  0  0  0
 35 41  1  0  0  0  0
 36 28  1  1  0  0  0
 36 37  1  0  0  0  0
 37 38  1  0  0  0  0
 39 37  1  0  0  0  0
 40 39  1  0  0  0  0
 41 42  1  0  0  0  0
 41 39  1  0  0  0  0
M  END
>  <minimizedAffinity>
-7.22020483

$$$$

 OpenBabel03272504293D

 42 45  0  0  1  0  0  0  0  0999 V2000
   34.6070   29.3310   32.6130 C   0  0  0  0  0  0  0  0  0  0  0  0
   35.2370   29.7730   31.5040 C   0  0  0  0  0  0  0  0  0  0  0  0
   36.5010   29.4130   31.2330 C   0  0  0  0  0  0  0  0  0  0  0  0
   37.1490   28.5880   32.0980 N   0  0  0  0  0  0  0  0  0  0  0  0
   36.5190   28.1600   33.1840 C   0  0  0  0  0  0  0  0  0  0  0  0
   35.2550   28.5180   33.4590 N   0  0  0  0  0  0  0  0  0  0  0  0
   34.7040   30.4320   30.8250 H   0  0  0  0  0  0  0  0  0  0  0  0
   36.9900   29.7780   30.3370 H   0  0  0  0  0  0  0  0  0  0  0  0
   37.5270   25.9590   33.5990 C   0  0  0  0  0  0  0  0  0  0  0  0
   37.2920   27.2690   34.0190 C   0  0  0  0  0  0  0  0  0  0  0  0
   37.7360   27.7880   35.2190 C   0  0  0  0  0  0  0  0  0  0  0  0
   38.4560   26.9780   36.0700 C   0  0  0  0  0  0  0  0  0  0  0  0
   38.7360   25.6730   35.7420 C   0  0  0  0  0  0  0  0  0  0  0  0
   38.2590   25.2510   34.5430 C   0  0  0  0  0  0  0  0  0  0  0  0
   37.5300   28.8110   35.5020 H   0  0  0  0  0  0  0  0  0  0  0  0
   38.7990   27.4050   37.0130 H   0  0  0  0  0  0  0  0  0  0  0  0
   39.2910   25.0320   36.3890 H   0  0  0  0  0  0  0  0  0  0  0  0
   38.4840   24.2060   34.2830 H   0  0  0  0  0  0  0  0  0  0  0  0
   37.0260   25.3030   32.1520 S   0  0  0  0  0  0  0  0  0  0  0  0
   37.0470   23.8080   32.6070 O   0  0  0  0  0  0  0  0  0  0  0  0
   38.1380   25.5160   31.1550 O   0  0  0  0  0  0  0  0  0  0  0  0
   35.8960   24.9070   31.0940 C   0  0  0  0  0  0  0  0  0  0  0  0
   35.1030   25.8260   30.3750 F   0  0  0  0  0  0  0  0  0  0  0  0
   34.6920   24.4500   31.8080 F   0  0  0  0  0  0  0  0  0  0  0  0
   35.8880   23.6390   30.4480 F   0  0  0  0  0  0  0  0  0  0  0  0
   31.2650   30.8430   32.4970 C   0  0  0  0  0  0  0  0  0  0  0  0
   30.6440   30.3030   33.6420 C   0  0  0  0  0  0  0  0  0  0  0  0
   31.3980   29.4310   34.4270 C   0  0  0  0  0  0  0  0  0  0  0  0
   32.6760   29.1570   34.0410 N   0  0  0  0  0  0  0  0  0  0  0  0
   33.2400   29.7020   32.9230 C   0  0  0  0  0  0  0  0  0  0  0  0
   32.5280   30.5410   32.1600 N   0  0  0  0  0  0  0  0  0  0  0  0
   30.6770   31.5130   31.8970 H   0  0  0  0  0  0  0  0  0  0  0  0
   29.6240   30.5760   33.8720 H   0  0  0  0  0  0  0  0  0  0  0  0
   30.2970   26.6890   34.6420 O   0  0  0  0  0  0  0  0  0  0  0  0
   30.6700   27.3880   35.6290 C   0  0  0  0  0  0  0  0  0  0  0  0
   30.7830   28.8500   35.6290 C   0  0  1  0  0  3  0  0  0  0  0  0
   31.6600   29.0760   36.8670 C   0  0  0  0  0  3  0  0  0  0  0  0
   32.6870   28.8280   36.5680 H   0  0  0  0  0  0  0  0  0  0  0  0
   31.1210   27.9840   37.7930 C   0  0  0  0  0  3  0  0  0  0  0  0
   30.1400   28.2760   38.1970 H   0  0  0  0  0  0  0  0  0  0  0  0
   31.0380   26.8200   36.9020 N   0  0  0  0  0  0  0  0  0  0  0  0
   31.1910   25.7780   37.0560 H   0  0  0  0  0  0  0  0  0  0  0  0
  1 30  1  0  0  0  0
  1  6  1  0  0  0  0
  2  1  2  0  0  0  0
  3  2  1  0  0  0  0
  3  4  2  0  0  0  0
  4  5  1  0  0  0  0
  5  6  2  0  0  0  0
  5 10  1  0  0  0  0
  7  2  1  0  0  0  0
  8  3  1  0  0  0  0
  9 10  2  0  0  0  0
  9 14  1  0  0  0  0
 10 11  1  0  0  0  0
 11 15  1  0  0  0  0
 11 12  2  0  0  0  0
 12 16  1  0  0  0  0
 13 12  1  0  0  0  0
 13 17  1  0  0  0  0
 14 13  2  0  0  0  0
 18 14  1  0  0  0  0
 19 20  2  0  0  0  0
 19  9  1  0  0  0  0
 21 19  2  0  0  0  0
 22 24  1  0  0  0  0
 22 19  1  0  0  0  0
 23 22  1  0  0  0  0
 25 22  1  0  0  0  0
 26 27  1  0  0  0  0
 27 33  1  0  0  0  0
 27 28  2  0  0  0  0
 29 28  1  0  0  0  0
 30 29  2  0  0  0  0
 31 26  2  0  0  0  0
 31 30  1  0  0  0  0
 32 26  1  0  0  0  0
 34 35  2  0  0  0  0
 35 41  1  0  0  0  0
 36 28  1  6  0  0  0
 36 35  1  0  0  0  0
 36 37  1  0  0  0  0
 37 39  1  0  0  0  0
 38 37  1  0  0  0  0
 39 40  1  0  0  0  0
 41 42  1  0  0  0  0
 41 39  1  0  0  0  0
M  END
>  <minimizedAffinity>
-6.95255518

$$$$

 OpenBabel03272504293D

 42 45  0  0  1  0  0  0  0  0999 V2000
   36.0370   28.1610   32.7030 C   0  0  0  0  0  0  0  0  0  0  0  0
   35.8670   28.7990   31.5250 C   0  0  0  0  0  0  0  0  0  0  0  0
   35.3560   30.0380   31.4750 C   0  0  0  0  0  0  0  0  0  0  0  0
   35.0060   30.6530   32.6360 N   0  0  0  0  0  0  0  0  0  0  0  0
   35.1780   30.0160   33.7870 C   0  0  0  0  0  0  0  0  0  0  0  0
   35.6890   28.7770   33.8430 N   0  0  0  0  0  0  0  0  0  0  0  0
   36.1520   28.2920   30.6090 H   0  0  0  0  0  0  0  0  0  0  0  0
   35.2270   30.5340   30.5190 H   0  0  0  0  0  0  0  0  0  0  0  0
   33.5120   30.6260   35.4850 C   0  0  0  0  0  0  0  0  0  0  0  0
   34.7960   30.7720   34.9580 C   0  0  0  0  0  0  0  0  0  0  0  0
   35.7520   31.6260   35.4720 C   0  0  0  0  0  0  0  0  0  0  0  0
   35.4370   32.3920   36.5730 C   0  0  0  0  0  0  0  0  0  0  0  0
   34.1970   32.3180   37.1600 C   0  0  0  0  0  0  0  0  0  0  0  0
   33.3240   31.4510   36.5870 C   0  0  0  0  0  0  0  0  0  0  0  0
   36.7350   31.7050   35.0290 H   0  0  0  0  0  0  0  0  0  0  0  0
   36.2040   33.0610   36.9650 H   0  0  0  0  0  0  0  0  0  0  0  0
   33.9360   32.9040   38.0130 H   0  0  0  0  0  0  0  0  0  0  0  0
   32.3320   31.3930   37.0590 H   0  0  0  0  0  0  0  0  0  0  0  0
   32.3420   29.5920   34.9070 S   0  0  0  0  0  0  0  0  0  0  0  0
   31.1250   30.5520   35.1190 O   0  0  0  0  0  0  0  0  0  0  0  0
   32.2270   28.4510   35.8860 O   0  0  0  0  0  0  0  0  0  0  0  0
   31.5220   28.9060   33.7190 C   0  0  0  0  0  0  0  0  0  0  0  0
   31.0220   27.5870   33.7380 F   0  0  0  0  0  0  0  0  0  0  0  0
   32.4460   28.5240   32.6390 F   0  0  0  0  0  0  0  0  0  0  0  0
   30.8350   29.6780   32.7410 F   0  0  0  0  0  0  0  0  0  0  0  0
   36.7940   24.6260   32.0680 C   0  0  0  0  0  0  0  0  0  0  0  0
   37.7510   24.3340   33.0600 C   0  0  0  0  0  0  0  0  0  0  0  0
   38.1100   25.3680   33.9260 C   0  0  0  0  0  0  0  0  0  0  0  0
   37.5180   26.5840   33.7590 N   0  0  0  0  0  0  0  0  0  0  0  0
   36.5940   26.8250   32.7840 C   0  0  0  0  0  0  0  0  0  0  0  0
   36.2400   25.8420   31.9460 N   0  0  0  0  0  0  0  0  0  0  0  0
   36.5230   23.8250   31.4050 H   0  0  0  0  0  0  0  0  0  0  0  0
   38.1690   23.3400   33.1190 H   0  0  0  0  0  0  0  0  0  0  0  0
   37.5040   24.5060   36.6950 O   0  0  0  0  0  0  0  0  0  0  0  0
   38.6150   24.3240   36.1170 C   0  0  0  0  0  0  0  0  0  0  0  0
   39.1060   25.0980   34.9740 C   0  0  1  0  0  3  0  0  0  0  0  0
   40.2230   24.1830   34.4570 C   0  0  0  0  0  3  0  0  0  0  0  0
   39.7280   23.3690   33.9090 H   0  0  0  0  0  0  0  0  0  0  0  0
   40.7750   23.6440   35.7790 C   0  0  0  0  0  3  0  0  0  0  0  0
   41.3770   24.4160   36.2820 H   0  0  0  0  0  0  0  0  0  0  0  0
   39.5550   23.3080   36.5230 N   0  0  0  0  0  0  0  0  0  0  0  0
   39.3180   22.5330   37.2120 H   0  0  0  0  0  0  0  0  0  0  0  0
  1 30  1  0  0  0  0
  1  6  1  0  0  0  0
  2  1  2  0  0  0  0
  3  2  1  0  0  0  0
  3  4  2  0  0  0  0
  4  5  1  0  0  0  0
  5  6  2  0  0  0  0
  5 10  1  0  0  0  0
  7  2  1  0  0  0  0
  8  3  1  0  0  0  0
  9 14  1  0  0  0  0
 10 11  1  0  0  0  0
 10  9  2  0  0  0  0
 11 12  2  0  0  0  0
 12 16  1  0  0  0  0
 12 13  1  0  0  0  0
 13 17  1  0  0  0  0
 14 18  1  0  0  0  0
 14 13  2  0  0  0  0
 15 11  1  0  0  0  0
 19 20  2  0  0  0  0
 19  9  1  0  0  0  0
 19 21  2  0  0  0  0
 22 23  1  0  0  0  0
 22 19  1  0  0  0  0
 24 22  1  0  0  0  0
 25 22  1  0  0  0  0
 26 27  1  0  0  0  0
 27 33  1  0  0  0  0
 27 28  2  0  0  0  0
 29 28  1  0  0  0  0
 30 29  2  0  0  0  0
 31 26  2  0  0  0  0
 31 30  1  0  0  0  0
 32 26  1  0  0  0  0
 35 41  1  0  0  0  0
 35 34  2  0  0  0  0
 36 28  1  6  0  0  0
 36 35  1  0  0  0  0
 37 36  1  0  0  0  0
 37 39  1  0  0  0  0
 38 37  1  0  0  0  0
 39 40  1  0  0  0  0
 39 41  1  0  0  0  0
 41 42  1  0  0  0  0
M  END
>  <minimizedAffinity>
-6.73647404

$$$$

 OpenBabel03272504293D

 42 45  0  0  1  0  0  0  0  0999 V2000
   37.8510   25.4760   33.6550 C   0  0  0  0  0  0  0  0  0  0  0  0
   37.3060   26.3780   34.4990 C   0  0  0  0  0  0  0  0  0  0  0  0
   38.0750   27.1340   35.2970 C   0  0  0  0  0  0  0  0  0  0  0  0
   39.4250   26.9810   35.2470 N   0  0  0  0  0  0  0  0  0  0  0  0
   39.9480   26.0920   34.4130 C   0  0  0  0  0  0  0  0  0  0  0  0
   39.1840   25.3330   33.6130 N   0  0  0  0  0  0  0  0  0  0  0  0
   36.2260   26.4850   34.5250 H   0  0  0  0  0  0  0  0  0  0  0  0
   37.6180   27.8530   35.9680 H   0  0  0  0  0  0  0  0  0  0  0  0
   42.0330   24.9460   35.0240 C   0  0  0  0  0  0  0  0  0  0  0  0
   41.3920   26.0310   34.4240 C   0  0  0  0  0  0  0  0  0  0  0  0
   42.0530   27.0940   33.8420 C   0  0  0  0  0  0  0  0  0  0  0  0
   43.4310   27.1040   33.8450 C   0  0  0  0  0  0  0  0  0  0  0  0
   44.1490   26.0800   34.4140 C   0  0  0  0  0  0  0  0  0  0  0  0
   43.4140   25.0790   34.9610 C   0  0  0  0  0  0  0  0  0  0  0  0
   41.5140   27.9140   33.3880 H   0  0  0  0  0  0  0  0  0  0  0  0
   43.9350   27.9530   33.3810 H   0  0  0  0  0  0  0  0  0  0  0  0
   45.2150   26.0720   34.4260 H   0  0  0  0  0  0  0  0  0  0  0  0
   43.9900   24.2590   35.4160 H   0  0  0  0  0  0  0  0  0  0  0  0
   41.2710   23.6360   35.7170 S   0  0  0  0  0  0  0  0  0  0  0  0
   42.4160   23.2610   36.7140 O   0  0  0  0  0  0  0  0  0  0  0  0
   41.1820   22.5600   34.6640 O   0  0  0  0  0  0  0  0  0  0  0  0
   40.2380   22.9810   36.7440 C   0  0  0  0  0  0  0  0  0  0  0  0
   40.5930   22.1680   37.8410 F   0  0  0  0  0  0  0  0  0  0  0  0
   39.5840   21.8220   36.1160 F   0  0  0  0  0  0  0  0  0  0  0  0
   38.9290   23.5090   36.9270 F   0  0  0  0  0  0  0  0  0  0  0  0
   35.4520   24.3540   31.1140 C   0  0  0  0  0  0  0  0  0  0  0  0
   35.5780   22.9510   31.1710 C   0  0  0  0  0  0  0  0  0  0  0  0
   36.4900   22.4280   32.0890 C   0  0  0  0  0  0  0  0  0  0  0  0
   37.1950   23.2980   32.8650 N   0  0  0  0  0  0  0  0  0  0  0  0
   37.0420   24.6520   32.7780 C   0  0  0  0  0  0  0  0  0  0  0  0
   36.1710   25.1680   31.9020 N   0  0  0  0  0  0  0  0  0  0  0  0
   34.7480   24.7490   30.4040 H   0  0  0  0  0  0  0  0  0  0  0  0
   34.9780   22.3370   30.5160 H   0  0  0  0  0  0  0  0  0  0  0  0
   35.5310   20.7230   34.3140 O   0  0  0  0  0  0  0  0  0  0  0  0
   35.7720   20.3030   33.1450 C   0  0  0  0  0  0  0  0  0  0  0  0
   36.6470   20.9690   32.1750 C   0  0  1  0  0  3  0  0  0  0  0  0
   36.2150   20.2840   30.8720 C   0  0  0  0  0  3  0  0  0  0  0  0
   35.2610   20.7450   30.5820 H   0  0  0  0  0  0  0  0  0  0  0  0
   35.9610   18.8620   31.3750 C   0  0  0  0  0  3  0  0  0  0  0  0
   36.9150   18.3460   31.5550 H   0  0  0  0  0  0  0  0  0  0  0  0
   35.2020   19.0900   32.6120 N   0  0  0  0  0  0  0  0  0  0  0  0
   34.4130   18.5560   33.0860 H   0  0  0  0  0  0  0  0  0  0  0  0
  1  2  1  0  0  0  0
  2  7  1  0  0  0  0
  2  3  2  0  0  0  0
  3  8  1  0  0  0  0
  4  3  1  0  0  0  0
  5 10  1  0  0  0  0
  5  4  2  0  0  0  0
  6  1  2  0  0  0  0
  6  5  1  0  0  0  0
  9 19  1  0  0  0  0
 10  9  2  0  0  0  0
 11 12  2  0  0  0  0
 11 10  1  0  0  0  0
 12 13  1  0  0  0  0
 13 17  1  0  0  0  0
 13 14  2  0  0  0  0
 14  9  1  0  0  0  0
 14 18  1  0  0  0  0
 15 11  1  0  0  0  0
 16 12  1  0  0  0  0
 19 20  2  0  0  0  0
 19 22  1  0  0  0  0
 21 19  2  0  0  0  0
 22 25  1  0  0  0  0
 22 23  1  0  0  0  0
 24 22  1  0  0  0  0
 26 27  2  0  0  0  0
 26 31  1  0  0  0  0
 27 28  1  0  0  0  0
 28 29  2  0  0  0  0
 30 29  1  0  0  0  0
 30  1  1  0  0  0  0
 31 30  2  0  0  0  0
 32 26  1  0  0  0  0
 33 27  1  0  0  0  0
 35 34  2  0  0  0  0
 36 28  1  6  0  0  0
 36 35  1  0  0  0  0
 37 39  1  0  0  0  0
 37 36  1  0  0  0  0
 38 37  1  0  0  0  0
 39 40  1  0  0  0  0
 39 41  1  0  0  0  0
 41 42  1  0  0  0  0
 41 35  1  0  0  0  0
M  END
>  <minimizedAffinity>
-6.69246626

$$$$

 OpenBabel03272504293D

 42 45  0  0  1  0  0  0  0  0999 V2000
   36.2000   27.9990   32.8820 C   0  0  0  0  0  0  0  0  0  0  0  0
   36.0050   28.5420   31.6620 C   0  0  0  0  0  0  0  0  0  0  0  0
   35.4590   29.7590   31.5240 C   0  0  0  0  0  0  0  0  0  0  0  0
   35.0980   30.4490   32.6390 N   0  0  0  0  0  0  0  0  0  0  0  0
   35.2960   29.9050   33.8320 C   0  0  0  0  0  0  0  0  0  0  0  0
   35.8410   28.6870   33.9760 N   0  0  0  0  0  0  0  0  0  0  0  0
   36.2980   27.9760   30.7830 H   0  0  0  0  0  0  0  0  0  0  0  0
   35.3100   30.1790   30.5350 H   0  0  0  0  0  0  0  0  0  0  0  0
   33.6100   30.6220   35.4690 C   0  0  0  0  0  0  0  0  0  0  0  0
   34.9000   30.7350   34.9470 C   0  0  0  0  0  0  0  0  0  0  0  0
   35.8490   31.6220   35.4150 C   0  0  0  0  0  0  0  0  0  0  0  0
   35.5210   32.4580   36.4600 C   0  0  0  0  0  0  0  0  0  0  0  0
   34.2740   32.4200   37.0370 C   0  0  0  0  0  0  0  0  0  0  0  0
   33.4090   31.5160   36.5120 C   0  0  0  0  0  0  0  0  0  0  0  0
   36.8370   31.6730   34.9790 H   0  0  0  0  0  0  0  0  0  0  0  0
   36.2830   33.1520   36.8160 H   0  0  0  0  0  0  0  0  0  0  0  0
   34.0040   33.0600   37.8460 H   0  0  0  0  0  0  0  0  0  0  0  0
   32.4120   31.4870   36.9750 H   0  0  0  0  0  0  0  0  0  0  0  0
   32.4470   29.5510   34.9460 S   0  0  0  0  0  0  0  0  0  0  0  0
   31.2800   30.5850   34.8300 O   0  0  0  0  0  0  0  0  0  0  0  0
   32.1480   28.6180   36.0920 O   0  0  0  0  0  0  0  0  0  0  0  0
   31.7230   28.6920   33.8090 C   0  0  0  0  0  0  0  0  0  0  0  0
   32.2910   28.3600   32.5610 F   0  0  0  0  0  0  0  0  0  0  0  0
   30.7290   29.5280   33.1170 F   0  0  0  0  0  0  0  0  0  0  0  0
   30.6460   27.8110   34.1080 F   0  0  0  0  0  0  0  0  0  0  0  0
   38.1770   25.1790   34.1520 C   0  0  0  0  0  0  0  0  0  0  0  0
   37.8340   24.1390   33.2650 C   0  0  0  0  0  0  0  0  0  0  0  0
   36.9280   24.4400   32.2470 C   0  0  0  0  0  0  0  0  0  0  0  0
   36.4360   25.7090   32.1760 N   0  0  0  0  0  0  0  0  0  0  0  0
   36.7940   26.6880   33.0570 C   0  0  0  0  0  0  0  0  0  0  0  0
   37.6630   26.4130   34.0390 N   0  0  0  0  0  0  0  0  0  0  0  0
   38.8740   24.9390   34.9340 H   0  0  0  0  0  0  0  0  0  0  0  0
   38.2740   23.1620   33.3960 H   0  0  0  0  0  0  0  0  0  0  0  0
   38.7620   23.0850   30.3540 O   0  0  0  0  0  0  0  0  0  0  0  0
   37.6640   22.6000   30.7580 C   0  0  0  0  0  0  0  0  0  0  0  0
   36.5490   23.3800   31.3020 C   0  0  1  0  0  3  0  0  0  0  0  0
   35.7340   22.2810   31.9970 C   0  0  0  0  0  3  0  0  0  0  0  0
   36.2560   22.0560   32.9370 H   0  0  0  0  0  0  0  0  0  0  0  0
   35.9320   21.1250   31.0150 C   0  0  0  0  0  3  0  0  0  0  0  0
   35.3170   21.2800   30.1160 H   0  0  0  0  0  0  0  0  0  0  0  0
   37.3710   21.1880   30.7310 N   0  0  0  0  0  0  0  0  0  0  0  0
   38.1040   20.4420   30.5370 H   0  0  0  0  0  0  0  0  0  0  0  0
  1 30  1  0  0  0  0
  1  6  1  0  0  0  0
  2  1  2  0  0  0  0
  3  2  1  0  0  0  0
  3  4  2  0  0  0  0
  4  5  1  0  0  0  0
  5  6  2  0  0  0  0
  5 10  1  0  0  0  0
  7  2  1  0  0  0  0
  8  3  1  0  0  0  0
  9 14  1  0  0  0  0
 10 11  1  0  0  0  0
 10  9  2  0  0  0  0
 11 12  2  0  0  0  0
 12 16  1  0  0  0  0
 12 13  1  0  0  0  0
 13 17  1  0  0  0  0
 14 18  1  0  0  0  0
 14 13  2  0  0  0  0
 15 11  1  0  0  0  0
 19  9  1  0  0  0  0
 19 21  2  0  0  0  0
 20 19  2  0  0  0  0
 22 25  1  0  0  0  0
 22 19  1  0  0  0  0
 23 22  1  0  0  0  0
 24 22  1  0  0  0  0
 26 32  1  0  0  0  0
 27 33  1  0  0  0  0
 27 26  2  0  0  0  0
 28 27  1  0  0  0  0
 29 28  2  0  0  0  0
 29 30  1  0  0  0  0
 30 31  2  0  0  0  0
 31 26  1  0  0  0  0
 34 35  2  0  0  0  0
 35 36  1  0  0  0  0
 36 37  1  0  0  0  0
 36 28  1  1  0  0  0
 37 38  1  0  0  0  0
 39 37  1  0  0  0  0
 40 39  1  0  0  0  0
 41 35  1  0  0  0  0
 41 39  1  0  0  0  0
 42 41  1  0  0  0  0
M  END
>  <minimizedAffinity>
-6.67155361

$$$$

 OpenBabel03272504293D

 42 45  0  0  1  0  0  0  0  0999 V2000
   39.6080   25.7560   33.4120 C   0  0  0  0  0  0  0  0  0  0  0  0
   40.3810   26.8610   33.4860 C   0  0  0  0  0  0  0  0  0  0  0  0
   41.5150   26.8670   34.2040 C   0  0  0  0  0  0  0  0  0  0  0  0
   41.8820   25.7360   34.8640 N   0  0  0  0  0  0  0  0  0  0  0  0
   41.1140   24.6570   34.7820 C   0  0  0  0  0  0  0  0  0  0  0  0
   39.9790   24.6460   34.0660 N   0  0  0  0  0  0  0  0  0  0  0  0
   40.0720   27.7540   32.9530 H   0  0  0  0  0  0  0  0  0  0  0  0
   42.1220   27.7640   34.2510 H   0  0  0  0  0  0  0  0  0  0  0  0
   40.8040   22.8870   36.4560 C   0  0  0  0  0  0  0  0  0  0  0  0
   41.6110   23.5060   35.5000 C   0  0  0  0  0  0  0  0  0  0  0  0
   42.8960   23.1050   35.1950 C   0  0  0  0  0  0  0  0  0  0  0  0
   43.4350   22.0280   35.8670 C   0  0  0  0  0  0  0  0  0  0  0  0
   42.7160   21.3560   36.8260 C   0  0  0  0  0  0  0  0  0  0  0  0
   41.4630   21.8220   37.0570 C   0  0  0  0  0  0  0  0  0  0  0  0
   43.4840   23.6150   34.4460 H   0  0  0  0  0  0  0  0  0  0  0  0
   44.4510   21.7250   35.6120 H   0  0  0  0  0  0  0  0  0  0  0  0
   43.1170   20.5220   37.3550 H   0  0  0  0  0  0  0  0  0  0  0  0
   40.8890   21.2830   37.8250 H   0  0  0  0  0  0  0  0  0  0  0  0
   39.2440   23.3280   36.8360 S   0  0  0  0  0  0  0  0  0  0  0  0
   39.3500   23.0830   38.3760 O   0  0  0  0  0  0  0  0  0  0  0  0
   38.3260   22.2860   36.2470 O   0  0  0  0  0  0  0  0  0  0  0  0
   38.1180   24.4190   37.1450 C   0  0  0  0  0  0  0  0  0  0  0  0
   38.2440   25.8030   36.9020 F   0  0  0  0  0  0  0  0  0  0  0  0
   38.0790   24.6920   38.5910 F   0  0  0  0  0  0  0  0  0  0  0  0
   36.7450   24.0650   37.2630 F   0  0  0  0  0  0  0  0  0  0  0  0
   36.4460   24.6900   31.8830 C   0  0  0  0  0  0  0  0  0  0  0  0
   36.0790   25.8160   31.1200 C   0  0  0  0  0  0  0  0  0  0  0  0
   36.9360   26.9170   31.1510 C   0  0  0  0  0  0  0  0  0  0  0  0
   38.0640   26.8340   31.9120 N   0  0  0  0  0  0  0  0  0  0  0  0
   38.3820   25.7230   32.6370 C   0  0  0  0  0  0  0  0  0  0  0  0
   37.5690   24.6590   32.6160 N   0  0  0  0  0  0  0  0  0  0  0  0
   35.7810   23.8460   31.8540 H   0  0  0  0  0  0  0  0  0  0  0  0
   35.1650   25.7930   30.5450 H   0  0  0  0  0  0  0  0  0  0  0  0
   35.1300   29.0910   32.0390 O   0  0  0  0  0  0  0  0  0  0  0  0
   36.0070   29.2150   31.1340 C   0  0  0  0  0  0  0  0  0  0  0  0
   36.5850   28.1090   30.3660 C   0  0  1  0  0  3  0  0  0  0  0  0
   37.8350   28.7790   29.7820 C   0  0  0  0  0  3  0  0  0  0  0  0
   38.5720   28.8210   30.5960 H   0  0  0  0  0  0  0  0  0  0  0  0
   37.2960   30.1840   29.5100 C   0  0  0  0  0  3  0  0  0  0  0  0
   36.6490   30.1780   28.6200 H   0  0  0  0  0  0  0  0  0  0  0  0
   36.5570   30.4890   30.7410 N   0  0  0  0  0  0  0  0  0  0  0  0
   36.4020   31.3870   31.2890 H   0  0  0  0  0  0  0  0  0  0  0  0
  1  2  2  0  0  0  0
  1  6  1  0  0  0  0
  2  3  1  0  0  0  0
  3  8  1  0  0  0  0
  3  4  2  0  0  0  0
  5  4  1  0  0  0  0
  5 10  1  0  0  0  0
  6  5  2  0  0  0  0
  7  2  1  0  0  0  0
  9 19  1  0  0  0  0
  9 14  1  0  0  0  0
 10  9  2  0  0  0  0
 11 10  1  0  0  0  0
 11 12  2  0  0  0  0
 12 13  1  0  0  0  0
 13 14  2  0  0  0  0
 13 17  1  0  0  0  0
 14 18  1  0  0  0  0
 15 11  1  0  0  0  0
 16 12  1  0  0  0  0
 19 22  1  0  0  0  0
 19 20  2  0  0  0  0
 21 19  2  0  0  0  0
 22 25  1  0  0  0  0
 22 24  1  0  0  0  0
 23 22  1  0  0  0  0
 26 31  1  0  0  0  0
 27 28  1  0  0  0  0
 27 26  2  0  0  0  0
 28 29  2  0  0  0  0
 29 30  1  0  0  0  0
 30  1  1  0  0  0  0
 31 30  2  0  0  0  0
 32 26  1  0  0  0  0
 33 27  1  0  0  0  0
 35 34  2  0  0  0  0
 36 35  1  0  0  0  0
 36 28  1  1  0  0  0
 37 36  1  0  0  0  0
 37 38  1  0  0  0  0
 39 37  1  0  0  0  0
 39 41  1  0  0  0  0
 40 39  1  0  0  0  0
 41 35  1  0  0  0  0
 41 42  1  0  0  0  0
M  END
>  <minimizedAffinity>
-6.62580585

$$$$

 OpenBabel03272504293D

 42 45  0  0  1  0  0  0  0  0999 V2000
   36.8970   27.7120   33.0680 C   0  0  0  0  0  0  0  0  0  0  0  0
   37.6620   27.8020   31.9590 C   0  0  0  0  0  0  0  0  0  0  0  0
   38.6040   26.8850   31.6900 C   0  0  0  0  0  0  0  0  0  0  0  0
   38.7820   25.8520   32.5550 N   0  0  0  0  0  0  0  0  0  0  0  0
   38.0240   25.7740   33.6400 C   0  0  0  0  0  0  0  0  0  0  0  0
   37.0810   26.6880   33.9150 N   0  0  0  0  0  0  0  0  0  0  0  0
   37.5050   28.6350   31.2810 H   0  0  0  0  0  0  0  0  0  0  0  0
   39.2080   26.9750   30.7940 H   0  0  0  0  0  0  0  0  0  0  0  0
   37.9470   23.3480   34.0160 C   0  0  0  0  0  0  0  0  0  0  0  0
   38.2810   24.6230   34.4750 C   0  0  0  0  0  0  0  0  0  0  0  0
   38.8350   24.8780   35.7140 C   0  0  0  0  0  0  0  0  0  0  0  0
   39.0790   23.8220   36.5650 C   0  0  0  0  0  0  0  0  0  0  0  0
   38.7820   22.5310   36.2000 C   0  0  0  0  0  0  0  0  0  0  0  0
   38.2420   22.3780   34.9650 C   0  0  0  0  0  0  0  0  0  0  0  0
   39.0780   25.8840   36.0260 H   0  0  0  0  0  0  0  0  0  0  0  0
   39.5170   24.0440   37.5390 H   0  0  0  0  0  0  0  0  0  0  0  0
   38.9640   21.7030   36.8470 H   0  0  0  0  0  0  0  0  0  0  0  0
   38.0050   21.3430   34.6750 H   0  0  0  0  0  0  0  0  0  0  0  0
   37.2990   22.9980   32.5220 S   0  0  0  0  0  0  0  0  0  0  0  0
   36.3360   21.8620   32.9990 O   0  0  0  0  0  0  0  0  0  0  0  0
   38.3940   22.3790   31.6910 O   0  0  0  0  0  0  0  0  0  0  0  0
   36.2840   23.2770   31.3210 C   0  0  0  0  0  0  0  0  0  0  0  0
   36.3570   24.3760   30.4390 F   0  0  0  0  0  0  0  0  0  0  0  0
   35.0200   23.8100   31.8560 F   0  0  0  0  0  0  0  0  0  0  0  0
   35.5000   22.2370   30.7460 F   0  0  0  0  0  0  0  0  0  0  0  0
   33.8100   29.6960   33.0220 C   0  0  0  0  0  0  0  0  0  0  0  0
   34.0030   30.5890   34.0950 C   0  0  0  0  0  0  0  0  0  0  0  0
   35.1980   30.4840   34.8070 C   0  0  0  0  0  0  0  0  0  0  0  0
   36.0950   29.5320   34.4240 N   0  0  0  0  0  0  0  0  0  0  0  0
   35.8690   28.6860   33.3780 C   0  0  0  0  0  0  0  0  0  0  0  0
   34.7260   28.7760   32.6850 N   0  0  0  0  0  0  0  0  0  0  0  0
   32.8860   29.7830   32.4790 H   0  0  0  0  0  0  0  0  0  0  0  0
   33.2360   31.3130   34.3280 H   0  0  0  0  0  0  0  0  0  0  0  0
   36.7650   32.9960   34.6810 O   0  0  0  0  0  0  0  0  0  0  0  0
   35.8880   32.7430   35.5590 C   0  0  0  0  0  0  0  0  0  0  0  0
   35.4340   31.4010   35.9320 C   0  0  1  0  0  3  0  0  0  0  0  0
   34.1270   31.7270   36.6670 C   0  0  0  0  0  3  0  0  0  0  0  0
   33.3820   31.9470   35.8900 H   0  0  0  0  0  0  0  0  0  0  0  0
   34.5220   33.0240   37.3750 C   0  0  0  0  0  3  0  0  0  0  0  0
   35.1750   32.8050   38.2330 H   0  0  0  0  0  0  0  0  0  0  0  0
   35.2150   33.7700   36.3170 N   0  0  0  0  0  0  0  0  0  0  0  0
   35.2720   34.8050   36.0790 H   0  0  0  0  0  0  0  0  0  0  0  0
  1 30  1  0  0  0  0
  1  6  1  0  0  0  0
  2  1  2  0  0  0  0
  3  2  1  0  0  0  0
  3  4  2  0  0  0  0
  4  5  1  0  0  0  0
  5  6  2  0  0  0  0
  5 10  1  0  0  0  0
  7  2  1  0  0  0  0
  8  3  1  0  0  0  0
  9 10  2  0  0  0  0
  9 14  1  0  0  0  0
 10 11  1  0  0  0  0
 11 15  1  0  0  0  0
 11 12  2  0  0  0  0
 12 16  1  0  0  0  0
 13 12  1  0  0  0  0
 13 17  1  0  0  0  0
 14 13  2  0  0  0  0
 18 14  1  0  0  0  0
 19 20  2  0  0  0  0
 19  9  1  0  0  0  0
 21 19  2  0  0  0  0
 22 24  1  0  0  0  0
 22 19  1  0  0  0  0
 23 22  1  0  0  0  0
 25 22  1  0  0  0  0
 26 27  1  0  0  0  0
 27 33  1  0  0  0  0
 27 28  2  0  0  0  0
 29 28  1  0  0  0  0
 30 29  2  0  0  0  0
 31 26  2  0  0  0  0
 31 30  1  0  0  0  0
 32 26  1  0  0  0  0
 34 35  2  0  0  0  0
 35 36  1  0  0  0  0
 35 41  1  0  0  0  0
 36 28  1  6  0  0  0
 36 37  1  0  0  0  0
 37 39  1  0  0  0  0
 38 37  1  0  0  0  0
 39 40  1  0  0  0  0
 41 39  1  0  0  0  0
 42 41  1  0  0  0  0
M  END
>  <minimizedAffinity>
-6.60528898

$$$$

 OpenBabel03272504293D

 42 45  0  0  1  0  0  0  0  0999 V2000
   35.5600   29.8230   33.4300 C   0  0  0  0  0  0  0  0  0  0  0  0
   36.1140   30.5570   32.4410 C   0  0  0  0  0  0  0  0  0  0  0  0
   36.6370   29.9710   31.3530 C   0  0  0  0  0  0  0  0  0  0  0  0
   36.6040   28.6150   31.2550 N   0  0  0  0  0  0  0  0  0  0  0  0
   36.0560   27.9060   32.2330 C   0  0  0  0  0  0  0  0  0  0  0  0
   35.5320   28.4870   33.3230 N   0  0  0  0  0  0  0  0  0  0  0  0
   36.1330   31.6380   32.5370 H   0  0  0  0  0  0  0  0  0  0  0  0
   37.0780   30.5780   30.5690 H   0  0  0  0  0  0  0  0  0  0  0  0
   36.8990   25.6610   32.7640 C   0  0  0  0  0  0  0  0  0  0  0  0
   36.0510   26.4780   32.0140 C   0  0  0  0  0  0  0  0  0  0  0  0
   35.1990   26.0140   31.0320 C   0  0  0  0  0  0  0  0  0  0  0  0
   35.1690   24.6630   30.7590 C   0  0  0  0  0  0  0  0  0  0  0  0
   35.9690   23.7810   31.4450 C   0  0  0  0  0  0  0  0  0  0  0  0
   36.7730   24.3290   32.3920 C   0  0  0  0  0  0  0  0  0  0  0  0
   34.5590   26.6850   30.4760 H   0  0  0  0  0  0  0  0  0  0  0  0
   34.4890   24.3150   29.9810 H   0  0  0  0  0  0  0  0  0  0  0  0
   35.9590   22.7340   31.2470 H   0  0  0  0  0  0  0  0  0  0  0  0
   37.4120   23.6210   32.9400 H   0  0  0  0  0  0  0  0  0  0  0  0
   37.9240   26.1810   33.9690 S   0  0  0  0  0  0  0  0  0  0  0  0
   39.0330   26.7630   33.0330 O   0  0  0  0  0  0  0  0  0  0  0  0
   38.4710   24.9530   34.6530 O   0  0  0  0  0  0  0  0  0  0  0  0
   38.3850   27.2360   35.0760 C   0  0  0  0  0  0  0  0  0  0  0  0
   39.7240   27.5200   35.4160 F   0  0  0  0  0  0  0  0  0  0  0  0
   38.1820   26.6640   36.4180 F   0  0  0  0  0  0  0  0  0  0  0  0
   37.5360   28.2990   35.4970 F   0  0  0  0  0  0  0  0  0  0  0  0
   35.0660   31.8350   36.4600 C   0  0  0  0  0  0  0  0  0  0  0  0
   33.7430   31.5160   36.8270 C   0  0  0  0  0  0  0  0  0  0  0  0
   33.0550   30.6110   36.0180 C   0  0  0  0  0  0  0  0  0  0  0  0
   33.7000   30.0970   34.9330 N   0  0  0  0  0  0  0  0  0  0  0  0
   34.9830   30.4330   34.6120 C   0  0  0  0  0  0  0  0  0  0  0  0
   35.6550   31.3010   35.3790 N   0  0  0  0  0  0  0  0  0  0  0  0
   35.5890   32.5330   37.0880 H   0  0  0  0  0  0  0  0  0  0  0  0
   33.3110   31.9730   37.7060 H   0  0  0  0  0  0  0  0  0  0  0  0
   30.6920   30.9240   34.2580 O   0  0  0  0  0  0  0  0  0  0  0  0
   30.7520   30.1270   35.2400 C   0  0  0  0  0  0  0  0  0  0  0  0
   31.6740   30.2550   36.3720 C   0  0  1  0  0  3  0  0  0  0  0  0
   31.5990   28.8450   36.9720 C   0  0  0  0  0  3  0  0  0  0  0  0
   32.2130   28.2020   36.3270 H   0  0  0  0  0  0  0  0  0  0  0  0
   30.1190   28.5260   36.7490 C   0  0  0  0  0  3  0  0  0  0  0  0
   29.4990   29.0750   37.4730 H   0  0  0  0  0  0  0  0  0  0  0  0
   29.9000   28.9710   35.3680 N   0  0  0  0  0  0  0  0  0  0  0  0
   29.2880   28.6050   34.5780 H   0  0  0  0  0  0  0  0  0  0  0  0
  1 30  1  0  0  0  0
  2  7  1  0  0  0  0
  2  1  2  0  0  0  0
  3  2  1  0  0  0  0
  4  3  2  0  0  0  0
  4  5  1  0  0  0  0
  5  6  2  0  0  0  0
  6  1  1  0  0  0  0
  8  3  1  0  0  0  0
  9 19  1  0  0  0  0
 10  5  1  0  0  0  0
 10  9  2  0  0  0  0
 11 10  1  0  0  0  0
 12 11  2  0  0  0  0
 12 13  1  0  0  0  0
 13 14  2  0  0  0  0
 14  9  1  0  0  0  0
 14 18  1  0  0  0  0
 15 11  1  0  0  0  0
 16 12  1  0  0  0  0
 17 13  1  0  0  0  0
 19 21  2  0  0  0  0
 19 22  1  0  0  0  0
 20 19  2  0  0  0  0
 22 23  1  0  0  0  0
 22 25  1  0  0  0  0
 22 24  1  0  0  0  0
 26 27  1  0  0  0  0
 26 32  1  0  0  0  0
 27 33  1  0  0  0  0
 28 27  2  0  0  0  0
 29 28  1  0  0  0  0
 30 29  2  0  0  0  0
 30 31  1  0  0  0  0
 31 26  2  0  0  0  0
 34 35  2  0  0  0  0
 35 41  1  0  0  0  0
 35 36  1  0  0  0  0
 36 28  1  6  0  0  0
 36 37  1  0  0  0  0
 38 37  1  0  0  0  0
 39 37  1  0  0  0  0
 39 40  1  0  0  0  0
 41 39  1  0  0  0  0
 42 41  1  0  0  0  0
M  END
>  <minimizedAffinity>
-6.58146286

$$$$

 OpenBabel03272504293D

 42 45  0  0  1  0  0  0  0  0999 V2000
   37.4250   27.3910   34.3260 C   0  0  0  0  0  0  0  0  0  0  0  0
   38.1140   27.6940   35.4470 C   0  0  0  0  0  0  0  0  0  0  0  0
   39.1110   26.9080   35.8820 C   0  0  0  0  0  0  0  0  0  0  0  0
   39.4230   25.7890   35.1750 N   0  0  0  0  0  0  0  0  0  0  0  0
   38.7390   25.5030   34.0750 C   0  0  0  0  0  0  0  0  0  0  0  0
   37.7420   26.2860   33.6350 N   0  0  0  0  0  0  0  0  0  0  0  0
   37.8500   28.5900   35.9980 H   0  0  0  0  0  0  0  0  0  0  0  0
   39.6520   27.1680   36.7850 H   0  0  0  0  0  0  0  0  0  0  0  0
   39.0140   23.0640   34.0030 C   0  0  0  0  0  0  0  0  0  0  0  0
   39.1720   24.3070   33.3890 C   0  0  0  0  0  0  0  0  0  0  0  0
   39.7480   24.4900   32.1470 C   0  0  0  0  0  0  0  0  0  0  0  0
   40.2030   23.3880   31.4560 C   0  0  0  0  0  0  0  0  0  0  0  0
   40.0930   22.1230   31.9810 C   0  0  0  0  0  0  0  0  0  0  0  0
   39.5130   22.0420   33.2060 C   0  0  0  0  0  0  0  0  0  0  0  0
   39.8480   25.4730   31.7110 H   0  0  0  0  0  0  0  0  0  0  0  0
   40.6550   23.5520   30.4770 H   0  0  0  0  0  0  0  0  0  0  0  0
   40.4400   21.2600   31.4600 H   0  0  0  0  0  0  0  0  0  0  0  0
   39.4250   21.0280   33.6240 H   0  0  0  0  0  0  0  0  0  0  0  0
   38.3070   22.8020   35.4880 S   0  0  0  0  0  0  0  0  0  0  0  0
   39.5350   22.1070   36.1600 O   0  0  0  0  0  0  0  0  0  0  0  0
   37.2220   21.7730   35.2930 O   0  0  0  0  0  0  0  0  0  0  0  0
   37.8530   23.2820   36.9430 C   0  0  0  0  0  0  0  0  0  0  0  0
   38.5120   22.9510   38.1460 F   0  0  0  0  0  0  0  0  0  0  0  0
   36.6900   22.4940   37.3820 F   0  0  0  0  0  0  0  0  0  0  0  0
   37.0360   24.4310   37.1310 F   0  0  0  0  0  0  0  0  0  0  0  0
   34.7350   28.8030   32.2670 C   0  0  0  0  0  0  0  0  0  0  0  0
   34.3120   29.9090   33.0310 C   0  0  0  0  0  0  0  0  0  0  0  0
   34.9690   30.1400   34.2390 C   0  0  0  0  0  0  0  0  0  0  0  0
   35.9700   29.2890   34.6020 N   0  0  0  0  0  0  0  0  0  0  0  0
   36.3490   28.2280   33.8320 C   0  0  0  0  0  0  0  0  0  0  0  0
   35.7270   27.9940   32.6690 N   0  0  0  0  0  0  0  0  0  0  0  0
   34.2230   28.6310   31.3370 H   0  0  0  0  0  0  0  0  0  0  0  0
   33.5080   30.5310   32.6650 H   0  0  0  0  0  0  0  0  0  0  0  0
   32.4740   30.3040   35.8290 O   0  0  0  0  0  0  0  0  0  0  0  0
   33.5080   31.0010   36.0470 C   0  0  0  0  0  0  0  0  0  0  0  0
   34.5550   31.2860   35.0610 C   0  0  1  0  0  3  0  0  0  0  0  0
   35.6950   31.7590   35.9720 C   0  0  0  0  0  3  0  0  0  0  0  0
   36.1280   30.8540   36.4200 H   0  0  0  0  0  0  0  0  0  0  0  0
   34.9040   32.5250   37.0340 C   0  0  0  0  0  3  0  0  0  0  0  0
   34.5660   33.4910   36.6330 H   0  0  0  0  0  0  0  0  0  0  0  0
   33.7890   31.6140   37.3230 N   0  0  0  0  0  0  0  0  0  0  0  0
   33.2500   31.3880   38.2110 H   0  0  0  0  0  0  0  0  0  0  0  0
  1  2  1  0  0  0  0
  2  3  2  0  0  0  0
  2  7  1  0  0  0  0
  3  8  1  0  0  0  0
  4  3  1  0  0  0  0
  5  4  2  0  0  0  0
  6  5  1  0  0  0  0
  6  1  2  0  0  0  0
  9 19  1  0  0  0  0
 10  9  1  0  0  0  0
 10  5  1  0  0  0  0
 11 10  2  0  0  0  0
 12 13  2  0  0  0  0
 12 11  1  0  0  0  0
 13 14  1  0  0  0  0
 14 18  1  0  0  0  0
 14  9  2  0  0  0  0
 15 11  1  0  0  0  0
 16 12  1  0  0  0  0
 17 13  1  0  0  0  0
 19 20  2  0  0  0  0
 19 22  1  0  0  0  0
 21 19  2  0  0  0  0
 22 25  1  0  0  0  0
 22 24  1  0  0  0  0
 22 23  1  0  0  0  0
 26 31  2  0  0  0  0
 26 27  1  0  0  0  0
 27 28  2  0  0  0  0
 28 29  1  0  0  0  0
 30  1  1  0  0  0  0
 30 29  2  0  0  0  0
 31 30  1  0  0  0  0
 32 26  1  0  0  0  0
 33 27  1  0  0  0  0
 34 35  2  0  0  0  0
 35 41  1  0  0  0  0
 36 28  1  1  0  0  0
 36 37  1  0  0  0  0
 36 35  1  0  0  0  0
 37 38  1  0  0  0  0
 37 39  1  0  0  0  0
 39 41  1  0  0  0  0
 40 39  1  0  0  0  0
 41 42  1  0  0  0  0
M  END
>  <minimizedAffinity>
-6.43422651

$$$$
