
 OpenBabel03272508303D

 32 34  0  0  1  0  0  0  0  0999 V2000
   36.7750   30.3780   47.9330 N   0  0  0  0  0  0  0  0  0  0  0  0
   35.4990   30.2510   47.2390 C   0  0  0  0  0  0  0  0  0  0  0  0
   35.6200   30.4470   45.7730 C   0  0  0  0  0  0  0  0  0  0  0  0
   36.9440   30.1730   45.3370 N   0  0  0  0  0  0  0  0  0  0  0  0
   37.7750   31.2650   45.8850 C   0  0  0  0  0  0  0  0  0  0  0  0
   38.0050   30.8390   47.3050 C   0  0  1  0  0  0  0  0  0  0  0  0
   35.0570   29.2330   47.4180 H   0  0  0  0  0  0  0  0  0  0  0  0
   34.7450   30.9620   47.6250 H   0  0  0  0  0  0  0  0  0  0  0  0
   34.9490   29.7280   45.2170 H   0  0  0  0  0  0  0  0  0  0  0  0
   35.3300   31.4670   45.4780 H   0  0  0  0  0  0  0  0  0  0  0  0
   37.0060   30.3210   44.3000 H   0  0  0  0  0  0  0  0  0  0  0  0
   38.7440   31.2680   45.3670 H   0  0  0  0  0  0  0  0  0  0  0  0
   37.2500   32.2410   45.8060 H   0  0  0  0  0  0  0  0  0  0  0  0
   38.6780   29.9560   47.2780 H   0  0  0  0  0  0  0  0  0  0  0  0
   38.0790   29.9450   49.9730 C   0  0  0  0  0  0  0  0  0  0  0  0
   36.8410   30.0340   49.3110 C   0  0  0  0  0  0  0  0  0  0  0  0
   35.6650   29.7900   50.0410 C   0  0  0  0  0  0  0  0  0  0  0  0
   35.8170   29.4760   51.3760 N   0  0  0  0  0  0  0  0  0  0  0  0
   37.0380   29.4050   51.9590 C   0  0  0  0  0  0  0  0  0  0  0  0
   38.1740   29.6340   51.2840 N   0  0  0  0  0  0  0  0  0  0  0  0
   38.9980   30.1250   49.4430 H   0  0  0  0  0  0  0  0  0  0  0  0
   34.7060   29.8450   49.5760 H   0  0  0  0  0  0  0  0  0  0  0  0
   36.8870   29.1450   53.0050 H   0  0  0  0  0  0  0  0  0  0  0  0
   36.5400   33.0060   49.1630 O   0  0  0  0  0  0  0  0  0  0  0  0
   37.7530   32.8000   48.8150 C   0  0  0  0  0  0  0  0  0  0  0  0
   38.6950   31.8890   48.1300 C   0  0  2  0  0  3  0  0  0  0  0  0
   39.4450   32.8890   47.2790 C   0  0  0  0  0  3  0  0  0  0  0  0
   38.6990   33.3400   46.5960 H   0  0  0  0  0  0  0  0  0  0  0  0
   39.8040   33.9180   48.3610 C   0  0  0  0  0  3  0  0  0  0  0  0
   40.6780   33.5890   48.9370 H   0  0  0  0  0  0  0  0  0  0  0  0
   38.6250   33.8720   49.2380 N   0  0  0  0  0  0  0  0  0  0  0  0
   38.6820   34.6290   49.9780 H   0  0  0  0  0  0  0  0  0  0  0  0
  1 16  1  0  0  0  0
  2  7  1  0  0  0  0
  2  8  1  0  0  0  0
  2  1  1  0  0  0  0
  3  2  1  0  0  0  0
  4  3  1  0  0  0  0
  4  5  1  0  0  0  0
  5  6  1  0  0  0  0
  6 14  1  6  0  0  0
  6  1  1  0  0  0  0
  6 26  1  0  0  0  0
  9  3  1  0  0  0  0
 10  3  1  0  0  0  0
 11  4  1  0  0  0  0
 12  5  1  0  0  0  0
 13  5  1  0  0  0  0
 15 20  1  0  0  0  0
 16 15  2  0  0  0  0
 16 17  1  0  0  0  0
 17 18  2  0  0  0  0
 18 19  1  0  0  0  0
 19 23  1  0  0  0  0
 20 19  2  0  0  0  0
 21 15  1  0  0  0  0
 22 17  1  0  0  0  0
 25 24  2  0  0  0  0
 25 31  1  0  0  0  0
 26 27  1  6  0  0  0
 26 25  1  0  0  0  0
 27 29  1  0  0  0  0
 28 27  1  0  0  0  0
 29 30  1  0  0  0  0
 29 31  1  0  0  0  0
 31 32  1  0  0  0  0
M  END
>  <minimizedAffinity>
-3.01711297

>  <minimizedRMSD>
2.46584034

$$$$
