
 OpenBabel03272505183D

 33 35  0  0  1  0  0  0  0  0999 V2000
   37.1410   29.4810   50.1790 C   0  0  0  0  0  0  0  0  0  0  0  0
   38.0260   30.1120   49.2840 C   0  0  0  0  0  0  0  0  0  0  0  0
   37.6050   30.5030   48.0190 C   0  0  0  0  0  0  0  0  0  0  0  0
   36.3050   30.2170   47.7690 N   0  0  0  0  0  0  0  0  0  0  0  0
   35.4540   29.6210   48.6040 C   0  0  0  0  0  0  0  0  0  0  0  0
   35.8780   29.2480   49.8250 N   0  0  0  0  0  0  0  0  0  0  0  0
   37.5560   29.2100   51.1430 H   0  0  0  0  0  0  0  0  0  0  0  0
   39.0370   30.2890   49.5920 H   0  0  0  0  0  0  0  0  0  0  0  0
   38.9880   32.4120   47.4700 C   0  0  0  0  0  0  0  0  0  0  0  0
   38.5760   31.1420   47.1680 C   0  0  0  0  0  0  0  0  0  0  0  0
   39.1230   30.5540   46.0560 C   0  0  0  0  0  0  0  0  0  0  0  0
   40.0310   31.1810   45.2780 C   0  0  0  0  0  0  0  0  0  0  0  0
   40.4700   32.4670   45.5540 C   0  0  0  0  0  0  0  0  0  0  0  0
   39.9260   33.0550   46.6620 C   0  0  0  0  0  0  0  0  0  0  0  0
   38.7910   29.5450   45.8230 H   0  0  0  0  0  0  0  0  0  0  0  0
   40.4050   30.6350   44.4210 H   0  0  0  0  0  0  0  0  0  0  0  0
   41.1990   32.9290   44.9010 H   0  0  0  0  0  0  0  0  0  0  0  0
   40.3130   34.0610   46.8180 H   0  0  0  0  0  0  0  0  0  0  0  0
   39.2780   34.2760   48.9490 N   0  0  0  0  0  0  0  0  0  0  0  0
   38.5730   33.2350   48.5700 C   0  0  0  0  0  0  0  0  0  0  0  0
   37.5660   33.3930   49.5430 N   0  0  0  0  0  0  0  0  0  0  0  0
   38.9600   34.8730   49.7460 H   0  0  0  0  0  0  0  0  0  0  0  0
   37.6040   32.8500   50.4400 H   0  0  0  0  0  0  0  0  0  0  0  0
   36.7350   33.9910   49.5370 H   0  0  0  0  0  0  0  0  0  0  0  0
   34.3060   27.1290   48.3730 O   0  0  0  0  0  0  0  0  0  0  0  0
   33.9000   28.0160   47.5500 C   0  0  0  0  0  0  0  0  0  0  0  0
   34.0490   29.3820   48.1610 C   0  0  2  0  0  3  0  0  0  0  0  0
   33.6770   30.2820   47.0060 C   0  0  0  0  0  3  0  0  0  0  0  0
   32.6180   30.5860   47.0970 H   0  0  0  0  0  0  0  0  0  0  0  0
   33.7970   29.4020   45.7780 C   0  0  0  0  0  3  0  0  0  0  0  0
   34.8580   29.3740   45.4580 H   0  0  0  0  0  0  0  0  0  0  0  0
   33.3540   28.1040   46.2380 N   0  0  0  0  0  0  0  0  0  0  0  0
   32.8010   27.2400   45.9760 H   0  0  0  0  0  0  0  0  0  0  0  0
  1  7  1  0  0  0  0
  2  8  1  0  0  0  0
  2  1  2  0  0  0  0
  3  2  1  0  0  0  0
  4  3  2  0  0  0  0
  4  5  1  0  0  0  0
  5  6  2  0  0  0  0
  6  1  1  0  0  0  0
  9 20  1  0  0  0  0
 10  9  1  0  0  0  0
 10  3  1  0  0  0  0
 11 10  2  0  0  0  0
 12 13  2  0  0  0  0
 12 11  1  0  0  0  0
 13 14  1  0  0  0  0
 14 18  1  0  0  0  0
 14  9  2  0  0  0  0
 15 11  1  0  0  0  0
 16 12  1  0  0  0  0
 17 13  1  0  0  0  0
 19 22  1  0  0  0  0
 20 19  2  0  0  0  0
 20 21  1  0  0  0  0
 21 23  1  0  0  0  0
 24 21  1  0  0  0  0
 26 27  1  0  0  0  0
 26 25  2  0  0  0  0
 27  5  1  6  0  0  0
 28 29  1  0  0  0  0
 28 27  1  0  0  0  0
 30 32  1  0  0  0  0
 30 28  1  0  0  0  0
 31 30  1  0  0  0  0
 32 26  1  0  0  0  0
 33 32  1  0  0  0  0
M  END
>  <minimizedAffinity>
-6.39664888

>  <minimizedRMSD>
1.3065809

$$$$
