
 OpenBabel03272504333D

 40 43  0  0  1  0  0  0  0  0999 V2000
   35.3900   29.6240   47.7060 C   0  0  0  0  0  0  0  0  0  0  0  0
   35.5960   30.1330   46.4340 C   0  0  0  0  0  0  0  0  0  0  0  0
   34.5990   30.0440   45.4770 C   0  0  0  0  0  0  0  0  0  0  0  0
   33.4320   29.4440   45.8450 N   0  0  0  0  0  0  0  0  0  0  0  0
   33.2580   28.9560   47.0950 C   0  0  0  0  0  0  0  0  0  0  0  0
   34.2240   29.0410   48.0240 N   0  0  0  0  0  0  0  0  0  0  0  0
   36.5530   30.5850   46.2500 H   0  0  0  0  0  0  0  0  0  0  0  0
   34.7680   30.4430   44.4890 H   0  0  0  0  0  0  0  0  0  0  0  0
   36.3760   29.6830   48.7390 N   0  0  0  0  0  0  0  0  0  0  0  0
   36.2860   28.8830   49.9530 C   0  0  0  0  0  0  0  0  0  0  0  0
   36.6130   29.6150   51.2130 C   0  0  0  0  0  0  0  0  0  0  0  0
   37.4980   30.7050   51.1260 N   0  0  0  0  0  0  0  0  0  0  0  0
   37.3870   31.4640   49.8900 C   0  0  0  0  0  0  0  0  0  0  0  0
   37.5520   30.4820   48.7650 C   0  0  0  0  0  0  0  0  0  0  0  0
   36.9740   28.0050   49.8050 H   0  0  0  0  0  0  0  0  0  0  0  0
   35.2600   28.4430   49.9990 H   0  0  0  0  0  0  0  0  0  0  0  0
   35.6440   29.9200   51.6870 H   0  0  0  0  0  0  0  0  0  0  0  0
   37.0480   28.8630   51.9330 H   0  0  0  0  0  0  0  0  0  0  0  0
   38.4850   30.5460   51.4190 H   0  0  0  0  0  0  0  0  0  0  0  0
   36.4350   31.9940   49.8280 H   0  0  0  0  0  0  0  0  0  0  0  0
   38.2770   32.1380   49.8810 H   0  0  0  0  0  0  0  0  0  0  0  0
   38.4430   29.8440   48.9350 H   0  0  0  0  0  0  0  0  0  0  0  0
   37.6720   31.0040   47.8100 H   0  0  0  0  0  0  0  0  0  0  0  0
   31.9800   28.3250   47.4210 C   0  0  0  0  0  0  0  0  0  0  0  0
   31.9370   27.2460   48.2830 C   0  0  0  0  0  0  0  0  0  0  0  0
   30.7640   26.6030   48.6340 C   0  0  0  0  0  0  0  0  0  0  0  0
   29.6400   27.0970   48.0740 N   0  0  0  0  0  0  0  0  0  0  0  0
   29.6880   28.1490   47.2320 C   0  0  0  0  0  0  0  0  0  0  0  0
   30.8320   28.7730   46.8930 N   0  0  0  0  0  0  0  0  0  0  0  0
   32.8630   26.8820   48.7110 H   0  0  0  0  0  0  0  0  0  0  0  0
   30.7960   25.7640   49.3140 H   0  0  0  0  0  0  0  0  0  0  0  0
   27.4120   29.4650   48.7700 O   0  0  0  0  0  0  0  0  0  0  0  0
   27.3760   28.9270   47.6190 C   0  0  0  0  0  0  0  0  0  0  0  0
   28.4360   28.6770   46.6260 C   0  0  2  0  0  3  0  0  0  0  0  0
   27.7770   27.6520   45.7120 C   0  0  0  0  0  3  0  0  0  0  0  0
   27.8190   26.6860   46.2150 H   0  0  0  0  0  0  0  0  0  0  0  0
   26.3470   28.1780   45.6840 C   0  0  0  0  0  3  0  0  0  0  0  0
   26.3370   29.1080   45.0960 H   0  0  0  0  0  0  0  0  0  0  0  0
   26.1380   28.4500   47.1080 N   0  0  0  0  0  0  0  0  0  0  0  0
   25.2080   28.2920   47.5900 H   0  0  0  0  0  0  0  0  0  0  0  0
  1  6  1  0  0  0  0
  1  9  1  0  0  0  0
  2  1  2  0  0  0  0
  3  4  2  0  0  0  0
  3  2  1  0  0  0  0
  4  5  1  0  0  0  0
  5 24  1  0  0  0  0
  5  6  2  0  0  0  0
  7  2  1  0  0  0  0
  8  3  1  0  0  0  0
  9 14  1  0  0  0  0
  9 10  1  0  0  0  0
 10 16  1  0  0  0  0
 10 11  1  0  0  0  0
 11 17  1  0  0  0  0
 11 18  1  0  0  0  0
 12 11  1  0  0  0  0
 12 19  1  0  0  0  0
 13 12  1  0  0  0  0
 14 22  1  0  0  0  0
 14 13  1  0  0  0  0
 15 10  1  0  0  0  0
 20 13  1  0  0  0  0
 21 13  1  0  0  0  0
 23 14  1  0  0  0  0
 24 25  1  0  0  0  0
 25 26  2  0  0  0  0
 25 30  1  0  0  0  0
 26 31  1  0  0  0  0
 27 26  1  0  0  0  0
 28 27  2  0  0  0  0
 29 28  1  0  0  0  0
 29 24  2  0  0  0  0
 33 32  2  0  0  0  0
 34 28  1  1  0  0  0
 34 33  1  0  0  0  0
 35 36  1  0  0  0  0
 35 34  1  0  0  0  0
 37 35  1  0  0  0  0
 37 39  1  0  0  0  0
 38 37  1  0  0  0  0
 39 40  1  0  0  0  0
 39 33  1  0  0  0  0
M  END
>  <minimizedAffinity>
-5.7295208

>  <minimizedRMSD>
0.472653151

$$$$
