
 OpenBabel03272506473D

 42 45  0  0  1  0  0  0  0  0999 V2000
   32.5720   28.9250   47.5420 C   0  0  2  0  0  0  0  0  0  0  0  0
   33.8820   28.7380   48.2480 C   0  0  1  0  0  0  0  0  0  0  0  0
   34.2020   27.4150   48.1990 O   0  0  0  0  0  0  0  0  0  0  0  0
   33.3700   26.7720   47.2890 C   0  0  0  0  0  0  0  0  0  0  0  0
   32.7400   27.8420   46.4310 C   0  0  1  0  0  0  0  0  0  0  0  0
   31.6830   28.6700   48.1150 H   0  0  0  0  0  0  0  0  0  0  0  0
   33.8230   29.1200   49.2850 H   0  0  0  0  0  0  0  0  0  0  0  0
   33.9530   26.0560   46.6460 H   0  0  0  0  0  0  0  0  0  0  0  0
   32.6950   26.1590   47.8690 H   0  0  0  0  0  0  0  0  0  0  0  0
   33.4440   28.2390   45.7060 H   0  0  0  0  0  0  0  0  0  0  0  0
   32.5150   30.1970   46.9340 O   0  0  0  0  0  0  0  0  0  0  0  0
   32.6990   30.0840   45.9700 H   0  0  0  0  0  0  0  0  0  0  0  0
   35.1600   29.6630   47.3070 S   0  0  0  0  0  0  0  0  0  0  0  0
   37.6340   29.8690   50.3960 C   0  0  0  0  0  0  0  0  0  0  0  0
   38.3210   31.0660   50.2390 C   0  0  0  0  0  0  0  0  0  0  0  0
   38.0040   31.8510   49.1190 C   0  0  0  0  0  0  0  0  0  0  0  0
   37.0500   31.4060   48.2530 N   0  0  0  0  0  0  0  0  0  0  0  0
   36.4110   30.2300   48.4560 C   0  0  0  0  0  0  0  0  0  0  0  0
   36.6930   29.4450   49.5290 N   0  0  0  0  0  0  0  0  0  0  0  0
   37.8610   29.2480   51.2510 H   0  0  0  0  0  0  0  0  0  0  0  0
   39.0710   31.4220   50.9130 H   0  0  0  0  0  0  0  0  0  0  0  0
   38.4870   32.7980   48.9130 H   0  0  0  0  0  0  0  0  0  0  0  0
   31.5230   27.4010   45.9790 O   0  0  0  0  0  0  0  0  0  0  0  0
   30.7370   29.1980   43.7850 Cl  0  0  0  0  0  0  0  0  0  0  0  0
   29.8740   28.8430   45.2640 C   0  0  0  0  0  0  0  0  0  0  0  0
   30.3440   27.9710   46.2200 C   0  0  0  0  0  0  0  0  0  0  0  0
   29.5560   27.7500   47.3520 C   0  0  0  0  0  0  0  0  0  0  0  0
   28.3460   28.3920   47.5020 C   0  0  0  0  0  0  0  0  0  0  0  0
   27.8670   29.2700   46.5480 C   0  0  0  0  0  0  0  0  0  0  0  0
   28.6390   29.4940   45.4230 C   0  0  0  0  0  0  0  0  0  0  0  0
   29.8360   27.0840   48.1480 H   0  0  0  0  0  0  0  0  0  0  0  0
   27.6990   28.2640   48.3500 H   0  0  0  0  0  0  0  0  0  0  0  0
   26.9140   29.7990   46.6290 H   0  0  0  0  0  0  0  0  0  0  0  0
   29.6140   32.3420   44.6110 O   0  0  0  0  0  0  0  0  0  0  0  0
   28.4500   31.8390   44.7010 C   0  0  0  0  0  0  0  0  0  0  0  0
   28.1410   30.4320   44.3910 C   0  0  2  0  0  3  0  0  0  0  0  0
   26.6430   30.4300   44.2630 C   0  0  0  0  0  3  0  0  0  0  0  0
   26.1380   29.8990   45.1010 H   0  0  0  0  0  0  0  0  0  0  0  0
   26.1710   31.8690   44.3300 C   0  0  0  0  0  3  0  0  0  0  0  0
   26.0590   32.3360   43.3300 H   0  0  0  0  0  0  0  0  0  0  0  0
   27.2300   32.4910   45.1040 N   0  0  0  0  0  0  0  0  0  0  0  0
   27.2250   33.2610   45.8320 H   0  0  0  0  0  0  0  0  0  0  0  0
  1  6  1  1  0  0  0
  1  2  1  0  0  0  0
  2  7  1  1  0  0  0
  3  2  1  0  0  0  0
  4  9  1  0  0  0  0
  4  3  1  0  0  0  0
  5 10  1  6  0  0  0
  5  4  1  0  0  0  0
  5  1  1  0  0  0  0
  8  4  1  0  0  0  0
 11  1  1  0  0  0  0
 12 11  1  0  0  0  0
 13  2  1  0  0  0  0
 13 18  1  0  0  0  0
 14 20  1  0  0  0  0
 15 14  1  0  0  0  0
 15 21  1  0  0  0  0
 16 15  2  0  0  0  0
 17 18  2  0  0  0  0
 17 16  1  0  0  0  0
 18 19  1  0  0  0  0
 19 14  2  0  0  0  0
 22 16  1  0  0  0  0
 23 26  1  0  0  0  0
 23  5  1  0  0  0  0
 24 25  1  0  0  0  0
 25 30  2  0  0  0  0
 25 26  1  0  0  0  0
 26 27  2  0  0  0  0
 27 28  1  0  0  0  0
 27 31  1  0  0  0  0
 28 32  1  0  0  0  0
 29 33  1  0  0  0  0
 29 28  2  0  0  0  0
 30 29  1  0  0  0  0
 34 35  2  0  0  0  0
 35 41  1  0  0  0  0
 36 35  1  0  0  0  0
 36 30  1  1  0  0  0
 37 39  1  0  0  0  0
 37 36  1  0  0  0  0
 37 38  1  0  0  0  0
 39 41  1  0  0  0  0
 40 39  1  0  0  0  0
 41 42  1  0  0  0  0
M  END
>  <minimizedAffinity>
-5.07834959

>  <minimizedRMSD>
1.18834603

$$$$
