
 OpenBabel03272504273D

 42 45  0  0  1  0  0  0  0  0999 V2000
   35.6320   29.5540   48.4340 C   0  0  0  0  0  0  0  0  0  0  0  0
   35.3580   28.7520   49.4860 C   0  0  0  0  0  0  0  0  0  0  0  0
   34.4660   27.7560   49.3850 C   0  0  0  0  0  0  0  0  0  0  0  0
   33.8310   27.5580   48.1980 N   0  0  0  0  0  0  0  0  0  0  0  0
   34.1100   28.3520   47.1720 C   0  0  0  0  0  0  0  0  0  0  0  0
   35.0010   29.3500   47.2680 N   0  0  0  0  0  0  0  0  0  0  0  0
   35.8740   28.9260   50.4250 H   0  0  0  0  0  0  0  0  0  0  0  0
   34.2590   27.1230   50.2410 H   0  0  0  0  0  0  0  0  0  0  0  0
   32.0220   27.8100   45.9980 C   0  0  0  0  0  0  0  0  0  0  0  0
   33.3980   28.0370   45.9550 C   0  0  0  0  0  0  0  0  0  0  0  0
   34.1590   27.9580   44.8050 C   0  0  0  0  0  0  0  0  0  0  0  0
   33.5400   27.6360   43.6170 C   0  0  0  0  0  0  0  0  0  0  0  0
   32.1880   27.3930   43.5620 C   0  0  0  0  0  0  0  0  0  0  0  0
   31.5240   27.4940   44.7410 C   0  0  0  0  0  0  0  0  0  0  0  0
   35.2240   28.1430   44.8200 H   0  0  0  0  0  0  0  0  0  0  0  0
   34.1570   27.5790   42.7200 H   0  0  0  0  0  0  0  0  0  0  0  0
   31.6940   27.1420   42.6520 H   0  0  0  0  0  0  0  0  0  0  0  0
   30.4420   27.3000   44.6950 H   0  0  0  0  0  0  0  0  0  0  0  0
   31.0680   27.9150   47.3590 S   0  0  0  0  0  0  0  0  0  0  0  0
   30.1490   26.6910   47.0390 O   0  0  0  0  0  0  0  0  0  0  0  0
   30.2470   29.1740   47.2350 O   0  0  0  0  0  0  0  0  0  0  0  0
   30.7800   27.6540   48.9090 C   0  0  0  0  0  0  0  0  0  0  0  0
   30.2930   26.4440   49.4490 F   0  0  0  0  0  0  0  0  0  0  0  0
   29.5230   28.3150   49.2960 F   0  0  0  0  0  0  0  0  0  0  0  0
   31.4010   28.4310   49.9270 F   0  0  0  0  0  0  0  0  0  0  0  0
   37.4650   32.5540   49.4860 C   0  0  0  0  0  0  0  0  0  0  0  0
   38.5140   32.6180   48.5480 C   0  0  0  0  0  0  0  0  0  0  0  0
   38.5610   31.6210   47.5720 C   0  0  0  0  0  0  0  0  0  0  0  0
   37.5970   30.6570   47.5880 N   0  0  0  0  0  0  0  0  0  0  0  0
   36.5970   30.6330   48.5170 C   0  0  0  0  0  0  0  0  0  0  0  0
   36.5400   31.5830   49.4590 N   0  0  0  0  0  0  0  0  0  0  0  0
   37.4360   33.3250   50.2340 H   0  0  0  0  0  0  0  0  0  0  0  0
   39.2350   33.4200   48.6100 H   0  0  0  0  0  0  0  0  0  0  0  0
   38.7460   29.8930   45.1730 O   0  0  0  0  0  0  0  0  0  0  0  0
   39.3350   31.0070   45.2990 C   0  0  0  0  0  0  0  0  0  0  0  0
   39.6420   31.6570   46.5760 C   0  0  1  0  0  3  0  0  0  0  0  0
   39.9260   33.0930   46.1150 C   0  0  0  0  0  3  0  0  0  0  0  0
   38.9480   33.5550   45.9210 H   0  0  0  0  0  0  0  0  0  0  0  0
   40.6350   32.8220   44.7840 C   0  0  0  0  0  3  0  0  0  0  0  0
   41.6610   32.4710   44.9650 H   0  0  0  0  0  0  0  0  0  0  0  0
   39.7870   31.7900   44.1750 N   0  0  0  0  0  0  0  0  0  0  0  0
   39.5090   31.5830   43.1690 H   0  0  0  0  0  0  0  0  0  0  0  0
  1 30  1  0  0  0  0
  1  2  1  0  0  0  0
  2  7  1  0  0  0  0
  3  2  2  0  0  0  0
  3  8  1  0  0  0  0
  4  3  1  0  0  0  0
  5  6  1  0  0  0  0
  5  4  2  0  0  0  0
  6  1  2  0  0  0  0
  9 19  1  0  0  0  0
 10  9  1  0  0  0  0
 10  5  1  0  0  0  0
 11 15  1  0  0  0  0
 11 10  2  0  0  0  0
 12 11  1  0  0  0  0
 13 12  2  0  0  0  0
 13 14  1  0  0  0  0
 14  9  2  0  0  0  0
 16 12  1  0  0  0  0
 17 13  1  0  0  0  0
 18 14  1  0  0  0  0
 19 22  1  0  0  0  0
 20 19  2  0  0  0  0
 21 19  2  0  0  0  0
 22 24  1  0  0  0  0
 22 23  1  0  0  0  0
 22 25  1  0  0  0  0
 26 32  1  0  0  0  0
 27 33  1  0  0  0  0
 27 26  2  0  0  0  0
 28 29  2  0  0  0  0
 28 27  1  0  0  0  0
 29 30  1  0  0  0  0
 30 31  2  0  0  0  0
 31 26  1  0  0  0  0
 34 35  2  0  0  0  0
 35 36  1  0  0  0  0
 36 28  1  1  0  0  0
 37 36  1  0  0  0  0
 38 37  1  0  0  0  0
 39 40  1  0  0  0  0
 39 37  1  0  0  0  0
 41 39  1  0  0  0  0
 41 35  1  0  0  0  0
 42 41  1  0  0  0  0
M  END
>  <minimizedAffinity>
-6.37692881

>  <minimizedRMSD>
0.694793165

$$$$
