
 OpenBabel03272502173D

 33 35  0  0  1  0  0  0  0  0999 V2000
   37.3080   30.7950   48.7990 C   0  0  0  0  0  0  0  0  0  0  0  0
   37.2210   31.8440   49.7460 C   0  0  0  0  0  0  0  0  0  0  0  0
   37.9120   33.0190   49.4890 C   0  0  0  0  0  0  0  0  0  0  0  0
   38.6430   33.1020   48.3320 N   0  0  0  0  0  0  0  0  0  0  0  0
   38.7040   32.0890   47.4550 C   0  0  0  0  0  0  0  0  0  0  0  0
   38.0400   30.9410   47.6890 N   0  0  0  0  0  0  0  0  0  0  0  0
   36.6780   31.8520   50.6580 H   0  0  0  0  0  0  0  0  0  0  0  0
   37.8940   33.8650   50.1640 H   0  0  0  0  0  0  0  0  0  0  0  0
   37.4110   32.4960   44.6970 O   0  0  0  0  0  0  0  0  0  0  0  0
   38.6260   32.3140   45.0090 C   0  0  0  0  0  0  0  0  0  0  0  0
   39.5180   32.2490   46.2220 C   0  0  2  0  0  3  0  0  0  0  0  0
   40.3540   31.0590   45.8820 C   0  0  0  0  0  3  0  0  0  0  0  0
   41.2820   31.0340   46.5070 H   0  0  0  0  0  0  0  0  0  0  0  0
   40.6760   31.3070   44.4100 C   0  0  0  0  0  3  0  0  0  0  0  0
   41.5850   31.9550   44.3090 H   0  0  0  0  0  0  0  0  0  0  0  0
   39.5490   32.0830   43.9390 N   0  0  0  0  0  0  0  0  0  0  0  0
   39.5230   32.3820   42.9200 H   0  0  0  0  0  0  0  0  0  0  0  0
   36.3720   29.3710   49.2770 S   0  0  0  0  0  0  0  0  0  0  0  0
   33.8700   28.3810   49.0370 N   0  0  0  0  0  0  0  0  0  0  0  0
   34.5740   29.6450   49.0370 C   0  0  2  0  0  0  0  0  0  0  0  0
   34.3720   30.2970   47.6860 C   0  0  0  0  0  0  0  0  0  0  0  0
   33.2630   29.7340   47.0220 O   0  0  0  0  0  0  0  0  0  0  0  0
   33.6960   28.4390   46.6570 C   0  0  0  0  0  0  0  0  0  0  0  0
   34.2250   27.6590   47.8360 C   0  0  2  0  0  0  0  0  0  0  0  0
   32.8650   28.5140   49.1640 H   0  0  0  0  0  0  0  0  0  0  0  0
   34.2330   30.2710   49.8680 H   0  0  0  0  0  0  0  0  0  0  0  0
   35.2450   30.1490   47.0190 H   0  0  0  0  0  0  0  0  0  0  0  0
   34.2080   31.3840   47.8730 H   0  0  0  0  0  0  0  0  0  0  0  0
   32.8950   27.9090   46.1270 H   0  0  0  0  0  0  0  0  0  0  0  0
   34.5130   28.6240   45.9130 H   0  0  0  0  0  0  0  0  0  0  0  0
   35.3280   27.5770   47.7900 H   0  0  0  0  0  0  0  0  0  0  0  0
   33.6200   26.3860   47.8910 O   0  0  0  0  0  0  0  0  0  0  0  0
   34.3210   25.7080   47.7310 H   0  0  0  0  0  0  0  0  0  0  0  0
  1 18  1  0  0  0  0
  1  2  1  0  0  0  0
  2  7  1  0  0  0  0
  3  2  2  0  0  0  0
  3  8  1  0  0  0  0
  4  3  1  0  0  0  0
  5  6  1  0  0  0  0
  5  4  2  0  0  0  0
  6  1  2  0  0  0  0
  9 10  2  0  0  0  0
 10 11  1  0  0  0  0
 11  5  1  1  0  0  0
 12 11  1  0  0  0  0
 12 13  1  0  0  0  0
 14 12  1  0  0  0  0
 15 14  1  0  0  0  0
 16 14  1  0  0  0  0
 16 10  1  0  0  0  0
 17 16  1  0  0  0  0
 19 20  1  0  0  0  0
 19 25  1  0  0  0  0
 20 18  1  0  0  0  0
 20 26  1  1  0  0  0
 21 28  1  0  0  0  0
 21 20  1  0  0  0  0
 22 21  1  0  0  0  0
 23 22  1  0  0  0  0
 23 24  1  0  0  0  0
 24 31  1  6  0  0  0
 24 32  1  0  0  0  0
 24 19  1  0  0  0  0
 27 21  1  0  0  0  0
 29 23  1  0  0  0  0
 30 23  1  0  0  0  0
 33 32  1  0  0  0  0
M  END
>  <minimizedAffinity>
-5.75807428

>  <minimizedRMSD>
0.433516175

$$$$
