
 OpenBabel03272503563D

 34 37  0  0  1  0  0  0  0  0999 V2000
   37.4330   29.4320   50.5070 C   0  0  0  0  0  0  0  0  0  0  0  0
   38.0050   30.6940   50.2270 C   0  0  0  0  0  0  0  0  0  0  0  0
   37.3310   31.4690   49.3020 C   0  0  0  0  0  0  0  0  0  0  0  0
   36.2270   30.9830   48.7620 N   0  0  0  0  0  0  0  0  0  0  0  0
   35.6630   29.8170   48.9950 C   0  0  0  0  0  0  0  0  0  0  0  0
   36.3270   29.0900   49.8850 N   0  0  0  0  0  0  0  0  0  0  0  0
   38.9080   31.0140   50.7110 H   0  0  0  0  0  0  0  0  0  0  0  0
   34.4670   29.1540   48.4890 C   0  0  0  0  0  0  0  0  0  0  0  0
   33.6100   28.4610   49.2830 N   0  0  0  0  0  0  0  0  0  0  0  0
   32.5200   27.8640   48.8080 C   0  0  0  0  0  0  0  0  0  0  0  0
   32.1620   27.8850   47.5210 N   0  0  0  0  0  0  0  0  0  0  0  0
   32.9630   28.5530   46.6720 C   0  0  0  0  0  0  0  0  0  0  0  0
   32.6000   28.5780   45.3440 C   0  0  0  0  0  0  0  0  0  0  0  0
   33.3810   29.2460   44.4320 C   0  0  0  0  0  0  0  0  0  0  0  0
   34.5230   29.8750   44.9100 C   0  0  0  0  0  0  0  0  0  0  0  0
   34.8360   29.8150   46.2510 C   0  0  0  0  0  0  0  0  0  0  0  0
   34.0820   29.1620   47.1790 C   0  0  0  0  0  0  0  0  0  0  0  0
   31.8320   27.3040   49.4660 H   0  0  0  0  0  0  0  0  0  0  0  0
   31.7010   28.0760   45.0060 H   0  0  0  0  0  0  0  0  0  0  0  0
   33.0770   29.2500   43.4130 H   0  0  0  0  0  0  0  0  0  0  0  0
   35.1020   30.3860   44.1500 H   0  0  0  0  0  0  0  0  0  0  0  0
   35.7510   30.3450   46.4620 H   0  0  0  0  0  0  0  0  0  0  0  0
   38.0760   31.9990   46.7030 O   0  0  0  0  0  0  0  0  0  0  0  0
   38.5580   32.7510   47.6140 C   0  0  0  0  0  0  0  0  0  0  0  0
   37.8250   32.8150   48.9170 C   0  0  2  0  0  0  0  0  0  0  0  0
   38.8920   33.3370   49.8320 C   0  0  0  0  0  0  0  0  0  0  0  0
   39.6280   32.5660   50.0790 H   0  0  0  0  0  0  0  0  0  0  0  0
   39.5870   34.3550   48.9250 C   0  0  0  0  0  0  0  0  0  0  0  0
   38.9310   35.2050   48.6900 H   0  0  0  0  0  0  0  0  0  0  0  0
   39.7120   33.6000   47.6760 N   0  0  0  0  0  0  0  0  0  0  0  0
   40.3500   33.4950   46.8590 H   0  0  0  0  0  0  0  0  0  0  0  0
   38.0440   28.5390   51.4540 N   0  0  0  0  0  0  0  0  0  0  0  0
   39.0730   28.6840   51.6860 H   0  0  0  0  0  0  0  0  0  0  0  0
   37.4770   27.8030   51.8690 H   0  0  0  0  0  0  0  0  0  0  0  0
  1 32  1  0  0  0  0
  2  1  1  0  0  0  0
  2  7  1  0  0  0  0
  3  2  2  0  0  0  0
  4  5  2  0  0  0  0
  4  3  1  0  0  0  0
  5  6  1  0  0  0  0
  6  1  2  0  0  0  0
  8  5  1  0  0  0  0
  8  9  1  0  0  0  0
 10  9  2  0  0  0  0
 10 18  1  0  0  0  0
 11 10  1  0  0  0  0
 12 17  1  0  0  0  0
 12 11  2  0  0  0  0
 13 12  1  0  0  0  0
 14 15  1  0  0  0  0
 14 13  2  0  0  0  0
 15 16  2  0  0  0  0
 16 22  1  0  0  0  0
 16 17  1  0  0  0  0
 17  8  2  0  0  0  0
 19 13  1  0  0  0  0
 20 14  1  0  0  0  0
 21 15  1  0  0  0  0
 23 24  2  0  0  0  0
 24 30  1  0  0  0  0
 24 25  1  0  0  0  0
 25  3  1  1  0  0  0
 25 26  1  0  0  0  0
 26 27  1  0  0  0  0
 28 26  1  0  0  0  0
 29 28  1  0  0  0  0
 30 28  1  0  0  0  0
 31 30  1  0  0  0  0
 32 33  1  0  0  0  0
 32 34  1  0  0  0  0
M  END
>  <minimizedAffinity>
-6.751647

>  <minimizedRMSD>
0.801560581

$$$$
