
 OpenBabel03272510263D

 45 49  0  0  1  0  0  0  0  0999 V2000
   39.3850   33.4600   43.0350 O   0  0  0  0  0  0  0  0  0  0  0  0
   36.1760   30.2160   46.7840 C   0  0  0  0  0  0  0  0  0  0  0  0
   37.0600   30.7790   47.7030 C   0  0  0  0  0  0  0  0  0  0  0  0
   38.0560   31.6610   47.2910 C   0  0  0  0  0  0  0  0  0  0  0  0
   38.1150   31.9410   45.9350 C   0  0  0  0  0  0  0  0  0  0  0  0
   38.9960   32.7650   45.2970 N   0  0  0  0  0  0  0  0  0  0  0  0
   38.6700   32.7190   43.9910 C   0  0  0  0  0  0  0  0  0  0  0  0
   37.6450   31.9180   43.7980 N   0  0  0  0  0  0  0  0  0  0  0  0
   37.2550   31.4030   44.9900 C   0  0  0  0  0  0  0  0  0  0  0  0
   36.2630   30.5180   45.4320 C   0  0  0  0  0  0  0  0  0  0  0  0
   35.3890   29.5280   47.0610 H   0  0  0  0  0  0  0  0  0  0  0  0
   38.7250   32.0860   48.0000 H   0  0  0  0  0  0  0  0  0  0  0  0
   39.7750   33.3230   45.7330 H   0  0  0  0  0  0  0  0  0  0  0  0
   35.6040   30.1100   44.6880 H   0  0  0  0  0  0  0  0  0  0  0  0
   37.5510   30.2340   51.3780 C   0  0  0  0  0  0  0  0  0  0  0  0
   37.8130   30.6600   50.0890 C   0  0  0  0  0  0  0  0  0  0  0  0
   36.8890   30.3880   49.0870 C   0  0  0  0  0  0  0  0  0  0  0  0
   35.7640   29.7100   49.4370 N   0  0  0  0  0  0  0  0  0  0  0  0
   35.5130   29.2960   50.6960 C   0  0  0  0  0  0  0  0  0  0  0  0
   36.4030   29.5600   51.6500 N   0  0  0  0  0  0  0  0  0  0  0  0
   38.3190   30.4830   52.1040 H   0  0  0  0  0  0  0  0  0  0  0  0
   38.7180   31.2050   49.8120 H   0  0  0  0  0  0  0  0  0  0  0  0
   34.5980   28.7580   50.9160 H   0  0  0  0  0  0  0  0  0  0  0  0
   38.8230   31.7290   41.6590 N   0  0  0  0  0  0  0  0  0  0  0  0
   39.0730   33.1630   41.6720 C   0  0  1  0  0  0  0  0  0  0  0  0
   37.8820   33.8730   41.2200 C   0  0  0  0  0  0  0  0  0  0  0  0
   37.6370   33.5320   39.8780 O   0  0  0  0  0  0  0  0  0  0  0  0
   37.5440   32.1970   39.6230 C   0  0  0  0  0  0  0  0  0  0  0  0
   38.6280   31.3750   40.2740 C   0  0  1  0  0  0  0  0  0  0  0  0
   39.6600   31.2630   42.0270 H   0  0  0  0  0  0  0  0  0  0  0  0
   39.9350   33.4770   41.0670 H   0  0  0  0  0  0  0  0  0  0  0  0
   38.1560   34.9710   41.1470 H   0  0  0  0  0  0  0  0  0  0  0  0
   36.9340   33.8390   41.6800 H   0  0  0  0  0  0  0  0  0  0  0  0
   37.5460   32.0450   38.5500 H   0  0  0  0  0  0  0  0  0  0  0  0
   36.5740   31.8220   40.0110 H   0  0  0  0  0  0  0  0  0  0  0  0
   38.2670   30.3230   40.2820 H   0  0  0  0  0  0  0  0  0  0  0  0
   41.6140   30.1390   40.9050 O   0  0  0  0  0  0  0  0  0  0  0  0
   40.6730   30.1660   40.0760 C   0  0  0  0  0  0  0  0  0  0  0  0
   39.9380   31.3730   39.5510 C   0  0  1  0  0  3  0  0  0  0  0  0
   39.8030   30.9600   38.1120 C   0  0  0  0  0  3  0  0  0  0  0  0
   40.8450   30.9630   37.6960 H   0  0  0  0  0  0  0  0  0  0  0  0
   39.4100   29.5160   38.2240 C   0  0  0  0  0  3  0  0  0  0  0  0
   38.3090   29.3800   38.2800 H   0  0  0  0  0  0  0  0  0  0  0  0
   40.0780   29.0440   39.4310 N   0  0  0  0  0  0  0  0  0  0  0  0
   40.0960   28.0500   39.7410 H   0  0  0  0  0  0  0  0  0  0  0  0
  1  7  1  0  0  0  0
  2 11  1  0  0  0  0
  2  3  1  0  0  0  0
  3 17  1  0  0  0  0
  4  3  2  0  0  0  0
  4 12  1  0  0  0  0
  5  4  1  0  0  0  0
  6 13  1  0  0  0  0
  6  5  1  0  0  0  0
  7  6  1  0  0  0  0
  8  7  2  0  0  0  0
  8  9  1  0  0  0  0
  9 10  1  0  0  0  0
  9  5  2  0  0  0  0
 10  2  2  0  0  0  0
 14 10  1  0  0  0  0
 15 20  1  0  0  0  0
 15 21  1  0  0  0  0
 16 15  2  0  0  0  0
 17 18  2  0  0  0  0
 17 16  1  0  0  0  0
 18 19  1  0  0  0  0
 19 23  1  0  0  0  0
 19 20  2  0  0  0  0
 22 16  1  0  0  0  0
 24 25  1  0  0  0  0
 24 30  1  0  0  0  0
 25 31  1  6  0  0  0
 25  1  1  0  0  0  0
 26 25  1  0  0  0  0
 26 33  1  0  0  0  0
 27 26  1  0  0  0  0
 28 27  1  0  0  0  0
 28 35  1  0  0  0  0
 28 29  1  0  0  0  0
 29 36  1  6  0  0  0
 29 24  1  0  0  0  0
 32 26  1  0  0  0  0
 34 28  1  0  0  0  0
 38 37  2  0  0  0  0
 39 40  1  6  0  0  0
 39 38  1  0  0  0  0
 39 29  1  0  0  0  0
 40 42  1  0  0  0  0
 41 40  1  0  0  0  0
 42 43  1  0  0  0  0
 42 44  1  0  0  0  0
 44 45  1  0  0  0  0
 44 38  1  0  0  0  0
M  END
>  <minimizedAffinity>
-5.73918152

>  <minimizedRMSD>
0.758248985

$$$$
