
 OpenBabel03262523403D

 32 34  0  0  1  0  0  0  0  0999 V2000
   37.1420   29.2440   50.4600 C   0  0  0  0  0  0  0  0  0  0  0  0
   37.5220   29.7280   49.1960 C   0  0  0  0  0  0  0  0  0  0  0  0
   36.5210   30.3500   48.4200 C   0  0  0  0  0  0  0  0  0  0  0  0
   35.2450   30.4560   48.9180 N   0  0  0  0  0  0  0  0  0  0  0  0
   34.9320   29.9710   50.1460 C   0  0  0  0  0  0  0  0  0  0  0  0
   35.8600   29.3770   50.9040 N   0  0  0  0  0  0  0  0  0  0  0  0
   36.8240   30.8730   47.1300 N   0  0  0  0  0  0  0  0  0  0  0  0
   36.3630   30.0800   46.0060 C   0  0  0  0  0  0  0  0  0  0  0  0
   36.6610   30.6340   44.6660 C   0  0  0  0  0  0  0  0  0  0  0  0
   37.3310   31.8490   44.5880 N   0  0  0  0  0  0  0  0  0  0  0  0
   38.1770   32.2760   45.6450 C   0  0  0  0  0  0  0  0  0  0  0  0
   37.5320   32.0910   47.0080 C   0  0  2  0  0  0  0  0  0  0  0  0
   37.8780   28.7670   51.0730 H   0  0  0  0  0  0  0  0  0  0  0  0
   38.5240   29.6370   48.8190 H   0  0  0  0  0  0  0  0  0  0  0  0
   33.9350   30.0420   50.5610 H   0  0  0  0  0  0  0  0  0  0  0  0
   35.2590   29.9570   46.1820 H   0  0  0  0  0  0  0  0  0  0  0  0
   36.7710   29.0550   46.1600 H   0  0  0  0  0  0  0  0  0  0  0  0
   37.2250   29.8640   44.0960 H   0  0  0  0  0  0  0  0  0  0  0  0
   35.6880   30.7300   44.1020 H   0  0  0  0  0  0  0  0  0  0  0  0
   37.8410   31.9490   43.6890 H   0  0  0  0  0  0  0  0  0  0  0  0
   38.4810   33.3040   45.4660 H   0  0  0  0  0  0  0  0  0  0  0  0
   39.0830   31.6350   45.6550 H   0  0  0  0  0  0  0  0  0  0  0  0
   36.7170   32.9000   47.0150 H   0  0  0  0  0  0  0  0  0  0  0  0
   36.9120   33.3700   50.0910 O   0  0  0  0  0  0  0  0  0  0  0  0
   37.8760   33.0780   49.2950 C   0  0  0  0  0  0  0  0  0  0  0  0
   38.4650   32.4750   48.0890 C   0  0  2  0  0  0  0  0  0  0  0  0
   39.3620   33.6180   47.5940 C   0  0  0  0  0  0  0  0  0  0  0  0
   40.1080   33.2850   46.8590 H   0  0  0  0  0  0  0  0  0  0  0  0
   40.0360   34.1020   48.8910 C   0  0  0  0  0  0  0  0  0  0  0  0
   40.0350   35.2070   48.9320 H   0  0  0  0  0  0  0  0  0  0  0  0
   39.0620   33.6600   49.9040 N   0  0  0  0  0  0  0  0  0  0  0  0
   39.4480   33.8690   50.8700 H   0  0  0  0  0  0  0  0  0  0  0  0
  1  6  1  0  0  0  0
  1 13  1  0  0  0  0
  2  1  2  0  0  0  0
  3  4  2  0  0  0  0
  3  2  1  0  0  0  0
  4  5  1  0  0  0  0
  5 15  1  0  0  0  0
  5  6  2  0  0  0  0
  7  3  1  0  0  0  0
  8 17  1  0  0  0  0
  8 16  1  0  0  0  0
  8  7  1  0  0  0  0
  9  8  1  0  0  0  0
 10  9  1  0  0  0  0
 10 11  1  0  0  0  0
 11 22  1  0  0  0  0
 11 12  1  0  0  0  0
 12 23  1  1  0  0  0
 12  7  1  0  0  0  0
 12 26  1  0  0  0  0
 14  2  1  0  0  0  0
 18  9  1  0  0  0  0
 19  9  1  0  0  0  0
 20 10  1  0  0  0  0
 21 11  1  0  0  0  0
 25 31  1  0  0  0  0
 25 24  2  0  0  0  0
 26 27  1  6  0  0  0
 26 25  1  0  0  0  0
 27 29  1  0  0  0  0
 28 27  1  0  0  0  0
 29 30  1  0  0  0  0
 29 31  1  0  0  0  0
 31 32  1  0  0  0  0
M  END
>  <minimizedAffinity>
-4.44207144

>  <minimizedRMSD>
2.75791311

$$$$
