
 OpenBabel03272508363D

 44 47  0  0  1  0  0  0  0  0999 V2000
   40.4060   31.6200   44.1210 C   0  0  0  0  0  0  0  0  0  0  0  0
   41.5160   31.6220   44.0520 H   0  0  0  0  0  0  0  0  0  0  0  0
   40.1720   30.5610   44.4190 H   0  0  0  0  0  0  0  0  0  0  0  0
   39.9140   31.7910   42.8140 N   0  0  0  0  0  0  0  0  0  0  0  0
   39.3140   33.0290   42.5000 C   0  0  0  0  0  0  0  0  0  0  0  0
   37.8860   33.0130   42.1390 C   0  0  0  0  0  0  0  0  0  0  0  0
   37.5960   31.9300   41.2570 O   0  0  0  0  0  0  0  0  0  0  0  0
   37.8880   30.7770   41.9450 C   0  0  0  0  0  0  0  0  0  0  0  0
   39.3820   30.6930   42.1300 C   0  0  1  0  0  0  0  0  0  0  0  0
   39.6230   33.9270   43.0070 H   0  0  0  0  0  0  0  0  0  0  0  0
   39.8350   33.2110   41.4910 H   0  0  0  0  0  0  0  0  0  0  0  0
   37.7790   33.8860   41.3680 H   0  0  0  0  0  0  0  0  0  0  0  0
   37.0840   33.2150   42.7710 H   0  0  0  0  0  0  0  0  0  0  0  0
   37.6560   29.9370   41.2190 H   0  0  0  0  0  0  0  0  0  0  0  0
   37.2930   30.5590   42.8230 H   0  0  0  0  0  0  0  0  0  0  0  0
   39.5530   29.7800   42.7530 H   0  0  0  0  0  0  0  0  0  0  0  0
   38.9170   28.5060   39.4700 O   0  0  0  0  0  0  0  0  0  0  0  0
   39.6370   29.0410   40.3420 C   0  0  0  0  0  0  0  0  0  0  0  0
   40.0630   30.3880   40.8080 C   0  0  2  0  0  0  0  0  0  0  0  0
   41.5260   30.1460   41.1180 C   0  0  0  0  0  0  0  0  0  0  0  0
   42.1490   30.2170   40.2010 H   0  0  0  0  0  0  0  0  0  0  0  0
   41.5430   28.7790   41.7460 C   0  0  0  0  0  0  0  0  0  0  0  0
   42.4180   28.1980   41.3640 H   0  0  0  0  0  0  0  0  0  0  0  0
   40.3200   28.1450   41.2340 N   0  0  0  0  0  0  0  0  0  0  0  0
   40.2070   27.1830   41.6260 H   0  0  0  0  0  0  0  0  0  0  0  0
   39.9040   32.5040   45.1640 C   0  0  0  0  0  0  0  0  0  0  0  0
   39.4980   33.4820   44.9760 H   0  0  0  0  0  0  0  0  0  0  0  0
   40.7640   32.6980   45.8680 H   0  0  0  0  0  0  0  0  0  0  0  0
   37.8470   30.9170   47.6390 C   0  0  0  0  0  0  0  0  0  0  0  0
   37.0600   30.8210   46.5350 C   0  0  0  0  0  0  0  0  0  0  0  0
   37.7300   31.4010   45.4730 C   0  0  0  0  0  0  0  0  0  0  0  0
   38.9000   31.8250   45.9770 N   0  0  0  0  0  0  0  0  0  0  0  0
   38.9610   31.5300   47.2790 N   0  0  0  0  0  0  0  0  0  0  0  0
   36.0710   30.3560   46.5250 H   0  0  0  0  0  0  0  0  0  0  0  0
   37.1900   31.3800   44.5510 H   0  0  0  0  0  0  0  0  0  0  0  0
   37.5500   30.3020   51.3460 C   0  0  0  0  0  0  0  0  0  0  0  0
   38.0300   30.8080   50.1580 C   0  0  0  0  0  0  0  0  0  0  0  0
   37.4500   30.4430   48.9520 C   0  0  0  0  0  0  0  0  0  0  0  0
   36.4130   29.5810   49.0770 N   0  0  0  0  0  0  0  0  0  0  0  0
   35.9510   29.0940   50.2360 C   0  0  0  0  0  0  0  0  0  0  0  0
   36.5240   29.4600   51.3680 N   0  0  0  0  0  0  0  0  0  0  0  0
   38.0040   30.5880   52.2850 H   0  0  0  0  0  0  0  0  0  0  0  0
   38.8660   31.4990   50.1030 H   0  0  0  0  0  0  0  0  0  0  0  0
   35.1070   28.4120   50.1310 H   0  0  0  0  0  0  0  0  0  0  0  0
  1  3  1  0  0  0  0
  1 26  1  0  0  0  0
  2  1  1  0  0  0  0
  4  1  1  0  0  0  0
  5  4  1  0  0  0  0
  5 10  1  0  0  0  0
  6  5  1  0  0  0  0
  6 13  1  0  0  0  0
  7  8  1  0  0  0  0
  7  6  1  0  0  0  0
  8  9  1  0  0  0  0
  8 15  1  0  0  0  0
  9 16  1  1  0  0  0
  9  4  1  0  0  0  0
 11  5  1  0  0  0  0
 12  6  1  0  0  0  0
 14  8  1  0  0  0  0
 17 18  2  0  0  0  0
 18 24  1  0  0  0  0
 19 18  1  1  0  0  0
 19 20  1  0  0  0  0
 19  9  1  0  0  0  0
 20 22  1  0  0  0  0
 21 20  1  0  0  0  0
 23 22  1  0  0  0  0
 24 25  1  0  0  0  0
 24 22  1  0  0  0  0
 26 28  1  0  0  0  0
 26 32  1  0  0  0  0
 27 26  1  0  0  0  0
 29 38  1  0  0  0  0
 30 29  1  0  0  0  0
 31 32  1  0  0  0  0
 31 30  2  0  0  0  0
 32 33  1  0  0  0  0
 33 29  2  0  0  0  0
 34 30  1  0  0  0  0
 35 31  1  0  0  0  0
 36 41  1  0  0  0  0
 36 42  1  0  0  0  0
 37 36  2  0  0  0  0
 38 39  2  0  0  0  0
 38 37  1  0  0  0  0
 39 40  1  0  0  0  0
 40 41  2  0  0  0  0
 43 37  1  0  0  0  0
 44 40  1  0  0  0  0
M  END
>  <minimizedAffinity>
-5.54498911

>  <minimizedRMSD>
1.28191268

$$$$
