
 OpenBabel03272505113D

 39 42  0  0  1  0  0  0  0  0999 V2000
   34.1190   29.9560   47.4990 S   0  0  0  0  0  0  0  0  0  0  0  0
   36.4740   30.7940   45.6200 Cl  0  0  0  0  0  0  0  0  0  0  0  0
   36.7420   30.8070   47.3430 C   0  0  0  0  0  0  0  0  0  0  0  0
   37.9920   31.1890   47.7920 C   0  0  0  0  0  0  0  0  0  0  0  0
   38.2100   31.2010   49.1610 C   0  0  0  0  0  0  0  0  0  0  0  0
   37.2110   30.8420   50.0200 C   0  0  0  0  0  0  0  0  0  0  0  0
   35.9770   30.4680   49.5000 C   0  0  0  0  0  0  0  0  0  0  0  0
   35.6800   30.4300   48.1660 C   0  0  0  0  0  0  0  0  0  0  0  0
   39.1720   31.4940   49.5520 H   0  0  0  0  0  0  0  0  0  0  0  0
   37.4170   30.8640   51.0840 H   0  0  0  0  0  0  0  0  0  0  0  0
   35.2060   30.1890   50.2170 H   0  0  0  0  0  0  0  0  0  0  0  0
   40.2570   33.2930   45.8660 C   0  0  0  0  0  0  0  0  0  0  0  0
   40.9740   32.3760   45.0660 C   0  0  0  0  0  0  0  0  0  0  0  0
   40.6640   31.0190   45.2020 C   0  0  0  0  0  0  0  0  0  0  0  0
   39.6940   30.6550   46.0920 N   0  0  0  0  0  0  0  0  0  0  0  0
   39.0410   31.5680   46.8290 C   0  0  0  0  0  0  0  0  0  0  0  0
   39.3200   32.8640   46.7150 N   0  0  0  0  0  0  0  0  0  0  0  0
   40.4380   34.3630   45.8200 H   0  0  0  0  0  0  0  0  0  0  0  0
   41.7200   32.7360   44.3920 H   0  0  0  0  0  0  0  0  0  0  0  0
   41.1900   30.3050   44.6110 H   0  0  0  0  0  0  0  0  0  0  0  0
   34.4430   28.9750   44.5260 Cl  0  0  0  0  0  0  0  0  0  0  0  0
   34.1880   27.8350   45.8300 C   0  0  0  0  0  0  0  0  0  0  0  0
   34.0350   28.1900   47.1730 C   0  0  0  0  0  0  0  0  0  0  0  0
   33.8390   27.2110   48.1220 C   0  0  0  0  0  0  0  0  0  0  0  0
   33.7910   25.9000   47.7660 C   0  0  0  0  0  0  0  0  0  0  0  0
   33.9360   25.4950   46.4540 C   0  0  0  0  0  0  0  0  0  0  0  0
   34.1340   26.4900   45.5090 C   0  0  0  0  0  0  0  0  0  0  0  0
   33.7350   27.6290   49.1290 H   0  0  0  0  0  0  0  0  0  0  0  0
   33.6320   25.1900   48.5720 H   0  0  0  0  0  0  0  0  0  0  0  0
   33.8950   24.4440   46.1860 H   0  0  0  0  0  0  0  0  0  0  0  0
   33.4650   27.9730   43.0150 O   0  0  0  0  0  0  0  0  0  0  0  0
   34.3610   27.0930   43.1140 C   0  0  0  0  0  0  0  0  0  0  0  0
   34.2840   26.0090   44.1110 C   0  0  1  0  0  0  0  0  0  0  0  0
   35.4910   25.1480   43.9200 C   0  0  0  0  0  0  0  0  0  0  0  0
   35.2070   24.0850   44.0490 H   0  0  0  0  0  0  0  0  0  0  0  0
   35.8340   25.4540   42.4610 C   0  0  0  0  0  0  0  0  0  0  0  0
   36.8780   25.2040   42.2070 H   0  0  0  0  0  0  0  0  0  0  0  0
   35.5850   26.9000   42.3800 N   0  0  0  0  0  0  0  0  0  0  0  0
   36.0810   27.7270   41.9340 H   0  0  0  0  0  0  0  0  0  0  0  0
  1  8  1  0  0  0  0
  2  3  1  0  0  0  0
  3  4  2  0  0  0  0
  3  8  1  0  0  0  0
  4  5  1  0  0  0  0
  5  9  1  0  0  0  0
  5  6  2  0  0  0  0
  6 10  1  0  0  0  0
  7  6  1  0  0  0  0
  7 11  1  0  0  0  0
  8  7  2  0  0  0  0
 12 17  1  0  0  0  0
 13 14  1  0  0  0  0
 13 12  2  0  0  0  0
 14 15  2  0  0  0  0
 15 16  1  0  0  0  0
 16  4  1  0  0  0  0
 17 16  2  0  0  0  0
 18 12  1  0  0  0  0
 19 13  1  0  0  0  0
 20 14  1  0  0  0  0
 21 22  1  0  0  0  0
 22 23  1  0  0  0  0
 23  1  1  0  0  0  0
 23 24  2  0  0  0  0
 24 28  1  0  0  0  0
 25 24  1  0  0  0  0
 25 29  1  0  0  0  0
 26 25  2  0  0  0  0
 27 22  2  0  0  0  0
 27 26  1  0  0  0  0
 30 26  1  0  0  0  0
 31 32  2  0  0  0  0
 32 33  1  0  0  0  0
 33 27  1  1  0  0  0
 34 35  1  0  0  0  0
 34 33  1  0  0  0  0
 36 34  1  0  0  0  0
 37 36  1  0  0  0  0
 38 36  1  0  0  0  0
 38 32  1  0  0  0  0
 39 38  1  0  0  0  0
M  END
>  <minimizedAffinity>
-5.73604918

>  <minimizedRMSD>
0.496857613

$$$$
