
 OpenBabel03272504453D

 30 32  0  0  1  0  0  0  0  0999 V2000
   36.5640   29.5570   50.9810 C   0  0  0  0  0  0  0  0  0  0  0  0
   37.4280   30.1750   50.0730 C   0  0  0  0  0  0  0  0  0  0  0  0
   37.1430   30.3370   48.7190 C   0  0  0  0  0  0  0  0  0  0  0  0
   35.9450   29.8430   48.3340 N   0  0  0  0  0  0  0  0  0  0  0  0
   35.1150   29.2480   49.2100 C   0  0  0  0  0  0  0  0  0  0  0  0
   35.3920   29.0990   50.4910 N   0  0  0  0  0  0  0  0  0  0  0  0
   36.8610   29.4690   52.0220 H   0  0  0  0  0  0  0  0  0  0  0  0
   37.5900   33.1780   49.3370 Cl  0  0  0  0  0  0  0  0  0  0  0  0
   38.3240   32.3230   48.0130 C   0  0  0  0  0  0  0  0  0  0  0  0
   38.0540   30.9820   47.7970 C   0  0  0  0  0  0  0  0  0  0  0  0
   38.6720   30.3820   46.7330 C   0  0  0  0  0  0  0  0  0  0  0  0
   39.5350   31.0350   45.8790 C   0  0  0  0  0  0  0  0  0  0  0  0
   39.7800   32.4020   46.1370 C   0  0  0  0  0  0  0  0  0  0  0  0
   40.8700   33.2060   45.0490 Cl  0  0  0  0  0  0  0  0  0  0  0  0
   39.1820   33.0510   47.1960 C   0  0  0  0  0  0  0  0  0  0  0  0
   38.4320   29.3250   46.5990 H   0  0  0  0  0  0  0  0  0  0  0  0
   40.0060   30.5410   45.0520 H   0  0  0  0  0  0  0  0  0  0  0  0
   39.3930   34.1040   47.3660 H   0  0  0  0  0  0  0  0  0  0  0  0
   33.5170   30.6480   47.1260 O   0  0  0  0  0  0  0  0  0  0  0  0
   33.7130   29.4160   47.3020 C   0  0  0  0  0  0  0  0  0  0  0  0
   33.8240   28.7500   48.6480 C   0  0  1  0  0  0  0  0  0  0  0  0
   33.8730   27.2860   48.3390 C   0  0  0  0  0  0  0  0  0  0  0  0
   33.1810   26.6660   48.9500 H   0  0  0  0  0  0  0  0  0  0  0  0
   33.4960   27.1710   46.8640 C   0  0  0  0  0  0  0  0  0  0  0  0
   34.0630   26.3360   46.4150 H   0  0  0  0  0  0  0  0  0  0  0  0
   33.8620   28.4470   46.2690 N   0  0  0  0  0  0  0  0  0  0  0  0
   34.1690   28.5900   45.2790 H   0  0  0  0  0  0  0  0  0  0  0  0
   38.6670   30.6590   50.5910 N   0  0  0  0  0  0  0  0  0  0  0  0
   39.2200   30.0660   51.2480 H   0  0  0  0  0  0  0  0  0  0  0  0
   39.0910   31.5830   50.3700 H   0  0  0  0  0  0  0  0  0  0  0  0
  1  7  1  0  0  0  0
  2 28  1  0  0  0  0
  2  1  2  0  0  0  0
  3  2  1  0  0  0  0
  4  3  2  0  0  0  0
  4  5  1  0  0  0  0
  5  6  2  0  0  0  0
  6  1  1  0  0  0  0
  9  8  1  0  0  0  0
 10  9  1  0  0  0  0
 10  3  1  0  0  0  0
 11 10  2  0  0  0  0
 12 13  2  0  0  0  0
 12 11  1  0  0  0  0
 13 15  1  0  0  0  0
 14 13  1  0  0  0  0
 15 18  1  0  0  0  0
 15  9  2  0  0  0  0
 16 11  1  0  0  0  0
 17 12  1  0  0  0  0
 19 20  2  0  0  0  0
 20 21  1  0  0  0  0
 21  5  1  6  0  0  0
 22 21  1  0  0  0  0
 22 23  1  0  0  0  0
 24 22  1  0  0  0  0
 25 24  1  0  0  0  0
 26 24  1  0  0  0  0
 26 20  1  0  0  0  0
 27 26  1  0  0  0  0
 28 29  1  0  0  0  0
 30 28  1  0  0  0  0
M  END
>  <minimizedAffinity>
-6.69364738

>  <minimizedRMSD>
1.22133756

$$$$
