
 OpenBabel03262523583D

 28 30  0  0  1  0  0  0  0  0999 V2000
   38.6030   26.4630   33.2840 C   0  0  0  0  0  0  0  0  0  0  0  0
   37.9820   25.7140   32.2570 C   0  0  0  0  0  0  0  0  0  0  0  0
   37.5870   24.4030   32.5730 C   0  0  0  0  0  0  0  0  0  0  0  0
   37.8160   23.9180   33.8320 N   0  0  0  0  0  0  0  0  0  0  0  0
   38.4210   24.6950   34.7770 C   0  0  0  0  0  0  0  0  0  0  0  0
   38.8090   25.9500   34.5050 N   0  0  0  0  0  0  0  0  0  0  0  0
   38.9330   27.4750   33.1160 H   0  0  0  0  0  0  0  0  0  0  0  0
   37.1120   23.8150   31.8080 H   0  0  0  0  0  0  0  0  0  0  0  0
   40.9420   22.8350   34.9690 Br  0  0  0  0  0  0  0  0  0  0  0  0
   39.7450   23.3440   36.3730 C   0  0  0  0  0  0  0  0  0  0  0  0
   38.6680   24.1800   36.1240 C   0  0  0  0  0  0  0  0  0  0  0  0
   37.8640   24.4910   37.1890 C   0  0  0  0  0  0  0  0  0  0  0  0
   38.0530   24.0340   38.4730 C   0  0  0  0  0  0  0  0  0  0  0  0
   39.1290   23.2080   38.6860 C   0  0  0  0  0  0  0  0  0  0  0  0
   39.9670   22.8680   37.6370 C   0  0  0  0  0  0  0  0  0  0  0  0
   37.0100   25.1480   37.0160 H   0  0  0  0  0  0  0  0  0  0  0  0
   37.4130   24.2850   39.3060 H   0  0  0  0  0  0  0  0  0  0  0  0
   39.3330   22.8150   39.6670 H   0  0  0  0  0  0  0  0  0  0  0  0
   40.8110   22.2070   37.8560 H   0  0  0  0  0  0  0  0  0  0  0  0
   35.3340   26.7850   31.3150 O   0  0  0  0  0  0  0  0  0  0  0  0
   36.4690   26.9750   30.7590 C   0  0  0  0  0  0  0  0  0  0  0  0
   37.7760   26.3250   30.9240 C   0  0  1  0  0  3  0  0  0  0  0  0
   38.7510   27.4100   30.6150 C   0  0  0  0  0  3  0  0  0  0  0  0
   39.2290   27.7520   31.5670 H   0  0  0  0  0  0  0  0  0  0  0  0
   38.0090   28.5320   29.9240 C   0  0  0  0  0  3  0  0  0  0  0  0
   38.4830   28.7980   28.9620 H   0  0  0  0  0  0  0  0  0  0  0  0
   36.6530   27.9940   29.7530 N   0  0  0  0  0  0  0  0  0  0  0  0
   35.9630   28.3220   29.0130 H   0  0  0  0  0  0  0  0  0  0  0  0
  1  6  1  0  0  0  0
  2  3  1  0  0  0  0
  2  1  2  0  0  0  0
  3  4  2  0  0  0  0
  4  5  1  0  0  0  0
  5 11  1  0  0  0  0
  6  5  2  0  0  0  0
  7  1  1  0  0  0  0
  8  3  1  0  0  0  0
  9 10  1  0  0  0  0
 10 15  1  0  0  0  0
 11 10  2  0  0  0  0
 11 12  1  0  0  0  0
 12 13  2  0  0  0  0
 13 14  1  0  0  0  0
 13 17  1  0  0  0  0
 14 18  1  0  0  0  0
 15 19  1  0  0  0  0
 15 14  2  0  0  0  0
 16 12  1  0  0  0  0
 21 22  1  0  0  0  0
 21 20  2  0  0  0  0
 22  2  1  1  0  0  0
 23 22  1  0  0  0  0
 23 24  1  0  0  0  0
 25 23  1  0  0  0  0
 26 25  1  0  0  0  0
 27 25  1  0  0  0  0
 27 21  1  0  0  0  0
 28 27  1  0  0  0  0
M  END
>  <minimizedAffinity>
-5.27737761

$$$$

 OpenBabel03262523583D

 28 30  0  0  1  0  0  0  0  0999 V2000
   39.6130   27.1180   33.5370 C   0  0  0  0  0  0  0  0  0  0  0  0
   38.6500   26.9040   32.5230 C   0  0  0  0  0  0  0  0  0  0  0  0
   37.7010   25.8910   32.7470 C   0  0  0  0  0  0  0  0  0  0  0  0
   37.7490   25.1720   33.9090 N   0  0  0  0  0  0  0  0  0  0  0  0
   38.7060   25.4300   34.8470 C   0  0  0  0  0  0  0  0  0  0  0  0
   39.6250   26.3900   34.6620 N   0  0  0  0  0  0  0  0  0  0  0  0
   40.3720   27.8750   33.4360 H   0  0  0  0  0  0  0  0  0  0  0  0
   36.9590   25.7120   31.9900 H   0  0  0  0  0  0  0  0  0  0  0  0
   40.7470   23.0460   34.7650 Br  0  0  0  0  0  0  0  0  0  0  0  0
   39.6140   23.5770   36.2130 C   0  0  0  0  0  0  0  0  0  0  0  0
   38.7600   24.6620   36.0920 C   0  0  0  0  0  0  0  0  0  0  0  0
   37.9870   24.9700   37.1800 C   0  0  0  0  0  0  0  0  0  0  0  0
   38.0020   24.2800   38.3710 C   0  0  0  0  0  0  0  0  0  0  0  0
   38.8580   23.2100   38.4600 C   0  0  0  0  0  0  0  0  0  0  0  0
   39.6580   22.8650   37.3820 C   0  0  0  0  0  0  0  0  0  0  0  0
   37.3080   25.8200   37.1060 H   0  0  0  0  0  0  0  0  0  0  0  0
   37.3880   24.5310   39.2230 H   0  0  0  0  0  0  0  0  0  0  0  0
   38.9180   22.6300   39.3630 H   0  0  0  0  0  0  0  0  0  0  0  0
   40.3250   22.0060   37.5010 H   0  0  0  0  0  0  0  0  0  0  0  0
   39.2910   25.8130   29.7950 O   0  0  0  0  0  0  0  0  0  0  0  0
   38.7950   26.9620   30.0540 C   0  0  0  0  0  0  0  0  0  0  0  0
   38.6770   27.7350   31.2970 C   0  0  1  0  0  3  0  0  0  0  0  0
   37.4360   28.5360   31.0990 C   0  0  0  0  0  3  0  0  0  0  0  0
   36.6210   28.1100   31.7370 H   0  0  0  0  0  0  0  0  0  0  0  0
   37.0770   28.4980   29.6300 C   0  0  0  0  0  3  0  0  0  0  0  0
   36.9550   29.5160   29.2180 H   0  0  0  0  0  0  0  0  0  0  0  0
   38.1990   27.7740   29.0200 N   0  0  0  0  0  0  0  0  0  0  0  0
   38.4880   27.8590   27.9990 H   0  0  0  0  0  0  0  0  0  0  0  0
  1  6  1  0  0  0  0
  2  3  1  0  0  0  0
  2  1  2  0  0  0  0
  3  4  2  0  0  0  0
  4  5  1  0  0  0  0
  5 11  1  0  0  0  0
  6  5  2  0  0  0  0
  7  1  1  0  0  0  0
  8  3  1  0  0  0  0
  9 10  1  0  0  0  0
 10 15  1  0  0  0  0
 11 10  2  0  0  0  0
 11 12  1  0  0  0  0
 12 13  2  0  0  0  0
 13 14  1  0  0  0  0
 13 17  1  0  0  0  0
 14 18  1  0  0  0  0
 15 19  1  0  0  0  0
 15 14  2  0  0  0  0
 16 12  1  0  0  0  0
 20 21  2  0  0  0  0
 21 22  1  0  0  0  0
 22  2  1  1  0  0  0
 23 22  1  0  0  0  0
 23 24  1  0  0  0  0
 25 23  1  0  0  0  0
 26 25  1  0  0  0  0
 27 25  1  0  0  0  0
 27 21  1  0  0  0  0
 28 27  1  0  0  0  0
M  END
>  <minimizedAffinity>
-5.24368906

$$$$

 OpenBabel03262523583D

 28 30  0  0  1  0  0  0  0  0999 V2000
   38.0180   24.0110   34.0780 C   0  0  0  0  0  0  0  0  0  0  0  0
   38.1880   24.4570   35.4100 C   0  0  0  0  0  0  0  0  0  0  0  0
   38.2370   25.8470   35.6160 C   0  0  0  0  0  0  0  0  0  0  0  0
   38.1190   26.6890   34.5440 N   0  0  0  0  0  0  0  0  0  0  0  0
   37.9560   26.1920   33.2840 C   0  0  0  0  0  0  0  0  0  0  0  0
   37.9070   24.8710   33.0560 N   0  0  0  0  0  0  0  0  0  0  0  0
   37.9720   22.9610   33.8420 H   0  0  0  0  0  0  0  0  0  0  0  0
   38.3650   26.2090   36.6200 H   0  0  0  0  0  0  0  0  0  0  0  0
   40.6860   26.7900   31.8520 Br  0  0  0  0  0  0  0  0  0  0  0  0
   38.9470   27.4490   31.3970 C   0  0  0  0  0  0  0  0  0  0  0  0
   37.8310   27.0900   32.1350 C   0  0  0  0  0  0  0  0  0  0  0  0
   36.6280   27.6090   31.7360 C   0  0  0  0  0  0  0  0  0  0  0  0
   36.4580   28.4560   30.6650 C   0  0  0  0  0  0  0  0  0  0  0  0
   37.5830   28.7940   29.9540 C   0  0  0  0  0  0  0  0  0  0  0  0
   38.8190   28.2900   30.3240 C   0  0  0  0  0  0  0  0  0  0  0  0
   35.7360   27.3390   32.3030 H   0  0  0  0  0  0  0  0  0  0  0  0
   35.5040   28.8600   30.3580 H   0  0  0  0  0  0  0  0  0  0  0  0
   37.5180   29.4510   29.1060 H   0  0  0  0  0  0  0  0  0  0  0  0
   39.6870   28.5870   29.7270 H   0  0  0  0  0  0  0  0  0  0  0  0
   40.7470   23.0310   36.0880 O   0  0  0  0  0  0  0  0  0  0  0  0
   39.6870   23.0640   36.8000 C   0  0  0  0  0  0  0  0  0  0  0  0
   38.3060   23.4690   36.5060 C   0  0  1  0  0  3  0  0  0  0  0  0
   37.8000   23.9750   37.8140 C   0  0  0  0  0  3  0  0  0  0  0  0
   37.7320   25.0910   37.7710 H   0  0  0  0  0  0  0  0  0  0  0  0
   38.7460   23.5130   38.8990 C   0  0  0  0  0  3  0  0  0  0  0  0
   38.2090   22.9740   39.7010 H   0  0  0  0  0  0  0  0  0  0  0  0
   39.6970   22.6510   38.1840 N   0  0  0  0  0  0  0  0  0  0  0  0
   40.2690   21.8780   38.6370 H   0  0  0  0  0  0  0  0  0  0  0  0
  1  2  1  0  0  0  0
  2  3  2  0  0  0  0
  3  8  1  0  0  0  0
  4  3  1  0  0  0  0
  5  4  2  0  0  0  0
  6  5  1  0  0  0  0
  6  1  2  0  0  0  0
  7  1  1  0  0  0  0
 10  9  1  0  0  0  0
 10 11  1  0  0  0  0
 11  5  1  0  0  0  0
 12 11  2  0  0  0  0
 12 16  1  0  0  0  0
 13 12  1  0  0  0  0
 14 15  1  0  0  0  0
 14 13  2  0  0  0  0
 15 10  2  0  0  0  0
 17 13  1  0  0  0  0
 18 14  1  0  0  0  0
 19 15  1  0  0  0  0
 20 21  2  0  0  0  0
 21 27  1  0  0  0  0
 22  2  1  6  0  0  0
 22 21  1  0  0  0  0
 22 23  1  0  0  0  0
 23 25  1  0  0  0  0
 24 23  1  0  0  0  0
 25 26  1  0  0  0  0
 27 28  1  0  0  0  0
 27 25  1  0  0  0  0
M  END
>  <minimizedAffinity>
-5.23960018

$$$$

 OpenBabel03262523583D

 28 30  0  0  1  0  0  0  0  0999 V2000
   38.5250   26.7430   35.9270 C   0  0  0  0  0  0  0  0  0  0  0  0
   38.5600   25.3970   35.4950 C   0  0  0  0  0  0  0  0  0  0  0  0
   37.8110   25.0750   34.3500 C   0  0  0  0  0  0  0  0  0  0  0  0
   37.0980   26.0550   33.7160 N   0  0  0  0  0  0  0  0  0  0  0  0
   37.1090   27.3370   34.1860 C   0  0  0  0  0  0  0  0  0  0  0  0
   37.8130   27.6740   35.2770 N   0  0  0  0  0  0  0  0  0  0  0  0
   39.0730   27.0650   36.7970 H   0  0  0  0  0  0  0  0  0  0  0  0
   37.8220   24.0570   34.0030 H   0  0  0  0  0  0  0  0  0  0  0  0
   38.0640   27.8930   31.2480 Br  0  0  0  0  0  0  0  0  0  0  0  0
   36.6470   28.7500   32.2080 C   0  0  0  0  0  0  0  0  0  0  0  0
   36.3470   28.3880   33.5120 C   0  0  0  0  0  0  0  0  0  0  0  0
   35.3160   29.0550   34.1210 C   0  0  0  0  0  0  0  0  0  0  0  0
   34.5710   30.0500   33.5300 C   0  0  0  0  0  0  0  0  0  0  0  0
   34.8930   30.3860   32.2390 C   0  0  0  0  0  0  0  0  0  0  0  0
   35.9280   29.7360   31.5860 C   0  0  0  0  0  0  0  0  0  0  0  0
   35.0630   28.7860   35.1470 H   0  0  0  0  0  0  0  0  0  0  0  0
   33.7600   30.5700   34.0200 H   0  0  0  0  0  0  0  0  0  0  0  0
   34.3490   31.1550   31.7200 H   0  0  0  0  0  0  0  0  0  0  0  0
   36.1480   30.0370   30.5570 H   0  0  0  0  0  0  0  0  0  0  0  0
   37.3790   23.4760   37.4850 O   0  0  0  0  0  0  0  0  0  0  0  0
   38.5580   23.4280   36.9940 C   0  0  0  0  0  0  0  0  0  0  0  0
   39.3620   24.4040   36.2460 C   0  0  1  0  0  3  0  0  0  0  0  0
   40.2230   23.5580   35.3720 C   0  0  0  0  0  3  0  0  0  0  0  0
   39.8530   23.6280   34.3180 H   0  0  0  0  0  0  0  0  0  0  0  0
   40.1730   22.1380   35.8900 C   0  0  0  0  0  3  0  0  0  0  0  0
   41.1880   21.7400   36.0760 H   0  0  0  0  0  0  0  0  0  0  0  0
   39.3790   22.2470   37.1210 N   0  0  0  0  0  0  0  0  0  0  0  0
   39.4270   21.5620   37.9330 H   0  0  0  0  0  0  0  0  0  0  0  0
  1  7  1  0  0  0  0
  2  1  1  0  0  0  0
  3  2  2  0  0  0  0
  4  5  2  0  0  0  0
  4  3  1  0  0  0  0
  5  6  1  0  0  0  0
  6  1  2  0  0  0  0
  8  3  1  0  0  0  0
  9 10  1  0  0  0  0
 10 11  1  0  0  0  0
 11 12  2  0  0  0  0
 11  5  1  0  0  0  0
 12 16  1  0  0  0  0
 13 17  1  0  0  0  0
 13 12  1  0  0  0  0
 14 13  2  0  0  0  0
 15 10  2  0  0  0  0
 15 14  1  0  0  0  0
 18 14  1  0  0  0  0
 19 15  1  0  0  0  0
 21 27  1  0  0  0  0
 21 20  2  0  0  0  0
 22  2  1  6  0  0  0
 22 21  1  0  0  0  0
 23 25  1  0  0  0  0
 23 22  1  0  0  0  0
 24 23  1  0  0  0  0
 25 26  1  0  0  0  0
 25 27  1  0  0  0  0
 27 28  1  0  0  0  0
M  END
>  <minimizedAffinity>
-5.17532015

$$$$

 OpenBabel03262523583D

 28 30  0  0  1  0  0  0  0  0999 V2000
   38.2170   24.1600   33.9670 C   0  0  0  0  0  0  0  0  0  0  0  0
   38.5280   24.5750   35.2830 C   0  0  0  0  0  0  0  0  0  0  0  0
   38.9680   25.9000   35.4480 C   0  0  0  0  0  0  0  0  0  0  0  0
   39.0730   26.7130   34.3530 N   0  0  0  0  0  0  0  0  0  0  0  0
   38.7560   26.2490   33.1090 C   0  0  0  0  0  0  0  0  0  0  0  0
   38.3340   24.9890   32.9200 N   0  0  0  0  0  0  0  0  0  0  0  0
   37.8750   23.1600   33.7620 H   0  0  0  0  0  0  0  0  0  0  0  0
   39.2090   26.2370   36.4400 H   0  0  0  0  0  0  0  0  0  0  0  0
   36.1820   27.9610   32.5600 Br  0  0  0  0  0  0  0  0  0  0  0  0
   37.8150   27.9350   31.5610 C   0  0  0  0  0  0  0  0  0  0  0  0
   38.8680   27.1160   31.9350 C   0  0  0  0  0  0  0  0  0  0  0  0
   39.9980   27.1630   31.1620 C   0  0  0  0  0  0  0  0  0  0  0  0
   40.1530   27.9600   30.0510 C   0  0  0  0  0  0  0  0  0  0  0  0
   39.0910   28.7590   29.7060 C   0  0  0  0  0  0  0  0  0  0  0  0
   37.9300   28.7420   30.4610 C   0  0  0  0  0  0  0  0  0  0  0  0
   40.8390   26.5270   31.4380 H   0  0  0  0  0  0  0  0  0  0  0  0
   41.0480   27.9900   29.4470 H   0  0  0  0  0  0  0  0  0  0  0  0
   39.1480   29.4060   28.8480 H   0  0  0  0  0  0  0  0  0  0  0  0
   37.1110   29.3970   30.1470 H   0  0  0  0  0  0  0  0  0  0  0  0
   40.7210   22.7260   36.1830 O   0  0  0  0  0  0  0  0  0  0  0  0
   39.6390   22.9790   36.8130 C   0  0  0  0  0  0  0  0  0  0  0  0
   38.3820   23.6210   36.4070 C   0  0  1  0  0  3  0  0  0  0  0  0
   37.8890   24.2590   37.6610 C   0  0  0  0  0  3  0  0  0  0  0  0
   38.0340   25.3670   37.5880 H   0  0  0  0  0  0  0  0  0  0  0  0
   38.6540   23.6690   38.8250 C   0  0  0  0  0  3  0  0  0  0  0  0
   37.9710   23.2690   39.5960 H   0  0  0  0  0  0  0  0  0  0  0  0
   39.4750   22.6220   38.2020 N   0  0  0  0  0  0  0  0  0  0  0  0
   39.8590   21.7730   38.7150 H   0  0  0  0  0  0  0  0  0  0  0  0
  1  2  1  0  0  0  0
  2  3  2  0  0  0  0
  3  8  1  0  0  0  0
  4  3  1  0  0  0  0
  5  4  2  0  0  0  0
  6  5  1  0  0  0  0
  6  1  2  0  0  0  0
  7  1  1  0  0  0  0
 10 11  1  0  0  0  0
 10  9  1  0  0  0  0
 11  5  1  0  0  0  0
 12 16  1  0  0  0  0
 12 11  2  0  0  0  0
 13 12  1  0  0  0  0
 14 13  2  0  0  0  0
 14 15  1  0  0  0  0
 15 10  2  0  0  0  0
 17 13  1  0  0  0  0
 18 14  1  0  0  0  0
 19 15  1  0  0  0  0
 20 21  2  0  0  0  0
 21 27  1  0  0  0  0
 22  2  1  6  0  0  0
 22 21  1  0  0  0  0
 22 23  1  0  0  0  0
 23 25  1  0  0  0  0
 24 23  1  0  0  0  0
 25 26  1  0  0  0  0
 27 28  1  0  0  0  0
 27 25  1  0  0  0  0
M  END
>  <minimizedAffinity>
-5.14906263

$$$$

 OpenBabel03262523583D

 28 30  0  0  1  0  0  0  0  0999 V2000
   36.3050   27.8510   33.3200 C   0  0  0  0  0  0  0  0  0  0  0  0
   36.1040   28.1290   31.9480 C   0  0  0  0  0  0  0  0  0  0  0  0
   35.4880   29.3520   31.6280 C   0  0  0  0  0  0  0  0  0  0  0  0
   35.1190   30.2010   32.6350 N   0  0  0  0  0  0  0  0  0  0  0  0
   35.3430   29.8710   33.9400 C   0  0  0  0  0  0  0  0  0  0  0  0
   35.9280   28.7110   34.2760 N   0  0  0  0  0  0  0  0  0  0  0  0
   36.7700   26.9340   33.6410 H   0  0  0  0  0  0  0  0  0  0  0  0
   35.3250   29.5850   30.5910 H   0  0  0  0  0  0  0  0  0  0  0  0
   32.4200   29.3910   34.9790 Br  0  0  0  0  0  0  0  0  0  0  0  0
   33.6880   30.6900   35.5870 C   0  0  0  0  0  0  0  0  0  0  0  0
   34.9490   30.7760   35.0200 C   0  0  0  0  0  0  0  0  0  0  0  0
   35.7910   31.7360   35.5190 C   0  0  0  0  0  0  0  0  0  0  0  0
   35.4680   32.6100   36.5320 C   0  0  0  0  0  0  0  0  0  0  0  0
   34.2110   32.4990   37.0720 C   0  0  0  0  0  0  0  0  0  0  0  0
   33.3290   31.5420   36.5970 C   0  0  0  0  0  0  0  0  0  0  0  0
   36.7880   31.8210   35.0870 H   0  0  0  0  0  0  0  0  0  0  0  0
   36.1390   33.3630   36.9170 H   0  0  0  0  0  0  0  0  0  0  0  0
   33.8960   33.1520   37.8660 H   0  0  0  0  0  0  0  0  0  0  0  0
   32.3380   31.4920   37.0590 H   0  0  0  0  0  0  0  0  0  0  0  0
   38.9590   27.8140   31.0600 O   0  0  0  0  0  0  0  0  0  0  0  0
   37.9960   27.0130   30.8090 C   0  0  0  0  0  0  0  0  0  0  0  0
   36.5380   27.1470   30.9280 C   0  0  1  0  0  3  0  0  0  0  0  0
   36.0770   25.7580   31.2120 C   0  0  0  0  0  3  0  0  0  0  0  0
   35.7740   25.6870   32.2870 H   0  0  0  0  0  0  0  0  0  0  0  0
   37.2060   24.8080   30.8830 C   0  0  0  0  0  3  0  0  0  0  0  0
   36.8790   24.0180   30.1820 H   0  0  0  0  0  0  0  0  0  0  0  0
   38.2350   25.6820   30.3050 N   0  0  0  0  0  0  0  0  0  0  0  0
   38.9990   25.3560   29.6400 H   0  0  0  0  0  0  0  0  0  0  0  0
  1  7  1  0  0  0  0
  1  6  1  0  0  0  0
  2  1  2  0  0  0  0
  3  2  1  0  0  0  0
  3  4  2  0  0  0  0
  4  5  1  0  0  0  0
  5  6  2  0  0  0  0
  5 11  1  0  0  0  0
  8  3  1  0  0  0  0
  9 10  1  0  0  0  0
 10 15  1  0  0  0  0
 11 12  1  0  0  0  0
 11 10  2  0  0  0  0
 12 13  2  0  0  0  0
 13 17  1  0  0  0  0
 13 14  1  0  0  0  0
 14 18  1  0  0  0  0
 15 19  1  0  0  0  0
 15 14  2  0  0  0  0
 16 12  1  0  0  0  0
 21 22  1  0  0  0  0
 21 20  2  0  0  0  0
 22 23  1  0  0  0  0
 22  2  1  1  0  0  0
 23 24  1  0  0  0  0
 25 23  1  0  0  0  0
 26 25  1  0  0  0  0
 27 21  1  0  0  0  0
 27 25  1  0  0  0  0
 28 27  1  0  0  0  0
M  END
>  <minimizedAffinity>
-5.00703907

$$$$

 OpenBabel03262523583D

 28 30  0  0  1  0  0  0  0  0999 V2000
   37.0900   21.6580   33.3750 C   0  0  0  0  0  0  0  0  0  0  0  0
   36.2680   21.8070   32.2340 C   0  0  0  0  0  0  0  0  0  0  0  0
   36.1450   23.1030   31.7020 C   0  0  0  0  0  0  0  0  0  0  0  0
   36.8110   24.1390   32.2970 N   0  0  0  0  0  0  0  0  0  0  0  0
   37.5890   23.9250   33.3970 C   0  0  0  0  0  0  0  0  0  0  0  0
   37.7260   22.7000   33.9280 N   0  0  0  0  0  0  0  0  0  0  0  0
   37.2320   20.6960   33.8390 H   0  0  0  0  0  0  0  0  0  0  0  0
   35.5250   23.2400   30.8340 H   0  0  0  0  0  0  0  0  0  0  0  0
   40.4650   24.4060   32.2330 Br  0  0  0  0  0  0  0  0  0  0  0  0
   39.5840   25.3690   33.6330 C   0  0  0  0  0  0  0  0  0  0  0  0
   38.3030   25.0310   34.0370 C   0  0  0  0  0  0  0  0  0  0  0  0
   37.7510   25.7760   35.0460 C   0  0  0  0  0  0  0  0  0  0  0  0
   38.3790   26.8240   35.6780 C   0  0  0  0  0  0  0  0  0  0  0  0
   39.6490   27.1340   35.2560 C   0  0  0  0  0  0  0  0  0  0  0  0
   40.2430   26.4060   34.2390 C   0  0  0  0  0  0  0  0  0  0  0  0
   36.7430   25.5270   35.3780 H   0  0  0  0  0  0  0  0  0  0  0  0
   37.9360   27.4050   36.4730 H   0  0  0  0  0  0  0  0  0  0  0  0
   40.1950   27.9420   35.7090 H   0  0  0  0  0  0  0  0  0  0  0  0
   41.2560   26.6910   33.9360 H   0  0  0  0  0  0  0  0  0  0  0  0
   37.4390   20.1280   30.0320 O   0  0  0  0  0  0  0  0  0  0  0  0
   36.4290   19.8300   30.7560 C   0  0  0  0  0  0  0  0  0  0  0  0
   35.5870   20.6250   31.6600 C   0  0  1  0  0  3  0  0  0  0  0  0
   35.1450   19.6400   32.6880 C   0  0  0  0  0  3  0  0  0  0  0  0
   35.6930   19.8400   33.6430 H   0  0  0  0  0  0  0  0  0  0  0  0
   35.4210   18.2500   32.1630 C   0  0  0  0  0  3  0  0  0  0  0  0
   34.5130   17.6200   32.1890 H   0  0  0  0  0  0  0  0  0  0  0  0
   35.9010   18.4870   30.7950 N   0  0  0  0  0  0  0  0  0  0  0  0
   35.8510   17.7750   30.0070 H   0  0  0  0  0  0  0  0  0  0  0  0
  1  7  1  0  0  0  0
  1  6  1  0  0  0  0
  2  1  2  0  0  0  0
  3  2  1  0  0  0  0
  3  4  2  0  0  0  0
  4  5  1  0  0  0  0
  5  6  2  0  0  0  0
  5 11  1  0  0  0  0
  8  3  1  0  0  0  0
  9 10  1  0  0  0  0
 10 11  2  0  0  0  0
 10 15  1  0  0  0  0
 11 12  1  0  0  0  0
 12 16  1  0  0  0  0
 12 13  2  0  0  0  0
 13 17  1  0  0  0  0
 14 13  1  0  0  0  0
 14 18  1  0  0  0  0
 15 14  2  0  0  0  0
 19 15  1  0  0  0  0
 20 21  2  0  0  0  0
 21 27  1  0  0  0  0
 21 22  1  0  0  0  0
 22  2  1  1  0  0  0
 22 23  1  0  0  0  0
 23 24  1  0  0  0  0
 25 26  1  0  0  0  0
 25 23  1  0  0  0  0
 27 25  1  0  0  0  0
 28 27  1  0  0  0  0
M  END
>  <minimizedAffinity>
-4.98707914

$$$$

 OpenBabel03262523583D

 28 30  0  0  1  0  0  0  0  0999 V2000
   39.3370   26.4640   35.4460 C   0  0  0  0  0  0  0  0  0  0  0  0
   39.0980   25.0700   35.4520 C   0  0  0  0  0  0  0  0  0  0  0  0
   38.1970   24.5730   34.4950 C   0  0  0  0  0  0  0  0  0  0  0  0
   37.6030   25.4390   33.6190 N   0  0  0  0  0  0  0  0  0  0  0  0
   37.8780   26.7750   33.6670 C   0  0  0  0  0  0  0  0  0  0  0  0
   38.7340   27.2790   34.5690 N   0  0  0  0  0  0  0  0  0  0  0  0
   40.0150   26.9180   36.1500 H   0  0  0  0  0  0  0  0  0  0  0  0
   38.0000   23.5160   34.4810 H   0  0  0  0  0  0  0  0  0  0  0  0
   39.4650   27.1330   30.9820 Br  0  0  0  0  0  0  0  0  0  0  0  0
   37.8230   27.9690   31.5000 C   0  0  0  0  0  0  0  0  0  0  0  0
   37.2440   27.7040   32.7310 C   0  0  0  0  0  0  0  0  0  0  0  0
   36.0690   28.3480   33.0170 C   0  0  0  0  0  0  0  0  0  0  0  0
   35.4340   29.2290   32.1720 C   0  0  0  0  0  0  0  0  0  0  0  0
   36.0330   29.4700   30.9600 C   0  0  0  0  0  0  0  0  0  0  0  0
   37.2220   28.8400   30.6320 C   0  0  0  0  0  0  0  0  0  0  0  0
   35.5960   28.1540   33.9800 H   0  0  0  0  0  0  0  0  0  0  0  0
   34.5070   29.7310   32.4070 H   0  0  0  0  0  0  0  0  0  0  0  0
   35.5880   30.1490   30.2550 H   0  0  0  0  0  0  0  0  0  0  0  0
   37.6610   29.0640   29.6550 H   0  0  0  0  0  0  0  0  0  0  0  0
   37.7190   23.8250   37.8160 O   0  0  0  0  0  0  0  0  0  0  0  0
   38.8850   23.5360   37.3810 C   0  0  0  0  0  0  0  0  0  0  0  0
   39.7890   24.2110   36.4410 C   0  0  1  0  0  3  0  0  0  0  0  0
   40.5530   23.0920   35.8190 C   0  0  0  0  0  3  0  0  0  0  0  0
   40.1920   22.9430   34.7700 H   0  0  0  0  0  0  0  0  0  0  0  0
   40.3500   21.8530   36.6630 C   0  0  0  0  0  3  0  0  0  0  0  0
   41.3160   21.4080   36.9640 H   0  0  0  0  0  0  0  0  0  0  0  0
   39.5740   22.3410   37.8100 N   0  0  0  0  0  0  0  0  0  0  0  0
   39.5490   21.8730   38.7640 H   0  0  0  0  0  0  0  0  0  0  0  0
  1  2  1  0  0  0  0
  1  7  1  0  0  0  0
  3  2  2  0  0  0  0
  4  5  2  0  0  0  0
  4  3  1  0  0  0  0
  5  6  1  0  0  0  0
  6  1  2  0  0  0  0
  8  3  1  0  0  0  0
  9 10  1  0  0  0  0
 10 11  1  0  0  0  0
 11 12  2  0  0  0  0
 11  5  1  0  0  0  0
 12 16  1  0  0  0  0
 13 17  1  0  0  0  0
 13 12  1  0  0  0  0
 14 13  2  0  0  0  0
 15 14  1  0  0  0  0
 15 10  2  0  0  0  0
 18 14  1  0  0  0  0
 19 15  1  0  0  0  0
 21 27  1  0  0  0  0
 21 20  2  0  0  0  0
 22  2  1  6  0  0  0
 22 21  1  0  0  0  0
 23 22  1  0  0  0  0
 23 25  1  0  0  0  0
 24 23  1  0  0  0  0
 25 26  1  0  0  0  0
 25 27  1  0  0  0  0
 27 28  1  0  0  0  0
M  END
>  <minimizedAffinity>
-4.9862318

$$$$

 OpenBabel03262523583D

 28 30  0  0  1  0  0  0  0  0999 V2000
   35.7840   25.7860   31.1680 C   0  0  0  0  0  0  0  0  0  0  0  0
   36.6430   26.3570   32.1360 C   0  0  0  0  0  0  0  0  0  0  0  0
   37.3480   25.4680   32.9670 C   0  0  0  0  0  0  0  0  0  0  0  0
   37.1770   24.1210   32.8060 N   0  0  0  0  0  0  0  0  0  0  0  0
   36.3320   23.6360   31.8500 C   0  0  0  0  0  0  0  0  0  0  0  0
   35.6450   24.4590   31.0430 N   0  0  0  0  0  0  0  0  0  0  0  0
   35.2100   26.4040   30.4970 H   0  0  0  0  0  0  0  0  0  0  0  0
   38.0070   25.8800   33.7100 H   0  0  0  0  0  0  0  0  0  0  0  0
   38.6460   22.2560   30.2400 Br  0  0  0  0  0  0  0  0  0  0  0  0
   37.0830   21.4420   30.9870 C   0  0  0  0  0  0  0  0  0  0  0  0
   36.1460   22.1950   31.6760 C   0  0  0  0  0  0  0  0  0  0  0  0
   35.0580   21.5280   32.1760 C   0  0  0  0  0  0  0  0  0  0  0  0
   34.8390   20.1770   32.0400 C   0  0  0  0  0  0  0  0  0  0  0  0
   35.7850   19.4590   31.3510 C   0  0  0  0  0  0  0  0  0  0  0  0
   36.9000   20.0950   30.8290 C   0  0  0  0  0  0  0  0  0  0  0  0
   34.3090   22.1010   32.7230 H   0  0  0  0  0  0  0  0  0  0  0  0
   33.9770   19.6600   32.4380 H   0  0  0  0  0  0  0  0  0  0  0  0
   35.6730   18.3990   31.2090 H   0  0  0  0  0  0  0  0  0  0  0  0
   37.6270   19.4810   30.2880 H   0  0  0  0  0  0  0  0  0  0  0  0
   38.3530   28.0080   30.2940 O   0  0  0  0  0  0  0  0  0  0  0  0
   37.4710   28.4490   31.1070 C   0  0  0  0  0  0  0  0  0  0  0  0
   36.7630   27.8300   32.2350 C   0  0  1  0  0  3  0  0  0  0  0  0
   35.4460   28.5290   32.2530 C   0  0  0  0  0  3  0  0  0  0  0  0
   34.6580   27.8320   31.8720 H   0  0  0  0  0  0  0  0  0  0  0  0
   35.5580   29.7720   31.3980 C   0  0  0  0  0  3  0  0  0  0  0  0
   35.2490   30.6750   31.9560 H   0  0  0  0  0  0  0  0  0  0  0  0
   36.9770   29.8030   31.0190 N   0  0  0  0  0  0  0  0  0  0  0  0
   37.5060   30.6810   30.7370 H   0  0  0  0  0  0  0  0  0  0  0  0
  1  2  1  0  0  0  0
  2  3  2  0  0  0  0
  3  8  1  0  0  0  0
  4  3  1  0  0  0  0
  5  4  2  0  0  0  0
  6  1  2  0  0  0  0
  6  5  1  0  0  0  0
  7  1  1  0  0  0  0
  9 10  1  0  0  0  0
 10 11  1  0  0  0  0
 11  5  1  0  0  0  0
 11 12  2  0  0  0  0
 12 16  1  0  0  0  0
 13 12  1  0  0  0  0
 13 17  1  0  0  0  0
 14 13  2  0  0  0  0
 15 10  2  0  0  0  0
 15 14  1  0  0  0  0
 18 14  1  0  0  0  0
 19 15  1  0  0  0  0
 20 21  2  0  0  0  0
 21 22  1  0  0  0  0
 22  2  1  6  0  0  0
 22 23  1  0  0  0  0
 24 23  1  0  0  0  0
 25 26  1  0  0  0  0
 25 23  1  0  0  0  0
 27 21  1  0  0  0  0
 27 25  1  0  0  0  0
 28 27  1  0  0  0  0
M  END
>  <minimizedAffinity>
-4.97889376

$$$$
