
 OpenBabel03272510283D

 45 49  0  0  1  0  0  0  0  0999 V2000
   35.1610   29.7930   32.4320 O   0  0  0  0  0  0  0  0  0  0  0  0
   38.3010   24.9320   33.6110 C   0  0  0  0  0  0  0  0  0  0  0  0
   38.0380   25.3300   34.9200 C   0  0  0  0  0  0  0  0  0  0  0  0
   37.2930   26.4770   35.1850 C   0  0  0  0  0  0  0  0  0  0  0  0
   36.8350   27.1870   34.0850 C   0  0  0  0  0  0  0  0  0  0  0  0
   36.0950   28.3330   34.0900 N   0  0  0  0  0  0  0  0  0  0  0  0
   35.8950   28.6520   32.7960 C   0  0  0  0  0  0  0  0  0  0  0  0
   36.4700   27.7690   32.0080 N   0  0  0  0  0  0  0  0  0  0  0  0
   37.0750   26.8250   32.7680 C   0  0  0  0  0  0  0  0  0  0  0  0
   37.8280   25.6670   32.5320 C   0  0  0  0  0  0  0  0  0  0  0  0
   38.8740   24.0500   33.3610 H   0  0  0  0  0  0  0  0  0  0  0  0
   37.0970   26.7720   36.1870 H   0  0  0  0  0  0  0  0  0  0  0  0
   35.7490   28.8630   34.9300 H   0  0  0  0  0  0  0  0  0  0  0  0
   38.0040   25.3990   31.5070 H   0  0  0  0  0  0  0  0  0  0  0  0
   40.1530   22.9430   36.8880 C   0  0  0  0  0  0  0  0  0  0  0  0
   39.7180   23.7030   35.8180 C   0  0  0  0  0  0  0  0  0  0  0  0
   38.5880   24.4990   35.9700 C   0  0  0  0  0  0  0  0  0  0  0  0
   37.9680   24.4840   37.1800 N   0  0  0  0  0  0  0  0  0  0  0  0
   38.3950   23.7400   38.2200 C   0  0  0  0  0  0  0  0  0  0  0  0
   39.4780   22.9810   38.0660 N   0  0  0  0  0  0  0  0  0  0  0  0
   41.0400   22.3490   36.6920 H   0  0  0  0  0  0  0  0  0  0  0  0
   40.2190   23.7130   34.8480 H   0  0  0  0  0  0  0  0  0  0  0  0
   37.8600   23.7690   39.1620 H   0  0  0  0  0  0  0  0  0  0  0  0
   34.4120   31.5690   33.6520 N   0  0  0  0  0  0  0  0  0  0  0  0
   34.1300   30.1740   33.3460 C   0  0  1  0  0  0  0  0  0  0  0  0
   32.8050   30.0610   32.7470 C   0  0  0  0  0  0  0  0  0  0  0  0
   31.8460   30.4520   33.6990 O   0  0  0  0  0  0  0  0  0  0  0  0
   32.0380   31.6840   34.2480 C   0  0  0  0  0  0  0  0  0  0  0  0
   33.4620   31.9490   34.6700 C   0  0  1  0  0  0  0  0  0  0  0  0
   35.3660   31.6190   34.0250 H   0  0  0  0  0  0  0  0  0  0  0  0
   34.1980   29.4990   34.2090 H   0  0  0  0  0  0  0  0  0  0  0  0
   32.5880   28.9550   32.6230 H   0  0  0  0  0  0  0  0  0  0  0  0
   32.4930   30.5210   31.8520 H   0  0  0  0  0  0  0  0  0  0  0  0
   31.3660   31.8010   35.0900 H   0  0  0  0  0  0  0  0  0  0  0  0
   31.7710   32.4590   33.4990 H   0  0  0  0  0  0  0  0  0  0  0  0
   33.5620   33.0510   34.7760 H   0  0  0  0  0  0  0  0  0  0  0  0
   36.2900   30.8950   35.9860 O   0  0  0  0  0  0  0  0  0  0  0  0
   35.3150   31.6690   36.1430 C   0  0  0  0  0  0  0  0  0  0  0  0
   33.8500   31.3550   35.9870 C   0  0  1  0  0  3  0  0  0  0  0  0
   33.3160   32.1370   37.1540 C   0  0  0  0  0  3  0  0  0  0  0  0
   33.7010   31.6160   38.0700 H   0  0  0  0  0  0  0  0  0  0  0  0
   34.0800   33.4230   37.0600 C   0  0  0  0  0  3  0  0  0  0  0  0
   33.5650   34.1770   36.4260 H   0  0  0  0  0  0  0  0  0  0  0  0
   35.3750   33.0450   36.5090 N   0  0  0  0  0  0  0  0  0  0  0  0
   36.1850   33.6930   36.4130 H   0  0  0  0  0  0  0  0  0  0  0  0
  1  7  1  0  0  0  0
  1 25  1  0  0  0  0
  2  3  1  0  0  0  0
  3  4  2  0  0  0  0
  3 17  1  0  0  0  0
  4 12  1  0  0  0  0
  5  6  1  0  0  0  0
  5  4  1  0  0  0  0
  6 13  1  0  0  0  0
  7  6  1  0  0  0  0
  8  9  1  0  0  0  0
  8  7  2  0  0  0  0
  9  5  2  0  0  0  0
 10  9  1  0  0  0  0
 10  2  2  0  0  0  0
 11  2  1  0  0  0  0
 14 10  1  0  0  0  0
 15 20  1  0  0  0  0
 16 17  1  0  0  0  0
 16 15  2  0  0  0  0
 17 18  2  0  0  0  0
 18 19  1  0  0  0  0
 19 23  1  0  0  0  0
 20 19  2  0  0  0  0
 21 15  1  0  0  0  0
 22 16  1  0  0  0  0
 24 30  1  0  0  0  0
 24 29  1  0  0  0  0
 25 24  1  0  0  0  0
 25 31  1  1  0  0  0
 26 25  1  0  0  0  0
 26 27  1  0  0  0  0
 27 28  1  0  0  0  0
 28 29  1  0  0  0  0
 28 34  1  0  0  0  0
 29 36  1  1  0  0  0
 29 39  1  0  0  0  0
 32 26  1  0  0  0  0
 33 26  1  0  0  0  0
 35 28  1  0  0  0  0
 37 38  2  0  0  0  0
 38 44  1  0  0  0  0
 39 38  1  1  0  0  0
 39 40  1  0  0  0  0
 40 41  1  0  0  0  0
 42 40  1  0  0  0  0
 43 42  1  0  0  0  0
 44 42  1  0  0  0  0
 45 44  1  0  0  0  0
M  END
>  <minimizedAffinity>
-6.33673143

$$$$

 OpenBabel03272510283D

 45 49  0  0  1  0  0  0  0  0999 V2000
   35.7940   28.2780   31.4090 O   0  0  0  0  0  0  0  0  0  0  0  0
   37.4740   22.8620   33.0590 C   0  0  0  0  0  0  0  0  0  0  0  0
   36.4640   22.5020   32.1690 C   0  0  0  0  0  0  0  0  0  0  0  0
   35.7310   23.4700   31.4860 C   0  0  0  0  0  0  0  0  0  0  0  0
   36.0620   24.7920   31.7410 C   0  0  0  0  0  0  0  0  0  0  0  0
   35.4910   25.9070   31.2010 N   0  0  0  0  0  0  0  0  0  0  0  0
   36.1350   26.9580   31.7480 C   0  0  0  0  0  0  0  0  0  0  0  0
   37.0610   26.5460   32.5850 N   0  0  0  0  0  0  0  0  0  0  0  0
   37.0590   25.1910   32.6180 C   0  0  0  0  0  0  0  0  0  0  0  0
   37.7800   24.1960   33.2910 C   0  0  0  0  0  0  0  0  0  0  0  0
   38.0670   22.1430   33.6080 H   0  0  0  0  0  0  0  0  0  0  0  0
   34.9630   23.1860   30.8090 H   0  0  0  0  0  0  0  0  0  0  0  0
   34.7050   25.9440   30.5020 H   0  0  0  0  0  0  0  0  0  0  0  0
   38.5490   24.5210   33.9660 H   0  0  0  0  0  0  0  0  0  0  0  0
   35.4910   18.9290   32.7420 C   0  0  0  0  0  0  0  0  0  0  0  0
   35.6770   20.2740   33.0010 C   0  0  0  0  0  0  0  0  0  0  0  0
   36.2190   21.0840   32.0090 C   0  0  0  0  0  0  0  0  0  0  0  0
   36.5400   20.4970   30.8260 N   0  0  0  0  0  0  0  0  0  0  0  0
   36.3570   19.1840   30.5780 C   0  0  0  0  0  0  0  0  0  0  0  0
   35.8370   18.4160   31.5330 N   0  0  0  0  0  0  0  0  0  0  0  0
   35.0630   18.3630   33.5640 H   0  0  0  0  0  0  0  0  0  0  0  0
   35.4170   20.7410   33.9530 H   0  0  0  0  0  0  0  0  0  0  0  0
   36.6320   18.7720   29.6140 H   0  0  0  0  0  0  0  0  0  0  0  0
   36.8040   28.2150   29.3650 N   0  0  0  0  0  0  0  0  0  0  0  0
   36.7530   28.9710   30.6070 C   0  0  1  0  0  0  0  0  0  0  0  0
   36.3400   30.3420   30.3320 C   0  0  0  0  0  0  0  0  0  0  0  0
   37.3270   30.9590   29.5420 O   0  0  0  0  0  0  0  0  0  0  0  0
   37.6520   30.2990   28.3950 C   0  0  0  0  0  0  0  0  0  0  0  0
   37.8570   28.8160   28.5810 C   0  0  1  0  0  0  0  0  0  0  0  0
   37.0490   27.2470   29.5990 H   0  0  0  0  0  0  0  0  0  0  0  0
   37.6970   28.9810   31.1700 H   0  0  0  0  0  0  0  0  0  0  0  0
   36.4150   30.9160   31.3070 H   0  0  0  0  0  0  0  0  0  0  0  0
   35.4280   30.6330   29.8920 H   0  0  0  0  0  0  0  0  0  0  0  0
   38.5390   30.7520   27.9690 H   0  0  0  0  0  0  0  0  0  0  0  0
   36.8290   30.4240   27.6600 H   0  0  0  0  0  0  0  0  0  0  0  0
   37.7780   28.3550   27.5720 H   0  0  0  0  0  0  0  0  0  0  0  0
   39.0860   26.0920   29.9630 O   0  0  0  0  0  0  0  0  0  0  0  0
   39.2330   26.9240   29.0350 C   0  0  0  0  0  0  0  0  0  0  0  0
   39.1940   28.4280   29.1260 C   0  0  1  0  0  3  0  0  0  0  0  0
   40.3190   28.7510   28.1830 C   0  0  0  0  0  3  0  0  0  0  0  0
   41.2520   28.3830   28.6860 H   0  0  0  0  0  0  0  0  0  0  0  0
   40.0680   27.8090   27.0440 C   0  0  0  0  0  3  0  0  0  0  0  0
   39.4030   28.2490   26.2690 H   0  0  0  0  0  0  0  0  0  0  0  0
   39.4750   26.6300   27.6620 N   0  0  0  0  0  0  0  0  0  0  0  0
   39.2750   25.7410   27.1580 H   0  0  0  0  0  0  0  0  0  0  0  0
  1  7  1  0  0  0  0
  2 10  1  0  0  0  0
  2 11  1  0  0  0  0
  3  2  2  0  0  0  0
  4  5  2  0  0  0  0
  4  3  1  0  0  0  0
  5  9  1  0  0  0  0
  6  5  1  0  0  0  0
  6  7  1  0  0  0  0
  7  8  2  0  0  0  0
  8  9  1  0  0  0  0
  9 10  2  0  0  0  0
 10 14  1  0  0  0  0
 12  4  1  0  0  0  0
 13  6  1  0  0  0  0
 15 16  1  0  0  0  0
 15 21  1  0  0  0  0
 16 22  1  0  0  0  0
 17  3  1  0  0  0  0
 17 16  2  0  0  0  0
 18 17  1  0  0  0  0
 19 18  2  0  0  0  0
 19 20  1  0  0  0  0
 20 15  2  0  0  0  0
 23 19  1  0  0  0  0
 24 30  1  0  0  0  0
 24 25  1  0  0  0  0
 25 31  1  1  0  0  0
 25  1  1  0  0  0  0
 26 25  1  0  0  0  0
 26 32  1  0  0  0  0
 27 26  1  0  0  0  0
 28 29  1  0  0  0  0
 28 27  1  0  0  0  0
 29 36  1  6  0  0  0
 29 39  1  0  0  0  0
 29 24  1  0  0  0  0
 33 26  1  0  0  0  0
 34 28  1  0  0  0  0
 35 28  1  0  0  0  0
 38 39  1  0  0  0  0
 38 37  2  0  0  0  0
 39 40  1  6  0  0  0
 40 41  1  0  0  0  0
 42 44  1  0  0  0  0
 42 40  1  0  0  0  0
 43 42  1  0  0  0  0
 44 38  1  0  0  0  0
 45 44  1  0  0  0  0
M  END
>  <minimizedAffinity>
-6.25191879

$$$$

 OpenBabel03272510283D

 45 49  0  0  1  0  0  0  0  0999 V2000
   35.8320   28.2060   31.4340 O   0  0  0  0  0  0  0  0  0  0  0  0
   37.9160   23.1230   33.6020 C   0  0  0  0  0  0  0  0  0  0  0  0
   38.3690   23.9760   34.6060 C   0  0  0  0  0  0  0  0  0  0  0  0
   38.1170   25.3450   34.5520 C   0  0  0  0  0  0  0  0  0  0  0  0
   37.3990   25.8000   33.4570 C   0  0  0  0  0  0  0  0  0  0  0  0
   37.0340   27.0860   33.1830 N   0  0  0  0  0  0  0  0  0  0  0  0
   36.3590   27.0410   32.0170 C   0  0  0  0  0  0  0  0  0  0  0  0
   36.2930   25.8060   31.5690 N   0  0  0  0  0  0  0  0  0  0  0  0
   36.9310   24.9850   32.4370 C   0  0  0  0  0  0  0  0  0  0  0  0
   37.2000   23.6120   32.5180 C   0  0  0  0  0  0  0  0  0  0  0  0
   38.0900   22.0550   33.6050 H   0  0  0  0  0  0  0  0  0  0  0  0
   38.4660   25.9880   35.3230 H   0  0  0  0  0  0  0  0  0  0  0  0
   37.2370   27.9420   33.7600 H   0  0  0  0  0  0  0  0  0  0  0  0
   36.8300   22.9930   31.7220 H   0  0  0  0  0  0  0  0  0  0  0  0
   39.6170   22.9290   37.9810 C   0  0  0  0  0  0  0  0  0  0  0  0
   38.8330   23.5590   37.0320 C   0  0  0  0  0  0  0  0  0  0  0  0
   39.1170   23.3650   35.6850 C   0  0  0  0  0  0  0  0  0  0  0  0
   40.1630   22.5550   35.3750 N   0  0  0  0  0  0  0  0  0  0  0  0
   40.9250   21.9430   36.3030 C   0  0  0  0  0  0  0  0  0  0  0  0
   40.6470   22.1340   37.5910 N   0  0  0  0  0  0  0  0  0  0  0  0
   39.3340   23.1300   39.0100 H   0  0  0  0  0  0  0  0  0  0  0  0
   37.9930   24.2090   37.2860 H   0  0  0  0  0  0  0  0  0  0  0  0
   41.7480   21.3080   35.9960 H   0  0  0  0  0  0  0  0  0  0  0  0
   36.8130   28.2190   29.3750 N   0  0  0  0  0  0  0  0  0  0  0  0
   36.7460   28.9540   30.6290 C   0  0  1  0  0  0  0  0  0  0  0  0
   36.2670   30.3090   30.3800 C   0  0  0  0  0  0  0  0  0  0  0  0
   37.2120   30.9810   29.5850 O   0  0  0  0  0  0  0  0  0  0  0  0
   37.5500   30.3530   28.4230 C   0  0  0  0  0  0  0  0  0  0  0  0
   37.8250   28.8790   28.5850 C   0  0  1  0  0  0  0  0  0  0  0  0
   37.1060   27.2600   29.5910 H   0  0  0  0  0  0  0  0  0  0  0  0
   37.6970   29.0000   31.1780 H   0  0  0  0  0  0  0  0  0  0  0  0
   36.3300   30.8710   31.3620 H   0  0  0  0  0  0  0  0  0  0  0  0
   35.3350   30.5630   29.9580 H   0  0  0  0  0  0  0  0  0  0  0  0
   38.4080   30.8530   27.9920 H   0  0  0  0  0  0  0  0  0  0  0  0
   36.7100   30.4500   27.7030 H   0  0  0  0  0  0  0  0  0  0  0  0
   37.7520   28.4290   27.5700 H   0  0  0  0  0  0  0  0  0  0  0  0
   39.1640   26.2410   30.0310 O   0  0  0  0  0  0  0  0  0  0  0  0
   39.2630   27.0410   29.0690 C   0  0  0  0  0  0  0  0  0  0  0  0
   39.1870   28.5450   29.1050 C   0  0  1  0  0  3  0  0  0  0  0  0
   40.2760   28.8590   28.1170 C   0  0  0  0  0  3  0  0  0  0  0  0
   41.2310   28.5350   28.6060 H   0  0  0  0  0  0  0  0  0  0  0  0
   40.0170   27.8690   27.0220 C   0  0  0  0  0  3  0  0  0  0  0  0
   39.3180   28.2620   26.2510 H   0  0  0  0  0  0  0  0  0  0  0  0
   39.4730   26.7000   27.7010 N   0  0  0  0  0  0  0  0  0  0  0  0
   39.2810   25.7870   27.2380 H   0  0  0  0  0  0  0  0  0  0  0  0
  1  7  1  0  0  0  0
  2 11  1  0  0  0  0
  2  3  1  0  0  0  0
  3 17  1  0  0  0  0
  4  3  2  0  0  0  0
  4 12  1  0  0  0  0
  5  4  1  0  0  0  0
  6  5  1  0  0  0  0
  6 13  1  0  0  0  0
  7  6  1  0  0  0  0
  8  7  2  0  0  0  0
  8  9  1  0  0  0  0
  9 10  1  0  0  0  0
  9  5  2  0  0  0  0
 10  2  2  0  0  0  0
 14 10  1  0  0  0  0
 15 21  1  0  0  0  0
 16 22  1  0  0  0  0
 16 15  2  0  0  0  0
 17 16  1  0  0  0  0
 18 17  2  0  0  0  0
 18 19  1  0  0  0  0
 19 20  2  0  0  0  0
 20 15  1  0  0  0  0
 23 19  1  0  0  0  0
 24 30  1  0  0  0  0
 24 25  1  0  0  0  0
 25 31  1  1  0  0  0
 25  1  1  0  0  0  0
 26 25  1  0  0  0  0
 26 32  1  0  0  0  0
 27 26  1  0  0  0  0
 28 29  1  0  0  0  0
 28 27  1  0  0  0  0
 29 36  1  6  0  0  0
 29 39  1  0  0  0  0
 29 24  1  0  0  0  0
 33 26  1  0  0  0  0
 34 28  1  0  0  0  0
 35 28  1  0  0  0  0
 38 39  1  0  0  0  0
 38 37  2  0  0  0  0
 39 40  1  6  0  0  0
 40 41  1  0  0  0  0
 42 44  1  0  0  0  0
 42 40  1  0  0  0  0
 43 42  1  0  0  0  0
 44 38  1  0  0  0  0
 45 44  1  0  0  0  0
M  END
>  <minimizedAffinity>
-6.06573772

$$$$

 OpenBabel03272510283D

 45 49  0  0  1  0  0  0  0  0999 V2000
   38.1630   24.1420   33.0180 O   0  0  0  0  0  0  0  0  0  0  0  0
   35.8740   29.5810   32.7920 C   0  0  0  0  0  0  0  0  0  0  0  0
   35.8440   29.4030   34.1730 C   0  0  0  0  0  0  0  0  0  0  0  0
   36.3020   28.2220   34.7530 C   0  0  0  0  0  0  0  0  0  0  0  0
   36.7820   27.2510   33.8880 C   0  0  0  0  0  0  0  0  0  0  0  0
   37.2770   26.0230   34.2150 N   0  0  0  0  0  0  0  0  0  0  0  0
   37.6140   25.4350   33.0500 C   0  0  0  0  0  0  0  0  0  0  0  0
   37.3530   26.2330   32.0380 N   0  0  0  0  0  0  0  0  0  0  0  0
   36.8290   27.3900   32.5090 C   0  0  0  0  0  0  0  0  0  0  0  0
   36.3620   28.5880   31.9530 C   0  0  0  0  0  0  0  0  0  0  0  0
   35.5290   30.4810   32.3010 H   0  0  0  0  0  0  0  0  0  0  0  0
   36.2750   28.0950   35.8080 H   0  0  0  0  0  0  0  0  0  0  0  0
   37.3760   25.6130   35.1800 H   0  0  0  0  0  0  0  0  0  0  0  0
   36.4050   28.6810   30.8840 H   0  0  0  0  0  0  0  0  0  0  0  0
   35.4660   32.4030   36.3860 C   0  0  0  0  0  0  0  0  0  0  0  0
   36.0860   31.3980   35.6680 C   0  0  0  0  0  0  0  0  0  0  0  0
   35.3050   30.4960   34.9540 C   0  0  0  0  0  0  0  0  0  0  0  0
   33.9560   30.6570   35.0050 N   0  0  0  0  0  0  0  0  0  0  0  0
   33.3550   31.6380   35.7080 C   0  0  0  0  0  0  0  0  0  0  0  0
   34.1100   32.4980   36.3880 N   0  0  0  0  0  0  0  0  0  0  0  0
   36.1410   33.0670   36.9160 H   0  0  0  0  0  0  0  0  0  0  0  0
   37.1710   31.2730   35.6290 H   0  0  0  0  0  0  0  0  0  0  0  0
   32.2740   31.7170   35.7110 H   0  0  0  0  0  0  0  0  0  0  0  0
   39.5990   22.6870   34.0310 N   0  0  0  0  0  0  0  0  0  0  0  0
   39.5080   24.0360   33.4920 C   0  0  1  0  0  0  0  0  0  0  0  0
   40.4770   24.2030   32.4150 C   0  0  0  0  0  0  0  0  0  0  0  0
   41.7710   24.0850   32.9530 O   0  0  0  0  0  0  0  0  0  0  0  0
   42.0080   22.9450   33.6610 C   0  0  0  0  0  0  0  0  0  0  0  0
   40.9080   22.5910   34.6310 C   0  0  1  0  0  0  0  0  0  0  0  0
   38.8740   22.5890   34.7500 H   0  0  0  0  0  0  0  0  0  0  0  0
   39.6510   24.8310   34.2370 H   0  0  0  0  0  0  0  0  0  0  0  0
   40.4420   25.2910   32.0990 H   0  0  0  0  0  0  0  0  0  0  0  0
   40.5080   23.6410   31.5240 H   0  0  0  0  0  0  0  0  0  0  0  0
   42.9530   23.0460   34.1810 H   0  0  0  0  0  0  0  0  0  0  0  0
   42.1050   22.0940   32.9540 H   0  0  0  0  0  0  0  0  0  0  0  0
   41.0430   21.5160   34.8840 H   0  0  0  0  0  0  0  0  0  0  0  0
   38.6900   23.2660   36.9690 O   0  0  0  0  0  0  0  0  0  0  0  0
   39.8180   22.7640   36.7430 C   0  0  0  0  0  0  0  0  0  0  0  0
   40.9410   23.3430   35.9240 C   0  0  1  0  0  3  0  0  0  0  0  0
   42.0990   22.9440   36.7960 C   0  0  0  0  0  3  0  0  0  0  0  0
   41.9910   23.5460   37.7360 H   0  0  0  0  0  0  0  0  0  0  0  0
   41.7550   21.5330   37.1680 C   0  0  0  0  0  3  0  0  0  0  0  0
   42.1550   20.7930   36.4400 H   0  0  0  0  0  0  0  0  0  0  0  0
   40.2980   21.5100   37.2200 N   0  0  0  0  0  0  0  0  0  0  0  0
   39.7360   20.6990   37.5530 H   0  0  0  0  0  0  0  0  0  0  0  0
  1  7  1  0  0  0  0
  1 25  1  0  0  0  0
  2  3  1  0  0  0  0
  3  4  2  0  0  0  0
  3 17  1  0  0  0  0
  4 12  1  0  0  0  0
  5  6  1  0  0  0  0
  5  4  1  0  0  0  0
  6 13  1  0  0  0  0
  7  6  1  0  0  0  0
  8  9  1  0  0  0  0
  8  7  2  0  0  0  0
  9  5  2  0  0  0  0
 10  9  1  0  0  0  0
 10  2  2  0  0  0  0
 11  2  1  0  0  0  0
 14 10  1  0  0  0  0
 15 20  1  0  0  0  0
 15 21  1  0  0  0  0
 16 15  2  0  0  0  0
 17 18  2  0  0  0  0
 17 16  1  0  0  0  0
 18 19  1  0  0  0  0
 19 23  1  0  0  0  0
 19 20  2  0  0  0  0
 22 16  1  0  0  0  0
 24 29  1  0  0  0  0
 24 30  1  0  0  0  0
 25 24  1  0  0  0  0
 25 31  1  1  0  0  0
 26 27  1  0  0  0  0
 26 25  1  0  0  0  0
 27 28  1  0  0  0  0
 28 34  1  0  0  0  0
 28 29  1  0  0  0  0
 29 36  1  1  0  0  0
 29 39  1  0  0  0  0
 32 26  1  0  0  0  0
 33 26  1  0  0  0  0
 35 28  1  0  0  0  0
 38 37  2  0  0  0  0
 38 44  1  0  0  0  0
 39 38  1  1  0  0  0
 39 40  1  0  0  0  0
 40 42  1  0  0  0  0
 40 41  1  0  0  0  0
 42 44  1  0  0  0  0
 43 42  1  0  0  0  0
 44 45  1  0  0  0  0
M  END
>  <minimizedAffinity>
-6.01715994

$$$$

 OpenBabel03272510283D

 45 49  0  0  1  0  0  0  0  0999 V2000
   38.9130   25.2910   31.8810 O   0  0  0  0  0  0  0  0  0  0  0  0
   35.5540   30.0660   32.7690 C   0  0  0  0  0  0  0  0  0  0  0  0
   35.6760   29.6510   34.0940 C   0  0  0  0  0  0  0  0  0  0  0  0
   36.4130   28.5150   34.4240 C   0  0  0  0  0  0  0  0  0  0  0  0
   37.0060   27.8340   33.3730 C   0  0  0  0  0  0  0  0  0  0  0  0
   37.7670   26.7030   33.4440 N   0  0  0  0  0  0  0  0  0  0  0  0
   38.1170   26.4100   32.1770 C   0  0  0  0  0  0  0  0  0  0  0  0
   37.6150   27.2940   31.3420 N   0  0  0  0  0  0  0  0  0  0  0  0
   36.9080   28.2130   32.0430 C   0  0  0  0  0  0  0  0  0  0  0  0
   36.1610   29.3600   31.7400 C   0  0  0  0  0  0  0  0  0  0  0  0
   34.9930   30.9410   32.4690 H   0  0  0  0  0  0  0  0  0  0  0  0
   36.5010   28.2070   35.4370 H   0  0  0  0  0  0  0  0  0  0  0  0
   38.0280   26.1660   34.3110 H   0  0  0  0  0  0  0  0  0  0  0  0
   36.0950   29.6410   30.7060 H   0  0  0  0  0  0  0  0  0  0  0  0
   34.8830   32.0690   36.8440 C   0  0  0  0  0  0  0  0  0  0  0  0
   35.6330   31.3590   35.9260 C   0  0  0  0  0  0  0  0  0  0  0  0
   34.9940   30.4530   35.0870 C   0  0  0  0  0  0  0  0  0  0  0  0
   33.6480   30.3160   35.2220 N   0  0  0  0  0  0  0  0  0  0  0  0
   32.9200   31.0100   36.1200 C   0  0  0  0  0  0  0  0  0  0  0  0
   33.5410   31.8760   36.9190 N   0  0  0  0  0  0  0  0  0  0  0  0
   35.4530   32.7570   37.4620 H   0  0  0  0  0  0  0  0  0  0  0  0
   36.7140   31.4730   35.8210 H   0  0  0  0  0  0  0  0  0  0  0  0
   31.8490   30.8590   36.1810 H   0  0  0  0  0  0  0  0  0  0  0  0
   38.2910   23.1130   31.6090 N   0  0  0  0  0  0  0  0  0  0  0  0
   38.6060   24.1080   32.6240 C   0  0  1  0  0  0  0  0  0  0  0  0
   39.7420   23.6570   33.4190 C   0  0  0  0  0  0  0  0  0  0  0  0
   39.3680   22.4940   34.1170 O   0  0  0  0  0  0  0  0  0  0  0  0
   38.8700   21.4870   33.3480 C   0  0  0  0  0  0  0  0  0  0  0  0
   37.8540   21.9410   32.3300 C   0  0  1  0  0  0  0  0  0  0  0  0
   37.5220   23.4820   31.0390 H   0  0  0  0  0  0  0  0  0  0  0  0
   37.7690   24.3550   33.2920 H   0  0  0  0  0  0  0  0  0  0  0  0
   39.8840   24.4090   34.2550 H   0  0  0  0  0  0  0  0  0  0  0  0
   40.7070   23.4460   33.0500 H   0  0  0  0  0  0  0  0  0  0  0  0
   38.4440   20.7290   33.9950 H   0  0  0  0  0  0  0  0  0  0  0  0
   39.7040   21.0140   32.7870 H   0  0  0  0  0  0  0  0  0  0  0  0
   37.7820   21.1320   31.5700 H   0  0  0  0  0  0  0  0  0  0  0  0
   35.3040   23.8420   31.4760 O   0  0  0  0  0  0  0  0  0  0  0  0
   35.6720   22.6630   31.6990 C   0  0  0  0  0  0  0  0  0  0  0  0
   36.4730   22.1490   32.8670 C   0  0  1  0  0  3  0  0  0  0  0  0
   35.7440   20.8560   33.1030 C   0  0  0  0  0  3  0  0  0  0  0  0
   34.7230   21.1460   33.4660 H   0  0  0  0  0  0  0  0  0  0  0  0
   35.5520   20.3320   31.7110 C   0  0  0  0  0  3  0  0  0  0  0  0
   36.4010   19.6960   31.3770 H   0  0  0  0  0  0  0  0  0  0  0  0
   35.4090   21.5240   30.8840 N   0  0  0  0  0  0  0  0  0  0  0  0
   35.1570   21.5110   29.8740 H   0  0  0  0  0  0  0  0  0  0  0  0
  1  7  1  0  0  0  0
  1 25  1  0  0  0  0
  2  3  1  0  0  0  0
  3  4  2  0  0  0  0
  3 17  1  0  0  0  0
  4 12  1  0  0  0  0
  5  6  1  0  0  0  0
  5  4  1  0  0  0  0
  6 13  1  0  0  0  0
  7  6  1  0  0  0  0
  8  9  1  0  0  0  0
  8  7  2  0  0  0  0
  9  5  2  0  0  0  0
 10  9  1  0  0  0  0
 10  2  2  0  0  0  0
 11  2  1  0  0  0  0
 14 10  1  0  0  0  0
 15 20  1  0  0  0  0
 15 21  1  0  0  0  0
 16 15  2  0  0  0  0
 17 18  2  0  0  0  0
 17 16  1  0  0  0  0
 18 19  1  0  0  0  0
 19 23  1  0  0  0  0
 19 20  2  0  0  0  0
 22 16  1  0  0  0  0
 24 29  1  0  0  0  0
 24 25  1  0  0  0  0
 25 31  1  1  0  0  0
 25 26  1  0  0  0  0
 26 27  1  0  0  0  0
 26 32  1  0  0  0  0
 28 34  1  0  0  0  0
 28 27  1  0  0  0  0
 29 36  1  6  0  0  0
 29 39  1  0  0  0  0
 29 28  1  0  0  0  0
 30 24  1  0  0  0  0
 33 26  1  0  0  0  0
 35 28  1  0  0  0  0
 37 38  2  0  0  0  0
 39 38  1  6  0  0  0
 39 40  1  0  0  0  0
 40 41  1  0  0  0  0
 42 40  1  0  0  0  0
 43 42  1  0  0  0  0
 44 38  1  0  0  0  0
 44 42  1  0  0  0  0
 45 44  1  0  0  0  0
M  END
>  <minimizedAffinity>
-5.92732525

$$$$

 OpenBabel03272510283D

 45 49  0  0  1  0  0  0  0  0999 V2000
   36.1910   28.4340   30.4050 O   0  0  0  0  0  0  0  0  0  0  0  0
   37.4950   23.2340   32.8830 C   0  0  0  0  0  0  0  0  0  0  0  0
   36.4880   22.8050   32.0210 C   0  0  0  0  0  0  0  0  0  0  0  0
   35.8330   23.7020   31.1800 C   0  0  0  0  0  0  0  0  0  0  0  0
   36.2380   25.0260   31.2500 C   0  0  0  0  0  0  0  0  0  0  0  0
   35.7490   26.0800   30.5350 N   0  0  0  0  0  0  0  0  0  0  0  0
   36.4420   27.1610   30.9440 C   0  0  0  0  0  0  0  0  0  0  0  0
   37.3200   26.8260   31.8640 N   0  0  0  0  0  0  0  0  0  0  0  0
   37.2340   25.4930   32.0940 C   0  0  0  0  0  0  0  0  0  0  0  0
   37.8750   24.5690   32.9290 C   0  0  0  0  0  0  0  0  0  0  0  0
   38.0280   22.5720   33.5520 H   0  0  0  0  0  0  0  0  0  0  0  0
   35.0670   23.3650   30.5250 H   0  0  0  0  0  0  0  0  0  0  0  0
   34.9860   26.0580   29.8100 H   0  0  0  0  0  0  0  0  0  0  0  0
   38.6460   24.9450   33.5760 H   0  0  0  0  0  0  0  0  0  0  0  0
   35.3970   19.3920   33.1160 C   0  0  0  0  0  0  0  0  0  0  0  0
   35.6700   20.7450   33.1870 C   0  0  0  0  0  0  0  0  0  0  0  0
   36.1610   21.3950   32.0610 C   0  0  0  0  0  0  0  0  0  0  0  0
   36.3450   20.6520   30.9380 N   0  0  0  0  0  0  0  0  0  0  0  0
   36.0780   19.3320   30.8730 C   0  0  0  0  0  0  0  0  0  0  0  0
   35.6080   18.7170   31.9560 N   0  0  0  0  0  0  0  0  0  0  0  0
   35.0170   18.9550   34.0350 H   0  0  0  0  0  0  0  0  0  0  0  0
   35.5200   21.3380   34.0920 H   0  0  0  0  0  0  0  0  0  0  0  0
   36.2450   18.7910   29.9490 H   0  0  0  0  0  0  0  0  0  0  0  0
   35.4680   30.5910   30.5730 N   0  0  0  0  0  0  0  0  0  0  0  0
   35.9480   29.4670   31.3630 C   0  0  1  0  0  0  0  0  0  0  0  0
   34.9310   29.0780   32.3330 C   0  0  0  0  0  0  0  0  0  0  0  0
   34.7440   30.1390   33.2380 O   0  0  0  0  0  0  0  0  0  0  0  0
   34.4550   31.3440   32.6720 C   0  0  0  0  0  0  0  0  0  0  0  0
   35.3320   31.6920   31.4960 C   0  0  1  0  0  0  0  0  0  0  0  0
   36.1840   30.8070   29.8710 H   0  0  0  0  0  0  0  0  0  0  0  0
   36.8960   29.6540   31.8850 H   0  0  0  0  0  0  0  0  0  0  0  0
   35.3860   28.2750   32.9900 H   0  0  0  0  0  0  0  0  0  0  0  0
   33.9560   28.7500   32.1040 H   0  0  0  0  0  0  0  0  0  0  0  0
   34.5200   32.1130   33.4330 H   0  0  0  0  0  0  0  0  0  0  0  0
   33.4070   31.3280   32.3040 H   0  0  0  0  0  0  0  0  0  0  0  0
   34.8030   32.4920   30.9320 H   0  0  0  0  0  0  0  0  0  0  0  0
   38.1910   32.0190   29.8950 O   0  0  0  0  0  0  0  0  0  0  0  0
   37.3030   32.6290   30.5390 C   0  0  0  0  0  0  0  0  0  0  0  0
   36.6780   32.2380   31.8530 C   0  0  1  0  0  3  0  0  0  0  0  0
   36.6010   33.5960   32.4920 C   0  0  0  0  0  3  0  0  0  0  0  0
   37.6630   33.9050   32.6760 H   0  0  0  0  0  0  0  0  0  0  0  0
   36.1110   34.4570   31.3660 C   0  0  0  0  0  3  0  0  0  0  0  0
   35.0010   34.5060   31.3230 H   0  0  0  0  0  0  0  0  0  0  0  0
   36.6750   33.8530   30.1660 N   0  0  0  0  0  0  0  0  0  0  0  0
   36.6120   34.2700   29.2140 H   0  0  0  0  0  0  0  0  0  0  0  0
  1  7  1  0  0  0  0
  1 25  1  0  0  0  0
  2 10  1  0  0  0  0
  2 11  1  0  0  0  0
  3 17  1  0  0  0  0
  3  2  2  0  0  0  0
  4  5  2  0  0  0  0
  4  3  1  0  0  0  0
  5  9  1  0  0  0  0
  6  7  1  0  0  0  0
  6  5  1  0  0  0  0
  7  8  2  0  0  0  0
  8  9  1  0  0  0  0
  9 10  2  0  0  0  0
 10 14  1  0  0  0  0
 12  4  1  0  0  0  0
 13  6  1  0  0  0  0
 15 16  1  0  0  0  0
 15 21  1  0  0  0  0
 16 22  1  0  0  0  0
 17 16  2  0  0  0  0
 18 17  1  0  0  0  0
 19 18  2  0  0  0  0
 19 20  1  0  0  0  0
 20 15  2  0  0  0  0
 23 19  1  0  0  0  0
 24 25  1  0  0  0  0
 24 29  1  0  0  0  0
 25 31  1  1  0  0  0
 25 26  1  0  0  0  0
 26 32  1  0  0  0  0
 26 27  1  0  0  0  0
 28 27  1  0  0  0  0
 28 34  1  0  0  0  0
 29 36  1  6  0  0  0
 29 39  1  0  0  0  0
 29 28  1  0  0  0  0
 30 24  1  0  0  0  0
 33 26  1  0  0  0  0
 35 28  1  0  0  0  0
 37 38  2  0  0  0  0
 39 38  1  6  0  0  0
 39 40  1  0  0  0  0
 40 41  1  0  0  0  0
 42 40  1  0  0  0  0
 43 42  1  0  0  0  0
 44 38  1  0  0  0  0
 44 42  1  0  0  0  0
 45 44  1  0  0  0  0
M  END
>  <minimizedAffinity>
-5.7588892

$$$$

 OpenBabel03272510283D

 45 49  0  0  1  0  0  0  0  0999 V2000
   38.8540   25.7770   31.7970 O   0  0  0  0  0  0  0  0  0  0  0  0
   34.4030   29.3790   33.2460 C   0  0  0  0  0  0  0  0  0  0  0  0
   35.2300   29.6220   34.3410 C   0  0  0  0  0  0  0  0  0  0  0  0
   36.4600   28.9800   34.4670 C   0  0  0  0  0  0  0  0  0  0  0  0
   36.8070   28.1010   33.4540 C   0  0  0  0  0  0  0  0  0  0  0  0
   37.9490   27.3590   33.3560 N   0  0  0  0  0  0  0  0  0  0  0  0
   37.8400   26.6570   32.2110 C   0  0  0  0  0  0  0  0  0  0  0  0
   36.7010   26.9270   31.6100 N   0  0  0  0  0  0  0  0  0  0  0  0
   36.0140   27.8310   32.3490 C   0  0  0  0  0  0  0  0  0  0  0  0
   34.7820   28.4910   32.2480 C   0  0  0  0  0  0  0  0  0  0  0  0
   33.4420   29.8550   33.1090 H   0  0  0  0  0  0  0  0  0  0  0  0
   37.0840   29.1730   35.3050 H   0  0  0  0  0  0  0  0  0  0  0  0
   38.7520   27.3360   34.0350 H   0  0  0  0  0  0  0  0  0  0  0  0
   34.1790   28.2730   31.3860 H   0  0  0  0  0  0  0  0  0  0  0  0
   34.9520   32.3400   36.9050 C   0  0  0  0  0  0  0  0  0  0  0  0
   35.5290   31.4990   35.9720 C   0  0  0  0  0  0  0  0  0  0  0  0
   34.7340   30.5570   35.3290 C   0  0  0  0  0  0  0  0  0  0  0  0
   33.4170   30.5160   35.6610 N   0  0  0  0  0  0  0  0  0  0  0  0
   32.8580   31.3380   36.5720 C   0  0  0  0  0  0  0  0  0  0  0  0
   33.6260   32.2380   37.1830 N   0  0  0  0  0  0  0  0  0  0  0  0
   35.6360   33.0480   37.3640 H   0  0  0  0  0  0  0  0  0  0  0  0
   36.5880   31.5360   35.7080 H   0  0  0  0  0  0  0  0  0  0  0  0
   31.8000   31.2590   36.7950 H   0  0  0  0  0  0  0  0  0  0  0  0
   37.9300   24.5600   33.4900 N   0  0  0  0  0  0  0  0  0  0  0  0
   39.1430   24.7070   32.7000 C   0  0  1  0  0  0  0  0  0  0  0  0
   39.4250   23.4630   31.9940 C   0  0  0  0  0  0  0  0  0  0  0  0
   39.6970   22.4600   32.9420 O   0  0  0  0  0  0  0  0  0  0  0  0
   38.7410   22.2840   33.8960 C   0  0  0  0  0  0  0  0  0  0  0  0
   38.2330   23.5710   34.4970 C   0  0  1  0  0  0  0  0  0  0  0  0
   37.7340   25.4640   33.9330 H   0  0  0  0  0  0  0  0  0  0  0  0
   40.0280   25.0050   33.2800 H   0  0  0  0  0  0  0  0  0  0  0  0
   40.4260   23.5900   31.4790 H   0  0  0  0  0  0  0  0  0  0  0  0
   38.7920   22.9980   31.2910 H   0  0  0  0  0  0  0  0  0  0  0  0
   39.1330   21.6340   34.6700 H   0  0  0  0  0  0  0  0  0  0  0  0
   37.8670   21.7700   33.4410 H   0  0  0  0  0  0  0  0  0  0  0  0
   37.2620   23.3330   34.9840 H   0  0  0  0  0  0  0  0  0  0  0  0
   38.2590   26.4160   36.1540 O   0  0  0  0  0  0  0  0  0  0  0  0
   38.2430   25.1660   36.2670 C   0  0  0  0  0  0  0  0  0  0  0  0
   39.1110   24.1620   35.5550 C   0  0  1  0  0  3  0  0  0  0  0  0
   39.3600   23.2140   36.6950 C   0  0  0  0  0  3  0  0  0  0  0  0
   39.9920   23.7810   37.4270 H   0  0  0  0  0  0  0  0  0  0  0  0
   38.0040   23.1000   37.3240 C   0  0  0  0  0  3  0  0  0  0  0  0
   37.4000   22.2770   36.8820 H   0  0  0  0  0  0  0  0  0  0  0  0
   37.3860   24.4020   37.1110 N   0  0  0  0  0  0  0  0  0  0  0  0
   36.4730   24.6930   37.5190 H   0  0  0  0  0  0  0  0  0  0  0  0
  1  7  1  0  0  0  0
  1 25  1  0  0  0  0
  2  3  1  0  0  0  0
  3  4  2  0  0  0  0
  3 17  1  0  0  0  0
  4 12  1  0  0  0  0
  5  4  1  0  0  0  0
  6  5  1  0  0  0  0
  6 13  1  0  0  0  0
  7  6  1  0  0  0  0
  8  7  2  0  0  0  0
  8  9  1  0  0  0  0
  9  5  2  0  0  0  0
 10  9  1  0  0  0  0
 10  2  2  0  0  0  0
 11  2  1  0  0  0  0
 14 10  1  0  0  0  0
 15 20  1  0  0  0  0
 15 21  1  0  0  0  0
 16 15  2  0  0  0  0
 17 18  2  0  0  0  0
 17 16  1  0  0  0  0
 18 19  1  0  0  0  0
 19 23  1  0  0  0  0
 19 20  2  0  0  0  0
 22 16  1  0  0  0  0
 24 30  1  0  0  0  0
 24 29  1  0  0  0  0
 25 31  1  1  0  0  0
 25 24  1  0  0  0  0
 26 25  1  0  0  0  0
 26 27  1  0  0  0  0
 27 28  1  0  0  0  0
 28 29  1  0  0  0  0
 28 34  1  0  0  0  0
 29 36  1  1  0  0  0
 29 39  1  0  0  0  0
 32 26  1  0  0  0  0
 33 26  1  0  0  0  0
 35 28  1  0  0  0  0
 37 38  2  0  0  0  0
 38 44  1  0  0  0  0
 39 38  1  1  0  0  0
 39 40  1  0  0  0  0
 40 42  1  0  0  0  0
 40 41  1  0  0  0  0
 43 42  1  0  0  0  0
 44 42  1  0  0  0  0
 44 45  1  0  0  0  0
M  END
>  <minimizedAffinity>
-5.75029945

$$$$

 OpenBabel03272510283D

 45 49  0  0  1  0  0  0  0  0999 V2000
   38.3890   24.6360   32.0650 O   0  0  0  0  0  0  0  0  0  0  0  0
   35.8110   29.9140   32.6860 C   0  0  0  0  0  0  0  0  0  0  0  0
   35.7760   29.5090   34.0190 C   0  0  0  0  0  0  0  0  0  0  0  0
   36.2910   28.2740   34.4070 C   0  0  0  0  0  0  0  0  0  0  0  0
   36.8320   27.4850   33.4040 C   0  0  0  0  0  0  0  0  0  0  0  0
   37.3900   26.2470   33.5360 N   0  0  0  0  0  0  0  0  0  0  0  0
   37.7700   25.8760   32.2970 C   0  0  0  0  0  0  0  0  0  0  0  0
   37.4770   26.8160   31.4240 N   0  0  0  0  0  0  0  0  0  0  0  0
   36.8860   27.8510   32.0680 C   0  0  0  0  0  0  0  0  0  0  0  0
   36.3610   29.0980   31.7060 C   0  0  0  0  0  0  0  0  0  0  0  0
   35.4230   30.8630   32.3430 H   0  0  0  0  0  0  0  0  0  0  0  0
   36.2600   27.9740   35.4260 H   0  0  0  0  0  0  0  0  0  0  0  0
   37.5010   25.6890   34.4220 H   0  0  0  0  0  0  0  0  0  0  0  0
   36.4110   29.3680   30.6680 H   0  0  0  0  0  0  0  0  0  0  0  0
   35.2110   32.1510   36.6150 C   0  0  0  0  0  0  0  0  0  0  0  0
   35.8920   31.3190   35.7460 C   0  0  0  0  0  0  0  0  0  0  0  0
   35.1710   30.4300   34.9580 C   0  0  0  0  0  0  0  0  0  0  0  0
   33.8180   30.4300   35.0900 N   0  0  0  0  0  0  0  0  0  0  0  0
   33.1580   31.2430   35.9390 C   0  0  0  0  0  0  0  0  0  0  0  0
   33.8560   32.0920   36.6900 N   0  0  0  0  0  0  0  0  0  0  0  0
   35.8420   32.8170   37.1960 H   0  0  0  0  0  0  0  0  0  0  0  0
   36.9790   31.3230   35.6440 H   0  0  0  0  0  0  0  0  0  0  0  0
   32.0760   31.1980   36.0000 H   0  0  0  0  0  0  0  0  0  0  0  0
   37.7380   22.4740   32.3910 N   0  0  0  0  0  0  0  0  0  0  0  0
   37.5420   23.6230   31.5180 C   0  0  1  0  0  0  0  0  0  0  0  0
   36.1390   24.0200   31.5370 C   0  0  0  0  0  0  0  0  0  0  0  0
   35.3690   22.9790   30.9890 O   0  0  0  0  0  0  0  0  0  0  0  0
   35.5460   21.7570   31.5650 C   0  0  0  0  0  0  0  0  0  0  0  0
   36.9920   21.3930   31.7930 C   0  0  1  0  0  0  0  0  0  0  0  0
   38.7390   22.2520   32.3920 H   0  0  0  0  0  0  0  0  0  0  0  0
   37.8600   23.4610   30.4790 H   0  0  0  0  0  0  0  0  0  0  0  0
   36.0150   24.8450   30.7700 H   0  0  0  0  0  0  0  0  0  0  0  0
   35.5980   24.3300   32.3870 H   0  0  0  0  0  0  0  0  0  0  0  0
   35.0590   21.0070   30.9530 H   0  0  0  0  0  0  0  0  0  0  0  0
   35.0480   21.7500   32.5580 H   0  0  0  0  0  0  0  0  0  0  0  0
   36.9980   20.5740   32.5450 H   0  0  0  0  0  0  0  0  0  0  0  0
   40.1550   21.1560   30.9100 O   0  0  0  0  0  0  0  0  0  0  0  0
   39.0880   20.5160   31.0750 C   0  0  0  0  0  0  0  0  0  0  0  0
   37.7090   20.8740   30.5870 C   0  0  1  0  0  3  0  0  0  0  0  0
   37.2390   19.5060   30.1790 C   0  0  0  0  0  3  0  0  0  0  0  0
   37.8700   19.2190   29.2980 H   0  0  0  0  0  0  0  0  0  0  0  0
   37.7080   18.6490   31.3170 C   0  0  0  0  0  3  0  0  0  0  0  0
   36.9530   18.5750   32.1300 H   0  0  0  0  0  0  0  0  0  0  0  0
   38.9380   19.2830   31.7740 N   0  0  0  0  0  0  0  0  0  0  0  0
   39.5760   18.8780   32.4910 H   0  0  0  0  0  0  0  0  0  0  0  0
  1  7  1  0  0  0  0
  2  3  1  0  0  0  0
  3  4  2  0  0  0  0
  3 17  1  0  0  0  0
  4 12  1  0  0  0  0
  5  6  1  0  0  0  0
  5  4  1  0  0  0  0
  6 13  1  0  0  0  0
  7  6  1  0  0  0  0
  8  9  1  0  0  0  0
  8  7  2  0  0  0  0
  9  5  2  0  0  0  0
 10  9  1  0  0  0  0
 10  2  2  0  0  0  0
 11  2  1  0  0  0  0
 14 10  1  0  0  0  0
 15 20  1  0  0  0  0
 15 21  1  0  0  0  0
 16 15  2  0  0  0  0
 17 18  2  0  0  0  0
 17 16  1  0  0  0  0
 18 19  1  0  0  0  0
 19 23  1  0  0  0  0
 19 20  2  0  0  0  0
 22 16  1  0  0  0  0
 24 30  1  0  0  0  0
 25 31  1  6  0  0  0
 25 26  1  0  0  0  0
 25  1  1  0  0  0  0
 25 24  1  0  0  0  0
 26 33  1  0  0  0  0
 27 26  1  0  0  0  0
 27 28  1  0  0  0  0
 28 29  1  0  0  0  0
 28 35  1  0  0  0  0
 29 24  1  0  0  0  0
 29 36  1  1  0  0  0
 32 26  1  0  0  0  0
 34 28  1  0  0  0  0
 37 38  2  0  0  0  0
 38 44  1  0  0  0  0
 39 40  1  1  0  0  0
 39 38  1  0  0  0  0
 39 29  1  0  0  0  0
 40 42  1  0  0  0  0
 41 40  1  0  0  0  0
 42 44  1  0  0  0  0
 42 43  1  0  0  0  0
 44 45  1  0  0  0  0
M  END
>  <minimizedAffinity>
-5.7105341

$$$$

 OpenBabel03272510283D

 45 49  0  0  1  0  0  0  0  0999 V2000
   38.0240   23.5440   32.8490 O   0  0  0  0  0  0  0  0  0  0  0  0
   36.5250   29.1990   32.0330 C   0  0  0  0  0  0  0  0  0  0  0  0
   37.0570   28.9420   30.7710 C   0  0  0  0  0  0  0  0  0  0  0  0
   37.5670   27.6860   30.4500 C   0  0  0  0  0  0  0  0  0  0  0  0
   37.5150   26.7220   31.4440 C   0  0  0  0  0  0  0  0  0  0  0  0
   37.9510   25.4320   31.3700 N   0  0  0  0  0  0  0  0  0  0  0  0
   37.6970   24.8830   32.5740 C   0  0  0  0  0  0  0  0  0  0  0  0
   37.1330   25.7630   33.3740 N   0  0  0  0  0  0  0  0  0  0  0  0
   36.9950   26.9370   32.7120 C   0  0  0  0  0  0  0  0  0  0  0  0
   36.4890   28.2100   33.0070 C   0  0  0  0  0  0  0  0  0  0  0  0
   36.1190   30.1580   32.3240 H   0  0  0  0  0  0  0  0  0  0  0  0
   37.9700   27.5000   29.4840 H   0  0  0  0  0  0  0  0  0  0  0  0
   38.3970   24.9580   30.5430 H   0  0  0  0  0  0  0  0  0  0  0  0
   36.0880   28.3610   33.9930 H   0  0  0  0  0  0  0  0  0  0  0  0
   36.5520   32.2740   29.1320 C   0  0  0  0  0  0  0  0  0  0  0  0
   36.5020   31.2920   30.1030 C   0  0  0  0  0  0  0  0  0  0  0  0
   37.0570   30.0460   29.8340 C   0  0  0  0  0  0  0  0  0  0  0  0
   37.6260   29.8630   28.6130 N   0  0  0  0  0  0  0  0  0  0  0  0
   37.6730   30.8240   27.6680 C   0  0  0  0  0  0  0  0  0  0  0  0
   37.1390   32.0140   27.9340 N   0  0  0  0  0  0  0  0  0  0  0  0
   36.0990   33.2190   29.4160 H   0  0  0  0  0  0  0  0  0  0  0  0
   36.0440   31.4430   31.0830 H   0  0  0  0  0  0  0  0  0  0  0  0
   38.1410   30.6200   26.7120 H   0  0  0  0  0  0  0  0  0  0  0  0
   39.2420   22.2040   34.2360 N   0  0  0  0  0  0  0  0  0  0  0  0
   39.3580   23.3240   33.3140 C   0  0  1  0  0  0  0  0  0  0  0  0
   40.2610   22.9730   32.2250 C   0  0  0  0  0  0  0  0  0  0  0  0
   41.5480   22.7700   32.7550 O   0  0  0  0  0  0  0  0  0  0  0  0
   41.6240   21.8670   33.7730 C   0  0  0  0  0  0  0  0  0  0  0  0
   40.5510   22.0360   34.8200 C   0  0  1  0  0  0  0  0  0  0  0  0
   38.5640   22.4650   34.9610 H   0  0  0  0  0  0  0  0  0  0  0  0
   39.6960   24.2600   33.7800 H   0  0  0  0  0  0  0  0  0  0  0  0
   40.4010   23.9030   31.5940 H   0  0  0  0  0  0  0  0  0  0  0  0
   40.1260   22.1780   31.5460 H   0  0  0  0  0  0  0  0  0  0  0  0
   42.6070   21.9310   34.2250 H   0  0  0  0  0  0  0  0  0  0  0  0
   41.5140   20.8430   33.3570 H   0  0  0  0  0  0  0  0  0  0  0  0
   40.5060   21.0800   35.3860 H   0  0  0  0  0  0  0  0  0  0  0  0
   38.7210   23.5900   37.0730 O   0  0  0  0  0  0  0  0  0  0  0  0
   39.7670   22.9220   36.8890 C   0  0  0  0  0  0  0  0  0  0  0  0
   40.8130   23.1160   35.8220 C   0  0  1  0  0  3  0  0  0  0  0  0
   42.0420   22.8540   36.6460 C   0  0  0  0  0  3  0  0  0  0  0  0
   42.1070   23.7050   37.3730 H   0  0  0  0  0  0  0  0  0  0  0  0
   41.6430   21.6540   37.4520 C   0  0  0  0  0  3  0  0  0  0  0  0
   41.8860   20.6980   36.9380 H   0  0  0  0  0  0  0  0  0  0  0  0
   40.2090   21.8090   37.6610 N   0  0  0  0  0  0  0  0  0  0  0  0
   39.6360   21.1940   38.2760 H   0  0  0  0  0  0  0  0  0  0  0  0
  1 25  1  0  0  0  0
  2 11  1  0  0  0  0
  2 10  1  0  0  0  0
  3  2  2  0  0  0  0
  4  3  1  0  0  0  0
  4  5  2  0  0  0  0
  5  9  1  0  0  0  0
  6  5  1  0  0  0  0
  6  7  1  0  0  0  0
  7  1  1  0  0  0  0
  7  8  2  0  0  0  0
  9 10  2  0  0  0  0
  9  8  1  0  0  0  0
 10 14  1  0  0  0  0
 12  4  1  0  0  0  0
 13  6  1  0  0  0  0
 15 21  1  0  0  0  0
 15 16  1  0  0  0  0
 16 22  1  0  0  0  0
 17 16  2  0  0  0  0
 17  3  1  0  0  0  0
 18 17  1  0  0  0  0
 19 20  1  0  0  0  0
 19 18  2  0  0  0  0
 20 15  2  0  0  0  0
 23 19  1  0  0  0  0
 24 29  1  0  0  0  0
 24 30  1  0  0  0  0
 25 31  1  1  0  0  0
 25 24  1  0  0  0  0
 26 27  1  0  0  0  0
 26 25  1  0  0  0  0
 27 28  1  0  0  0  0
 28 34  1  0  0  0  0
 28 29  1  0  0  0  0
 29 36  1  1  0  0  0
 29 39  1  0  0  0  0
 32 26  1  0  0  0  0
 33 26  1  0  0  0  0
 35 28  1  0  0  0  0
 38 37  2  0  0  0  0
 38 44  1  0  0  0  0
 39 40  1  1  0  0  0
 39 38  1  0  0  0  0
 40 41  1  0  0  0  0
 40 42  1  0  0  0  0
 42 44  1  0  0  0  0
 43 42  1  0  0  0  0
 44 45  1  0  0  0  0
M  END
>  <minimizedAffinity>
-5.56754541

$$$$
