
 OpenBabel03272505193D

 33 35  0  0  1  0  0  0  0  0999 V2000
   40.3530   26.1950   34.8340 C   0  0  0  0  0  0  0  0  0  0  0  0
   39.3080   26.9620   34.2830 C   0  0  0  0  0  0  0  0  0  0  0  0
   37.9850   26.5560   34.4000 C   0  0  0  0  0  0  0  0  0  0  0  0
   37.8340   25.3910   35.0740 N   0  0  0  0  0  0  0  0  0  0  0  0
   38.8110   24.6530   35.6020 C   0  0  0  0  0  0  0  0  0  0  0  0
   40.0860   25.0600   35.4800 N   0  0  0  0  0  0  0  0  0  0  0  0
   41.3540   26.5880   34.6950 H   0  0  0  0  0  0  0  0  0  0  0  0
   39.5480   27.8710   33.7690 H   0  0  0  0  0  0  0  0  0  0  0  0
   36.5170   27.1010   32.5540 C   0  0  0  0  0  0  0  0  0  0  0  0
   36.9800   27.4020   33.8070 C   0  0  0  0  0  0  0  0  0  0  0  0
   36.4470   28.5040   34.4230 C   0  0  0  0  0  0  0  0  0  0  0  0
   35.5060   29.2770   33.8400 C   0  0  0  0  0  0  0  0  0  0  0  0
   35.0160   29.0030   32.5720 C   0  0  0  0  0  0  0  0  0  0  0  0
   35.5450   27.9030   31.9560 C   0  0  0  0  0  0  0  0  0  0  0  0
   36.8200   28.7350   35.4190 H   0  0  0  0  0  0  0  0  0  0  0  0
   35.1470   30.1270   34.4060 H   0  0  0  0  0  0  0  0  0  0  0  0
   34.2620   29.6510   32.1450 H   0  0  0  0  0  0  0  0  0  0  0  0
   35.1160   27.7480   30.9660 H   0  0  0  0  0  0  0  0  0  0  0  0
   36.5370   24.7760   31.9690 N   0  0  0  0  0  0  0  0  0  0  0  0
   36.9080   26.0090   31.7080 C   0  0  0  0  0  0  0  0  0  0  0  0
   37.6330   25.6890   30.5440 N   0  0  0  0  0  0  0  0  0  0  0  0
   36.8200   23.9910   31.3400 H   0  0  0  0  0  0  0  0  0  0  0  0
   38.6720   25.5470   30.5870 H   0  0  0  0  0  0  0  0  0  0  0  0
   37.3060   25.5570   29.5830 H   0  0  0  0  0  0  0  0  0  0  0  0
   38.0140   24.5320   38.2340 O   0  0  0  0  0  0  0  0  0  0  0  0
   38.6730   23.5310   37.7980 C   0  0  0  0  0  0  0  0  0  0  0  0
   38.4610   23.3900   36.3170 C   0  0  2  0  0  3  0  0  0  0  0  0
   39.4230   22.2780   35.9690 C   0  0  0  0  0  3  0  0  0  0  0  0
   38.8810   21.3160   35.9250 H   0  0  0  0  0  0  0  0  0  0  0  0
   40.3780   22.2140   37.1420 C   0  0  0  0  0  3  0  0  0  0  0  0
   41.1660   22.9820   37.0080 H   0  0  0  0  0  0  0  0  0  0  0  0
   39.5430   22.5130   38.2840 N   0  0  0  0  0  0  0  0  0  0  0  0
   39.3470   22.2690   39.2960 H   0  0  0  0  0  0  0  0  0  0  0  0
  1  6  1  0  0  0  0
  2  3  1  0  0  0  0
  2  1  2  0  0  0  0
  3  4  2  0  0  0  0
  4  5  1  0  0  0  0
  6  5  2  0  0  0  0
  7  1  1  0  0  0  0
  8  2  1  0  0  0  0
  9 10  1  0  0  0  0
 10  3  1  0  0  0  0
 10 11  2  0  0  0  0
 11 15  1  0  0  0  0
 12 16  1  0  0  0  0
 12 11  1  0  0  0  0
 13 12  2  0  0  0  0
 14  9  2  0  0  0  0
 14 13  1  0  0  0  0
 17 13  1  0  0  0  0
 18 14  1  0  0  0  0
 20 19  2  0  0  0  0
 20  9  1  0  0  0  0
 21 23  1  0  0  0  0
 21 20  1  0  0  0  0
 22 19  1  0  0  0  0
 24 21  1  0  0  0  0
 26 25  2  0  0  0  0
 26 32  1  0  0  0  0
 27  5  1  6  0  0  0
 27 26  1  0  0  0  0
 28 27  1  0  0  0  0
 28 30  1  0  0  0  0
 29 28  1  0  0  0  0
 30 32  1  0  0  0  0
 31 30  1  0  0  0  0
 32 33  1  0  0  0  0
M  END
>  <minimizedAffinity>
-6.10588932

$$$$

 OpenBabel03272505193D

 33 35  0  0  1  0  0  0  0  0999 V2000
   38.2340   26.8210   36.3830 C   0  0  0  0  0  0  0  0  0  0  0  0
   38.8380   27.2260   35.1780 C   0  0  0  0  0  0  0  0  0  0  0  0
   39.4650   26.3060   34.3480 C   0  0  0  0  0  0  0  0  0  0  0  0
   39.4240   25.0360   34.8190 N   0  0  0  0  0  0  0  0  0  0  0  0
   38.8560   24.6350   35.9570 C   0  0  0  0  0  0  0  0  0  0  0  0
   38.2540   25.5400   36.7490 N   0  0  0  0  0  0  0  0  0  0  0  0
   37.7680   27.6060   36.9680 H   0  0  0  0  0  0  0  0  0  0  0  0
   38.8080   28.2620   34.9060 H   0  0  0  0  0  0  0  0  0  0  0  0
   41.4130   26.9820   33.0820 C   0  0  0  0  0  0  0  0  0  0  0  0
   40.0570   26.8070   33.1330 C   0  0  0  0  0  0  0  0  0  0  0  0
   39.3410   27.1250   32.0080 C   0  0  0  0  0  0  0  0  0  0  0  0
   39.9260   27.5930   30.8860 C   0  0  0  0  0  0  0  0  0  0  0  0
   41.2970   27.7840   30.7980 C   0  0  0  0  0  0  0  0  0  0  0  0
   42.0130   27.4680   31.9190 C   0  0  0  0  0  0  0  0  0  0  0  0
   38.2640   26.9810   32.0570 H   0  0  0  0  0  0  0  0  0  0  0  0
   39.2770   27.8160   30.0490 H   0  0  0  0  0  0  0  0  0  0  0  0
   41.7210   28.1620   29.8780 H   0  0  0  0  0  0  0  0  0  0  0  0
   43.0790   27.6430   31.7820 H   0  0  0  0  0  0  0  0  0  0  0  0
   43.4430   27.4750   34.2590 N   0  0  0  0  0  0  0  0  0  0  0  0
   42.3760   26.7230   34.1150 C   0  0  0  0  0  0  0  0  0  0  0  0
   42.6740   25.8590   35.1870 N   0  0  0  0  0  0  0  0  0  0  0  0
   44.1320   27.2810   35.0200 H   0  0  0  0  0  0  0  0  0  0  0  0
   43.1570   24.9440   35.0140 H   0  0  0  0  0  0  0  0  0  0  0  0
   42.4920   25.9700   36.1880 H   0  0  0  0  0  0  0  0  0  0  0  0
   38.4320   23.6650   38.4980 O   0  0  0  0  0  0  0  0  0  0  0  0
   39.2530   23.0100   37.7740 C   0  0  0  0  0  0  0  0  0  0  0  0
   38.9050   23.1890   36.3220 C   0  0  2  0  0  3  0  0  0  0  0  0
   40.0550   22.4880   35.6380 C   0  0  0  0  0  3  0  0  0  0  0  0
   39.7550   21.4590   35.3660 H   0  0  0  0  0  0  0  0  0  0  0  0
   41.1310   22.3870   36.6980 C   0  0  0  0  0  3  0  0  0  0  0  0
   41.6920   23.3430   36.7340 H   0  0  0  0  0  0  0  0  0  0  0  0
   40.3920   22.1670   37.9210 N   0  0  0  0  0  0  0  0  0  0  0  0
   40.3820   21.6390   38.8390 H   0  0  0  0  0  0  0  0  0  0  0  0
  1  6  1  0  0  0  0
  1  7  1  0  0  0  0
  2  1  2  0  0  0  0
  3  4  2  0  0  0  0
  3  2  1  0  0  0  0
  4  5  1  0  0  0  0
  5  6  2  0  0  0  0
  8  2  1  0  0  0  0
  9 10  1  0  0  0  0
  9 20  1  0  0  0  0
 10  3  1  0  0  0  0
 11 15  1  0  0  0  0
 11 10  2  0  0  0  0
 12 11  1  0  0  0  0
 13 12  2  0  0  0  0
 13 14  1  0  0  0  0
 14  9  2  0  0  0  0
 16 12  1  0  0  0  0
 17 13  1  0  0  0  0
 18 14  1  0  0  0  0
 19 22  1  0  0  0  0
 20 19  2  0  0  0  0
 20 21  1  0  0  0  0
 21 24  1  0  0  0  0
 23 21  1  0  0  0  0
 26 32  1  0  0  0  0
 26 25  2  0  0  0  0
 27  5  1  6  0  0  0
 27 26  1  0  0  0  0
 28 27  1  0  0  0  0
 28 30  1  0  0  0  0
 29 28  1  0  0  0  0
 30 31  1  0  0  0  0
 30 32  1  0  0  0  0
 32 33  1  0  0  0  0
M  END
>  <minimizedAffinity>
-5.91301918

$$$$

 OpenBabel03272505193D

 33 35  0  0  1  0  0  0  0  0999 V2000
   37.4150   26.5280   35.1020 C   0  0  0  0  0  0  0  0  0  0  0  0
   38.3990   25.7050   35.6820 C   0  0  0  0  0  0  0  0  0  0  0  0
   39.0620   24.7440   34.9290 C   0  0  0  0  0  0  0  0  0  0  0  0
   38.6620   24.7000   33.6360 N   0  0  0  0  0  0  0  0  0  0  0  0
   37.7330   25.4710   33.0700 C   0  0  0  0  0  0  0  0  0  0  0  0
   37.1000   26.3960   33.8140 N   0  0  0  0  0  0  0  0  0  0  0  0
   36.9490   27.2490   35.7640 H   0  0  0  0  0  0  0  0  0  0  0  0
   38.6340   25.8310   36.7200 H   0  0  0  0  0  0  0  0  0  0  0  0
   39.6440   22.9440   36.4380 C   0  0  0  0  0  0  0  0  0  0  0  0
   40.0550   23.9460   35.6020 C   0  0  0  0  0  0  0  0  0  0  0  0
   41.4070   24.1280   35.4600 C   0  0  0  0  0  0  0  0  0  0  0  0
   42.3130   23.3640   36.1050 C   0  0  0  0  0  0  0  0  0  0  0  0
   41.9320   22.3400   36.9600 C   0  0  0  0  0  0  0  0  0  0  0  0
   40.5850   22.1570   37.1040 C   0  0  0  0  0  0  0  0  0  0  0  0
   41.7250   24.9270   34.7920 H   0  0  0  0  0  0  0  0  0  0  0  0
   43.3580   23.5840   35.9290 H   0  0  0  0  0  0  0  0  0  0  0  0
   42.6940   21.7540   37.4570 H   0  0  0  0  0  0  0  0  0  0  0  0
   40.3580   21.3400   37.7880 H   0  0  0  0  0  0  0  0  0  0  0  0
   37.7530   22.8500   37.9090 N   0  0  0  0  0  0  0  0  0  0  0  0
   38.2990   22.5530   36.7520 C   0  0  0  0  0  0  0  0  0  0  0  0
   37.1720   21.8820   36.2390 N   0  0  0  0  0  0  0  0  0  0  0  0
   36.7700   22.5680   38.1210 H   0  0  0  0  0  0  0  0  0  0  0  0
   37.1000   20.8370   36.3020 H   0  0  0  0  0  0  0  0  0  0  0  0
   36.3380   22.2570   35.7780 H   0  0  0  0  0  0  0  0  0  0  0  0
   38.2870   27.3260   31.1140 O   0  0  0  0  0  0  0  0  0  0  0  0
   37.2470   26.6090   30.9330 C   0  0  0  0  0  0  0  0  0  0  0  0
   37.4170   25.2850   31.6240 C   0  0  2  0  0  3  0  0  0  0  0  0
   36.0550   24.6590   31.4350 C   0  0  0  0  0  3  0  0  0  0  0  0
   36.0770   23.9720   30.5680 H   0  0  0  0  0  0  0  0  0  0  0  0
   35.1450   25.8150   31.0800 C   0  0  0  0  0  3  0  0  0  0  0  0
   34.8200   26.3180   32.0130 H   0  0  0  0  0  0  0  0  0  0  0  0
   35.9820   26.6820   30.2820 N   0  0  0  0  0  0  0  0  0  0  0  0
   36.0050   27.3180   29.4350 H   0  0  0  0  0  0  0  0  0  0  0  0
  1  2  1  0  0  0  0
  1  7  1  0  0  0  0
  2  8  1  0  0  0  0
  3 10  1  0  0  0  0
  3  2  2  0  0  0  0
  4  3  1  0  0  0  0
  5  4  2  0  0  0  0
  5  6  1  0  0  0  0
  6  1  2  0  0  0  0
  9 20  1  0  0  0  0
  9 14  1  0  0  0  0
 10  9  2  0  0  0  0
 11 10  1  0  0  0  0
 11 12  2  0  0  0  0
 12 13  1  0  0  0  0
 13 14  2  0  0  0  0
 13 17  1  0  0  0  0
 14 18  1  0  0  0  0
 15 11  1  0  0  0  0
 16 12  1  0  0  0  0
 19 22  1  0  0  0  0
 20 19  2  0  0  0  0
 21 23  1  0  0  0  0
 21 20  1  0  0  0  0
 24 21  1  0  0  0  0
 26 25  2  0  0  0  0
 26 27  1  0  0  0  0
 27  5  1  1  0  0  0
 28 27  1  0  0  0  0
 29 28  1  0  0  0  0
 30 28  1  0  0  0  0
 30 31  1  0  0  0  0
 32 26  1  0  0  0  0
 32 30  1  0  0  0  0
 33 32  1  0  0  0  0
M  END
>  <minimizedAffinity>
-5.7719717

$$$$

 OpenBabel03272505193D

 33 35  0  0  1  0  0  0  0  0999 V2000
   39.5610   21.5900   32.7730 C   0  0  0  0  0  0  0  0  0  0  0  0
   39.5730   22.8240   33.4510 C   0  0  0  0  0  0  0  0  0  0  0  0
   38.3890   23.4680   33.7850 C   0  0  0  0  0  0  0  0  0  0  0  0
   37.2790   22.7940   33.3970 N   0  0  0  0  0  0  0  0  0  0  0  0
   37.2500   21.6260   32.7550 C   0  0  0  0  0  0  0  0  0  0  0  0
   38.4060   21.0170   32.4390 N   0  0  0  0  0  0  0  0  0  0  0  0
   40.5320   21.1610   32.5530 H   0  0  0  0  0  0  0  0  0  0  0  0
   40.5150   23.2650   33.7090 H   0  0  0  0  0  0  0  0  0  0  0  0
   38.1870   24.7750   35.8110 C   0  0  0  0  0  0  0  0  0  0  0  0
   38.4930   24.7270   34.4780 C   0  0  0  0  0  0  0  0  0  0  0  0
   38.8830   25.8980   33.8820 C   0  0  0  0  0  0  0  0  0  0  0  0
   38.9690   27.0620   34.5600 C   0  0  0  0  0  0  0  0  0  0  0  0
   38.6660   27.1480   35.9100 C   0  0  0  0  0  0  0  0  0  0  0  0
   38.2770   25.9810   36.5080 C   0  0  0  0  0  0  0  0  0  0  0  0
   39.1250   25.8500   32.8220 H   0  0  0  0  0  0  0  0  0  0  0  0
   39.2860   27.9340   34.0030 H   0  0  0  0  0  0  0  0  0  0  0  0
   38.7500   28.1030   36.4120 H   0  0  0  0  0  0  0  0  0  0  0  0
   38.0550   26.1210   37.5640 H   0  0  0  0  0  0  0  0  0  0  0  0
   37.7750   23.8100   37.9670 N   0  0  0  0  0  0  0  0  0  0  0  0
   37.7600   23.6970   36.6580 C   0  0  0  0  0  0  0  0  0  0  0  0
   37.2620   22.3800   36.6410 N   0  0  0  0  0  0  0  0  0  0  0  0
   37.4530   23.0210   38.5720 H   0  0  0  0  0  0  0  0  0  0  0  0
   37.9160   21.5650   36.5520 H   0  0  0  0  0  0  0  0  0  0  0  0
   36.2970   22.0420   36.7060 H   0  0  0  0  0  0  0  0  0  0  0  0
   35.5250   20.5000   34.5820 O   0  0  0  0  0  0  0  0  0  0  0  0
   35.5230   19.9870   33.4130 C   0  0  0  0  0  0  0  0  0  0  0  0
   35.9300   21.0240   32.4040 C   0  0  2  0  0  3  0  0  0  0  0  0
   36.0200   20.2050   31.1370 C   0  0  0  0  0  3  0  0  0  0  0  0
   35.0840   20.3120   30.5570 H   0  0  0  0  0  0  0  0  0  0  0  0
   36.1050   18.7700   31.6100 C   0  0  0  0  0  3  0  0  0  0  0  0
   37.1570   18.5390   31.8730 H   0  0  0  0  0  0  0  0  0  0  0  0
   35.2540   18.7400   32.7790 N   0  0  0  0  0  0  0  0  0  0  0  0
   34.5410   18.1660   33.3110 H   0  0  0  0  0  0  0  0  0  0  0  0
  1  2  1  0  0  0  0
  2  8  1  0  0  0  0
  2  3  2  0  0  0  0
  3 10  1  0  0  0  0
  4  3  1  0  0  0  0
  5  4  2  0  0  0  0
  6  5  1  0  0  0  0
  6  1  2  0  0  0  0
  7  1  1  0  0  0  0
  9 14  1  0  0  0  0
  9 20  1  0  0  0  0
 10  9  2  0  0  0  0
 11 10  1  0  0  0  0
 11 12  2  0  0  0  0
 12 13  1  0  0  0  0
 13 17  1  0  0  0  0
 13 14  2  0  0  0  0
 14 18  1  0  0  0  0
 15 11  1  0  0  0  0
 16 12  1  0  0  0  0
 19 22  1  0  0  0  0
 20 19  2  0  0  0  0
 21 20  1  0  0  0  0
 21 24  1  0  0  0  0
 23 21  1  0  0  0  0
 26 25  2  0  0  0  0
 27  5  1  1  0  0  0
 27 26  1  0  0  0  0
 28 30  1  0  0  0  0
 28 27  1  0  0  0  0
 29 28  1  0  0  0  0
 30 31  1  0  0  0  0
 30 32  1  0  0  0  0
 32 33  1  0  0  0  0
 32 26  1  0  0  0  0
M  END
>  <minimizedAffinity>
-5.60172653

$$$$

 OpenBabel03272505193D

 33 35  0  0  1  0  0  0  0  0999 V2000
   38.2110   26.7570   36.4280 C   0  0  0  0  0  0  0  0  0  0  0  0
   39.0870   27.1630   35.4030 C   0  0  0  0  0  0  0  0  0  0  0  0
   39.8800   26.2390   34.7330 C   0  0  0  0  0  0  0  0  0  0  0  0
   39.7120   24.9670   35.1680 N   0  0  0  0  0  0  0  0  0  0  0  0
   38.8880   24.5660   36.1350 C   0  0  0  0  0  0  0  0  0  0  0  0
   38.1290   25.4730   36.7740 N   0  0  0  0  0  0  0  0  0  0  0  0
   37.6320   27.5450   36.8960 H   0  0  0  0  0  0  0  0  0  0  0  0
   39.1360   28.2010   35.1420 H   0  0  0  0  0  0  0  0  0  0  0  0
   40.2330   26.9440   32.4450 C   0  0  0  0  0  0  0  0  0  0  0  0
   40.7470   26.7400   33.6970 C   0  0  0  0  0  0  0  0  0  0  0  0
   42.0740   27.0300   33.8850 C   0  0  0  0  0  0  0  0  0  0  0  0
   42.8610   27.4980   32.8930 C   0  0  0  0  0  0  0  0  0  0  0  0
   42.3750   27.7150   31.6120 C   0  0  0  0  0  0  0  0  0  0  0  0
   41.0510   27.4270   31.4230 C   0  0  0  0  0  0  0  0  0  0  0  0
   42.4740   26.8660   34.8840 H   0  0  0  0  0  0  0  0  0  0  0  0
   43.8960   27.6970   33.1380 H   0  0  0  0  0  0  0  0  0  0  0  0
   43.0430   28.0910   30.8490 H   0  0  0  0  0  0  0  0  0  0  0  0
   40.7380   27.6190   30.3980 H   0  0  0  0  0  0  0  0  0  0  0  0
   38.0320   27.7130   31.8900 N   0  0  0  0  0  0  0  0  0  0  0  0
   38.8880   26.7230   31.9970 C   0  0  0  0  0  0  0  0  0  0  0  0
   37.9940   25.7240   31.5650 N   0  0  0  0  0  0  0  0  0  0  0  0
   37.0580   27.5400   31.5530 H   0  0  0  0  0  0  0  0  0  0  0  0
   37.4670   25.1430   32.2630 H   0  0  0  0  0  0  0  0  0  0  0  0
   37.7410   25.4350   30.6160 H   0  0  0  0  0  0  0  0  0  0  0  0
   38.8290   23.5970   38.7110 O   0  0  0  0  0  0  0  0  0  0  0  0
   39.4180   22.8660   37.8470 C   0  0  0  0  0  0  0  0  0  0  0  0
   38.8310   23.1160   36.4860 C   0  0  2  0  0  3  0  0  0  0  0  0
   39.7420   22.3000   35.6000 C   0  0  0  0  0  3  0  0  0  0  0  0
   39.2760   21.3190   35.3880 H   0  0  0  0  0  0  0  0  0  0  0  0
   40.9760   22.0510   36.4400 C   0  0  0  0  0  3  0  0  0  0  0  0
   41.6440   22.9320   36.3700 H   0  0  0  0  0  0  0  0  0  0  0  0
   40.4550   21.8920   37.7800 N   0  0  0  0  0  0  0  0  0  0  0  0
   40.5520   21.3490   38.6840 H   0  0  0  0  0  0  0  0  0  0  0  0
  1  6  1  0  0  0  0
  1  7  1  0  0  0  0
  2  1  2  0  0  0  0
  3  4  2  0  0  0  0
  3  2  1  0  0  0  0
  4  5  1  0  0  0  0
  5  6  2  0  0  0  0
  8  2  1  0  0  0  0
  9 10  1  0  0  0  0
 10 11  2  0  0  0  0
 10  3  1  0  0  0  0
 11 15  1  0  0  0  0
 12 16  1  0  0  0  0
 12 11  1  0  0  0  0
 13 12  2  0  0  0  0
 14 13  1  0  0  0  0
 14  9  2  0  0  0  0
 17 13  1  0  0  0  0
 18 14  1  0  0  0  0
 19 20  2  0  0  0  0
 20  9  1  0  0  0  0
 21 20  1  0  0  0  0
 21 23  1  0  0  0  0
 22 19  1  0  0  0  0
 24 21  1  0  0  0  0
 26 25  2  0  0  0  0
 27  5  1  6  0  0  0
 27 26  1  0  0  0  0
 28 30  1  0  0  0  0
 28 27  1  0  0  0  0
 29 28  1  0  0  0  0
 30 32  1  0  0  0  0
 31 30  1  0  0  0  0
 32 26  1  0  0  0  0
 32 33  1  0  0  0  0
M  END
>  <minimizedAffinity>
-5.6016202

$$$$

 OpenBabel03272505193D

 33 35  0  0  1  0  0  0  0  0999 V2000
   41.0180   26.7550   34.3720 C   0  0  0  0  0  0  0  0  0  0  0  0
   41.5370   25.5780   34.9460 C   0  0  0  0  0  0  0  0  0  0  0  0
   40.7030   24.5200   35.2830 C   0  0  0  0  0  0  0  0  0  0  0  0
   39.3970   24.7500   35.0050 N   0  0  0  0  0  0  0  0  0  0  0  0
   38.8900   25.8570   34.4620 C   0  0  0  0  0  0  0  0  0  0  0  0
   39.7110   26.8720   34.1420 N   0  0  0  0  0  0  0  0  0  0  0  0
   41.7420   27.5290   34.1420 H   0  0  0  0  0  0  0  0  0  0  0  0
   42.5920   25.5080   35.1210 H   0  0  0  0  0  0  0  0  0  0  0  0
   40.6420   22.6650   36.8360 C   0  0  0  0  0  0  0  0  0  0  0  0
   41.3180   23.3530   35.8650 C   0  0  0  0  0  0  0  0  0  0  0  0
   42.5540   22.8810   35.5060 C   0  0  0  0  0  0  0  0  0  0  0  0
   43.1020   21.7850   36.0720 C   0  0  0  0  0  0  0  0  0  0  0  0
   42.4470   21.0630   37.0580 C   0  0  0  0  0  0  0  0  0  0  0  0
   41.2140   21.5330   37.4180 C   0  0  0  0  0  0  0  0  0  0  0  0
   43.0830   23.4340   34.7330 H   0  0  0  0  0  0  0  0  0  0  0  0
   44.0830   21.4890   35.7220 H   0  0  0  0  0  0  0  0  0  0  0  0
   42.9270   20.1910   37.4830 H   0  0  0  0  0  0  0  0  0  0  0  0
   40.7590   20.9210   38.1950 H   0  0  0  0  0  0  0  0  0  0  0  0
   39.1550   23.0510   38.6750 N   0  0  0  0  0  0  0  0  0  0  0  0
   39.3450   22.9510   37.3800 C   0  0  0  0  0  0  0  0  0  0  0  0
   38.0050   23.2020   37.0260 N   0  0  0  0  0  0  0  0  0  0  0  0
   38.2070   23.2680   39.0590 H   0  0  0  0  0  0  0  0  0  0  0  0
   37.3460   22.4070   36.8380 H   0  0  0  0  0  0  0  0  0  0  0  0
   37.5130   24.0920   36.9110 H   0  0  0  0  0  0  0  0  0  0  0  0
   37.6140   24.7860   32.2700 O   0  0  0  0  0  0  0  0  0  0  0  0
   37.1030   25.8500   32.7560 C   0  0  0  0  0  0  0  0  0  0  0  0
   37.4190   25.9390   34.2230 C   0  0  2  0  0  3  0  0  0  0  0  0
   36.8820   27.3070   34.5730 C   0  0  0  0  0  3  0  0  0  0  0  0
   35.8710   27.2100   35.0120 H   0  0  0  0  0  0  0  0  0  0  0  0
   36.7390   28.0180   33.2450 C   0  0  0  0  0  3  0  0  0  0  0  0
   37.7220   28.4420   32.9550 H   0  0  0  0  0  0  0  0  0  0  0  0
   36.3320   26.9710   32.3340 N   0  0  0  0  0  0  0  0  0  0  0  0
   35.7040   26.7380   31.5140 H   0  0  0  0  0  0  0  0  0  0  0  0
  1  2  1  0  0  0  0
  2  8  1  0  0  0  0
  2  3  2  0  0  0  0
  3 10  1  0  0  0  0
  4  3  1  0  0  0  0
  5  4  2  0  0  0  0
  6  1  2  0  0  0  0
  6  5  1  0  0  0  0
  7  1  1  0  0  0  0
  9 20  1  0  0  0  0
  9 14  1  0  0  0  0
 10  9  2  0  0  0  0
 11 10  1  0  0  0  0
 11 12  2  0  0  0  0
 12 13  1  0  0  0  0
 13 14  2  0  0  0  0
 13 17  1  0  0  0  0
 14 18  1  0  0  0  0
 15 11  1  0  0  0  0
 16 12  1  0  0  0  0
 19 22  1  0  0  0  0
 20 19  2  0  0  0  0
 21 20  1  0  0  0  0
 23 21  1  0  0  0  0
 24 21  1  0  0  0  0
 25 26  2  0  0  0  0
 26 27  1  0  0  0  0
 27  5  1  6  0  0  0
 27 28  1  0  0  0  0
 28 29  1  0  0  0  0
 30 28  1  0  0  0  0
 31 30  1  0  0  0  0
 32 26  1  0  0  0  0
 32 30  1  0  0  0  0
 33 32  1  0  0  0  0
M  END
>  <minimizedAffinity>
-5.58411884

$$$$

 OpenBabel03272505193D

 33 35  0  0  1  0  0  0  0  0999 V2000
   37.3120   26.4690   35.2020 C   0  0  0  0  0  0  0  0  0  0  0  0
   38.2670   25.6210   35.7960 C   0  0  0  0  0  0  0  0  0  0  0  0
   38.9760   24.7010   35.0350 C   0  0  0  0  0  0  0  0  0  0  0  0
   38.6500   24.7190   33.7210 N   0  0  0  0  0  0  0  0  0  0  0  0
   37.7500   25.5140   33.1430 C   0  0  0  0  0  0  0  0  0  0  0  0
   37.0720   26.4000   33.8940 N   0  0  0  0  0  0  0  0  0  0  0  0
   36.8060   27.1560   35.8720 H   0  0  0  0  0  0  0  0  0  0  0  0
   38.4430   25.6960   36.8500 H   0  0  0  0  0  0  0  0  0  0  0  0
   41.2680   24.0710   35.4890 C   0  0  0  0  0  0  0  0  0  0  0  0
   39.9350   23.8730   35.7240 C   0  0  0  0  0  0  0  0  0  0  0  0
   39.5940   22.8850   36.6110 C   0  0  0  0  0  0  0  0  0  0  0  0
   40.5170   22.1260   37.2390 C   0  0  0  0  0  0  0  0  0  0  0  0
   41.8770   22.2980   37.0250 C   0  0  0  0  0  0  0  0  0  0  0  0
   42.2190   23.2830   36.1400 C   0  0  0  0  0  0  0  0  0  0  0  0
   38.5320   22.7350   36.7930 H   0  0  0  0  0  0  0  0  0  0  0  0
   40.1510   21.3700   37.9220 H   0  0  0  0  0  0  0  0  0  0  0  0
   42.5800   21.6660   37.5510 H   0  0  0  0  0  0  0  0  0  0  0  0
   43.2980   23.3620   36.0190 H   0  0  0  0  0  0  0  0  0  0  0  0
   42.6820   25.9630   35.0780 N   0  0  0  0  0  0  0  0  0  0  0  0
   41.8770   25.0340   34.6160 C   0  0  0  0  0  0  0  0  0  0  0  0
   41.9670   25.4360   33.2690 N   0  0  0  0  0  0  0  0  0  0  0  0
   43.1270   26.6520   34.4310 H   0  0  0  0  0  0  0  0  0  0  0  0
   41.2370   26.0630   32.8510 H   0  0  0  0  0  0  0  0  0  0  0  0
   42.6730   25.2110   32.5620 H   0  0  0  0  0  0  0  0  0  0  0  0
   38.2600   27.5240   31.3320 O   0  0  0  0  0  0  0  0  0  0  0  0
   37.2840   26.7500   31.0550 C   0  0  0  0  0  0  0  0  0  0  0  0
   37.5170   25.3990   31.6730 C   0  0  2  0  0  3  0  0  0  0  0  0
   36.2150   24.6930   31.3770 C   0  0  0  0  0  3  0  0  0  0  0  0
   36.3280   24.0660   30.4730 H   0  0  0  0  0  0  0  0  0  0  0  0
   35.2400   25.8040   31.0460 C   0  0  0  0  0  3  0  0  0  0  0  0
   34.8360   26.2220   31.9890 H   0  0  0  0  0  0  0  0  0  0  0  0
   36.0490   26.7760   30.3450 N   0  0  0  0  0  0  0  0  0  0  0  0
   36.0660   27.4650   29.5410 H   0  0  0  0  0  0  0  0  0  0  0  0
  1  2  1  0  0  0  0
  1  7  1  0  0  0  0
  2  8  1  0  0  0  0
  3 10  1  0  0  0  0
  3  2  2  0  0  0  0
  4  3  1  0  0  0  0
  5  4  2  0  0  0  0
  5  6  1  0  0  0  0
  6  1  2  0  0  0  0
  9 10  2  0  0  0  0
  9 14  1  0  0  0  0
 10 11  1  0  0  0  0
 11 15  1  0  0  0  0
 11 12  2  0  0  0  0
 12 16  1  0  0  0  0
 13 12  1  0  0  0  0
 13 17  1  0  0  0  0
 14 13  2  0  0  0  0
 18 14  1  0  0  0  0
 20 19  2  0  0  0  0
 20  9  1  0  0  0  0
 21 20  1  0  0  0  0
 22 19  1  0  0  0  0
 23 21  1  0  0  0  0
 24 21  1  0  0  0  0
 26 25  2  0  0  0  0
 26 27  1  0  0  0  0
 27  5  1  1  0  0  0
 28 27  1  0  0  0  0
 29 28  1  0  0  0  0
 30 28  1  0  0  0  0
 30 31  1  0  0  0  0
 32 30  1  0  0  0  0
 32 26  1  0  0  0  0
 33 32  1  0  0  0  0
M  END
>  <minimizedAffinity>
-5.41229773

$$$$

 OpenBabel03272505193D

 33 35  0  0  1  0  0  0  0  0999 V2000
   38.3720   26.8760   36.3860 C   0  0  0  0  0  0  0  0  0  0  0  0
   37.8620   27.6270   35.3090 C   0  0  0  0  0  0  0  0  0  0  0  0
   37.4750   27.0090   34.1270 C   0  0  0  0  0  0  0  0  0  0  0  0
   37.6400   25.6650   34.1400 N   0  0  0  0  0  0  0  0  0  0  0  0
   38.1200   24.9390   35.1490 C   0  0  0  0  0  0  0  0  0  0  0  0
   38.4920   25.5530   36.2860 N   0  0  0  0  0  0  0  0  0  0  0  0
   38.6490   27.4410   37.2690 H   0  0  0  0  0  0  0  0  0  0  0  0
   37.7750   28.6900   35.4140 H   0  0  0  0  0  0  0  0  0  0  0  0
   37.6440   27.9190   31.8910 C   0  0  0  0  0  0  0  0  0  0  0  0
   36.9630   27.8530   33.0770 C   0  0  0  0  0  0  0  0  0  0  0  0
   35.8240   28.6070   33.1880 C   0  0  0  0  0  0  0  0  0  0  0  0
   35.3710   29.3880   32.1850 C   0  0  0  0  0  0  0  0  0  0  0  0
   36.0350   29.4810   30.9710 C   0  0  0  0  0  0  0  0  0  0  0  0
   37.1720   28.7290   30.8570 C   0  0  0  0  0  0  0  0  0  0  0  0
   35.2880   28.5470   34.1340 H   0  0  0  0  0  0  0  0  0  0  0  0
   34.4620   29.9470   32.3670 H   0  0  0  0  0  0  0  0  0  0  0  0
   35.6350   30.1210   30.1960 H   0  0  0  0  0  0  0  0  0  0  0  0
   37.6410   28.8500   29.8820 H   0  0  0  0  0  0  0  0  0  0  0  0
   38.8200   26.0100   31.0450 N   0  0  0  0  0  0  0  0  0  0  0  0
   38.8500   27.2310   31.5260 C   0  0  0  0  0  0  0  0  0  0  0  0
   40.2510   27.3650   31.4720 N   0  0  0  0  0  0  0  0  0  0  0  0
   39.7050   25.5230   30.7740 H   0  0  0  0  0  0  0  0  0  0  0  0
   40.8360   27.1780   32.3220 H   0  0  0  0  0  0  0  0  0  0  0  0
   40.8550   27.6320   30.6890 H   0  0  0  0  0  0  0  0  0  0  0  0
   37.1030   23.1050   36.9330 O   0  0  0  0  0  0  0  0  0  0  0  0
   38.1700   22.7650   36.3220 C   0  0  0  0  0  0  0  0  0  0  0  0
   38.2350   23.4590   34.9900 C   0  0  2  0  0  3  0  0  0  0  0  0
   39.6080   23.0640   34.5000 C   0  0  0  0  0  3  0  0  0  0  0  0
   39.5240   22.2030   33.8110 H   0  0  0  0  0  0  0  0  0  0  0  0
   40.3380   22.5910   35.7390 C   0  0  0  0  0  3  0  0  0  0  0  0
   40.7470   23.4710   36.2750 H   0  0  0  0  0  0  0  0  0  0  0  0
   39.3100   21.9340   36.5160 N   0  0  0  0  0  0  0  0  0  0  0  0
   39.1000   21.1070   37.1440 H   0  0  0  0  0  0  0  0  0  0  0  0
  1  7  1  0  0  0  0
  2  8  1  0  0  0  0
  2  1  2  0  0  0  0
  3  4  2  0  0  0  0
  3  2  1  0  0  0  0
  4  5  1  0  0  0  0
  5  6  2  0  0  0  0
  6  1  1  0  0  0  0
  9 10  1  0  0  0  0
 10 11  2  0  0  0  0
 10  3  1  0  0  0  0
 11 15  1  0  0  0  0
 12 16  1  0  0  0  0
 12 11  1  0  0  0  0
 13 12  2  0  0  0  0
 14 13  1  0  0  0  0
 14  9  2  0  0  0  0
 17 13  1  0  0  0  0
 18 14  1  0  0  0  0
 19 20  2  0  0  0  0
 20  9  1  0  0  0  0
 21 20  1  0  0  0  0
 21 23  1  0  0  0  0
 22 19  1  0  0  0  0
 24 21  1  0  0  0  0
 26 32  1  0  0  0  0
 26 25  2  0  0  0  0
 27  5  1  1  0  0  0
 27 26  1  0  0  0  0
 28 27  1  0  0  0  0
 28 30  1  0  0  0  0
 29 28  1  0  0  0  0
 30 31  1  0  0  0  0
 30 32  1  0  0  0  0
 32 33  1  0  0  0  0
M  END
>  <minimizedAffinity>
-5.33260107

$$$$

 OpenBabel03272505193D

 33 35  0  0  1  0  0  0  0  0999 V2000
   39.9540   27.1100   33.2720 C   0  0  0  0  0  0  0  0  0  0  0  0
   39.8310   26.3880   34.4740 C   0  0  0  0  0  0  0  0  0  0  0  0
   38.9190   25.3470   34.5930 C   0  0  0  0  0  0  0  0  0  0  0  0
   38.2000   25.1260   33.4660 N   0  0  0  0  0  0  0  0  0  0  0  0
   38.3040   25.7990   32.3200 C   0  0  0  0  0  0  0  0  0  0  0  0
   39.1920   26.8040   32.2220 N   0  0  0  0  0  0  0  0  0  0  0  0
   40.6910   27.9050   33.2690 H   0  0  0  0  0  0  0  0  0  0  0  0
   40.4550   26.6520   35.3040 H   0  0  0  0  0  0  0  0  0  0  0  0
   39.6850   23.5910   36.0710 C   0  0  0  0  0  0  0  0  0  0  0  0
   38.8590   24.6610   35.8590 C   0  0  0  0  0  0  0  0  0  0  0  0
   38.0160   25.0150   36.8810 C   0  0  0  0  0  0  0  0  0  0  0  0
   37.9840   24.3510   38.0560 C   0  0  0  0  0  0  0  0  0  0  0  0
   38.8050   23.2620   38.3050 C   0  0  0  0  0  0  0  0  0  0  0  0
   39.6470   22.9070   37.2870 C   0  0  0  0  0  0  0  0  0  0  0  0
   37.3640   25.8680   36.7040 H   0  0  0  0  0  0  0  0  0  0  0  0
   37.2840   24.7040   38.8020 H   0  0  0  0  0  0  0  0  0  0  0  0
   38.7440   22.7600   39.2620 H   0  0  0  0  0  0  0  0  0  0  0  0
   40.2600   22.0470   37.5500 H   0  0  0  0  0  0  0  0  0  0  0  0
   41.9300   23.3050   35.2810 N   0  0  0  0  0  0  0  0  0  0  0  0
   40.6510   23.0300   35.1700 C   0  0  0  0  0  0  0  0  0  0  0  0
   40.7920   22.1800   34.0550 N   0  0  0  0  0  0  0  0  0  0  0  0
   42.6240   22.8830   34.6250 H   0  0  0  0  0  0  0  0  0  0  0  0
   40.6420   22.5480   33.0840 H   0  0  0  0  0  0  0  0  0  0  0  0
   41.0360   21.1870   34.0140 H   0  0  0  0  0  0  0  0  0  0  0  0
   35.8560   26.9430   31.7940 O   0  0  0  0  0  0  0  0  0  0  0  0
   35.9860   25.7150   31.4720 C   0  0  0  0  0  0  0  0  0  0  0  0
   37.4290   25.4190   31.1720 C   0  0  2  0  0  3  0  0  0  0  0  0
   37.4040   23.9210   30.9730 C   0  0  0  0  0  3  0  0  0  0  0  0
   37.3500   23.6900   29.8930 H   0  0  0  0  0  0  0  0  0  0  0  0
   36.1040   23.4700   31.6040 C   0  0  0  0  0  3  0  0  0  0  0  0
   36.2540   23.3550   32.6970 H   0  0  0  0  0  0  0  0  0  0  0  0
   35.1850   24.5480   31.3120 N   0  0  0  0  0  0  0  0  0  0  0  0
   34.1900   24.7800   31.0370 H   0  0  0  0  0  0  0  0  0  0  0  0
  1  2  1  0  0  0  0
  2  3  2  0  0  0  0
  2  8  1  0  0  0  0
  3 10  1  0  0  0  0
  4  3  1  0  0  0  0
  5  4  2  0  0  0  0
  6  5  1  0  0  0  0
  6  1  2  0  0  0  0
  7  1  1  0  0  0  0
  9 14  1  0  0  0  0
 10  9  2  0  0  0  0
 10 11  1  0  0  0  0
 11 12  2  0  0  0  0
 12 13  1  0  0  0  0
 12 16  1  0  0  0  0
 13 17  1  0  0  0  0
 14 18  1  0  0  0  0
 14 13  2  0  0  0  0
 15 11  1  0  0  0  0
 20 19  2  0  0  0  0
 20  9  1  0  0  0  0
 21 20  1  0  0  0  0
 22 19  1  0  0  0  0
 23 21  1  0  0  0  0
 24 21  1  0  0  0  0
 26 25  2  0  0  0  0
 27 26  1  0  0  0  0
 27  5  1  1  0  0  0
 28 27  1  0  0  0  0
 28 30  1  0  0  0  0
 29 28  1  0  0  0  0
 30 31  1  0  0  0  0
 32 26  1  0  0  0  0
 32 30  1  0  0  0  0
 33 32  1  0  0  0  0
M  END
>  <minimizedAffinity>
-5.32879496

$$$$
