
 OpenBabel03272510263D

 45 49  0  0  1  0  0  0  0  0999 V2000
   39.3440   33.4550   43.0460 O   0  0  0  0  0  0  0  0  0  0  0  0
   36.1160   30.2260   46.7920 C   0  0  0  0  0  0  0  0  0  0  0  0
   36.9920   30.7960   47.7130 C   0  0  0  0  0  0  0  0  0  0  0  0
   37.9900   31.6780   47.3030 C   0  0  0  0  0  0  0  0  0  0  0  0
   38.0570   31.9500   45.9460 C   0  0  0  0  0  0  0  0  0  0  0  0
   38.9410   32.7720   45.3100 N   0  0  0  0  0  0  0  0  0  0  0  0
   38.6240   32.7180   44.0010 C   0  0  0  0  0  0  0  0  0  0  0  0
   37.6020   31.9140   43.8060 N   0  0  0  0  0  0  0  0  0  0  0  0
   37.2050   31.4040   44.9980 C   0  0  0  0  0  0  0  0  0  0  0  0
   36.2110   30.5210   45.4380 C   0  0  0  0  0  0  0  0  0  0  0  0
   35.3280   29.5380   47.0670 H   0  0  0  0  0  0  0  0  0  0  0  0
   38.6530   32.1070   48.0140 H   0  0  0  0  0  0  0  0  0  0  0  0
   39.7160   33.3340   45.7480 H   0  0  0  0  0  0  0  0  0  0  0  0
   35.5580   30.1070   44.6920 H   0  0  0  0  0  0  0  0  0  0  0  0
   37.4460   30.2960   51.3990 C   0  0  0  0  0  0  0  0  0  0  0  0
   37.7150   30.7180   50.1100 C   0  0  0  0  0  0  0  0  0  0  0  0
   36.8130   30.4120   49.0970 C   0  0  0  0  0  0  0  0  0  0  0  0
   35.7030   29.7050   49.4390 N   0  0  0  0  0  0  0  0  0  0  0  0
   35.4450   29.2950   50.6970 C   0  0  0  0  0  0  0  0  0  0  0  0
   36.3140   29.5920   51.6610 N   0  0  0  0  0  0  0  0  0  0  0  0
   38.1960   30.5730   52.1340 H   0  0  0  0  0  0  0  0  0  0  0  0
   38.6070   31.2870   49.8410 H   0  0  0  0  0  0  0  0  0  0  0  0
   34.5430   28.7330   50.9090 H   0  0  0  0  0  0  0  0  0  0  0  0
   38.8130   31.6570   41.7460 N   0  0  0  0  0  0  0  0  0  0  0  0
   39.1180   33.0790   41.6850 C   0  0  1  0  0  0  0  0  0  0  0  0
   37.9920   33.7990   41.1030 C   0  0  0  0  0  0  0  0  0  0  0  0
   37.8300   33.3780   39.7710 O   0  0  0  0  0  0  0  0  0  0  0  0
   37.7020   32.0330   39.5950 C   0  0  0  0  0  0  0  0  0  0  0  0
   38.7030   31.2180   40.3760 C   0  0  1  0  0  0  0  0  0  0  0  0
   39.6030   31.1880   42.2040 H   0  0  0  0  0  0  0  0  0  0  0  0
   40.0330   33.3220   41.1270 H   0  0  0  0  0  0  0  0  0  0  0  0
   38.3130   34.8790   40.9800 H   0  0  0  0  0  0  0  0  0  0  0  0
   37.0130   33.8290   41.4930 H   0  0  0  0  0  0  0  0  0  0  0  0
   37.7750   31.8090   38.5380 H   0  0  0  0  0  0  0  0  0  0  0  0
   36.6920   31.7180   39.9340 H   0  0  0  0  0  0  0  0  0  0  0  0
   38.3010   30.1830   40.4240 H   0  0  0  0  0  0  0  0  0  0  0  0
   41.5830   29.9160   41.2990 O   0  0  0  0  0  0  0  0  0  0  0  0
   40.7050   29.9250   40.4020 C   0  0  0  0  0  0  0  0  0  0  0  0
   40.0600   31.1220   39.7530 C   0  0  1  0  0  3  0  0  0  0  0  0
   40.0120   30.6230   38.3350 C   0  0  0  0  0  3  0  0  0  0  0  0
   41.0800   30.5620   37.9980 H   0  0  0  0  0  0  0  0  0  0  0  0
   39.5530   29.2060   38.5050 C   0  0  0  0  0  3  0  0  0  0  0  0
   38.4450   29.1150   38.4880 H   0  0  0  0  0  0  0  0  0  0  0  0
   40.1110   28.7870   39.7850 N   0  0  0  0  0  0  0  0  0  0  0  0
   40.0670   27.8150   40.1550 H   0  0  0  0  0  0  0  0  0  0  0  0
  1  7  1  0  0  0  0
  2 11  1  0  0  0  0
  2  3  1  0  0  0  0
  3 17  1  0  0  0  0
  4  3  2  0  0  0  0
  4 12  1  0  0  0  0
  5  4  1  0  0  0  0
  6 13  1  0  0  0  0
  6  5  1  0  0  0  0
  7  6  1  0  0  0  0
  8  7  2  0  0  0  0
  8  9  1  0  0  0  0
  9 10  1  0  0  0  0
  9  5  2  0  0  0  0
 10  2  2  0  0  0  0
 14 10  1  0  0  0  0
 15 20  1  0  0  0  0
 15 21  1  0  0  0  0
 16 15  2  0  0  0  0
 17 18  2  0  0  0  0
 17 16  1  0  0  0  0
 18 19  1  0  0  0  0
 19 23  1  0  0  0  0
 19 20  2  0  0  0  0
 22 16  1  0  0  0  0
 24 30  1  0  0  0  0
 25 31  1  6  0  0  0
 25 24  1  0  0  0  0
 25  1  1  0  0  0  0
 26 33  1  0  0  0  0
 26 25  1  0  0  0  0
 27 26  1  0  0  0  0
 28 27  1  0  0  0  0
 28 35  1  0  0  0  0
 28 29  1  0  0  0  0
 29 36  1  1  0  0  0
 29 24  1  0  0  0  0
 32 26  1  0  0  0  0
 34 28  1  0  0  0  0
 38 37  2  0  0  0  0
 39 40  1  6  0  0  0
 39 29  1  0  0  0  0
 39 38  1  0  0  0  0
 40 42  1  0  0  0  0
 41 40  1  0  0  0  0
 42 44  1  0  0  0  0
 43 42  1  0  0  0  0
 44 45  1  0  0  0  0
 44 38  1  0  0  0  0
M  END
>  <minimizedAffinity>
-5.81329966

>  <minimizedRMSD>
0.95163846

$$$$
