
 OpenBabel03272508303D

 32 34  0  0  1  0  0  0  0  0999 V2000
   36.3640   30.2640   46.8360 N   0  0  0  0  0  0  0  0  0  0  0  0
   35.6380   30.4990   45.5950 C   0  0  0  0  0  0  0  0  0  0  0  0
   36.5300   30.5700   44.4110 C   0  0  0  0  0  0  0  0  0  0  0  0
   37.7470   29.8780   44.6580 N   0  0  0  0  0  0  0  0  0  0  0  0
   38.4660   30.6890   45.6620 C   0  0  0  0  0  0  0  0  0  0  0  0
   37.8150   30.2900   46.9530 C   0  0  1  0  0  0  0  0  0  0  0  0
   34.8910   29.6780   45.4180 H   0  0  0  0  0  0  0  0  0  0  0  0
   35.0380   31.4270   45.6340 H   0  0  0  0  0  0  0  0  0  0  0  0
   36.0540   30.0640   43.5210 H   0  0  0  0  0  0  0  0  0  0  0  0
   36.7410   31.6120   44.1270 H   0  0  0  0  0  0  0  0  0  0  0  0
   38.3630   29.9440   43.8100 H   0  0  0  0  0  0  0  0  0  0  0  0
   39.5160   30.3650   45.6940 H   0  0  0  0  0  0  0  0  0  0  0  0
   38.3640   31.7730   45.4440 H   0  0  0  0  0  0  0  0  0  0  0  0
   38.1180   29.2420   47.1640 H   0  0  0  0  0  0  0  0  0  0  0  0
   35.5050   28.6790   48.5100 C   0  0  0  0  0  0  0  0  0  0  0  0
   35.6240   29.9920   48.0200 C   0  0  0  0  0  0  0  0  0  0  0  0
   35.0070   31.0370   48.7300 C   0  0  0  0  0  0  0  0  0  0  0  0
   34.3200   30.6880   49.8750 N   0  0  0  0  0  0  0  0  0  0  0  0
   34.2410   29.4030   50.2980 C   0  0  0  0  0  0  0  0  0  0  0  0
   34.8210   28.3890   49.6370 N   0  0  0  0  0  0  0  0  0  0  0  0
   35.9640   27.8560   47.9900 H   0  0  0  0  0  0  0  0  0  0  0  0
   35.0720   32.0460   48.3920 H   0  0  0  0  0  0  0  0  0  0  0  0
   33.6530   29.3950   51.2130 H   0  0  0  0  0  0  0  0  0  0  0  0
   38.0030   29.2760   49.9900 O   0  0  0  0  0  0  0  0  0  0  0  0
   38.1670   30.4050   49.4120 C   0  0  0  0  0  0  0  0  0  0  0  0
   38.2680   31.1190   48.1210 C   0  0  2  0  0  3  0  0  0  0  0  0
   37.3420   32.2810   48.3990 C   0  0  0  0  0  3  0  0  0  0  0  0
   36.3390   31.8460   48.5800 H   0  0  0  0  0  0  0  0  0  0  0  0
   37.9200   32.7490   49.7420 C   0  0  0  0  0  3  0  0  0  0  0  0
   38.8190   33.3600   49.5870 H   0  0  0  0  0  0  0  0  0  0  0  0
   38.3270   31.4790   50.3640 N   0  0  0  0  0  0  0  0  0  0  0  0
   38.6420   31.6410   51.3630 H   0  0  0  0  0  0  0  0  0  0  0  0
  1  6  1  0  0  0  0
  1 16  1  0  0  0  0
  2  8  1  0  0  0  0
  2  1  1  0  0  0  0
  3  4  1  0  0  0  0
  3  2  1  0  0  0  0
  4  5  1  0  0  0  0
  5 12  1  0  0  0  0
  5  6  1  0  0  0  0
  6 14  1  1  0  0  0
  6 26  1  0  0  0  0
  7  2  1  0  0  0  0
  9  3  1  0  0  0  0
 10  3  1  0  0  0  0
 11  4  1  0  0  0  0
 13  5  1  0  0  0  0
 15 20  1  0  0  0  0
 16 15  2  0  0  0  0
 16 17  1  0  0  0  0
 17 18  2  0  0  0  0
 18 19  1  0  0  0  0
 19 23  1  0  0  0  0
 20 19  2  0  0  0  0
 21 15  1  0  0  0  0
 22 17  1  0  0  0  0
 25 24  2  0  0  0  0
 25 31  1  0  0  0  0
 26 27  1  1  0  0  0
 26 25  1  0  0  0  0
 27 28  1  0  0  0  0
 27 29  1  0  0  0  0
 29 31  1  0  0  0  0
 30 29  1  0  0  0  0
 31 32  1  0  0  0  0
M  END
>  <minimizedAffinity>
-3.22153687

>  <minimizedRMSD>
2.63958001

$$$$
