
 OpenBabel03262521283D

 30 32  0  0  1  0  0  0  0  0999 V2000
   37.8060   31.6460   47.5100 N   0  0  0  0  0  0  0  0  0  0  0  0
   39.1110   32.0770   47.9140 C   0  0  0  0  0  0  0  0  0  0  0  0
   38.8240   32.9190   49.1650 C   0  0  0  0  0  0  0  0  0  0  0  0
   37.3200   32.8160   49.4020 C   0  0  0  0  0  0  0  0  0  0  0  0
   37.0450   31.4910   48.7200 C   0  0  2  0  0  0  0  0  0  0  0  0
   39.6020   32.7620   47.2000 H   0  0  0  0  0  0  0  0  0  0  0  0
   39.7790   31.2260   48.1600 H   0  0  0  0  0  0  0  0  0  0  0  0
   39.0890   33.9760   49.0380 H   0  0  0  0  0  0  0  0  0  0  0  0
   39.4270   32.5190   49.9840 H   0  0  0  0  0  0  0  0  0  0  0  0
   37.0420   32.8550   50.4520 H   0  0  0  0  0  0  0  0  0  0  0  0
   36.8480   33.5910   48.7670 H   0  0  0  0  0  0  0  0  0  0  0  0
   35.9590   31.4560   48.5020 H   0  0  0  0  0  0  0  0  0  0  0  0
   37.3430   31.4140   46.1890 C   0  0  0  0  0  0  0  0  0  0  0  0
   37.8790   32.2100   45.1720 C   0  0  0  0  0  0  0  0  0  0  0  0
   37.4370   31.9950   43.8640 C   0  0  0  0  0  0  0  0  0  0  0  0
   36.5010   31.0150   43.6540 N   0  0  0  0  0  0  0  0  0  0  0  0
   36.0080   30.2690   44.6580 C   0  0  0  0  0  0  0  0  0  0  0  0
   36.4390   30.4780   45.9340 N   0  0  0  0  0  0  0  0  0  0  0  0
   38.6030   32.9740   45.3160 H   0  0  0  0  0  0  0  0  0  0  0  0
   37.8250   32.5880   43.0450 H   0  0  0  0  0  0  0  0  0  0  0  0
   35.2730   29.5110   44.4300 H   0  0  0  0  0  0  0  0  0  0  0  0
   35.8400   28.8400   48.7310 O   0  0  0  0  0  0  0  0  0  0  0  0
   36.3120   29.4190   49.7740 C   0  0  0  0  0  0  0  0  0  0  0  0
   37.4690   30.3170   49.5460 C   0  0  2  0  0  0  0  0  0  0  0  0
   37.9050   30.6660   50.9230 C   0  0  0  0  0  0  0  0  0  0  0  0
   39.0000   30.6060   51.0950 H   0  0  0  0  0  0  0  0  0  0  0  0
   37.2910   29.5680   51.7600 C   0  0  0  0  0  0  0  0  0  0  0  0
   37.8340   28.6070   51.5440 H   0  0  0  0  0  0  0  0  0  0  0  0
   35.9710   29.4060   51.1770 N   0  0  0  0  0  0  0  0  0  0  0  0
   34.9370   29.2900   51.3900 H   0  0  0  0  0  0  0  0  0  0  0  0
  1  2  1  0  0  0  0
  1  5  1  0  0  0  0
  2  7  1  0  0  0  0
  2  3  1  0  0  0  0
  3  4  1  0  0  0  0
  3  9  1  0  0  0  0
  4 10  1  0  0  0  0
  5 12  1  6  0  0  0
  5  4  1  0  0  0  0
  5 24  1  0  0  0  0
  6  2  1  0  0  0  0
  8  3  1  0  0  0  0
 11  4  1  0  0  0  0
 13  1  1  0  0  0  0
 14 19  1  0  0  0  0
 14 13  2  0  0  0  0
 15 14  1  0  0  0  0
 16 15  2  0  0  0  0
 16 17  1  0  0  0  0
 17 18  2  0  0  0  0
 18 13  1  0  0  0  0
 20 15  1  0  0  0  0
 21 17  1  0  0  0  0
 22 23  2  0  0  0  0
 23 29  1  0  0  0  0
 24 23  1  1  0  0  0
 24 25  1  0  0  0  0
 25 26  1  0  0  0  0
 25 27  1  0  0  0  0
 28 27  1  0  0  0  0
 29 30  1  0  0  0  0
 29 27  1  0  0  0  0
M  END
>  <minimizedAffinity>
-5.22960091

>  <minimizedRMSD>
3.79806852

$$$$
