
 OpenBabel03272504323D

 40 43  0  0  1  0  0  0  0  0999 V2000
   35.1150   29.6380   47.5400 C   0  0  0  0  0  0  0  0  0  0  0  0
   35.2990   30.0130   46.2180 C   0  0  0  0  0  0  0  0  0  0  0  0
   34.2740   29.8590   45.3000 C   0  0  0  0  0  0  0  0  0  0  0  0
   33.1010   29.3320   45.7550 N   0  0  0  0  0  0  0  0  0  0  0  0
   32.9500   28.9750   47.0520 C   0  0  0  0  0  0  0  0  0  0  0  0
   33.9430   29.1220   47.9430 N   0  0  0  0  0  0  0  0  0  0  0  0
   36.2610   30.4180   45.9670 H   0  0  0  0  0  0  0  0  0  0  0  0
   34.4250   30.1550   44.2740 H   0  0  0  0  0  0  0  0  0  0  0  0
   36.1310   29.7700   48.5360 N   0  0  0  0  0  0  0  0  0  0  0  0
   36.1970   28.9030   49.7050 C   0  0  0  0  0  0  0  0  0  0  0  0
   36.4850   29.6040   50.9920 C   0  0  0  0  0  0  0  0  0  0  0  0
   37.2190   30.8020   50.9340 N   0  0  0  0  0  0  0  0  0  0  0  0
   36.9580   31.6040   49.7490 C   0  0  0  0  0  0  0  0  0  0  0  0
   37.1960   30.7110   48.5640 C   0  0  0  0  0  0  0  0  0  0  0  0
   36.9840   28.1300   49.4810 H   0  0  0  0  0  0  0  0  0  0  0  0
   35.2380   28.3320   49.7640 H   0  0  0  0  0  0  0  0  0  0  0  0
   35.5070   29.7570   51.5190 H   0  0  0  0  0  0  0  0  0  0  0  0
   37.0430   28.8780   51.6500 H   0  0  0  0  0  0  0  0  0  0  0  0
   38.2310   30.7570   51.1800 H   0  0  0  0  0  0  0  0  0  0  0  0
   35.9440   32.0090   49.7530 H   0  0  0  0  0  0  0  0  0  0  0  0
   37.7540   32.3870   49.7460 H   0  0  0  0  0  0  0  0  0  0  0  0
   38.1670   30.1860   48.6630 H   0  0  0  0  0  0  0  0  0  0  0  0
   37.2060   31.2940   47.6370 H   0  0  0  0  0  0  0  0  0  0  0  0
   31.6650   28.4150   47.4700 C   0  0  0  0  0  0  0  0  0  0  0  0
   31.6240   27.3560   48.3560 C   0  0  0  0  0  0  0  0  0  0  0  0
   30.4460   26.7790   48.7940 C   0  0  0  0  0  0  0  0  0  0  0  0
   29.3140   27.3190   48.2950 N   0  0  0  0  0  0  0  0  0  0  0  0
   29.3600   28.3530   47.4300 C   0  0  0  0  0  0  0  0  0  0  0  0
   30.5100   28.9110   47.0070 N   0  0  0  0  0  0  0  0  0  0  0  0
   32.5570   26.9520   48.7330 H   0  0  0  0  0  0  0  0  0  0  0  0
   30.4800   25.9520   49.4880 H   0  0  0  0  0  0  0  0  0  0  0  0
   26.5510   27.4560   48.1890 O   0  0  0  0  0  0  0  0  0  0  0  0
   26.9210   28.0880   47.1500 C   0  0  0  0  0  0  0  0  0  0  0  0
   28.1000   28.9330   46.8930 C   0  0  2  0  0  3  0  0  0  0  0  0
   28.1160   28.9980   45.3700 C   0  0  0  0  0  3  0  0  0  0  0  0
   28.5280   28.0570   45.0040 H   0  0  0  0  0  0  0  0  0  0  0  0
   26.6220   29.0750   45.0770 C   0  0  0  0  0  3  0  0  0  0  0  0
   26.2660   30.0700   45.3840 H   0  0  0  0  0  0  0  0  0  0  0  0
   26.1220   28.0320   45.9750 N   0  0  0  0  0  0  0  0  0  0  0  0
   25.3130   27.3990   45.7200 H   0  0  0  0  0  0  0  0  0  0  0  0
  1  6  1  0  0  0  0
  1  9  1  0  0  0  0
  2  1  2  0  0  0  0
  3  4  2  0  0  0  0
  3  2  1  0  0  0  0
  4  5  1  0  0  0  0
  5 24  1  0  0  0  0
  5  6  2  0  0  0  0
  7  2  1  0  0  0  0
  8  3  1  0  0  0  0
  9 14  1  0  0  0  0
  9 10  1  0  0  0  0
 10 16  1  0  0  0  0
 10 11  1  0  0  0  0
 11 17  1  0  0  0  0
 11 18  1  0  0  0  0
 12 11  1  0  0  0  0
 12 19  1  0  0  0  0
 13 20  1  0  0  0  0
 13 12  1  0  0  0  0
 14 22  1  0  0  0  0
 14 13  1  0  0  0  0
 15 10  1  0  0  0  0
 21 13  1  0  0  0  0
 23 14  1  0  0  0  0
 24 25  1  0  0  0  0
 25 30  1  0  0  0  0
 25 26  2  0  0  0  0
 26 31  1  0  0  0  0
 27 26  1  0  0  0  0
 28 27  2  0  0  0  0
 29 28  1  0  0  0  0
 29 24  2  0  0  0  0
 33 32  2  0  0  0  0
 34 33  1  0  0  0  0
 34 28  1  6  0  0  0
 35 34  1  0  0  0  0
 36 35  1  0  0  0  0
 37 35  1  0  0  0  0
 37 38  1  0  0  0  0
 37 39  1  0  0  0  0
 39 33  1  0  0  0  0
 40 39  1  0  0  0  0
M  END
>  <minimizedAffinity>
-5.70354462

>  <minimizedRMSD>
0.490655184

$$$$
