
 OpenBabel03272503403D

 41 44  0  0  1  0  0  0  0  0999 V2000
   39.6870   31.4040   41.5630 C   0  0  2  0  0  0  0  0  0  0  0  0
   39.5380   32.4780   42.6150 C   0  0  1  0  0  0  0  0  0  0  0  0
   38.3270   33.1870   42.0410 C   0  0  0  0  0  0  0  0  0  0  0  0
   38.4180   33.1330   40.6710 O   0  0  0  0  0  0  0  0  0  0  0  0
   39.4140   32.2770   40.3240 C   0  0  0  0  0  0  0  0  0  0  0  0
   40.6560   30.9250   41.4920 H   0  0  0  0  0  0  0  0  0  0  0  0
   40.3710   33.1760   42.6460 H   0  0  0  0  0  0  0  0  0  0  0  0
   38.2690   34.2250   42.3820 H   0  0  0  0  0  0  0  0  0  0  0  0
   37.4340   32.5850   42.3450 H   0  0  0  0  0  0  0  0  0  0  0  0
   40.3460   32.8670   40.1780 H   0  0  0  0  0  0  0  0  0  0  0  0
   39.2730   31.6730   39.4260 H   0  0  0  0  0  0  0  0  0  0  0  0
   38.3420   31.1660   45.7310 C   0  0  0  0  0  0  0  0  0  0  0  0
   39.6590   30.9130   45.8630 C   0  0  0  0  0  0  0  0  0  0  0  0
   40.2230   31.3970   44.6790 C   0  0  0  0  0  0  0  0  0  0  0  0
   39.2550   31.9060   43.9040 N   0  0  0  0  0  0  0  0  0  0  0  0
   38.0900   31.7710   44.5410 N   0  0  0  0  0  0  0  0  0  0  0  0
   40.1330   30.4340   46.7210 H   0  0  0  0  0  0  0  0  0  0  0  0
   41.2980   31.3420   44.4690 H   0  0  0  0  0  0  0  0  0  0  0  0
   36.5000   30.6180   48.9600 C   0  0  0  0  0  0  0  0  0  0  0  0
   37.4930   30.9380   48.0670 C   0  0  0  0  0  0  0  0  0  0  0  0
   37.3200   30.8410   46.7120 C   0  0  0  0  0  0  0  0  0  0  0  0
   36.0950   30.4020   46.2950 N   0  0  0  0  0  0  0  0  0  0  0  0
   35.1170   30.0880   47.1940 C   0  0  0  0  0  0  0  0  0  0  0  0
   35.3110   30.1910   48.4970 N   0  0  0  0  0  0  0  0  0  0  0  0
   38.4910   31.2940   48.3610 H   0  0  0  0  0  0  0  0  0  0  0  0
   34.1620   29.7460   46.8760 H   0  0  0  0  0  0  0  0  0  0  0  0
   36.8700   30.7840   50.2900 O   0  0  0  0  0  0  0  0  0  0  0  0
   36.9310   29.7350   51.2220 C   0  0  0  0  0  0  0  0  0  0  0  0
   35.6630   29.2970   51.6020 F   0  0  0  0  0  0  0  0  0  0  0  0
   37.6540   30.1260   52.3040 F   0  0  0  0  0  0  0  0  0  0  0  0
   37.5890   28.6590   50.6300 F   0  0  0  0  0  0  0  0  0  0  0  0
   38.6260   30.5070   41.7090 O   0  0  0  0  0  0  0  0  0  0  0  0
   39.0650   28.0900   43.8220 O   0  0  0  0  0  0  0  0  0  0  0  0
   39.0190   28.3700   42.5760 C   0  0  0  0  0  0  0  0  0  0  0  0
   39.0000   29.2140   41.3680 C   0  0  1  0  0  3  0  0  0  0  0  0
   37.8740   28.5600   40.5730 C   0  0  0  0  0  3  0  0  0  0  0  0
   37.8560   28.8330   39.5200 H   0  0  0  0  0  0  0  0  0  0  0  0
   38.2730   27.0790   40.6340 C   0  0  0  0  0  3  0  0  0  0  0  0
   38.9670   26.9080   39.8060 H   0  0  0  0  0  0  0  0  0  0  0  0
   38.9270   27.0670   41.9360 N   0  0  0  0  0  0  0  0  0  0  0  0
   39.1760   26.0500   42.0780 H   0  0  0  0  0  0  0  0  0  0  0  0
  1  6  1  6  0  0  0
  1 32  1  0  0  0  0
  1  2  1  0  0  0  0
  2  7  1  1  0  0  0
  2 15  1  0  0  0  0
  3  9  1  0  0  0  0
  3  8  1  0  0  0  0
  3  2  1  0  0  0  0
  4  3  1  0  0  0  0
  5  4  1  0  0  0  0
  5  1  1  0  0  0  0
 10  5  1  0  0  0  0
 11  5  1  0  0  0  0
 12 13  1  0  0  0  0
 12 21  1  0  0  0  0
 13 17  1  0  0  0  0
 14 13  2  0  0  0  0
 15 16  1  0  0  0  0
 15 14  1  0  0  0  0
 16 12  2  0  0  0  0
 18 14  1  0  0  0  0
 19 27  1  0  0  0  0
 20 25  1  0  0  0  0
 20 19  2  0  0  0  0
 21 20  1  0  0  0  0
 22 21  2  0  0  0  0
 22 23  1  0  0  0  0
 23 24  2  0  0  0  0
 24 19  1  0  0  0  0
 26 23  1  0  0  0  0
 27 28  1  0  0  0  0
 28 29  1  0  0  0  0
 28 30  1  0  0  0  0
 31 28  1  0  0  0  0
 34 33  2  0  0  0  0
 35 32  1  1  0  0  0
 35 34  1  0  0  0  0
 36 38  1  0  0  0  0
 36 35  1  0  0  0  0
 37 36  1  0  0  0  0
 38 40  1  0  0  0  0
 39 38  1  0  0  0  0
 40 41  1  0  0  0  0
 40 34  1  0  0  0  0
M  END
>  <minimizedAffinity>
-5.79755068

>  <minimizedRMSD>
0.861572325

$$$$
