
 OpenBabel03272503403D

 41 44  0  0  1  0  0  0  0  0999 V2000
   39.7960   31.2150   41.7680 C   0  0  2  0  0  0  0  0  0  0  0  0
   39.6490   32.3640   42.7380 C   0  0  1  0  0  0  0  0  0  0  0  0
   38.4550   33.0450   42.0980 C   0  0  0  0  0  0  0  0  0  0  0  0
   38.5620   32.8910   40.7370 O   0  0  0  0  0  0  0  0  0  0  0  0
   39.5510   32.0000   40.4650 C   0  0  0  0  0  0  0  0  0  0  0  0
   40.7600   30.7210   41.7450 H   0  0  0  0  0  0  0  0  0  0  0  0
   40.4900   33.0520   42.7290 H   0  0  0  0  0  0  0  0  0  0  0  0
   38.4060   34.1050   42.3620 H   0  0  0  0  0  0  0  0  0  0  0  0
   37.5500   32.4770   42.4330 H   0  0  0  0  0  0  0  0  0  0  0  0
   40.4920   32.5660   40.2890 H   0  0  0  0  0  0  0  0  0  0  0  0
   39.4130   31.3340   39.6120 H   0  0  0  0  0  0  0  0  0  0  0  0
   38.3930   31.2330   45.9010 C   0  0  0  0  0  0  0  0  0  0  0  0
   39.7180   31.1410   46.1300 C   0  0  0  0  0  0  0  0  0  0  0  0
   40.3050   31.5690   44.9370 C   0  0  0  0  0  0  0  0  0  0  0  0
   39.3430   31.8900   44.0610 N   0  0  0  0  0  0  0  0  0  0  0  0
   38.1580   31.6890   44.6420 N   0  0  0  0  0  0  0  0  0  0  0  0
   40.1820   30.8020   47.0580 H   0  0  0  0  0  0  0  0  0  0  0  0
   41.3910   31.6130   44.7930 H   0  0  0  0  0  0  0  0  0  0  0  0
   36.4750   30.6330   49.0750 C   0  0  0  0  0  0  0  0  0  0  0  0
   37.4890   30.9680   48.2110 C   0  0  0  0  0  0  0  0  0  0  0  0
   37.3480   30.8910   46.8510 C   0  0  0  0  0  0  0  0  0  0  0  0
   36.1330   30.4590   46.3980 N   0  0  0  0  0  0  0  0  0  0  0  0
   35.1350   30.1310   47.2680 C   0  0  0  0  0  0  0  0  0  0  0  0
   35.2970   30.2130   48.5770 N   0  0  0  0  0  0  0  0  0  0  0  0
   38.4790   31.3190   48.5350 H   0  0  0  0  0  0  0  0  0  0  0  0
   34.1880   29.7940   46.9220 H   0  0  0  0  0  0  0  0  0  0  0  0
   36.8130   30.7770   50.4160 O   0  0  0  0  0  0  0  0  0  0  0  0
   36.8760   29.7100   51.3270 C   0  0  0  0  0  0  0  0  0  0  0  0
   35.6100   29.2230   51.6520 F   0  0  0  0  0  0  0  0  0  0  0  0
   37.5470   30.1000   52.4420 F   0  0  0  0  0  0  0  0  0  0  0  0
   37.5890   28.6700   50.7360 F   0  0  0  0  0  0  0  0  0  0  0  0
   38.7220   30.3450   41.9640 O   0  0  0  0  0  0  0  0  0  0  0  0
   36.8170   28.0380   43.2130 O   0  0  0  0  0  0  0  0  0  0  0  0
   37.9990   28.2770   42.7880 C   0  0  0  0  0  0  0  0  0  0  0  0
   39.1520   29.0810   42.3470 C   0  0  1  0  0  3  0  0  0  0  0  0
   39.5920   28.3060   41.1070 C   0  0  0  0  0  3  0  0  0  0  0  0
   40.5970   28.5450   40.7650 H   0  0  0  0  0  0  0  0  0  0  0  0
   39.6440   26.8700   41.6450 C   0  0  0  0  0  3  0  0  0  0  0  0
   40.6360   26.7370   42.0880 H   0  0  0  0  0  0  0  0  0  0  0  0
   38.5840   26.9540   42.6410 N   0  0  0  0  0  0  0  0  0  0  0  0
   38.5170   25.9680   43.0150 H   0  0  0  0  0  0  0  0  0  0  0  0
  1  6  1  1  0  0  0
  1 32  1  0  0  0  0
  1  2  1  0  0  0  0
  2  7  1  6  0  0  0
  2 15  1  0  0  0  0
  3  8  1  0  0  0  0
  3  9  1  0  0  0  0
  3  2  1  0  0  0  0
  4  3  1  0  0  0  0
  5  4  1  0  0  0  0
  5  1  1  0  0  0  0
 10  5  1  0  0  0  0
 11  5  1  0  0  0  0
 12 13  1  0  0  0  0
 12 21  1  0  0  0  0
 13 17  1  0  0  0  0
 14 13  2  0  0  0  0
 15 16  1  0  0  0  0
 15 14  1  0  0  0  0
 16 12  2  0  0  0  0
 18 14  1  0  0  0  0
 19 27  1  0  0  0  0
 20 25  1  0  0  0  0
 20 19  2  0  0  0  0
 21 20  1  0  0  0  0
 22 21  2  0  0  0  0
 22 23  1  0  0  0  0
 23 24  2  0  0  0  0
 24 19  1  0  0  0  0
 26 23  1  0  0  0  0
 27 28  1  0  0  0  0
 28 29  1  0  0  0  0
 28 30  1  0  0  0  0
 31 28  1  0  0  0  0
 34 33  2  0  0  0  0
 35 32  1  6  0  0  0
 35 34  1  0  0  0  0
 36 38  1  0  0  0  0
 36 35  1  0  0  0  0
 37 36  1  0  0  0  0
 38 39  1  0  0  0  0
 38 40  1  0  0  0  0
 40 34  1  0  0  0  0
 40 41  1  0  0  0  0
M  END
>  <minimizedAffinity>
-6.02562189

>  <minimizedRMSD>
0.425282866

$$$$
