
 OpenBabel03272503403D

 41 44  0  0  1  0  0  0  0  0999 V2000
   40.0700   30.8670   41.8540 C   0  0  2  0  0  0  0  0  0  0  0  0
   39.8350   32.0740   42.7300 C   0  0  1  0  0  0  0  0  0  0  0  0
   38.6440   32.6570   41.9940 C   0  0  0  0  0  0  0  0  0  0  0  0
   38.8180   32.4120   40.6530 O   0  0  0  0  0  0  0  0  0  0  0  0
   39.8520   31.5460   40.4880 C   0  0  0  0  0  0  0  0  0  0  0  0
   41.0530   30.4130   41.9070 H   0  0  0  0  0  0  0  0  0  0  0  0
   40.6480   32.7950   42.7070 H   0  0  0  0  0  0  0  0  0  0  0  0
   38.5420   33.7300   42.1780 H   0  0  0  0  0  0  0  0  0  0  0  0
   37.7480   32.0760   42.3310 H   0  0  0  0  0  0  0  0  0  0  0  0
   40.7780   32.1380   40.3110 H   0  0  0  0  0  0  0  0  0  0  0  0
   39.7790   30.8160   39.6800 H   0  0  0  0  0  0  0  0  0  0  0  0
   38.4820   31.1320   45.9160 C   0  0  0  0  0  0  0  0  0  0  0  0
   39.8000   31.0750   46.1960 C   0  0  0  0  0  0  0  0  0  0  0  0
   40.4230   31.4330   44.9980 C   0  0  0  0  0  0  0  0  0  0  0  0
   39.4880   31.6830   44.0710 N   0  0  0  0  0  0  0  0  0  0  0  0
   38.2870   31.5010   44.6230 N   0  0  0  0  0  0  0  0  0  0  0  0
   40.2350   30.8040   47.1600 H   0  0  0  0  0  0  0  0  0  0  0  0
   41.5130   31.4840   44.8880 H   0  0  0  0  0  0  0  0  0  0  0  0
   36.4880   30.6300   49.0600 C   0  0  0  0  0  0  0  0  0  0  0  0
   37.5290   30.9200   48.2120 C   0  0  0  0  0  0  0  0  0  0  0  0
   37.4090   30.8370   46.8500 C   0  0  0  0  0  0  0  0  0  0  0  0
   36.1880   30.4450   46.3790 N   0  0  0  0  0  0  0  0  0  0  0  0
   35.1630   30.1600   47.2340 C   0  0  0  0  0  0  0  0  0  0  0  0
   35.3050   30.2490   48.5450 N   0  0  0  0  0  0  0  0  0  0  0  0
   38.5260   31.2380   48.5500 H   0  0  0  0  0  0  0  0  0  0  0  0
   34.2100   29.8550   46.8740 H   0  0  0  0  0  0  0  0  0  0  0  0
   36.8080   30.7750   50.4050 O   0  0  0  0  0  0  0  0  0  0  0  0
   36.8610   29.7080   51.3170 C   0  0  0  0  0  0  0  0  0  0  0  0
   35.5920   29.2200   51.6290 F   0  0  0  0  0  0  0  0  0  0  0  0
   37.5210   30.0970   52.4390 F   0  0  0  0  0  0  0  0  0  0  0  0
   37.5800   28.6670   50.7330 F   0  0  0  0  0  0  0  0  0  0  0  0
   39.0230   29.9680   42.0670 O   0  0  0  0  0  0  0  0  0  0  0  0
   39.7330   26.9140   42.8900 O   0  0  0  0  0  0  0  0  0  0  0  0
   39.3450   27.6550   41.9230 C   0  0  0  0  0  0  0  0  0  0  0  0
   39.0790   28.9000   41.1810 C   0  0  1  0  0  3  0  0  0  0  0  0
   37.6780   28.6230   40.6420 C   0  0  0  0  0  3  0  0  0  0  0  0
   37.3760   29.2820   39.8300 H   0  0  0  0  0  0  0  0  0  0  0  0
   37.8540   27.2270   40.0300 C   0  0  0  0  0  3  0  0  0  0  0  0
   38.2230   27.3770   39.0110 H   0  0  0  0  0  0  0  0  0  0  0  0
   38.8690   26.7030   40.9330 N   0  0  0  0  0  0  0  0  0  0  0  0
   38.9970   25.7050   40.6080 H   0  0  0  0  0  0  0  0  0  0  0  0
  1  6  1  1  0  0  0
  1 32  1  0  0  0  0
  1  2  1  0  0  0  0
  2  7  1  6  0  0  0
  2 15  1  0  0  0  0
  3  8  1  0  0  0  0
  3  9  1  0  0  0  0
  3  2  1  0  0  0  0
  4  3  1  0  0  0  0
  5  4  1  0  0  0  0
  5  1  1  0  0  0  0
 10  5  1  0  0  0  0
 11  5  1  0  0  0  0
 12 13  1  0  0  0  0
 12 21  1  0  0  0  0
 13 17  1  0  0  0  0
 14 13  2  0  0  0  0
 15 16  1  0  0  0  0
 15 14  1  0  0  0  0
 16 12  2  0  0  0  0
 18 14  1  0  0  0  0
 19 27  1  0  0  0  0
 20 25  1  0  0  0  0
 20 19  2  0  0  0  0
 21 20  1  0  0  0  0
 22 21  2  0  0  0  0
 22 23  1  0  0  0  0
 23 24  2  0  0  0  0
 24 19  1  0  0  0  0
 26 23  1  0  0  0  0
 27 28  1  0  0  0  0
 28 29  1  0  0  0  0
 28 30  1  0  0  0  0
 31 28  1  0  0  0  0
 34 33  2  0  0  0  0
 35 34  1  0  0  0  0
 35 32  1  1  0  0  0
 36 35  1  0  0  0  0
 37 36  1  0  0  0  0
 38 36  1  0  0  0  0
 38 40  1  0  0  0  0
 39 38  1  0  0  0  0
 40 34  1  0  0  0  0
 41 40  1  0  0  0  0
M  END
>  <minimizedAffinity>
-6.03383636

>  <minimizedRMSD>
0.975365758

$$$$
