
 OpenBabel03272503403D

 41 44  0  0  1  0  0  0  0  0999 V2000
   40.8250   29.9160   42.4780 C   0  0  2  0  0  0  0  0  0  0  0  0
   40.3730   31.2470   43.0320 C   0  0  1  0  0  0  0  0  0  0  0  0
   39.4770   31.6730   41.8850 C   0  0  0  0  0  0  0  0  0  0  0  0
   40.0400   31.2140   40.7190 O   0  0  0  0  0  0  0  0  0  0  0  0
   41.0500   30.3560   41.0190 C   0  0  0  0  0  0  0  0  0  0  0  0
   41.7330   29.4990   42.9000 H   0  0  0  0  0  0  0  0  0  0  0  0
   41.1760   31.9710   43.1380 H   0  0  0  0  0  0  0  0  0  0  0  0
   39.3560   32.7600   41.8510 H   0  0  0  0  0  0  0  0  0  0  0  0
   38.5050   31.1370   42.0260 H   0  0  0  0  0  0  0  0  0  0  0  0
   42.0030   30.9300   41.0360 H   0  0  0  0  0  0  0  0  0  0  0  0
   41.2020   29.5010   40.3580 H   0  0  0  0  0  0  0  0  0  0  0  0
   38.1020   30.7610   45.7660 C   0  0  0  0  0  0  0  0  0  0  0  0
   39.2540   30.9220   46.4460 C   0  0  0  0  0  0  0  0  0  0  0  0
   40.2160   31.1220   45.4530 C   0  0  0  0  0  0  0  0  0  0  0  0
   39.6270   31.0750   44.2500 N   0  0  0  0  0  0  0  0  0  0  0  0
   38.3220   30.8530   44.4280 N   0  0  0  0  0  0  0  0  0  0  0  0
   39.3620   30.8930   47.5320 H   0  0  0  0  0  0  0  0  0  0  0  0
   41.2760   31.2860   45.6790 H   0  0  0  0  0  0  0  0  0  0  0  0
   35.2970   30.3300   48.2290 C   0  0  0  0  0  0  0  0  0  0  0  0
   36.5450   30.5700   47.7060 C   0  0  0  0  0  0  0  0  0  0  0  0
   36.7990   30.5170   46.3620 C   0  0  0  0  0  0  0  0  0  0  0  0
   35.7340   30.2080   45.5630 N   0  0  0  0  0  0  0  0  0  0  0  0
   34.5000   29.9720   46.0950 C   0  0  0  0  0  0  0  0  0  0  0  0
   34.2820   30.0300   47.3970 N   0  0  0  0  0  0  0  0  0  0  0  0
   37.4260   30.8210   48.3140 H   0  0  0  0  0  0  0  0  0  0  0  0
   33.6680   29.7320   45.4790 H   0  0  0  0  0  0  0  0  0  0  0  0
   35.2430   30.4330   49.6140 O   0  0  0  0  0  0  0  0  0  0  0  0
   34.7840   29.4080   50.4570 C   0  0  0  0  0  0  0  0  0  0  0  0
   33.4450   29.5780   50.8090 F   0  0  0  0  0  0  0  0  0  0  0  0
   35.5710   29.3380   51.5630 F   0  0  0  0  0  0  0  0  0  0  0  0
   34.8890   28.1980   49.7760 F   0  0  0  0  0  0  0  0  0  0  0  0
   39.7370   29.0420   42.5100 O   0  0  0  0  0  0  0  0  0  0  0  0
   39.0950   26.0880   43.6780 O   0  0  0  0  0  0  0  0  0  0  0  0
   39.5110   26.7170   42.6460 C   0  0  0  0  0  0  0  0  0  0  0  0
   40.0190   27.8510   41.8540 C   0  0  1  0  0  3  0  0  0  0  0  0
   39.1460   27.7480   40.6060 C   0  0  0  0  0  3  0  0  0  0  0  0
   39.5230   28.3090   39.7520 H   0  0  0  0  0  0  0  0  0  0  0  0
   39.2890   26.2620   40.2510 C   0  0  0  0  0  3  0  0  0  0  0  0
   40.1910   26.1730   39.6370 H   0  0  0  0  0  0  0  0  0  0  0  0
   39.4580   25.7170   41.5910 N   0  0  0  0  0  0  0  0  0  0  0  0
   39.5010   24.6740   41.4310 H   0  0  0  0  0  0  0  0  0  0  0  0
  1 32  1  0  0  0  0
  1  6  1  1  0  0  0
  1  2  1  0  0  0  0
  2  7  1  1  0  0  0
  2 15  1  0  0  0  0
  3  9  1  0  0  0  0
  3  2  1  0  0  0  0
  4  5  1  0  0  0  0
  4  3  1  0  0  0  0
  5 10  1  0  0  0  0
  5  1  1  0  0  0  0
  8  3  1  0  0  0  0
 11  5  1  0  0  0  0
 12 21  1  0  0  0  0
 12 13  1  0  0  0  0
 13 17  1  0  0  0  0
 14 18  1  0  0  0  0
 14 13  2  0  0  0  0
 15 16  1  0  0  0  0
 15 14  1  0  0  0  0
 16 12  2  0  0  0  0
 19 27  1  0  0  0  0
 20 19  1  0  0  0  0
 20 25  1  0  0  0  0
 21 20  2  0  0  0  0
 22 23  2  0  0  0  0
 22 21  1  0  0  0  0
 23 24  1  0  0  0  0
 24 19  2  0  0  0  0
 26 23  1  0  0  0  0
 27 28  1  0  0  0  0
 28 29  1  0  0  0  0
 28 30  1  0  0  0  0
 31 28  1  0  0  0  0
 34 33  2  0  0  0  0
 35 32  1  1  0  0  0
 35 34  1  0  0  0  0
 36 35  1  0  0  0  0
 37 36  1  0  0  0  0
 38 36  1  0  0  0  0
 38 40  1  0  0  0  0
 39 38  1  0  0  0  0
 40 34  1  0  0  0  0
 41 40  1  0  0  0  0
M  END
>  <minimizedAffinity>
-6.13334656

>  <minimizedRMSD>
1.75735259

$$$$
