
 OpenBabel03272506363D

 23 24  0  0  1  0  0  0  0  0999 V2000
   39.9420   23.9110   35.2530 C   0  0  0  0  0  0  0  0  0  0  0  0
   41.3220   23.6260   35.3700 C   0  0  0  0  0  0  0  0  0  0  0  0
   41.7980   23.0010   36.5200 C   0  0  0  0  0  0  0  0  0  0  0  0
   40.8800   22.6940   37.4910 N   0  0  0  0  0  0  0  0  0  0  0  0
   39.5620   22.9760   37.3620 C   0  0  0  0  0  0  0  0  0  0  0  0
   39.1320   23.5720   36.2560 N   0  0  0  0  0  0  0  0  0  0  0  0
   37.9690   23.8060   38.9180 C   0  0  0  0  0  0  0  0  0  0  0  0
   38.0920   25.0180   38.5700 O   0  0  0  0  0  0  0  0  0  0  0  0
   38.6480   22.6380   38.3990 N   0  0  0  0  0  0  0  0  0  0  0  0
   42.0890   23.8460   34.6330 H   0  0  0  0  0  0  0  0  0  0  0  0
   42.8440   22.7620   36.6550 H   0  0  0  0  0  0  0  0  0  0  0  0
   37.2200   23.8150   39.7170 H   0  0  0  0  0  0  0  0  0  0  0  0
   38.3880   21.7490   38.8350 H   0  0  0  0  0  0  0  0  0  0  0  0
   39.6560   24.5250   34.0580 O   0  0  0  0  0  0  0  0  0  0  0  0
   41.0700   27.0050   34.6080 O   0  0  0  0  0  0  0  0  0  0  0  0
   39.8510   26.7920   34.8390 C   0  0  0  0  0  0  0  0  0  0  0  0
   39.0590   25.8040   34.0660 C   0  0  2  0  0  3  0  0  0  0  0  0
   37.7420   25.7940   34.8310 C   0  0  0  0  0  3  0  0  0  0  0  0
   36.8850   25.6180   34.1550 H   0  0  0  0  0  0  0  0  0  0  0  0
   37.6950   27.1650   35.4510 C   0  0  0  0  0  3  0  0  0  0  0  0
   37.3650   27.9220   34.7180 H   0  0  0  0  0  0  0  0  0  0  0  0
   39.0710   27.4520   35.8480 N   0  0  0  0  0  0  0  0  0  0  0  0
   39.3880   27.9960   36.6590 H   0  0  0  0  0  0  0  0  0  0  0  0
  1  2  2  0  0  0  0
  1  6  1  0  0  0  0
  2  3  1  0  0  0  0
  3 11  1  0  0  0  0
  3  4  2  0  0  0  0
  5  4  1  0  0  0  0
  5  9  1  0  0  0  0
  6  5  2  0  0  0  0
  7 12  1  0  0  0  0
  8  7  2  0  0  0  0
  9 13  1  0  0  0  0
  9  7  1  0  0  0  0
 10  2  1  0  0  0  0
 14  1  1  0  0  0  0
 15 16  2  0  0  0  0
 16 22  1  0  0  0  0
 17 14  1  1  0  0  0
 17 18  1  0  0  0  0
 17 16  1  0  0  0  0
 18 20  1  0  0  0  0
 19 18  1  0  0  0  0
 20 22  1  0  0  0  0
 21 20  1  0  0  0  0
 22 23  1  0  0  0  0
M  END
>  <minimizedAffinity>
-4.81026554

$$$$

 OpenBabel03272506363D

 23 24  0  0  1  0  0  0  0  0999 V2000
   37.4970   21.8950   34.3310 C   0  0  0  0  0  0  0  0  0  0  0  0
   37.9770   22.9840   33.5690 C   0  0  0  0  0  0  0  0  0  0  0  0
   37.3510   23.3110   32.3680 C   0  0  0  0  0  0  0  0  0  0  0  0
   36.2820   22.5390   31.9900 N   0  0  0  0  0  0  0  0  0  0  0  0
   35.8360   21.4990   32.7330 C   0  0  0  0  0  0  0  0  0  0  0  0
   36.4500   21.2070   33.8740 N   0  0  0  0  0  0  0  0  0  0  0  0
   35.0730   19.3350   32.1150 C   0  0  0  0  0  0  0  0  0  0  0  0
   36.1910   18.7660   32.2920 O   0  0  0  0  0  0  0  0  0  0  0  0
   34.7230   20.7280   32.2970 N   0  0  0  0  0  0  0  0  0  0  0  0
   38.8170   23.6260   33.8210 H   0  0  0  0  0  0  0  0  0  0  0  0
   37.6810   24.1340   31.7510 H   0  0  0  0  0  0  0  0  0  0  0  0
   34.3980   18.5370   31.7870 H   0  0  0  0  0  0  0  0  0  0  0  0
   33.7480   20.9660   32.0930 H   0  0  0  0  0  0  0  0  0  0  0  0
   38.2320   21.7220   35.4770 O   0  0  0  0  0  0  0  0  0  0  0  0
   40.8010   22.1070   36.7860 O   0  0  0  0  0  0  0  0  0  0  0  0
   39.7010   22.5760   37.1810 C   0  0  0  0  0  0  0  0  0  0  0  0
   38.5760   22.8500   36.2530 C   0  0  2  0  0  3  0  0  0  0  0  0
   37.4580   23.2180   37.2200 C   0  0  0  0  0  3  0  0  0  0  0  0
   36.7800   23.9740   36.7830 H   0  0  0  0  0  0  0  0  0  0  0  0
   38.1990   23.7530   38.4160 C   0  0  0  0  0  3  0  0  0  0  0  0
   38.5190   24.7960   38.2500 H   0  0  0  0  0  0  0  0  0  0  0  0
   39.3820   22.9040   38.5420 N   0  0  0  0  0  0  0  0  0  0  0  0
   39.8580   22.6200   39.4060 H   0  0  0  0  0  0  0  0  0  0  0  0
  1 14  1  0  0  0  0
  2 10  1  0  0  0  0
  2  1  2  0  0  0  0
  3  2  1  0  0  0  0
  4  3  2  0  0  0  0
  4  5  1  0  0  0  0
  5  6  2  0  0  0  0
  6  1  1  0  0  0  0
  7  8  2  0  0  0  0
  7  9  1  0  0  0  0
  9  5  1  0  0  0  0
 11  3  1  0  0  0  0
 12  7  1  0  0  0  0
 13  9  1  0  0  0  0
 15 16  2  0  0  0  0
 16 22  1  0  0  0  0
 17 14  1  1  0  0  0
 17 16  1  0  0  0  0
 17 18  1  0  0  0  0
 18 20  1  0  0  0  0
 19 18  1  0  0  0  0
 20 22  1  0  0  0  0
 21 20  1  0  0  0  0
 22 23  1  0  0  0  0
M  END
>  <minimizedAffinity>
-4.77674675

$$$$

 OpenBabel03272506363D

 23 24  0  0  1  0  0  0  0  0999 V2000
   38.1780   25.7210   35.1150 C   0  0  0  0  0  0  0  0  0  0  0  0
   37.7640   27.0410   35.4080 C   0  0  0  0  0  0  0  0  0  0  0  0
   36.9970   27.7410   34.4800 C   0  0  0  0  0  0  0  0  0  0  0  0
   36.6820   27.0940   33.3130 N   0  0  0  0  0  0  0  0  0  0  0  0
   37.0880   25.8300   33.0490 C   0  0  0  0  0  0  0  0  0  0  0  0
   37.8190   25.1830   33.9490 N   0  0  0  0  0  0  0  0  0  0  0  0
   37.9040   24.8210   31.0590 C   0  0  0  0  0  0  0  0  0  0  0  0
   39.1280   24.9760   31.3470 O   0  0  0  0  0  0  0  0  0  0  0  0
   36.7350   25.2020   31.8220 N   0  0  0  0  0  0  0  0  0  0  0  0
   37.9850   27.5980   36.3140 H   0  0  0  0  0  0  0  0  0  0  0  0
   36.6570   28.7510   34.6590 H   0  0  0  0  0  0  0  0  0  0  0  0
   37.9040   24.3230   30.0830 H   0  0  0  0  0  0  0  0  0  0  0  0
   35.8360   24.9760   31.3890 H   0  0  0  0  0  0  0  0  0  0  0  0
   38.9220   25.1890   36.1390 O   0  0  0  0  0  0  0  0  0  0  0  0
   37.6510   23.6720   38.2690 O   0  0  0  0  0  0  0  0  0  0  0  0
   38.7050   23.3410   37.6650 C   0  0  0  0  0  0  0  0  0  0  0  0
   38.9970   23.7860   36.2800 C   0  0  2  0  0  3  0  0  0  0  0  0
   40.4230   23.2870   36.0870 C   0  0  0  0  0  3  0  0  0  0  0  0
   40.6080   22.9910   35.0380 H   0  0  0  0  0  0  0  0  0  0  0  0
   40.5050   22.1120   37.0240 C   0  0  0  0  0  3  0  0  0  0  0  0
   40.0370   21.2160   36.5800 H   0  0  0  0  0  0  0  0  0  0  0  0
   39.7450   22.5120   38.2060 N   0  0  0  0  0  0  0  0  0  0  0  0
   39.9250   22.2540   39.1830 H   0  0  0  0  0  0  0  0  0  0  0  0
  1  2  1  0  0  0  0
  1 14  1  0  0  0  0
  2 10  1  0  0  0  0
  3 11  1  0  0  0  0
  3  2  2  0  0  0  0
  4  3  1  0  0  0  0
  5  4  2  0  0  0  0
  5  6  1  0  0  0  0
  6  1  2  0  0  0  0
  7  8  2  0  0  0  0
  7  9  1  0  0  0  0
  9  5  1  0  0  0  0
 12  7  1  0  0  0  0
 13  9  1  0  0  0  0
 16 22  1  0  0  0  0
 16 15  2  0  0  0  0
 17 14  1  1  0  0  0
 17 16  1  0  0  0  0
 18 17  1  0  0  0  0
 18 20  1  0  0  0  0
 19 18  1  0  0  0  0
 20 22  1  0  0  0  0
 21 20  1  0  0  0  0
 22 23  1  0  0  0  0
M  END
>  <minimizedAffinity>
-4.73547459

$$$$

 OpenBabel03272506363D

 23 24  0  0  1  0  0  0  0  0999 V2000
   37.9900   22.4590   34.3600 C   0  0  0  0  0  0  0  0  0  0  0  0
   37.0530   21.4620   34.0060 C   0  0  0  0  0  0  0  0  0  0  0  0
   36.2950   21.6140   32.8480 C   0  0  0  0  0  0  0  0  0  0  0  0
   36.5080   22.7460   32.1040 N   0  0  0  0  0  0  0  0  0  0  0  0
   37.4100   23.6900   32.4590 C   0  0  0  0  0  0  0  0  0  0  0  0
   38.1210   23.5230   33.5680 N   0  0  0  0  0  0  0  0  0  0  0  0
   37.3160   26.0640   32.3890 C   0  0  0  0  0  0  0  0  0  0  0  0
   36.9500   26.1980   33.5940 O   0  0  0  0  0  0  0  0  0  0  0  0
   37.5950   24.8490   31.6540 N   0  0  0  0  0  0  0  0  0  0  0  0
   36.8450   20.5490   34.5580 H   0  0  0  0  0  0  0  0  0  0  0  0
   35.5660   20.8790   32.5360 H   0  0  0  0  0  0  0  0  0  0  0  0
   37.3830   27.0850   31.9980 H   0  0  0  0  0  0  0  0  0  0  0  0
   37.8790   24.9810   30.6790 H   0  0  0  0  0  0  0  0  0  0  0  0
   38.6430   22.1430   35.5260 O   0  0  0  0  0  0  0  0  0  0  0  0
   40.7690   22.0410   37.5080 O   0  0  0  0  0  0  0  0  0  0  0  0
   39.6840   22.6680   37.6310 C   0  0  0  0  0  0  0  0  0  0  0  0
   38.9180   23.1640   36.4610 C   0  0  2  0  0  3  0  0  0  0  0  0
   37.6410   23.6710   37.1180 C   0  0  0  0  0  3  0  0  0  0  0  0
   37.2320   24.5470   36.5810 H   0  0  0  0  0  0  0  0  0  0  0  0
   38.0870   24.0240   38.5110 C   0  0  0  0  0  3  0  0  0  0  0  0
   38.5920   25.0060   38.5300 H   0  0  0  0  0  0  0  0  0  0  0  0
   39.0490   22.9870   38.8780 N   0  0  0  0  0  0  0  0  0  0  0  0
   39.2160   22.5910   39.8110 H   0  0  0  0  0  0  0  0  0  0  0  0
  1 14  1  0  0  0  0
  2  1  1  0  0  0  0
  2 10  1  0  0  0  0
  3  2  2  0  0  0  0
  4  5  2  0  0  0  0
  4  3  1  0  0  0  0
  5  6  1  0  0  0  0
  6  1  2  0  0  0  0
  7  8  2  0  0  0  0
  9  7  1  0  0  0  0
  9  5  1  0  0  0  0
 11  3  1  0  0  0  0
 12  7  1  0  0  0  0
 13  9  1  0  0  0  0
 15 16  2  0  0  0  0
 16 22  1  0  0  0  0
 17 14  1  6  0  0  0
 17 18  1  0  0  0  0
 17 16  1  0  0  0  0
 18 20  1  0  0  0  0
 19 18  1  0  0  0  0
 20 21  1  0  0  0  0
 20 22  1  0  0  0  0
 22 23  1  0  0  0  0
M  END
>  <minimizedAffinity>
-4.73166752

$$$$

 OpenBabel03272506363D

 23 24  0  0  1  0  0  0  0  0999 V2000
   38.5710   23.9630   34.0920 C   0  0  0  0  0  0  0  0  0  0  0  0
   39.8400   24.3890   33.6390 C   0  0  0  0  0  0  0  0  0  0  0  0
   39.9290   25.1900   32.5020 C   0  0  0  0  0  0  0  0  0  0  0  0
   38.7540   25.5230   31.8780 N   0  0  0  0  0  0  0  0  0  0  0  0
   37.5480   25.1050   32.3270 C   0  0  0  0  0  0  0  0  0  0  0  0
   37.4890   24.3420   33.4120 N   0  0  0  0  0  0  0  0  0  0  0  0
   35.6240   24.3220   31.1730 C   0  0  0  0  0  0  0  0  0  0  0  0
   35.9090   23.0940   31.2970 O   0  0  0  0  0  0  0  0  0  0  0  0
   36.3570   25.4770   31.6440 N   0  0  0  0  0  0  0  0  0  0  0  0
   40.7980   24.1550   34.0940 H   0  0  0  0  0  0  0  0  0  0  0  0
   40.8760   25.5410   32.1170 H   0  0  0  0  0  0  0  0  0  0  0  0
   34.6780   24.3380   30.6210 H   0  0  0  0  0  0  0  0  0  0  0  0
   35.9320   26.3840   31.4280 H   0  0  0  0  0  0  0  0  0  0  0  0
   38.6760   23.1860   35.2190 O   0  0  0  0  0  0  0  0  0  0  0  0
   40.5100   22.0440   37.1670 O   0  0  0  0  0  0  0  0  0  0  0  0
   39.5500   22.8160   37.4300 C   0  0  0  0  0  0  0  0  0  0  0  0
   39.0250   23.7930   36.4450 C   0  0  2  0  0  3  0  0  0  0  0  0
   37.7940   24.3300   37.1650 C   0  0  0  0  0  3  0  0  0  0  0  0
   37.6150   25.3930   36.9190 H   0  0  0  0  0  0  0  0  0  0  0  0
   38.1370   24.1410   38.6190 C   0  0  0  0  0  3  0  0  0  0  0  0
   38.8060   24.9430   38.9770 H   0  0  0  0  0  0  0  0  0  0  0  0
   38.8460   22.8640   38.6810 N   0  0  0  0  0  0  0  0  0  0  0  0
   38.8320   22.1780   39.4440 H   0  0  0  0  0  0  0  0  0  0  0  0
  1 14  1  0  0  0  0
  2  1  1  0  0  0  0
  2 10  1  0  0  0  0
  3  2  2  0  0  0  0
  4  5  2  0  0  0  0
  4  3  1  0  0  0  0
  5  6  1  0  0  0  0
  6  1  2  0  0  0  0
  7  8  2  0  0  0  0
  7  9  1  0  0  0  0
  9  5  1  0  0  0  0
 11  3  1  0  0  0  0
 12  7  1  0  0  0  0
 13  9  1  0  0  0  0
 15 16  2  0  0  0  0
 16 22  1  0  0  0  0
 17 14  1  6  0  0  0
 17 18  1  0  0  0  0
 17 16  1  0  0  0  0
 18 20  1  0  0  0  0
 19 18  1  0  0  0  0
 20 22  1  0  0  0  0
 20 21  1  0  0  0  0
 22 23  1  0  0  0  0
M  END
>  <minimizedAffinity>
-4.54321384

$$$$

 OpenBabel03272506363D

 23 24  0  0  1  0  0  0  0  0999 V2000
   38.5150   25.1330   34.5160 C   0  0  0  0  0  0  0  0  0  0  0  0
   38.0930   23.9590   33.8520 C   0  0  0  0  0  0  0  0  0  0  0  0
   37.3570   24.0640   32.6740 C   0  0  0  0  0  0  0  0  0  0  0  0
   37.0810   25.3280   32.2190 N   0  0  0  0  0  0  0  0  0  0  0  0
   37.4930   26.4410   32.8700 C   0  0  0  0  0  0  0  0  0  0  0  0
   38.1930   26.3150   33.9910 N   0  0  0  0  0  0  0  0  0  0  0  0
   36.4030   28.5080   33.3000 C   0  0  0  0  0  0  0  0  0  0  0  0
   35.9980   28.1850   34.4560 O   0  0  0  0  0  0  0  0  0  0  0  0
   37.1800   27.7320   32.3580 N   0  0  0  0  0  0  0  0  0  0  0  0
   38.2840   22.9370   34.1670 H   0  0  0  0  0  0  0  0  0  0  0  0
   37.0130   23.1960   32.1300 H   0  0  0  0  0  0  0  0  0  0  0  0
   36.0360   29.5300   33.1470 H   0  0  0  0  0  0  0  0  0  0  0  0
   37.3950   28.2010   31.4740 H   0  0  0  0  0  0  0  0  0  0  0  0
   39.2240   24.8380   35.6540 O   0  0  0  0  0  0  0  0  0  0  0  0
   37.5560   23.6080   37.6940 O   0  0  0  0  0  0  0  0  0  0  0  0
   38.7380   23.2720   37.4160 C   0  0  0  0  0  0  0  0  0  0  0  0
   39.3280   23.4930   36.0730 C   0  0  2  0  0  3  0  0  0  0  0  0
   40.7810   23.0970   36.3030 C   0  0  0  0  0  3  0  0  0  0  0  0
   41.2220   22.6410   35.3980 H   0  0  0  0  0  0  0  0  0  0  0  0
   40.6930   22.1160   37.4410 C   0  0  0  0  0  3  0  0  0  0  0  0
   40.3850   21.1180   37.0820 H   0  0  0  0  0  0  0  0  0  0  0  0
   39.6570   22.6460   38.3240 N   0  0  0  0  0  0  0  0  0  0  0  0
   39.6130   22.5790   39.3470 H   0  0  0  0  0  0  0  0  0  0  0  0
  1 14  1  0  0  0  0
  2 10  1  0  0  0  0
  2  1  2  0  0  0  0
  3  2  1  0  0  0  0
  4  3  2  0  0  0  0
  4  5  1  0  0  0  0
  5  6  2  0  0  0  0
  6  1  1  0  0  0  0
  7  8  2  0  0  0  0
  9  5  1  0  0  0  0
  9  7  1  0  0  0  0
 11  3  1  0  0  0  0
 12  7  1  0  0  0  0
 13  9  1  0  0  0  0
 16 15  2  0  0  0  0
 16 22  1  0  0  0  0
 17 14  1  1  0  0  0
 17 18  1  0  0  0  0
 17 16  1  0  0  0  0
 18 20  1  0  0  0  0
 19 18  1  0  0  0  0
 20 22  1  0  0  0  0
 21 20  1  0  0  0  0
 22 23  1  0  0  0  0
M  END
>  <minimizedAffinity>
-4.48531675

$$$$

 OpenBabel03272506363D

 23 24  0  0  1  0  0  0  0  0999 V2000
   38.0860   24.3800   34.0470 C   0  0  0  0  0  0  0  0  0  0  0  0
   38.3750   25.7040   34.4480 C   0  0  0  0  0  0  0  0  0  0  0  0
   38.3930   26.7210   33.4950 C   0  0  0  0  0  0  0  0  0  0  0  0
   38.1240   26.3670   32.1980 N   0  0  0  0  0  0  0  0  0  0  0  0
   37.8500   25.0930   31.8330 C   0  0  0  0  0  0  0  0  0  0  0  0
   37.8380   24.1420   32.7590 N   0  0  0  0  0  0  0  0  0  0  0  0
   38.5230   23.8170   29.9450 C   0  0  0  0  0  0  0  0  0  0  0  0
   39.5030   23.2630   30.5260 O   0  0  0  0  0  0  0  0  0  0  0  0
   37.5770   24.7770   30.4720 N   0  0  0  0  0  0  0  0  0  0  0  0
   38.5940   26.0370   35.4580 H   0  0  0  0  0  0  0  0  0  0  0  0
   38.6080   27.7480   33.7530 H   0  0  0  0  0  0  0  0  0  0  0  0
   38.5310   23.4110   28.9270 H   0  0  0  0  0  0  0  0  0  0  0  0
   36.8590   25.0920   29.8150 H   0  0  0  0  0  0  0  0  0  0  0  0
   38.1120   23.5160   35.1140 O   0  0  0  0  0  0  0  0  0  0  0  0
   40.7750   22.7630   36.0070 O   0  0  0  0  0  0  0  0  0  0  0  0
   39.8040   23.0430   36.7580 C   0  0  0  0  0  0  0  0  0  0  0  0
   38.7000   23.9360   36.3270 C   0  0  2  0  0  3  0  0  0  0  0  0
   37.7230   23.8060   37.4880 C   0  0  0  0  0  3  0  0  0  0  0  0
   37.1730   24.7500   37.6600 H   0  0  0  0  0  0  0  0  0  0  0  0
   38.6150   23.4570   38.6500 C   0  0  0  0  0  3  0  0  0  0  0  0
   39.1130   24.3560   39.0530 H   0  0  0  0  0  0  0  0  0  0  0  0
   39.6260   22.5580   38.0980 N   0  0  0  0  0  0  0  0  0  0  0  0
   40.0880   21.7720   38.5690 H   0  0  0  0  0  0  0  0  0  0  0  0
  1  2  1  0  0  0  0
  1 14  1  0  0  0  0
  2 10  1  0  0  0  0
  3 11  1  0  0  0  0
  3  2  2  0  0  0  0
  4  3  1  0  0  0  0
  5  4  2  0  0  0  0
  5  6  1  0  0  0  0
  6  1  2  0  0  0  0
  7  9  1  0  0  0  0
  7  8  2  0  0  0  0
  9  5  1  0  0  0  0
 12  7  1  0  0  0  0
 13  9  1  0  0  0  0
 15 16  2  0  0  0  0
 16 22  1  0  0  0  0
 17 14  1  6  0  0  0
 17 16  1  0  0  0  0
 17 18  1  0  0  0  0
 18 19  1  0  0  0  0
 18 20  1  0  0  0  0
 20 21  1  0  0  0  0
 22 23  1  0  0  0  0
 22 20  1  0  0  0  0
M  END
>  <minimizedAffinity>
-4.41748047

$$$$

 OpenBabel03272506363D

 23 24  0  0  1  0  0  0  0  0999 V2000
   40.1720   24.4930   34.3190 C   0  0  0  0  0  0  0  0  0  0  0  0
   41.3190   24.9570   33.6350 C   0  0  0  0  0  0  0  0  0  0  0  0
   41.6640   26.3040   33.7110 C   0  0  0  0  0  0  0  0  0  0  0  0
   40.8540   27.1170   34.4610 N   0  0  0  0  0  0  0  0  0  0  0  0
   39.7590   26.6540   35.1080 C   0  0  0  0  0  0  0  0  0  0  0  0
   39.4500   25.3660   35.0210 N   0  0  0  0  0  0  0  0  0  0  0  0
   37.5870   27.5780   35.3860 C   0  0  0  0  0  0  0  0  0  0  0  0
   37.0720   26.9490   34.4150 O   0  0  0  0  0  0  0  0  0  0  0  0
   38.9490   27.5390   35.8740 N   0  0  0  0  0  0  0  0  0  0  0  0
   41.9930   24.3580   33.0290 H   0  0  0  0  0  0  0  0  0  0  0  0
   42.5320   26.7050   33.2050 H   0  0  0  0  0  0  0  0  0  0  0  0
   36.7700   28.1770   35.8010 H   0  0  0  0  0  0  0  0  0  0  0  0
   39.1430   28.1360   36.6830 H   0  0  0  0  0  0  0  0  0  0  0  0
   39.9870   23.1450   34.1320 O   0  0  0  0  0  0  0  0  0  0  0  0
   37.7460   22.0130   35.5980 O   0  0  0  0  0  0  0  0  0  0  0  0
   38.8860   22.2510   36.0760 C   0  0  0  0  0  0  0  0  0  0  0  0
   40.1090   22.2730   35.2350 C   0  0  2  0  0  3  0  0  0  0  0  0
   41.1560   22.7730   36.2220 C   0  0  0  0  0  3  0  0  0  0  0  0
   42.1470   22.3290   36.0170 H   0  0  0  0  0  0  0  0  0  0  0  0
   40.6090   22.3340   37.5540 C   0  0  0  0  0  3  0  0  0  0  0  0
   40.8190   21.2660   37.7370 H   0  0  0  0  0  0  0  0  0  0  0  0
   39.1640   22.5280   37.4570 N   0  0  0  0  0  0  0  0  0  0  0  0
   38.5170   22.7980   38.2070 H   0  0  0  0  0  0  0  0  0  0  0  0
  1  6  1  0  0  0  0
  2  3  1  0  0  0  0
  2  1  2  0  0  0  0
  3  4  2  0  0  0  0
  4  5  1  0  0  0  0
  5  9  1  0  0  0  0
  6  5  2  0  0  0  0
  7 12  1  0  0  0  0
  7  9  1  0  0  0  0
  8  7  2  0  0  0  0
  9 13  1  0  0  0  0
 10  2  1  0  0  0  0
 11  3  1  0  0  0  0
 14  1  1  0  0  0  0
 15 16  2  0  0  0  0
 16 22  1  0  0  0  0
 17 14  1  6  0  0  0
 17 16  1  0  0  0  0
 17 18  1  0  0  0  0
 18 20  1  0  0  0  0
 19 18  1  0  0  0  0
 20 21  1  0  0  0  0
 22 20  1  0  0  0  0
 22 23  1  0  0  0  0
M  END
>  <minimizedAffinity>
-4.41463757

$$$$

 OpenBabel03272506363D

 23 24  0  0  1  0  0  0  0  0999 V2000
   38.5380   24.7100   34.6320 C   0  0  0  0  0  0  0  0  0  0  0  0
   39.8600   24.9270   34.1800 C   0  0  0  0  0  0  0  0  0  0  0  0
   40.9250   24.3620   34.8760 C   0  0  0  0  0  0  0  0  0  0  0  0
   40.6210   23.6110   35.9830 N   0  0  0  0  0  0  0  0  0  0  0  0
   39.3490   23.4150   36.4020 C   0  0  0  0  0  0  0  0  0  0  0  0
   38.3500   23.9650   35.7220 N   0  0  0  0  0  0  0  0  0  0  0  0
   38.3940   23.3870   38.5780 C   0  0  0  0  0  0  0  0  0  0  0  0
   38.0220   24.5980   38.5530 O   0  0  0  0  0  0  0  0  0  0  0  0
   39.0850   22.6280   37.5580 N   0  0  0  0  0  0  0  0  0  0  0  0
   40.1550   25.5110   33.3120 H   0  0  0  0  0  0  0  0  0  0  0  0
   41.9520   24.4990   34.5690 H   0  0  0  0  0  0  0  0  0  0  0  0
   38.0770   23.0140   39.5580 H   0  0  0  0  0  0  0  0  0  0  0  0
   39.2870   21.6530   37.7980 H   0  0  0  0  0  0  0  0  0  0  0  0
   37.6220   25.3400   33.8270 O   0  0  0  0  0  0  0  0  0  0  0  0
   37.2610   27.2990   31.7080 O   0  0  0  0  0  0  0  0  0  0  0  0
   36.9160   26.0890   31.6520 C   0  0  0  0  0  0  0  0  0  0  0  0
   37.5900   25.0350   32.4490 C   0  0  2  0  0  3  0  0  0  0  0  0
   36.7080   23.8240   32.1720 C   0  0  0  0  0  3  0  0  0  0  0  0
   37.2990   22.8900   32.1610 H   0  0  0  0  0  0  0  0  0  0  0  0
   36.1190   24.1310   30.8210 C   0  0  0  0  0  3  0  0  0  0  0  0
   36.8370   23.9040   30.0130 H   0  0  0  0  0  0  0  0  0  0  0  0
   35.8550   25.5680   30.8370 N   0  0  0  0  0  0  0  0  0  0  0  0
   35.0900   26.0690   30.3710 H   0  0  0  0  0  0  0  0  0  0  0  0
  1  6  1  0  0  0  0
  2  1  2  0  0  0  0
  2  3  1  0  0  0  0
  3  4  2  0  0  0  0
  4  5  1  0  0  0  0
  5  9  1  0  0  0  0
  6  5  2  0  0  0  0
  7 12  1  0  0  0  0
  8  7  2  0  0  0  0
  9 13  1  0  0  0  0
  9  7  1  0  0  0  0
 10  2  1  0  0  0  0
 11  3  1  0  0  0  0
 14  1  1  0  0  0  0
 16 15  2  0  0  0  0
 16 17  1  0  0  0  0
 17 14  1  1  0  0  0
 18 17  1  0  0  0  0
 19 18  1  0  0  0  0
 20 22  1  0  0  0  0
 20 18  1  0  0  0  0
 21 20  1  0  0  0  0
 22 16  1  0  0  0  0
 23 22  1  0  0  0  0
M  END
>  <minimizedAffinity>
-4.32312393

$$$$
