
 OpenBabel03272503403D

 41 44  0  0  1  0  0  0  0  0999 V2000
   40.1250   30.9130   41.7270 C   0  0  2  0  0  0  0  0  0  0  0  0
   39.7590   32.0790   42.6140 C   0  0  1  0  0  0  0  0  0  0  0  0
   38.5400   32.5640   41.8540 C   0  0  0  0  0  0  0  0  0  0  0  0
   38.7700   32.3580   40.5150 O   0  0  0  0  0  0  0  0  0  0  0  0
   39.8820   31.5930   40.3660 C   0  0  0  0  0  0  0  0  0  0  0  0
   41.1430   30.5490   41.8000 H   0  0  0  0  0  0  0  0  0  0  0  0
   40.5030   32.8700   42.6240 H   0  0  0  0  0  0  0  0  0  0  0  0
   38.3360   33.6200   42.0510 H   0  0  0  0  0  0  0  0  0  0  0  0
   37.6920   31.8990   42.1580 H   0  0  0  0  0  0  0  0  0  0  0  0
   40.7540   32.2680   40.2230 H   0  0  0  0  0  0  0  0  0  0  0  0
   39.8960   30.8730   39.5460 H   0  0  0  0  0  0  0  0  0  0  0  0
   38.4130   31.0510   45.7760 C   0  0  0  0  0  0  0  0  0  0  0  0
   39.7280   30.8790   46.0160 C   0  0  0  0  0  0  0  0  0  0  0  0
   40.3490   31.2600   44.8240 C   0  0  0  0  0  0  0  0  0  0  0  0
   39.4150   31.6350   43.9390 N   0  0  0  0  0  0  0  0  0  0  0  0
   38.2160   31.5110   44.5130 N   0  0  0  0  0  0  0  0  0  0  0  0
   40.1640   30.5190   46.9500 H   0  0  0  0  0  0  0  0  0  0  0  0
   41.4370   31.2360   44.6870 H   0  0  0  0  0  0  0  0  0  0  0  0
   36.4300   30.6310   48.9400 C   0  0  0  0  0  0  0  0  0  0  0  0
   37.4680   30.8970   48.0800 C   0  0  0  0  0  0  0  0  0  0  0  0
   37.3420   30.7820   46.7220 C   0  0  0  0  0  0  0  0  0  0  0  0
   36.1180   30.3840   46.2650 N   0  0  0  0  0  0  0  0  0  0  0  0
   35.0950   30.1230   47.1300 C   0  0  0  0  0  0  0  0  0  0  0  0
   35.2430   30.2420   48.4380 N   0  0  0  0  0  0  0  0  0  0  0  0
   38.4670   31.2190   48.4080 H   0  0  0  0  0  0  0  0  0  0  0  0
   34.1400   29.8130   46.7810 H   0  0  0  0  0  0  0  0  0  0  0  0
   36.7550   30.8060   50.2800 O   0  0  0  0  0  0  0  0  0  0  0  0
   36.8360   29.7560   51.2090 C   0  0  0  0  0  0  0  0  0  0  0  0
   35.5770   29.2780   51.5710 F   0  0  0  0  0  0  0  0  0  0  0  0
   37.5320   30.1650   52.3020 F   0  0  0  0  0  0  0  0  0  0  0  0
   37.5340   28.7030   50.6230 F   0  0  0  0  0  0  0  0  0  0  0  0
   39.1590   29.9190   41.8990 O   0  0  0  0  0  0  0  0  0  0  0  0
   39.3310   27.0710   43.4360 O   0  0  0  0  0  0  0  0  0  0  0  0
   39.4230   27.6270   42.2890 C   0  0  0  0  0  0  0  0  0  0  0  0
   39.5470   28.7220   41.3110 C   0  0  1  0  0  3  0  0  0  0  0  0
   38.5030   28.3100   40.2780 C   0  0  0  0  0  3  0  0  0  0  0  0
   38.6030   28.8140   39.3180 H   0  0  0  0  0  0  0  0  0  0  0  0
   38.8690   26.8390   40.0390 C   0  0  0  0  0  3  0  0  0  0  0  0
   39.6460   26.8310   39.2670 H   0  0  0  0  0  0  0  0  0  0  0  0
   39.3800   26.5080   41.3620 N   0  0  0  0  0  0  0  0  0  0  0  0
   39.5970   25.4760   41.2920 H   0  0  0  0  0  0  0  0  0  0  0  0
  1  6  1  1  0  0  0
  1 32  1  0  0  0  0
  1  2  1  0  0  0  0
  2  7  1  1  0  0  0
  2 15  1  0  0  0  0
  3  8  1  0  0  0  0
  3  9  1  0  0  0  0
  3  2  1  0  0  0  0
  4  3  1  0  0  0  0
  5  4  1  0  0  0  0
  5  1  1  0  0  0  0
 10  5  1  0  0  0  0
 11  5  1  0  0  0  0
 12 13  1  0  0  0  0
 12 21  1  0  0  0  0
 13 17  1  0  0  0  0
 14 13  2  0  0  0  0
 15 16  1  0  0  0  0
 15 14  1  0  0  0  0
 16 12  2  0  0  0  0
 18 14  1  0  0  0  0
 19 27  1  0  0  0  0
 20 25  1  0  0  0  0
 20 19  2  0  0  0  0
 21 20  1  0  0  0  0
 22 21  2  0  0  0  0
 22 23  1  0  0  0  0
 23 24  2  0  0  0  0
 24 19  1  0  0  0  0
 26 23  1  0  0  0  0
 27 28  1  0  0  0  0
 28 29  1  0  0  0  0
 28 30  1  0  0  0  0
 31 28  1  0  0  0  0
 34 33  2  0  0  0  0
 35 32  1  1  0  0  0
 35 34  1  0  0  0  0
 36 35  1  0  0  0  0
 37 36  1  0  0  0  0
 38 36  1  0  0  0  0
 38 40  1  0  0  0  0
 39 38  1  0  0  0  0
 40 34  1  0  0  0  0
 41 40  1  0  0  0  0
M  END
>  <minimizedAffinity>
-5.99437284

>  <minimizedRMSD>
0.873579621

$$$$
