
 OpenBabel03272506363D

 23 24  0  0  1  0  0  0  0  0999 V2000
   36.2650   30.5570   47.4670 C   0  0  0  0  0  0  0  0  0  0  0  0
   35.2590   29.8010   46.8220 C   0  0  0  0  0  0  0  0  0  0  0  0
   34.3760   29.0430   47.5850 C   0  0  0  0  0  0  0  0  0  0  0  0
   34.5380   29.0750   48.9470 N   0  0  0  0  0  0  0  0  0  0  0  0
   35.5070   29.8050   49.5470 C   0  0  0  0  0  0  0  0  0  0  0  0
   36.3380   30.5200   48.7970 N   0  0  0  0  0  0  0  0  0  0  0  0
   36.9310   29.3210   51.3860 C   0  0  0  0  0  0  0  0  0  0  0  0
   37.9020   28.9230   50.6760 O   0  0  0  0  0  0  0  0  0  0  0  0
   35.6350   29.8050   50.9640 N   0  0  0  0  0  0  0  0  0  0  0  0
   35.0880   29.7400   45.7510 H   0  0  0  0  0  0  0  0  0  0  0  0
   33.5900   28.4490   47.1380 H   0  0  0  0  0  0  0  0  0  0  0  0
   37.2790   29.2230   52.4210 H   0  0  0  0  0  0  0  0  0  0  0  0
   35.0000   30.0760   51.7200 H   0  0  0  0  0  0  0  0  0  0  0  0
   37.0390   31.2380   46.5600 O   0  0  0  0  0  0  0  0  0  0  0  0
   38.4660   33.0980   48.2810 O   0  0  0  0  0  0  0  0  0  0  0  0
   38.9280   32.5670   47.2370 C   0  0  0  0  0  0  0  0  0  0  0  0
   38.4410   31.2600   46.7300 C   0  0  2  0  0  3  0  0  0  0  0  0
   39.1610   31.1580   45.3910 C   0  0  0  0  0  3  0  0  0  0  0  0
   39.4070   30.1070   45.1470 H   0  0  0  0  0  0  0  0  0  0  0  0
   40.3970   31.9900   45.6020 C   0  0  0  0  0  3  0  0  0  0  0  0
   41.1660   31.4260   46.1600 H   0  0  0  0  0  0  0  0  0  0  0  0
   39.9590   33.1260   46.4090 N   0  0  0  0  0  0  0  0  0  0  0  0
   40.3140   34.0890   46.3780 H   0  0  0  0  0  0  0  0  0  0  0  0
  1  6  1  0  0  0  0
  2  1  2  0  0  0  0
  2  3  1  0  0  0  0
  3  4  2  0  0  0  0
  4  5  1  0  0  0  0
  5  9  1  0  0  0  0
  6  5  2  0  0  0  0
  7 12  1  0  0  0  0
  8  7  2  0  0  0  0
  9  7  1  0  0  0  0
  9 13  1  0  0  0  0
 10  2  1  0  0  0  0
 11  3  1  0  0  0  0
 14  1  1  0  0  0  0
 16 15  2  0  0  0  0
 17 14  1  6  0  0  0
 17 16  1  0  0  0  0
 18 20  1  0  0  0  0
 18 17  1  0  0  0  0
 19 18  1  0  0  0  0
 20 21  1  0  0  0  0
 20 22  1  0  0  0  0
 22 16  1  0  0  0  0
 23 22  1  0  0  0  0
M  END
>  <minimizedAffinity>
-4.47764969

>  <minimizedRMSD>
6.08698702

$$$$
