
 OpenBabel03262520343D

 42 44  0  0  1  0  0  0  0  0999 V2000
   27.1670   28.3350   49.6780 C   0  0  0  0  0  0  0  0  0  0  0  0
   28.4970   27.8980   49.5700 C   0  0  0  0  0  0  0  0  0  0  0  0
   29.0790   27.1140   50.5440 C   0  0  0  0  0  0  0  0  0  0  0  0
   28.3460   26.7520   51.6440 C   0  0  0  0  0  0  0  0  0  0  0  0
   27.0540   27.1720   51.7570 C   0  0  0  0  0  0  0  0  0  0  0  0
   26.4230   27.9590   50.8080 C   0  0  0  0  0  0  0  0  0  0  0  0
   30.1070   26.8170   50.3900 H   0  0  0  0  0  0  0  0  0  0  0  0
   28.7780   26.1400   52.4230 H   0  0  0  0  0  0  0  0  0  0  0  0
   26.4990   26.8780   52.6240 H   0  0  0  0  0  0  0  0  0  0  0  0
   25.3940   28.2590   50.9540 H   0  0  0  0  0  0  0  0  0  0  0  0
   26.3670   29.3250   48.4890 S   0  0  0  0  0  0  0  0  0  0  0  0
   26.2630   28.6270   47.1870 O   0  0  0  0  0  0  0  0  0  0  0  0
   24.9790   29.6830   49.0370 O   0  0  0  0  0  0  0  0  0  0  0  0
   27.7370   31.3600   45.6780 O   0  0  0  0  0  0  0  0  0  0  0  0
   27.1330   31.2380   46.7990 C   0  0  0  0  0  0  0  0  0  0  0  0
   27.2400   30.8420   48.2280 C   0  0  1  0  0  0  0  0  0  0  0  0
   26.4100   31.9490   48.8930 C   0  0  0  0  0  0  0  0  0  0  0  0
   27.0590   32.8550   48.8850 H   0  0  0  0  0  0  0  0  0  0  0  0
   25.2430   32.1760   47.9550 C   0  0  0  0  0  0  0  0  0  0  0  0
   25.0680   33.2700   47.7600 H   0  0  0  0  0  0  0  0  0  0  0  0
   25.7580   31.6430   46.6830 N   0  0  0  0  0  0  0  0  0  0  0  0
   25.0190   31.6600   45.9250 H   0  0  0  0  0  0  0  0  0  0  0  0
   29.0940   28.3390   48.4210 O   0  0  0  0  0  0  0  0  0  0  0  0
   30.3260   26.2540   47.3600 O   0  0  0  0  0  0  0  0  0  0  0  0
   30.4980   27.7280   47.6980 P   0  0  1  0  0  0  0  0  0  0  0  0
   30.9000   28.6450   46.3160 O   0  0  0  0  0  0  0  0  0  0  0  0
   30.7770   28.0650   45.5210 H   0  0  0  0  0  0  0  0  0  0  0  0
   31.8130   27.7890   48.7770 O   0  0  0  0  0  0  0  0  0  0  0  0
   32.9580   27.3520   48.0870 C   0  0  0  0  0  0  0  0  0  0  0  0
   33.1220   26.2730   48.3730 H   0  0  0  0  0  0  0  0  0  0  0  0
   32.7770   27.3500   47.0150 H   0  0  0  0  0  0  0  0  0  0  0  0
   34.4920   28.3910   49.6990 C   0  0  0  0  0  0  0  0  0  0  0  0
   34.1670   28.1180   48.4670 C   0  0  0  0  0  0  0  0  0  0  0  0
   37.2690   30.1530   51.3180 C   0  0  0  0  0  0  0  0  0  0  0  0
   38.0190   30.5880   50.2160 C   0  0  0  0  0  0  0  0  0  0  0  0
   37.5610   30.2730   48.9320 C   0  0  0  0  0  0  0  0  0  0  0  0
   36.3950   29.5500   48.8880 N   0  0  0  0  0  0  0  0  0  0  0  0
   35.7100   29.1530   49.9410 C   0  0  0  0  0  0  0  0  0  0  0  0
   36.1570   29.4610   51.1550 N   0  0  0  0  0  0  0  0  0  0  0  0
   37.6900   30.4390   52.2790 H   0  0  0  0  0  0  0  0  0  0  0  0
   38.9400   31.1590   50.2140 H   0  0  0  0  0  0  0  0  0  0  0  0
   38.0210   30.5340   47.9970 H   0  0  0  0  0  0  0  0  0  0  0  0
  1  6  1  0  0  0  0
  2  1  2  0  0  0  0
  2  3  1  0  0  0  0
  3  4  2  0  0  0  0
  4  5  1  0  0  0  0
  4  8  1  0  0  0  0
  5  9  1  0  0  0  0
  6 10  1  0  0  0  0
  6  5  2  0  0  0  0
  7  3  1  0  0  0  0
 11 13  2  0  0  0  0
 11  1  1  0  0  0  0
 12 11  2  0  0  0  0
 14 15  2  0  0  0  0
 15 16  1  0  0  0  0
 16 11  1  6  0  0  0
 16 17  1  0  0  0  0
 18 17  1  0  0  0  0
 19 17  1  0  0  0  0
 20 19  1  0  0  0  0
 21 15  1  0  0  0  0
 21 19  1  0  0  0  0
 22 21  1  0  0  0  0
 23  2  1  0  0  0  0
 25 24  2  6  0  0  0
 25 23  1  0  0  0  0
 25 28  1  0  0  0  0
 26 25  1  0  0  0  0
 27 26  1  0  0  0  0
 29 30  1  0  0  0  0
 29 33  1  0  0  0  0
 29 28  1  0  0  0  0
 31 29  1  0  0  0  0
 32 38  1  0  0  0  0
 33 32  2  0  0  0  0
 34 40  1  0  0  0  0
 35 34  2  0  0  0  0
 36 35  1  0  0  0  0
 37 36  2  0  0  0  0
 37 38  1  0  0  0  0
 38 39  2  0  0  0  0
 39 34  1  0  0  0  0
 41 35  1  0  0  0  0
 42 36  1  0  0  0  0
M  END
>  <minimizedAffinity>
-6.40356827

>  <minimizedRMSD>
2.10067296

$$$$
