
 OpenBabel03262522293D

 46 49  0  0  1  0  0  0  0  0999 V2000
   36.7080   26.6310   30.8330 S   0  0  0  0  0  0  0  0  0  0  0  0
   36.9850   22.9920   32.5480 C   0  0  0  0  0  0  0  0  0  0  0  0
   37.7250   23.2830   33.6940 C   0  0  0  0  0  0  0  0  0  0  0  0
   38.1020   24.5850   33.8780 C   0  0  0  0  0  0  0  0  0  0  0  0
   37.7350   25.5060   32.9460 N   0  0  0  0  0  0  0  0  0  0  0  0
   37.0430   25.2000   31.8850 C   0  0  0  0  0  0  0  0  0  0  0  0
   36.6320   23.9120   31.6370 N   0  0  0  0  0  0  0  0  0  0  0  0
   36.6530   21.9650   32.3440 H   0  0  0  0  0  0  0  0  0  0  0  0
   38.6690   24.8100   34.7570 H   0  0  0  0  0  0  0  0  0  0  0  0
   38.0250   22.2660   34.5490 O   0  0  0  0  0  0  0  0  0  0  0  0
   38.4560   22.5520   35.8240 C   0  0  0  0  0  0  0  0  0  0  0  0
   37.7800   23.2020   36.8240 C   0  0  0  0  0  0  0  0  0  0  0  0
   38.3740   23.3940   38.0250 C   0  0  0  0  0  0  0  0  0  0  0  0
   39.6440   22.9290   38.2110 C   0  0  0  0  0  0  0  0  0  0  0  0
   40.3330   22.2650   37.1870 C   0  0  0  0  0  0  0  0  0  0  0  0
   39.7000   22.0950   35.9980 N   0  0  0  0  0  0  0  0  0  0  0  0
   36.7740   23.5060   36.5020 H   0  0  0  0  0  0  0  0  0  0  0  0
   37.7860   23.9140   38.7720 H   0  0  0  0  0  0  0  0  0  0  0  0
   40.1090   23.0900   39.1820 H   0  0  0  0  0  0  0  0  0  0  0  0
   41.7370   21.7640   37.4280 C   0  0  0  0  0  0  0  0  0  0  0  0
   42.4380   22.6190   37.4270 H   0  0  0  0  0  0  0  0  0  0  0  0
   41.7460   21.2640   38.4250 H   0  0  0  0  0  0  0  0  0  0  0  0
   41.9310   21.0260   36.6240 H   0  0  0  0  0  0  0  0  0  0  0  0
   37.4880   28.0210   31.6960 C   0  0  0  0  0  0  0  0  0  0  0  0
   38.3200   28.4470   31.1060 H   0  0  0  0  0  0  0  0  0  0  0  0
   37.8700   27.6370   32.6730 H   0  0  0  0  0  0  0  0  0  0  0  0
   36.3940   28.2480   34.2110 F   0  0  0  0  0  0  0  0  0  0  0  0
   35.9380   29.0740   33.2240 C   0  0  0  0  0  0  0  0  0  0  0  0
   36.4230   29.0430   31.9130 C   0  0  0  0  0  0  0  0  0  0  0  0
   35.9410   29.8920   30.9500 C   0  0  0  0  0  0  0  0  0  0  0  0
   34.9310   30.8190   31.2900 C   0  0  0  0  0  0  0  0  0  0  0  0
   34.4490   30.8530   32.5780 C   0  0  0  0  0  0  0  0  0  0  0  0
   34.9440   29.9980   33.5280 C   0  0  0  0  0  0  0  0  0  0  0  0
   36.4180   29.7400   30.0000 H   0  0  0  0  0  0  0  0  0  0  0  0
   34.6480   31.4170   30.4410 H   0  0  0  0  0  0  0  0  0  0  0  0
   33.7070   31.6090   32.6220 H   0  0  0  0  0  0  0  0  0  0  0  0
   34.4290   30.0830   34.7970 O   0  0  0  0  0  0  0  0  0  0  0  0
   36.4720   31.6400   35.9750 O   0  0  0  0  0  0  0  0  0  0  0  0
   35.2580   31.7280   36.3310 C   0  0  0  0  0  0  0  0  0  0  0  0
   34.1310   31.2620   35.4260 C   0  0  2  0  0  3  0  0  0  0  0  0
   33.0460   31.1210   36.4920 C   0  0  0  0  0  3  0  0  0  0  0  0
   32.0320   31.1710   36.0920 H   0  0  0  0  0  0  0  0  0  0  0  0
   33.3220   32.3660   37.3290 C   0  0  0  0  0  3  0  0  0  0  0  0
   32.7580   32.3780   38.2800 H   0  0  0  0  0  0  0  0  0  0  0  0
   34.7610   32.2450   37.5610 N   0  0  0  0  0  0  0  0  0  0  0  0
   35.3880   32.4510   38.3740 H   0  0  0  0  0  0  0  0  0  0  0  0
  1 24  1  0  0  0  0
  1  6  1  0  0  0  0
  2  3  1  0  0  0  0
  3  4  2  0  0  0  0
  3 10  1  0  0  0  0
  4  9  1  0  0  0  0
  5  4  1  0  0  0  0
  6  5  2  0  0  0  0
  7  6  1  0  0  0  0
  7  2  2  0  0  0  0
  8  2  1  0  0  0  0
 10 11  1  0  0  0  0
 11 16  2  0  0  0  0
 11 12  1  0  0  0  0
 12 13  2  0  0  0  0
 13 14  1  0  0  0  0
 13 18  1  0  0  0  0
 14 19  1  0  0  0  0
 15 20  1  0  0  0  0
 15 14  2  0  0  0  0
 16 15  1  0  0  0  0
 17 12  1  0  0  0  0
 20 22  1  0  0  0  0
 21 20  1  0  0  0  0
 23 20  1  0  0  0  0
 24 29  1  0  0  0  0
 24 26  1  0  0  0  0
 25 24  1  0  0  0  0
 28 33  1  0  0  0  0
 28 27  1  0  0  0  0
 29 28  2  0  0  0  0
 30 31  2  0  0  0  0
 30 29  1  0  0  0  0
 31 32  1  0  0  0  0
 32 36  1  0  0  0  0
 32 33  2  0  0  0  0
 33 37  1  0  0  0  0
 34 30  1  0  0  0  0
 35 31  1  0  0  0  0
 38 39  2  0  0  0  0
 39 45  1  0  0  0  0
 40 37  1  1  0  0  0
 40 39  1  0  0  0  0
 40 41  1  0  0  0  0
 41 43  1  0  0  0  0
 42 41  1  0  0  0  0
 43 45  1  0  0  0  0
 43 44  1  0  0  0  0
 45 46  1  0  0  0  0
M  END
>  <minimizedAffinity>
-6.54319096

$$$$

 OpenBabel03262522293D

 46 49  0  0  1  0  0  0  0  0999 V2000
   38.4500   27.4410   30.2660 S   0  0  0  0  0  0  0  0  0  0  0  0
   35.5580   28.8140   32.7190 C   0  0  0  0  0  0  0  0  0  0  0  0
   35.4340   30.1340   32.2860 C   0  0  0  0  0  0  0  0  0  0  0  0
   36.2480   30.5330   31.2610 C   0  0  0  0  0  0  0  0  0  0  0  0
   37.1180   29.6300   30.7330 N   0  0  0  0  0  0  0  0  0  0  0  0
   37.2090   28.4030   31.1610 C   0  0  0  0  0  0  0  0  0  0  0  0
   36.4220   27.9360   32.1870 N   0  0  0  0  0  0  0  0  0  0  0  0
   34.9330   28.4340   33.5370 H   0  0  0  0  0  0  0  0  0  0  0  0
   36.1540   31.5460   30.9280 H   0  0  0  0  0  0  0  0  0  0  0  0
   34.5220   30.9360   32.9010 O   0  0  0  0  0  0  0  0  0  0  0  0
   34.7410   31.3510   34.1950 C   0  0  0  0  0  0  0  0  0  0  0  0
   35.8410   31.9860   34.7090 C   0  0  0  0  0  0  0  0  0  0  0  0
   35.8760   32.3180   36.0220 C   0  0  0  0  0  0  0  0  0  0  0  0
   34.8020   32.0090   36.8060 C   0  0  0  0  0  0  0  0  0  0  0  0
   33.6780   31.3600   36.2770 C   0  0  0  0  0  0  0  0  0  0  0  0
   33.6860   31.0450   34.9570 N   0  0  0  0  0  0  0  0  0  0  0  0
   36.6080   32.1560   33.9410 H   0  0  0  0  0  0  0  0  0  0  0  0
   36.7740   32.8180   36.3650 H   0  0  0  0  0  0  0  0  0  0  0  0
   34.8440   32.2830   37.8580 H   0  0  0  0  0  0  0  0  0  0  0  0
   32.5080   31.0330   37.1740 C   0  0  0  0  0  0  0  0  0  0  0  0
   32.7700   30.1790   37.8260 H   0  0  0  0  0  0  0  0  0  0  0  0
   32.3020   31.9370   37.7950 H   0  0  0  0  0  0  0  0  0  0  0  0
   31.6580   30.8310   36.4920 H   0  0  0  0  0  0  0  0  0  0  0  0
   38.5530   25.8750   31.1740 C   0  0  0  0  0  0  0  0  0  0  0  0
   39.0810   25.1020   30.5870 H   0  0  0  0  0  0  0  0  0  0  0  0
   37.5070   25.5440   31.3890 H   0  0  0  0  0  0  0  0  0  0  0  0
   37.6100   24.7540   33.5040 F   0  0  0  0  0  0  0  0  0  0  0  0
   38.7230   25.5430   33.5620 C   0  0  0  0  0  0  0  0  0  0  0  0
   39.2850   26.1620   32.4410 C   0  0  0  0  0  0  0  0  0  0  0  0
   40.4060   26.9460   32.5410 C   0  0  0  0  0  0  0  0  0  0  0  0
   41.0060   27.1330   33.8060 C   0  0  0  0  0  0  0  0  0  0  0  0
   40.4570   26.5280   34.9130 C   0  0  0  0  0  0  0  0  0  0  0  0
   39.3370   25.7460   34.7930 C   0  0  0  0  0  0  0  0  0  0  0  0
   40.7080   27.3430   31.5910 H   0  0  0  0  0  0  0  0  0  0  0  0
   41.8720   27.7680   33.7360 H   0  0  0  0  0  0  0  0  0  0  0  0
   41.0510   26.7930   35.7500 H   0  0  0  0  0  0  0  0  0  0  0  0
   38.8390   25.1640   35.9310 O   0  0  0  0  0  0  0  0  0  0  0  0
   37.7690   24.1240   38.3310 O   0  0  0  0  0  0  0  0  0  0  0  0
   38.7240   23.5630   37.7110 C   0  0  0  0  0  0  0  0  0  0  0  0
   38.9840   23.8380   36.2410 C   0  0  2  0  0  3  0  0  0  0  0  0
   40.4330   23.3600   36.1880 C   0  0  0  0  0  3  0  0  0  0  0  0
   40.7650   23.0800   35.1880 H   0  0  0  0  0  0  0  0  0  0  0  0
   40.3420   22.1120   37.0600 C   0  0  0  0  0  3  0  0  0  0  0  0
   41.3320   21.6910   37.3130 H   0  0  0  0  0  0  0  0  0  0  0  0
   39.6630   22.6350   38.2440 N   0  0  0  0  0  0  0  0  0  0  0  0
   39.7500   22.4580   39.2720 H   0  0  0  0  0  0  0  0  0  0  0  0
  1  6  1  0  0  0  0
  1 24  1  0  0  0  0
  2  8  1  0  0  0  0
  3  2  1  0  0  0  0
  3 10  1  0  0  0  0
  4  3  2  0  0  0  0
  5  6  2  0  0  0  0
  5  4  1  0  0  0  0
  6  7  1  0  0  0  0
  7  2  2  0  0  0  0
  9  4  1  0  0  0  0
 10 11  1  0  0  0  0
 11 12  2  0  0  0  0
 11 16  1  0  0  0  0
 12 13  1  0  0  0  0
 13 18  1  0  0  0  0
 13 14  2  0  0  0  0
 14 19  1  0  0  0  0
 15 14  1  0  0  0  0
 15 20  1  0  0  0  0
 16 15  2  0  0  0  0
 17 12  1  0  0  0  0
 20 22  1  0  0  0  0
 20 21  1  0  0  0  0
 23 20  1  0  0  0  0
 24 26  1  0  0  0  0
 24 29  1  0  0  0  0
 25 24  1  0  0  0  0
 27 28  1  0  0  0  0
 28 33  1  0  0  0  0
 29 30  1  0  0  0  0
 29 28  2  0  0  0  0
 30 31  2  0  0  0  0
 31 32  1  0  0  0  0
 32 36  1  0  0  0  0
 33 32  2  0  0  0  0
 33 37  1  0  0  0  0
 34 30  1  0  0  0  0
 35 31  1  0  0  0  0
 39 45  1  0  0  0  0
 39 38  2  0  0  0  0
 40 37  1  1  0  0  0
 40 39  1  0  0  0  0
 41 40  1  0  0  0  0
 41 43  1  0  0  0  0
 42 41  1  0  0  0  0
 43 44  1  0  0  0  0
 43 45  1  0  0  0  0
 45 46  1  0  0  0  0
M  END
>  <minimizedAffinity>
-6.48397303

$$$$

 OpenBabel03262522293D

 46 49  0  0  1  0  0  0  0  0999 V2000
   36.5380   25.8070   31.1530 S   0  0  0  0  0  0  0  0  0  0  0  0
   36.6180   29.8320   30.9240 C   0  0  0  0  0  0  0  0  0  0  0  0
   35.6690   30.1820   31.8830 C   0  0  0  0  0  0  0  0  0  0  0  0
   35.0520   29.1590   32.5510 C   0  0  0  0  0  0  0  0  0  0  0  0
   35.3980   27.8790   32.2430 N   0  0  0  0  0  0  0  0  0  0  0  0
   36.2900   27.5870   31.3400 C   0  0  0  0  0  0  0  0  0  0  0  0
   36.9480   28.5650   30.6310 N   0  0  0  0  0  0  0  0  0  0  0  0
   37.1480   30.6070   30.3540 H   0  0  0  0  0  0  0  0  0  0  0  0
   34.3230   29.4260   33.2880 H   0  0  0  0  0  0  0  0  0  0  0  0
   35.4150   31.5030   32.0950 O   0  0  0  0  0  0  0  0  0  0  0  0
   35.9130   32.1210   33.2200 C   0  0  0  0  0  0  0  0  0  0  0  0
   35.6800   31.8100   34.5340 C   0  0  0  0  0  0  0  0  0  0  0  0
   36.2640   32.5400   35.5140 C   0  0  0  0  0  0  0  0  0  0  0  0
   37.0790   33.5770   35.1620 C   0  0  0  0  0  0  0  0  0  0  0  0
   37.3160   33.8930   33.8170 C   0  0  0  0  0  0  0  0  0  0  0  0
   36.7100   33.1350   32.8680 N   0  0  0  0  0  0  0  0  0  0  0  0
   35.0020   30.9510   34.6340 H   0  0  0  0  0  0  0  0  0  0  0  0
   36.0380   32.2430   36.5310 H   0  0  0  0  0  0  0  0  0  0  0  0
   37.5420   34.1550   35.9600 H   0  0  0  0  0  0  0  0  0  0  0  0
   38.2240   35.0470   33.4640 C   0  0  0  0  0  0  0  0  0  0  0  0
   37.6990   36.0010   33.6580 H   0  0  0  0  0  0  0  0  0  0  0  0
   39.1280   34.9690   34.1140 H   0  0  0  0  0  0  0  0  0  0  0  0
   38.4980   34.8950   32.4010 H   0  0  0  0  0  0  0  0  0  0  0  0
   38.3010   25.5560   31.4910 C   0  0  0  0  0  0  0  0  0  0  0  0
   38.9300   26.2040   30.8540 H   0  0  0  0  0  0  0  0  0  0  0  0
   38.5310   24.4820   31.2870 H   0  0  0  0  0  0  0  0  0  0  0  0
   37.4160   23.7490   33.3680 F   0  0  0  0  0  0  0  0  0  0  0  0
   38.0260   24.8920   33.7990 C   0  0  0  0  0  0  0  0  0  0  0  0
   38.5120   25.8760   32.9320 C   0  0  0  0  0  0  0  0  0  0  0  0
   39.1210   27.0100   33.4050 C   0  0  0  0  0  0  0  0  0  0  0  0
   39.2610   27.1890   34.7990 C   0  0  0  0  0  0  0  0  0  0  0  0
   38.7830   26.2240   35.6570 C   0  0  0  0  0  0  0  0  0  0  0  0
   38.1780   25.0960   35.1660 C   0  0  0  0  0  0  0  0  0  0  0  0
   39.4370   27.6610   32.6110 H   0  0  0  0  0  0  0  0  0  0  0  0
   39.7530   28.1170   35.0260 H   0  0  0  0  0  0  0  0  0  0  0  0
   38.9850   26.5480   36.6460 H   0  0  0  0  0  0  0  0  0  0  0  0
   37.7280   24.1670   36.0690 O   0  0  0  0  0  0  0  0  0  0  0  0
   37.7200   23.3070   38.7610 O   0  0  0  0  0  0  0  0  0  0  0  0
   38.6470   23.0010   37.9510 C   0  0  0  0  0  0  0  0  0  0  0  0
   38.4370   23.0590   36.4480 C   0  0  2  0  0  3  0  0  0  0  0  0
   39.9050   23.1090   36.0290 C   0  0  0  0  0  3  0  0  0  0  0  0
   40.0790   22.7720   35.0070 H   0  0  0  0  0  0  0  0  0  0  0  0
   40.5020   22.0990   37.0040 C   0  0  0  0  0  3  0  0  0  0  0  0
   41.6070   22.1020   37.0030 H   0  0  0  0  0  0  0  0  0  0  0  0
   39.9660   22.5750   38.2780 N   0  0  0  0  0  0  0  0  0  0  0  0
   40.3480   22.6400   39.2510 H   0  0  0  0  0  0  0  0  0  0  0  0
  1  6  1  0  0  0  0
  1 24  1  0  0  0  0
  2  3  1  0  0  0  0
  3 10  1  0  0  0  0
  3  4  2  0  0  0  0
  4  9  1  0  0  0  0
  5  4  1  0  0  0  0
  6  5  2  0  0  0  0
  7  2  2  0  0  0  0
  7  6  1  0  0  0  0
  8  2  1  0  0  0  0
 10 11  1  0  0  0  0
 11 12  1  0  0  0  0
 12 17  1  0  0  0  0
 12 13  2  0  0  0  0
 13 18  1  0  0  0  0
 14 13  1  0  0  0  0
 14 19  1  0  0  0  0
 15 14  2  0  0  0  0
 16 11  2  0  0  0  0
 16 15  1  0  0  0  0
 20 21  1  0  0  0  0
 20 15  1  0  0  0  0
 20 22  1  0  0  0  0
 23 20  1  0  0  0  0
 24 29  1  0  0  0  0
 25 24  1  0  0  0  0
 26 24  1  0  0  0  0
 27 28  1  0  0  0  0
 28 33  1  0  0  0  0
 29 30  1  0  0  0  0
 29 28  2  0  0  0  0
 30 31  2  0  0  0  0
 31 35  1  0  0  0  0
 31 32  1  0  0  0  0
 32 36  1  0  0  0  0
 33 32  2  0  0  0  0
 33 37  1  0  0  0  0
 34 30  1  0  0  0  0
 39 45  1  0  0  0  0
 39 38  2  0  0  0  0
 40 37  1  1  0  0  0
 40 39  1  0  0  0  0
 41 40  1  0  0  0  0
 41 43  1  0  0  0  0
 42 41  1  0  0  0  0
 43 45  1  0  0  0  0
 44 43  1  0  0  0  0
 45 46  1  0  0  0  0
M  END
>  <minimizedAffinity>
-6.16079092

$$$$

 OpenBabel03262522293D

 46 49  0  0  1  0  0  0  0  0999 V2000
   39.2900   26.9850   31.0700 S   0  0  0  0  0  0  0  0  0  0  0  0
   36.3350   28.0920   33.5810 C   0  0  0  0  0  0  0  0  0  0  0  0
   35.7180   29.1060   32.8500 C   0  0  0  0  0  0  0  0  0  0  0  0
   36.2440   29.3970   31.6200 C   0  0  0  0  0  0  0  0  0  0  0  0
   37.3240   28.6890   31.1910 N   0  0  0  0  0  0  0  0  0  0  0  0
   37.8780   27.7470   31.9010 C   0  0  0  0  0  0  0  0  0  0  0  0
   37.4000   27.4030   33.1440 N   0  0  0  0  0  0  0  0  0  0  0  0
   35.9600   27.8120   34.5740 H   0  0  0  0  0  0  0  0  0  0  0  0
   35.7710   30.1750   31.0580 H   0  0  0  0  0  0  0  0  0  0  0  0
   34.6410   29.7380   33.3950 O   0  0  0  0  0  0  0  0  0  0  0  0
   34.8110   30.5440   34.4980 C   0  0  0  0  0  0  0  0  0  0  0  0
   35.9020   31.2980   34.8400 C   0  0  0  0  0  0  0  0  0  0  0  0
   35.8840   32.0340   35.9770 C   0  0  0  0  0  0  0  0  0  0  0  0
   34.7660   32.0050   36.7600 C   0  0  0  0  0  0  0  0  0  0  0  0
   33.6500   31.2330   36.4070 C   0  0  0  0  0  0  0  0  0  0  0  0
   33.7120   30.5100   35.2590 N   0  0  0  0  0  0  0  0  0  0  0  0
   36.7090   31.2030   34.1000 H   0  0  0  0  0  0  0  0  0  0  0  0
   36.7790   32.6070   36.1900 H   0  0  0  0  0  0  0  0  0  0  0  0
   34.7650   32.6010   37.6700 H   0  0  0  0  0  0  0  0  0  0  0  0
   32.4300   31.2250   37.2970 C   0  0  0  0  0  0  0  0  0  0  0  0
   32.6370   30.6220   38.2010 H   0  0  0  0  0  0  0  0  0  0  0  0
   32.2210   32.2820   37.5830 H   0  0  0  0  0  0  0  0  0  0  0  0
   31.6090   30.8240   36.6700 H   0  0  0  0  0  0  0  0  0  0  0  0
   38.9190   25.2110   31.0770 C   0  0  0  0  0  0  0  0  0  0  0  0
   39.0880   24.7600   30.0830 H   0  0  0  0  0  0  0  0  0  0  0  0
   37.8470   25.0950   31.3720 H   0  0  0  0  0  0  0  0  0  0  0  0
   37.7790   24.1790   33.3600 F   0  0  0  0  0  0  0  0  0  0  0  0
   39.1350   24.0970   33.2110 C   0  0  0  0  0  0  0  0  0  0  0  0
   39.8150   24.5890   32.0940 C   0  0  0  0  0  0  0  0  0  0  0  0
   41.1780   24.4850   31.9810 C   0  0  0  0  0  0  0  0  0  0  0  0
   41.9110   23.8680   33.0190 C   0  0  0  0  0  0  0  0  0  0  0  0
   41.2460   23.3820   34.1220 C   0  0  0  0  0  0  0  0  0  0  0  0
   39.8830   23.4940   34.2160 C   0  0  0  0  0  0  0  0  0  0  0  0
   41.5420   24.9110   31.0650 H   0  0  0  0  0  0  0  0  0  0  0  0
   42.9640   23.8570   32.7990 H   0  0  0  0  0  0  0  0  0  0  0  0
   41.9710   22.9630   34.7720 H   0  0  0  0  0  0  0  0  0  0  0  0
   39.2760   22.9860   35.3360 O   0  0  0  0  0  0  0  0  0  0  0  0
   40.7510   22.0740   37.5680 O   0  0  0  0  0  0  0  0  0  0  0  0
   39.7130   22.7940   37.6850 C   0  0  0  0  0  0  0  0  0  0  0  0
   39.2040   23.6450   36.5350 C   0  0  2  0  0  3  0  0  0  0  0  0
   37.7730   23.8400   37.0320 C   0  0  0  0  0  3  0  0  0  0  0  0
   37.2810   24.7180   36.6110 H   0  0  0  0  0  0  0  0  0  0  0  0
   38.0280   24.0660   38.5180 C   0  0  0  0  0  3  0  0  0  0  0  0
   37.1010   24.0540   39.1200 H   0  0  0  0  0  0  0  0  0  0  0  0
   38.8900   22.9290   38.8390 N   0  0  0  0  0  0  0  0  0  0  0  0
   38.9810   22.2940   39.6670 H   0  0  0  0  0  0  0  0  0  0  0  0
  1 24  1  0  0  0  0
  1  6  1  0  0  0  0
  2  8  1  0  0  0  0
  3 10  1  0  0  0  0
  3  2  2  0  0  0  0
  4  3  1  0  0  0  0
  5  4  2  0  0  0  0
  5  6  1  0  0  0  0
  6  7  2  0  0  0  0
  7  2  1  0  0  0  0
  9  4  1  0  0  0  0
 10 11  1  0  0  0  0
 11 12  2  0  0  0  0
 11 16  1  0  0  0  0
 12 13  1  0  0  0  0
 13 18  1  0  0  0  0
 13 14  2  0  0  0  0
 14 19  1  0  0  0  0
 15 14  1  0  0  0  0
 15 20  1  0  0  0  0
 16 15  2  0  0  0  0
 17 12  1  0  0  0  0
 20 22  1  0  0  0  0
 20 21  1  0  0  0  0
 23 20  1  0  0  0  0
 24 26  1  0  0  0  0
 24 29  1  0  0  0  0
 25 24  1  0  0  0  0
 28 27  1  0  0  0  0
 28 33  1  0  0  0  0
 29 28  2  0  0  0  0
 30 29  1  0  0  0  0
 30 31  2  0  0  0  0
 31 32  1  0  0  0  0
 32 33  2  0  0  0  0
 32 36  1  0  0  0  0
 33 37  1  0  0  0  0
 34 30  1  0  0  0  0
 35 31  1  0  0  0  0
 38 39  2  0  0  0  0
 39 45  1  0  0  0  0
 40 37  1  6  0  0  0
 40 41  1  0  0  0  0
 40 39  1  0  0  0  0
 41 43  1  0  0  0  0
 42 41  1  0  0  0  0
 43 45  1  0  0  0  0
 43 44  1  0  0  0  0
 45 46  1  0  0  0  0
M  END
>  <minimizedAffinity>
-6.14337492

$$$$

 OpenBabel03262522293D

 46 49  0  0  1  0  0  0  0  0999 V2000
   37.7130   27.4700   31.0480 S   0  0  0  0  0  0  0  0  0  0  0  0
   34.7250   29.7880   32.4480 C   0  0  0  0  0  0  0  0  0  0  0  0
   34.8630   29.6140   33.8240 C   0  0  0  0  0  0  0  0  0  0  0  0
   35.8690   28.7910   34.2510 C   0  0  0  0  0  0  0  0  0  0  0  0
   36.6650   28.2000   33.3180 N   0  0  0  0  0  0  0  0  0  0  0  0
   36.5070   28.3830   32.0370 C   0  0  0  0  0  0  0  0  0  0  0  0
   35.5170   29.1970   31.5400 N   0  0  0  0  0  0  0  0  0  0  0  0
   33.9360   30.4360   32.0430 H   0  0  0  0  0  0  0  0  0  0  0  0
   35.9770   28.6570   35.3070 H   0  0  0  0  0  0  0  0  0  0  0  0
   33.9990   30.2660   34.6520 O   0  0  0  0  0  0  0  0  0  0  0  0
   32.6770   29.8860   34.6920 C   0  0  0  0  0  0  0  0  0  0  0  0
   31.6190   30.4140   33.9990 C   0  0  0  0  0  0  0  0  0  0  0  0
   30.3770   29.9030   34.1730 C   0  0  0  0  0  0  0  0  0  0  0  0
   30.2100   28.8650   35.0430 C   0  0  0  0  0  0  0  0  0  0  0  0
   31.2940   28.3270   35.7510 C   0  0  0  0  0  0  0  0  0  0  0  0
   32.5210   28.8690   35.5470 N   0  0  0  0  0  0  0  0  0  0  0  0
   31.9330   31.2400   33.3460 H   0  0  0  0  0  0  0  0  0  0  0  0
   29.5850   30.3650   33.5950 H   0  0  0  0  0  0  0  0  0  0  0  0
   29.2060   28.4640   35.1720 H   0  0  0  0  0  0  0  0  0  0  0  0
   31.0720   27.1780   36.7060 C   0  0  0  0  0  0  0  0  0  0  0  0
   30.5800   27.5510   37.6230 H   0  0  0  0  0  0  0  0  0  0  0  0
   30.4110   26.4410   36.1910 H   0  0  0  0  0  0  0  0  0  0  0  0
   32.0750   26.7410   36.8820 H   0  0  0  0  0  0  0  0  0  0  0  0
   38.9100   26.8430   32.2560 C   0  0  0  0  0  0  0  0  0  0  0  0
   38.9560   27.4890   33.1510 H   0  0  0  0  0  0  0  0  0  0  0  0
   39.9080   26.8150   31.7540 H   0  0  0  0  0  0  0  0  0  0  0  0
   39.9950   25.6840   34.5040 F   0  0  0  0  0  0  0  0  0  0  0  0
   39.0790   24.9750   33.7810 C   0  0  0  0  0  0  0  0  0  0  0  0
   38.4670   25.4670   32.6240 C   0  0  0  0  0  0  0  0  0  0  0  0
   37.5490   24.7240   31.9280 C   0  0  0  0  0  0  0  0  0  0  0  0
   37.2140   23.4320   32.3890 C   0  0  0  0  0  0  0  0  0  0  0  0
   37.8140   22.9420   33.5260 C   0  0  0  0  0  0  0  0  0  0  0  0
   38.7290   23.7000   34.2110 C   0  0  0  0  0  0  0  0  0  0  0  0
   37.1740   25.2460   31.0670 H   0  0  0  0  0  0  0  0  0  0  0  0
   36.4860   22.9650   31.7480 H   0  0  0  0  0  0  0  0  0  0  0  0
   37.4290   21.9690   33.6970 H   0  0  0  0  0  0  0  0  0  0  0  0
   39.2890   23.1600   35.3410 O   0  0  0  0  0  0  0  0  0  0  0  0
   40.7260   22.0690   37.5160 O   0  0  0  0  0  0  0  0  0  0  0  0
   39.6960   22.7930   37.6740 C   0  0  0  0  0  0  0  0  0  0  0  0
   39.2120   23.7320   36.5830 C   0  0  2  0  0  3  0  0  0  0  0  0
   37.7780   23.9110   37.0770 C   0  0  0  0  0  3  0  0  0  0  0  0
   37.3020   24.8230   36.7160 H   0  0  0  0  0  0  0  0  0  0  0  0
   38.0180   24.0240   38.5790 C   0  0  0  0  0  3  0  0  0  0  0  0
   37.0840   23.9820   39.1680 H   0  0  0  0  0  0  0  0  0  0  0  0
   38.8610   22.8560   38.8260 N   0  0  0  0  0  0  0  0  0  0  0  0
   38.9340   22.1610   39.6060 H   0  0  0  0  0  0  0  0  0  0  0  0
  1  6  1  0  0  0  0
  1 24  1  0  0  0  0
  2  3  1  0  0  0  0
  3  4  2  0  0  0  0
  3 10  1  0  0  0  0
  4  9  1  0  0  0  0
  5  4  1  0  0  0  0
  6  5  2  0  0  0  0
  7  6  1  0  0  0  0
  7  2  2  0  0  0  0
  8  2  1  0  0  0  0
 10 11  1  0  0  0  0
 11 16  1  0  0  0  0
 12 13  1  0  0  0  0
 12 11  2  0  0  0  0
 13 14  2  0  0  0  0
 14 19  1  0  0  0  0
 14 15  1  0  0  0  0
 15 20  1  0  0  0  0
 16 15  2  0  0  0  0
 17 12  1  0  0  0  0
 18 13  1  0  0  0  0
 20 23  1  0  0  0  0
 20 21  1  0  0  0  0
 22 20  1  0  0  0  0
 24 29  1  0  0  0  0
 24 25  1  0  0  0  0
 26 24  1  0  0  0  0
 28 33  1  0  0  0  0
 28 27  1  0  0  0  0
 29 28  2  0  0  0  0
 30 31  2  0  0  0  0
 30 29  1  0  0  0  0
 31 32  1  0  0  0  0
 32 36  1  0  0  0  0
 32 33  2  0  0  0  0
 33 37  1  0  0  0  0
 34 30  1  0  0  0  0
 35 31  1  0  0  0  0
 38 39  2  0  0  0  0
 39 45  1  0  0  0  0
 40 37  1  6  0  0  0
 40 41  1  0  0  0  0
 40 39  1  0  0  0  0
 41 43  1  0  0  0  0
 42 41  1  0  0  0  0
 43 45  1  0  0  0  0
 43 44  1  0  0  0  0
 45 46  1  0  0  0  0
M  END
>  <minimizedAffinity>
-6.05308437

$$$$

 OpenBabel03262522293D

 46 49  0  0  1  0  0  0  0  0999 V2000
   37.2560   27.9070   30.6490 S   0  0  0  0  0  0  0  0  0  0  0  0
   34.7020   30.8110   31.7930 C   0  0  0  0  0  0  0  0  0  0  0  0
   34.7530   30.6910   33.1820 C   0  0  0  0  0  0  0  0  0  0  0  0
   35.5710   29.7210   33.6940 C   0  0  0  0  0  0  0  0  0  0  0  0
   36.2770   28.9420   32.8290 N   0  0  0  0  0  0  0  0  0  0  0  0
   36.2060   29.0800   31.5350 C   0  0  0  0  0  0  0  0  0  0  0  0
   35.4040   30.0350   30.9540 N   0  0  0  0  0  0  0  0  0  0  0  0
   34.0650   31.5700   31.3220 H   0  0  0  0  0  0  0  0  0  0  0  0
   35.6120   29.6270   34.7590 H   0  0  0  0  0  0  0  0  0  0  0  0
   33.9960   31.5350   33.9350 O   0  0  0  0  0  0  0  0  0  0  0  0
   33.3040   31.0470   35.0200 C   0  0  0  0  0  0  0  0  0  0  0  0
   33.3760   31.4510   36.3270 C   0  0  0  0  0  0  0  0  0  0  0  0
   32.6110   30.8440   37.2650 C   0  0  0  0  0  0  0  0  0  0  0  0
   31.7770   29.8340   36.8780 C   0  0  0  0  0  0  0  0  0  0  0  0
   31.7040   29.4220   35.5400 C   0  0  0  0  0  0  0  0  0  0  0  0
   32.4900   30.0590   34.6330 N   0  0  0  0  0  0  0  0  0  0  0  0
   34.0950   32.2720   36.4590 H   0  0  0  0  0  0  0  0  0  0  0  0
   32.7160   31.2110   38.2790 H   0  0  0  0  0  0  0  0  0  0  0  0
   31.1680   29.3550   37.6420 H   0  0  0  0  0  0  0  0  0  0  0  0
   30.7710   28.3020   35.1480 C   0  0  0  0  0  0  0  0  0  0  0  0
   31.1920   27.3370   35.4850 H   0  0  0  0  0  0  0  0  0  0  0  0
   29.7950   28.4900   35.6540 H   0  0  0  0  0  0  0  0  0  0  0  0
   30.6580   28.3810   34.0480 H   0  0  0  0  0  0  0  0  0  0  0  0
   38.6000   27.5360   31.8070 C   0  0  0  0  0  0  0  0  0  0  0  0
   38.6390   28.2730   32.6290 H   0  0  0  0  0  0  0  0  0  0  0  0
   39.5560   27.5580   31.2290 H   0  0  0  0  0  0  0  0  0  0  0  0
   39.1450   27.0500   34.4610 F   0  0  0  0  0  0  0  0  0  0  0  0
   38.6500   26.0300   33.6980 C   0  0  0  0  0  0  0  0  0  0  0  0
   38.3400   26.1680   32.3410 C   0  0  0  0  0  0  0  0  0  0  0  0
   37.8420   25.1200   31.6100 C   0  0  0  0  0  0  0  0  0  0  0  0
   37.6390   23.8730   32.2420 C   0  0  0  0  0  0  0  0  0  0  0  0
   37.9440   23.7320   33.5760 C   0  0  0  0  0  0  0  0  0  0  0  0
   38.4390   24.7910   34.2920 C   0  0  0  0  0  0  0  0  0  0  0  0
   37.6570   25.3910   30.5880 H   0  0  0  0  0  0  0  0  0  0  0  0
   37.2480   23.1450   31.5520 H   0  0  0  0  0  0  0  0  0  0  0  0
   37.7210   22.7320   33.8510 H   0  0  0  0  0  0  0  0  0  0  0  0
   38.7180   24.5920   35.6200 O   0  0  0  0  0  0  0  0  0  0  0  0
   37.6210   23.7350   38.0790 O   0  0  0  0  0  0  0  0  0  0  0  0
   38.7190   23.2860   37.6300 C   0  0  0  0  0  0  0  0  0  0  0  0
   39.0710   23.3820   36.1560 C   0  0  2  0  0  3  0  0  0  0  0  0
   40.5810   23.1950   36.2840 C   0  0  0  0  0  3  0  0  0  0  0  0
   41.0560   22.8380   35.3700 H   0  0  0  0  0  0  0  0  0  0  0  0
   40.6320   22.0990   37.3440 C   0  0  0  0  0  3  0  0  0  0  0  0
   41.6520   21.9230   37.7320 H   0  0  0  0  0  0  0  0  0  0  0  0
   39.7540   22.6510   38.3740 N   0  0  0  0  0  0  0  0  0  0  0  0
   39.7690   22.6510   39.4210 H   0  0  0  0  0  0  0  0  0  0  0  0
  1  6  1  0  0  0  0
  1 24  1  0  0  0  0
  2  3  1  0  0  0  0
  3  4  2  0  0  0  0
  3 10  1  0  0  0  0
  4  9  1  0  0  0  0
  5  4  1  0  0  0  0
  6  5  2  0  0  0  0
  7  6  1  0  0  0  0
  7  2  2  0  0  0  0
  8  2  1  0  0  0  0
 10 11  1  0  0  0  0
 11 12  1  0  0  0  0
 12 17  1  0  0  0  0
 12 13  2  0  0  0  0
 13 18  1  0  0  0  0
 14 13  1  0  0  0  0
 14 19  1  0  0  0  0
 15 14  2  0  0  0  0
 16 11  2  0  0  0  0
 16 15  1  0  0  0  0
 20 21  1  0  0  0  0
 20 15  1  0  0  0  0
 20 22  1  0  0  0  0
 23 20  1  0  0  0  0
 24 29  1  0  0  0  0
 24 25  1  0  0  0  0
 26 24  1  0  0  0  0
 28 33  1  0  0  0  0
 28 27  1  0  0  0  0
 29 28  2  0  0  0  0
 30 31  2  0  0  0  0
 30 29  1  0  0  0  0
 31 32  1  0  0  0  0
 32 36  1  0  0  0  0
 32 33  2  0  0  0  0
 33 37  1  0  0  0  0
 34 30  1  0  0  0  0
 35 31  1  0  0  0  0
 39 38  2  0  0  0  0
 39 45  1  0  0  0  0
 40 37  1  1  0  0  0
 40 41  1  0  0  0  0
 40 39  1  0  0  0  0
 41 43  1  0  0  0  0
 42 41  1  0  0  0  0
 43 44  1  0  0  0  0
 43 45  1  0  0  0  0
 45 46  1  0  0  0  0
M  END
>  <minimizedAffinity>
-5.99666405

$$$$

 OpenBabel03262522293D

 46 49  0  0  1  0  0  0  0  0999 V2000
   38.2850   27.3960   30.7200 S   0  0  0  0  0  0  0  0  0  0  0  0
   35.5040   30.2450   31.3630 C   0  0  0  0  0  0  0  0  0  0  0  0
   35.1130   29.9580   32.6700 C   0  0  0  0  0  0  0  0  0  0  0  0
   35.7260   28.9010   33.2860 C   0  0  0  0  0  0  0  0  0  0  0  0
   36.6680   28.2030   32.5960 N   0  0  0  0  0  0  0  0  0  0  0  0
   37.0090   28.4980   31.3730 C   0  0  0  0  0  0  0  0  0  0  0  0
   36.4350   29.5460   30.6950 N   0  0  0  0  0  0  0  0  0  0  0  0
   35.0490   31.0810   30.8140 H   0  0  0  0  0  0  0  0  0  0  0  0
   35.4270   28.6800   34.2900 H   0  0  0  0  0  0  0  0  0  0  0  0
   34.1570   30.7370   33.2480 O   0  0  0  0  0  0  0  0  0  0  0  0
   34.3970   31.3150   34.4740 C   0  0  0  0  0  0  0  0  0  0  0  0
   33.7550   31.0850   35.6620 C   0  0  0  0  0  0  0  0  0  0  0  0
   34.1350   31.7570   36.7750 C   0  0  0  0  0  0  0  0  0  0  0  0
   35.1590   32.6540   36.6830 C   0  0  0  0  0  0  0  0  0  0  0  0
   35.8150   32.8870   35.4660 C   0  0  0  0  0  0  0  0  0  0  0  0
   35.4010   32.1920   34.3750 N   0  0  0  0  0  0  0  0  0  0  0  0
   32.9590   30.3350   35.5550 H   0  0  0  0  0  0  0  0  0  0  0  0
   33.5860   31.5290   37.6820 H   0  0  0  0  0  0  0  0  0  0  0  0
   35.4540   33.1860   37.5850 H   0  0  0  0  0  0  0  0  0  0  0  0
   36.9450   33.8870   35.4000 C   0  0  0  0  0  0  0  0  0  0  0  0
   36.5320   34.9120   35.4430 H   0  0  0  0  0  0  0  0  0  0  0  0
   37.6030   33.7030   36.2810 H   0  0  0  0  0  0  0  0  0  0  0  0
   37.4860   33.6620   34.4590 H   0  0  0  0  0  0  0  0  0  0  0  0
   39.0860   26.7060   32.1920 C   0  0  0  0  0  0  0  0  0  0  0  0
   38.9060   27.3360   33.0820 H   0  0  0  0  0  0  0  0  0  0  0  0
   40.1820   26.6480   31.9810 H   0  0  0  0  0  0  0  0  0  0  0  0
   39.6770   25.3760   34.5290 F   0  0  0  0  0  0  0  0  0  0  0  0
   38.8770   24.7590   33.6100 C   0  0  0  0  0  0  0  0  0  0  0  0
   38.5150   25.3420   32.3910 C   0  0  0  0  0  0  0  0  0  0  0  0
   37.7080   24.6900   31.4960 C   0  0  0  0  0  0  0  0  0  0  0  0
   37.2310   23.3980   31.8100 C   0  0  0  0  0  0  0  0  0  0  0  0
   37.5840   22.8180   33.0080 C   0  0  0  0  0  0  0  0  0  0  0  0
   38.3920   23.4870   33.8920 C   0  0  0  0  0  0  0  0  0  0  0  0
   37.5260   25.2740   30.6140 H   0  0  0  0  0  0  0  0  0  0  0  0
   36.6130   23.0070   31.0210 H   0  0  0  0  0  0  0  0  0  0  0  0
   37.1270   21.8630   33.0470 H   0  0  0  0  0  0  0  0  0  0  0  0
   38.7050   22.8600   35.0710 O   0  0  0  0  0  0  0  0  0  0  0  0
   40.8980   22.7420   36.8490 O   0  0  0  0  0  0  0  0  0  0  0  0
   39.7100   22.9490   37.2450 C   0  0  0  0  0  0  0  0  0  0  0  0
   38.6380   23.4610   36.3000 C   0  0  2  0  0  3  0  0  0  0  0  0
   37.4170   23.0380   37.1140 C   0  0  0  0  0  3  0  0  0  0  0  0
   36.5160   23.6060   36.8770 H   0  0  0  0  0  0  0  0  0  0  0  0
   37.8880   23.3980   38.5190 C   0  0  0  0  0  3  0  0  0  0  0  0
   37.2200   23.0070   39.3090 H   0  0  0  0  0  0  0  0  0  0  0  0
   39.1990   22.7530   38.5590 N   0  0  0  0  0  0  0  0  0  0  0  0
   39.7390   22.2450   39.2980 H   0  0  0  0  0  0  0  0  0  0  0  0
  1  6  1  0  0  0  0
  1 24  1  0  0  0  0
  2  3  1  0  0  0  0
  3 10  1  0  0  0  0
  3  4  2  0  0  0  0
  4  9  1  0  0  0  0
  5  4  1  0  0  0  0
  6  5  2  0  0  0  0
  7  2  2  0  0  0  0
  7  6  1  0  0  0  0
  8  2  1  0  0  0  0
 10 11  1  0  0  0  0
 11 12  1  0  0  0  0
 12 13  2  0  0  0  0
 13 18  1  0  0  0  0
 14 13  1  0  0  0  0
 14 19  1  0  0  0  0
 15 14  2  0  0  0  0
 16 11  2  0  0  0  0
 16 15  1  0  0  0  0
 17 12  1  0  0  0  0
 20 21  1  0  0  0  0
 20 15  1  0  0  0  0
 20 22  1  0  0  0  0
 23 20  1  0  0  0  0
 24 29  1  0  0  0  0
 24 25  1  0  0  0  0
 26 24  1  0  0  0  0
 28 33  1  0  0  0  0
 28 27  1  0  0  0  0
 29 28  2  0  0  0  0
 30 31  2  0  0  0  0
 30 29  1  0  0  0  0
 31 32  1  0  0  0  0
 32 36  1  0  0  0  0
 32 33  2  0  0  0  0
 33 37  1  0  0  0  0
 34 30  1  0  0  0  0
 35 31  1  0  0  0  0
 38 39  2  0  0  0  0
 39 45  1  0  0  0  0
 40 37  1  6  0  0  0
 40 41  1  0  0  0  0
 40 39  1  0  0  0  0
 41 43  1  0  0  0  0
 42 41  1  0  0  0  0
 43 45  1  0  0  0  0
 43 44  1  0  0  0  0
 45 46  1  0  0  0  0
M  END
>  <minimizedAffinity>
-5.94540834

$$$$

 OpenBabel03262522293D

 46 49  0  0  1  0  0  0  0  0999 V2000
   36.2640   24.6610   30.9350 S   0  0  0  0  0  0  0  0  0  0  0  0
   36.9090   27.3610   33.8600 C   0  0  0  0  0  0  0  0  0  0  0  0
   36.1330   28.4330   33.4210 C   0  0  0  0  0  0  0  0  0  0  0  0
   35.4520   28.2700   32.2460 C   0  0  0  0  0  0  0  0  0  0  0  0
   35.5700   27.0860   31.5850 N   0  0  0  0  0  0  0  0  0  0  0  0
   36.3050   26.1030   32.0230 C   0  0  0  0  0  0  0  0  0  0  0  0
   37.0150   26.1990   33.1960 N   0  0  0  0  0  0  0  0  0  0  0  0
   37.4790   27.4300   34.7960 H   0  0  0  0  0  0  0  0  0  0  0  0
   34.8550   29.0910   31.9070 H   0  0  0  0  0  0  0  0  0  0  0  0
   36.1000   29.5640   34.1790 O   0  0  0  0  0  0  0  0  0  0  0  0
   34.9280   30.2760   34.2910 C   0  0  0  0  0  0  0  0  0  0  0  0
   33.7600   29.9000   34.9020 C   0  0  0  0  0  0  0  0  0  0  0  0
   32.7010   30.7440   34.9100 C   0  0  0  0  0  0  0  0  0  0  0  0
   32.8260   31.9600   34.3040 C   0  0  0  0  0  0  0  0  0  0  0  0
   34.0220   32.3430   33.6800 C   0  0  0  0  0  0  0  0  0  0  0  0
   35.0580   31.4660   33.6950 N   0  0  0  0  0  0  0  0  0  0  0  0
   33.8360   28.8940   35.3360 H   0  0  0  0  0  0  0  0  0  0  0  0
   31.8080   30.3860   35.4090 H   0  0  0  0  0  0  0  0  0  0  0  0
   31.9670   32.6280   34.3180 H   0  0  0  0  0  0  0  0  0  0  0  0
   34.1250   33.6960   33.0180 C   0  0  0  0  0  0  0  0  0  0  0  0
   33.5610   33.6860   32.0670 H   0  0  0  0  0  0  0  0  0  0  0  0
   33.6790   34.4430   33.7180 H   0  0  0  0  0  0  0  0  0  0  0  0
   35.2100   33.8840   32.8930 H   0  0  0  0  0  0  0  0  0  0  0  0
   37.7290   23.7000   31.3990 C   0  0  0  0  0  0  0  0  0  0  0  0
   38.5470   24.3550   31.7490 H   0  0  0  0  0  0  0  0  0  0  0  0
   38.0560   23.1300   30.4940 H   0  0  0  0  0  0  0  0  0  0  0  0
   39.2070   23.6430   33.7200 F   0  0  0  0  0  0  0  0  0  0  0  0
   38.1230   22.8190   33.6160 C   0  0  0  0  0  0  0  0  0  0  0  0
   37.3040   22.7670   32.4830 C   0  0  0  0  0  0  0  0  0  0  0  0
   36.2220   21.9270   32.4180 C   0  0  0  0  0  0  0  0  0  0  0  0
   35.9280   21.0950   33.5210 C   0  0  0  0  0  0  0  0  0  0  0  0
   36.7300   21.1420   34.6380 C   0  0  0  0  0  0  0  0  0  0  0  0
   37.8070   21.9890   34.6850 C   0  0  0  0  0  0  0  0  0  0  0  0
   35.7010   22.0100   31.4840 H   0  0  0  0  0  0  0  0  0  0  0  0
   35.0570   20.4920   33.3330 H   0  0  0  0  0  0  0  0  0  0  0  0
   36.3410   20.4490   35.3400 H   0  0  0  0  0  0  0  0  0  0  0  0
   38.5670   21.9950   35.8270 O   0  0  0  0  0  0  0  0  0  0  0  0
   40.7080   22.1300   37.6670 O   0  0  0  0  0  0  0  0  0  0  0  0
   39.6400   22.8000   37.8140 C   0  0  0  0  0  0  0  0  0  0  0  0
   38.7160   23.0850   36.6430 C   0  0  2  0  0  3  0  0  0  0  0  0
   37.4580   23.4200   37.4410 C   0  0  0  0  0  3  0  0  0  0  0  0
   36.7410   24.0310   36.8910 H   0  0  0  0  0  0  0  0  0  0  0  0
   38.0630   24.2450   38.5730 C   0  0  0  0  0  3  0  0  0  0  0  0
   37.3450   24.4500   39.3870 H   0  0  0  0  0  0  0  0  0  0  0  0
   39.1450   23.3700   39.0210 N   0  0  0  0  0  0  0  0  0  0  0  0
   39.5520   23.1340   39.9570 H   0  0  0  0  0  0  0  0  0  0  0  0
  1 24  1  0  0  0  0
  1  6  1  0  0  0  0
  2  8  1  0  0  0  0
  3  2  1  0  0  0  0
  3 10  1  0  0  0  0
  4  3  2  0  0  0  0
  5  6  2  0  0  0  0
  5  4  1  0  0  0  0
  6  7  1  0  0  0  0
  7  2  2  0  0  0  0
  9  4  1  0  0  0  0
 10 11  1  0  0  0  0
 11 12  1  0  0  0  0
 12 13  2  0  0  0  0
 12 17  1  0  0  0  0
 13 18  1  0  0  0  0
 14 19  1  0  0  0  0
 14 13  1  0  0  0  0
 15 16  1  0  0  0  0
 15 14  2  0  0  0  0
 16 11  2  0  0  0  0
 20 15  1  0  0  0  0
 20 22  1  0  0  0  0
 21 20  1  0  0  0  0
 23 20  1  0  0  0  0
 24 25  1  0  0  0  0
 24 29  1  0  0  0  0
 26 24  1  0  0  0  0
 28 27  1  0  0  0  0
 28 33  1  0  0  0  0
 29 28  2  0  0  0  0
 30 29  1  0  0  0  0
 30 31  2  0  0  0  0
 31 32  1  0  0  0  0
 32 33  2  0  0  0  0
 32 36  1  0  0  0  0
 33 37  1  0  0  0  0
 34 30  1  0  0  0  0
 35 31  1  0  0  0  0
 38 39  2  0  0  0  0
 39 45  1  0  0  0  0
 40 37  1  6  0  0  0
 40 41  1  0  0  0  0
 40 39  1  0  0  0  0
 41 43  1  0  0  0  0
 42 41  1  0  0  0  0
 43 45  1  0  0  0  0
 43 44  1  0  0  0  0
 45 46  1  0  0  0  0
M  END
>  <minimizedAffinity>
-5.94159031

$$$$

 OpenBabel03262522293D

 46 49  0  0  1  0  0  0  0  0999 V2000
   38.2020   27.8430   30.3240 S   0  0  0  0  0  0  0  0  0  0  0  0
   34.9670   28.7870   32.5390 C   0  0  0  0  0  0  0  0  0  0  0  0
   34.9820   30.1800   32.4680 C   0  0  0  0  0  0  0  0  0  0  0  0
   35.9880   30.7560   31.7420 C   0  0  0  0  0  0  0  0  0  0  0  0
   36.9020   29.9470   31.1410 N   0  0  0  0  0  0  0  0  0  0  0  0
   36.8590   28.6470   31.2280 C   0  0  0  0  0  0  0  0  0  0  0  0
   35.8760   28.0030   31.9400 N   0  0  0  0  0  0  0  0  0  0  0  0
   34.1850   28.2650   33.1060 H   0  0  0  0  0  0  0  0  0  0  0  0
   36.0010   31.8250   31.6860 H   0  0  0  0  0  0  0  0  0  0  0  0
   34.0060   30.8740   33.1170 O   0  0  0  0  0  0  0  0  0  0  0  0
   34.2130   31.2920   34.4120 C   0  0  0  0  0  0  0  0  0  0  0  0
   35.3770   31.2780   35.1330 C   0  0  0  0  0  0  0  0  0  0  0  0
   35.3860   31.7340   36.4090 C   0  0  0  0  0  0  0  0  0  0  0  0
   34.2220   32.2020   36.9460 C   0  0  0  0  0  0  0  0  0  0  0  0
   33.0320   32.2160   36.2050 C   0  0  0  0  0  0  0  0  0  0  0  0
   33.0690   31.7490   34.9310 N   0  0  0  0  0  0  0  0  0  0  0  0
   36.2130   30.8700   34.5480 H   0  0  0  0  0  0  0  0  0  0  0  0
   36.3390   31.6950   36.9240 H   0  0  0  0  0  0  0  0  0  0  0  0
   34.2440   32.5660   37.9720 H   0  0  0  0  0  0  0  0  0  0  0  0
   31.7620   32.7410   36.8320 C   0  0  0  0  0  0  0  0  0  0  0  0
   31.3750   32.0000   37.5550 H   0  0  0  0  0  0  0  0  0  0  0  0
   32.0200   33.6900   37.3590 H   0  0  0  0  0  0  0  0  0  0  0  0
   31.0750   32.9430   35.9860 H   0  0  0  0  0  0  0  0  0  0  0  0
   39.3610   27.3100   31.6120 C   0  0  0  0  0  0  0  0  0  0  0  0
   39.4540   28.0690   32.4100 H   0  0  0  0  0  0  0  0  0  0  0  0
   40.3520   27.1460   31.1240 H   0  0  0  0  0  0  0  0  0  0  0  0
   39.6210   26.8530   34.3140 F   0  0  0  0  0  0  0  0  0  0  0  0
   39.0120   25.9020   33.5460 C   0  0  0  0  0  0  0  0  0  0  0  0
   38.8290   26.0310   32.1660 C   0  0  0  0  0  0  0  0  0  0  0  0
   38.2100   25.0530   31.4300 C   0  0  0  0  0  0  0  0  0  0  0  0
   37.7480   23.8880   32.0810 C   0  0  0  0  0  0  0  0  0  0  0  0
   37.9270   23.7550   33.4390 C   0  0  0  0  0  0  0  0  0  0  0  0
   38.5460   24.7440   34.1580 C   0  0  0  0  0  0  0  0  0  0  0  0
   38.1490   25.3080   30.3890 H   0  0  0  0  0  0  0  0  0  0  0  0
   37.2870   23.2100   31.3850 H   0  0  0  0  0  0  0  0  0  0  0  0
   37.5140   22.8210   33.7250 H   0  0  0  0  0  0  0  0  0  0  0  0
   38.6900   24.5570   35.5100 O   0  0  0  0  0  0  0  0  0  0  0  0
   37.6090   23.7940   38.0070 O   0  0  0  0  0  0  0  0  0  0  0  0
   38.7010   23.3230   37.5650 C   0  0  0  0  0  0  0  0  0  0  0  0
   39.0410   23.3650   36.0860 C   0  0  2  0  0  3  0  0  0  0  0  0
   40.5520   23.1750   36.2100 C   0  0  0  0  0  3  0  0  0  0  0  0
   41.0180   22.7830   35.3050 H   0  0  0  0  0  0  0  0  0  0  0  0
   40.6050   22.1170   37.3070 C   0  0  0  0  0  3  0  0  0  0  0  0
   41.6270   21.9500   37.6930 H   0  0  0  0  0  0  0  0  0  0  0  0
   39.7390   22.7110   38.3240 N   0  0  0  0  0  0  0  0  0  0  0  0
   39.7610   22.7470   39.3700 H   0  0  0  0  0  0  0  0  0  0  0  0
  1  6  1  0  0  0  0
  1 24  1  0  0  0  0
  2  8  1  0  0  0  0
  3  2  1  0  0  0  0
  3 10  1  0  0  0  0
  4  3  2  0  0  0  0
  5  6  2  0  0  0  0
  5  4  1  0  0  0  0
  6  7  1  0  0  0  0
  7  2  2  0  0  0  0
  9  4  1  0  0  0  0
 10 11  1  0  0  0  0
 11 16  2  0  0  0  0
 11 12  1  0  0  0  0
 12 13  2  0  0  0  0
 13 18  1  0  0  0  0
 13 14  1  0  0  0  0
 14 19  1  0  0  0  0
 15 20  1  0  0  0  0
 15 14  2  0  0  0  0
 16 15  1  0  0  0  0
 17 12  1  0  0  0  0
 20 22  1  0  0  0  0
 20 21  1  0  0  0  0
 23 20  1  0  0  0  0
 24 29  1  0  0  0  0
 24 25  1  0  0  0  0
 26 24  1  0  0  0  0
 28 33  1  0  0  0  0
 28 27  1  0  0  0  0
 29 28  2  0  0  0  0
 30 31  2  0  0  0  0
 30 29  1  0  0  0  0
 31 32  1  0  0  0  0
 32 36  1  0  0  0  0
 32 33  2  0  0  0  0
 33 37  1  0  0  0  0
 34 30  1  0  0  0  0
 35 31  1  0  0  0  0
 39 38  2  0  0  0  0
 39 45  1  0  0  0  0
 40 37  1  1  0  0  0
 40 41  1  0  0  0  0
 40 39  1  0  0  0  0
 41 43  1  0  0  0  0
 42 41  1  0  0  0  0
 43 44  1  0  0  0  0
 43 45  1  0  0  0  0
 45 46  1  0  0  0  0
M  END
>  <minimizedAffinity>
-5.93922329

$$$$
