
 OpenBabel03272503403D

 41 44  0  0  1  0  0  0  0  0999 V2000
   39.6120   30.9100   41.7860 C   0  0  2  0  0  0  0  0  0  0  0  0
   39.8420   32.0470   42.7540 C   0  0  1  0  0  0  0  0  0  0  0  0
   38.8460   33.0350   42.1780 C   0  0  0  0  0  0  0  0  0  0  0  0
   38.8290   32.8690   40.8140 O   0  0  0  0  0  0  0  0  0  0  0  0
   39.5180   31.7420   40.4940 C   0  0  0  0  0  0  0  0  0  0  0  0
   40.4000   30.1700   41.7120 H   0  0  0  0  0  0  0  0  0  0  0  0
   40.8380   32.4770   42.6920 H   0  0  0  0  0  0  0  0  0  0  0  0
   39.1060   34.0660   42.4370 H   0  0  0  0  0  0  0  0  0  0  0  0
   37.8410   32.7350   42.5690 H   0  0  0  0  0  0  0  0  0  0  0  0
   40.5670   32.0290   40.2600 H   0  0  0  0  0  0  0  0  0  0  0  0
   39.1530   31.1470   39.6550 H   0  0  0  0  0  0  0  0  0  0  0  0
   38.4850   31.1300   45.9450 C   0  0  0  0  0  0  0  0  0  0  0  0
   39.8020   31.0650   46.2240 C   0  0  0  0  0  0  0  0  0  0  0  0
   40.4270   31.4120   45.0240 C   0  0  0  0  0  0  0  0  0  0  0  0
   39.4940   31.6650   44.0960 N   0  0  0  0  0  0  0  0  0  0  0  0
   38.2910   31.4950   44.6500 N   0  0  0  0  0  0  0  0  0  0  0  0
   40.2360   30.7950   47.1890 H   0  0  0  0  0  0  0  0  0  0  0  0
   41.5170   31.4540   44.9140 H   0  0  0  0  0  0  0  0  0  0  0  0
   36.4920   30.6490   49.0930 C   0  0  0  0  0  0  0  0  0  0  0  0
   37.5340   30.9260   48.2430 C   0  0  0  0  0  0  0  0  0  0  0  0
   37.4100   30.8480   46.8810 C   0  0  0  0  0  0  0  0  0  0  0  0
   36.1820   30.4750   46.4130 N   0  0  0  0  0  0  0  0  0  0  0  0
   35.1550   30.2030   47.2690 C   0  0  0  0  0  0  0  0  0  0  0  0
   35.3020   30.2860   48.5800 N   0  0  0  0  0  0  0  0  0  0  0  0
   38.5370   31.2290   48.5790 H   0  0  0  0  0  0  0  0  0  0  0  0
   34.1980   29.9120   46.9110 H   0  0  0  0  0  0  0  0  0  0  0  0
   36.8180   30.7850   50.4380 O   0  0  0  0  0  0  0  0  0  0  0  0
   36.8670   29.7140   51.3440 C   0  0  0  0  0  0  0  0  0  0  0  0
   35.5970   29.2220   51.6460 F   0  0  0  0  0  0  0  0  0  0  0  0
   37.5200   30.0980   52.4720 F   0  0  0  0  0  0  0  0  0  0  0  0
   37.5910   28.6770   50.7590 F   0  0  0  0  0  0  0  0  0  0  0  0
   38.3530   30.3670   42.0500 O   0  0  0  0  0  0  0  0  0  0  0  0
   37.9980   28.3720   39.5200 O   0  0  0  0  0  0  0  0  0  0  0  0
   38.2850   28.4130   40.7650 C   0  0  0  0  0  0  0  0  0  0  0  0
   38.3990   28.9800   42.1200 C   0  0  1  0  0  3  0  0  0  0  0  0
   39.8130   28.5470   42.4990 C   0  0  0  0  0  3  0  0  0  0  0  0
   40.0270   28.6080   43.5640 H   0  0  0  0  0  0  0  0  0  0  0  0
   39.7820   27.0540   42.1450 C   0  0  0  0  0  3  0  0  0  0  0  0
   39.3810   26.5330   43.0200 H   0  0  0  0  0  0  0  0  0  0  0  0
   38.8470   27.0970   41.0290 N   0  0  0  0  0  0  0  0  0  0  0  0
   38.8240   26.0990   40.6870 H   0  0  0  0  0  0  0  0  0  0  0  0
  1  6  1  6  0  0  0
  1 32  1  0  0  0  0
  1  2  1  0  0  0  0
  2  7  1  6  0  0  0
  2 15  1  0  0  0  0
  3  8  1  0  0  0  0
  3  9  1  0  0  0  0
  3  2  1  0  0  0  0
  4  3  1  0  0  0  0
  5  4  1  0  0  0  0
  5  1  1  0  0  0  0
 10  5  1  0  0  0  0
 11  5  1  0  0  0  0
 12 13  1  0  0  0  0
 12 21  1  0  0  0  0
 13 17  1  0  0  0  0
 14 13  2  0  0  0  0
 15 16  1  0  0  0  0
 15 14  1  0  0  0  0
 16 12  2  0  0  0  0
 18 14  1  0  0  0  0
 19 27  1  0  0  0  0
 20 25  1  0  0  0  0
 20 19  2  0  0  0  0
 21 20  1  0  0  0  0
 22 21  2  0  0  0  0
 22 23  1  0  0  0  0
 23 24  2  0  0  0  0
 24 19  1  0  0  0  0
 26 23  1  0  0  0  0
 27 28  1  0  0  0  0
 28 29  1  0  0  0  0
 28 30  1  0  0  0  0
 31 28  1  0  0  0  0
 33 34  2  0  0  0  0
 34 40  1  0  0  0  0
 34 35  1  0  0  0  0
 35 32  1  6  0  0  0
 35 36  1  0  0  0  0
 36 37  1  0  0  0  0
 38 36  1  0  0  0  0
 38 39  1  0  0  0  0
 40 38  1  0  0  0  0
 41 40  1  0  0  0  0
M  END
>  <minimizedAffinity>
-6.09916162

>  <minimizedRMSD>
0.366611004

$$$$
