
 OpenBabel03272503403D

 41 44  0  0  1  0  0  0  0  0999 V2000
   39.7380   31.1820   41.7150 C   0  0  2  0  0  0  0  0  0  0  0  0
   39.6150   32.3140   42.7080 C   0  0  1  0  0  0  0  0  0  0  0  0
   38.4220   33.0200   42.0940 C   0  0  0  0  0  0  0  0  0  0  0  0
   38.5130   32.8910   40.7290 O   0  0  0  0  0  0  0  0  0  0  0  0
   39.4880   31.9930   40.4310 C   0  0  0  0  0  0  0  0  0  0  0  0
   40.6960   30.6760   41.6720 H   0  0  0  0  0  0  0  0  0  0  0  0
   40.4640   32.9920   42.7030 H   0  0  0  0  0  0  0  0  0  0  0  0
   38.3890   34.0760   42.3790 H   0  0  0  0  0  0  0  0  0  0  0  0
   37.5140   32.4570   42.4280 H   0  0  0  0  0  0  0  0  0  0  0  0
   40.4340   32.5510   40.2550 H   0  0  0  0  0  0  0  0  0  0  0  0
   39.3330   31.3460   39.5660 H   0  0  0  0  0  0  0  0  0  0  0  0
   38.3800   31.1620   45.8720 C   0  0  0  0  0  0  0  0  0  0  0  0
   39.7030   30.9870   46.0610 C   0  0  0  0  0  0  0  0  0  0  0  0
   40.2820   31.4150   44.8640 C   0  0  0  0  0  0  0  0  0  0  0  0
   39.3170   31.8190   44.0250 N   0  0  0  0  0  0  0  0  0  0  0  0
   38.1390   31.6680   44.6340 N   0  0  0  0  0  0  0  0  0  0  0  0
   40.1710   30.5940   46.9650 H   0  0  0  0  0  0  0  0  0  0  0  0
   41.3640   31.4010   44.6900 H   0  0  0  0  0  0  0  0  0  0  0  0
   36.5010   30.6290   49.0820 C   0  0  0  0  0  0  0  0  0  0  0  0
   37.5080   30.9330   48.1990 C   0  0  0  0  0  0  0  0  0  0  0  0
   37.3420   30.8530   46.8420 C   0  0  0  0  0  0  0  0  0  0  0  0
   36.1100   30.4500   46.4120 N   0  0  0  0  0  0  0  0  0  0  0  0
   35.1180   30.1520   47.3000 C   0  0  0  0  0  0  0  0  0  0  0  0
   35.3040   30.2370   48.6050 N   0  0  0  0  0  0  0  0  0  0  0  0
   38.5130   31.2600   48.5040 H   0  0  0  0  0  0  0  0  0  0  0  0
   34.1570   29.8380   46.9720 H   0  0  0  0  0  0  0  0  0  0  0  0
   36.8650   30.7720   50.4150 O   0  0  0  0  0  0  0  0  0  0  0  0
   36.9090   29.7100   51.3330 C   0  0  0  0  0  0  0  0  0  0  0  0
   35.6360   29.2400   51.6540 F   0  0  0  0  0  0  0  0  0  0  0  0
   37.5780   30.0980   52.4500 F   0  0  0  0  0  0  0  0  0  0  0  0
   37.6130   28.6570   50.7530 F   0  0  0  0  0  0  0  0  0  0  0  0
   38.6560   30.3200   41.9070 O   0  0  0  0  0  0  0  0  0  0  0  0
   41.6850   29.2200   42.2460 O   0  0  0  0  0  0  0  0  0  0  0  0
   40.4700   28.8540   42.0880 C   0  0  0  0  0  0  0  0  0  0  0  0
   39.0340   28.9900   41.7860 C   0  0  1  0  0  0  0  0  0  0  0  0
   38.4190   28.1880   42.9300 C   0  0  0  0  0  0  0  0  0  0  0  0
   37.3800   27.9080   42.7680 H   0  0  0  0  0  0  0  0  0  0  0  0
   39.2360   26.8910   42.8720 C   0  0  0  0  0  0  0  0  0  0  0  0
   38.7410   26.2420   42.1420 H   0  0  0  0  0  0  0  0  0  0  0  0
   40.4990   27.4320   42.3880 N   0  0  0  0  0  0  0  0  0  0  0  0
   41.1420   26.5930   42.3830 H   0  0  0  0  0  0  0  0  0  0  0  0
  1  6  1  1  0  0  0
  1 32  1  0  0  0  0
  1  2  1  0  0  0  0
  2  7  1  6  0  0  0
  2 15  1  0  0  0  0
  3  8  1  0  0  0  0
  3  9  1  0  0  0  0
  3  2  1  0  0  0  0
  4  3  1  0  0  0  0
  5  4  1  0  0  0  0
  5  1  1  0  0  0  0
 10  5  1  0  0  0  0
 11  5  1  0  0  0  0
 12 13  1  0  0  0  0
 12 21  1  0  0  0  0
 13 17  1  0  0  0  0
 14 13  2  0  0  0  0
 15 16  1  0  0  0  0
 15 14  1  0  0  0  0
 16 12  2  0  0  0  0
 18 14  1  0  0  0  0
 19 27  1  0  0  0  0
 20 25  1  0  0  0  0
 20 19  2  0  0  0  0
 21 20  1  0  0  0  0
 22 21  2  0  0  0  0
 22 23  1  0  0  0  0
 23 24  2  0  0  0  0
 24 19  1  0  0  0  0
 26 23  1  0  0  0  0
 27 28  1  0  0  0  0
 28 29  1  0  0  0  0
 28 30  1  0  0  0  0
 31 28  1  0  0  0  0
 34 33  2  0  0  0  0
 34 40  1  0  0  0  0
 35 32  1  1  0  0  0
 35 34  1  0  0  0  0
 35 36  1  0  0  0  0
 37 36  1  0  0  0  0
 38 36  1  0  0  0  0
 39 38  1  0  0  0  0
 40 38  1  0  0  0  0
 41 40  1  0  0  0  0
M  END
>  <minimizedAffinity>
-6.6837945

>  <minimizedRMSD>
0.68167454

$$$$
