
 OpenBabel03272503403D

 41 44  0  0  1  0  0  0  0  0999 V2000
   39.7400   31.1820   41.7190 C   0  0  2  0  0  0  0  0  0  0  0  0
   39.6170   32.3140   42.7110 C   0  0  1  0  0  0  0  0  0  0  0  0
   38.4240   33.0210   42.0970 C   0  0  0  0  0  0  0  0  0  0  0  0
   38.5150   32.8910   40.7320 O   0  0  0  0  0  0  0  0  0  0  0  0
   39.4900   31.9930   40.4340 C   0  0  0  0  0  0  0  0  0  0  0  0
   40.6970   30.6760   41.6770 H   0  0  0  0  0  0  0  0  0  0  0  0
   40.4660   32.9920   42.7060 H   0  0  0  0  0  0  0  0  0  0  0  0
   38.3910   34.0770   42.3810 H   0  0  0  0  0  0  0  0  0  0  0  0
   37.5160   32.4580   42.4310 H   0  0  0  0  0  0  0  0  0  0  0  0
   40.4370   32.5510   40.2580 H   0  0  0  0  0  0  0  0  0  0  0  0
   39.3350   31.3450   39.5690 H   0  0  0  0  0  0  0  0  0  0  0  0
   38.3800   31.1630   45.8750 C   0  0  0  0  0  0  0  0  0  0  0  0
   39.7030   30.9900   46.0650 C   0  0  0  0  0  0  0  0  0  0  0  0
   40.2830   31.4180   44.8680 C   0  0  0  0  0  0  0  0  0  0  0  0
   39.3180   31.8200   44.0290 N   0  0  0  0  0  0  0  0  0  0  0  0
   38.1400   31.6690   44.6360 N   0  0  0  0  0  0  0  0  0  0  0  0
   40.1710   30.5980   46.9700 H   0  0  0  0  0  0  0  0  0  0  0  0
   41.3650   31.4050   44.6950 H   0  0  0  0  0  0  0  0  0  0  0  0
   36.4990   30.6290   49.0830 C   0  0  0  0  0  0  0  0  0  0  0  0
   37.5070   30.9330   48.2010 C   0  0  0  0  0  0  0  0  0  0  0  0
   37.3420   30.8540   46.8440 C   0  0  0  0  0  0  0  0  0  0  0  0
   36.1100   30.4500   46.4130 N   0  0  0  0  0  0  0  0  0  0  0  0
   35.1170   30.1520   47.3000 C   0  0  0  0  0  0  0  0  0  0  0  0
   35.3030   30.2370   48.6060 N   0  0  0  0  0  0  0  0  0  0  0  0
   38.5110   31.2610   48.5070 H   0  0  0  0  0  0  0  0  0  0  0  0
   34.1570   29.8370   46.9720 H   0  0  0  0  0  0  0  0  0  0  0  0
   36.8620   30.7730   50.4170 O   0  0  0  0  0  0  0  0  0  0  0  0
   36.9100   29.7100   51.3340 C   0  0  0  0  0  0  0  0  0  0  0  0
   35.6370   29.2400   51.6590 F   0  0  0  0  0  0  0  0  0  0  0  0
   37.5830   30.0970   52.4490 F   0  0  0  0  0  0  0  0  0  0  0  0
   37.6100   28.6570   50.7510 F   0  0  0  0  0  0  0  0  0  0  0  0
   38.6570   30.3210   41.9100 O   0  0  0  0  0  0  0  0  0  0  0  0
   41.6860   29.2180   42.2480 O   0  0  0  0  0  0  0  0  0  0  0  0
   40.4710   28.8530   42.0900 C   0  0  0  0  0  0  0  0  0  0  0  0
   39.0350   28.9900   41.7870 C   0  0  1  0  0  3  0  0  0  0  0  0
   38.4180   28.1880   42.9300 C   0  0  0  0  0  3  0  0  0  0  0  0
   37.3800   27.9080   42.7680 H   0  0  0  0  0  0  0  0  0  0  0  0
   39.2360   26.8900   42.8710 C   0  0  0  0  0  3  0  0  0  0  0  0
   38.7400   26.2420   42.1400 H   0  0  0  0  0  0  0  0  0  0  0  0
   40.4990   27.4310   42.3890 N   0  0  0  0  0  0  0  0  0  0  0  0
   41.1400   26.5910   42.3820 H   0  0  0  0  0  0  0  0  0  0  0  0
  1  6  1  1  0  0  0
  1 32  1  0  0  0  0
  1  2  1  0  0  0  0
  2  7  1  6  0  0  0
  2 15  1  0  0  0  0
  3  8  1  0  0  0  0
  3  9  1  0  0  0  0
  3  2  1  0  0  0  0
  4  3  1  0  0  0  0
  5  4  1  0  0  0  0
  5  1  1  0  0  0  0
 10  5  1  0  0  0  0
 11  5  1  0  0  0  0
 12 13  1  0  0  0  0
 12 21  1  0  0  0  0
 13 17  1  0  0  0  0
 14 13  2  0  0  0  0
 15 16  1  0  0  0  0
 15 14  1  0  0  0  0
 16 12  2  0  0  0  0
 18 14  1  0  0  0  0
 19 27  1  0  0  0  0
 20 25  1  0  0  0  0
 20 19  2  0  0  0  0
 21 20  1  0  0  0  0
 22 21  2  0  0  0  0
 22 23  1  0  0  0  0
 23 24  2  0  0  0  0
 24 19  1  0  0  0  0
 26 23  1  0  0  0  0
 27 28  1  0  0  0  0
 28 29  1  0  0  0  0
 28 30  1  0  0  0  0
 31 28  1  0  0  0  0
 34 33  2  0  0  0  0
 34 40  1  0  0  0  0
 35 32  1  1  0  0  0
 35 34  1  0  0  0  0
 35 36  1  0  0  0  0
 37 36  1  0  0  0  0
 38 36  1  0  0  0  0
 39 38  1  0  0  0  0
 40 38  1  0  0  0  0
 41 40  1  0  0  0  0
M  END
>  <minimizedAffinity>
-6.68277836

>  <minimizedRMSD>
0.550349414

$$$$
