
 OpenBabel03272506363D

 23 24  0  0  1  0  0  0  0  0999 V2000
   37.8570   30.9460   47.9480 C   0  0  0  0  0  0  0  0  0  0  0  0
   36.8280   30.7090   47.0070 C   0  0  0  0  0  0  0  0  0  0  0  0
   35.5590   30.3510   47.4550 C   0  0  0  0  0  0  0  0  0  0  0  0
   35.3800   30.2470   48.8110 N   0  0  0  0  0  0  0  0  0  0  0  0
   36.3770   30.4770   49.6960 C   0  0  0  0  0  0  0  0  0  0  0  0
   37.5790   30.8170   49.2450 N   0  0  0  0  0  0  0  0  0  0  0  0
   36.9950   29.3560   51.6980 C   0  0  0  0  0  0  0  0  0  0  0  0
   37.8740   28.6250   51.1520 O   0  0  0  0  0  0  0  0  0  0  0  0
   36.1410   30.3560   51.0940 N   0  0  0  0  0  0  0  0  0  0  0  0
   36.9170   30.7770   45.9270 H   0  0  0  0  0  0  0  0  0  0  0  0
   34.7410   30.1600   46.7750 H   0  0  0  0  0  0  0  0  0  0  0  0
   37.0100   29.0730   52.7560 H   0  0  0  0  0  0  0  0  0  0  0  0
   35.4980   30.8290   51.7350 H   0  0  0  0  0  0  0  0  0  0  0  0
   39.0340   31.2870   47.3290 O   0  0  0  0  0  0  0  0  0  0  0  0
   39.3770   29.8350   44.8330 O   0  0  0  0  0  0  0  0  0  0  0  0
   39.6730   31.0450   45.0210 C   0  0  0  0  0  0  0  0  0  0  0  0
   38.9930   31.8760   46.0460 C   0  0  2  0  0  3  0  0  0  0  0  0
   39.8140   33.1580   46.0000 C   0  0  0  0  0  3  0  0  0  0  0  0
   39.1860   34.0460   46.2070 H   0  0  0  0  0  0  0  0  0  0  0  0
   40.3540   33.1710   44.5950 C   0  0  0  0  0  3  0  0  0  0  0  0
   39.5930   33.5260   43.8790 H   0  0  0  0  0  0  0  0  0  0  0  0
   40.6740   31.7760   44.2980 N   0  0  0  0  0  0  0  0  0  0  0  0
   41.4370   31.4210   43.7100 H   0  0  0  0  0  0  0  0  0  0  0  0
  1  6  1  0  0  0  0
  2  3  1  0  0  0  0
  2  1  2  0  0  0  0
  3  4  2  0  0  0  0
  4  5  1  0  0  0  0
  5  9  1  0  0  0  0
  6  5  2  0  0  0  0
  7 12  1  0  0  0  0
  8  7  2  0  0  0  0
  9  7  1  0  0  0  0
  9 13  1  0  0  0  0
 10  2  1  0  0  0  0
 11  3  1  0  0  0  0
 14  1  1  0  0  0  0
 15 16  2  0  0  0  0
 16 17  1  0  0  0  0
 17 14  1  1  0  0  0
 18 17  1  0  0  0  0
 18 19  1  0  0  0  0
 20 18  1  0  0  0  0
 21 20  1  0  0  0  0
 22 20  1  0  0  0  0
 22 16  1  0  0  0  0
 23 22  1  0  0  0  0
M  END
>  <minimizedAffinity>
-4.31324768

>  <minimizedRMSD>
6.74545717

$$$$
