
 OpenBabel03272503403D

 41 44  0  0  1  0  0  0  0  0999 V2000
   39.6130   30.9100   41.7870 C   0  0  2  0  0  0  0  0  0  0  0  0
   39.8460   32.0470   42.7540 C   0  0  1  0  0  0  0  0  0  0  0  0
   38.8510   33.0370   42.1790 C   0  0  0  0  0  0  0  0  0  0  0  0
   38.8340   32.8700   40.8150 O   0  0  0  0  0  0  0  0  0  0  0  0
   39.5200   31.7430   40.4940 C   0  0  0  0  0  0  0  0  0  0  0  0
   40.3990   30.1680   41.7120 H   0  0  0  0  0  0  0  0  0  0  0  0
   40.8420   32.4750   42.6920 H   0  0  0  0  0  0  0  0  0  0  0  0
   39.1130   34.0670   42.4370 H   0  0  0  0  0  0  0  0  0  0  0  0
   37.8460   32.7390   42.5700 H   0  0  0  0  0  0  0  0  0  0  0  0
   40.5700   32.0270   40.2600 H   0  0  0  0  0  0  0  0  0  0  0  0
   39.1540   31.1480   39.6550 H   0  0  0  0  0  0  0  0  0  0  0  0
   38.4870   31.1310   45.9450 C   0  0  0  0  0  0  0  0  0  0  0  0
   39.8040   31.0680   46.2260 C   0  0  0  0  0  0  0  0  0  0  0  0
   40.4290   31.4150   45.0260 C   0  0  0  0  0  0  0  0  0  0  0  0
   39.4960   31.6650   44.0970 N   0  0  0  0  0  0  0  0  0  0  0  0
   38.2940   31.4940   44.6500 N   0  0  0  0  0  0  0  0  0  0  0  0
   40.2370   30.8000   47.1910 H   0  0  0  0  0  0  0  0  0  0  0  0
   41.5190   31.4590   44.9160 H   0  0  0  0  0  0  0  0  0  0  0  0
   36.4920   30.6480   49.0920 C   0  0  0  0  0  0  0  0  0  0  0  0
   37.5350   30.9260   48.2420 C   0  0  0  0  0  0  0  0  0  0  0  0
   37.4110   30.8480   46.8810 C   0  0  0  0  0  0  0  0  0  0  0  0
   36.1840   30.4740   46.4110 N   0  0  0  0  0  0  0  0  0  0  0  0
   35.1570   30.2010   47.2670 C   0  0  0  0  0  0  0  0  0  0  0  0
   35.3030   30.2840   48.5780 N   0  0  0  0  0  0  0  0  0  0  0  0
   38.5370   31.2300   48.5800 H   0  0  0  0  0  0  0  0  0  0  0  0
   34.2000   29.9100   46.9080 H   0  0  0  0  0  0  0  0  0  0  0  0
   36.8170   30.7850   50.4370 O   0  0  0  0  0  0  0  0  0  0  0  0
   36.8650   29.7130   51.3440 C   0  0  0  0  0  0  0  0  0  0  0  0
   35.5940   29.2210   51.6420 F   0  0  0  0  0  0  0  0  0  0  0  0
   37.5130   30.0980   52.4730 F   0  0  0  0  0  0  0  0  0  0  0  0
   37.5910   28.6780   50.7610 F   0  0  0  0  0  0  0  0  0  0  0  0
   38.3530   30.3690   42.0510 O   0  0  0  0  0  0  0  0  0  0  0  0
   38.0610   28.3950   39.4980 O   0  0  0  0  0  0  0  0  0  0  0  0
   38.3160   28.4250   40.7510 C   0  0  0  0  0  0  0  0  0  0  0  0
   38.3950   28.9820   42.1120 C   0  0  1  0  0  3  0  0  0  0  0  0
   39.7980   28.5430   42.5250 C   0  0  0  0  0  3  0  0  0  0  0  0
   39.9840   28.5960   43.5960 H   0  0  0  0  0  0  0  0  0  0  0  0
   39.7740   27.0530   42.1580 C   0  0  0  0  0  3  0  0  0  0  0  0
   39.3480   26.5260   43.0190 H   0  0  0  0  0  0  0  0  0  0  0  0
   38.8670   27.1060   41.0190 N   0  0  0  0  0  0  0  0  0  0  0  0
   38.8510   26.1100   40.6690 H   0  0  0  0  0  0  0  0  0  0  0  0
  1  6  1  6  0  0  0
  1 32  1  0  0  0  0
  1  2  1  0  0  0  0
  2  7  1  6  0  0  0
  2 15  1  0  0  0  0
  3  8  1  0  0  0  0
  3  9  1  0  0  0  0
  3  2  1  0  0  0  0
  4  3  1  0  0  0  0
  5  4  1  0  0  0  0
  5  1  1  0  0  0  0
 10  5  1  0  0  0  0
 11  5  1  0  0  0  0
 12 13  1  0  0  0  0
 12 21  1  0  0  0  0
 13 17  1  0  0  0  0
 14 13  2  0  0  0  0
 15 16  1  0  0  0  0
 15 14  1  0  0  0  0
 16 12  2  0  0  0  0
 18 14  1  0  0  0  0
 19 27  1  0  0  0  0
 20 25  1  0  0  0  0
 20 19  2  0  0  0  0
 21 20  1  0  0  0  0
 22 21  2  0  0  0  0
 22 23  1  0  0  0  0
 23 24  2  0  0  0  0
 24 19  1  0  0  0  0
 26 23  1  0  0  0  0
 27 28  1  0  0  0  0
 28 29  1  0  0  0  0
 28 30  1  0  0  0  0
 31 28  1  0  0  0  0
 33 34  2  0  0  0  0
 34 40  1  0  0  0  0
 34 35  1  0  0  0  0
 35 32  1  6  0  0  0
 35 36  1  0  0  0  0
 36 37  1  0  0  0  0
 38 36  1  0  0  0  0
 38 39  1  0  0  0  0
 40 38  1  0  0  0  0
 41 40  1  0  0  0  0
M  END
>  <minimizedAffinity>
-6.10666466

>  <minimizedRMSD>
0.552538931

$$$$
