
 OpenBabel03272504563D

 33 35  0  0  1  0  0  0  0  0999 V2000
   36.9500   31.4860   48.7150 C   0  0  1  0  0  0  0  0  0  0  0  0
   36.1540   30.8810   47.6720 C   0  0  0  0  0  0  0  0  0  0  0  0
   37.1290   30.0620   48.4500 C   0  0  2  0  0  0  0  0  0  0  0  0
   36.5330   31.7100   49.7580 H   0  0  0  0  0  0  0  0  0  0  0  0
   35.1310   31.1380   47.8540 H   0  0  0  0  0  0  0  0  0  0  0  0
   36.4540   31.1100   46.6280 H   0  0  0  0  0  0  0  0  0  0  0  0
   37.8380   29.5840   47.8060 H   0  0  0  0  0  0  0  0  0  0  0  0
   38.0960   32.3960   48.3790 C   0  0  0  0  0  0  0  0  0  0  0  0
   38.4500   33.3380   49.3730 C   0  0  0  0  0  0  0  0  0  0  0  0
   39.5030   34.1520   49.0330 C   0  0  0  0  0  0  0  0  0  0  0  0
   40.1230   34.0180   47.8150 N   0  0  0  0  0  0  0  0  0  0  0  0
   39.7470   33.1030   46.9030 C   0  0  0  0  0  0  0  0  0  0  0  0
   38.6990   32.2720   47.2070 N   0  0  0  0  0  0  0  0  0  0  0  0
   40.3770   32.9600   45.6600 N   0  0  0  0  0  0  0  0  0  0  0  0
   37.9620   33.4410   50.3260 H   0  0  0  0  0  0  0  0  0  0  0  0
   39.8520   34.9080   49.7230 H   0  0  0  0  0  0  0  0  0  0  0  0
   40.1710   32.1780   45.0310 H   0  0  0  0  0  0  0  0  0  0  0  0
   41.0830   33.6570   45.3370 H   0  0  0  0  0  0  0  0  0  0  0  0
   36.5660   29.1980   49.3980 O   0  0  0  0  0  0  0  0  0  0  0  0
   34.5790   27.5660   49.5880 O   0  0  0  0  0  0  0  0  0  0  0  0
   34.9620   28.9060   49.0470 P   0  0  1  0  0  0  0  0  0  0  0  0
   33.9780   30.0410   49.9120 O   0  0  0  0  0  0  0  0  0  0  0  0
   34.1240   29.7870   50.8580 H   0  0  0  0  0  0  0  0  0  0  0  0
   34.7190   29.0720   47.3960 O   0  0  0  0  0  0  0  0  0  0  0  0
   34.8580   28.4170   44.4790 O   0  0  0  0  0  0  0  0  0  0  0  0
   33.9620   28.3010   45.3540 C   0  0  0  0  0  0  0  0  0  0  0  0
   33.8880   28.1440   46.8300 C   0  0  2  0  0  3  0  0  0  0  0  0
   32.4470   28.5400   47.1340 C   0  0  0  0  0  3  0  0  0  0  0  0
   32.3170   29.6260   47.2160 H   0  0  0  0  0  0  0  0  0  0  0  0
   31.7240   27.9470   45.9290 C   0  0  0  0  0  3  0  0  0  0  0  0
   30.7260   28.3820   45.8490 H   0  0  0  0  0  0  0  0  0  0  0  0
   32.6240   28.3180   44.8530 N   0  0  0  0  0  0  0  0  0  0  0  0
   32.2010   28.5340   43.9090 H   0  0  0  0  0  0  0  0  0  0  0  0
  1  4  1  1  0  0  0
  2  5  1  0  0  0  0
  2  3  1  0  0  0  0
  2  1  1  0  0  0  0
  3  7  1  6  0  0  0
  3  1  1  0  0  0  0
  3 19  1  0  0  0  0
  6  2  1  0  0  0  0
  8  1  1  0  0  0  0
  8  9  1  0  0  0  0
  9 15  1  0  0  0  0
 10  9  2  0  0  0  0
 10 16  1  0  0  0  0
 11 10  1  0  0  0  0
 12 13  1  0  0  0  0
 12 11  2  0  0  0  0
 13  8  2  0  0  0  0
 14 12  1  0  0  0  0
 17 14  1  0  0  0  0
 18 14  1  0  0  0  0
 21 19  1  0  0  0  0
 21 20  2  1  0  0  0
 21 22  1  0  0  0  0
 22 23  1  0  0  0  0
 24 21  1  0  0  0  0
 25 26  2  0  0  0  0
 26 27  1  0  0  0  0
 27 28  1  0  0  0  0
 27 24  1  1  0  0  0
 28 29  1  0  0  0  0
 30 28  1  0  0  0  0
 31 30  1  0  0  0  0
 32 26  1  0  0  0  0
 32 30  1  0  0  0  0
 33 32  1  0  0  0  0
M  END
>  <minimizedAffinity>
-4.61423159

>  <minimizedRMSD>
1.03544307

$$$$
