
 OpenBabel03272500403D

 37 40  0  0  1  0  0  0  0  0999 V2000
   36.1270   29.3500   49.7200 C   0  0  2  0  0  0  0  0  0  0  0  0
   36.3510   29.4850   48.2430 C   0  0  1  0  0  0  0  0  0  0  0  0
   35.1350   30.2450   47.8010 C   0  0  0  0  0  0  0  0  0  0  0  0
   34.5890   30.8530   48.9080 O   0  0  0  0  0  0  0  0  0  0  0  0
   34.7130   29.8940   49.9090 C   0  0  0  0  0  0  0  0  0  0  0  0
   36.1570   28.2960   50.0090 H   0  0  0  0  0  0  0  0  0  0  0  0
   36.4540   28.4860   47.7440 H   0  0  0  0  0  0  0  0  0  0  0  0
   35.1270   30.7350   46.8580 H   0  0  0  0  0  0  0  0  0  0  0  0
   34.4020   29.4020   47.6290 H   0  0  0  0  0  0  0  0  0  0  0  0
   34.5750   30.3300   50.9240 H   0  0  0  0  0  0  0  0  0  0  0  0
   34.0120   29.0390   49.7640 H   0  0  0  0  0  0  0  0  0  0  0  0
   37.4520   31.5780   47.1950 C   0  0  1  0  0  0  0  0  0  0  0  0
   37.8880   30.4240   46.4450 C   0  0  0  0  0  0  0  0  0  0  0  0
   37.5890   30.2510   47.9200 C   0  0  2  0  0  0  0  0  0  0  0  0
   36.4570   32.0550   47.1490 H   0  0  0  0  0  0  0  0  0  0  0  0
   38.9220   30.3840   46.0730 H   0  0  0  0  0  0  0  0  0  0  0  0
   37.1590   29.9910   45.7050 H   0  0  0  0  0  0  0  0  0  0  0  0
   38.4630   30.0370   48.5320 H   0  0  0  0  0  0  0  0  0  0  0  0
   38.4400   32.6040   47.7030 C   0  0  0  0  0  0  0  0  0  0  0  0
   38.2360   33.0710   49.0120 C   0  0  0  0  0  0  0  0  0  0  0  0
   39.1410   34.0280   49.4360 C   0  0  0  0  0  0  0  0  0  0  0  0
   40.1400   34.4630   48.6220 N   0  0  0  0  0  0  0  0  0  0  0  0
   40.3080   33.9880   47.3580 C   0  0  0  0  0  0  0  0  0  0  0  0
   39.4460   33.0550   46.9110 N   0  0  0  0  0  0  0  0  0  0  0  0
   37.4240   32.6730   49.5810 H   0  0  0  0  0  0  0  0  0  0  0  0
   39.0220   34.4190   50.4420 H   0  0  0  0  0  0  0  0  0  0  0  0
   41.1140   34.3630   46.7520 H   0  0  0  0  0  0  0  0  0  0  0  0
   36.9940   30.1740   50.4420 O   0  0  0  0  0  0  0  0  0  0  0  0
   37.1300   30.1790   53.6070 O   0  0  0  0  0  0  0  0  0  0  0  0
   37.6880   29.6270   52.5960 C   0  0  0  0  0  0  0  0  0  0  0  0
   37.9410   29.4920   51.1430 C   0  0  1  0  0  3  0  0  0  0  0  0
   37.7680   27.9660   51.0080 C   0  0  0  0  0  3  0  0  0  0  0  0
   38.0060   27.6070   50.0050 H   0  0  0  0  0  0  0  0  0  0  0  0
   38.7610   27.5200   52.0760 C   0  0  0  0  0  3  0  0  0  0  0  0
   39.8140   27.6410   51.7390 H   0  0  0  0  0  0  0  0  0  0  0  0
   38.5310   28.5600   53.0910 N   0  0  0  0  0  0  0  0  0  0  0  0
   39.0430   28.3020   53.9910 H   0  0  0  0  0  0  0  0  0  0  0  0
  1  5  1  0  0  0  0
  1  6  1  1  0  0  0
  1 28  1  0  0  0  0
  2  7  1  6  0  0  0
  2  1  1  0  0  0  0
  3  2  1  0  0  0  0
  3  4  1  0  0  0  0
  4  5  1  0  0  0  0
  5 10  1  0  0  0  0
  8  3  1  0  0  0  0
  9  3  1  0  0  0  0
 11  5  1  0  0  0  0
 12 15  1  6  0  0  0
 12 19  1  0  0  0  0
 12 14  1  0  0  0  0
 13 12  1  0  0  0  0
 13 14  1  0  0  0  0
 14  2  1  0  0  0  0
 14 18  1  1  0  0  0
 16 13  1  0  0  0  0
 17 13  1  0  0  0  0
 19 20  1  0  0  0  0
 20 21  2  0  0  0  0
 20 25  1  0  0  0  0
 21 26  1  0  0  0  0
 22 21  1  0  0  0  0
 23 22  2  0  0  0  0
 24 23  1  0  0  0  0
 24 19  2  0  0  0  0
 27 23  1  0  0  0  0
 30 36  1  0  0  0  0
 30 29  2  0  0  0  0
 31 28  1  6  0  0  0
 31 30  1  0  0  0  0
 32 31  1  0  0  0  0
 32 34  1  0  0  0  0
 33 32  1  0  0  0  0
 34 36  1  0  0  0  0
 35 34  1  0  0  0  0
 36 37  1  0  0  0  0
M  END
>  <minimizedAffinity>
-1.51157796

>  <minimizedRMSD>
1.36898541

$$$$
