
 OpenBabel03272504563D

 33 35  0  0  1  0  0  0  0  0999 V2000
   36.9570   31.4910   48.7150 C   0  0  1  0  0  0  0  0  0  0  0  0
   36.1580   30.8870   47.6750 C   0  0  0  0  0  0  0  0  0  0  0  0
   37.1350   30.0670   48.4490 C   0  0  2  0  0  0  0  0  0  0  0  0
   36.5440   31.7140   49.7590 H   0  0  0  0  0  0  0  0  0  0  0  0
   35.1360   31.1440   47.8610 H   0  0  0  0  0  0  0  0  0  0  0  0
   36.4540   31.1160   46.6300 H   0  0  0  0  0  0  0  0  0  0  0  0
   37.8410   29.5880   47.8030 H   0  0  0  0  0  0  0  0  0  0  0  0
   38.1030   32.4000   48.3760 C   0  0  0  0  0  0  0  0  0  0  0  0
   38.4590   33.3430   49.3680 C   0  0  0  0  0  0  0  0  0  0  0  0
   39.5120   34.1570   49.0250 C   0  0  0  0  0  0  0  0  0  0  0  0
   40.1300   34.0200   47.8060 N   0  0  0  0  0  0  0  0  0  0  0  0
   39.7520   33.1040   46.8960 C   0  0  0  0  0  0  0  0  0  0  0  0
   38.7040   32.2740   47.2040 N   0  0  0  0  0  0  0  0  0  0  0  0
   40.3800   32.9600   45.6520 N   0  0  0  0  0  0  0  0  0  0  0  0
   37.9730   33.4480   50.3220 H   0  0  0  0  0  0  0  0  0  0  0  0
   39.8620   34.9130   49.7130 H   0  0  0  0  0  0  0  0  0  0  0  0
   40.1720   32.1760   45.0250 H   0  0  0  0  0  0  0  0  0  0  0  0
   41.0850   33.6550   45.3270 H   0  0  0  0  0  0  0  0  0  0  0  0
   36.5740   29.2020   49.3990 O   0  0  0  0  0  0  0  0  0  0  0  0
   34.5880   27.5700   49.5930 O   0  0  0  0  0  0  0  0  0  0  0  0
   34.9700   28.9100   49.0510 P   0  0  1  0  0  0  0  0  0  0  0  0
   33.9870   30.0440   49.9170 O   0  0  0  0  0  0  0  0  0  0  0  0
   34.1350   29.7920   50.8630 H   0  0  0  0  0  0  0  0  0  0  0  0
   34.7230   29.0740   47.4000 O   0  0  0  0  0  0  0  0  0  0  0  0
   34.8560   28.4210   44.4820 O   0  0  0  0  0  0  0  0  0  0  0  0
   33.9620   28.3020   45.3600 C   0  0  0  0  0  0  0  0  0  0  0  0
   33.8920   28.1450   46.8360 C   0  0  2  0  0  3  0  0  0  0  0  0
   32.4510   28.5400   47.1430 C   0  0  0  0  0  3  0  0  0  0  0  0
   32.3200   29.6250   47.2270 H   0  0  0  0  0  0  0  0  0  0  0  0
   31.7260   27.9460   45.9420 C   0  0  0  0  0  3  0  0  0  0  0  0
   30.7270   28.3790   45.8630 H   0  0  0  0  0  0  0  0  0  0  0  0
   32.6230   28.3170   44.8630 N   0  0  0  0  0  0  0  0  0  0  0  0
   32.1970   28.5330   43.9190 H   0  0  0  0  0  0  0  0  0  0  0  0
  1  4  1  1  0  0  0
  2  5  1  0  0  0  0
  2  3  1  0  0  0  0
  2  1  1  0  0  0  0
  3  7  1  6  0  0  0
  3  1  1  0  0  0  0
  3 19  1  0  0  0  0
  6  2  1  0  0  0  0
  8  1  1  0  0  0  0
  8  9  1  0  0  0  0
  9 15  1  0  0  0  0
 10  9  2  0  0  0  0
 10 16  1  0  0  0  0
 11 10  1  0  0  0  0
 12 13  1  0  0  0  0
 12 11  2  0  0  0  0
 13  8  2  0  0  0  0
 14 12  1  0  0  0  0
 17 14  1  0  0  0  0
 18 14  1  0  0  0  0
 21 19  1  0  0  0  0
 21 20  2  1  0  0  0
 21 22  1  0  0  0  0
 22 23  1  0  0  0  0
 24 21  1  0  0  0  0
 25 26  2  0  0  0  0
 26 27  1  0  0  0  0
 27 28  1  0  0  0  0
 27 24  1  1  0  0  0
 28 29  1  0  0  0  0
 30 28  1  0  0  0  0
 31 30  1  0  0  0  0
 32 26  1  0  0  0  0
 32 30  1  0  0  0  0
 33 32  1  0  0  0  0
M  END
>  <minimizedAffinity>
-4.61151552

>  <minimizedRMSD>
1.01395643

$$$$
