
 OpenBabel03272500403D

 37 40  0  0  1  0  0  0  0  0999 V2000
   36.1260   29.3490   49.7190 C   0  0  2  0  0  0  0  0  0  0  0  0
   36.3510   29.4850   48.2420 C   0  0  1  0  0  0  0  0  0  0  0  0
   35.1350   30.2450   47.8000 C   0  0  0  0  0  0  0  0  0  0  0  0
   34.5890   30.8530   48.9060 O   0  0  0  0  0  0  0  0  0  0  0  0
   34.7120   29.8940   49.9070 C   0  0  0  0  0  0  0  0  0  0  0  0
   36.1570   28.2960   50.0080 H   0  0  0  0  0  0  0  0  0  0  0  0
   36.4540   28.4860   47.7430 H   0  0  0  0  0  0  0  0  0  0  0  0
   35.1280   30.7340   46.8560 H   0  0  0  0  0  0  0  0  0  0  0  0
   34.4030   29.4010   47.6270 H   0  0  0  0  0  0  0  0  0  0  0  0
   34.5730   30.3290   50.9220 H   0  0  0  0  0  0  0  0  0  0  0  0
   34.0110   29.0390   49.7620 H   0  0  0  0  0  0  0  0  0  0  0  0
   37.4520   31.5780   47.1940 C   0  0  1  0  0  0  0  0  0  0  0  0
   37.8890   30.4240   46.4450 C   0  0  0  0  0  0  0  0  0  0  0  0
   37.5890   30.2500   47.9190 C   0  0  2  0  0  0  0  0  0  0  0  0
   36.4580   32.0550   47.1480 H   0  0  0  0  0  0  0  0  0  0  0  0
   38.9230   30.3840   46.0730 H   0  0  0  0  0  0  0  0  0  0  0  0
   37.1600   29.9910   45.7050 H   0  0  0  0  0  0  0  0  0  0  0  0
   38.4630   30.0360   48.5310 H   0  0  0  0  0  0  0  0  0  0  0  0
   38.4400   32.6040   47.7030 C   0  0  0  0  0  0  0  0  0  0  0  0
   38.2350   33.0710   49.0120 C   0  0  0  0  0  0  0  0  0  0  0  0
   39.1410   34.0280   49.4360 C   0  0  0  0  0  0  0  0  0  0  0  0
   40.1400   34.4630   48.6220 N   0  0  0  0  0  0  0  0  0  0  0  0
   40.3080   33.9880   47.3580 C   0  0  0  0  0  0  0  0  0  0  0  0
   39.4460   33.0550   46.9110 N   0  0  0  0  0  0  0  0  0  0  0  0
   37.4230   32.6720   49.5810 H   0  0  0  0  0  0  0  0  0  0  0  0
   39.0210   34.4180   50.4430 H   0  0  0  0  0  0  0  0  0  0  0  0
   41.1140   34.3630   46.7530 H   0  0  0  0  0  0  0  0  0  0  0  0
   36.9930   30.1740   50.4410 O   0  0  0  0  0  0  0  0  0  0  0  0
   37.1300   30.1790   53.6070 O   0  0  0  0  0  0  0  0  0  0  0  0
   37.6870   29.6270   52.5950 C   0  0  0  0  0  0  0  0  0  0  0  0
   37.9400   29.4920   51.1420 C   0  0  1  0  0  3  0  0  0  0  0  0
   37.7670   27.9660   51.0070 C   0  0  0  0  0  3  0  0  0  0  0  0
   38.0050   27.6070   50.0040 H   0  0  0  0  0  0  0  0  0  0  0  0
   38.7600   27.5200   52.0750 C   0  0  0  0  0  3  0  0  0  0  0  0
   39.8140   27.6420   51.7380 H   0  0  0  0  0  0  0  0  0  0  0  0
   38.5310   28.5600   53.0910 N   0  0  0  0  0  0  0  0  0  0  0  0
   39.0430   28.3030   53.9910 H   0  0  0  0  0  0  0  0  0  0  0  0
  1  5  1  0  0  0  0
  1  6  1  1  0  0  0
  1 28  1  0  0  0  0
  2  7  1  6  0  0  0
  2  1  1  0  0  0  0
  3  2  1  0  0  0  0
  3  4  1  0  0  0  0
  4  5  1  0  0  0  0
  5 10  1  0  0  0  0
  8  3  1  0  0  0  0
  9  3  1  0  0  0  0
 11  5  1  0  0  0  0
 12 15  1  6  0  0  0
 12 19  1  0  0  0  0
 12 14  1  0  0  0  0
 13 12  1  0  0  0  0
 13 14  1  0  0  0  0
 14  2  1  0  0  0  0
 14 18  1  1  0  0  0
 16 13  1  0  0  0  0
 17 13  1  0  0  0  0
 19 20  1  0  0  0  0
 20 21  2  0  0  0  0
 20 25  1  0  0  0  0
 21 26  1  0  0  0  0
 22 21  1  0  0  0  0
 23 22  2  0  0  0  0
 24 23  1  0  0  0  0
 24 19  2  0  0  0  0
 27 23  1  0  0  0  0
 30 36  1  0  0  0  0
 30 29  2  0  0  0  0
 31 28  1  6  0  0  0
 31 30  1  0  0  0  0
 32 31  1  0  0  0  0
 32 34  1  0  0  0  0
 33 32  1  0  0  0  0
 34 36  1  0  0  0  0
 35 34  1  0  0  0  0
 36 37  1  0  0  0  0
M  END
>  <minimizedAffinity>
-1.51257718

>  <minimizedRMSD>
1.42198586

$$$$
