
 OpenBabel03272506423D

 32 34  0  0  1  0  0  0  0  0999 V2000
   32.4080   28.3480   47.5110 C   0  0  2  0  0  0  0  0  0  0  0  0
   33.6390   28.4340   48.3890 C   0  0  1  0  0  0  0  0  0  0  0  0
   34.2230   27.1900   48.3990 O   0  0  0  0  0  0  0  0  0  0  0  0
   33.5950   26.3820   47.4810 C   0  0  0  0  0  0  0  0  0  0  0  0
   32.8980   27.3180   46.5000 C   0  0  1  0  0  0  0  0  0  0  0  0
   31.5210   27.9390   48.0370 H   0  0  0  0  0  0  0  0  0  0  0  0
   33.4380   28.8280   49.3930 H   0  0  0  0  0  0  0  0  0  0  0  0
   32.8670   25.6640   47.9380 H   0  0  0  0  0  0  0  0  0  0  0  0
   34.3530   25.7480   46.9560 H   0  0  0  0  0  0  0  0  0  0  0  0
   33.6420   27.7570   45.8270 H   0  0  0  0  0  0  0  0  0  0  0  0
   32.1500   29.5800   46.9050 O   0  0  0  0  0  0  0  0  0  0  0  0
   32.9490   29.7970   46.3890 H   0  0  0  0  0  0  0  0  0  0  0  0
   34.8060   29.5700   47.5450 S   0  0  0  0  0  0  0  0  0  0  0  0
   37.3990   29.4800   50.5540 C   0  0  0  0  0  0  0  0  0  0  0  0
   38.0150   30.7440   50.5150 C   0  0  0  0  0  0  0  0  0  0  0  0
   37.6140   31.6440   49.5320 C   0  0  0  0  0  0  0  0  0  0  0  0
   36.6560   31.2710   48.6570 N   0  0  0  0  0  0  0  0  0  0  0  0
   36.0740   30.0460   48.7120 C   0  0  0  0  0  0  0  0  0  0  0  0
   36.4410   29.1610   49.6500 N   0  0  0  0  0  0  0  0  0  0  0  0
   37.6300   28.7100   51.2690 H   0  0  0  0  0  0  0  0  0  0  0  0
   38.7770   30.9400   51.2690 H   0  0  0  0  0  0  0  0  0  0  0  0
   38.0950   32.6130   49.5110 H   0  0  0  0  0  0  0  0  0  0  0  0
   31.8530   26.6700   45.8610 O   0  0  0  0  0  0  0  0  0  0  0  0
   30.5710   28.9170   44.2880 O   0  0  0  0  0  0  0  0  0  0  0  0
   31.5180   28.0940   44.0380 C   0  0  0  0  0  0  0  0  0  0  0  0
   31.9390   26.7380   44.4770 C   0  0  1  0  0  3  0  0  0  0  0  0
   33.3670   26.6850   43.9720 C   0  0  0  0  0  3  0  0  0  0  0  0
   34.0100   27.3170   44.5930 H   0  0  0  0  0  0  0  0  0  0  0  0
   33.2270   27.3900   42.6310 C   0  0  0  0  0  3  0  0  0  0  0  0
   34.1750   27.6330   42.1530 H   0  0  0  0  0  0  0  0  0  0  0  0
   32.4690   28.5720   43.0650 N   0  0  0  0  0  0  0  0  0  0  0  0
   32.6970   29.5250   42.6500 H   0  0  0  0  0  0  0  0  0  0  0  0
  1  6  1  1  0  0  0
  1  2  1  0  0  0  0
  2  3  1  0  0  0  0
  2  7  1  1  0  0  0
  4  8  1  0  0  0  0
  4  3  1  0  0  0  0
  5 10  1  6  0  0  0
  5  4  1  0  0  0  0
  5  1  1  0  0  0  0
  9  4  1  0  0  0  0
 11  1  1  0  0  0  0
 12 11  1  0  0  0  0
 13  2  1  0  0  0  0
 13 18  1  0  0  0  0
 14 20  1  0  0  0  0
 15 14  1  0  0  0  0
 15 21  1  0  0  0  0
 16 15  2  0  0  0  0
 17 18  2  0  0  0  0
 17 16  1  0  0  0  0
 18 19  1  0  0  0  0
 19 14  2  0  0  0  0
 22 16  1  0  0  0  0
 23  5  1  0  0  0  0
 25 24  2  0  0  0  0
 25 26  1  0  0  0  0
 26 23  1  1  0  0  0
 27 26  1  0  0  0  0
 27 28  1  0  0  0  0
 29 31  1  0  0  0  0
 29 27  1  0  0  0  0
 30 29  1  0  0  0  0
 31 25  1  0  0  0  0
 32 31  1  0  0  0  0
M  END
>  <minimizedAffinity>
-3.81080222

>  <minimizedRMSD>
0.0780741498

$$$$
