
 OpenBabel03272506423D

 32 34  0  0  1  0  0  0  0  0999 V2000
   32.2450   28.1520   47.5980 C   0  0  2  0  0  0  0  0  0  0  0  0
   33.5280   28.1520   48.4020 C   0  0  1  0  0  0  0  0  0  0  0  0
   34.1150   26.9200   48.2360 O   0  0  0  0  0  0  0  0  0  0  0  0
   33.4320   26.2130   47.2730 C   0  0  0  0  0  0  0  0  0  0  0  0
   32.6730   27.2470   46.4490 C   0  0  1  0  0  0  0  0  0  0  0  0
   31.3920   27.6780   48.1280 H   0  0  0  0  0  0  0  0  0  0  0  0
   33.3880   28.4290   49.4540 H   0  0  0  0  0  0  0  0  0  0  0  0
   32.7360   25.4420   47.6910 H   0  0  0  0  0  0  0  0  0  0  0  0
   34.1580   25.6500   46.6350 H   0  0  0  0  0  0  0  0  0  0  0  0
   33.3730   27.7660   45.7840 H   0  0  0  0  0  0  0  0  0  0  0  0
   31.9460   29.4420   47.1510 O   0  0  0  0  0  0  0  0  0  0  0  0
   32.7110   29.7240   46.6150 H   0  0  0  0  0  0  0  0  0  0  0  0
   34.6360   29.3870   47.6220 S   0  0  0  0  0  0  0  0  0  0  0  0
   37.2830   29.2910   50.5820 C   0  0  0  0  0  0  0  0  0  0  0  0
   37.7400   30.6180   50.6790 C   0  0  0  0  0  0  0  0  0  0  0  0
   37.2120   31.5630   49.8040 C   0  0  0  0  0  0  0  0  0  0  0  0
   36.2880   31.1720   48.9010 N   0  0  0  0  0  0  0  0  0  0  0  0
   35.8610   29.8850   48.8250 C   0  0  0  0  0  0  0  0  0  0  0  0
   36.3530   28.9550   49.6560 N   0  0  0  0  0  0  0  0  0  0  0  0
   37.6210   28.4820   51.2060 H   0  0  0  0  0  0  0  0  0  0  0  0
   38.4880   30.8230   51.4440 H   0  0  0  0  0  0  0  0  0  0  0  0
   37.5700   32.5800   49.8870 H   0  0  0  0  0  0  0  0  0  0  0  0
   31.5920   26.6650   45.8060 O   0  0  0  0  0  0  0  0  0  0  0  0
   29.1980   28.2320   44.8160 O   0  0  0  0  0  0  0  0  0  0  0  0
   30.3900   28.0760   44.3820 C   0  0  0  0  0  0  0  0  0  0  0  0
   31.4720   27.0610   44.4810 C   0  0  1  0  0  3  0  0  0  0  0  0
   32.6720   27.8470   43.9890 C   0  0  0  0  0  3  0  0  0  0  0  0
   32.9870   28.5680   44.7500 H   0  0  0  0  0  0  0  0  0  0  0  0
   32.0480   28.6510   42.8580 C   0  0  0  0  0  3  0  0  0  0  0  0
   32.6910   29.4350   42.4610 H   0  0  0  0  0  0  0  0  0  0  0  0
   30.8630   29.1650   43.5600 N   0  0  0  0  0  0  0  0  0  0  0  0
   30.5430   30.1630   43.3910 H   0  0  0  0  0  0  0  0  0  0  0  0
  1  6  1  1  0  0  0
  1  2  1  0  0  0  0
  2  7  1  1  0  0  0
  3  2  1  0  0  0  0
  4  8  1  0  0  0  0
  4  3  1  0  0  0  0
  5 10  1  6  0  0  0
  5  4  1  0  0  0  0
  5  1  1  0  0  0  0
  9  4  1  0  0  0  0
 11  1  1  0  0  0  0
 12 11  1  0  0  0  0
 13  2  1  0  0  0  0
 13 18  1  0  0  0  0
 14 15  1  0  0  0  0
 14 20  1  0  0  0  0
 15 21  1  0  0  0  0
 16 22  1  0  0  0  0
 16 15  2  0  0  0  0
 17 16  1  0  0  0  0
 18 17  2  0  0  0  0
 18 19  1  0  0  0  0
 19 14  2  0  0  0  0
 23  5  1  0  0  0  0
 25 26  1  0  0  0  0
 25 24  2  0  0  0  0
 26 23  1  1  0  0  0
 27 26  1  0  0  0  0
 27 28  1  0  0  0  0
 29 31  1  0  0  0  0
 29 27  1  0  0  0  0
 30 29  1  0  0  0  0
 31 25  1  0  0  0  0
 32 31  1  0  0  0  0
M  END
>  <minimizedAffinity>
-3.83118582

>  <minimizedRMSD>
0.938089192

$$$$
