
 OpenBabel03272506423D

 32 34  0  0  1  0  0  0  0  0999 V2000
   32.2450   28.1530   47.5970 C   0  0  2  0  0  0  0  0  0  0  0  0
   33.5280   28.1520   48.4020 C   0  0  1  0  0  0  0  0  0  0  0  0
   34.1150   26.9200   48.2350 O   0  0  0  0  0  0  0  0  0  0  0  0
   33.4330   26.2140   47.2720 C   0  0  0  0  0  0  0  0  0  0  0  0
   32.6730   27.2470   46.4480 C   0  0  1  0  0  0  0  0  0  0  0  0
   31.3930   27.6780   48.1270 H   0  0  0  0  0  0  0  0  0  0  0  0
   33.3880   28.4280   49.4540 H   0  0  0  0  0  0  0  0  0  0  0  0
   32.7370   25.4430   47.6900 H   0  0  0  0  0  0  0  0  0  0  0  0
   34.1580   25.6510   46.6340 H   0  0  0  0  0  0  0  0  0  0  0  0
   33.3730   27.7670   45.7840 H   0  0  0  0  0  0  0  0  0  0  0  0
   31.9460   29.4420   47.1510 O   0  0  0  0  0  0  0  0  0  0  0  0
   32.7110   29.7240   46.6140 H   0  0  0  0  0  0  0  0  0  0  0  0
   34.6360   29.3870   47.6210 S   0  0  0  0  0  0  0  0  0  0  0  0
   37.2840   29.2910   50.5820 C   0  0  0  0  0  0  0  0  0  0  0  0
   37.7400   30.6180   50.6790 C   0  0  0  0  0  0  0  0  0  0  0  0
   37.2120   31.5630   49.8040 C   0  0  0  0  0  0  0  0  0  0  0  0
   36.2880   31.1720   48.9010 N   0  0  0  0  0  0  0  0  0  0  0  0
   35.8610   29.8850   48.8240 C   0  0  0  0  0  0  0  0  0  0  0  0
   36.3530   28.9550   49.6550 N   0  0  0  0  0  0  0  0  0  0  0  0
   37.6220   28.4810   51.2050 H   0  0  0  0  0  0  0  0  0  0  0  0
   38.4880   30.8230   51.4440 H   0  0  0  0  0  0  0  0  0  0  0  0
   37.5700   32.5800   49.8870 H   0  0  0  0  0  0  0  0  0  0  0  0
   31.5920   26.6650   45.8050 O   0  0  0  0  0  0  0  0  0  0  0  0
   29.1980   28.2320   44.8160 O   0  0  0  0  0  0  0  0  0  0  0  0
   30.3900   28.0770   44.3810 C   0  0  0  0  0  0  0  0  0  0  0  0
   31.4720   27.0620   44.4800 C   0  0  1  0  0  3  0  0  0  0  0  0
   32.6730   27.8480   43.9890 C   0  0  0  0  0  3  0  0  0  0  0  0
   32.9880   28.5680   44.7500 H   0  0  0  0  0  0  0  0  0  0  0  0
   32.0480   28.6530   42.8580 C   0  0  0  0  0  3  0  0  0  0  0  0
   32.6900   29.4370   42.4610 H   0  0  0  0  0  0  0  0  0  0  0  0
   30.8630   29.1650   43.5610 N   0  0  0  0  0  0  0  0  0  0  0  0
   30.5420   30.1640   43.3920 H   0  0  0  0  0  0  0  0  0  0  0  0
  1  6  1  1  0  0  0
  1  2  1  0  0  0  0
  2  7  1  1  0  0  0
  3  2  1  0  0  0  0
  4  8  1  0  0  0  0
  4  3  1  0  0  0  0
  5 10  1  6  0  0  0
  5  4  1  0  0  0  0
  5  1  1  0  0  0  0
  9  4  1  0  0  0  0
 11  1  1  0  0  0  0
 12 11  1  0  0  0  0
 13  2  1  0  0  0  0
 13 18  1  0  0  0  0
 14 15  1  0  0  0  0
 14 20  1  0  0  0  0
 15 21  1  0  0  0  0
 16 22  1  0  0  0  0
 16 15  2  0  0  0  0
 17 16  1  0  0  0  0
 18 17  2  0  0  0  0
 18 19  1  0  0  0  0
 19 14  2  0  0  0  0
 23  5  1  0  0  0  0
 25 26  1  0  0  0  0
 25 24  2  0  0  0  0
 26 23  1  1  0  0  0
 27 26  1  0  0  0  0
 27 28  1  0  0  0  0
 29 31  1  0  0  0  0
 29 27  1  0  0  0  0
 30 29  1  0  0  0  0
 31 25  1  0  0  0  0
 32 31  1  0  0  0  0
M  END
>  <minimizedAffinity>
-3.82613134

>  <minimizedRMSD>
0.747658074

$$$$
