
 OpenBabel03272504173D

 26 27  0  0  1  0  0  0  0  0999 V2000
   34.8990   29.2870   46.3900 O   0  0  0  0  0  0  0  0  0  0  0  0
   34.2050   29.0900   47.7150 P   0  0  1  0  0  0  0  0  0  0  0  0
   34.6820   27.6820   48.4940 O   0  0  0  0  0  0  0  0  0  0  0  0
   34.6250   26.8950   47.8780 H   0  0  0  0  0  0  0  0  0  0  0  0
   34.5490   30.3890   48.8120 O   0  0  0  0  0  0  0  0  0  0  0  0
   35.7990   30.5450   49.3890 C   0  0  0  0  0  0  0  0  0  0  0  0
   36.2250   29.9930   50.5840 C   0  0  0  0  0  0  0  0  0  0  0  0
   37.5060   30.2400   51.0300 C   0  0  0  0  0  0  0  0  0  0  0  0
   38.3300   31.0330   50.2690 N   0  0  0  0  0  0  0  0  0  0  0  0
   37.8880   31.5590   49.1050 C   0  0  0  0  0  0  0  0  0  0  0  0
   36.6210   31.3200   48.6530 N   0  0  0  0  0  0  0  0  0  0  0  0
   37.7490   29.7750   51.9600 H   0  0  0  0  0  0  0  0  0  0  0  0
   38.5450   32.1840   48.5090 H   0  0  0  0  0  0  0  0  0  0  0  0
   35.2550   29.2010   51.2470 N   0  0  0  0  0  0  0  0  0  0  0  0
   35.2030   28.1740   51.0950 H   0  0  0  0  0  0  0  0  0  0  0  0
   34.5310   29.5460   51.9200 H   0  0  0  0  0  0  0  0  0  0  0  0
   32.5360   29.0940   47.3830 O   0  0  0  0  0  0  0  0  0  0  0  0
   30.5950   28.0160   45.4980 O   0  0  0  0  0  0  0  0  0  0  0  0
   30.8490   27.5790   46.6710 C   0  0  0  0  0  0  0  0  0  0  0  0
   31.9760   27.8540   47.6320 C   0  0  2  0  0  0  0  0  0  0  0  0
   31.2740   27.7900   48.9430 C   0  0  0  0  0  0  0  0  0  0  0  0
   31.8680   27.2900   49.7580 H   0  0  0  0  0  0  0  0  0  0  0  0
   30.0040   26.9960   48.7770 C   0  0  0  0  0  0  0  0  0  0  0  0
   29.9370   26.1250   49.4380 H   0  0  0  0  0  0  0  0  0  0  0  0
   29.9990   26.6380   47.3540 N   0  0  0  0  0  0  0  0  0  0  0  0
   29.4630   25.8300   46.9160 H   0  0  0  0  0  0  0  0  0  0  0  0
  2  1  2  6  0  0  0
  2  3  1  0  0  0  0
  2  5  1  0  0  0  0
  4  3  1  0  0  0  0
  5  6  1  0  0  0  0
  6  7  1  0  0  0  0
  7  8  2  0  0  0  0
  7 14  1  0  0  0  0
  8 12  1  0  0  0  0
  9  8  1  0  0  0  0
 10  9  2  0  0  0  0
 11 10  1  0  0  0  0
 11  6  2  0  0  0  0
 13 10  1  0  0  0  0
 14 16  1  0  0  0  0
 15 14  1  0  0  0  0
 17  2  1  0  0  0  0
 18 19  2  0  0  0  0
 19 25  1  0  0  0  0
 19 20  1  0  0  0  0
 20 17  1  6  0  0  0
 20 21  1  0  0  0  0
 21 22  1  0  0  0  0
 23 21  1  0  0  0  0
 23 24  1  0  0  0  0
 25 23  1  0  0  0  0
 26 25  1  0  0  0  0
M  END
>  <minimizedAffinity>
-4.0443058

>  <minimizedRMSD>
2.77238536

$$$$
