
 OpenBabel03272507263D

 37 39  0  0  1  0  0  0  0  0999 V2000
   37.1090   29.9700   48.8350 C   0  0  0  0  0  0  0  0  0  0  0  0
   38.0840   30.5280   47.9890 C   0  0  0  0  0  0  0  0  0  0  0  0
   37.6750   30.9360   46.7160 C   0  0  0  0  0  0  0  0  0  0  0  0
   36.3820   30.7810   46.3590 N   0  0  0  0  0  0  0  0  0  0  0  0
   35.4590   30.2360   47.2030 C   0  0  0  0  0  0  0  0  0  0  0  0
   35.8370   29.8390   48.4280 N   0  0  0  0  0  0  0  0  0  0  0  0
   38.6000   31.5030   45.8160 N   0  0  0  0  0  0  0  0  0  0  0  0
   39.7940   32.2630   46.2070 C   0  0  0  0  0  0  0  0  0  0  0  0
   40.3460   32.8650   44.9580 C   0  0  0  0  0  0  0  0  0  0  0  0
   39.1880   32.8110   44.0250 C   0  0  0  0  0  0  0  0  0  0  0  0
   38.5980   31.4770   44.4020 C   0  0  2  0  0  0  0  0  0  0  0  0
   37.4770   29.6670   49.8130 H   0  0  0  0  0  0  0  0  0  0  0  0
   39.1050   30.6330   48.3110 H   0  0  0  0  0  0  0  0  0  0  0  0
   34.4670   30.1610   46.8180 H   0  0  0  0  0  0  0  0  0  0  0  0
   39.3850   33.0800   46.8710 H   0  0  0  0  0  0  0  0  0  0  0  0
   40.5010   31.6590   46.7920 H   0  0  0  0  0  0  0  0  0  0  0  0
   40.5530   33.9410   45.1440 H   0  0  0  0  0  0  0  0  0  0  0  0
   41.2960   32.4550   44.5980 H   0  0  0  0  0  0  0  0  0  0  0  0
   38.5200   33.6620   44.1370 H   0  0  0  0  0  0  0  0  0  0  0  0
   39.6120   32.7220   42.9880 H   0  0  0  0  0  0  0  0  0  0  0  0
   37.3090   31.2290   43.7020 C   0  0  0  0  0  0  0  0  0  0  0  0
   36.5120   32.3400   43.9470 F   0  0  0  0  0  0  0  0  0  0  0  0
   36.6000   30.1480   44.1210 F   0  0  0  0  0  0  0  0  0  0  0  0
   37.5660   31.2360   42.3490 F   0  0  0  0  0  0  0  0  0  0  0  0
   39.5360   30.3870   43.9900 C   0  0  0  0  0  0  0  0  0  0  0  0
   40.5330   30.4520   44.5220 H   0  0  0  0  0  0  0  0  0  0  0  0
   39.8100   30.5950   42.9290 H   0  0  0  0  0  0  0  0  0  0  0  0
   38.9830   29.3090   44.2120 O   0  0  0  0  0  0  0  0  0  0  0  0
   41.3520   29.5850   42.1470 O   0  0  0  0  0  0  0  0  0  0  0  0
   40.4400   28.7430   42.3930 C   0  0  0  0  0  0  0  0  0  0  0  0
   39.3260   28.3120   43.3110 C   0  0  2  0  0  3  0  0  0  0  0  0
   38.2740   27.9770   42.3050 C   0  0  0  0  0  3  0  0  0  0  0  0
   37.3760   27.4920   42.7110 H   0  0  0  0  0  0  0  0  0  0  0  0
   39.0780   27.0300   41.4100 C   0  0  0  0  0  3  0  0  0  0  0  0
   39.1940   26.0890   41.9470 H   0  0  0  0  0  0  0  0  0  0  0  0
   40.3740   27.7010   41.3980 N   0  0  0  0  0  0  0  0  0  0  0  0
   41.0450   27.3160   40.6690 H   0  0  0  0  0  0  0  0  0  0  0  0
  1 12  1  0  0  0  0
  2 13  1  0  0  0  0
  2  1  2  0  0  0  0
  3  2  1  0  0  0  0
  4  3  2  0  0  0  0
  4  5  1  0  0  0  0
  5  6  2  0  0  0  0
  6  1  1  0  0  0  0
  7  8  1  0  0  0  0
  7  3  1  0  0  0  0
  8 16  1  0  0  0  0
  8 15  1  0  0  0  0
  9 17  1  0  0  0  0
  9  8  1  0  0  0  0
 10 19  1  0  0  0  0
 10 11  1  0  0  0  0
 10  9  1  0  0  0  0
 11 21  1  6  0  0  0
 11  7  1  0  0  0  0
 14  5  1  0  0  0  0
 18  9  1  0  0  0  0
 20 10  1  0  0  0  0
 21 22  1  0  0  0  0
 21 23  1  0  0  0  0
 24 21  1  0  0  0  0
 25 28  1  0  0  0  0
 25 11  1  0  0  0  0
 25 26  1  0  0  0  0
 27 25  1  0  0  0  0
 29 30  2  0  0  0  0
 30 31  1  0  0  0  0
 31 28  1  1  0  0  0
 32 33  1  0  0  0  0
 32 31  1  0  0  0  0
 34 35  1  0  0  0  0
 34 32  1  0  0  0  0
 36 34  1  0  0  0  0
 36 30  1  0  0  0  0
 37 36  1  0  0  0  0
M  END
>  <minimizedAffinity>
-4.86540699

>  <minimizedRMSD>
1.19492388

$$$$
