
 OpenBabel03272504183D

 26 27  0  0  1  0  0  0  0  0999 V2000
   40.2230   27.0500   34.3840 O   0  0  0  0  0  0  0  0  0  0  0  0
   38.9800   26.6780   35.1540 P   0  0  1  0  0  0  0  0  0  0  0  0
   38.5780   27.8150   36.3230 O   0  0  0  0  0  0  0  0  0  0  0  0
   39.3680   28.0340   36.8960 H   0  0  0  0  0  0  0  0  0  0  0  0
   37.6010   26.5490   34.1100 O   0  0  0  0  0  0  0  0  0  0  0  0
   36.9980   27.6670   33.5570 C   0  0  0  0  0  0  0  0  0  0  0  0
   37.1120   28.0960   32.2460 C   0  0  0  0  0  0  0  0  0  0  0  0
   36.4480   29.2340   31.8420 C   0  0  0  0  0  0  0  0  0  0  0  0
   35.6850   29.9160   32.7590 N   0  0  0  0  0  0  0  0  0  0  0  0
   35.5920   29.4750   34.0330 C   0  0  0  0  0  0  0  0  0  0  0  0
   36.2440   28.3480   34.4440 N   0  0  0  0  0  0  0  0  0  0  0  0
   36.5930   29.4920   30.8160 H   0  0  0  0  0  0  0  0  0  0  0  0
   34.9870   30.0190   34.7510 H   0  0  0  0  0  0  0  0  0  0  0  0
   37.9350   27.2820   31.4290 N   0  0  0  0  0  0  0  0  0  0  0  0
   37.5340   26.5070   30.8640 H   0  0  0  0  0  0  0  0  0  0  0  0
   38.9730   27.3700   31.3150 H   0  0  0  0  0  0  0  0  0  0  0  0
   39.2830   25.1490   35.8380 O   0  0  0  0  0  0  0  0  0  0  0  0
   38.2830   24.1190   38.3720 O   0  0  0  0  0  0  0  0  0  0  0  0
   37.9180   23.7620   37.2010 C   0  0  0  0  0  0  0  0  0  0  0  0
   38.1400   24.3710   35.8410 C   0  0  2  0  0  3  0  0  0  0  0  0
   38.2650   23.1580   34.9870 C   0  0  0  0  0  3  0  0  0  0  0  0
   37.7690   23.2510   33.9820 H   0  0  0  0  0  0  0  0  0  0  0  0
   37.6120   21.9970   35.6910 C   0  0  0  0  0  3  0  0  0  0  0  0
   36.8110   21.5230   35.1130 H   0  0  0  0  0  0  0  0  0  0  0  0
   37.1410   22.5750   36.9550 N   0  0  0  0  0  0  0  0  0  0  0  0
   36.3660   22.1830   37.5700 H   0  0  0  0  0  0  0  0  0  0  0  0
  2  1  2  6  0  0  0
  2 17  1  0  0  0  0
  2  3  1  0  0  0  0
  3  4  1  0  0  0  0
  5  2  1  0  0  0  0
  6  5  1  0  0  0  0
  6 11  1  0  0  0  0
  7  6  2  0  0  0  0
  8  7  1  0  0  0  0
  8  9  2  0  0  0  0
  9 10  1  0  0  0  0
 10 11  2  0  0  0  0
 10 13  1  0  0  0  0
 12  8  1  0  0  0  0
 14  7  1  0  0  0  0
 15 14  1  0  0  0  0
 16 14  1  0  0  0  0
 19 18  2  0  0  0  0
 20 17  1  1  0  0  0
 20 19  1  0  0  0  0
 21 23  1  0  0  0  0
 21 20  1  0  0  0  0
 22 21  1  0  0  0  0
 23 25  1  0  0  0  0
 24 23  1  0  0  0  0
 25 19  1  0  0  0  0
 25 26  1  0  0  0  0
M  END
>  <minimizedAffinity>
-4.83006287

$$$$

 OpenBabel03272504183D

 26 27  0  0  1  0  0  0  0  0999 V2000
   39.1860   26.7570   35.6410 O   0  0  0  0  0  0  0  0  0  0  0  0
   37.9350   26.1940   35.0140 P   0  0  1  0  0  0  0  0  0  0  0  0
   36.7080   27.3330   34.8810 O   0  0  0  0  0  0  0  0  0  0  0  0
   36.5580   27.8010   35.7520 H   0  0  0  0  0  0  0  0  0  0  0  0
   38.2340   25.6170   33.4060 O   0  0  0  0  0  0  0  0  0  0  0  0
   37.2000   25.2570   32.5560 C   0  0  0  0  0  0  0  0  0  0  0  0
   36.7980   23.9680   32.2530 C   0  0  0  0  0  0  0  0  0  0  0  0
   35.7460   23.7700   31.3850 C   0  0  0  0  0  0  0  0  0  0  0  0
   35.1220   24.8650   30.8400 N   0  0  0  0  0  0  0  0  0  0  0  0
   35.5350   26.1130   31.1530 C   0  0  0  0  0  0  0  0  0  0  0  0
   36.5760   26.3220   32.0130 N   0  0  0  0  0  0  0  0  0  0  0  0
   35.5040   22.7450   31.2080 H   0  0  0  0  0  0  0  0  0  0  0  0
   35.0370   26.9740   30.7190 H   0  0  0  0  0  0  0  0  0  0  0  0
   37.5450   22.9510   32.8970 N   0  0  0  0  0  0  0  0  0  0  0  0
   37.2380   22.5520   33.8070 H   0  0  0  0  0  0  0  0  0  0  0  0
   38.4320   22.5200   32.5460 H   0  0  0  0  0  0  0  0  0  0  0  0
   37.4680   24.8740   35.9820 O   0  0  0  0  0  0  0  0  0  0  0  0
   38.7540   22.2840   35.6400 O   0  0  0  0  0  0  0  0  0  0  0  0
   38.8580   23.0650   36.6460 C   0  0  0  0  0  0  0  0  0  0  0  0
   38.4820   24.5100   36.8490 C   0  0  2  0  0  3  0  0  0  0  0  0
   38.0510   24.5090   38.2740 C   0  0  0  0  0  3  0  0  0  0  0  0
   38.3710   25.4220   38.8500 H   0  0  0  0  0  0  0  0  0  0  0  0
   38.6610   23.3180   38.9660 C   0  0  0  0  0  3  0  0  0  0  0  0
   39.2780   23.5790   39.8330 H   0  0  0  0  0  0  0  0  0  0  0  0
   39.4180   22.6460   37.9040 N   0  0  0  0  0  0  0  0  0  0  0  0
   40.2310   21.9750   38.0470 H   0  0  0  0  0  0  0  0  0  0  0  0
  2  1  2  1  0  0  0
  2 17  1  0  0  0  0
  3  2  1  0  0  0  0
  3  4  1  0  0  0  0
  5  2  1  0  0  0  0
  6  5  1  0  0  0  0
  7  6  1  0  0  0  0
  7 14  1  0  0  0  0
  8  7  2  0  0  0  0
  9 10  2  0  0  0  0
  9  8  1  0  0  0  0
 10 11  1  0  0  0  0
 11  6  2  0  0  0  0
 12  8  1  0  0  0  0
 13 10  1  0  0  0  0
 14 15  1  0  0  0  0
 16 14  1  0  0  0  0
 18 19  2  0  0  0  0
 19 20  1  0  0  0  0
 19 25  1  0  0  0  0
 20 17  1  6  0  0  0
 20 21  1  0  0  0  0
 21 22  1  0  0  0  0
 21 23  1  0  0  0  0
 23 24  1  0  0  0  0
 25 26  1  0  0  0  0
 25 23  1  0  0  0  0
M  END
>  <minimizedAffinity>
-4.75952291

$$$$

 OpenBabel03272504183D

 26 27  0  0  1  0  0  0  0  0999 V2000
   39.5070   25.7230   33.9710 O   0  0  0  0  0  0  0  0  0  0  0  0
   38.0980   25.6690   34.5060 P   0  0  1  0  0  0  0  0  0  0  0  0
   37.7290   26.9750   35.4940 O   0  0  0  0  0  0  0  0  0  0  0  0
   38.4310   27.1030   36.1950 H   0  0  0  0  0  0  0  0  0  0  0  0
   36.9300   25.6900   33.2230 O   0  0  0  0  0  0  0  0  0  0  0  0
   36.7670   26.7950   32.4030 C   0  0  0  0  0  0  0  0  0  0  0  0
   36.9680   26.8370   31.0340 C   0  0  0  0  0  0  0  0  0  0  0  0
   36.7640   28.0170   30.3520 C   0  0  0  0  0  0  0  0  0  0  0  0
   36.3630   29.1270   31.0550 N   0  0  0  0  0  0  0  0  0  0  0  0
   36.1750   29.0580   32.3910 C   0  0  0  0  0  0  0  0  0  0  0  0
   36.3730   27.8930   33.0770 N   0  0  0  0  0  0  0  0  0  0  0  0
   36.9430   27.9580   29.3010 H   0  0  0  0  0  0  0  0  0  0  0  0
   35.8570   29.9380   32.9400 H   0  0  0  0  0  0  0  0  0  0  0  0
   37.3800   25.6080   30.4600 N   0  0  0  0  0  0  0  0  0  0  0  0
   36.6880   24.9360   30.0730 H   0  0  0  0  0  0  0  0  0  0  0  0
   38.3670   25.2680   30.3720 H   0  0  0  0  0  0  0  0  0  0  0  0
   37.9590   24.1900   35.3360 O   0  0  0  0  0  0  0  0  0  0  0  0
   39.7250   21.9310   35.8460 O   0  0  0  0  0  0  0  0  0  0  0  0
   39.3980   22.8510   36.6700 C   0  0  0  0  0  0  0  0  0  0  0  0
   38.7310   24.1900   36.4830 C   0  0  2  0  0  3  0  0  0  0  0  0
   37.9200   24.2950   37.7270 C   0  0  0  0  0  3  0  0  0  0  0  0
   37.8950   25.3280   38.1720 H   0  0  0  0  0  0  0  0  0  0  0  0
   38.5070   23.3820   38.7710 C   0  0  0  0  0  3  0  0  0  0  0  0
   38.7960   23.8950   39.6950 H   0  0  0  0  0  0  0  0  0  0  0  0
   39.6420   22.7520   38.0860 N   0  0  0  0  0  0  0  0  0  0  0  0
   40.4850   22.3070   38.5570 H   0  0  0  0  0  0  0  0  0  0  0  0
  2  1  2  6  0  0  0
  2 17  1  0  0  0  0
  2  3  1  0  0  0  0
  3  4  1  0  0  0  0
  5  2  1  0  0  0  0
  6 11  1  0  0  0  0
  6  5  1  0  0  0  0
  7  6  2  0  0  0  0
  8  7  1  0  0  0  0
  8  9  2  0  0  0  0
  9 10  1  0  0  0  0
 10 13  1  0  0  0  0
 10 11  2  0  0  0  0
 12  8  1  0  0  0  0
 14  7  1  0  0  0  0
 15 14  1  0  0  0  0
 16 14  1  0  0  0  0
 18 19  2  0  0  0  0
 19 25  1  0  0  0  0
 20 17  1  6  0  0  0
 20 19  1  0  0  0  0
 20 21  1  0  0  0  0
 21 22  1  0  0  0  0
 21 23  1  0  0  0  0
 23 24  1  0  0  0  0
 25 26  1  0  0  0  0
 25 23  1  0  0  0  0
M  END
>  <minimizedAffinity>
-4.68498707

$$$$

 OpenBabel03272504183D

 26 27  0  0  1  0  0  0  0  0999 V2000
   36.6700   27.0040   35.0990 O   0  0  0  0  0  0  0  0  0  0  0  0
   37.8880   26.1450   34.8700 P   0  0  1  0  0  0  0  0  0  0  0  0
   39.3130   26.9040   35.3310 O   0  0  0  0  0  0  0  0  0  0  0  0
   39.3750   27.8210   34.9350 H   0  0  0  0  0  0  0  0  0  0  0  0
   37.8080   24.6720   35.7830 O   0  0  0  0  0  0  0  0  0  0  0  0
   38.9520   23.9990   36.1820 C   0  0  0  0  0  0  0  0  0  0  0  0
   39.0840   23.2030   37.3070 C   0  0  0  0  0  0  0  0  0  0  0  0
   40.2920   22.5960   37.5730 C   0  0  0  0  0  0  0  0  0  0  0  0
   41.3400   22.7990   36.7070 N   0  0  0  0  0  0  0  0  0  0  0  0
   41.1830   23.5810   35.6170 C   0  0  0  0  0  0  0  0  0  0  0  0
   39.9900   24.1870   35.3430 N   0  0  0  0  0  0  0  0  0  0  0  0
   40.3050   22.0010   38.4600 H   0  0  0  0  0  0  0  0  0  0  0  0
   42.0150   23.7370   34.9370 H   0  0  0  0  0  0  0  0  0  0  0  0
   37.9110   23.0960   38.0950 N   0  0  0  0  0  0  0  0  0  0  0  0
   37.2330   22.3220   37.9490 H   0  0  0  0  0  0  0  0  0  0  0  0
   37.6210   23.7480   38.8620 H   0  0  0  0  0  0  0  0  0  0  0  0
   37.8900   25.7520   33.2140 O   0  0  0  0  0  0  0  0  0  0  0  0
   36.1990   24.5500   31.1700 O   0  0  0  0  0  0  0  0  0  0  0  0
   36.4000   25.7970   31.3640 C   0  0  0  0  0  0  0  0  0  0  0  0
   37.0140   26.5580   32.5100 C   0  0  2  0  0  3  0  0  0  0  0  0
   37.6980   27.6710   31.7970 C   0  0  0  0  0  3  0  0  0  0  0  0
   37.6280   28.6640   32.3230 H   0  0  0  0  0  0  0  0  0  0  0  0
   37.0610   27.8470   30.4440 C   0  0  0  0  0  3  0  0  0  0  0  0
   36.6610   28.8530   30.2700 H   0  0  0  0  0  0  0  0  0  0  0  0
   36.0290   26.8050   30.4040 N   0  0  0  0  0  0  0  0  0  0  0  0
   35.1680   26.8020   29.7800 H   0  0  0  0  0  0  0  0  0  0  0  0
  2  1  2  1  0  0  0
  2  3  1  0  0  0  0
  2  5  1  0  0  0  0
  4  3  1  0  0  0  0
  5  6  1  0  0  0  0
  6  7  1  0  0  0  0
  7  8  2  0  0  0  0
  7 14  1  0  0  0  0
  8 12  1  0  0  0  0
  9  8  1  0  0  0  0
 10  9  2  0  0  0  0
 11 10  1  0  0  0  0
 11  6  2  0  0  0  0
 13 10  1  0  0  0  0
 14 16  1  0  0  0  0
 15 14  1  0  0  0  0
 17  2  1  0  0  0  0
 18 19  2  0  0  0  0
 19 20  1  0  0  0  0
 20 17  1  6  0  0  0
 21 22  1  0  0  0  0
 21 20  1  0  0  0  0
 23 21  1  0  0  0  0
 24 23  1  0  0  0  0
 25 23  1  0  0  0  0
 25 19  1  0  0  0  0
 26 25  1  0  0  0  0
M  END
>  <minimizedAffinity>
-4.65859652

$$$$

 OpenBabel03272504183D

 26 27  0  0  1  0  0  0  0  0999 V2000
   39.6430   21.2550   32.7190 O   0  0  0  0  0  0  0  0  0  0  0  0
   38.9390   22.1870   33.6730 P   0  0  1  0  0  0  0  0  0  0  0  0
   37.4060   21.6470   34.0950 O   0  0  0  0  0  0  0  0  0  0  0  0
   36.8740   21.4100   33.2820 H   0  0  0  0  0  0  0  0  0  0  0  0
   39.8170   22.3570   35.1600 O   0  0  0  0  0  0  0  0  0  0  0  0
   39.2440   22.9320   36.2830 C   0  0  0  0  0  0  0  0  0  0  0  0
   39.6010   22.6930   37.5990 C   0  0  0  0  0  0  0  0  0  0  0  0
   38.9340   23.3440   38.6140 C   0  0  0  0  0  0  0  0  0  0  0  0
   37.9280   24.2210   38.2890 N   0  0  0  0  0  0  0  0  0  0  0  0
   37.6000   24.4360   36.9950 C   0  0  0  0  0  0  0  0  0  0  0  0
   38.2540   23.7960   35.9810 N   0  0  0  0  0  0  0  0  0  0  0  0
   39.2740   23.1000   39.5960 H   0  0  0  0  0  0  0  0  0  0  0  0
   36.8040   25.1300   36.7460 H   0  0  0  0  0  0  0  0  0  0  0  0
   40.6570   21.7630   37.7640 N   0  0  0  0  0  0  0  0  0  0  0  0
   41.6460   22.0770   37.8290 H   0  0  0  0  0  0  0  0  0  0  0  0
   40.5590   20.7220   37.8330 H   0  0  0  0  0  0  0  0  0  0  0  0
   38.8840   23.7040   32.9040 O   0  0  0  0  0  0  0  0  0  0  0  0
   38.2770   23.4880   30.0640 O   0  0  0  0  0  0  0  0  0  0  0  0
   37.5550   24.0380   30.9630 C   0  0  0  0  0  0  0  0  0  0  0  0
   37.6040   23.9950   32.4680 C   0  0  2  0  0  3  0  0  0  0  0  0
   37.1730   25.3750   32.8210 C   0  0  0  0  0  3  0  0  0  0  0  0
   36.4960   25.4290   33.7180 H   0  0  0  0  0  0  0  0  0  0  0  0
   36.4090   25.9580   31.6600 C   0  0  0  0  0  3  0  0  0  0  0  0
   35.3920   26.2770   31.9150 H   0  0  0  0  0  0  0  0  0  0  0  0
   36.4390   24.8930   30.6510 N   0  0  0  0  0  0  0  0  0  0  0  0
   35.7580   24.7810   29.8420 H   0  0  0  0  0  0  0  0  0  0  0  0
  2  1  2  6  0  0  0
  2  3  1  0  0  0  0
  2  5  1  0  0  0  0
  4  3  1  0  0  0  0
  5  6  1  0  0  0  0
  6  7  1  0  0  0  0
  7 14  1  0  0  0  0
  7  8  2  0  0  0  0
  8 12  1  0  0  0  0
  9  8  1  0  0  0  0
 10  9  2  0  0  0  0
 11  6  2  0  0  0  0
 11 10  1  0  0  0  0
 13 10  1  0  0  0  0
 14 15  1  0  0  0  0
 14 16  1  0  0  0  0
 17  2  1  0  0  0  0
 18 19  2  0  0  0  0
 19 20  1  0  0  0  0
 20 21  1  0  0  0  0
 20 17  1  6  0  0  0
 21 22  1  0  0  0  0
 23 24  1  0  0  0  0
 23 21  1  0  0  0  0
 25 19  1  0  0  0  0
 25 23  1  0  0  0  0
 26 25  1  0  0  0  0
M  END
>  <minimizedAffinity>
-4.59590054

$$$$

 OpenBabel03272504183D

 26 27  0  0  1  0  0  0  0  0999 V2000
   39.4100   21.9540   32.8690 O   0  0  0  0  0  0  0  0  0  0  0  0
   38.3920   22.6570   33.7330 P   0  0  1  0  0  0  0  0  0  0  0  0
   38.6210   24.3200   33.7790 O   0  0  0  0  0  0  0  0  0  0  0  0
   39.5710   24.5450   33.9960 H   0  0  0  0  0  0  0  0  0  0  0  0
   36.7790   22.4080   33.1470 O   0  0  0  0  0  0  0  0  0  0  0  0
   36.3430   21.1650   32.7160 C   0  0  0  0  0  0  0  0  0  0  0  0
   35.7270   20.1980   33.4910 C   0  0  0  0  0  0  0  0  0  0  0  0
   35.3490   19.0040   32.9170 C   0  0  0  0  0  0  0  0  0  0  0  0
   35.5960   18.8050   31.5800 N   0  0  0  0  0  0  0  0  0  0  0  0
   36.2000   19.7660   30.8470 C   0  0  0  0  0  0  0  0  0  0  0  0
   36.5780   20.9540   31.4050 N   0  0  0  0  0  0  0  0  0  0  0  0
   34.8820   18.3170   33.5880 H   0  0  0  0  0  0  0  0  0  0  0  0
   36.3910   19.6020   29.7910 H   0  0  0  0  0  0  0  0  0  0  0  0
   35.5460   20.5580   34.8500 N   0  0  0  0  0  0  0  0  0  0  0  0
   34.6650   21.0050   35.1750 H   0  0  0  0  0  0  0  0  0  0  0  0
   36.2390   20.4210   35.6230 H   0  0  0  0  0  0  0  0  0  0  0  0
   38.5170   21.9600   35.2800 O   0  0  0  0  0  0  0  0  0  0  0  0
   40.7330   21.6200   37.1390 O   0  0  0  0  0  0  0  0  0  0  0  0
   39.7760   22.4610   37.2310 C   0  0  0  0  0  0  0  0  0  0  0  0
   38.7360   22.9260   36.2450 C   0  0  2  0  0  3  0  0  0  0  0  0
   37.5580   23.1360   37.1300 C   0  0  0  0  0  3  0  0  0  0  0  0
   36.9450   24.0440   36.8700 H   0  0  0  0  0  0  0  0  0  0  0  0
   38.0390   23.3240   38.5450 C   0  0  0  0  0  3  0  0  0  0  0  0
   37.7260   24.2720   38.9970 H   0  0  0  0  0  0  0  0  0  0  0  0
   39.4970   23.1940   38.4400 N   0  0  0  0  0  0  0  0  0  0  0  0
   40.2090   23.5750   39.1310 H   0  0  0  0  0  0  0  0  0  0  0  0
  2  1  2  6  0  0  0
  2  3  1  0  0  0  0
  2 17  1  0  0  0  0
  3  4  1  0  0  0  0
  5  2  1  0  0  0  0
  6  5  1  0  0  0  0
  6  7  1  0  0  0  0
  7 14  1  0  0  0  0
  8  7  2  0  0  0  0
  8 12  1  0  0  0  0
  9  8  1  0  0  0  0
 10 11  1  0  0  0  0
 10  9  2  0  0  0  0
 11  6  2  0  0  0  0
 13 10  1  0  0  0  0
 14 15  1  0  0  0  0
 14 16  1  0  0  0  0
 18 19  2  0  0  0  0
 19 25  1  0  0  0  0
 20 17  1  6  0  0  0
 20 21  1  0  0  0  0
 20 19  1  0  0  0  0
 21 23  1  0  0  0  0
 22 21  1  0  0  0  0
 23 24  1  0  0  0  0
 25 23  1  0  0  0  0
 25 26  1  0  0  0  0
M  END
>  <minimizedAffinity>
-4.58660173

$$$$

 OpenBabel03272504183D

 26 27  0  0  1  0  0  0  0  0999 V2000
   36.7950   27.8830   34.6560 O   0  0  0  0  0  0  0  0  0  0  0  0
   37.9240   26.9750   35.0780 P   0  0  1  0  0  0  0  0  0  0  0  0
   38.8040   27.5930   36.3680 O   0  0  0  0  0  0  0  0  0  0  0  0
   39.0800   28.5390   36.1930 H   0  0  0  0  0  0  0  0  0  0  0  0
   37.3350   25.4270   35.5930 O   0  0  0  0  0  0  0  0  0  0  0  0
   38.1140   24.5660   36.3500 C   0  0  0  0  0  0  0  0  0  0  0  0
   39.0770   23.6960   35.8710 C   0  0  0  0  0  0  0  0  0  0  0  0
   39.7730   22.8980   36.7540 C   0  0  0  0  0  0  0  0  0  0  0  0
   39.4900   22.9900   38.0940 N   0  0  0  0  0  0  0  0  0  0  0  0
   38.5430   23.8490   38.5350 C   0  0  0  0  0  0  0  0  0  0  0  0
   37.8480   24.6440   37.6700 N   0  0  0  0  0  0  0  0  0  0  0  0
   40.4970   22.2580   36.2980 H   0  0  0  0  0  0  0  0  0  0  0  0
   38.3250   23.9170   39.5960 H   0  0  0  0  0  0  0  0  0  0  0  0
   39.2490   23.7220   34.4650 N   0  0  0  0  0  0  0  0  0  0  0  0
   39.9600   24.3370   34.0210 H   0  0  0  0  0  0  0  0  0  0  0  0
   38.7090   23.1580   33.7660 H   0  0  0  0  0  0  0  0  0  0  0  0
   38.8960   26.7510   33.7000 O   0  0  0  0  0  0  0  0  0  0  0  0
   37.4050   24.6300   32.3740 O   0  0  0  0  0  0  0  0  0  0  0  0
   37.6830   25.7830   31.9010 C   0  0  0  0  0  0  0  0  0  0  0  0
   38.1970   27.0450   32.5440 C   0  0  2  0  0  3  0  0  0  0  0  0
   39.0650   27.5960   31.4680 C   0  0  0  0  0  3  0  0  0  0  0  0
   39.0090   28.7160   31.3620 H   0  0  0  0  0  0  0  0  0  0  0  0
   38.6370   27.0100   30.1480 C   0  0  0  0  0  3  0  0  0  0  0  0
   38.3520   27.7600   29.4020 H   0  0  0  0  0  0  0  0  0  0  0  0
   37.5340   26.1100   30.5060 N   0  0  0  0  0  0  0  0  0  0  0  0
   36.7710   25.7670   29.8500 H   0  0  0  0  0  0  0  0  0  0  0  0
  2  1  2  6  0  0  0
  2  5  1  0  0  0  0
  2  3  1  0  0  0  0
  4  3  1  0  0  0  0
  5  6  1  0  0  0  0
  6 11  1  0  0  0  0
  7  6  2  0  0  0  0
  7  8  1  0  0  0  0
  8  9  2  0  0  0  0
  9 10  1  0  0  0  0
 10 13  1  0  0  0  0
 11 10  2  0  0  0  0
 12  8  1  0  0  0  0
 14  7  1  0  0  0  0
 15 14  1  0  0  0  0
 16 14  1  0  0  0  0
 17  2  1  0  0  0  0
 19 18  2  0  0  0  0
 19 20  1  0  0  0  0
 20 17  1  1  0  0  0
 21 20  1  0  0  0  0
 22 21  1  0  0  0  0
 23 25  1  0  0  0  0
 23 21  1  0  0  0  0
 24 23  1  0  0  0  0
 25 19  1  0  0  0  0
 26 25  1  0  0  0  0
M  END
>  <minimizedAffinity>
-4.56361246

$$$$

 OpenBabel03272504183D

 26 27  0  0  1  0  0  0  0  0999 V2000
   41.7320   22.8320   33.4940 O   0  0  0  0  0  0  0  0  0  0  0  0
   41.0230   23.8270   34.3780 P   0  0  1  0  0  0  0  0  0  0  0  0
   42.0670   24.6260   35.4220 O   0  0  0  0  0  0  0  0  0  0  0  0
   42.6470   23.9770   35.9150 H   0  0  0  0  0  0  0  0  0  0  0  0
   40.2360   25.0590   33.4450 O   0  0  0  0  0  0  0  0  0  0  0  0
   39.2360   25.8540   33.9830 C   0  0  0  0  0  0  0  0  0  0  0  0
   37.9330   25.9510   33.5280 C   0  0  0  0  0  0  0  0  0  0  0  0
   37.0480   26.7900   34.1710 C   0  0  0  0  0  0  0  0  0  0  0  0
   37.4880   27.5110   35.2540 N   0  0  0  0  0  0  0  0  0  0  0  0
   38.7670   27.3970   35.6770 C   0  0  0  0  0  0  0  0  0  0  0  0
   39.6510   26.5680   35.0480 N   0  0  0  0  0  0  0  0  0  0  0  0
   36.0650   26.8030   33.7540 H   0  0  0  0  0  0  0  0  0  0  0  0
   39.1070   27.9690   36.5340 H   0  0  0  0  0  0  0  0  0  0  0  0
   37.6390   25.1430   32.4020 N   0  0  0  0  0  0  0  0  0  0  0  0
   37.2500   24.1850   32.5130 H   0  0  0  0  0  0  0  0  0  0  0  0
   37.7750   25.4090   31.3980 H   0  0  0  0  0  0  0  0  0  0  0  0
   39.8340   22.9500   35.2240 O   0  0  0  0  0  0  0  0  0  0  0  0
   40.9440   21.6650   37.5900 O   0  0  0  0  0  0  0  0  0  0  0  0
   40.0580   22.5860   37.5610 C   0  0  0  0  0  0  0  0  0  0  0  0
   39.5930   23.5100   36.4660 C   0  0  2  0  0  3  0  0  0  0  0  0
   38.1410   23.6300   36.7730 C   0  0  0  0  0  3  0  0  0  0  0  0
   37.7250   24.6640   36.6210 H   0  0  0  0  0  0  0  0  0  0  0  0
   37.9190   23.2760   38.2200 C   0  0  0  0  0  3  0  0  0  0  0  0
   37.4400   24.0720   38.8020 H   0  0  0  0  0  0  0  0  0  0  0  0
   39.2610   22.9370   38.7080 N   0  0  0  0  0  0  0  0  0  0  0  0
   39.5780   22.9510   39.7230 H   0  0  0  0  0  0  0  0  0  0  0  0
  2  1  2  6  0  0  0
  2 17  1  0  0  0  0
  2  3  1  0  0  0  0
  3  4  1  0  0  0  0
  5  6  1  0  0  0  0
  5  2  1  0  0  0  0
  6 11  1  0  0  0  0
  7  6  2  0  0  0  0
  7  8  1  0  0  0  0
  8  9  2  0  0  0  0
  9 10  1  0  0  0  0
 10 13  1  0  0  0  0
 11 10  2  0  0  0  0
 12  8  1  0  0  0  0
 14 15  1  0  0  0  0
 14  7  1  0  0  0  0
 16 14  1  0  0  0  0
 19 18  2  0  0  0  0
 19 25  1  0  0  0  0
 20 17  1  6  0  0  0
 20 21  1  0  0  0  0
 20 19  1  0  0  0  0
 21 23  1  0  0  0  0
 22 21  1  0  0  0  0
 23 25  1  0  0  0  0
 23 24  1  0  0  0  0
 25 26  1  0  0  0  0
M  END
>  <minimizedAffinity>
-4.42203331

$$$$

 OpenBabel03272504183D

 26 27  0  0  1  0  0  0  0  0999 V2000
   36.7560   26.5550   35.0910 O   0  0  0  0  0  0  0  0  0  0  0  0
   38.2410   26.8060   34.9970 P   0  0  1  0  0  0  0  0  0  0  0  0
   38.7990   27.8470   36.1890 O   0  0  0  0  0  0  0  0  0  0  0  0
   38.2430   28.6780   36.2290 H   0  0  0  0  0  0  0  0  0  0  0  0
   39.1460   25.3370   35.1750 O   0  0  0  0  0  0  0  0  0  0  0  0
   38.5550   24.0930   35.0230 C   0  0  0  0  0  0  0  0  0  0  0  0
   38.0830   23.2810   36.0390 C   0  0  0  0  0  0  0  0  0  0  0  0
   37.5170   22.0630   35.7280 C   0  0  0  0  0  0  0  0  0  0  0  0
   37.4360   21.6870   34.4100 N   0  0  0  0  0  0  0  0  0  0  0  0
   37.9050   22.5000   33.4380 C   0  0  0  0  0  0  0  0  0  0  0  0
   38.4680   23.7090   33.7340 N   0  0  0  0  0  0  0  0  0  0  0  0
   37.1800   21.5020   36.5730 H   0  0  0  0  0  0  0  0  0  0  0  0
   37.8380   22.1970   32.3980 H   0  0  0  0  0  0  0  0  0  0  0  0
   38.2410   23.8130   37.3420 N   0  0  0  0  0  0  0  0  0  0  0  0
   37.4850   24.3680   37.7920 H   0  0  0  0  0  0  0  0  0  0  0  0
   39.0850   23.7100   37.9530 H   0  0  0  0  0  0  0  0  0  0  0  0
   38.5210   27.4250   33.4360 O   0  0  0  0  0  0  0  0  0  0  0  0
   38.7600   25.7470   31.0680 O   0  0  0  0  0  0  0  0  0  0  0  0
   37.7990   26.5400   31.3530 C   0  0  0  0  0  0  0  0  0  0  0  0
   37.4150   27.2500   32.6250 C   0  0  2  0  0  3  0  0  0  0  0  0
   36.8750   28.5330   32.0990 C   0  0  0  0  0  3  0  0  0  0  0  0
   35.9670   28.9090   32.6500 H   0  0  0  0  0  0  0  0  0  0  0  0
   36.4650   28.3370   30.6630 C   0  0  0  0  0  3  0  0  0  0  0  0
   35.4120   28.5690   30.4670 H   0  0  0  0  0  0  0  0  0  0  0  0
   36.8040   26.9360   30.3900 N   0  0  0  0  0  0  0  0  0  0  0  0
   36.3860   26.3310   29.6220 H   0  0  0  0  0  0  0  0  0  0  0  0
  2  1  2  1  0  0  0
  2  5  1  0  0  0  0
  2  3  1  0  0  0  0
  3  4  1  0  0  0  0
  6  5  1  0  0  0  0
  6  7  1  0  0  0  0
  7 14  1  0  0  0  0
  8  7  2  0  0  0  0
  8 12  1  0  0  0  0
  9  8  1  0  0  0  0
 10 11  1  0  0  0  0
 10  9  2  0  0  0  0
 11  6  2  0  0  0  0
 13 10  1  0  0  0  0
 14 15  1  0  0  0  0
 14 16  1  0  0  0  0
 17  2  1  0  0  0  0
 18 19  2  0  0  0  0
 19 20  1  0  0  0  0
 20 17  1  1  0  0  0
 21 20  1  0  0  0  0
 21 22  1  0  0  0  0
 23 21  1  0  0  0  0
 24 23  1  0  0  0  0
 25 23  1  0  0  0  0
 25 19  1  0  0  0  0
 26 25  1  0  0  0  0
M  END
>  <minimizedAffinity>
-4.38320208

$$$$
