
 OpenBabel03272506423D

 32 34  0  0  1  0  0  0  0  0999 V2000
   32.3840   28.3440   47.5170 C   0  0  2  0  0  0  0  0  0  0  0  0
   33.6230   28.4160   48.3840 C   0  0  1  0  0  0  0  0  0  0  0  0
   34.1930   27.1650   48.3880 O   0  0  0  0  0  0  0  0  0  0  0  0
   33.5470   26.3640   47.4760 C   0  0  0  0  0  0  0  0  0  0  0  0
   32.8520   27.3080   46.5010 C   0  0  1  0  0  0  0  0  0  0  0  0
   31.4960   27.9440   48.0510 H   0  0  0  0  0  0  0  0  0  0  0  0
   33.4350   28.8120   49.3890 H   0  0  0  0  0  0  0  0  0  0  0  0
   32.8150   25.6550   47.9400 H   0  0  0  0  0  0  0  0  0  0  0  0
   34.2930   25.7220   46.9440 H   0  0  0  0  0  0  0  0  0  0  0  0
   33.5950   27.7390   45.8210 H   0  0  0  0  0  0  0  0  0  0  0  0
   32.1340   29.5780   46.9130 O   0  0  0  0  0  0  0  0  0  0  0  0
   32.9310   29.7870   46.3900 H   0  0  0  0  0  0  0  0  0  0  0  0
   34.7950   29.5390   47.5290 S   0  0  0  0  0  0  0  0  0  0  0  0
   37.3940   29.4730   50.5330 C   0  0  0  0  0  0  0  0  0  0  0  0
   37.9980   30.7430   50.4940 C   0  0  0  0  0  0  0  0  0  0  0  0
   37.5860   31.6390   49.5120 C   0  0  0  0  0  0  0  0  0  0  0  0
   36.6300   31.2570   48.6390 N   0  0  0  0  0  0  0  0  0  0  0  0
   36.0610   30.0260   48.6940 C   0  0  0  0  0  0  0  0  0  0  0  0
   36.4380   29.1440   49.6300 N   0  0  0  0  0  0  0  0  0  0  0  0
   37.6350   28.7040   51.2470 H   0  0  0  0  0  0  0  0  0  0  0  0
   38.7590   30.9460   51.2460 H   0  0  0  0  0  0  0  0  0  0  0  0
   38.0560   32.6130   49.4910 H   0  0  0  0  0  0  0  0  0  0  0  0
   31.7940   26.6720   45.8710 O   0  0  0  0  0  0  0  0  0  0  0  0
   33.2430   24.5840   44.2280 O   0  0  0  0  0  0  0  0  0  0  0  0
   32.3300   25.4390   43.9600 C   0  0  0  0  0  0  0  0  0  0  0  0
   31.8630   26.7480   44.4870 C   0  0  1  0  0  3  0  0  0  0  0  0
   30.5010   26.8700   43.8340 C   0  0  0  0  0  3  0  0  0  0  0  0
   29.7920   26.1860   44.3100 H   0  0  0  0  0  0  0  0  0  0  0  0
   30.7900   26.3050   42.4510 C   0  0  0  0  0  3  0  0  0  0  0  0
   29.9020   26.1250   41.8480 H   0  0  0  0  0  0  0  0  0  0  0  0
   31.4930   25.0760   42.8420 N   0  0  0  0  0  0  0  0  0  0  0  0
   31.3140   24.1740   42.3080 H   0  0  0  0  0  0  0  0  0  0  0  0
  1  6  1  1  0  0  0
  1  2  1  0  0  0  0
  2  3  1  0  0  0  0
  2  7  1  1  0  0  0
  4  8  1  0  0  0  0
  4  3  1  0  0  0  0
  5 10  1  6  0  0  0
  5  4  1  0  0  0  0
  5  1  1  0  0  0  0
  9  4  1  0  0  0  0
 11  1  1  0  0  0  0
 12 11  1  0  0  0  0
 13  2  1  0  0  0  0
 13 18  1  0  0  0  0
 14 20  1  0  0  0  0
 15 14  1  0  0  0  0
 15 21  1  0  0  0  0
 16 15  2  0  0  0  0
 17 18  2  0  0  0  0
 17 16  1  0  0  0  0
 18 19  1  0  0  0  0
 19 14  2  0  0  0  0
 22 16  1  0  0  0  0
 23  5  1  0  0  0  0
 25 24  2  0  0  0  0
 25 26  1  0  0  0  0
 26 23  1  1  0  0  0
 27 28  1  0  0  0  0
 27 26  1  0  0  0  0
 29 31  1  0  0  0  0
 29 27  1  0  0  0  0
 30 29  1  0  0  0  0
 31 25  1  0  0  0  0
 32 31  1  0  0  0  0
M  END
>  <minimizedAffinity>
-3.73208976

>  <minimizedRMSD>
0.186263561

$$$$
