
 OpenBabel03272506423D

 32 34  0  0  1  0  0  0  0  0999 V2000
   32.2410   28.1910   47.5200 C   0  0  2  0  0  0  0  0  0  0  0  0
   33.5000   28.1590   48.3610 C   0  0  1  0  0  0  0  0  0  0  0  0
   34.0830   26.9280   48.1800 O   0  0  0  0  0  0  0  0  0  0  0  0
   33.4240   26.2510   47.1810 C   0  0  0  0  0  0  0  0  0  0  0  0
   32.6960   27.3110   46.3620 C   0  0  1  0  0  0  0  0  0  0  0  0
   31.3710   27.7090   48.0130 H   0  0  0  0  0  0  0  0  0  0  0  0
   33.3320   28.4110   49.4160 H   0  0  0  0  0  0  0  0  0  0  0  0
   32.7110   25.4750   47.5580 H   0  0  0  0  0  0  0  0  0  0  0  0
   34.1640   25.6990   46.5490 H   0  0  0  0  0  0  0  0  0  0  0  0
   33.4190   27.8420   45.7310 H   0  0  0  0  0  0  0  0  0  0  0  0
   31.9650   29.4930   47.0990 O   0  0  0  0  0  0  0  0  0  0  0  0
   32.7470   29.7830   46.5920 H   0  0  0  0  0  0  0  0  0  0  0  0
   34.6390   29.4050   47.6450 S   0  0  0  0  0  0  0  0  0  0  0  0
   37.2250   29.2300   50.6560 C   0  0  0  0  0  0  0  0  0  0  0  0
   37.6400   30.5630   50.8320 C   0  0  0  0  0  0  0  0  0  0  0  0
   37.1020   31.5370   49.9950 C   0  0  0  0  0  0  0  0  0  0  0  0
   36.2100   31.1670   49.0520 N   0  0  0  0  0  0  0  0  0  0  0  0
   35.8240   29.8750   48.9000 C   0  0  0  0  0  0  0  0  0  0  0  0
   36.3250   28.9170   49.6920 N   0  0  0  0  0  0  0  0  0  0  0  0
   37.5740   28.3990   51.2440 H   0  0  0  0  0  0  0  0  0  0  0  0
   38.3650   30.7480   51.6230 H   0  0  0  0  0  0  0  0  0  0  0  0
   37.4280   32.5580   50.1390 H   0  0  0  0  0  0  0  0  0  0  0  0
   31.6300   26.7540   45.6730 O   0  0  0  0  0  0  0  0  0  0  0  0
   29.3640   28.4500   44.5990 O   0  0  0  0  0  0  0  0  0  0  0  0
   30.5590   28.2240   44.2060 C   0  0  0  0  0  0  0  0  0  0  0  0
   31.5770   27.1500   44.3440 C   0  0  1  0  0  3  0  0  0  0  0  0
   32.8360   27.8630   43.8900 C   0  0  0  0  0  3  0  0  0  0  0  0
   33.1670   28.5690   44.6590 H   0  0  0  0  0  0  0  0  0  0  0  0
   32.2970   28.6970   42.7360 C   0  0  0  0  0  3  0  0  0  0  0  0
   32.9960   29.4410   42.3590 H   0  0  0  0  0  0  0  0  0  0  0  0
   31.1210   29.2800   43.3980 N   0  0  0  0  0  0  0  0  0  0  0  0
   30.8640   30.2950   43.2150 H   0  0  0  0  0  0  0  0  0  0  0  0
  1  6  1  1  0  0  0
  1  2  1  0  0  0  0
  2  7  1  1  0  0  0
  3  2  1  0  0  0  0
  4  8  1  0  0  0  0
  4  3  1  0  0  0  0
  5 10  1  6  0  0  0
  5  4  1  0  0  0  0
  5  1  1  0  0  0  0
  9  4  1  0  0  0  0
 11  1  1  0  0  0  0
 12 11  1  0  0  0  0
 13  2  1  0  0  0  0
 13 18  1  0  0  0  0
 14 15  1  0  0  0  0
 14 20  1  0  0  0  0
 15 21  1  0  0  0  0
 16 22  1  0  0  0  0
 16 15  2  0  0  0  0
 17 16  1  0  0  0  0
 18 17  2  0  0  0  0
 18 19  1  0  0  0  0
 19 14  2  0  0  0  0
 23  5  1  0  0  0  0
 25 26  1  0  0  0  0
 25 24  2  0  0  0  0
 26 23  1  1  0  0  0
 27 26  1  0  0  0  0
 27 28  1  0  0  0  0
 29 31  1  0  0  0  0
 29 27  1  0  0  0  0
 30 29  1  0  0  0  0
 31 25  1  0  0  0  0
 32 31  1  0  0  0  0
M  END
>  <minimizedAffinity>
-3.80238652

>  <minimizedRMSD>
1.20789206

$$$$
