
 OpenBabel03272504383D

 42 44  0  0  1  0  0  0  0  0999 V2000
   37.2710   30.1730   48.6600 Cl  0  0  0  0  0  0  0  0  0  0  0  0
   36.1760   30.0950   47.2800 C   0  0  0  0  0  0  0  0  0  0  0  0
   36.5900   30.5730   46.0750 C   0  0  0  0  0  0  0  0  0  0  0  0
   35.7520   30.5180   44.9960 C   0  0  0  0  0  0  0  0  0  0  0  0
   34.4910   29.9730   45.1530 C   0  0  0  0  0  0  0  0  0  0  0  0
   34.1150   29.4970   46.4110 C   0  0  0  0  0  0  0  0  0  0  0  0
   34.9370   29.5430   47.4980 C   0  0  0  0  0  0  0  0  0  0  0  0
   36.1190   30.9130   44.0400 H   0  0  0  0  0  0  0  0  0  0  0  0
   33.9110   29.9790   44.2380 H   0  0  0  0  0  0  0  0  0  0  0  0
   33.1520   29.1330   46.3290 H   0  0  0  0  0  0  0  0  0  0  0  0
   39.5690   32.7330   46.4060 C   0  0  0  0  0  0  0  0  0  0  0  0
   40.4700   32.0940   45.5130 C   0  0  0  0  0  0  0  0  0  0  0  0
   40.0190   30.9600   44.8430 C   0  0  0  0  0  0  0  0  0  0  0  0
   38.7550   30.5110   45.0620 N   0  0  0  0  0  0  0  0  0  0  0  0
   37.9220   31.1470   45.9220 C   0  0  0  0  0  0  0  0  0  0  0  0
   38.3360   32.2370   46.5740 N   0  0  0  0  0  0  0  0  0  0  0  0
   39.8980   33.6190   46.9410 H   0  0  0  0  0  0  0  0  0  0  0  0
   41.4580   32.5230   45.4020 H   0  0  0  0  0  0  0  0  0  0  0  0
   40.9330   30.3420   43.9580 N   0  0  0  0  0  0  0  0  0  0  0  0
   41.3480   30.6690   43.0450 H   0  0  0  0  0  0  0  0  0  0  0  0
   41.1600   29.4230   44.3800 H   0  0  0  0  0  0  0  0  0  0  0  0
   34.5290   29.0510   48.7950 C   0  0  0  0  0  0  0  0  0  0  0  0
   35.4310   28.7430   49.3640 H   0  0  0  0  0  0  0  0  0  0  0  0
   34.1460   29.9440   49.3730 H   0  0  0  0  0  0  0  0  0  0  0  0
   33.5380   27.9820   48.8740 C   0  0  0  0  0  0  0  0  0  0  0  0
   33.9260   27.0560   49.3590 H   0  0  0  0  0  0  0  0  0  0  0  0
   33.2510   27.6690   47.8380 H   0  0  0  0  0  0  0  0  0  0  0  0
   32.4190   28.3740   49.5630 O   0  0  0  0  0  0  0  0  0  0  0  0
   31.3030   26.2770   48.4280 O   0  0  0  0  0  0  0  0  0  0  0  0
   31.0430   27.6880   48.8950 P   0  0  2  0  0  0  0  0  0  0  0  0
   30.5850   28.6930   47.5810 O   0  0  0  0  0  0  0  0  0  0  0  0
   30.7550   29.6150   47.8440 H   0  0  0  0  0  0  0  0  0  0  0  0
   29.7630   27.6540   49.9640 O   0  0  0  0  0  0  0  0  0  0  0  0
   27.6160   26.3950   47.8740 O   0  0  0  0  0  0  0  0  0  0  0  0
   27.7980   26.9170   49.0160 C   0  0  0  0  0  0  0  0  0  0  0  0
   28.6340   28.1260   49.3480 C   0  0  1  0  0  3  0  0  0  0  0  0
   27.7460   28.7770   50.3810 C   0  0  0  0  0  3  0  0  0  0  0  0
   26.7780   29.1300   49.9210 H   0  0  0  0  0  0  0  0  0  0  0  0
   27.3680   27.5660   51.2350 C   0  0  0  0  0  3  0  0  0  0  0  0
   26.3780   27.7010   51.7110 H   0  0  0  0  0  0  0  0  0  0  0  0
   27.2630   26.4920   50.2650 N   0  0  0  0  0  0  0  0  0  0  0  0
   26.8570   25.5470   50.4420 H   0  0  0  0  0  0  0  0  0  0  0  0
  2  7  1  0  0  0  0
  2  1  1  0  0  0  0
  3  2  2  0  0  0  0
  4  5  2  0  0  0  0
  4  3  1  0  0  0  0
  5  6  1  0  0  0  0
  6  7  2  0  0  0  0
  7 22  1  0  0  0  0
  8  4  1  0  0  0  0
  9  5  1  0  0  0  0
 10  6  1  0  0  0  0
 11 16  1  0  0  0  0
 11 17  1  0  0  0  0
 12 11  2  0  0  0  0
 13 14  2  0  0  0  0
 13 12  1  0  0  0  0
 14 15  1  0  0  0  0
 15  3  1  0  0  0  0
 15 16  2  0  0  0  0
 18 12  1  0  0  0  0
 19 21  1  0  0  0  0
 19 13  1  0  0  0  0
 20 19  1  0  0  0  0
 22 25  1  0  0  0  0
 22 23  1  0  0  0  0
 22 24  1  0  0  0  0
 25 26  1  0  0  0  0
 25 28  1  0  0  0  0
 27 25  1  0  0  0  0
 30 29  2  6  0  0  0
 30 28  1  0  0  0  0
 30 33  1  0  0  0  0
 31 32  1  0  0  0  0
 31 30  1  0  0  0  0
 34 35  2  0  0  0  0
 35 36  1  0  0  0  0
 35 41  1  0  0  0  0
 36 33  1  1  0  0  0
 36 37  1  0  0  0  0
 37 39  1  0  0  0  0
 38 37  1  0  0  0  0
 39 40  1  0  0  0  0
 41 42  1  0  0  0  0
 41 39  1  0  0  0  0
M  END
>  <minimizedAffinity>
-6.33786106

>  <minimizedRMSD>
2.18677258

$$$$
