
 OpenBabel03272504393D

 42 44  0  0  1  0  0  0  0  0999 V2000
   37.4690   30.3240   48.0630 Cl  0  0  0  0  0  0  0  0  0  0  0  0
   36.3260   30.2590   46.7210 C   0  0  0  0  0  0  0  0  0  0  0  0
   36.7130   30.7110   45.4970 C   0  0  0  0  0  0  0  0  0  0  0  0
   35.8380   30.6650   44.4470 C   0  0  0  0  0  0  0  0  0  0  0  0
   34.5680   30.1570   44.6530 C   0  0  0  0  0  0  0  0  0  0  0  0
   34.2220   29.7070   45.9280 C   0  0  0  0  0  0  0  0  0  0  0  0
   35.0810   29.7440   46.9870 C   0  0  0  0  0  0  0  0  0  0  0  0
   36.1840   31.0380   43.4740 H   0  0  0  0  0  0  0  0  0  0  0  0
   33.9590   30.1670   43.7570 H   0  0  0  0  0  0  0  0  0  0  0  0
   33.2470   29.3690   45.8830 H   0  0  0  0  0  0  0  0  0  0  0  0
   39.7060   32.8740   45.5740 C   0  0  0  0  0  0  0  0  0  0  0  0
   40.6210   32.1020   44.8080 C   0  0  0  0  0  0  0  0  0  0  0  0
   40.1730   30.8850   44.3040 C   0  0  0  0  0  0  0  0  0  0  0  0
   38.8990   30.4820   44.5570 N   0  0  0  0  0  0  0  0  0  0  0  0
   38.0540   31.2450   45.2920 C   0  0  0  0  0  0  0  0  0  0  0  0
   38.4650   32.4170   45.7850 N   0  0  0  0  0  0  0  0  0  0  0  0
   40.0330   33.8280   45.9790 H   0  0  0  0  0  0  0  0  0  0  0  0
   41.6160   32.5030   44.6580 H   0  0  0  0  0  0  0  0  0  0  0  0
   41.1000   30.1350   43.5430 N   0  0  0  0  0  0  0  0  0  0  0  0
   41.5400   30.3190   42.6010 H   0  0  0  0  0  0  0  0  0  0  0  0
   41.3080   29.2870   44.1030 H   0  0  0  0  0  0  0  0  0  0  0  0
   34.7030   29.2790   48.3030 C   0  0  0  0  0  0  0  0  0  0  0  0
   35.6190   29.1570   48.9190 H   0  0  0  0  0  0  0  0  0  0  0  0
   34.1630   30.1360   48.8050 H   0  0  0  0  0  0  0  0  0  0  0  0
   33.8890   28.0750   48.4290 C   0  0  0  0  0  0  0  0  0  0  0  0
   34.4820   27.1670   48.6890 H   0  0  0  0  0  0  0  0  0  0  0  0
   33.4220   27.8410   47.4380 H   0  0  0  0  0  0  0  0  0  0  0  0
   32.9100   28.2170   49.3780 O   0  0  0  0  0  0  0  0  0  0  0  0
   31.3220   26.3270   48.4640 O   0  0  0  0  0  0  0  0  0  0  0  0
   31.4120   27.8060   48.7480 P   0  0  2  0  0  0  0  0  0  0  0  0
   31.2200   28.7190   47.3080 O   0  0  0  0  0  0  0  0  0  0  0  0
   31.6090   29.5980   47.4630 H   0  0  0  0  0  0  0  0  0  0  0  0
   30.1560   28.2170   49.7670 O   0  0  0  0  0  0  0  0  0  0  0  0
   27.6560   26.3640   50.7070 O   0  0  0  0  0  0  0  0  0  0  0  0
   28.0390   27.5180   50.3400 C   0  0  0  0  0  0  0  0  0  0  0  0
   28.9630   27.8570   49.1990 C   0  0  1  0  0  3  0  0  0  0  0  0
   28.2780   29.0950   48.6710 C   0  0  0  0  0  3  0  0  0  0  0  0
   27.2630   28.8470   48.2440 H   0  0  0  0  0  0  0  0  0  0  0  0
   27.9940   29.8420   49.9750 C   0  0  0  0  0  3  0  0  0  0  0  0
   27.0960   30.4850   49.8850 H   0  0  0  0  0  0  0  0  0  0  0  0
   27.6930   28.7740   50.9120 N   0  0  0  0  0  0  0  0  0  0  0  0
   27.2830   28.8970   51.8650 H   0  0  0  0  0  0  0  0  0  0  0  0
  2  7  1  0  0  0  0
  2  1  1  0  0  0  0
  3  2  2  0  0  0  0
  4  5  2  0  0  0  0
  4  3  1  0  0  0  0
  5  6  1  0  0  0  0
  6  7  2  0  0  0  0
  7 22  1  0  0  0  0
  8  4  1  0  0  0  0
  9  5  1  0  0  0  0
 10  6  1  0  0  0  0
 11 16  1  0  0  0  0
 11 17  1  0  0  0  0
 12 11  2  0  0  0  0
 13 14  2  0  0  0  0
 13 12  1  0  0  0  0
 14 15  1  0  0  0  0
 15  3  1  0  0  0  0
 15 16  2  0  0  0  0
 18 12  1  0  0  0  0
 19 21  1  0  0  0  0
 19 13  1  0  0  0  0
 20 19  1  0  0  0  0
 22 25  1  0  0  0  0
 22 24  1  0  0  0  0
 22 23  1  0  0  0  0
 25 26  1  0  0  0  0
 25 28  1  0  0  0  0
 27 25  1  0  0  0  0
 30 29  2  6  0  0  0
 30 28  1  0  0  0  0
 30 33  1  0  0  0  0
 31 32  1  0  0  0  0
 31 30  1  0  0  0  0
 35 34  2  0  0  0  0
 35 41  1  0  0  0  0
 36 33  1  1  0  0  0
 36 35  1  0  0  0  0
 37 36  1  0  0  0  0
 37 39  1  0  0  0  0
 38 37  1  0  0  0  0
 39 41  1  0  0  0  0
 40 39  1  0  0  0  0
 41 42  1  0  0  0  0
M  END
>  <minimizedAffinity>
-6.13564682

>  <minimizedRMSD>
1.21962535

$$$$
