
 OpenBabel03272504293D

 37 39  0  0  0  0  0  0  0  0999 V2000
   38.0470   25.8250   33.6500 C   0  0  0  0  0  0  0  0  0  0  0  0
   38.0100   26.9550   34.3890 C   0  0  0  0  0  0  0  0  0  0  0  0
   38.9640   27.2440   35.2790 C   0  0  0  0  0  0  0  0  0  0  0  0
   39.9930   26.3700   35.4370 N   0  0  0  0  0  0  0  0  0  0  0  0
   40.0260   25.2610   34.7090 C   0  0  0  0  0  0  0  0  0  0  0  0
   39.0710   24.9700   33.8170 N   0  0  0  0  0  0  0  0  0  0  0  0
   37.1700   27.6280   34.2340 H   0  0  0  0  0  0  0  0  0  0  0  0
   38.8770   28.1680   35.8430 H   0  0  0  0  0  0  0  0  0  0  0  0
   41.1190   23.4120   35.9090 C   0  0  0  0  0  0  0  0  0  0  0  0
   41.1770   24.4210   34.9400 C   0  0  0  0  0  0  0  0  0  0  0  0
   42.2990   24.6990   34.1830 C   0  0  0  0  0  0  0  0  0  0  0  0
   43.4410   23.9500   34.3770 C   0  0  0  0  0  0  0  0  0  0  0  0
   43.4750   22.9370   35.3100 C   0  0  0  0  0  0  0  0  0  0  0  0
   42.3250   22.7350   36.0090 C   0  0  0  0  0  0  0  0  0  0  0  0
   42.2960   25.4890   33.4440 H   0  0  0  0  0  0  0  0  0  0  0  0
   44.3210   24.1690   33.7820 H   0  0  0  0  0  0  0  0  0  0  0  0
   44.3510   22.3310   35.4900 H   0  0  0  0  0  0  0  0  0  0  0  0
   42.3510   21.9300   36.7500 H   0  0  0  0  0  0  0  0  0  0  0  0
   39.7730   23.0340   36.8190 S   0  0  0  0  0  0  0  0  0  0  0  0
   40.5260   22.2170   37.9220 O   0  0  0  0  0  0  0  0  0  0  0  0
   38.9370   22.0800   36.0060 O   0  0  0  0  0  0  0  0  0  0  0  0
   38.6670   23.3750   37.9140 C   0  0  0  0  0  0  0  0  0  0  0  0
   37.3210   22.9450   37.8740 F   0  0  0  0  0  0  0  0  0  0  0  0
   38.2160   24.7650   37.7480 F   0  0  0  0  0  0  0  0  0  0  0  0
   39.0200   23.7400   39.2450 F   0  0  0  0  0  0  0  0  0  0  0  0
   35.3960   26.0620   31.1320 C   0  0  0  0  0  0  0  0  0  0  0  0
   35.1390   24.7160   30.8340 C   0  0  0  0  0  0  0  0  0  0  0  0
   35.8830   23.7470   31.5070 C   0  0  0  0  0  0  0  0  0  0  0  0
   36.8000   24.1960   32.4040 N   0  0  0  0  0  0  0  0  0  0  0  0
   37.0260   25.4910   32.6710 C   0  0  0  0  0  0  0  0  0  0  0  0
   36.3140   26.4090   32.0260 N   0  0  0  0  0  0  0  0  0  0  0  0
   34.8060   26.8140   30.5970 H   0  0  0  0  0  0  0  0  0  0  0  0
   34.4090   24.4290   30.1190 H   0  0  0  0  0  0  0  0  0  0  0  0
   35.7440   22.3100   31.3240 C   0  0  0  0  0  3  0  0  0  0  0  0
   35.6380   21.3080   32.1660 C   0  0  0  0  0  3  0  0  0  0  0  0
   35.5760   20.7860   33.5490 C   0  0  0  0  0  2  0  0  0  0  0  0
   34.5350   20.4400   33.7410 H   0  0  0  0  0  0  0  0  0  0  0  0
  1  6  2  0  0  0  0
  1  2  1  0  0  0  0
  2  3  2  0  0  0  0
  3  4  1  0  0  0  0
  3  8  1  0  0  0  0
  5 10  1  0  0  0  0
  5  4  2  0  0  0  0
  6  5  1  0  0  0  0
  7  2  1  0  0  0  0
  9 14  1  0  0  0  0
  9 19  1  0  0  0  0
 10  9  2  0  0  0  0
 11 12  2  0  0  0  0
 11 10  1  0  0  0  0
 12 13  1  0  0  0  0
 13 17  1  0  0  0  0
 13 14  2  0  0  0  0
 14 18  1  0  0  0  0
 15 11  1  0  0  0  0
 16 12  1  0  0  0  0
 19 22  1  0  0  0  0
 19 20  2  0  0  0  0
 21 19  2  0  0  0  0
 22 25  1  0  0  0  0
 23 22  1  0  0  0  0
 24 22  1  0  0  0  0
 26 31  1  0  0  0  0
 27 26  2  0  0  0  0
 27 28  1  0  0  0  0
 28 29  2  0  0  0  0
 29 30  1  0  0  0  0
 30  1  1  0  0  0  0
 31 30  2  0  0  0  0
 32 26  1  0  0  0  0
 33 27  1  0  0  0  0
 34 28  1  0  0  0  0
 34 35  2  0  0  0  0
 35 36  1  0  0  0  0
 36 37  1  0  0  0  0
M  END
>  <minimizedAffinity>
-6.90018463

$$$$

 OpenBabel03272504293D

 37 39  0  0  0  0  0  0  0  0999 V2000
   36.0650   28.3510   33.2000 C   0  0  0  0  0  0  0  0  0  0  0  0
   35.8960   28.9400   31.9950 C   0  0  0  0  0  0  0  0  0  0  0  0
   35.2810   30.1200   31.8710 C   0  0  0  0  0  0  0  0  0  0  0  0
   34.8180   30.7340   32.9910 N   0  0  0  0  0  0  0  0  0  0  0  0
   34.9870   30.1540   34.1720 C   0  0  0  0  0  0  0  0  0  0  0  0
   35.6020   28.9710   34.2990 N   0  0  0  0  0  0  0  0  0  0  0  0
   36.2790   28.4150   31.1240 H   0  0  0  0  0  0  0  0  0  0  0  0
   35.1760   30.5400   30.8740 H   0  0  0  0  0  0  0  0  0  0  0  0
   33.1680   30.7010   35.7360 C   0  0  0  0  0  0  0  0  0  0  0  0
   34.4810   30.9080   35.2940 C   0  0  0  0  0  0  0  0  0  0  0  0
   35.3470   31.8290   35.8520 C   0  0  0  0  0  0  0  0  0  0  0  0
   34.9130   32.6020   36.9090 C   0  0  0  0  0  0  0  0  0  0  0  0
   33.6360   32.4680   37.4090 C   0  0  0  0  0  0  0  0  0  0  0  0
   32.8540   31.5370   36.7970 C   0  0  0  0  0  0  0  0  0  0  0  0
   36.3530   31.9520   35.4770 H   0  0  0  0  0  0  0  0  0  0  0  0
   35.5930   33.3240   37.3470 H   0  0  0  0  0  0  0  0  0  0  0  0
   33.2610   33.0560   38.2340 H   0  0  0  0  0  0  0  0  0  0  0  0
   31.8390   31.4290   37.1940 H   0  0  0  0  0  0  0  0  0  0  0  0
   32.1090   29.5810   35.1020 S   0  0  0  0  0  0  0  0  0  0  0  0
   30.8040   30.4120   35.3390 O   0  0  0  0  0  0  0  0  0  0  0  0
   32.0970   28.3980   36.0340 O   0  0  0  0  0  0  0  0  0  0  0  0
   31.3620   28.8730   33.8840 C   0  0  0  0  0  0  0  0  0  0  0  0
   30.9290   27.5280   33.8650 F   0  0  0  0  0  0  0  0  0  0  0  0
   32.3290   28.5660   32.8200 F   0  0  0  0  0  0  0  0  0  0  0  0
   30.6530   29.6250   32.9030 F   0  0  0  0  0  0  0  0  0  0  0  0
   37.5170   25.0490   32.5590 C   0  0  0  0  0  0  0  0  0  0  0  0
   38.0370   24.6970   33.8130 C   0  0  0  0  0  0  0  0  0  0  0  0
   37.8760   25.6030   34.8610 C   0  0  0  0  0  0  0  0  0  0  0  0
   37.2220   26.7590   34.5740 N   0  0  0  0  0  0  0  0  0  0  0  0
   36.7350   27.0720   33.3640 C   0  0  0  0  0  0  0  0  0  0  0  0
   36.8920   26.2040   32.3700 N   0  0  0  0  0  0  0  0  0  0  0  0
   37.6490   24.3300   31.7430 H   0  0  0  0  0  0  0  0  0  0  0  0
   38.5400   23.7770   33.9740 H   0  0  0  0  0  0  0  0  0  0  0  0
   38.3480   25.3980   36.2220 C   0  0  0  0  0  3  0  0  0  0  0  0
   38.1410   24.4480   37.1060 C   0  0  0  0  0  3  0  0  0  0  0  0
   37.5110   23.1700   37.5030 C   0  0  0  0  0  2  0  0  0  0  0  0
   38.3080   22.3930   37.5550 H   0  0  0  0  0  0  0  0  0  0  0  0
  1 30  1  0  0  0  0
  1  6  1  0  0  0  0
  2  1  2  0  0  0  0
  3  2  1  0  0  0  0
  3  4  2  0  0  0  0
  4  5  1  0  0  0  0
  5  6  2  0  0  0  0
  5 10  1  0  0  0  0
  7  2  1  0  0  0  0
  8  3  1  0  0  0  0
  9 14  1  0  0  0  0
 10  9  2  0  0  0  0
 10 11  1  0  0  0  0
 11 12  2  0  0  0  0
 12 16  1  0  0  0  0
 12 13  1  0  0  0  0
 13 17  1  0  0  0  0
 14 18  1  0  0  0  0
 14 13  2  0  0  0  0
 15 11  1  0  0  0  0
 19 20  2  0  0  0  0
 19  9  1  0  0  0  0
 19 21  2  0  0  0  0
 22 19  1  0  0  0  0
 23 22  1  0  0  0  0
 24 22  1  0  0  0  0
 25 22  1  0  0  0  0
 26 27  1  0  0  0  0
 27 33  1  0  0  0  0
 27 28  2  0  0  0  0
 28 34  1  0  0  0  0
 29 28  1  0  0  0  0
 30 29  2  0  0  0  0
 31 26  2  0  0  0  0
 31 30  1  0  0  0  0
 32 26  1  0  0  0  0
 34 35  2  0  0  0  0
 35 36  1  0  0  0  0
 36 37  1  0  0  0  0
M  END
>  <minimizedAffinity>
-6.48402882

$$$$

 OpenBabel03272504293D

 37 39  0  0  0  0  0  0  0  0999 V2000
   36.1000   28.3060   32.9180 C   0  0  0  0  0  0  0  0  0  0  0  0
   35.9320   28.9520   31.7430 C   0  0  0  0  0  0  0  0  0  0  0  0
   35.3560   30.1560   31.6790 C   0  0  0  0  0  0  0  0  0  0  0  0
   34.9310   30.7360   32.8320 N   0  0  0  0  0  0  0  0  0  0  0  0
   35.0970   30.0990   33.9850 C   0  0  0  0  0  0  0  0  0  0  0  0
   35.6740   28.8920   34.0500 N   0  0  0  0  0  0  0  0  0  0  0  0
   36.2850   28.4530   30.8430 H   0  0  0  0  0  0  0  0  0  0  0  0
   35.2500   30.6220   30.7030 H   0  0  0  0  0  0  0  0  0  0  0  0
   33.3270   30.6240   35.6100 C   0  0  0  0  0  0  0  0  0  0  0  0
   34.6330   30.8200   35.1460 C   0  0  0  0  0  0  0  0  0  0  0  0
   35.5320   31.7000   35.7180 C   0  0  0  0  0  0  0  0  0  0  0  0
   35.1390   32.4420   36.8130 C   0  0  0  0  0  0  0  0  0  0  0  0
   33.8710   32.3150   37.3380 C   0  0  0  0  0  0  0  0  0  0  0  0
   33.0550   31.4250   36.7100 C   0  0  0  0  0  0  0  0  0  0  0  0
   36.5320   31.8160   35.3240 H   0  0  0  0  0  0  0  0  0  0  0  0
   35.8450   33.1320   37.2630 H   0  0  0  0  0  0  0  0  0  0  0  0
   33.5280   32.8780   38.1940 H   0  0  0  0  0  0  0  0  0  0  0  0
   32.0480   31.3230   37.1260 H   0  0  0  0  0  0  0  0  0  0  0  0
   32.2290   29.5510   34.9590 S   0  0  0  0  0  0  0  0  0  0  0  0
   30.9600   30.4430   35.1680 O   0  0  0  0  0  0  0  0  0  0  0  0
   32.1440   28.3750   35.8950 O   0  0  0  0  0  0  0  0  0  0  0  0
   31.4740   28.8740   33.7290 C   0  0  0  0  0  0  0  0  0  0  0  0
   31.0150   27.5380   33.6920 F   0  0  0  0  0  0  0  0  0  0  0  0
   32.4400   28.5610   32.6660 F   0  0  0  0  0  0  0  0  0  0  0  0
   30.7850   29.6520   32.7550 F   0  0  0  0  0  0  0  0  0  0  0  0
   38.2290   25.5120   33.9580 C   0  0  0  0  0  0  0  0  0  0  0  0
   37.8180   24.4810   33.1010 C   0  0  0  0  0  0  0  0  0  0  0  0
   36.8140   24.7660   32.1750 C   0  0  0  0  0  0  0  0  0  0  0  0
   36.3170   26.0310   32.1840 N   0  0  0  0  0  0  0  0  0  0  0  0
   36.7280   27.0000   33.0160 C   0  0  0  0  0  0  0  0  0  0  0  0
   37.6850   26.7210   33.8960 N   0  0  0  0  0  0  0  0  0  0  0  0
   39.0170   25.2770   34.6820 H   0  0  0  0  0  0  0  0  0  0  0  0
   38.2450   23.5100   33.1450 H   0  0  0  0  0  0  0  0  0  0  0  0
   36.2730   23.8200   31.2120 C   0  0  0  0  0  3  0  0  0  0  0  0
   35.7150   22.6370   31.3370 C   0  0  0  0  0  3  0  0  0  0  0  0
   35.2510   21.5120   32.1790 C   0  0  0  0  0  2  0  0  0  0  0  0
   34.1370   21.5140   32.1750 H   0  0  0  0  0  0  0  0  0  0  0  0
  1 30  1  0  0  0  0
  1  6  1  0  0  0  0
  2  1  2  0  0  0  0
  3  2  1  0  0  0  0
  3  4  2  0  0  0  0
  4  5  1  0  0  0  0
  5  6  2  0  0  0  0
  5 10  1  0  0  0  0
  7  2  1  0  0  0  0
  8  3  1  0  0  0  0
  9 14  1  0  0  0  0
 10  9  2  0  0  0  0
 10 11  1  0  0  0  0
 11 12  2  0  0  0  0
 12 16  1  0  0  0  0
 12 13  1  0  0  0  0
 13 17  1  0  0  0  0
 14 18  1  0  0  0  0
 14 13  2  0  0  0  0
 15 11  1  0  0  0  0
 19 20  2  0  0  0  0
 19  9  1  0  0  0  0
 19 21  2  0  0  0  0
 22 19  1  0  0  0  0
 23 22  1  0  0  0  0
 24 22  1  0  0  0  0
 25 22  1  0  0  0  0
 26 32  1  0  0  0  0
 27 33  1  0  0  0  0
 27 26  2  0  0  0  0
 28 29  2  0  0  0  0
 28 27  1  0  0  0  0
 29 30  1  0  0  0  0
 30 31  2  0  0  0  0
 31 26  1  0  0  0  0
 34 35  2  0  0  0  0
 34 28  1  0  0  0  0
 35 36  1  0  0  0  0
 37 36  1  0  0  0  0
M  END
>  <minimizedAffinity>
-6.46160746

$$$$

 OpenBabel03272504293D

 37 39  0  0  0  0  0  0  0  0999 V2000
   37.0510   27.5680   32.9550 C   0  0  0  0  0  0  0  0  0  0  0  0
   37.9020   27.6720   31.9110 C   0  0  0  0  0  0  0  0  0  0  0  0
   38.8720   26.7760   31.7040 C   0  0  0  0  0  0  0  0  0  0  0  0
   38.9960   25.7380   32.5730 N   0  0  0  0  0  0  0  0  0  0  0  0
   38.1570   25.6390   33.5960 C   0  0  0  0  0  0  0  0  0  0  0  0
   37.1850   26.5360   33.8060 N   0  0  0  0  0  0  0  0  0  0  0  0
   37.7700   28.5170   31.2400 H   0  0  0  0  0  0  0  0  0  0  0  0
   39.5240   26.9160   30.8470 H   0  0  0  0  0  0  0  0  0  0  0  0
   37.9530   23.2200   33.9970 C   0  0  0  0  0  0  0  0  0  0  0  0
   38.3640   24.4840   34.4370 C   0  0  0  0  0  0  0  0  0  0  0  0
   38.9480   24.7200   35.6670 C   0  0  0  0  0  0  0  0  0  0  0  0
   39.1460   23.6610   36.5290 C   0  0  0  0  0  0  0  0  0  0  0  0
   38.7720   22.3820   36.1800 C   0  0  0  0  0  0  0  0  0  0  0  0
   38.2050   22.2440   34.9500 C   0  0  0  0  0  0  0  0  0  0  0  0
   39.2500   25.7150   35.9630 H   0  0  0  0  0  0  0  0  0  0  0  0
   39.6050   23.8470   37.4940 H   0  0  0  0  0  0  0  0  0  0  0  0
   38.9110   21.5300   36.8290 H   0  0  0  0  0  0  0  0  0  0  0  0
   37.9080   21.2280   34.6720 H   0  0  0  0  0  0  0  0  0  0  0  0
   37.2720   22.8980   32.5090 S   0  0  0  0  0  0  0  0  0  0  0  0
   36.2130   21.8620   33.0160 O   0  0  0  0  0  0  0  0  0  0  0  0
   38.3040   22.1650   31.6930 O   0  0  0  0  0  0  0  0  0  0  0  0
   36.2780   23.2320   31.3080 C   0  0  0  0  0  0  0  0  0  0  0  0
   36.3490   24.3800   30.4870 F   0  0  0  0  0  0  0  0  0  0  0  0
   34.9940   23.7070   31.8450 F   0  0  0  0  0  0  0  0  0  0  0  0
   35.5280   22.2120   30.6540 F   0  0  0  0  0  0  0  0  0  0  0  0
   33.9370   29.4830   32.7060 C   0  0  0  0  0  0  0  0  0  0  0  0
   34.0400   30.3720   33.7870 C   0  0  0  0  0  0  0  0  0  0  0  0
   35.1830   30.2970   34.5840 C   0  0  0  0  0  0  0  0  0  0  0  0
   36.1070   29.3630   34.2390 N   0  0  0  0  0  0  0  0  0  0  0  0
   35.9850   28.5240   33.2000 C   0  0  0  0  0  0  0  0  0  0  0  0
   34.8930   28.6000   32.4450 N   0  0  0  0  0  0  0  0  0  0  0  0
   33.0360   29.5500   32.0880 H   0  0  0  0  0  0  0  0  0  0  0  0
   33.2800   31.0790   34.0060 H   0  0  0  0  0  0  0  0  0  0  0  0
   35.4530   31.1420   35.7370 C   0  0  0  0  0  3  0  0  0  0  0  0
   36.0680   32.2940   35.8770 C   0  0  0  0  0  3  0  0  0  0  0  0
   36.8060   33.4410   35.3030 C   0  0  0  0  0  2  0  0  0  0  0  0
   36.1370   34.3310   35.3330 H   0  0  0  0  0  0  0  0  0  0  0  0
  1 30  1  0  0  0  0
  1  6  1  0  0  0  0
  2  1  2  0  0  0  0
  3  2  1  0  0  0  0
  3  4  2  0  0  0  0
  4  5  1  0  0  0  0
  5  6  2  0  0  0  0
  5 10  1  0  0  0  0
  7  2  1  0  0  0  0
  8  3  1  0  0  0  0
  9 10  2  0  0  0  0
  9 14  1  0  0  0  0
 10 11  1  0  0  0  0
 11 15  1  0  0  0  0
 11 12  2  0  0  0  0
 12 16  1  0  0  0  0
 13 12  1  0  0  0  0
 13 17  1  0  0  0  0
 14 13  2  0  0  0  0
 18 14  1  0  0  0  0
 19 20  2  0  0  0  0
 19  9  1  0  0  0  0
 21 19  2  0  0  0  0
 22 24  1  0  0  0  0
 22 19  1  0  0  0  0
 23 22  1  0  0  0  0
 25 22  1  0  0  0  0
 26 27  1  0  0  0  0
 27 33  1  0  0  0  0
 27 28  2  0  0  0  0
 28 34  1  0  0  0  0
 29 28  1  0  0  0  0
 30 29  2  0  0  0  0
 31 26  2  0  0  0  0
 31 30  1  0  0  0  0
 32 26  1  0  0  0  0
 34 35  2  0  0  0  0
 36 37  1  0  0  0  0
 36 35  1  0  0  0  0
M  END
>  <minimizedAffinity>
-6.19046974

$$$$

 OpenBabel03272504293D

 37 39  0  0  0  0  0  0  0  0999 V2000
   36.1300   28.4310   32.4250 C   0  0  0  0  0  0  0  0  0  0  0  0
   36.9690   28.9490   31.5000 C   0  0  0  0  0  0  0  0  0  0  0  0
   37.8330   28.1820   30.8280 C   0  0  0  0  0  0  0  0  0  0  0  0
   37.8610   26.8490   31.0910 N   0  0  0  0  0  0  0  0  0  0  0  0
   37.0350   26.3440   32.0000 C   0  0  0  0  0  0  0  0  0  0  0  0
   36.1690   27.1110   32.6750 N   0  0  0  0  0  0  0  0  0  0  0  0
   36.9150   30.0200   31.3200 H   0  0  0  0  0  0  0  0  0  0  0  0
   38.4800   28.6580   30.0980 H   0  0  0  0  0  0  0  0  0  0  0  0
   37.8580   24.3960   33.2570 C   0  0  0  0  0  0  0  0  0  0  0  0
   37.1330   24.9150   32.1780 C   0  0  0  0  0  0  0  0  0  0  0  0
   36.5070   24.1360   31.2240 C   0  0  0  0  0  0  0  0  0  0  0  0
   36.5880   22.7620   31.3210 C   0  0  0  0  0  0  0  0  0  0  0  0
   37.2820   22.1630   32.3500 C   0  0  0  0  0  0  0  0  0  0  0  0
   37.8660   23.0090   33.2420 C   0  0  0  0  0  0  0  0  0  0  0  0
   35.9560   24.5830   30.4070 H   0  0  0  0  0  0  0  0  0  0  0  0
   36.0960   22.1510   30.5720 H   0  0  0  0  0  0  0  0  0  0  0  0
   37.3670   21.0920   32.4580 H   0  0  0  0  0  0  0  0  0  0  0  0
   38.4170   22.5340   34.0600 H   0  0  0  0  0  0  0  0  0  0  0  0
   38.6020   25.3070   34.4390 S   0  0  0  0  0  0  0  0  0  0  0  0
   40.0210   24.6630   34.2970 O   0  0  0  0  0  0  0  0  0  0  0  0
   38.0180   24.8870   35.7620 O   0  0  0  0  0  0  0  0  0  0  0  0
   39.3230   26.6310   34.9580 C   0  0  0  0  0  0  0  0  0  0  0  0
   38.6850   27.6910   35.6420 F   0  0  0  0  0  0  0  0  0  0  0  0
   39.5820   27.5320   33.8260 F   0  0  0  0  0  0  0  0  0  0  0  0
   40.7270   26.6720   35.2000 F   0  0  0  0  0  0  0  0  0  0  0  0
   33.0370   30.0050   33.5990 C   0  0  0  0  0  0  0  0  0  0  0  0
   33.4870   30.8100   34.6560 C   0  0  0  0  0  0  0  0  0  0  0  0
   34.8520   30.7990   34.9450 C   0  0  0  0  0  0  0  0  0  0  0  0
   35.6340   30.0030   34.1700 N   0  0  0  0  0  0  0  0  0  0  0  0
   35.1780   29.2410   33.1650 C   0  0  0  0  0  0  0  0  0  0  0  0
   33.8760   29.2560   32.8940 N   0  0  0  0  0  0  0  0  0  0  0  0
   31.9640   30.0210   33.3800 H   0  0  0  0  0  0  0  0  0  0  0  0
   32.8240   31.4100   35.2260 H   0  0  0  0  0  0  0  0  0  0  0  0
   35.4880   31.5730   36.0010 C   0  0  0  0  0  3  0  0  0  0  0  0
   35.0280   32.4430   36.8710 C   0  0  0  0  0  3  0  0  0  0  0  0
   33.9120   33.2200   37.4530 C   0  0  0  0  0  2  0  0  0  0  0  0
   33.6920   32.8050   38.4630 H   0  0  0  0  0  0  0  0  0  0  0  0
  1  6  1  0  0  0  0
  1 30  1  0  0  0  0
  2  1  2  0  0  0  0
  3  4  2  0  0  0  0
  3  2  1  0  0  0  0
  4  5  1  0  0  0  0
  5 10  1  0  0  0  0
  5  6  2  0  0  0  0
  7  2  1  0  0  0  0
  8  3  1  0  0  0  0
  9 19  1  0  0  0  0
 10  9  2  0  0  0  0
 11 12  2  0  0  0  0
 11 10  1  0  0  0  0
 12 13  1  0  0  0  0
 13 17  1  0  0  0  0
 13 14  2  0  0  0  0
 14  9  1  0  0  0  0
 14 18  1  0  0  0  0
 15 11  1  0  0  0  0
 16 12  1  0  0  0  0
 19 22  1  0  0  0  0
 19 21  2  0  0  0  0
 20 19  2  0  0  0  0
 22 25  1  0  0  0  0
 22 23  1  0  0  0  0
 24 22  1  0  0  0  0
 26 27  1  0  0  0  0
 27 28  2  0  0  0  0
 27 33  1  0  0  0  0
 28 34  1  0  0  0  0
 29 28  1  0  0  0  0
 30 29  2  0  0  0  0
 31 30  1  0  0  0  0
 31 26  2  0  0  0  0
 32 26  1  0  0  0  0
 34 35  2  0  0  0  0
 35 36  1  0  0  0  0
 36 37  1  0  0  0  0
M  END
>  <minimizedAffinity>
-6.17279482

$$$$

 OpenBabel03272504293D

 37 39  0  0  0  0  0  0  0  0999 V2000
   37.0290   27.2130   32.7130 C   0  0  0  0  0  0  0  0  0  0  0  0
   38.3110   27.4930   32.3900 C   0  0  0  0  0  0  0  0  0  0  0  0
   39.1850   26.5280   32.0870 C   0  0  0  0  0  0  0  0  0  0  0  0
   38.7630   25.2370   32.1080 N   0  0  0  0  0  0  0  0  0  0  0  0
   37.5030   24.9660   32.4250 C   0  0  0  0  0  0  0  0  0  0  0  0
   36.6260   25.9310   32.7300 N   0  0  0  0  0  0  0  0  0  0  0  0
   38.6090   28.5380   32.3860 H   0  0  0  0  0  0  0  0  0  0  0  0
   40.2020   26.8180   31.8360 H   0  0  0  0  0  0  0  0  0  0  0  0
   37.4470   22.7480   33.4900 C   0  0  0  0  0  0  0  0  0  0  0  0
   37.1590   23.5640   32.3900 C   0  0  0  0  0  0  0  0  0  0  0  0
   36.5740   23.1080   31.2230 C   0  0  0  0  0  0  0  0  0  0  0  0
   36.2490   21.7720   31.1150 C   0  0  0  0  0  0  0  0  0  0  0  0
   36.4970   20.8950   32.1490 C   0  0  0  0  0  0  0  0  0  0  0  0
   37.0750   21.4330   33.2570 C   0  0  0  0  0  0  0  0  0  0  0  0
   36.3690   23.7770   30.3990 H   0  0  0  0  0  0  0  0  0  0  0  0
   35.7900   21.4140   30.2000 H   0  0  0  0  0  0  0  0  0  0  0  0
   36.2560   19.8430   32.0990 H   0  0  0  0  0  0  0  0  0  0  0  0
   37.2730   20.7370   34.0790 H   0  0  0  0  0  0  0  0  0  0  0  0
   38.1260   23.2730   34.9200 S   0  0  0  0  0  0  0  0  0  0  0  0
   39.6100   22.9440   34.5470 O   0  0  0  0  0  0  0  0  0  0  0  0
   37.6840   22.3230   36.0010 O   0  0  0  0  0  0  0  0  0  0  0  0
   38.6870   24.4130   35.8830 C   0  0  0  0  0  0  0  0  0  0  0  0
   38.7300   24.3380   37.2940 F   0  0  0  0  0  0  0  0  0  0  0  0
   37.7090   25.5060   35.9820 F   0  0  0  0  0  0  0  0  0  0  0  0
   39.6090   25.3960   35.4210 F   0  0  0  0  0  0  0  0  0  0  0  0
   34.0330   29.3220   32.7380 C   0  0  0  0  0  0  0  0  0  0  0  0
   34.3060   30.2260   33.7750 C   0  0  0  0  0  0  0  0  0  0  0  0
   35.5210   30.0950   34.4480 C   0  0  0  0  0  0  0  0  0  0  0  0
   36.3430   29.0950   34.0360 N   0  0  0  0  0  0  0  0  0  0  0  0
   36.0570   28.2420   33.0400 C   0  0  0  0  0  0  0  0  0  0  0  0
   34.8980   28.3720   32.4030 N   0  0  0  0  0  0  0  0  0  0  0  0
   33.0760   29.4330   32.2170 H   0  0  0  0  0  0  0  0  0  0  0  0
   33.6200   30.9860   34.0520 H   0  0  0  0  0  0  0  0  0  0  0  0
   35.9660   30.9460   35.5420 C   0  0  0  0  0  3  0  0  0  0  0  0
   35.3220   31.6760   36.4250 C   0  0  0  0  0  3  0  0  0  0  0  0
   34.0600   32.1890   37.0000 C   0  0  0  0  0  2  0  0  0  0  0  0
   33.9090   31.7050   37.9920 H   0  0  0  0  0  0  0  0  0  0  0  0
  1  6  1  0  0  0  0
  1 30  1  0  0  0  0
  2  1  2  0  0  0  0
  3  4  2  0  0  0  0
  3  2  1  0  0  0  0
  4  5  1  0  0  0  0
  5  6  2  0  0  0  0
  7  2  1  0  0  0  0
  8  3  1  0  0  0  0
  9 19  1  0  0  0  0
 10  5  1  0  0  0  0
 10  9  2  0  0  0  0
 11 10  1  0  0  0  0
 12 11  2  0  0  0  0
 12 13  1  0  0  0  0
 13 14  2  0  0  0  0
 14  9  1  0  0  0  0
 14 18  1  0  0  0  0
 15 11  1  0  0  0  0
 16 12  1  0  0  0  0
 17 13  1  0  0  0  0
 19 22  1  0  0  0  0
 19 21  2  0  0  0  0
 20 19  2  0  0  0  0
 22 24  1  0  0  0  0
 22 23  1  0  0  0  0
 25 22  1  0  0  0  0
 26 27  1  0  0  0  0
 27 33  1  0  0  0  0
 27 28  2  0  0  0  0
 28 34  1  0  0  0  0
 29 28  1  0  0  0  0
 30 29  2  0  0  0  0
 31 26  2  0  0  0  0
 31 30  1  0  0  0  0
 32 26  1  0  0  0  0
 34 35  2  0  0  0  0
 35 36  1  0  0  0  0
 36 37  1  0  0  0  0
M  END
>  <minimizedAffinity>
-6.0632329

$$$$

 OpenBabel03272504293D

 37 39  0  0  0  0  0  0  0  0999 V2000
   37.4670   25.8360   31.1260 C   0  0  0  0  0  0  0  0  0  0  0  0
   38.5770   25.5550   30.4090 C   0  0  0  0  0  0  0  0  0  0  0  0
   39.0230   24.3030   30.2640 C   0  0  0  0  0  0  0  0  0  0  0  0
   38.3330   23.2940   30.8590 N   0  0  0  0  0  0  0  0  0  0  0  0
   37.2430   23.5730   31.5620 C   0  0  0  0  0  0  0  0  0  0  0  0
   36.7950   24.8270   31.7090 N   0  0  0  0  0  0  0  0  0  0  0  0
   39.1010   26.3910   29.9500 H   0  0  0  0  0  0  0  0  0  0  0  0
   39.9220   24.1440   29.6760 H   0  0  0  0  0  0  0  0  0  0  0  0
   36.9310   21.9700   33.4020 C   0  0  0  0  0  0  0  0  0  0  0  0
   36.5770   22.4230   32.1260 C   0  0  0  0  0  0  0  0  0  0  0  0
   35.6250   21.8160   31.3280 C   0  0  0  0  0  0  0  0  0  0  0  0
   34.9740   20.6950   31.7980 C   0  0  0  0  0  0  0  0  0  0  0  0
   35.2590   20.1780   33.0430 C   0  0  0  0  0  0  0  0  0  0  0  0
   36.2090   20.8410   33.7570 C   0  0  0  0  0  0  0  0  0  0  0  0
   35.3840   22.2040   30.3480 H   0  0  0  0  0  0  0  0  0  0  0  0
   34.2270   20.2190   31.1720 H   0  0  0  0  0  0  0  0  0  0  0  0
   34.7700   19.3020   33.4430 H   0  0  0  0  0  0  0  0  0  0  0  0
   36.4360   20.4310   34.7470 H   0  0  0  0  0  0  0  0  0  0  0  0
   38.0540   22.6960   34.3990 S   0  0  0  0  0  0  0  0  0  0  0  0
   39.2830   21.8460   33.9340 O   0  0  0  0  0  0  0  0  0  0  0  0
   37.7130   22.3080   35.8140 O   0  0  0  0  0  0  0  0  0  0  0  0
   39.0770   23.8630   34.7610 C   0  0  0  0  0  0  0  0  0  0  0  0
   39.4990   24.2010   36.0670 F   0  0  0  0  0  0  0  0  0  0  0  0
   38.4020   25.1650   34.6530 F   0  0  0  0  0  0  0  0  0  0  0  0
   40.0080   24.3640   33.8050 F   0  0  0  0  0  0  0  0  0  0  0  0
   36.3790   29.2740   30.4830 C   0  0  0  0  0  0  0  0  0  0  0  0
   35.9620   29.7040   31.7520 C   0  0  0  0  0  0  0  0  0  0  0  0
   36.0660   28.8000   32.8100 C   0  0  0  0  0  0  0  0  0  0  0  0
   36.5670   27.5720   32.5180 N   0  0  0  0  0  0  0  0  0  0  0  0
   36.9580   27.1860   31.2940 C   0  0  0  0  0  0  0  0  0  0  0  0
   36.8570   28.0510   30.2900 N   0  0  0  0  0  0  0  0  0  0  0  0
   36.2930   29.9910   29.6590 H   0  0  0  0  0  0  0  0  0  0  0  0
   35.5770   30.6780   31.9160 H   0  0  0  0  0  0  0  0  0  0  0  0
   35.6850   29.0800   34.1860 C   0  0  0  0  0  3  0  0  0  0  0  0
   35.6350   30.1860   34.8930 C   0  0  0  0  0  3  0  0  0  0  0  0
   35.8210   31.6490   35.0140 C   0  0  0  0  0  2  0  0  0  0  0  0
   34.8140   32.1210   35.0800 H   0  0  0  0  0  0  0  0  0  0  0  0
  1 30  1  0  0  0  0
  1  6  1  0  0  0  0
  2  1  2  0  0  0  0
  3  2  1  0  0  0  0
  3  4  2  0  0  0  0
  4  5  1  0  0  0  0
  5  6  2  0  0  0  0
  5 10  1  0  0  0  0
  7  2  1  0  0  0  0
  8  3  1  0  0  0  0
  9 14  1  0  0  0  0
  9 19  1  0  0  0  0
 10  9  2  0  0  0  0
 11 12  2  0  0  0  0
 11 10  1  0  0  0  0
 12 13  1  0  0  0  0
 13 17  1  0  0  0  0
 13 14  2  0  0  0  0
 14 18  1  0  0  0  0
 15 11  1  0  0  0  0
 16 12  1  0  0  0  0
 19 22  1  0  0  0  0
 19 21  2  0  0  0  0
 20 19  2  0  0  0  0
 22 23  1  0  0  0  0
 24 22  1  0  0  0  0
 25 22  1  0  0  0  0
 26 27  1  0  0  0  0
 27 33  1  0  0  0  0
 27 28  2  0  0  0  0
 28 34  1  0  0  0  0
 29 28  1  0  0  0  0
 30 29  2  0  0  0  0
 31 26  2  0  0  0  0
 31 30  1  0  0  0  0
 32 26  1  0  0  0  0
 34 35  2  0  0  0  0
 35 36  1  0  0  0  0
 36 37  1  0  0  0  0
M  END
>  <minimizedAffinity>
-5.95566463

$$$$

 OpenBabel03272504293D

 37 39  0  0  0  0  0  0  0  0999 V2000
   35.6890   29.0350   32.7210 C   0  0  0  0  0  0  0  0  0  0  0  0
   35.4370   29.7240   31.5860 C   0  0  0  0  0  0  0  0  0  0  0  0
   34.3470   30.4870   31.4550 C   0  0  0  0  0  0  0  0  0  0  0  0
   33.4770   30.5640   32.4960 N   0  0  0  0  0  0  0  0  0  0  0  0
   33.7290   29.8860   33.6090 C   0  0  0  0  0  0  0  0  0  0  0  0
   34.8200   29.1210   33.7420 N   0  0  0  0  0  0  0  0  0  0  0  0
   36.1570   29.6350   30.7760 H   0  0  0  0  0  0  0  0  0  0  0  0
   34.2020   31.0150   30.5170 H   0  0  0  0  0  0  0  0  0  0  0  0
   32.9450   31.0520   35.6290 C   0  0  0  0  0  0  0  0  0  0  0  0
   32.7520   30.0630   34.6570 C   0  0  0  0  0  0  0  0  0  0  0  0
   31.6740   29.1980   34.6410 C   0  0  0  0  0  0  0  0  0  0  0  0
   30.7200   29.2960   35.6330 C   0  0  0  0  0  0  0  0  0  0  0  0
   30.8300   30.2400   36.6310 C   0  0  0  0  0  0  0  0  0  0  0  0
   31.9230   31.0480   36.5670 C   0  0  0  0  0  0  0  0  0  0  0  0
   31.5670   28.4500   33.8680 H   0  0  0  0  0  0  0  0  0  0  0  0
   29.8750   28.6180   35.6190 H   0  0  0  0  0  0  0  0  0  0  0  0
   30.1030   30.3460   37.4230 H   0  0  0  0  0  0  0  0  0  0  0  0
   32.0110   31.7980   37.3590 H   0  0  0  0  0  0  0  0  0  0  0  0
   34.2190   32.1280   35.6610 S   0  0  0  0  0  0  0  0  0  0  0  0
   34.6830   31.8140   37.1230 O   0  0  0  0  0  0  0  0  0  0  0  0
   33.6340   33.5150   35.6340 O   0  0  0  0  0  0  0  0  0  0  0  0
   35.7230   32.5460   35.3400 C   0  0  0  0  0  0  0  0  0  0  0  0
   36.3920   32.3080   34.1180 F   0  0  0  0  0  0  0  0  0  0  0  0
   36.6500   31.6250   36.0150 F   0  0  0  0  0  0  0  0  0  0  0  0
   36.3780   33.5900   36.0560 F   0  0  0  0  0  0  0  0  0  0  0  0
   38.7010   27.0530   32.0740 C   0  0  0  0  0  0  0  0  0  0  0  0
   39.0810   26.6470   33.3620 C   0  0  0  0  0  0  0  0  0  0  0  0
   38.2890   27.0610   34.4340 C   0  0  0  0  0  0  0  0  0  0  0  0
   37.2090   27.8290   34.1340 N   0  0  0  0  0  0  0  0  0  0  0  0
   36.8680   28.2040   32.8910 C   0  0  0  0  0  0  0  0  0  0  0  0
   37.6270   27.8060   31.8750 N   0  0  0  0  0  0  0  0  0  0  0  0
   39.3300   26.7220   31.2410 H   0  0  0  0  0  0  0  0  0  0  0  0
   39.9390   26.0470   33.5320 H   0  0  0  0  0  0  0  0  0  0  0  0
   38.5330   26.7300   35.8290 C   0  0  0  0  0  3  0  0  0  0  0  0
   38.2790   25.6630   36.5520 C   0  0  0  0  0  3  0  0  0  0  0  0
   37.7310   24.2950   36.6850 C   0  0  0  0  0  2  0  0  0  0  0  0
   38.5860   23.5900   36.8020 H   0  0  0  0  0  0  0  0  0  0  0  0
  1 30  1  0  0  0  0
  1  6  1  0  0  0  0
  2  1  2  0  0  0  0
  3  2  1  0  0  0  0
  3  4  2  0  0  0  0
  4  5  1  0  0  0  0
  5  6  2  0  0  0  0
  5 10  1  0  0  0  0
  7  2  1  0  0  0  0
  8  3  1  0  0  0  0
  9 19  1  0  0  0  0
  9 14  1  0  0  0  0
 10  9  2  0  0  0  0
 11 10  1  0  0  0  0
 11 12  2  0  0  0  0
 12 13  1  0  0  0  0
 13 17  1  0  0  0  0
 14 13  2  0  0  0  0
 14 18  1  0  0  0  0
 15 11  1  0  0  0  0
 16 12  1  0  0  0  0
 19 20  2  0  0  0  0
 21 19  2  0  0  0  0
 22 19  1  0  0  0  0
 22 24  1  0  0  0  0
 22 25  1  0  0  0  0
 23 22  1  0  0  0  0
 26 27  1  0  0  0  0
 27 33  1  0  0  0  0
 27 28  2  0  0  0  0
 28 34  1  0  0  0  0
 29 28  1  0  0  0  0
 30 29  2  0  0  0  0
 31 26  2  0  0  0  0
 31 30  1  0  0  0  0
 32 26  1  0  0  0  0
 34 35  2  0  0  0  0
 35 36  1  0  0  0  0
 36 37  1  0  0  0  0
M  END
>  <minimizedAffinity>
-5.8726325

$$$$

 OpenBabel03272504293D

 37 39  0  0  0  0  0  0  0  0999 V2000
   38.1310   27.0500   33.0750 C   0  0  0  0  0  0  0  0  0  0  0  0
   39.3790   26.8940   32.5810 C   0  0  0  0  0  0  0  0  0  0  0  0
   40.2330   26.0060   33.0990 C   0  0  0  0  0  0  0  0  0  0  0  0
   39.8250   25.2470   34.1500 N   0  0  0  0  0  0  0  0  0  0  0  0
   38.5990   25.4030   34.6320 C   0  0  0  0  0  0  0  0  0  0  0  0
   37.7420   26.2920   34.1150 N   0  0  0  0  0  0  0  0  0  0  0  0
   39.6670   27.5210   31.7400 H   0  0  0  0  0  0  0  0  0  0  0  0
   41.2230   25.9280   32.6570 H   0  0  0  0  0  0  0  0  0  0  0  0
   37.8890   23.2020   35.4730 C   0  0  0  0  0  0  0  0  0  0  0  0
   38.2650   24.5260   35.7300 C   0  0  0  0  0  0  0  0  0  0  0  0
   38.3170   25.0830   36.9940 C   0  0  0  0  0  0  0  0  0  0  0  0
   37.9810   24.3050   38.0830 C   0  0  0  0  0  0  0  0  0  0  0  0
   37.5980   22.9910   37.9250 C   0  0  0  0  0  0  0  0  0  0  0  0
   37.5760   22.5290   36.6450 C   0  0  0  0  0  0  0  0  0  0  0  0
   38.6160   26.1110   37.1420 H   0  0  0  0  0  0  0  0  0  0  0  0
   38.0230   24.7420   39.0740 H   0  0  0  0  0  0  0  0  0  0  0  0
   37.3280   22.3530   38.7530 H   0  0  0  0  0  0  0  0  0  0  0  0
   37.2710   21.4850   36.5180 H   0  0  0  0  0  0  0  0  0  0  0  0
   37.8420   22.4950   33.9640 S   0  0  0  0  0  0  0  0  0  0  0  0
   36.7290   21.4450   34.2920 O   0  0  0  0  0  0  0  0  0  0  0  0
   39.1450   21.7640   33.7720 O   0  0  0  0  0  0  0  0  0  0  0  0
   37.3630   22.4360   32.4450 C   0  0  0  0  0  0  0  0  0  0  0  0
   37.3540   23.5310   31.5510 F   0  0  0  0  0  0  0  0  0  0  0  0
   35.8940   22.3920   32.3900 F   0  0  0  0  0  0  0  0  0  0  0  0
   37.3410   21.2120   31.7150 F   0  0  0  0  0  0  0  0  0  0  0  0
   36.2220   29.1620   30.7680 C   0  0  0  0  0  0  0  0  0  0  0  0
   35.3240   29.8140   31.6260 C   0  0  0  0  0  0  0  0  0  0  0  0
   35.3930   29.5170   32.9870 C   0  0  0  0  0  0  0  0  0  0  0  0
   36.3340   28.6140   33.3680 N   0  0  0  0  0  0  0  0  0  0  0  0
   37.1810   28.0030   32.5270 C   0  0  0  0  0  0  0  0  0  0  0  0
   37.1100   28.2900   31.2310 N   0  0  0  0  0  0  0  0  0  0  0  0
   36.1590   29.4020   29.7020 H   0  0  0  0  0  0  0  0  0  0  0  0
   34.6090   30.5100   31.2650 H   0  0  0  0  0  0  0  0  0  0  0  0
   34.5440   30.1020   34.0130 C   0  0  0  0  0  3  0  0  0  0  0  0
   34.8000   30.8240   35.0810 C   0  0  0  0  0  3  0  0  0  0  0  0
   35.7590   31.5040   35.9790 C   0  0  0  0  0  2  0  0  0  0  0  0
   35.6400   32.6030   35.8440 H   0  0  0  0  0  0  0  0  0  0  0  0
  1  6  1  0  0  0  0
  2  1  2  0  0  0  0
  2  3  1  0  0  0  0
  3  4  2  0  0  0  0
  4  5  1  0  0  0  0
  5 10  1  0  0  0  0
  6  5  2  0  0  0  0
  7  2  1  0  0  0  0
  8  3  1  0  0  0  0
  9 10  2  0  0  0  0
  9 14  1  0  0  0  0
 10 11  1  0  0  0  0
 11 15  1  0  0  0  0
 11 12  2  0  0  0  0
 12 16  1  0  0  0  0
 13 12  1  0  0  0  0
 13 17  1  0  0  0  0
 14 13  2  0  0  0  0
 18 14  1  0  0  0  0
 19 20  2  0  0  0  0
 19  9  1  0  0  0  0
 21 19  2  0  0  0  0
 22 19  1  0  0  0  0
 23 22  1  0  0  0  0
 24 22  1  0  0  0  0
 25 22  1  0  0  0  0
 26 31  2  0  0  0  0
 26 27  1  0  0  0  0
 27 28  2  0  0  0  0
 28 29  1  0  0  0  0
 28 34  1  0  0  0  0
 30  1  1  0  0  0  0
 30 29  2  0  0  0  0
 31 30  1  0  0  0  0
 32 26  1  0  0  0  0
 33 27  1  0  0  0  0
 34 35  2  0  0  0  0
 35 36  1  0  0  0  0
 37 36  1  0  0  0  0
M  END
>  <minimizedAffinity>
-5.7636199

$$$$
