
 OpenBabel03272509503D

 28 29  0  0  0  0  0  0  0  0999 V2000
   33.7350   28.5950   48.7050 C   0  0  0  0  0  0  0  0  0  0  0  0
   34.2710   29.0110   47.8450 H   0  0  0  0  0  0  0  0  0  0  0  0
   33.1030   29.4210   49.1270 H   0  0  0  0  0  0  0  0  0  0  0  0
   32.8200   27.4670   48.3440 C   0  0  0  0  0  0  0  0  0  0  0  0
   33.0530   27.0910   47.3100 H   0  0  0  0  0  0  0  0  0  0  0  0
   32.9550   26.5910   49.0220 H   0  0  0  0  0  0  0  0  0  0  0  0
   31.3880   27.8630   48.3430 C   0  0  0  0  0  0  0  0  0  0  0  0
   30.7050   27.7390   49.5280 C   0  0  0  0  0  0  0  0  0  0  0  0
   29.3730   28.0730   49.6580 C   0  0  0  0  0  0  0  0  0  0  0  0
   28.7230   28.5340   48.5960 N   0  0  0  0  0  0  0  0  0  0  0  0
   29.3960   28.6590   47.4180 C   0  0  0  0  0  0  0  0  0  0  0  0
   30.6970   28.3350   47.2840 N   0  0  0  0  0  0  0  0  0  0  0  0
   31.1940   27.3680   50.4240 H   0  0  0  0  0  0  0  0  0  0  0  0
   28.8590   27.9680   50.5970 H   0  0  0  0  0  0  0  0  0  0  0  0
   28.9310   29.0280   46.5070 H   0  0  0  0  0  0  0  0  0  0  0  0
   34.6120   28.2140   49.7590 O   0  0  0  0  0  0  0  0  0  0  0  0
   37.2360   30.1520   51.3200 C   0  0  0  0  0  0  0  0  0  0  0  0
   37.9060   30.6170   50.1830 C   0  0  0  0  0  0  0  0  0  0  0  0
   37.4250   30.2440   48.9250 C   0  0  0  0  0  0  0  0  0  0  0  0
   36.3120   29.4350   48.8930 N   0  0  0  0  0  0  0  0  0  0  0  0
   35.6970   29.0070   50.0100 C   0  0  0  0  0  0  0  0  0  0  0  0
   36.1700   29.3750   51.2200 N   0  0  0  0  0  0  0  0  0  0  0  0
   37.6540   30.4730   52.2660 H   0  0  0  0  0  0  0  0  0  0  0  0
   38.7820   31.2550   50.2040 H   0  0  0  0  0  0  0  0  0  0  0  0
   38.0420   30.6700   47.6590 C   0  0  0  0  0  3  0  0  0  0  0  0
   37.3200   31.0670   46.6240 C   0  0  0  0  0  3  0  0  0  0  0  0
   38.0620   31.4750   45.3950 C   0  0  0  0  0  2  0  0  0  0  0  0
   38.9120   30.7860   45.2540 H   0  0  0  0  0  0  0  0  0  0  0  0
  1  3  1  0  0  0  0
  1 16  1  0  0  0  0
  2  1  1  0  0  0  0
  4  1  1  0  0  0  0
  4  6  1  0  0  0  0
  5  4  1  0  0  0  0
  7  4  1  0  0  0  0
  7  8  1  0  0  0  0
  8  9  2  0  0  0  0
  8 13  1  0  0  0  0
  9 14  1  0  0  0  0
 10  9  1  0  0  0  0
 11 10  2  0  0  0  0
 12 11  1  0  0  0  0
 12  7  2  0  0  0  0
 15 11  1  0  0  0  0
 16 21  1  0  0  0  0
 17 23  1  0  0  0  0
 18 24  1  0  0  0  0
 18 17  2  0  0  0  0
 19 18  1  0  0  0  0
 20 19  2  0  0  0  0
 20 21  1  0  0  0  0
 21 22  2  0  0  0  0
 22 17  1  0  0  0  0
 25 19  1  0  0  0  0
 26 25  2  0  0  0  0
 27 26  1  0  0  0  0
 28 27  1  0  0  0  0
M  END
>  <minimizedAffinity>
-5.08477545

>  <minimizedRMSD>
0.0227353685

$$$$
