
 OpenBabel03272509503D

 28 29  0  0  0  0  0  0  0  0999 V2000
   33.7340   28.5940   48.7040 C   0  0  0  0  0  0  0  0  0  0  0  0
   34.2700   29.0110   47.8440 H   0  0  0  0  0  0  0  0  0  0  0  0
   33.1020   29.4210   49.1260 H   0  0  0  0  0  0  0  0  0  0  0  0
   32.8190   27.4670   48.3430 C   0  0  0  0  0  0  0  0  0  0  0  0
   33.0520   27.0910   47.3100 H   0  0  0  0  0  0  0  0  0  0  0  0
   32.9540   26.5910   49.0210 H   0  0  0  0  0  0  0  0  0  0  0  0
   31.3870   27.8630   48.3430 C   0  0  0  0  0  0  0  0  0  0  0  0
   30.7040   27.7390   49.5280 C   0  0  0  0  0  0  0  0  0  0  0  0
   29.3730   28.0730   49.6580 C   0  0  0  0  0  0  0  0  0  0  0  0
   28.7220   28.5350   48.5970 N   0  0  0  0  0  0  0  0  0  0  0  0
   29.3960   28.6600   47.4180 C   0  0  0  0  0  0  0  0  0  0  0  0
   30.6960   28.3360   47.2840 N   0  0  0  0  0  0  0  0  0  0  0  0
   31.1930   27.3670   50.4240 H   0  0  0  0  0  0  0  0  0  0  0  0
   28.8580   27.9680   50.5970 H   0  0  0  0  0  0  0  0  0  0  0  0
   28.9300   29.0290   46.5080 H   0  0  0  0  0  0  0  0  0  0  0  0
   34.6110   28.2130   49.7580 O   0  0  0  0  0  0  0  0  0  0  0  0
   37.2350   30.1520   51.3200 C   0  0  0  0  0  0  0  0  0  0  0  0
   37.9050   30.6170   50.1830 C   0  0  0  0  0  0  0  0  0  0  0  0
   37.4240   30.2440   48.9250 C   0  0  0  0  0  0  0  0  0  0  0  0
   36.3110   29.4350   48.8930 N   0  0  0  0  0  0  0  0  0  0  0  0
   35.6960   29.0070   50.0090 C   0  0  0  0  0  0  0  0  0  0  0  0
   36.1690   29.3740   51.2200 N   0  0  0  0  0  0  0  0  0  0  0  0
   37.6530   30.4730   52.2660 H   0  0  0  0  0  0  0  0  0  0  0  0
   38.7810   31.2550   50.2040 H   0  0  0  0  0  0  0  0  0  0  0  0
   38.0420   30.6710   47.6600 C   0  0  0  0  0  3  0  0  0  0  0  0
   37.3200   31.0650   46.6240 C   0  0  0  0  0  3  0  0  0  0  0  0
   38.0620   31.4740   45.3950 C   0  0  0  0  0  2  0  0  0  0  0  0
   38.9130   30.7860   45.2550 H   0  0  0  0  0  0  0  0  0  0  0  0
  1  3  1  0  0  0  0
  1 16  1  0  0  0  0
  2  1  1  0  0  0  0
  4  7  1  0  0  0  0
  4  1  1  0  0  0  0
  4  6  1  0  0  0  0
  5  4  1  0  0  0  0
  7  8  1  0  0  0  0
  8  9  2  0  0  0  0
  8 13  1  0  0  0  0
  9 14  1  0  0  0  0
 10  9  1  0  0  0  0
 11 10  2  0  0  0  0
 12 11  1  0  0  0  0
 12  7  2  0  0  0  0
 15 11  1  0  0  0  0
 16 21  1  0  0  0  0
 17 23  1  0  0  0  0
 18 24  1  0  0  0  0
 18 17  2  0  0  0  0
 19 18  1  0  0  0  0
 20 19  2  0  0  0  0
 20 21  1  0  0  0  0
 21 22  2  0  0  0  0
 22 17  1  0  0  0  0
 25 19  1  0  0  0  0
 26 25  2  0  0  0  0
 27 26  1  0  0  0  0
 28 27  1  0  0  0  0
M  END
>  <minimizedAffinity>
-5.0847621

>  <minimizedRMSD>
0.189087763

$$$$
