
 OpenBabel03272505353D

 32 33  0  0  1  0  0  0  0  0999 V2000
   37.5670   30.7860   49.4700 C   0  0  0  0  0  0  0  0  0  0  0  0
   37.3190   32.1320   49.7390 C   0  0  0  0  0  0  0  0  0  0  0  0
   37.7090   33.0640   48.7580 C   0  0  0  0  0  0  0  0  0  0  0  0
   38.3000   32.5960   47.6120 N   0  0  0  0  0  0  0  0  0  0  0  0
   38.5090   31.3000   47.4140 C   0  0  0  0  0  0  0  0  0  0  0  0
   38.1470   30.3860   48.3330 N   0  0  0  0  0  0  0  0  0  0  0  0
   39.1330   30.9080   46.1870 N   0  0  0  0  0  0  0  0  0  0  0  0
   40.5660   30.7890   46.1150 C   0  0  0  0  0  0  0  0  0  0  0  0
   41.1060   31.4050   44.8460 C   0  0  0  0  0  0  0  0  0  0  0  0
   40.3810   30.9780   43.6970 N   0  0  0  0  0  0  0  0  0  0  0  0
   39.2930   30.0620   43.9400 C   0  0  0  0  0  0  0  0  0  0  0  0
   38.3610   30.6250   45.0080 C   0  0  2  0  0  0  0  0  0  0  0  0
   36.8490   32.4640   50.6580 H   0  0  0  0  0  0  0  0  0  0  0  0
   37.5400   34.1220   48.9170 H   0  0  0  0  0  0  0  0  0  0  0  0
   41.0740   31.2320   46.9950 H   0  0  0  0  0  0  0  0  0  0  0  0
   40.8260   29.7010   46.0760 H   0  0  0  0  0  0  0  0  0  0  0  0
   42.1660   31.0430   44.7250 H   0  0  0  0  0  0  0  0  0  0  0  0
   41.1910   32.5050   44.9750 H   0  0  0  0  0  0  0  0  0  0  0  0
   40.1350   31.7440   43.0520 H   0  0  0  0  0  0  0  0  0  0  0  0
   39.6280   29.0810   44.2720 H   0  0  0  0  0  0  0  0  0  0  0  0
   38.6870   30.0230   43.0090 H   0  0  0  0  0  0  0  0  0  0  0  0
   37.6660   29.7800   45.2880 H   0  0  0  0  0  0  0  0  0  0  0  0
   37.1600   29.7730   50.5010 C   0  0  0  0  0  0  0  0  0  0  0  0
   35.8430   29.3730   50.2770 F   0  0  0  0  0  0  0  0  0  0  0  0
   38.0550   28.7670   50.4830 F   0  0  0  0  0  0  0  0  0  0  0  0
   37.1340   30.4490   51.7370 F   0  0  0  0  0  0  0  0  0  0  0  0
   37.5800   31.7520   44.4970 C   0  0  0  0  0  0  0  0  0  0  0  0
   38.0960   32.8790   44.3610 O   0  0  0  0  0  0  0  0  0  0  0  0
   36.2650   32.1500   44.0120 C   0  0  0  0  0  2  0  0  0  0  0  0
   36.3030   32.7360   42.8450 C   0  0  0  0  0  2  0  0  0  0  0  0
   35.0710   33.2020   42.2010 C   0  0  0  0  0  2  0  0  0  0  0  0
   35.1460   34.3240   42.1040 H   0  0  0  0  0  0  0  0  0  0  0  0
  1  2  1  0  0  0  0
  1 23  1  0  0  0  0
  2 13  1  0  0  0  0
  3 14  1  0  0  0  0
  3  2  2  0  0  0  0
  4  3  1  0  0  0  0
  5  4  2  0  0  0  0
  5  6  1  0  0  0  0
  6  1  2  0  0  0  0
  7  5  1  0  0  0  0
  8  7  1  0  0  0  0
  8 15  1  0  0  0  0
  9 18  1  0  0  0  0
  9  8  1  0  0  0  0
 10 11  1  0  0  0  0
 10  9  1  0  0  0  0
 11 20  1  0  0  0  0
 11 12  1  0  0  0  0
 12 22  1  1  0  0  0
 12  7  1  0  0  0  0
 16  8  1  0  0  0  0
 17  9  1  0  0  0  0
 19 10  1  0  0  0  0
 21 11  1  0  0  0  0
 23 26  1  0  0  0  0
 24 23  1  0  0  0  0
 25 23  1  0  0  0  0
 27 12  1  0  0  0  0
 28 27  2  0  0  0  0
 29 27  1  0  0  0  0
 30 29  1  0  0  0  0
 31 30  1  0  0  0  0
 32 31  1  0  0  0  0
M  END
>  <minimizedAffinity>
-4.89796495

>  <minimizedRMSD>
0.946876049

$$$$
