
 OpenBabel03272509503D

 28 29  0  0  0  0  0  0  0  0999 V2000
   33.9720   28.5470   48.5540 C   0  0  0  0  0  0  0  0  0  0  0  0
   34.6040   28.8630   47.7160 H   0  0  0  0  0  0  0  0  0  0  0  0
   33.3370   29.4290   48.8350 H   0  0  0  0  0  0  0  0  0  0  0  0
   33.0520   27.4190   48.2080 C   0  0  0  0  0  0  0  0  0  0  0  0
   33.3350   26.9740   47.2150 H   0  0  0  0  0  0  0  0  0  0  0  0
   33.1250   26.5850   48.9450 H   0  0  0  0  0  0  0  0  0  0  0  0
   31.6330   27.8460   48.0970 C   0  0  0  0  0  0  0  0  0  0  0  0
   30.8240   27.6110   49.1810 C   0  0  0  0  0  0  0  0  0  0  0  0
   29.4900   27.9600   49.2040 C   0  0  0  0  0  0  0  0  0  0  0  0
   28.9640   28.5480   48.1350 N   0  0  0  0  0  0  0  0  0  0  0  0
   29.7630   28.7830   47.0570 C   0  0  0  0  0  0  0  0  0  0  0  0
   31.0670   28.4450   47.0280 N   0  0  0  0  0  0  0  0  0  0  0  0
   31.2080   27.1340   50.0790 H   0  0  0  0  0  0  0  0  0  0  0  0
   28.8750   27.7660   50.0650 H   0  0  0  0  0  0  0  0  0  0  0  0
   29.4040   29.2580   46.1480 H   0  0  0  0  0  0  0  0  0  0  0  0
   34.7290   28.2400   49.7190 O   0  0  0  0  0  0  0  0  0  0  0  0
   37.2610   30.1750   51.4300 C   0  0  0  0  0  0  0  0  0  0  0  0
   37.9410   30.7140   50.3320 C   0  0  0  0  0  0  0  0  0  0  0  0
   37.4970   30.3890   49.0460 C   0  0  0  0  0  0  0  0  0  0  0  0
   36.4100   29.5500   48.9510 N   0  0  0  0  0  0  0  0  0  0  0  0
   35.7850   29.0510   50.0320 C   0  0  0  0  0  0  0  0  0  0  0  0
   36.2220   29.3720   51.2680 N   0  0  0  0  0  0  0  0  0  0  0  0
   37.6500   30.4610   52.3990 H   0  0  0  0  0  0  0  0  0  0  0  0
   38.7960   31.3750   50.4030 H   0  0  0  0  0  0  0  0  0  0  0  0
   38.1280   30.8940   47.8170 C   0  0  0  0  0  3  0  0  0  0  0  0
   38.8000   32.0330   47.7900 C   0  0  0  0  0  3  0  0  0  0  0  0
   39.3950   32.4400   46.4830 C   0  0  0  0  0  2  0  0  0  0  0  0
   38.6800   32.1920   45.6800 H   0  0  0  0  0  0  0  0  0  0  0  0
  1  3  1  0  0  0  0
  1 16  1  0  0  0  0
  2  1  1  0  0  0  0
  4  1  1  0  0  0  0
  4  6  1  0  0  0  0
  5  4  1  0  0  0  0
  7  4  1  0  0  0  0
  7  8  1  0  0  0  0
  8  9  2  0  0  0  0
  8 13  1  0  0  0  0
  9 14  1  0  0  0  0
 10  9  1  0  0  0  0
 11 10  2  0  0  0  0
 12 11  1  0  0  0  0
 12  7  2  0  0  0  0
 15 11  1  0  0  0  0
 16 21  1  0  0  0  0
 17 23  1  0  0  0  0
 18 24  1  0  0  0  0
 18 17  2  0  0  0  0
 19 18  1  0  0  0  0
 20 19  2  0  0  0  0
 20 21  1  0  0  0  0
 21 22  2  0  0  0  0
 22 17  1  0  0  0  0
 25 19  1  0  0  0  0
 26 25  2  0  0  0  0
 27 26  1  0  0  0  0
 28 27  1  0  0  0  0
M  END
>  <minimizedAffinity>
-5.27538061

>  <minimizedRMSD>
0.412555665

$$$$
