
 OpenBabel03272506533D

 39 41  0  0  1  0  0  0  0  0999 V2000
   34.4260   30.0750   48.2660 C   0  0  1  0  0  0  0  0  0  0  0  0
   33.5910   30.1710   47.0940 C   0  0  0  0  0  0  0  0  0  0  0  0
   33.5360   28.9460   46.2070 C   0  0  0  0  0  0  0  0  0  0  0  0
   33.4710   27.6530   46.8740 C   0  0  2  0  0  0  0  0  0  0  0  0
   34.2830   27.5110   48.1540 C   0  0  0  0  0  0  0  0  0  0  0  0
   34.2080   28.7690   48.9840 C   0  0  0  0  0  0  0  0  0  0  0  0
   34.0580   30.8420   49.0240 H   0  0  0  0  0  0  0  0  0  0  0  0
   32.5180   30.2900   47.4310 H   0  0  0  0  0  0  0  0  0  0  0  0
   33.7430   31.0220   46.4260 H   0  0  0  0  0  0  0  0  0  0  0  0
   34.5750   28.9910   45.7310 H   0  0  0  0  0  0  0  0  0  0  0  0
   32.7530   29.0630   45.4560 H   0  0  0  0  0  0  0  0  0  0  0  0
   32.4570   27.3240   47.1710 H   0  0  0  0  0  0  0  0  0  0  0  0
   33.7840   26.8230   48.8350 H   0  0  0  0  0  0  0  0  0  0  0  0
   35.3360   27.3110   47.9430 H   0  0  0  0  0  0  0  0  0  0  0  0
   35.0030   28.6880   49.7550 H   0  0  0  0  0  0  0  0  0  0  0  0
   33.2470   28.8550   49.5740 H   0  0  0  0  0  0  0  0  0  0  0  0
   33.9990   26.6330   45.9300 C   0  0  0  0  0  0  0  0  0  0  0  0
   34.4380   27.0560   44.6830 C   0  0  0  0  0  0  0  0  0  0  0  0
   34.9200   26.1650   43.7440 C   0  0  0  0  0  0  0  0  0  0  0  0
   34.9620   24.8430   44.0620 C   0  0  0  0  0  0  0  0  0  0  0  0
   34.5260   24.4060   45.2970 C   0  0  0  0  0  0  0  0  0  0  0  0
   34.0390   25.3170   46.2280 C   0  0  0  0  0  0  0  0  0  0  0  0
   34.4600   28.0440   44.2500 H   0  0  0  0  0  0  0  0  0  0  0  0
   35.2780   26.4370   42.7530 H   0  0  0  0  0  0  0  0  0  0  0  0
   35.3490   24.1220   43.3190 H   0  0  0  0  0  0  0  0  0  0  0  0
   34.6060   23.3350   45.4120 H   0  0  0  0  0  0  0  0  0  0  0  0
   33.4630   24.7040   47.3690 C   0  0  0  0  0  3  0  0  0  0  0  0
   32.5580   23.7930   47.6460 C   0  0  0  0  0  3  0  0  0  0  0  0
   31.6980   22.9640   46.7650 C   0  0  0  0  0  2  0  0  0  0  0  0
   30.8240   23.4910   46.3620 H   0  0  0  0  0  0  0  0  0  0  0  0
   36.4630   30.6300   46.9330 C   0  0  0  0  0  0  0  0  0  0  0  0
   35.8480   30.4290   48.1560 C   0  0  0  0  0  0  0  0  0  0  0  0
   36.6360   30.5830   49.3040 C   0  0  0  0  0  0  0  0  0  0  0  0
   37.9490   30.9170   49.1640 N   0  0  0  0  0  0  0  0  0  0  0  0
   38.5070   31.1020   47.9410 C   0  0  0  0  0  0  0  0  0  0  0  0
   37.7520   30.9560   46.8170 N   0  0  0  0  0  0  0  0  0  0  0  0
   36.0250   30.5760   45.9540 H   0  0  0  0  0  0  0  0  0  0  0  0
   36.2030   30.4390   50.2800 H   0  0  0  0  0  0  0  0  0  0  0  0
   39.5520   31.3630   47.9430 H   0  0  0  0  0  0  0  0  0  0  0  0
  1  6  1  0  0  0  0
  1  7  1  1  0  0  0
  2  8  1  0  0  0  0
  2  1  1  0  0  0  0
  3  4  1  0  0  0  0
  3  2  1  0  0  0  0
  4 12  1  1  0  0  0
  4  5  1  0  0  0  0
  5 13  1  0  0  0  0
  5  6  1  0  0  0  0
  6 16  1  0  0  0  0
  6 15  1  0  0  0  0
  9  2  1  0  0  0  0
 10  3  1  0  0  0  0
 11  3  1  0  0  0  0
 14  5  1  0  0  0  0
 17 22  1  0  0  0  0
 17  4  1  0  0  0  0
 18 17  2  0  0  0  0
 19 20  2  0  0  0  0
 19 18  1  0  0  0  0
 20 21  1  0  0  0  0
 21 26  1  0  0  0  0
 21 22  2  0  0  0  0
 22 27  1  0  0  0  0
 23 18  1  0  0  0  0
 24 19  1  0  0  0  0
 25 20  1  0  0  0  0
 27 28  2  0  0  0  0
 29 28  1  0  0  0  0
 30 29  1  0  0  0  0
 31 32  1  0  0  0  0
 32  1  1  0  0  0  0
 32 33  2  0  0  0  0
 33 38  1  0  0  0  0
 34 33  1  0  0  0  0
 35 39  1  0  0  0  0
 35 34  2  0  0  0  0
 36 31  2  0  0  0  0
 36 35  1  0  0  0  0
 37 31  1  0  0  0  0
M  END
>  <minimizedAffinity>
-4.50816679

>  <minimizedRMSD>
1.07981682

$$$$
