
 OpenBabel03272505543D

 29 30  0  0  1  0  0  0  0  0999 V2000
   35.4980   30.2280   49.8760 C   0  0  2  0  0  0  0  0  0  0  0  0
   36.2740   31.3070   49.1470 C   0  0  0  0  0  0  0  0  0  0  0  0
   37.7560   31.0830   49.1760 C   0  0  2  0  0  0  0  0  0  0  0  0
   38.3030   30.8920   50.5680 C   0  0  0  0  0  0  0  0  0  0  0  0
   37.4160   30.0610   51.4450 C   0  0  0  0  0  0  0  0  0  0  0  0
   36.3750   29.3010   50.6460 C   0  0  0  0  0  0  0  0  0  0  0  0
   34.7750   30.7280   50.5440 H   0  0  0  0  0  0  0  0  0  0  0  0
   35.9600   31.3170   48.1020 H   0  0  0  0  0  0  0  0  0  0  0  0
   36.0870   32.2980   49.5950 H   0  0  0  0  0  0  0  0  0  0  0  0
   37.9690   30.2000   48.5440 H   0  0  0  0  0  0  0  0  0  0  0  0
   39.2470   30.2930   50.4370 H   0  0  0  0  0  0  0  0  0  0  0  0
   38.6260   31.8450   51.0260 H   0  0  0  0  0  0  0  0  0  0  0  0
   37.9480   29.3810   52.1230 H   0  0  0  0  0  0  0  0  0  0  0  0
   36.8190   30.7980   52.0580 H   0  0  0  0  0  0  0  0  0  0  0  0
   36.9420   28.6120   49.9810 H   0  0  0  0  0  0  0  0  0  0  0  0
   35.8030   28.7030   51.3640 H   0  0  0  0  0  0  0  0  0  0  0  0
   34.7180   29.4170   48.8950 C   0  0  0  0  0  0  0  0  0  0  0  0
   34.3730   30.0580   47.6920 C   0  0  0  0  0  0  0  0  0  0  0  0
   33.6340   29.3120   46.7730 C   0  0  0  0  0  0  0  0  0  0  0  0
   33.2880   28.0140   47.0890 N   0  0  0  0  0  0  0  0  0  0  0  0
   33.6420   27.4390   48.2590 C   0  0  0  0  0  0  0  0  0  0  0  0
   34.3550   28.1560   49.1450 N   0  0  0  0  0  0  0  0  0  0  0  0
   34.6110   31.0550   47.3990 H   0  0  0  0  0  0  0  0  0  0  0  0
   33.3350   29.7470   45.8260 H   0  0  0  0  0  0  0  0  0  0  0  0
   33.3210   26.4180   48.4070 H   0  0  0  0  0  0  0  0  0  0  0  0
   38.3880   32.3330   48.6620 C   0  0  0  0  0  3  0  0  0  0  0  0
   38.9950   32.4450   47.4960 C   0  0  0  0  0  3  0  0  0  0  0  0
   39.0590   31.2450   46.6260 C   0  0  0  0  0  2  0  0  0  0  0  0
   38.0300   30.8360   46.5210 H   0  0  0  0  0  0  0  0  0  0  0  0
  1  7  1  1  0  0  0
  1  6  1  0  0  0  0
  2  3  1  0  0  0  0
  2  9  1  0  0  0  0
  2  1  1  0  0  0  0
  3 10  1  6  0  0  0
  3  4  1  0  0  0  0
  4 12  1  0  0  0  0
  4  5  1  0  0  0  0
  5 14  1  0  0  0  0
  5 13  1  0  0  0  0
  6 16  1  0  0  0  0
  6  5  1  0  0  0  0
  8  2  1  0  0  0  0
 11  4  1  0  0  0  0
 15  6  1  0  0  0  0
 17 22  1  0  0  0  0
 17  1  1  0  0  0  0
 18 17  2  0  0  0  0
 19 20  2  0  0  0  0
 19 18  1  0  0  0  0
 20 21  1  0  0  0  0
 21 25  1  0  0  0  0
 21 22  2  0  0  0  0
 23 18  1  0  0  0  0
 24 19  1  0  0  0  0
 26  3  1  0  0  0  0
 27 26  2  0  0  0  0
 28 27  1  0  0  0  0
 29 28  1  0  0  0  0
M  END
>  <minimizedAffinity>
-5.80551243

>  <minimizedRMSD>
0.346878409

$$$$
