
 OpenBabel03272500583D

 30 31  0  0  0  0  0  0  0  0999 V2000
   38.1910   31.8700   47.4310 C   0  0  0  0  0  0  0  0  0  0  0  0
   38.7980   32.6840   48.3480 C   0  0  0  0  0  0  0  0  0  0  0  0
   38.3790   32.7490   49.6820 C   0  0  0  0  0  0  0  0  0  0  0  0
   37.2610   31.9080   50.0650 C   0  0  0  0  0  0  0  0  0  0  0  0
   36.7070   31.1260   49.1090 C   0  0  0  0  0  0  0  0  0  0  0  0
   37.1150   31.0720   47.8300 C   0  0  0  0  0  0  0  0  0  0  0  0
   39.6490   33.3300   48.0770 H   0  0  0  0  0  0  0  0  0  0  0  0
   38.9090   33.4200   50.3570 H   0  0  0  0  0  0  0  0  0  0  0  0
   37.0620   32.0660   51.0960 H   0  0  0  0  0  0  0  0  0  0  0  0
   35.9300   30.5820   49.6230 H   0  0  0  0  0  0  0  0  0  0  0  0
   39.9870   31.2410   45.9050 C   0  0  0  0  0  0  0  0  0  0  0  0
   38.7530   31.8980   46.0980 C   0  0  0  0  0  0  0  0  0  0  0  0
   38.2320   32.4860   44.9720 C   0  0  0  0  0  0  0  0  0  0  0  0
   38.8860   32.4130   43.7970 N   0  0  0  0  0  0  0  0  0  0  0  0
   40.0330   31.7980   43.6370 C   0  0  0  0  0  0  0  0  0  0  0  0
   40.5820   31.2130   44.6900 N   0  0  0  0  0  0  0  0  0  0  0  0
   40.4740   30.7490   46.7380 H   0  0  0  0  0  0  0  0  0  0  0  0
   37.2740   32.9960   45.1220 H   0  0  0  0  0  0  0  0  0  0  0  0
   40.5390   31.7540   42.6820 H   0  0  0  0  0  0  0  0  0  0  0  0
   35.0840   30.0680   47.1990 C   0  0  0  0  0  0  0  0  0  0  0  0
   34.5990   30.5930   48.2790 O   0  0  0  0  0  0  0  0  0  0  0  0
   36.4900   30.2740   46.9060 N   0  0  0  0  0  0  0  0  0  0  0  0
   36.9540   29.8610   46.0950 H   0  0  0  0  0  0  0  0  0  0  0  0
   34.2590   29.3420   46.3850 O   0  0  0  0  0  0  0  0  0  0  0  0
   32.8720   29.4280   46.3750 C   0  0  0  0  0  0  0  0  0  0  0  0
   32.2480   30.5170   45.9770 O   0  0  0  0  0  0  0  0  0  0  0  0
   32.0210   28.2880   46.7910 C   0  0  0  0  0  3  0  0  0  0  0  0
   31.9820   27.8310   48.0180 C   0  0  0  0  0  3  0  0  0  0  0  0
   31.1470   26.6930   48.4860 C   0  0  0  0  0  2  0  0  0  0  0  0
   30.5730   26.2060   47.6850 H   0  0  0  0  0  0  0  0  0  0  0  0
  1  6  2  0  0  0  0
  1  2  1  0  0  0  0
  2  3  2  0  0  0  0
  3  4  1  0  0  0  0
  3  8  1  0  0  0  0
  4  9  1  0  0  0  0
  5 10  1  0  0  0  0
  5  4  2  0  0  0  0
  6  5  1  0  0  0  0
  7  2  1  0  0  0  0
 11 12  1  0  0  0  0
 11 17  1  0  0  0  0
 12  1  1  0  0  0  0
 13 18  1  0  0  0  0
 13 12  2  0  0  0  0
 14 13  1  0  0  0  0
 15 14  2  0  0  0  0
 15 16  1  0  0  0  0
 16 11  2  0  0  0  0
 19 15  1  0  0  0  0
 20 21  2  0  0  0  0
 22 20  1  0  0  0  0
 22  6  1  0  0  0  0
 23 22  1  0  0  0  0
 24 20  1  0  0  0  0
 25 24  1  0  0  0  0
 25 27  1  0  0  0  0
 26 25  2  0  0  0  0
 27 28  2  0  0  0  0
 28 29  1  0  0  0  0
 30 29  1  0  0  0  0
M  END
>  <minimizedAffinity>
-5.60385847

>  <minimizedRMSD>
1.21585929

$$$$
