
 OpenBabel03272509113D

 23 24  0  0  0  0  0  0  0  0999 V2000
   36.5590   31.4970   49.8290 C   0  0  0  0  0  3  0  0  0  0  0  0
   37.4660   31.8880   48.8130 C   0  0  0  0  0  0  0  0  0  0  0  0
   37.5050   31.1790   47.6440 C   0  0  0  0  0  0  0  0  0  0  0  0
   36.6590   30.1350   47.5510 N   0  0  0  0  0  0  0  0  0  0  0  0
   35.8020   29.7690   48.5230 C   0  0  0  0  0  0  0  0  0  0  0  0
   35.7530   30.4430   49.6470 N   0  0  0  0  0  0  0  0  0  0  0  0
   36.4380   31.9800   50.7860 H   0  0  0  0  0  0  0  0  0  0  0  0
   35.2020   28.9270   48.3080 H   0  0  0  0  0  0  0  0  0  0  0  0
   38.3760   31.4790   46.5230 C   0  0  0  0  0  0  0  0  0  0  0  0
   37.8070   32.2160   45.4890 C   0  0  0  0  0  0  0  0  0  0  0  0
   38.5460   32.6020   44.3850 C   0  0  0  0  0  0  0  0  0  0  0  0
   39.8790   32.2060   44.3710 C   0  0  0  0  0  0  0  0  0  0  0  0
   40.5010   31.4600   45.3840 C   0  0  0  0  0  0  0  0  0  0  0  0
   39.7040   31.0990   46.4800 C   0  0  0  0  0  0  0  0  0  0  0  0
   36.7970   32.5600   45.3390 H   0  0  0  0  0  0  0  0  0  0  0  0
   38.2300   33.1650   43.5370 H   0  0  0  0  0  0  0  0  0  0  0  0
   40.5670   32.4540   43.5440 H   0  0  0  0  0  0  0  0  0  0  0  0
   41.5350   31.1760   45.3270 H   0  0  0  0  0  0  0  0  0  0  0  0
   40.0990   30.5280   47.2990 H   0  0  0  0  0  0  0  0  0  0  0  0
   38.3760   32.9350   49.0690 C   0  0  0  0  0  0  0  0  0  0  0  0
   39.2180   33.8890   49.1940 C   0  0  0  0  0  3  0  0  0  0  0  0
   40.1700   34.8760   48.6650 C   0  0  0  0  0  2  0  0  0  0  0  0
   41.1900   34.6650   49.0440 H   0  0  0  0  0  0  0  0  0  0  0  0
  1  7  1  0  0  0  0
  2 20  2  0  0  0  0
  2  1  1  0  0  0  0
  3  2  1  0  0  0  0
  4  3  2  0  0  0  0
  4  5  1  0  0  0  0
  5  6  2  0  0  0  0
  6  1  1  0  0  0  0
  8  5  1  0  0  0  0
  9  3  1  0  0  0  0
 10  9  2  0  0  0  0
 11 10  1  0  0  0  0
 12 11  2  0  0  0  0
 12 13  1  0  0  0  0
 13 14  2  0  0  0  0
 14  9  1  0  0  0  0
 14 19  1  0  0  0  0
 15 10  1  0  0  0  0
 16 11  1  0  0  0  0
 17 12  1  0  0  0  0
 18 13  1  0  0  0  0
 20 21  2  0  0  0  0
 22 23  1  0  0  0  0
 22 21  1  0  0  0  0
M  END
>  <minimizedAffinity>
-5.13614798

>  <minimizedRMSD>
2.16639185

$$$$
