
 OpenBabel03272507203D

 25 26  0  0  1  0  0  0  0  0999 V2000
   39.2250   22.9800   34.8400 C   0  0  1  0  0  0  0  0  0  0  0  0
   38.4350   22.3400   35.8900 C   0  0  2  0  0  0  0  0  0  0  0  0
   37.8220   22.4140   34.5270 C   0  0  0  0  0  0  0  0  0  0  0  0
   40.0520   22.4410   34.3110 H   0  0  0  0  0  0  0  0  0  0  0  0
   38.9290   21.3990   36.2780 H   0  0  0  0  0  0  0  0  0  0  0  0
   37.7810   21.4810   33.9330 H   0  0  0  0  0  0  0  0  0  0  0  0
   36.9910   23.1030   34.3750 H   0  0  0  0  0  0  0  0  0  0  0  0
   39.2750   24.4680   34.6810 C   0  0  0  0  0  0  0  0  0  0  0  0
   40.4950   25.0820   34.9520 C   0  0  0  0  0  0  0  0  0  0  0  0
   40.4940   26.4670   34.8130 C   0  0  0  0  0  0  0  0  0  0  0  0
   39.3570   27.1430   34.4370 N   0  0  0  0  0  0  0  0  0  0  0  0
   38.1950   26.5040   34.1850 C   0  0  0  0  0  0  0  0  0  0  0  0
   38.1550   25.1400   34.3110 N   0  0  0  0  0  0  0  0  0  0  0  0
   41.3620   24.5380   35.2420 H   0  0  0  0  0  0  0  0  0  0  0  0
   41.3910   27.0420   35.0000 H   0  0  0  0  0  0  0  0  0  0  0  0
   36.9950   27.2300   33.7880 C   0  0  0  0  0  3  0  0  0  0  0  0
   36.6290   28.2910   34.4870 C   0  0  0  0  0  3  0  0  0  0  0  0
   35.4030   29.0630   34.1110 C   0  0  0  0  0  2  0  0  0  0  0  0
   35.4000   30.0450   34.6110 H   0  0  0  0  0  0  0  0  0  0  0  0
   37.9320   23.1570   36.8930 O   0  0  0  0  0  0  0  0  0  0  0  0
   38.4710   23.4980   38.0900 C   0  0  0  0  0  0  0  0  0  0  0  0
   38.0570   24.4680   38.7580 O   0  0  0  0  0  0  0  0  0  0  0  0
   39.5010   22.6000   38.3800 N   0  0  0  0  0  0  0  0  0  0  0  0
   39.6210   21.6510   38.7910 H   0  0  0  0  0  0  0  0  0  0  0  0
   40.4700   22.8930   38.1450 H   0  0  0  0  0  0  0  0  0  0  0  0
  1  4  1  6  0  0  0
  1  2  1  0  0  0  0
  2  5  1  1  0  0  0
  2 20  1  0  0  0  0
  3  1  1  0  0  0  0
  3  2  1  0  0  0  0
  6  3  1  0  0  0  0
  7  3  1  0  0  0  0
  8  1  1  0  0  0  0
  8  9  1  0  0  0  0
  9 14  1  0  0  0  0
 10  9  2  0  0  0  0
 10 15  1  0  0  0  0
 11 10  1  0  0  0  0
 12 13  1  0  0  0  0
 12 11  2  0  0  0  0
 13  8  2  0  0  0  0
 16 12  1  0  0  0  0
 16 17  2  0  0  0  0
 18 17  1  0  0  0  0
 18 19  1  0  0  0  0
 20 21  1  0  0  0  0
 21 23  1  0  0  0  0
 21 22  2  0  0  0  0
 23 24  1  0  0  0  0
 25 23  1  0  0  0  0
M  END
>  <minimizedAffinity>
-4.50654078

$$$$

 OpenBabel03272507203D

 25 26  0  0  1  0  0  0  0  0999 V2000
   39.4640   23.2270   34.9250 C   0  0  1  0  0  0  0  0  0  0  0  0
   38.8930   22.7390   36.1800 C   0  0  2  0  0  0  0  0  0  0  0  0
   38.2300   22.2960   34.9140 C   0  0  0  0  0  0  0  0  0  0  0  0
   40.3760   22.7630   34.4720 H   0  0  0  0  0  0  0  0  0  0  0  0
   39.6160   22.0770   36.7450 H   0  0  0  0  0  0  0  0  0  0  0  0
   38.3970   21.2510   34.5880 H   0  0  0  0  0  0  0  0  0  0  0  0
   37.2510   22.7110   34.6740 H   0  0  0  0  0  0  0  0  0  0  0  0
   39.1420   24.5850   34.3840 C   0  0  0  0  0  0  0  0  0  0  0  0
   39.9890   25.6230   34.7660 C   0  0  0  0  0  0  0  0  0  0  0  0
   39.6440   26.8730   34.2590 C   0  0  0  0  0  0  0  0  0  0  0  0
   38.5460   27.0330   33.4480 N   0  0  0  0  0  0  0  0  0  0  0  0
   37.7530   25.9960   33.1050 C   0  0  0  0  0  0  0  0  0  0  0  0
   38.0580   24.7490   33.5840 N   0  0  0  0  0  0  0  0  0  0  0  0
   40.8340   25.4760   35.3950 H   0  0  0  0  0  0  0  0  0  0  0  0
   40.2360   27.7470   34.4940 H   0  0  0  0  0  0  0  0  0  0  0  0
   36.5890   26.1760   32.2450 C   0  0  0  0  0  3  0  0  0  0  0  0
   36.0480   25.1160   31.6700 C   0  0  0  0  0  3  0  0  0  0  0  0
   34.8540   25.2610   30.7800 C   0  0  0  0  0  2  0  0  0  0  0  0
   34.3790   24.2790   30.6130 H   0  0  0  0  0  0  0  0  0  0  0  0
   38.2430   23.6660   36.9840 O   0  0  0  0  0  0  0  0  0  0  0  0
   38.2890   23.8340   38.3290 C   0  0  0  0  0  0  0  0  0  0  0  0
   37.8760   24.8720   38.8870 O   0  0  0  0  0  0  0  0  0  0  0  0
   38.8530   22.6900   38.8960 N   0  0  0  0  0  0  0  0  0  0  0  0
   38.5590   21.7380   39.2000 H   0  0  0  0  0  0  0  0  0  0  0  0
   39.8700   22.7150   39.1120 H   0  0  0  0  0  0  0  0  0  0  0  0
  1  4  1  6  0  0  0
  1  2  1  0  0  0  0
  2  5  1  1  0  0  0
  2 20  1  0  0  0  0
  3  1  1  0  0  0  0
  3  2  1  0  0  0  0
  6  3  1  0  0  0  0
  7  3  1  0  0  0  0
  8  9  1  0  0  0  0
  8  1  1  0  0  0  0
  9 14  1  0  0  0  0
 10 15  1  0  0  0  0
 10  9  2  0  0  0  0
 11 10  1  0  0  0  0
 12 11  2  0  0  0  0
 12 13  1  0  0  0  0
 13  8  2  0  0  0  0
 16 12  1  0  0  0  0
 17 16  2  0  0  0  0
 18 17  1  0  0  0  0
 19 18  1  0  0  0  0
 20 21  1  0  0  0  0
 21 22  2  0  0  0  0
 21 23  1  0  0  0  0
 23 25  1  0  0  0  0
 23 24  1  0  0  0  0
M  END
>  <minimizedAffinity>
-4.48959398

$$$$

 OpenBabel03272507203D

 25 26  0  0  1  0  0  0  0  0999 V2000
   38.1200   27.5330   34.9500 C   0  0  1  0  0  0  0  0  0  0  0  0
   38.3360   26.6820   36.1190 C   0  0  2  0  0  0  0  0  0  0  0  0
   39.4580   26.7830   35.1340 C   0  0  0  0  0  0  0  0  0  0  0  0
   38.2230   28.6470   35.0030 H   0  0  0  0  0  0  0  0  0  0  0  0
   38.3250   27.2740   37.0830 H   0  0  0  0  0  0  0  0  0  0  0  0
   40.3370   27.3920   35.4210 H   0  0  0  0  0  0  0  0  0  0  0  0
   39.6730   25.9140   34.5100 H   0  0  0  0  0  0  0  0  0  0  0  0
   37.3710   27.0510   33.7470 C   0  0  0  0  0  0  0  0  0  0  0  0
   36.6390   28.0060   33.0460 C   0  0  0  0  0  0  0  0  0  0  0  0
   35.9400   27.5140   31.9470 C   0  0  0  0  0  0  0  0  0  0  0  0
   35.9930   26.1830   31.6090 N   0  0  0  0  0  0  0  0  0  0  0  0
   36.7180   25.2930   32.3190 C   0  0  0  0  0  0  0  0  0  0  0  0
   37.4200   25.7370   33.4090 N   0  0  0  0  0  0  0  0  0  0  0  0
   36.6120   29.0320   33.3260 H   0  0  0  0  0  0  0  0  0  0  0  0
   35.3400   28.1730   31.3340 H   0  0  0  0  0  0  0  0  0  0  0  0
   36.7670   23.8820   31.9530 C   0  0  0  0  0  3  0  0  0  0  0  0
   35.6580   23.2890   31.5460 C   0  0  0  0  0  3  0  0  0  0  0  0
   35.6670   21.8420   31.1620 C   0  0  0  0  0  2  0  0  0  0  0  0
   34.7520   21.5880   30.6000 H   0  0  0  0  0  0  0  0  0  0  0  0
   37.6100   25.5000   36.1850 O   0  0  0  0  0  0  0  0  0  0  0  0
   37.9880   24.2710   36.6170 C   0  0  0  0  0  0  0  0  0  0  0  0
   38.2030   24.0230   37.8220 O   0  0  0  0  0  0  0  0  0  0  0  0
   38.0750   23.4230   35.5110 N   0  0  0  0  0  0  0  0  0  0  0  0
   37.4500   22.8340   34.9230 H   0  0  0  0  0  0  0  0  0  0  0  0
   39.0150   23.2860   35.0880 H   0  0  0  0  0  0  0  0  0  0  0  0
  1  4  1  1  0  0  0
  1  3  1  0  0  0  0
  1  2  1  0  0  0  0
  2 20  1  0  0  0  0
  2  5  1  1  0  0  0
  3  6  1  0  0  0  0
  3  2  1  0  0  0  0
  7  3  1  0  0  0  0
  8  1  1  0  0  0  0
  9 14  1  0  0  0  0
  9  8  2  0  0  0  0
 10  9  1  0  0  0  0
 11 10  2  0  0  0  0
 11 12  1  0  0  0  0
 12 13  2  0  0  0  0
 13  8  1  0  0  0  0
 15 10  1  0  0  0  0
 16 12  1  0  0  0  0
 17 16  2  0  0  0  0
 18 17  1  0  0  0  0
 19 18  1  0  0  0  0
 20 21  1  0  0  0  0
 21 22  2  0  0  0  0
 23 21  1  0  0  0  0
 24 23  1  0  0  0  0
 25 23  1  0  0  0  0
M  END
>  <minimizedAffinity>
-4.43608809

$$$$

 OpenBabel03272507203D

 25 26  0  0  1  0  0  0  0  0999 V2000
   38.7750   25.6490   34.8980 C   0  0  1  0  0  0  0  0  0  0  0  0
   37.9110   25.2590   36.0120 C   0  0  2  0  0  0  0  0  0  0  0  0
   38.3000   26.7020   35.9240 C   0  0  0  0  0  0  0  0  0  0  0  0
   38.3710   25.8160   33.8680 H   0  0  0  0  0  0  0  0  0  0  0  0
   36.9050   24.8840   35.6560 H   0  0  0  0  0  0  0  0  0  0  0  0
   37.5290   27.4190   35.5820 H   0  0  0  0  0  0  0  0  0  0  0  0
   39.0070   27.0880   36.6590 H   0  0  0  0  0  0  0  0  0  0  0  0
   40.2590   25.4570   34.9430 C   0  0  0  0  0  0  0  0  0  0  0  0
   41.0350   26.4850   34.4140 C   0  0  0  0  0  0  0  0  0  0  0  0
   42.4090   26.2600   34.4550 C   0  0  0  0  0  0  0  0  0  0  0  0
   42.9220   25.1000   34.9840 N   0  0  0  0  0  0  0  0  0  0  0  0
   42.1300   24.1300   35.4860 C   0  0  0  0  0  0  0  0  0  0  0  0
   40.7720   24.3130   35.4640 N   0  0  0  0  0  0  0  0  0  0  0  0
   40.6150   27.3750   34.0090 H   0  0  0  0  0  0  0  0  0  0  0  0
   43.1010   26.9960   34.0710 H   0  0  0  0  0  0  0  0  0  0  0  0
   42.6860   22.9030   36.0440 C   0  0  0  0  0  3  0  0  0  0  0  0
   41.8740   22.0480   36.6430 C   0  0  0  0  0  3  0  0  0  0  0  0
   42.4070   20.7770   37.2290 C   0  0  0  0  0  2  0  0  0  0  0  0
   41.5820   20.0750   37.4360 H   0  0  0  0  0  0  0  0  0  0  0  0
   38.4760   24.4760   37.0090 O   0  0  0  0  0  0  0  0  0  0  0  0
   38.0570   23.2960   37.5300 C   0  0  0  0  0  0  0  0  0  0  0  0
   37.0300   22.7140   37.1250 O   0  0  0  0  0  0  0  0  0  0  0  0
   38.9530   22.9150   38.5320 N   0  0  0  0  0  0  0  0  0  0  0  0
   39.8700   22.4300   38.6210 H   0  0  0  0  0  0  0  0  0  0  0  0
   38.7000   23.1490   39.5130 H   0  0  0  0  0  0  0  0  0  0  0  0
  1  4  1  6  0  0  0
  1  8  1  0  0  0  0
  1  3  1  0  0  0  0
  1  2  1  0  0  0  0
  2  5  1  6  0  0  0
  2 20  1  0  0  0  0
  3  2  1  0  0  0  0
  3  7  1  0  0  0  0
  6  3  1  0  0  0  0
  8 13  1  0  0  0  0
  9 10  1  0  0  0  0
  9  8  2  0  0  0  0
 10 11  2  0  0  0  0
 11 12  1  0  0  0  0
 12 16  1  0  0  0  0
 13 12  2  0  0  0  0
 14  9  1  0  0  0  0
 15 10  1  0  0  0  0
 16 17  2  0  0  0  0
 17 18  1  0  0  0  0
 18 19  1  0  0  0  0
 20 21  1  0  0  0  0
 21 23  1  0  0  0  0
 22 21  2  0  0  0  0
 23 24  1  0  0  0  0
 23 25  1  0  0  0  0
M  END
>  <minimizedAffinity>
-4.38583946

$$$$

 OpenBabel03272507203D

 25 26  0  0  1  0  0  0  0  0999 V2000
   37.8470   26.3130   34.8960 C   0  0  1  0  0  0  0  0  0  0  0  0
   39.3030   26.4360   34.9490 C   0  0  2  0  0  0  0  0  0  0  0  0
   38.5270   27.0390   36.0780 C   0  0  0  0  0  0  0  0  0  0  0  0
   37.3230   25.3700   35.1950 H   0  0  0  0  0  0  0  0  0  0  0  0
   39.8110   25.4290   35.0380 H   0  0  0  0  0  0  0  0  0  0  0  0
   38.5410   26.5080   37.0490 H   0  0  0  0  0  0  0  0  0  0  0  0
   38.4720   28.1270   36.1390 H   0  0  0  0  0  0  0  0  0  0  0  0
   37.0030   27.2430   34.0810 C   0  0  0  0  0  0  0  0  0  0  0  0
   36.7170   26.8430   32.7790 C   0  0  0  0  0  0  0  0  0  0  0  0
   35.9480   27.7450   32.0480 C   0  0  0  0  0  0  0  0  0  0  0  0
   35.5220   28.9280   32.6020 N   0  0  0  0  0  0  0  0  0  0  0  0
   35.8240   29.2730   33.8710 C   0  0  0  0  0  0  0  0  0  0  0  0
   36.5800   28.4130   34.6240 N   0  0  0  0  0  0  0  0  0  0  0  0
   37.0580   25.9220   32.3700 H   0  0  0  0  0  0  0  0  0  0  0  0
   35.6690   27.5300   31.0250 H   0  0  0  0  0  0  0  0  0  0  0  0
   35.3680   30.5320   34.4490 C   0  0  0  0  0  3  0  0  0  0  0  0
   35.9070   30.9470   35.5830 C   0  0  0  0  0  3  0  0  0  0  0  0
   35.4640   32.2340   36.2080 C   0  0  0  0  0  2  0  0  0  0  0  0
   36.1880   32.5550   36.9750 H   0  0  0  0  0  0  0  0  0  0  0  0
   39.9030   27.2810   34.0250 O   0  0  0  0  0  0  0  0  0  0  0  0
   41.1700   27.2840   33.5440 C   0  0  0  0  0  0  0  0  0  0  0  0
   41.4410   27.6350   32.3760 O   0  0  0  0  0  0  0  0  0  0  0  0
   42.0260   26.8450   34.5550 N   0  0  0  0  0  0  0  0  0  0  0  0
   42.5250   27.2310   35.3840 H   0  0  0  0  0  0  0  0  0  0  0  0
   42.2960   25.8400   34.5510 H   0  0  0  0  0  0  0  0  0  0  0  0
  1  2  1  0  0  0  0
  1  4  1  1  0  0  0
  1  3  1  0  0  0  0
  2  5  1  1  0  0  0
  2  3  1  0  0  0  0
  3  7  1  0  0  0  0
  3  6  1  0  0  0  0
  8 13  1  0  0  0  0
  8  1  1  0  0  0  0
  9  8  2  0  0  0  0
 10 11  2  0  0  0  0
 10  9  1  0  0  0  0
 11 12  1  0  0  0  0
 12 16  1  0  0  0  0
 12 13  2  0  0  0  0
 14  9  1  0  0  0  0
 15 10  1  0  0  0  0
 16 17  2  0  0  0  0
 17 18  1  0  0  0  0
 18 19  1  0  0  0  0
 20  2  1  0  0  0  0
 21 20  1  0  0  0  0
 21 23  1  0  0  0  0
 22 21  2  0  0  0  0
 23 24  1  0  0  0  0
 25 23  1  0  0  0  0
M  END
>  <minimizedAffinity>
-4.37551641

$$$$

 OpenBabel03272507203D

 25 26  0  0  1  0  0  0  0  0999 V2000
   37.1170   23.3620   31.6310 C   0  0  1  0  0  0  0  0  0  0  0  0
   36.3080   22.1460   31.7040 C   0  0  2  0  0  0  0  0  0  0  0  0
   35.6350   23.3820   31.1940 C   0  0  0  0  0  0  0  0  0  0  0  0
   37.8320   23.5450   30.7900 H   0  0  0  0  0  0  0  0  0  0  0  0
   36.6920   21.3390   31.0110 H   0  0  0  0  0  0  0  0  0  0  0  0
   35.4360   23.4440   30.1060 H   0  0  0  0  0  0  0  0  0  0  0  0
   34.8960   23.8660   31.8340 H   0  0  0  0  0  0  0  0  0  0  0  0
   37.3560   24.2270   32.8290 C   0  0  0  0  0  0  0  0  0  0  0  0
   37.0080   25.5700   32.7060 C   0  0  0  0  0  0  0  0  0  0  0  0
   37.2650   26.3450   33.8340 C   0  0  0  0  0  0  0  0  0  0  0  0
   37.8210   25.7930   34.9630 N   0  0  0  0  0  0  0  0  0  0  0  0
   38.1430   24.4840   35.0360 C   0  0  0  0  0  0  0  0  0  0  0  0
   37.9060   23.6880   33.9470 N   0  0  0  0  0  0  0  0  0  0  0  0
   36.5790   25.9760   31.8210 H   0  0  0  0  0  0  0  0  0  0  0  0
   37.0310   27.4010   33.8440 H   0  0  0  0  0  0  0  0  0  0  0  0
   38.7330   23.9090   36.2390 C   0  0  0  0  0  3  0  0  0  0  0  0
   38.1560   24.1370   37.4070 C   0  0  0  0  0  3  0  0  0  0  0  0
   38.7330   23.5640   38.6640 C   0  0  0  0  0  2  0  0  0  0  0  0
   37.9960   23.6180   39.4830 H   0  0  0  0  0  0  0  0  0  0  0  0
   35.9760   21.6810   32.9700 O   0  0  0  0  0  0  0  0  0  0  0  0
   35.7060   20.4190   33.3890 C   0  0  0  0  0  0  0  0  0  0  0  0
   35.6810   19.4460   32.6070 O   0  0  0  0  0  0  0  0  0  0  0  0
   35.4830   20.4520   34.7670 N   0  0  0  0  0  0  0  0  0  0  0  0
   36.0320   20.4430   35.6510 H   0  0  0  0  0  0  0  0  0  0  0  0
   34.4950   20.5000   35.0900 H   0  0  0  0  0  0  0  0  0  0  0  0
  1  4  1  6  0  0  0
  1  2  1  0  0  0  0
  1  8  1  0  0  0  0
  2  5  1  6  0  0  0
  2 20  1  0  0  0  0
  3  1  1  0  0  0  0
  3  2  1  0  0  0  0
  3  7  1  0  0  0  0
  6  3  1  0  0  0  0
  8 13  1  0  0  0  0
  9  8  2  0  0  0  0
  9 10  1  0  0  0  0
 10 15  1  0  0  0  0
 10 11  2  0  0  0  0
 11 12  1  0  0  0  0
 12 16  1  0  0  0  0
 13 12  2  0  0  0  0
 14  9  1  0  0  0  0
 16 17  2  0  0  0  0
 17 18  1  0  0  0  0
 18 19  1  0  0  0  0
 20 21  1  0  0  0  0
 21 23  1  0  0  0  0
 22 21  2  0  0  0  0
 23 25  1  0  0  0  0
 23 24  1  0  0  0  0
M  END
>  <minimizedAffinity>
-4.3320694

$$$$

 OpenBabel03272507203D

 25 26  0  0  1  0  0  0  0  0999 V2000
   38.4540   26.6700   31.9400 C   0  0  1  0  0  0  0  0  0  0  0  0
   38.8040   27.0720   33.3010 C   0  0  2  0  0  0  0  0  0  0  0  0
   39.5470   25.9080   32.7240 C   0  0  0  0  0  0  0  0  0  0  0  0
   38.8470   27.2140   31.0440 H   0  0  0  0  0  0  0  0  0  0  0  0
   39.2480   28.1120   33.3350 H   0  0  0  0  0  0  0  0  0  0  0  0
   40.5950   26.0750   32.4090 H   0  0  0  0  0  0  0  0  0  0  0  0
   39.3270   24.9140   33.1160 H   0  0  0  0  0  0  0  0  0  0  0  0
   37.2690   25.8020   31.6510 C   0  0  0  0  0  0  0  0  0  0  0  0
   36.1330   26.4440   31.1640 C   0  0  0  0  0  0  0  0  0  0  0  0
   35.0460   25.6070   30.9270 C   0  0  0  0  0  0  0  0  0  0  0  0
   35.1250   24.2560   31.1690 N   0  0  0  0  0  0  0  0  0  0  0  0
   36.2490   23.6770   31.6420 C   0  0  0  0  0  0  0  0  0  0  0  0
   37.3400   24.4680   31.8880 N   0  0  0  0  0  0  0  0  0  0  0  0
   36.0950   27.4920   30.9850 H   0  0  0  0  0  0  0  0  0  0  0  0
   34.1150   26.0040   30.5470 H   0  0  0  0  0  0  0  0  0  0  0  0
   36.3210   22.2430   31.8950 C   0  0  0  0  0  3  0  0  0  0  0  0
   35.2510   21.6220   32.3620 C   0  0  0  0  0  3  0  0  0  0  0  0
   35.2860   20.1500   32.6350 C   0  0  0  0  0  2  0  0  0  0  0  0
   34.2620   19.7580   32.7520 H   0  0  0  0  0  0  0  0  0  0  0  0
   37.8630   26.8370   34.2950 O   0  0  0  0  0  0  0  0  0  0  0  0
   38.0380   26.5290   35.6040 C   0  0  0  0  0  0  0  0  0  0  0  0
   37.6780   25.4350   36.0870 O   0  0  0  0  0  0  0  0  0  0  0  0
   38.6550   27.6140   36.2310 N   0  0  0  0  0  0  0  0  0  0  0  0
   39.6120   27.9980   36.3730 H   0  0  0  0  0  0  0  0  0  0  0  0
   38.0410   28.2880   36.7320 H   0  0  0  0  0  0  0  0  0  0  0  0
  1  4  1  6  0  0  0
  1  3  1  0  0  0  0
  1  2  1  0  0  0  0
  2  5  1  1  0  0  0
  2 20  1  0  0  0  0
  3  7  1  0  0  0  0
  3  2  1  0  0  0  0
  6  3  1  0  0  0  0
  8 13  1  0  0  0  0
  8  1  1  0  0  0  0
  9  8  2  0  0  0  0
 10  9  1  0  0  0  0
 10 11  2  0  0  0  0
 11 12  1  0  0  0  0
 12 13  2  0  0  0  0
 12 16  1  0  0  0  0
 14  9  1  0  0  0  0
 15 10  1  0  0  0  0
 16 17  2  0  0  0  0
 17 18  1  0  0  0  0
 18 19  1  0  0  0  0
 20 21  1  0  0  0  0
 21 22  2  0  0  0  0
 21 23  1  0  0  0  0
 23 24  1  0  0  0  0
 23 25  1  0  0  0  0
M  END
>  <minimizedAffinity>
-4.28787994

$$$$

 OpenBabel03272507203D

 25 26  0  0  1  0  0  0  0  0999 V2000
   36.9600   22.0740   31.8240 C   0  0  1  0  0  0  0  0  0  0  0  0
   37.0230   21.2570   33.0350 C   0  0  2  0  0  0  0  0  0  0  0  0
   35.7540   21.2020   32.2420 C   0  0  0  0  0  0  0  0  0  0  0  0
   37.4350   21.7460   30.8650 H   0  0  0  0  0  0  0  0  0  0  0  0
   37.8130   20.4510   32.9620 H   0  0  0  0  0  0  0  0  0  0  0  0
   35.5650   20.2920   31.6420 H   0  0  0  0  0  0  0  0  0  0  0  0
   34.8680   21.6830   32.6580 H   0  0  0  0  0  0  0  0  0  0  0  0
   36.6350   23.5340   31.8700 C   0  0  0  0  0  0  0  0  0  0  0  0
   35.5880   23.9650   31.0590 C   0  0  0  0  0  0  0  0  0  0  0  0
   35.3310   25.3320   31.1150 C   0  0  0  0  0  0  0  0  0  0  0  0
   36.0730   26.1620   31.9200 N   0  0  0  0  0  0  0  0  0  0  0  0
   37.0790   25.6990   32.6910 C   0  0  0  0  0  0  0  0  0  0  0  0
   37.3650   24.3590   32.6640 N   0  0  0  0  0  0  0  0  0  0  0  0
   35.0270   23.3040   30.4420 H   0  0  0  0  0  0  0  0  0  0  0  0
   34.5380   25.7690   30.5230 H   0  0  0  0  0  0  0  0  0  0  0  0
   37.8620   26.5890   33.5410 C   0  0  0  0  0  3  0  0  0  0  0  0
   37.7450   26.4850   34.8540 C   0  0  0  0  0  3  0  0  0  0  0  0
   38.5310   27.3800   35.7600 C   0  0  0  0  0  2  0  0  0  0  0  0
   38.5240   26.9850   36.7900 H   0  0  0  0  0  0  0  0  0  0  0  0
   37.0200   21.9250   34.2520 O   0  0  0  0  0  0  0  0  0  0  0  0
   37.9880   22.0130   35.1970 C   0  0  0  0  0  0  0  0  0  0  0  0
   39.2030   22.0580   34.9090 O   0  0  0  0  0  0  0  0  0  0  0  0
   37.3760   22.0390   36.4520 N   0  0  0  0  0  0  0  0  0  0  0  0
   36.9300   22.7280   37.0930 H   0  0  0  0  0  0  0  0  0  0  0  0
   37.3060   21.1390   36.9680 H   0  0  0  0  0  0  0  0  0  0  0  0
  1  4  1  6  0  0  0
  1  8  1  0  0  0  0
  1  3  1  0  0  0  0
  1  2  1  0  0  0  0
  2  5  1  6  0  0  0
  2 20  1  0  0  0  0
  3  7  1  0  0  0  0
  3  2  1  0  0  0  0
  6  3  1  0  0  0  0
  8 13  1  0  0  0  0
  9 10  1  0  0  0  0
  9  8  2  0  0  0  0
 10 11  2  0  0  0  0
 11 12  1  0  0  0  0
 12 16  1  0  0  0  0
 13 12  2  0  0  0  0
 14  9  1  0  0  0  0
 15 10  1  0  0  0  0
 16 17  2  0  0  0  0
 17 18  1  0  0  0  0
 18 19  1  0  0  0  0
 20 21  1  0  0  0  0
 21 23  1  0  0  0  0
 22 21  2  0  0  0  0
 23 25  1  0  0  0  0
 23 24  1  0  0  0  0
M  END
>  <minimizedAffinity>
-4.28455353

$$$$

 OpenBabel03272507203D

 25 26  0  0  1  0  0  0  0  0999 V2000
   37.6810   25.7040   35.5150 C   0  0  1  0  0  0  0  0  0  0  0  0
   38.5030   26.6660   34.7840 C   0  0  2  0  0  0  0  0  0  0  0  0
   38.1080   25.4190   34.0570 C   0  0  0  0  0  0  0  0  0  0  0  0
   36.5760   25.8420   35.6360 H   0  0  0  0  0  0  0  0  0  0  0  0
   37.9660   27.6500   34.6280 H   0  0  0  0  0  0  0  0  0  0  0  0
   37.3240   25.5060   33.2810 H   0  0  0  0  0  0  0  0  0  0  0  0
   38.8790   24.6720   33.8640 H   0  0  0  0  0  0  0  0  0  0  0  0
   38.2760   24.7200   36.4730 C   0  0  0  0  0  0  0  0  0  0  0  0
   37.8540   24.8070   37.7970 C   0  0  0  0  0  0  0  0  0  0  0  0
   38.4470   23.8890   38.6600 C   0  0  0  0  0  0  0  0  0  0  0  0
   39.3730   22.9810   38.2040 N   0  0  0  0  0  0  0  0  0  0  0  0
   39.7520   22.9340   36.9100 C   0  0  0  0  0  0  0  0  0  0  0  0
   39.1920   23.8210   36.0290 N   0  0  0  0  0  0  0  0  0  0  0  0
   37.1360   25.5190   38.1280 H   0  0  0  0  0  0  0  0  0  0  0  0
   38.1890   23.8720   39.7100 H   0  0  0  0  0  0  0  0  0  0  0  0
   40.7360   21.9670   36.4370 C   0  0  0  0  0  3  0  0  0  0  0  0
   41.6740   21.5510   37.2710 C   0  0  0  0  0  3  0  0  0  0  0  0
   42.7030   20.5600   36.8220 C   0  0  0  0  0  2  0  0  0  0  0  0
   43.2220   20.1260   37.6940 H   0  0  0  0  0  0  0  0  0  0  0  0
   39.8230   26.8120   35.1920 O   0  0  0  0  0  0  0  0  0  0  0  0
   40.9720   26.6520   34.4900 C   0  0  0  0  0  0  0  0  0  0  0  0
   41.3250   27.4480   33.5950 O   0  0  0  0  0  0  0  0  0  0  0  0
   41.6120   25.5000   34.9520 N   0  0  0  0  0  0  0  0  0  0  0  0
   42.2480   25.2120   35.7250 H   0  0  0  0  0  0  0  0  0  0  0  0
   41.4600   24.6220   34.4160 H   0  0  0  0  0  0  0  0  0  0  0  0
  1  4  1  1  0  0  0
  1  8  1  0  0  0  0
  2  5  1  6  0  0  0
  2 20  1  0  0  0  0
  2  1  1  0  0  0  0
  3  2  1  0  0  0  0
  3  1  1  0  0  0  0
  6  3  1  0  0  0  0
  7  3  1  0  0  0  0
  8  9  1  0  0  0  0
  9 14  1  0  0  0  0
  9 10  2  0  0  0  0
 10 15  1  0  0  0  0
 11 10  1  0  0  0  0
 12 11  2  0  0  0  0
 13  8  2  0  0  0  0
 13 12  1  0  0  0  0
 16 12  1  0  0  0  0
 16 17  2  0  0  0  0
 18 17  1  0  0  0  0
 18 19  1  0  0  0  0
 21 23  1  0  0  0  0
 21 20  1  0  0  0  0
 22 21  2  0  0  0  0
 23 24  1  0  0  0  0
 25 23  1  0  0  0  0
M  END
>  <minimizedAffinity>
-4.24389267

$$$$
