
 OpenBabel03272509113D

 23 24  0  0  0  0  0  0  0  0999 V2000
   38.0690   30.5570   50.1960 C   0  0  0  0  0  3  0  0  0  0  0  0
   37.1610   30.2350   49.1560 C   0  0  0  0  0  0  0  0  0  0  0  0
   35.9820   29.6160   49.4680 C   0  0  0  0  0  0  0  0  0  0  0  0
   35.7740   29.3500   50.7710 N   0  0  0  0  0  0  0  0  0  0  0  0
   36.6450   29.6570   51.7530 C   0  0  0  0  0  0  0  0  0  0  0  0
   37.7770   30.2540   51.4670 N   0  0  0  0  0  0  0  0  0  0  0  0
   39.0230   31.0460   50.0710 H   0  0  0  0  0  0  0  0  0  0  0  0
   36.3470   29.3840   52.7280 H   0  0  0  0  0  0  0  0  0  0  0  0
   34.9630   29.2430   48.5040 C   0  0  0  0  0  0  0  0  0  0  0  0
   34.4540   30.2780   47.7240 C   0  0  0  0  0  0  0  0  0  0  0  0
   33.5090   30.0430   46.7410 C   0  0  0  0  0  0  0  0  0  0  0  0
   33.1020   28.7230   46.5860 C   0  0  0  0  0  0  0  0  0  0  0  0
   33.5790   27.6440   47.3460 C   0  0  0  0  0  0  0  0  0  0  0  0
   34.5370   27.9410   48.3270 C   0  0  0  0  0  0  0  0  0  0  0  0
   34.6390   31.3380   47.7490 H   0  0  0  0  0  0  0  0  0  0  0  0
   33.0480   30.7420   46.0820 H   0  0  0  0  0  0  0  0  0  0  0  0
   32.3530   28.4130   45.8350 H   0  0  0  0  0  0  0  0  0  0  0  0
   33.2320   26.6400   47.1900 H   0  0  0  0  0  0  0  0  0  0  0  0
   34.9560   27.1760   48.9530 H   0  0  0  0  0  0  0  0  0  0  0  0
   37.5370   30.4710   47.8170 C   0  0  0  0  0  0  0  0  0  0  0  0
   37.9760   30.6440   46.6280 C   0  0  0  0  0  3  0  0  0  0  0  0
   39.0140   30.5760   45.5900 C   0  0  0  0  0  2  0  0  0  0  0  0
   39.2730   31.5960   45.2410 H   0  0  0  0  0  0  0  0  0  0  0  0
  1  6  1  0  0  0  0
  2  3  1  0  0  0  0
  2  1  1  0  0  0  0
  3  4  2  0  0  0  0
  4  5  1  0  0  0  0
  5  8  1  0  0  0  0
  6  5  2  0  0  0  0
  7  1  1  0  0  0  0
  9  3  1  0  0  0  0
 10 15  1  0  0  0  0
 10  9  2  0  0  0  0
 11 10  1  0  0  0  0
 12 11  2  0  0  0  0
 12 13  1  0  0  0  0
 13 14  2  0  0  0  0
 14  9  1  0  0  0  0
 14 19  1  0  0  0  0
 16 11  1  0  0  0  0
 17 12  1  0  0  0  0
 18 13  1  0  0  0  0
 20  2  2  0  0  0  0
 21 20  2  0  0  0  0
 22 21  1  0  0  0  0
 23 22  1  0  0  0  0
M  END
>  <minimizedAffinity>
-5.01838779

>  <minimizedRMSD>
4.75169039

$$$$
