
 OpenBabel03272500583D

 30 31  0  0  0  0  0  0  0  0999 V2000
   38.2400   31.9230   47.3990 C   0  0  0  0  0  0  0  0  0  0  0  0
   38.8280   32.7820   48.2870 C   0  0  0  0  0  0  0  0  0  0  0  0
   38.4130   32.8780   49.6200 C   0  0  0  0  0  0  0  0  0  0  0  0
   37.3190   32.0200   50.0340 C   0  0  0  0  0  0  0  0  0  0  0  0
   36.7830   31.1930   49.1060 C   0  0  0  0  0  0  0  0  0  0  0  0
   37.1870   31.1100   47.8280 C   0  0  0  0  0  0  0  0  0  0  0  0
   39.6600   33.4420   47.9920 H   0  0  0  0  0  0  0  0  0  0  0  0
   38.9260   33.5840   50.2710 H   0  0  0  0  0  0  0  0  0  0  0  0
   37.1190   32.2040   51.0600 H   0  0  0  0  0  0  0  0  0  0  0  0
   36.0230   30.6450   49.6400 H   0  0  0  0  0  0  0  0  0  0  0  0
   40.0220   31.2500   45.8750 C   0  0  0  0  0  0  0  0  0  0  0  0
   38.7970   31.9240   46.0630 C   0  0  0  0  0  0  0  0  0  0  0  0
   38.2780   32.5020   44.9310 C   0  0  0  0  0  0  0  0  0  0  0  0
   38.9260   32.4030   43.7540 N   0  0  0  0  0  0  0  0  0  0  0  0
   40.0650   31.7720   43.5980 C   0  0  0  0  0  0  0  0  0  0  0  0
   40.6120   31.1960   44.6580 N   0  0  0  0  0  0  0  0  0  0  0  0
   40.5070   30.7640   46.7130 H   0  0  0  0  0  0  0  0  0  0  0  0
   37.3270   33.0250   45.0770 H   0  0  0  0  0  0  0  0  0  0  0  0
   40.5670   31.7070   42.6430 H   0  0  0  0  0  0  0  0  0  0  0  0
   35.1690   30.0780   47.2030 C   0  0  0  0  0  0  0  0  0  0  0  0
   34.6610   30.6600   48.2430 O   0  0  0  0  0  0  0  0  0  0  0  0
   36.5820   30.2660   46.9310 N   0  0  0  0  0  0  0  0  0  0  0  0
   37.0620   29.8120   46.1540 H   0  0  0  0  0  0  0  0  0  0  0  0
   34.3600   29.3140   46.4090 O   0  0  0  0  0  0  0  0  0  0  0  0
   32.9930   29.5010   46.2490 C   0  0  0  0  0  0  0  0  0  0  0  0
   32.5040   30.5510   45.6210 O   0  0  0  0  0  0  0  0  0  0  0  0
   32.0090   28.5140   46.7560 C   0  0  0  0  0  3  0  0  0  0  0  0
   32.1520   27.8790   47.8930 C   0  0  0  0  0  3  0  0  0  0  0  0
   31.1970   26.8820   48.4470 C   0  0  0  0  0  2  0  0  0  0  0  0
   30.3460   26.6660   47.7850 H   0  0  0  0  0  0  0  0  0  0  0  0
  1  6  2  0  0  0  0
  1  2  1  0  0  0  0
  2  3  2  0  0  0  0
  3  4  1  0  0  0  0
  3  8  1  0  0  0  0
  4  9  1  0  0  0  0
  5 10  1  0  0  0  0
  5  4  2  0  0  0  0
  6  5  1  0  0  0  0
  7  2  1  0  0  0  0
 11 12  1  0  0  0  0
 11 17  1  0  0  0  0
 12  1  1  0  0  0  0
 13 18  1  0  0  0  0
 13 12  2  0  0  0  0
 14 13  1  0  0  0  0
 15 14  2  0  0  0  0
 15 16  1  0  0  0  0
 16 11  2  0  0  0  0
 19 15  1  0  0  0  0
 20 21  2  0  0  0  0
 22 20  1  0  0  0  0
 22  6  1  0  0  0  0
 23 22  1  0  0  0  0
 24 20  1  0  0  0  0
 25 24  1  0  0  0  0
 25 27  1  0  0  0  0
 26 25  2  0  0  0  0
 27 28  2  0  0  0  0
 28 29  1  0  0  0  0
 30 29  1  0  0  0  0
M  END
>  <minimizedAffinity>
-5.51283026

>  <minimizedRMSD>
1.08209956

$$$$
