
 OpenBabel03272504023D

 36 38  0  0  0  0  0  0  0  0999 V2000
   35.7290   29.8300   49.1720 C   0  0  0  0  0  0  0  0  0  0  0  0
   36.6490   29.2780   50.0710 C   0  0  0  0  0  0  0  0  0  0  0  0
   37.8020   30.0110   49.9760 C   0  0  0  0  0  0  0  0  0  0  0  0
   37.5870   30.9630   49.0590 N   0  0  0  0  0  0  0  0  0  0  0  0
   36.3590   30.8280   48.6070 N   0  0  0  0  0  0  0  0  0  0  0  0
   36.6160   28.4390   50.7760 H   0  0  0  0  0  0  0  0  0  0  0  0
   38.7680   29.9830   50.4460 H   0  0  0  0  0  0  0  0  0  0  0  0
   38.4180   32.0040   48.5500 C   0  0  0  0  0  0  0  0  0  0  0  0
   38.6490   33.0590   49.3970 C   0  0  0  0  0  0  0  0  0  0  0  0
   39.4330   34.1660   49.0800 C   0  0  0  0  0  0  0  0  0  0  0  0
   39.9930   34.1530   47.8110 C   0  0  0  0  0  0  0  0  0  0  0  0
   39.7720   33.1010   46.9400 C   0  0  0  0  0  0  0  0  0  0  0  0
   38.9870   32.0150   47.2910 C   0  0  0  0  0  0  0  0  0  0  0  0
   38.2190   33.0870   50.3960 H   0  0  0  0  0  0  0  0  0  0  0  0
   39.5990   34.9850   49.7650 H   0  0  0  0  0  0  0  0  0  0  0  0
   40.6260   34.9790   47.4650 H   0  0  0  0  0  0  0  0  0  0  0  0
   40.2060   33.0780   45.9430 H   0  0  0  0  0  0  0  0  0  0  0  0
   38.7820   31.1680   46.6510 H   0  0  0  0  0  0  0  0  0  0  0  0
   34.3740   29.2710   49.0230 C   0  0  0  0  0  0  0  0  0  0  0  0
   34.0270   28.7320   49.9000 H   0  0  0  0  0  0  0  0  0  0  0  0
   33.6950   30.1720   48.9490 H   0  0  0  0  0  0  0  0  0  0  0  0
   34.1880   28.5200   47.7550 C   0  0  0  0  0  0  0  0  0  0  0  0
   33.3050   27.8530   47.9050 H   0  0  0  0  0  0  0  0  0  0  0  0
   35.0430   27.8150   47.6740 H   0  0  0  0  0  0  0  0  0  0  0  0
   33.9350   29.2780   46.5510 C   0  0  0  0  0  0  0  0  0  0  0  0
   32.8430   30.0790   46.4310 C   0  0  0  0  0  0  0  0  0  0  0  0
   32.6190   30.8050   45.2500 C   0  0  0  0  0  0  0  0  0  0  0  0
   33.5620   30.6440   44.2600 N   0  0  0  0  0  0  0  0  0  0  0  0
   34.6370   29.8410   44.4080 C   0  0  0  0  0  0  0  0  0  0  0  0
   34.7880   29.1790   45.5610 N   0  0  0  0  0  0  0  0  0  0  0  0
   32.1350   30.1670   47.2410 H   0  0  0  0  0  0  0  0  0  0  0  0
   31.7610   31.4380   45.1450 H   0  0  0  0  0  0  0  0  0  0  0  0
   35.6180   29.6940   43.3380 C   0  0  0  0  0  3  0  0  0  0  0  0
   36.6750   30.4800   43.2320 C   0  0  0  0  0  3  0  0  0  0  0  0
   36.9520   31.5770   44.1910 C   0  0  0  0  0  2  0  0  0  0  0  0
   37.1080   31.1740   45.2160 H   0  0  0  0  0  0  0  0  0  0  0  0
  1  2  1  0  0  0  0
  2  6  1  0  0  0  0
  3  2  2  0  0  0  0
  3  7  1  0  0  0  0
  4  3  1  0  0  0  0
  5  4  1  0  0  0  0
  5  1  2  0  0  0  0
  8  4  1  0  0  0  0
  8  9  1  0  0  0  0
  9 14  1  0  0  0  0
 10  9  2  0  0  0  0
 10 15  1  0  0  0  0
 11 10  1  0  0  0  0
 12 13  1  0  0  0  0
 12 11  2  0  0  0  0
 13  8  2  0  0  0  0
 16 11  1  0  0  0  0
 17 12  1  0  0  0  0
 18 13  1  0  0  0  0
 19  1  1  0  0  0  0
 19 20  1  0  0  0  0
 21 19  1  0  0  0  0
 22 23  1  0  0  0  0
 22 19  1  0  0  0  0
 24 22  1  0  0  0  0
 25 22  1  0  0  0  0
 26 25  1  0  0  0  0
 26 31  1  0  0  0  0
 27 26  2  0  0  0  0
 28 29  2  0  0  0  0
 28 27  1  0  0  0  0
 29 30  1  0  0  0  0
 30 25  2  0  0  0  0
 32 27  1  0  0  0  0
 33 29  1  0  0  0  0
 34 33  2  0  0  0  0
 34 35  1  0  0  0  0
 35 36  1  0  0  0  0
M  END
>  <minimizedAffinity>
-5.34215021

>  <minimizedRMSD>
0.27790156

$$$$
