
 OpenBabel03272509393D

 25 26  0  0  0  0  0  0  0  0999 V2000
   34.4070   30.6790   35.0190 C   0  0  0  0  0  0  0  0  0  0  0  0
   33.1290   30.2060   35.3410 C   0  0  0  0  0  0  0  0  0  0  0  0
   32.4590   30.6070   36.4890 C   0  0  0  0  0  0  0  0  0  0  0  0
   33.0550   31.5090   37.3660 C   0  0  0  0  0  0  0  0  0  0  0  0
   34.3090   31.9640   37.0360 C   0  0  0  0  0  0  0  0  0  0  0  0
   34.9570   31.5570   35.8960 C   0  0  0  0  0  0  0  0  0  0  0  0
   32.6680   29.5040   34.6570 H   0  0  0  0  0  0  0  0  0  0  0  0
   31.4830   30.1740   36.6270 H   0  0  0  0  0  0  0  0  0  0  0  0
   32.4520   31.7550   38.2290 H   0  0  0  0  0  0  0  0  0  0  0  0
   34.6340   32.6480   37.8060 H   0  0  0  0  0  0  0  0  0  0  0  0
   35.0290   30.2110   33.7970 C   0  0  0  0  0  0  0  0  0  0  0  0
   34.8980   31.0160   32.8040 O   0  0  0  0  0  0  0  0  0  0  0  0
   36.3260   27.2420   32.1650 C   0  0  0  0  0  0  0  0  0  0  0  0
   37.0540   26.5990   33.1590 C   0  0  0  0  0  0  0  0  0  0  0  0
   37.0980   27.1870   34.4090 C   0  0  0  0  0  0  0  0  0  0  0  0
   36.4360   28.3590   34.6220 N   0  0  0  0  0  0  0  0  0  0  0  0
   35.7500   28.9520   33.6560 C   0  0  0  0  0  0  0  0  0  0  0  0
   35.7000   28.3860   32.4330 N   0  0  0  0  0  0  0  0  0  0  0  0
   36.2520   26.8320   31.1650 H   0  0  0  0  0  0  0  0  0  0  0  0
   37.5230   25.6780   32.8410 H   0  0  0  0  0  0  0  0  0  0  0  0
   37.6670   26.6710   35.1600 H   0  0  0  0  0  0  0  0  0  0  0  0
   36.2700   32.1280   35.7030 C   0  0  0  0  0  3  0  0  0  0  0  0
   36.5650   33.3650   35.3560 C   0  0  0  0  0  3  0  0  0  0  0  0
   37.8100   34.1040   35.1190 C   0  0  0  0  0  2  0  0  0  0  0  0
   38.0110   34.2180   34.0170 H   0  0  0  0  0  0  0  0  0  0  0  0
  1  2  2  0  0  0  0
  1  6  1  0  0  0  0
  2  3  1  0  0  0  0
  3  8  1  0  0  0  0
  3  4  2  0  0  0  0
  4  9  1  0  0  0  0
  5  4  1  0  0  0  0
  5 10  1  0  0  0  0
  6  5  2  0  0  0  0
  7  2  1  0  0  0  0
 11  1  1  0  0  0  0
 12 11  2  0  0  0  0
 13 18  2  0  0  0  0
 13 14  1  0  0  0  0
 14 15  2  0  0  0  0
 15 16  1  0  0  0  0
 15 21  1  0  0  0  0
 17 11  1  0  0  0  0
 17 16  2  0  0  0  0
 18 17  1  0  0  0  0
 19 13  1  0  0  0  0
 20 14  1  0  0  0  0
 22  6  1  0  0  0  0
 23 22  2  0  0  0  0
 24 23  1  0  0  0  0
 25 24  1  0  0  0  0
M  END
>  <minimizedAffinity>
-4.88266182

$$$$

 OpenBabel03272509393D

 25 26  0  0  0  0  0  0  0  0999 V2000
   36.5160   28.6730   32.4050 C   0  0  0  0  0  0  0  0  0  0  0  0
   35.9960   29.7490   31.6770 C   0  0  0  0  0  0  0  0  0  0  0  0
   35.2950   30.7840   32.2830 C   0  0  0  0  0  0  0  0  0  0  0  0
   35.0890   30.7740   33.6600 C   0  0  0  0  0  0  0  0  0  0  0  0
   35.6050   29.7110   34.3610 C   0  0  0  0  0  0  0  0  0  0  0  0
   36.2970   28.6970   33.7450 C   0  0  0  0  0  0  0  0  0  0  0  0
   36.1580   29.7540   30.6060 H   0  0  0  0  0  0  0  0  0  0  0  0
   34.9450   31.5540   31.6170 H   0  0  0  0  0  0  0  0  0  0  0  0
   34.5310   31.6220   34.0320 H   0  0  0  0  0  0  0  0  0  0  0  0
   35.3650   29.8450   35.4050 H   0  0  0  0  0  0  0  0  0  0  0  0
   37.2400   27.6410   31.6920 C   0  0  0  0  0  0  0  0  0  0  0  0
   38.3840   28.0190   31.2450 O   0  0  0  0  0  0  0  0  0  0  0  0
   34.8800   24.9860   30.9560 C   0  0  0  0  0  0  0  0  0  0  0  0
   35.6460   23.8280   31.0030 C   0  0  0  0  0  0  0  0  0  0  0  0
   36.9910   23.9550   31.2970 C   0  0  0  0  0  0  0  0  0  0  0  0
   37.5120   25.1930   31.5270 N   0  0  0  0  0  0  0  0  0  0  0  0
   36.7590   26.2820   31.4740 C   0  0  0  0  0  0  0  0  0  0  0  0
   35.4460   26.1680   31.1890 N   0  0  0  0  0  0  0  0  0  0  0  0
   33.8210   24.9520   30.7310 H   0  0  0  0  0  0  0  0  0  0  0  0
   35.0940   22.9200   30.8000 H   0  0  0  0  0  0  0  0  0  0  0  0
   37.5620   23.0450   31.3280 H   0  0  0  0  0  0  0  0  0  0  0  0
   36.7670   27.6550   34.6280 C   0  0  0  0  0  3  0  0  0  0  0  0
   37.8420   27.6720   35.3910 C   0  0  0  0  0  3  0  0  0  0  0  0
   38.4610   26.7290   36.3290 C   0  0  0  0  0  2  0  0  0  0  0  0
   39.3440   26.2110   35.8610 H   0  0  0  0  0  0  0  0  0  0  0  0
  1  6  1  0  0  0  0
  2  3  1  0  0  0  0
  2  1  2  0  0  0  0
  3  4  2  0  0  0  0
  4  9  1  0  0  0  0
  4  5  1  0  0  0  0
  5 10  1  0  0  0  0
  6  5  2  0  0  0  0
  6 22  1  0  0  0  0
  7  2  1  0  0  0  0
  8  3  1  0  0  0  0
 11  1  1  0  0  0  0
 12 11  2  0  0  0  0
 13 14  2  0  0  0  0
 13 18  1  0  0  0  0
 14 15  1  0  0  0  0
 15 21  1  0  0  0  0
 15 16  2  0  0  0  0
 17 16  1  0  0  0  0
 17 11  1  0  0  0  0
 18 17  2  0  0  0  0
 19 13  1  0  0  0  0
 20 14  1  0  0  0  0
 22 23  2  0  0  0  0
 23 24  1  0  0  0  0
 25 24  1  0  0  0  0
M  END
>  <minimizedAffinity>
-4.81123638

$$$$

 OpenBabel03272509393D

 25 26  0  0  0  0  0  0  0  0999 V2000
   38.9360   26.8260   33.3190 C   0  0  0  0  0  0  0  0  0  0  0  0
   39.8290   27.2230   32.3170 C   0  0  0  0  0  0  0  0  0  0  0  0
   41.1930   27.3490   32.5480 C   0  0  0  0  0  0  0  0  0  0  0  0
   41.7150   27.0770   33.8100 C   0  0  0  0  0  0  0  0  0  0  0  0
   40.8260   26.6890   34.7820 C   0  0  0  0  0  0  0  0  0  0  0  0
   39.4800   26.5690   34.5360 C   0  0  0  0  0  0  0  0  0  0  0  0
   39.4210   27.4350   31.3370 H   0  0  0  0  0  0  0  0  0  0  0  0
   41.7760   27.6610   31.6990 H   0  0  0  0  0  0  0  0  0  0  0  0
   42.7850   27.2070   33.8850 H   0  0  0  0  0  0  0  0  0  0  0  0
   41.3760   26.5160   35.6960 H   0  0  0  0  0  0  0  0  0  0  0  0
   37.5300   26.7160   32.9880 C   0  0  0  0  0  0  0  0  0  0  0  0
   36.8500   27.7770   33.2380 O   0  0  0  0  0  0  0  0  0  0  0  0
   35.1930   24.7760   31.0030 C   0  0  0  0  0  0  0  0  0  0  0  0
   35.5770   23.4590   31.2190 C   0  0  0  0  0  0  0  0  0  0  0  0
   36.6480   23.2280   32.0610 C   0  0  0  0  0  0  0  0  0  0  0  0
   37.2830   24.2840   32.6420 N   0  0  0  0  0  0  0  0  0  0  0  0
   36.8970   25.5320   32.4190 C   0  0  0  0  0  0  0  0  0  0  0  0
   35.8520   25.7670   31.5990 N   0  0  0  0  0  0  0  0  0  0  0  0
   34.3610   25.0220   30.3540 H   0  0  0  0  0  0  0  0  0  0  0  0
   34.9790   22.7290   30.6900 H   0  0  0  0  0  0  0  0  0  0  0  0
   36.9250   22.2010   32.2120 H   0  0  0  0  0  0  0  0  0  0  0  0
   38.6860   26.1550   35.6700 C   0  0  0  0  0  3  0  0  0  0  0  0
   38.5070   24.9300   36.1220 C   0  0  0  0  0  3  0  0  0  0  0  0
   37.7550   24.3360   37.2320 C   0  0  0  0  0  2  0  0  0  0  0  0
   36.7980   23.8650   36.8690 H   0  0  0  0  0  0  0  0  0  0  0  0
  1  6  1  0  0  0  0
  2  3  1  0  0  0  0
  2  1  2  0  0  0  0
  3  4  2  0  0  0  0
  4  9  1  0  0  0  0
  4  5  1  0  0  0  0
  5 10  1  0  0  0  0
  6  5  2  0  0  0  0
  6 22  1  0  0  0  0
  7  2  1  0  0  0  0
  8  3  1  0  0  0  0
 11 12  2  0  0  0  0
 11  1  1  0  0  0  0
 13 14  2  0  0  0  0
 13 18  1  0  0  0  0
 14 15  1  0  0  0  0
 15 21  1  0  0  0  0
 15 16  2  0  0  0  0
 17 16  1  0  0  0  0
 17 11  1  0  0  0  0
 18 17  2  0  0  0  0
 19 13  1  0  0  0  0
 20 14  1  0  0  0  0
 22 23  2  0  0  0  0
 23 24  1  0  0  0  0
 25 24  1  0  0  0  0
M  END
>  <minimizedAffinity>
-4.80172205

$$$$

 OpenBabel03272509393D

 25 26  0  0  0  0  0  0  0  0999 V2000
   38.7910   23.7160   36.1510 C   0  0  0  0  0  0  0  0  0  0  0  0
   37.8700   24.5100   36.8430 C   0  0  0  0  0  0  0  0  0  0  0  0
   37.8150   24.5440   38.2300 C   0  0  0  0  0  0  0  0  0  0  0  0
   38.6950   23.7710   38.9820 C   0  0  0  0  0  0  0  0  0  0  0  0
   39.5930   22.9960   38.2890 C   0  0  0  0  0  0  0  0  0  0  0  0
   39.6340   22.9750   36.9160 C   0  0  0  0  0  0  0  0  0  0  0  0
   37.1860   25.1110   36.2550 H   0  0  0  0  0  0  0  0  0  0  0  0
   37.0640   25.1940   38.6440 H   0  0  0  0  0  0  0  0  0  0  0  0
   38.5690   23.8670   40.0510 H   0  0  0  0  0  0  0  0  0  0  0  0
   40.2010   22.4600   39.0030 H   0  0  0  0  0  0  0  0  0  0  0  0
   38.7810   23.7470   34.7030 C   0  0  0  0  0  0  0  0  0  0  0  0
   39.6580   24.5350   34.1920 O   0  0  0  0  0  0  0  0  0  0  0  0
   36.7120   22.9600   31.8290 C   0  0  0  0  0  0  0  0  0  0  0  0
   36.2170   21.6910   32.1040 C   0  0  0  0  0  0  0  0  0  0  0  0
   36.5920   21.0970   33.2940 C   0  0  0  0  0  0  0  0  0  0  0  0
   37.4210   21.7640   34.1440 N   0  0  0  0  0  0  0  0  0  0  0  0
   37.8810   22.9740   33.8570 C   0  0  0  0  0  0  0  0  0  0  0  0
   37.5200   23.5620   32.6980 N   0  0  0  0  0  0  0  0  0  0  0  0
   36.4560   23.4790   30.9130 H   0  0  0  0  0  0  0  0  0  0  0  0
   35.5710   21.2890   31.3360 H   0  0  0  0  0  0  0  0  0  0  0  0
   36.1950   20.1160   33.4850 H   0  0  0  0  0  0  0  0  0  0  0  0
   40.6360   22.1030   36.3480 C   0  0  0  0  0  3  0  0  0  0  0  0
   41.5740   21.4330   36.9860 C   0  0  0  0  0  3  0  0  0  0  0  0
   42.6500   20.5210   36.5830 C   0  0  0  0  0  2  0  0  0  0  0  0
   43.6470   21.0450   36.5830 H   0  0  0  0  0  0  0  0  0  0  0  0
  1  2  2  0  0  0  0
  1  6  1  0  0  0  0
  2  3  1  0  0  0  0
  3  8  1  0  0  0  0
  3  4  2  0  0  0  0
  4  9  1  0  0  0  0
  5  4  1  0  0  0  0
  5 10  1  0  0  0  0
  6  5  2  0  0  0  0
  7  2  1  0  0  0  0
 11  1  1  0  0  0  0
 12 11  2  0  0  0  0
 13 14  2  0  0  0  0
 13 18  1  0  0  0  0
 14 15  1  0  0  0  0
 15 21  1  0  0  0  0
 15 16  2  0  0  0  0
 17 16  1  0  0  0  0
 17 11  1  0  0  0  0
 18 17  2  0  0  0  0
 19 13  1  0  0  0  0
 20 14  1  0  0  0  0
 22  6  1  0  0  0  0
 22 23  2  0  0  0  0
 24 23  1  0  0  0  0
 25 24  1  0  0  0  0
M  END
>  <minimizedAffinity>
-4.71808004

$$$$

 OpenBabel03272509393D

 25 26  0  0  1  0  0  0  0  0999 V2000
   37.0960   24.6280   32.3810 C   0  0  0  0  0  0  0  0  0  0  0  0
   36.9180   25.9860   32.0930 C   0  0  0  0  0  0  0  0  0  0  0  0
   35.8760   26.4440   31.2970 C   0  0  0  0  0  0  0  0  0  0  0  0
   34.9640   25.5420   30.7540 C   0  0  0  0  0  0  0  0  0  0  0  0
   35.1530   24.2130   31.0450 C   0  0  0  0  0  0  0  0  0  0  0  0
   36.1880   23.7780   31.8350 C   0  0  0  0  0  0  0  0  0  0  0  0
   37.6290   26.6850   32.5160 H   0  0  0  0  0  0  0  0  0  0  0  0
   35.8450   27.5100   31.1490 H   0  0  0  0  0  0  0  0  0  0  0  0
   34.1940   26.0000   30.1490 H   0  0  0  0  0  0  0  0  0  0  0  0
   34.3740   23.6460   30.5570 H   0  0  0  0  0  0  0  0  0  0  0  0
   38.2070   24.2400   33.2250 C   0  0  1  0  0  3  0  0  0  0  0  0
   39.3000   24.0240   32.5840 O   0  0  0  0  0  1  0  0  0  0  0  0
   38.1640   25.2550   36.7080 C   0  0  0  0  0  0  0  0  0  0  0  0
   38.0180   24.0630   37.4070 C   0  0  0  0  0  0  0  0  0  0  0  0
   37.9380   22.8920   36.6770 C   0  0  0  0  0  0  0  0  0  0  0  0
   38.0050   22.9450   35.3170 N   0  0  0  0  0  0  0  0  0  0  0  0
   38.1430   24.0960   34.6740 C   0  0  0  0  0  0  0  0  0  0  0  0
   38.2220   25.2430   35.3780 N   0  0  0  0  0  0  0  0  0  0  0  0
   38.2320   26.2060   37.2230 H   0  0  0  0  0  0  0  0  0  0  0  0
   37.9810   24.1790   38.4810 H   0  0  0  0  0  0  0  0  0  0  0  0
   37.8270   21.9840   37.2400 H   0  0  0  0  0  0  0  0  0  0  0  0
   36.2430   22.3480   32.0370 C   0  0  0  0  0  3  0  0  0  0  0  0
   35.2330   21.5250   32.2330 C   0  0  0  0  0  3  0  0  0  0  0  0
   35.1030   20.0800   32.4510 C   0  0  0  0  0  2  0  0  0  0  0  0
   34.9260   19.8480   33.5390 H   0  0  0  0  0  0  0  0  0  0  0  0
  1 11  1  0  0  0  0
  2  1  1  0  0  0  0
  2  7  1  0  0  0  0
  3  2  2  0  0  0  0
  4  5  2  0  0  0  0
  4  3  1  0  0  0  0
  5  6  1  0  0  0  0
  6 22  1  0  0  0  0
  6  1  2  0  0  0  0
  8  3  1  0  0  0  0
  9  4  1  0  0  0  0
 10  5  1  0  0  0  0
 11 12  1  1  0  0  0
 11 17  1  0  0  0  0
 13 19  1  0  0  0  0
 13 14  1  0  0  0  0
 14 20  1  0  0  0  0
 15 21  1  0  0  0  0
 15 14  2  0  0  0  0
 16 15  1  0  0  0  0
 17 16  2  0  0  0  0
 17 18  1  0  0  0  0
 18 13  2  0  0  0  0
 22 23  2  0  0  0  0
 23 24  1  0  0  0  0
 24 25  1  0  0  0  0
M  END
>  <minimizedAffinity>
-4.68534803

$$$$

 OpenBabel03272509393D

 25 26  0  0  0  0  0  0  0  0999 V2000
   37.8930   25.0180   33.8000 C   0  0  0  0  0  0  0  0  0  0  0  0
   37.4770   26.0650   32.9690 C   0  0  0  0  0  0  0  0  0  0  0  0
   37.1970   27.3340   33.4580 C   0  0  0  0  0  0  0  0  0  0  0  0
   37.3280   27.6010   34.8190 C   0  0  0  0  0  0  0  0  0  0  0  0
   37.7370   26.5640   35.6210 C   0  0  0  0  0  0  0  0  0  0  0  0
   38.0100   25.3150   35.1200 C   0  0  0  0  0  0  0  0  0  0  0  0
   37.3760   25.8540   31.9110 H   0  0  0  0  0  0  0  0  0  0  0  0
   36.8860   28.0530   32.7200 H   0  0  0  0  0  0  0  0  0  0  0  0
   37.0850   28.6170   35.0970 H   0  0  0  0  0  0  0  0  0  0  0  0
   37.7900   26.9240   36.6390 H   0  0  0  0  0  0  0  0  0  0  0  0
   38.1690   23.7280   33.2020 C   0  0  0  0  0  0  0  0  0  0  0  0
   39.4010   23.5540   32.8820 O   0  0  0  0  0  0  0  0  0  0  0  0
   35.5950   21.8720   31.4440 C   0  0  0  0  0  0  0  0  0  0  0  0
   35.2850   20.8250   32.3030 C   0  0  0  0  0  0  0  0  0  0  0  0
   35.9630   20.7540   33.5060 C   0  0  0  0  0  0  0  0  0  0  0  0
   36.8970   21.7000   33.8040 N   0  0  0  0  0  0  0  0  0  0  0  0
   37.1750   22.6880   32.9660 C   0  0  0  0  0  0  0  0  0  0  0  0
   36.5190   22.7650   31.7900 N   0  0  0  0  0  0  0  0  0  0  0  0
   35.1000   21.9820   30.4870 H   0  0  0  0  0  0  0  0  0  0  0  0
   34.5230   20.1540   31.9300 H   0  0  0  0  0  0  0  0  0  0  0  0
   35.7050   19.9360   34.1530 H   0  0  0  0  0  0  0  0  0  0  0  0
   38.4240   24.3400   36.1020 C   0  0  0  0  0  3  0  0  0  0  0  0
   38.1440   24.3260   37.3890 C   0  0  0  0  0  3  0  0  0  0  0  0
   38.4700   23.4370   38.5100 C   0  0  0  0  0  2  0  0  0  0  0  0
   39.2910   23.8720   39.1470 H   0  0  0  0  0  0  0  0  0  0  0  0
  1  6  1  0  0  0  0
  2  3  1  0  0  0  0
  2  1  2  0  0  0  0
  3  4  2  0  0  0  0
  4  9  1  0  0  0  0
  4  5  1  0  0  0  0
  5 10  1  0  0  0  0
  6  5  2  0  0  0  0
  6 22  1  0  0  0  0
  7  2  1  0  0  0  0
  8  3  1  0  0  0  0
 11  1  1  0  0  0  0
 12 11  2  0  0  0  0
 13 18  2  0  0  0  0
 13 14  1  0  0  0  0
 14 15  2  0  0  0  0
 15 16  1  0  0  0  0
 15 21  1  0  0  0  0
 17 11  1  0  0  0  0
 17 16  2  0  0  0  0
 18 17  1  0  0  0  0
 19 13  1  0  0  0  0
 20 14  1  0  0  0  0
 22 23  2  0  0  0  0
 23 24  1  0  0  0  0
 24 25  1  0  0  0  0
M  END
>  <minimizedAffinity>
-4.67195415

$$$$

 OpenBabel03272509393D

 25 26  0  0  0  0  0  0  0  0999 V2000
   38.9570   24.4950   35.9280 C   0  0  0  0  0  0  0  0  0  0  0  0
   38.1580   25.6340   36.0790 C   0  0  0  0  0  0  0  0  0  0  0  0
   38.5530   26.8830   35.6170 C   0  0  0  0  0  0  0  0  0  0  0  0
   39.7810   27.0340   34.9780 C   0  0  0  0  0  0  0  0  0  0  0  0
   40.5540   25.9070   34.8380 C   0  0  0  0  0  0  0  0  0  0  0  0
   40.1470   24.6790   35.3010 C   0  0  0  0  0  0  0  0  0  0  0  0
   37.2030   25.5140   36.5760 H   0  0  0  0  0  0  0  0  0  0  0  0
   37.8530   27.6810   35.7920 H   0  0  0  0  0  0  0  0  0  0  0  0
   39.9950   28.0440   34.6590 H   0  0  0  0  0  0  0  0  0  0  0  0
   41.4660   26.1820   34.3290 H   0  0  0  0  0  0  0  0  0  0  0  0
   38.4620   23.2320   36.4360 C   0  0  0  0  0  0  0  0  0  0  0  0
   38.8930   22.9370   37.6100 O   0  0  0  0  0  0  0  0  0  0  0  0
   35.6930   20.9420   35.9360 C   0  0  0  0  0  0  0  0  0  0  0  0
   35.7310   20.6550   34.5770 C   0  0  0  0  0  0  0  0  0  0  0  0
   36.7220   21.2500   33.8190 C   0  0  0  0  0  0  0  0  0  0  0  0
   37.6150   22.0840   34.4210 N   0  0  0  0  0  0  0  0  0  0  0  0
   37.5570   22.3420   35.7200 C   0  0  0  0  0  0  0  0  0  0  0  0
   36.5930   21.7660   36.4670 N   0  0  0  0  0  0  0  0  0  0  0  0
   34.9410   20.5080   36.5840 H   0  0  0  0  0  0  0  0  0  0  0  0
   34.9580   19.9770   34.2440 H   0  0  0  0  0  0  0  0  0  0  0  0
   36.7300   21.0120   32.7710 H   0  0  0  0  0  0  0  0  0  0  0  0
   41.0820   23.6010   35.0750 C   0  0  0  0  0  3  0  0  0  0  0  0
   42.3960   23.6460   35.1580 C   0  0  0  0  0  3  0  0  0  0  0  0
   43.4790   22.6740   34.9690 C   0  0  0  0  0  2  0  0  0  0  0  0
   43.9810   22.8150   33.9700 H   0  0  0  0  0  0  0  0  0  0  0  0
  1  2  1  0  0  0  0
  1 11  1  0  0  0  0
  2  7  1  0  0  0  0
  3  8  1  0  0  0  0
  3  2  2  0  0  0  0
  4  3  1  0  0  0  0
  5  4  2  0  0  0  0
  5  6  1  0  0  0  0
  6  1  2  0  0  0  0
  9  4  1  0  0  0  0
 10  5  1  0  0  0  0
 11 12  2  0  0  0  0
 13 18  1  0  0  0  0
 13 19  1  0  0  0  0
 14 13  2  0  0  0  0
 15 16  2  0  0  0  0
 15 14  1  0  0  0  0
 16 17  1  0  0  0  0
 17 11  1  0  0  0  0
 17 18  2  0  0  0  0
 20 14  1  0  0  0  0
 21 15  1  0  0  0  0
 22 23  2  0  0  0  0
 22  6  1  0  0  0  0
 24 23  1  0  0  0  0
 25 24  1  0  0  0  0
M  END
>  <minimizedAffinity>
-4.66818237

$$$$

 OpenBabel03272509393D

 25 26  0  0  0  0  0  0  0  0999 V2000
   38.5090   24.1060   35.5070 C   0  0  0  0  0  0  0  0  0  0  0  0
   38.6390   23.0100   36.3680 C   0  0  0  0  0  0  0  0  0  0  0  0
   38.4430   23.1180   37.7380 C   0  0  0  0  0  0  0  0  0  0  0  0
   38.1060   24.3460   38.3010 C   0  0  0  0  0  0  0  0  0  0  0  0
   37.9820   25.4120   37.4430 C   0  0  0  0  0  0  0  0  0  0  0  0
   38.1780   25.2870   36.0900 C   0  0  0  0  0  0  0  0  0  0  0  0
   38.9020   22.0560   35.9280 H   0  0  0  0  0  0  0  0  0  0  0  0
   38.5720   22.2050   38.2940 H   0  0  0  0  0  0  0  0  0  0  0  0
   37.9780   24.3230   39.3740 H   0  0  0  0  0  0  0  0  0  0  0  0
   37.7200   26.2840   38.0240 H   0  0  0  0  0  0  0  0  0  0  0  0
   38.7250   23.9020   34.0890 C   0  0  0  0  0  0  0  0  0  0  0  0
   39.9540   24.0030   33.7290 O   0  0  0  0  0  0  0  0  0  0  0  0
   36.3000   21.9180   32.2610 C   0  0  0  0  0  0  0  0  0  0  0  0
   35.7020   22.8260   31.3950 C   0  0  0  0  0  0  0  0  0  0  0  0
   36.1390   24.1370   31.4320 C   0  0  0  0  0  0  0  0  0  0  0  0
   37.1260   24.4890   32.3030 N   0  0  0  0  0  0  0  0  0  0  0  0
   37.6780   23.6040   33.1200 C   0  0  0  0  0  0  0  0  0  0  0  0
   37.2590   22.3220   33.0900 N   0  0  0  0  0  0  0  0  0  0  0  0
   36.0010   20.8770   32.2800 H   0  0  0  0  0  0  0  0  0  0  0  0
   34.9350   22.4000   30.7630 H   0  0  0  0  0  0  0  0  0  0  0  0
   35.6620   24.8190   30.7530 H   0  0  0  0  0  0  0  0  0  0  0  0
   38.0130   26.5080   35.3340 C   0  0  0  0  0  3  0  0  0  0  0  0
   36.8940   27.0080   34.8510 C   0  0  0  0  0  3  0  0  0  0  0  0
   36.5440   28.2050   34.0790 C   0  0  0  0  0  2  0  0  0  0  0  0
   36.3800   27.9550   32.9930 H   0  0  0  0  0  0  0  0  0  0  0  0
  1  6  2  0  0  0  0
  1  2  1  0  0  0  0
  2  3  2  0  0  0  0
  3  8  1  0  0  0  0
  3  4  1  0  0  0  0
  4  9  1  0  0  0  0
  5 10  1  0  0  0  0
  5  4  2  0  0  0  0
  6  5  1  0  0  0  0
  7  2  1  0  0  0  0
 11  1  1  0  0  0  0
 12 11  2  0  0  0  0
 13 19  1  0  0  0  0
 13 18  1  0  0  0  0
 14 15  1  0  0  0  0
 14 13  2  0  0  0  0
 15 16  2  0  0  0  0
 16 17  1  0  0  0  0
 17 11  1  0  0  0  0
 18 17  2  0  0  0  0
 20 14  1  0  0  0  0
 21 15  1  0  0  0  0
 22  6  1  0  0  0  0
 23 22  2  0  0  0  0
 24 23  1  0  0  0  0
 25 24  1  0  0  0  0
M  END
>  <minimizedAffinity>
-4.53687143

$$$$

 OpenBabel03272509393D

 25 26  0  0  0  0  0  0  0  0999 V2000
   38.2210   25.1150   35.4330 C   0  0  0  0  0  0  0  0  0  0  0  0
   38.2270   26.3430   36.1050 C   0  0  0  0  0  0  0  0  0  0  0  0
   37.8930   27.5350   35.4740 C   0  0  0  0  0  0  0  0  0  0  0  0
   37.5360   27.5360   34.1280 C   0  0  0  0  0  0  0  0  0  0  0  0
   37.5350   26.3230   33.4830 C   0  0  0  0  0  0  0  0  0  0  0  0
   37.8670   25.1540   34.1220 C   0  0  0  0  0  0  0  0  0  0  0  0
   38.5050   26.3400   37.1520 H   0  0  0  0  0  0  0  0  0  0  0  0
   37.9350   28.4120   36.0970 H   0  0  0  0  0  0  0  0  0  0  0  0
   37.2960   28.5130   33.7330 H   0  0  0  0  0  0  0  0  0  0  0  0
   37.2400   26.4860   32.4560 H   0  0  0  0  0  0  0  0  0  0  0  0
   38.5770   23.9210   36.1710 C   0  0  0  0  0  0  0  0  0  0  0  0
   37.5820   23.3480   36.7470 O   0  0  0  0  0  0  0  0  0  0  0  0
   41.2420   21.7360   37.3040 C   0  0  0  0  0  0  0  0  0  0  0  0
   42.3640   22.1850   36.6190 C   0  0  0  0  0  0  0  0  0  0  0  0
   42.2090   23.2560   35.7590 C   0  0  0  0  0  0  0  0  0  0  0  0
   40.9800   23.8270   35.6150 N   0  0  0  0  0  0  0  0  0  0  0  0
   39.9250   23.3780   36.2800 C   0  0  0  0  0  0  0  0  0  0  0  0
   40.0670   22.3340   37.1220 N   0  0  0  0  0  0  0  0  0  0  0  0
   41.2980   20.9010   37.9920 H   0  0  0  0  0  0  0  0  0  0  0  0
   43.2680   21.6340   36.8360 H   0  0  0  0  0  0  0  0  0  0  0  0
   43.0910   23.5860   35.2420 H   0  0  0  0  0  0  0  0  0  0  0  0
   37.8180   23.9700   33.2950 C   0  0  0  0  0  3  0  0  0  0  0  0
   37.0680   23.7630   32.2320 C   0  0  0  0  0  3  0  0  0  0  0  0
   36.8910   22.6510   31.2910 C   0  0  0  0  0  2  0  0  0  0  0  0
   35.9520   22.0730   31.5180 H   0  0  0  0  0  0  0  0  0  0  0  0
  1  2  1  0  0  0  0
  1 11  1  0  0  0  0
  2  7  1  0  0  0  0
  3  8  1  0  0  0  0
  3  2  2  0  0  0  0
  4  3  1  0  0  0  0
  5  6  1  0  0  0  0
  5  4  2  0  0  0  0
  6  1  2  0  0  0  0
  9  4  1  0  0  0  0
 10  5  1  0  0  0  0
 11 17  1  0  0  0  0
 11 12  2  0  0  0  0
 13 19  1  0  0  0  0
 14 20  1  0  0  0  0
 14 13  2  0  0  0  0
 15 14  1  0  0  0  0
 16 15  2  0  0  0  0
 16 17  1  0  0  0  0
 17 18  2  0  0  0  0
 18 13  1  0  0  0  0
 21 15  1  0  0  0  0
 22  6  1  0  0  0  0
 23 22  2  0  0  0  0
 24 25  1  0  0  0  0
 24 23  1  0  0  0  0
M  END
>  <minimizedAffinity>
-4.52720118

$$$$
