
 OpenBabel03272509503D

 28 29  0  0  0  0  0  0  0  0999 V2000
   33.7360   28.6030   48.7410 C   0  0  0  0  0  0  0  0  0  0  0  0
   34.1940   29.1240   47.8920 H   0  0  0  0  0  0  0  0  0  0  0  0
   33.1130   29.3600   49.2900 H   0  0  0  0  0  0  0  0  0  0  0  0
   32.8300   27.4860   48.3310 C   0  0  0  0  0  0  0  0  0  0  0  0
   33.0730   27.1490   47.2860 H   0  0  0  0  0  0  0  0  0  0  0  0
   32.9660   26.5850   48.9770 H   0  0  0  0  0  0  0  0  0  0  0  0
   31.3960   27.8730   48.3350 C   0  0  0  0  0  0  0  0  0  0  0  0
   30.7160   27.7400   49.5200 C   0  0  0  0  0  0  0  0  0  0  0  0
   29.3820   28.0660   49.6540 C   0  0  0  0  0  0  0  0  0  0  0  0
   28.7270   28.5280   48.5960 N   0  0  0  0  0  0  0  0  0  0  0  0
   29.3980   28.6630   47.4170 C   0  0  0  0  0  0  0  0  0  0  0  0
   30.7000   28.3470   47.2790 N   0  0  0  0  0  0  0  0  0  0  0  0
   31.2080   27.3660   50.4140 H   0  0  0  0  0  0  0  0  0  0  0  0
   28.8700   27.9520   50.5940 H   0  0  0  0  0  0  0  0  0  0  0  0
   28.9290   29.0340   46.5100 H   0  0  0  0  0  0  0  0  0  0  0  0
   34.6990   28.1510   49.6850 O   0  0  0  0  0  0  0  0  0  0  0  0
   37.1770   30.1690   51.3790 C   0  0  0  0  0  0  0  0  0  0  0  0
   37.8700   30.6810   50.2770 C   0  0  0  0  0  0  0  0  0  0  0  0
   37.4540   30.3110   48.9950 C   0  0  0  0  0  0  0  0  0  0  0  0
   36.3790   29.4560   48.9070 N   0  0  0  0  0  0  0  0  0  0  0  0
   35.7390   28.9840   49.9910 C   0  0  0  0  0  0  0  0  0  0  0  0
   36.1490   29.3500   51.2250 N   0  0  0  0  0  0  0  0  0  0  0  0
   37.5430   30.4910   52.3460 H   0  0  0  0  0  0  0  0  0  0  0  0
   38.7170   31.3540   50.3430 H   0  0  0  0  0  0  0  0  0  0  0  0
   38.1020   30.7840   47.7620 C   0  0  0  0  0  3  0  0  0  0  0  0
   38.7640   31.9290   47.7120 C   0  0  0  0  0  3  0  0  0  0  0  0
   39.3780   32.3000   46.4040 C   0  0  0  0  0  2  0  0  0  0  0  0
   38.6800   32.0210   45.5960 H   0  0  0  0  0  0  0  0  0  0  0  0
  1  3  1  0  0  0  0
  1 16  1  0  0  0  0
  2  1  1  0  0  0  0
  4  7  1  0  0  0  0
  4  1  1  0  0  0  0
  4  6  1  0  0  0  0
  5  4  1  0  0  0  0
  7  8  1  0  0  0  0
  8  9  2  0  0  0  0
  8 13  1  0  0  0  0
  9 14  1  0  0  0  0
 10  9  1  0  0  0  0
 11 10  2  0  0  0  0
 12 11  1  0  0  0  0
 12  7  2  0  0  0  0
 15 11  1  0  0  0  0
 16 21  1  0  0  0  0
 17 23  1  0  0  0  0
 18 24  1  0  0  0  0
 18 17  2  0  0  0  0
 19 18  1  0  0  0  0
 20 19  2  0  0  0  0
 20 21  1  0  0  0  0
 21 22  2  0  0  0  0
 22 17  1  0  0  0  0
 25 19  1  0  0  0  0
 26 25  2  0  0  0  0
 27 26  1  0  0  0  0
 28 27  1  0  0  0  0
M  END
>  <minimizedAffinity>
-5.28173494

>  <minimizedRMSD>
0.152908593

$$$$
