
 OpenBabel03272500583D

 30 31  0  0  0  0  0  0  0  0999 V2000
   38.1110   31.8850   47.4150 C   0  0  0  0  0  0  0  0  0  0  0  0
   38.5830   32.7940   48.3220 C   0  0  0  0  0  0  0  0  0  0  0  0
   38.0840   32.8730   49.6280 C   0  0  0  0  0  0  0  0  0  0  0  0
   37.0330   31.9420   49.9910 C   0  0  0  0  0  0  0  0  0  0  0  0
   36.6130   31.0680   49.0460 C   0  0  0  0  0  0  0  0  0  0  0  0
   37.0970   31.0010   47.7940 C   0  0  0  0  0  0  0  0  0  0  0  0
   39.3810   33.5090   48.0660 H   0  0  0  0  0  0  0  0  0  0  0  0
   38.5060   33.6220   50.2960 H   0  0  0  0  0  0  0  0  0  0  0  0
   36.7610   32.1220   51.0010 H   0  0  0  0  0  0  0  0  0  0  0  0
   35.8650   30.4710   49.5430 H   0  0  0  0  0  0  0  0  0  0  0  0
   39.9950   31.2700   45.9910 C   0  0  0  0  0  0  0  0  0  0  0  0
   38.7430   31.9120   46.1130 C   0  0  0  0  0  0  0  0  0  0  0  0
   38.2760   32.4860   44.9570 C   0  0  0  0  0  0  0  0  0  0  0  0
   38.9930   32.4150   43.8200 N   0  0  0  0  0  0  0  0  0  0  0  0
   40.1550   31.8150   43.7250 C   0  0  0  0  0  0  0  0  0  0  0  0
   40.6540   31.2430   44.8090 N   0  0  0  0  0  0  0  0  0  0  0  0
   40.4430   30.7900   46.8520 H   0  0  0  0  0  0  0  0  0  0  0  0
   37.3050   32.9840   45.0520 H   0  0  0  0  0  0  0  0  0  0  0  0
   40.7120   31.7710   42.7990 H   0  0  0  0  0  0  0  0  0  0  0  0
   35.1660   29.9560   46.9520 C   0  0  0  0  0  0  0  0  0  0  0  0
   34.5270   30.6150   47.8660 O   0  0  0  0  0  0  0  0  0  0  0  0
   36.6070   30.1060   46.8770 N   0  0  0  0  0  0  0  0  0  0  0  0
   37.1840   29.5920   46.2100 H   0  0  0  0  0  0  0  0  0  0  0  0
   34.4630   29.1500   46.1010 O   0  0  0  0  0  0  0  0  0  0  0  0
   33.3710   29.5520   45.3400 C   0  0  0  0  0  0  0  0  0  0  0  0
   33.3640   30.6970   44.6900 O   0  0  0  0  0  0  0  0  0  0  0  0
   32.1650   28.7010   45.2020 C   0  0  0  0  0  3  0  0  0  0  0  0
   31.8950   28.0080   44.1240 C   0  0  0  0  0  3  0  0  0  0  0  0
   30.7020   27.1410   43.9360 C   0  0  0  0  0  2  0  0  0  0  0  0
   30.0020   27.1600   44.7840 H   0  0  0  0  0  0  0  0  0  0  0  0
  1  6  2  0  0  0  0
  1  2  1  0  0  0  0
  2  3  2  0  0  0  0
  3  4  1  0  0  0  0
  3  8  1  0  0  0  0
  4  9  1  0  0  0  0
  5 10  1  0  0  0  0
  5  4  2  0  0  0  0
  6  5  1  0  0  0  0
  7  2  1  0  0  0  0
 11 12  1  0  0  0  0
 11 17  1  0  0  0  0
 12  1  1  0  0  0  0
 13 18  1  0  0  0  0
 13 12  2  0  0  0  0
 14 13  1  0  0  0  0
 15 14  2  0  0  0  0
 15 16  1  0  0  0  0
 16 11  2  0  0  0  0
 19 15  1  0  0  0  0
 20 21  2  0  0  0  0
 22 20  1  0  0  0  0
 22  6  1  0  0  0  0
 23 22  1  0  0  0  0
 24 20  1  0  0  0  0
 25 24  1  0  0  0  0
 26 25  2  0  0  0  0
 27 25  1  0  0  0  0
 28 27  2  0  0  0  0
 29 28  1  0  0  0  0
 29 30  1  0  0  0  0
M  END
>  <minimizedAffinity>
-4.95261335

>  <minimizedRMSD>
0.0204486381

$$$$
