
 OpenBabel03272500583D

 30 31  0  0  0  0  0  0  0  0999 V2000
   38.1620   31.8750   47.3990 C   0  0  0  0  0  0  0  0  0  0  0  0
   38.6850   32.7490   48.3120 C   0  0  0  0  0  0  0  0  0  0  0  0
   38.2210   32.8180   49.6310 C   0  0  0  0  0  0  0  0  0  0  0  0
   37.1490   31.9140   50.0020 C   0  0  0  0  0  0  0  0  0  0  0  0
   36.6780   31.0740   49.0500 C   0  0  0  0  0  0  0  0  0  0  0  0
   37.1290   31.0170   47.7860 C   0  0  0  0  0  0  0  0  0  0  0  0
   39.5000   33.4430   48.0500 H   0  0  0  0  0  0  0  0  0  0  0  0
   38.6830   33.5390   50.3030 H   0  0  0  0  0  0  0  0  0  0  0  0
   36.9070   32.0830   51.0210 H   0  0  0  0  0  0  0  0  0  0  0  0
   35.9230   30.4920   49.5540 H   0  0  0  0  0  0  0  0  0  0  0  0
   40.0050   31.2540   45.9250 C   0  0  0  0  0  0  0  0  0  0  0  0
   38.7640   31.9080   46.0830 C   0  0  0  0  0  0  0  0  0  0  0  0
   38.2750   32.4990   44.9440 C   0  0  0  0  0  0  0  0  0  0  0  0
   38.9640   32.4310   43.7890 N   0  0  0  0  0  0  0  0  0  0  0  0
   40.1170   31.8190   43.6610 C   0  0  0  0  0  0  0  0  0  0  0  0
   40.6360   31.2310   44.7280 N   0  0  0  0  0  0  0  0  0  0  0  0
   40.4680   30.7610   46.7700 H   0  0  0  0  0  0  0  0  0  0  0  0
   37.3130   33.0060   45.0670 H   0  0  0  0  0  0  0  0  0  0  0  0
   40.6510   31.7790   42.7220 H   0  0  0  0  0  0  0  0  0  0  0  0
   35.1490   30.0250   46.9950 C   0  0  0  0  0  0  0  0  0  0  0  0
   34.5590   30.6640   47.9550 O   0  0  0  0  0  0  0  0  0  0  0  0
   36.5880   30.1570   46.8640 N   0  0  0  0  0  0  0  0  0  0  0  0
   37.1290   29.6560   46.1580 H   0  0  0  0  0  0  0  0  0  0  0  0
   34.4000   29.2540   46.1510 O   0  0  0  0  0  0  0  0  0  0  0  0
   33.2330   29.6670   45.5180 C   0  0  0  0  0  0  0  0  0  0  0  0
   33.2580   30.3510   44.3930 O   0  0  0  0  0  0  0  0  0  0  0  0
   31.8950   29.3390   46.0660 C   0  0  0  0  0  3  0  0  0  0  0  0
   31.6950   28.4030   46.9600 C   0  0  0  0  0  3  0  0  0  0  0  0
   30.3770   28.0350   47.5410 C   0  0  0  0  0  2  0  0  0  0  0  0
   29.5320   28.5950   47.1140 H   0  0  0  0  0  0  0  0  0  0  0  0
  1  6  2  0  0  0  0
  1  2  1  0  0  0  0
  2  3  2  0  0  0  0
  3  4  1  0  0  0  0
  3  8  1  0  0  0  0
  4  9  1  0  0  0  0
  5 10  1  0  0  0  0
  5  4  2  0  0  0  0
  6  5  1  0  0  0  0
  7  2  1  0  0  0  0
 11 12  1  0  0  0  0
 11 17  1  0  0  0  0
 12  1  1  0  0  0  0
 13 18  1  0  0  0  0
 13 12  2  0  0  0  0
 14 13  1  0  0  0  0
 15 14  2  0  0  0  0
 15 16  1  0  0  0  0
 16 11  2  0  0  0  0
 19 15  1  0  0  0  0
 20 21  2  0  0  0  0
 22 20  1  0  0  0  0
 22  6  1  0  0  0  0
 23 22  1  0  0  0  0
 24 20  1  0  0  0  0
 25 27  1  0  0  0  0
 25 24  1  0  0  0  0
 26 25  2  0  0  0  0
 27 28  2  0  0  0  0
 28 29  1  0  0  0  0
 30 29  1  0  0  0  0
M  END
>  <minimizedAffinity>
-5.24508286

>  <minimizedRMSD>
0.750014305

$$$$
