
 OpenBabel03272509533D

 38 40  0  0  0  0  0  0  0  0999 V2000
   37.2850   30.1350   51.4820 C   0  0  0  0  0  0  0  0  0  0  0  0
   38.0430   30.8420   50.5170 C   0  0  0  0  0  0  0  0  0  0  0  0
   37.6950   30.6630   49.1870 C   0  0  0  0  0  0  0  0  0  0  0  0
   36.6450   29.8190   48.9230 N   0  0  0  0  0  0  0  0  0  0  0  0
   35.9530   29.1710   49.8560 C   0  0  0  0  0  0  0  0  0  0  0  0
   36.2860   29.3390   51.1550 N   0  0  0  0  0  0  0  0  0  0  0  0
   37.6180   30.3270   52.5010 H   0  0  0  0  0  0  0  0  0  0  0  0
   38.8680   31.5050   50.7300 H   0  0  0  0  0  0  0  0  0  0  0  0
   38.8870   33.2980   49.0590 F   0  0  0  0  0  0  0  0  0  0  0  0
   38.9040   32.5180   47.9820 C   0  0  0  0  0  0  0  0  0  0  0  0
   38.3430   31.2920   48.0600 C   0  0  0  0  0  0  0  0  0  0  0  0
   38.4200   30.5690   46.8790 C   0  0  0  0  0  0  0  0  0  0  0  0
   39.0120   31.0580   45.7430 C   0  0  0  0  0  0  0  0  0  0  0  0
   39.5660   32.3040   45.7070 C   0  0  0  0  0  0  0  0  0  0  0  0
   39.5060   33.0440   46.8600 C   0  0  0  0  0  0  0  0  0  0  0  0
   38.0160   29.5550   46.7640 H   0  0  0  0  0  0  0  0  0  0  0  0
   39.0700   30.4810   44.8110 H   0  0  0  0  0  0  0  0  0  0  0  0
   40.0370   32.7110   44.8240 H   0  0  0  0  0  0  0  0  0  0  0  0
   39.9390   34.0350   46.8580 H   0  0  0  0  0  0  0  0  0  0  0  0
   34.9650   28.3960   49.3490 O   0  0  0  0  0  0  0  0  0  0  0  0
   34.3860   28.7560   48.0920 C   0  0  0  0  0  0  0  0  0  0  0  0
   35.1640   29.0770   47.3740 H   0  0  0  0  0  0  0  0  0  0  0  0
   33.7490   29.6410   48.3010 H   0  0  0  0  0  0  0  0  0  0  0  0
   33.5090   27.6580   47.5840 C   0  0  0  0  0  0  0  0  0  0  0  0
   33.7880   26.6560   47.9250 H   0  0  0  0  0  0  0  0  0  0  0  0
   33.6550   27.6320   46.4640 H   0  0  0  0  0  0  0  0  0  0  0  0
   32.0600   27.9360   47.7650 C   0  0  0  0  0  0  0  0  0  0  0  0
   31.4560   27.5020   48.9490 C   0  0  0  0  0  0  0  0  0  0  0  0
   30.1280   27.7190   49.1910 C   0  0  0  0  0  0  0  0  0  0  0  0
   29.3950   28.3500   48.2970 N   0  0  0  0  0  0  0  0  0  0  0  0
   29.9880   28.7750   47.1400 C   0  0  0  0  0  0  0  0  0  0  0  0
   31.2890   28.5840   46.8570 N   0  0  0  0  0  0  0  0  0  0  0  0
   32.0730   26.9820   49.6780 H   0  0  0  0  0  0  0  0  0  0  0  0
   29.6350   27.3900   50.1070 H   0  0  0  0  0  0  0  0  0  0  0  0
   29.1320   29.4680   46.1820 C   0  0  0  0  0  3  0  0  0  0  0  0
   27.9210   29.8460   46.4690 C   0  0  0  0  0  3  0  0  0  0  0  0
   27.0320   30.5580   45.4980 C   0  0  0  0  0  2  0  0  0  0  0  0
   27.5480   30.5140   44.5150 H   0  0  0  0  0  0  0  0  0  0  0  0
  1  7  1  0  0  0  0
  2  8  1  0  0  0  0
  2  1  2  0  0  0  0
  3  2  1  0  0  0  0
  4  3  2  0  0  0  0
  4  5  1  0  0  0  0
  5  6  2  0  0  0  0
  6  1  1  0  0  0  0
 10 11  1  0  0  0  0
 10  9  1  0  0  0  0
 11  3  1  0  0  0  0
 12 11  2  0  0  0  0
 13 12  1  0  0  0  0
 14 13  2  0  0  0  0
 14 15  1  0  0  0  0
 15 10  2  0  0  0  0
 16 12  1  0  0  0  0
 17 13  1  0  0  0  0
 18 14  1  0  0  0  0
 19 15  1  0  0  0  0
 20  5  1  0  0  0  0
 21 23  1  0  0  0  0
 21 20  1  0  0  0  0
 22 21  1  0  0  0  0
 24 27  1  0  0  0  0
 24 25  1  0  0  0  0
 24 21  1  0  0  0  0
 26 24  1  0  0  0  0
 27 28  1  0  0  0  0
 28 29  2  0  0  0  0
 28 33  1  0  0  0  0
 29 34  1  0  0  0  0
 30 29  1  0  0  0  0
 31 30  2  0  0  0  0
 32 31  1  0  0  0  0
 32 27  2  0  0  0  0
 35 36  2  0  0  0  0
 35 31  1  0  0  0  0
 37 36  1  0  0  0  0
 38 37  1  0  0  0  0
M  END
>  <minimizedAffinity>
-6.39720917

>  <minimizedRMSD>
0.344367623

$$$$
