
 OpenBabel03262523373D

 29 30  0  0  1  0  0  0  0  0999 V2000
   37.8520   26.2260   33.3880 C   0  0  2  0  0  0  0  0  0  0  0  0
   38.6060   25.1670   34.1670 C   0  0  0  0  0  0  0  0  0  0  0  0
   38.2510   25.1500   35.6240 C   0  0  2  0  0  0  0  0  0  0  0  0
   38.3950   26.4950   36.2890 C   0  0  0  0  0  0  0  0  0  0  0  0
   37.9300   27.6330   35.4320 C   0  0  0  0  0  0  0  0  0  0  0  0
   37.0890   27.1600   34.2630 C   0  0  0  0  0  0  0  0  0  0  0  0
   38.5870   26.7760   32.7740 H   0  0  0  0  0  0  0  0  0  0  0  0
   38.3600   24.1870   33.7540 H   0  0  0  0  0  0  0  0  0  0  0  0
   39.6960   25.3300   34.1020 H   0  0  0  0  0  0  0  0  0  0  0  0
   37.2110   24.7790   35.7060 H   0  0  0  0  0  0  0  0  0  0  0  0
   37.6900   26.4690   37.1680 H   0  0  0  0  0  0  0  0  0  0  0  0
   39.3990   26.6410   36.7270 H   0  0  0  0  0  0  0  0  0  0  0  0
   37.4120   28.4350   35.9750 H   0  0  0  0  0  0  0  0  0  0  0  0
   38.8630   28.0560   34.9560 H   0  0  0  0  0  0  0  0  0  0  0  0
   36.1900   26.6760   34.7070 H   0  0  0  0  0  0  0  0  0  0  0  0
   36.7720   28.0570   33.7200 H   0  0  0  0  0  0  0  0  0  0  0  0
   36.8860   25.5740   32.4550 C   0  0  0  0  0  0  0  0  0  0  0  0
   37.0040   24.1800   32.3110 C   0  0  0  0  0  0  0  0  0  0  0  0
   36.1130   23.5620   31.4320 C   0  0  0  0  0  0  0  0  0  0  0  0
   35.1840   24.3370   30.7670 N   0  0  0  0  0  0  0  0  0  0  0  0
   35.1080   25.6740   30.9370 C   0  0  0  0  0  0  0  0  0  0  0  0
   35.9660   26.2710   31.7830 N   0  0  0  0  0  0  0  0  0  0  0  0
   37.7010   23.5360   32.7960 H   0  0  0  0  0  0  0  0  0  0  0  0
   36.1500   22.4910   31.2750 H   0  0  0  0  0  0  0  0  0  0  0  0
   34.3450   26.1870   30.3690 H   0  0  0  0  0  0  0  0  0  0  0  0
   39.2400   24.2580   36.2960 C   0  0  0  0  0  3  0  0  0  0  0  0
   38.9440   23.3730   37.2290 C   0  0  0  0  0  3  0  0  0  0  0  0
   37.5270   23.2470   37.6440 C   0  0  0  0  0  2  0  0  0  0  0  0
   36.9060   23.1130   36.7310 H   0  0  0  0  0  0  0  0  0  0  0  0
  1  7  1  6  0  0  0
  1  2  1  0  0  0  0
  1  6  1  0  0  0  0
  2  3  1  0  0  0  0
  3 10  1  1  0  0  0
  3  4  1  0  0  0  0
  3 26  1  0  0  0  0
  4 12  1  0  0  0  0
  4 11  1  0  0  0  0
  5 13  1  0  0  0  0
  5  4  1  0  0  0  0
  6 15  1  0  0  0  0
  6  5  1  0  0  0  0
  8  2  1  0  0  0  0
  9  2  1  0  0  0  0
 14  5  1  0  0  0  0
 16  6  1  0  0  0  0
 17  1  1  0  0  0  0
 18 17  1  0  0  0  0
 18 23  1  0  0  0  0
 19 18  2  0  0  0  0
 20 21  2  0  0  0  0
 20 19  1  0  0  0  0
 21 22  1  0  0  0  0
 22 17  2  0  0  0  0
 24 19  1  0  0  0  0
 25 21  1  0  0  0  0
 26 27  2  0  0  0  0
 27 28  1  0  0  0  0
 29 28  1  0  0  0  0
M  END
>  <minimizedAffinity>
-4.49516726

$$$$

 OpenBabel03262523373D

 29 30  0  0  1  0  0  0  0  0999 V2000
   37.4580   26.9470   33.2270 C   0  0  2  0  0  0  0  0  0  0  0  0
   38.9620   26.7790   33.1430 C   0  0  0  0  0  0  0  0  0  0  0  0
   39.5770   26.3570   34.4430 C   0  0  2  0  0  0  0  0  0  0  0  0
   39.2120   27.2570   35.5960 C   0  0  0  0  0  0  0  0  0  0  0  0
   37.7820   27.7040   35.5700 C   0  0  0  0  0  0  0  0  0  0  0  0
   36.9410   26.8710   34.6230 C   0  0  0  0  0  0  0  0  0  0  0  0
   37.2030   27.9190   32.7680 H   0  0  0  0  0  0  0  0  0  0  0  0
   39.1860   26.0090   32.4030 H   0  0  0  0  0  0  0  0  0  0  0  0
   39.4480   27.7250   32.8470 H   0  0  0  0  0  0  0  0  0  0  0  0
   39.2550   25.3160   34.6390 H   0  0  0  0  0  0  0  0  0  0  0  0
   39.3130   26.6170   36.5170 H   0  0  0  0  0  0  0  0  0  0  0  0
   39.9400   28.0780   35.7340 H   0  0  0  0  0  0  0  0  0  0  0  0
   37.3020   27.7630   36.5560 H   0  0  0  0  0  0  0  0  0  0  0  0
   37.7940   28.7330   35.1050 H   0  0  0  0  0  0  0  0  0  0  0  0
   36.9680   25.8320   35.0220 H   0  0  0  0  0  0  0  0  0  0  0  0
   35.9160   27.2480   34.6980 H   0  0  0  0  0  0  0  0  0  0  0  0
   36.7850   25.8820   32.4270 C   0  0  0  0  0  0  0  0  0  0  0  0
   35.7700   26.3080   31.5520 C   0  0  0  0  0  0  0  0  0  0  0  0
   35.1280   25.3180   30.8070 C   0  0  0  0  0  0  0  0  0  0  0  0
   35.5150   24.0030   30.9670 N   0  0  0  0  0  0  0  0  0  0  0  0
   36.4970   23.6400   31.8200 C   0  0  0  0  0  0  0  0  0  0  0  0
   37.1170   24.5930   32.5390 N   0  0  0  0  0  0  0  0  0  0  0  0
   35.4300   27.3050   31.3920 H   0  0  0  0  0  0  0  0  0  0  0  0
   34.3360   25.5790   30.1140 H   0  0  0  0  0  0  0  0  0  0  0  0
   36.7230   22.5850   31.8700 H   0  0  0  0  0  0  0  0  0  0  0  0
   41.0540   26.4870   34.2810 C   0  0  0  0  0  3  0  0  0  0  0  0
   41.9320   25.5550   34.6030 C   0  0  0  0  0  3  0  0  0  0  0  0
   41.4210   24.2830   35.1680 C   0  0  0  0  0  2  0  0  0  0  0  0
   40.6300   23.8930   34.4900 H   0  0  0  0  0  0  0  0  0  0  0  0
  1  7  1  6  0  0  0
  1  6  1  0  0  0  0
  2  1  1  0  0  0  0
  2  3  1  0  0  0  0
  3 10  1  1  0  0  0
  3  4  1  0  0  0  0
  4 12  1  0  0  0  0
  4 11  1  0  0  0  0
  5  4  1  0  0  0  0
  5 13  1  0  0  0  0
  6 16  1  0  0  0  0
  6 15  1  0  0  0  0
  6  5  1  0  0  0  0
  8  2  1  0  0  0  0
  9  2  1  0  0  0  0
 14  5  1  0  0  0  0
 17 22  1  0  0  0  0
 17  1  1  0  0  0  0
 18 17  2  0  0  0  0
 19 20  2  0  0  0  0
 19 18  1  0  0  0  0
 20 21  1  0  0  0  0
 21 25  1  0  0  0  0
 21 22  2  0  0  0  0
 23 18  1  0  0  0  0
 24 19  1  0  0  0  0
 26  3  1  0  0  0  0
 26 27  2  0  0  0  0
 27 28  1  0  0  0  0
 29 28  1  0  0  0  0
M  END
>  <minimizedAffinity>
-4.46148539

$$$$

 OpenBabel03262523373D

 29 30  0  0  1  0  0  0  0  0999 V2000
   39.7700   22.3920   36.5040 C   0  0  2  0  0  0  0  0  0  0  0  0
   38.9070   23.3340   35.6880 C   0  0  0  0  0  0  0  0  0  0  0  0
   38.5980   24.6140   36.4060 C   0  0  2  0  0  0  0  0  0  0  0  0
   37.9970   24.4010   37.7720 C   0  0  0  0  0  0  0  0  0  0  0  0
   38.6240   23.2680   38.5260 C   0  0  0  0  0  0  0  0  0  0  0  0
   39.9440   22.8380   37.9150 C   0  0  0  0  0  0  0  0  0  0  0  0
   39.3030   21.3920   36.4650 H   0  0  0  0  0  0  0  0  0  0  0  0
   39.4390   23.5880   34.7700 H   0  0  0  0  0  0  0  0  0  0  0  0
   37.9410   22.8640   35.4340 H   0  0  0  0  0  0  0  0  0  0  0  0
   39.5400   25.1900   36.4750 H   0  0  0  0  0  0  0  0  0  0  0  0
   38.2500   25.3310   38.3560 H   0  0  0  0  0  0  0  0  0  0  0  0
   36.8920   24.3680   37.7450 H   0  0  0  0  0  0  0  0  0  0  0  0
   38.7420   23.4440   39.6040 H   0  0  0  0  0  0  0  0  0  0  0  0
   37.9400   22.3840   38.3710 H   0  0  0  0  0  0  0  0  0  0  0  0
   40.6200   23.7190   37.9950 H   0  0  0  0  0  0  0  0  0  0  0  0
   40.3370   22.0370   38.5500 H   0  0  0  0  0  0  0  0  0  0  0  0
   41.1230   22.2820   35.8840 C   0  0  0  0  0  0  0  0  0  0  0  0
   42.1990   22.7690   36.6480 C   0  0  0  0  0  0  0  0  0  0  0  0
   43.4670   22.6810   36.0720 C   0  0  0  0  0  0  0  0  0  0  0  0
   43.5930   22.1330   34.8110 N   0  0  0  0  0  0  0  0  0  0  0  0
   42.5300   21.6770   34.1150 C   0  0  0  0  0  0  0  0  0  0  0  0
   41.3070   21.7610   34.6680 N   0  0  0  0  0  0  0  0  0  0  0  0
   42.1580   23.2030   37.6200 H   0  0  0  0  0  0  0  0  0  0  0  0
   44.3390   23.0380   36.6070 H   0  0  0  0  0  0  0  0  0  0  0  0
   42.7370   21.2670   33.1370 H   0  0  0  0  0  0  0  0  0  0  0  0
   37.5480   25.3100   35.6070 C   0  0  0  0  0  3  0  0  0  0  0  0
   37.5910   26.5810   35.2540 C   0  0  0  0  0  3  0  0  0  0  0  0
   38.7630   27.3830   35.6770 C   0  0  0  0  0  2  0  0  0  0  0  0
   39.6850   26.8370   35.3780 H   0  0  0  0  0  0  0  0  0  0  0  0
  1  7  1  1  0  0  0
  1  6  1  0  0  0  0
  2  3  1  0  0  0  0
  2  1  1  0  0  0  0
  3 10  1  1  0  0  0
  3  4  1  0  0  0  0
  4 11  1  0  0  0  0
  4  5  1  0  0  0  0
  5 13  1  0  0  0  0
  6 15  1  0  0  0  0
  6  5  1  0  0  0  0
  6 16  1  0  0  0  0
  8  2  1  0  0  0  0
  9  2  1  0  0  0  0
 12  4  1  0  0  0  0
 14  5  1  0  0  0  0
 17  1  1  0  0  0  0
 17 18  1  0  0  0  0
 18 23  1  0  0  0  0
 19 24  1  0  0  0  0
 19 18  2  0  0  0  0
 20 19  1  0  0  0  0
 21 22  1  0  0  0  0
 21 20  2  0  0  0  0
 22 17  2  0  0  0  0
 25 21  1  0  0  0  0
 26  3  1  0  0  0  0
 27 26  2  0  0  0  0
 27 28  1  0  0  0  0
 29 28  1  0  0  0  0
M  END
>  <minimizedAffinity>
-4.4527812

$$$$

 OpenBabel03262523373D

 29 30  0  0  1  0  0  0  0  0999 V2000
   38.8710   22.9340   35.7600 C   0  0  2  0  0  0  0  0  0  0  0  0
   38.4120   24.3110   36.1950 C   0  0  0  0  0  0  0  0  0  0  0  0
   38.8430   25.3960   35.2540 C   0  0  2  0  0  0  0  0  0  0  0  0
   40.3270   25.3970   34.9850 C   0  0  0  0  0  0  0  0  0  0  0  0
   40.9040   24.0220   34.8370 C   0  0  0  0  0  0  0  0  0  0  0  0
   39.8300   22.9730   34.6210 C   0  0  0  0  0  0  0  0  0  0  0  0
   39.3260   22.4400   36.6370 H   0  0  0  0  0  0  0  0  0  0  0  0
   37.3210   24.3200   36.2340 H   0  0  0  0  0  0  0  0  0  0  0  0
   38.8170   24.5670   37.1900 H   0  0  0  0  0  0  0  0  0  0  0  0
   38.2730   25.2650   34.3150 H   0  0  0  0  0  0  0  0  0  0  0  0
   40.4470   25.8860   33.9780 H   0  0  0  0  0  0  0  0  0  0  0  0
   40.8810   26.0450   35.6890 H   0  0  0  0  0  0  0  0  0  0  0  0
   41.6850   23.9320   34.0700 H   0  0  0  0  0  0  0  0  0  0  0  0
   41.3470   23.7680   35.8440 H   0  0  0  0  0  0  0  0  0  0  0  0
   39.3300   23.2400   33.6630 H   0  0  0  0  0  0  0  0  0  0  0  0
   40.3470   22.0160   34.4910 H   0  0  0  0  0  0  0  0  0  0  0  0
   37.6940   22.1160   35.3450 C   0  0  0  0  0  0  0  0  0  0  0  0
   37.5630   21.8680   33.9680 C   0  0  0  0  0  0  0  0  0  0  0  0
   36.4590   21.1130   33.5680 C   0  0  0  0  0  0  0  0  0  0  0  0
   35.5740   20.6630   34.5270 N   0  0  0  0  0  0  0  0  0  0  0  0
   35.7400   20.9270   35.8410 C   0  0  0  0  0  0  0  0  0  0  0  0
   36.8040   21.6530   36.2280 N   0  0  0  0  0  0  0  0  0  0  0  0
   38.2120   22.1920   33.1870 H   0  0  0  0  0  0  0  0  0  0  0  0
   36.2990   20.8860   32.5210 H   0  0  0  0  0  0  0  0  0  0  0  0
   34.9910   20.5280   36.5080 H   0  0  0  0  0  0  0  0  0  0  0  0
   38.5550   26.6920   35.9330 C   0  0  0  0  0  3  0  0  0  0  0  0
   37.7700   27.6370   35.4490 C   0  0  0  0  0  3  0  0  0  0  0  0
   37.1230   27.4000   34.1370 C   0  0  0  0  0  2  0  0  0  0  0  0
   36.6120   26.4120   34.1730 H   0  0  0  0  0  0  0  0  0  0  0  0
  1  2  1  0  0  0  0
  1  7  1  1  0  0  0
  2  8  1  0  0  0  0
  2  9  1  0  0  0  0
  3 10  1  6  0  0  0
  3 26  1  0  0  0  0
  3  2  1  0  0  0  0
  4  3  1  0  0  0  0
  4 12  1  0  0  0  0
  5  4  1  0  0  0  0
  5 14  1  0  0  0  0
  6  5  1  0  0  0  0
  6  1  1  0  0  0  0
 11  4  1  0  0  0  0
 13  5  1  0  0  0  0
 15  6  1  0  0  0  0
 16  6  1  0  0  0  0
 17  1  1  0  0  0  0
 17 22  1  0  0  0  0
 18 17  2  0  0  0  0
 19 18  1  0  0  0  0
 19 20  2  0  0  0  0
 20 21  1  0  0  0  0
 21 22  2  0  0  0  0
 21 25  1  0  0  0  0
 23 18  1  0  0  0  0
 24 19  1  0  0  0  0
 27 26  2  0  0  0  0
 28 29  1  0  0  0  0
 28 27  1  0  0  0  0
M  END
>  <minimizedAffinity>
-4.41629553

$$$$

 OpenBabel03262523373D

 29 30  0  0  1  0  0  0  0  0999 V2000
   36.0890   27.7310   31.5120 C   0  0  2  0  0  0  0  0  0  0  0  0
   36.4770   28.0650   32.9390 C   0  0  0  0  0  0  0  0  0  0  0  0
   37.5230   27.1440   33.4910 C   0  0  2  0  0  0  0  0  0  0  0  0
   37.1590   25.6860   33.3720 C   0  0  0  0  0  0  0  0  0  0  0  0
   36.4900   25.3460   32.0750 C   0  0  0  0  0  0  0  0  0  0  0  0
   36.6640   26.4400   31.0400 C   0  0  0  0  0  0  0  0  0  0  0  0
   34.9860   27.7100   31.4600 H   0  0  0  0  0  0  0  0  0  0  0  0
   36.8790   29.0790   32.9640 H   0  0  0  0  0  0  0  0  0  0  0  0
   35.6020   28.0000   33.6110 H   0  0  0  0  0  0  0  0  0  0  0  0
   38.4680   27.3590   32.9550 H   0  0  0  0  0  0  0  0  0  0  0  0
   38.1400   25.1340   33.3620 H   0  0  0  0  0  0  0  0  0  0  0  0
   36.6260   25.3130   34.2660 H   0  0  0  0  0  0  0  0  0  0  0  0
   36.7750   24.3730   31.6530 H   0  0  0  0  0  0  0  0  0  0  0  0
   35.3830   25.3400   32.2960 H   0  0  0  0  0  0  0  0  0  0  0  0
   37.7590   26.5140   30.8520 H   0  0  0  0  0  0  0  0  0  0  0  0
   36.1750   26.0880   30.1250 H   0  0  0  0  0  0  0  0  0  0  0  0
   36.5620   28.8100   30.5950 C   0  0  0  0  0  0  0  0  0  0  0  0
   36.2750   30.1300   30.9880 C   0  0  0  0  0  0  0  0  0  0  0  0
   36.7030   31.1450   30.1320 C   0  0  0  0  0  0  0  0  0  0  0  0
   37.3700   30.8070   28.9710 N   0  0  0  0  0  0  0  0  0  0  0  0
   37.6230   29.5230   28.6360 C   0  0  0  0  0  0  0  0  0  0  0  0
   37.2120   28.5430   29.4590 N   0  0  0  0  0  0  0  0  0  0  0  0
   35.7640   30.4470   31.8670 H   0  0  0  0  0  0  0  0  0  0  0  0
   36.5140   32.1840   30.3750 H   0  0  0  0  0  0  0  0  0  0  0  0
   38.1510   29.3660   27.7060 H   0  0  0  0  0  0  0  0  0  0  0  0
   37.6090   27.4210   34.9550 C   0  0  0  0  0  3  0  0  0  0  0  0
   38.7100   27.3240   35.6750 C   0  0  0  0  0  3  0  0  0  0  0  0
   39.9580   26.9110   34.9900 C   0  0  0  0  0  2  0  0  0  0  0  0
   40.1000   27.5630   34.1000 H   0  0  0  0  0  0  0  0  0  0  0  0
  1  7  1  6  0  0  0
  1  2  1  0  0  0  0
  2  8  1  0  0  0  0
  2  3  1  0  0  0  0
  2  9  1  0  0  0  0
  3 10  1  6  0  0  0
  3 26  1  0  0  0  0
  4  3  1  0  0  0  0
  4 12  1  0  0  0  0
  5 14  1  0  0  0  0
  5  4  1  0  0  0  0
  6  1  1  0  0  0  0
  6  5  1  0  0  0  0
 11  4  1  0  0  0  0
 13  5  1  0  0  0  0
 15  6  1  0  0  0  0
 16  6  1  0  0  0  0
 17 18  1  0  0  0  0
 17  1  1  0  0  0  0
 18 23  1  0  0  0  0
 19 24  1  0  0  0  0
 19 18  2  0  0  0  0
 20 19  1  0  0  0  0
 21 20  2  0  0  0  0
 21 22  1  0  0  0  0
 22 17  2  0  0  0  0
 25 21  1  0  0  0  0
 26 27  2  0  0  0  0
 28 27  1  0  0  0  0
 29 28  1  0  0  0  0
M  END
>  <minimizedAffinity>
-4.39040565

$$$$

 OpenBabel03262523373D

 29 30  0  0  1  0  0  0  0  0999 V2000
   38.6700   26.4080   35.3690 C   0  0  2  0  0  0  0  0  0  0  0  0
   37.5170   26.7560   34.4480 C   0  0  0  0  0  0  0  0  0  0  0  0
   37.8360   26.5290   33.0010 C   0  0  2  0  0  0  0  0  0  0  0  0
   39.0950   27.2240   32.5510 C   0  0  0  0  0  0  0  0  0  0  0  0
   40.1980   27.1670   33.5640 C   0  0  0  0  0  0  0  0  0  0  0  0
   39.9360   26.1260   34.6350 C   0  0  0  0  0  0  0  0  0  0  0  0
   38.8050   27.2500   36.0710 H   0  0  0  0  0  0  0  0  0  0  0  0
   36.6640   26.1250   34.7040 H   0  0  0  0  0  0  0  0  0  0  0  0
   37.2340   27.8170   34.5550 H   0  0  0  0  0  0  0  0  0  0  0  0
   37.9130   25.4360   32.8470 H   0  0  0  0  0  0  0  0  0  0  0  0
   39.4640   26.6300   31.6680 H   0  0  0  0  0  0  0  0  0  0  0  0
   38.8970   28.2380   32.1560 H   0  0  0  0  0  0  0  0  0  0  0  0
   41.2030   27.0360   33.1420 H   0  0  0  0  0  0  0  0  0  0  0  0
   40.1570   28.1530   34.1140 H   0  0  0  0  0  0  0  0  0  0  0  0
   39.9040   25.1460   34.1080 H   0  0  0  0  0  0  0  0  0  0  0  0
   40.8040   26.1360   35.3020 H   0  0  0  0  0  0  0  0  0  0  0  0
   38.3260   25.2010   36.1760 C   0  0  0  0  0  0  0  0  0  0  0  0
   38.2000   23.9930   35.4660 C   0  0  0  0  0  0  0  0  0  0  0  0
   37.8670   22.8600   36.2110 C   0  0  0  0  0  0  0  0  0  0  0  0
   37.6830   22.9840   37.5730 N   0  0  0  0  0  0  0  0  0  0  0  0
   37.8140   24.1670   38.2120 C   0  0  0  0  0  0  0  0  0  0  0  0
   38.1360   25.2600   37.4970 N   0  0  0  0  0  0  0  0  0  0  0  0
   38.3280   23.8410   34.4190 H   0  0  0  0  0  0  0  0  0  0  0  0
   37.7540   21.8980   35.7250 H   0  0  0  0  0  0  0  0  0  0  0  0
   37.6490   24.1560   39.2790 H   0  0  0  0  0  0  0  0  0  0  0  0
   36.7290   27.1500   32.2160 C   0  0  0  0  0  3  0  0  0  0  0  0
   35.8530   26.4810   31.4910 C   0  0  0  0  0  3  0  0  0  0  0  0
   35.9690   25.0040   31.4470 C   0  0  0  0  0  2  0  0  0  0  0  0
   36.0180   24.6260   32.4920 H   0  0  0  0  0  0  0  0  0  0  0  0
  1  7  1  1  0  0  0
  1 17  1  0  0  0  0
  2  9  1  0  0  0  0
  2  8  1  0  0  0  0
  2  1  1  0  0  0  0
  3 10  1  6  0  0  0
  3  2  1  0  0  0  0
  4  3  1  0  0  0  0
  4  5  1  0  0  0  0
  5 14  1  0  0  0  0
  5  6  1  0  0  0  0
  6 16  1  0  0  0  0
  6  1  1  0  0  0  0
 11  4  1  0  0  0  0
 12  4  1  0  0  0  0
 13  5  1  0  0  0  0
 15  6  1  0  0  0  0
 17 22  1  0  0  0  0
 18 17  2  0  0  0  0
 18 19  1  0  0  0  0
 19 20  2  0  0  0  0
 20 21  1  0  0  0  0
 21 25  1  0  0  0  0
 22 21  2  0  0  0  0
 23 18  1  0  0  0  0
 24 19  1  0  0  0  0
 26  3  1  0  0  0  0
 27 26  2  0  0  0  0
 28 27  1  0  0  0  0
 28 29  1  0  0  0  0
M  END
>  <minimizedAffinity>
-4.3076334

$$$$

 OpenBabel03262523373D

 29 30  0  0  1  0  0  0  0  0999 V2000
   37.0200   24.9680   31.3120 C   0  0  2  0  0  0  0  0  0  0  0  0
   35.9410   23.9140   31.4510 C   0  0  0  0  0  0  0  0  0  0  0  0
   36.4880   22.5550   31.7700 C   0  0  2  0  0  0  0  0  0  0  0  0
   37.5490   22.0970   30.8010 C   0  0  0  0  0  0  0  0  0  0  0  0
   38.4870   23.1890   30.3890 C   0  0  0  0  0  0  0  0  0  0  0  0
   38.3950   24.3950   31.3040 C   0  0  0  0  0  0  0  0  0  0  0  0
   36.8240   25.5270   30.3800 H   0  0  0  0  0  0  0  0  0  0  0  0
   35.2730   24.2020   32.2650 H   0  0  0  0  0  0  0  0  0  0  0  0
   35.3600   23.8170   30.5170 H   0  0  0  0  0  0  0  0  0  0  0  0
   36.8870   22.5930   32.8020 H   0  0  0  0  0  0  0  0  0  0  0  0
   38.1760   21.3580   31.3750 H   0  0  0  0  0  0  0  0  0  0  0  0
   37.1260   21.5220   29.9560 H   0  0  0  0  0  0  0  0  0  0  0  0
   39.5340   22.8770   30.2740 H   0  0  0  0  0  0  0  0  0  0  0  0
   38.1030   23.5610   29.3940 H   0  0  0  0  0  0  0  0  0  0  0  0
   38.7060   24.0390   32.3120 H   0  0  0  0  0  0  0  0  0  0  0  0
   39.1360   25.1190   30.9460 H   0  0  0  0  0  0  0  0  0  0  0  0
   36.9290   25.9360   32.4440 C   0  0  0  0  0  0  0  0  0  0  0  0
   36.4080   27.2060   32.1370 C   0  0  0  0  0  0  0  0  0  0  0  0
   36.3290   28.1220   33.1870 C   0  0  0  0  0  0  0  0  0  0  0  0
   36.7580   27.7410   34.4420 N   0  0  0  0  0  0  0  0  0  0  0  0
   37.2520   26.5090   34.6900 C   0  0  0  0  0  0  0  0  0  0  0  0
   37.3290   25.6240   33.6800 N   0  0  0  0  0  0  0  0  0  0  0  0
   36.0660   27.5530   31.1890 H   0  0  0  0  0  0  0  0  0  0  0  0
   35.9370   29.1180   33.0180 H   0  0  0  0  0  0  0  0  0  0  0  0
   37.5600   26.3120   35.7060 H   0  0  0  0  0  0  0  0  0  0  0  0
   35.3590   21.5910   31.6180 C   0  0  0  0  0  3  0  0  0  0  0  0
   34.9830   20.7220   32.5380 C   0  0  0  0  0  3  0  0  0  0  0  0
   35.7300   20.6950   33.8170 C   0  0  0  0  0  2  0  0  0  0  0  0
   35.7740   21.7320   34.2180 H   0  0  0  0  0  0  0  0  0  0  0  0
  1  7  1  6  0  0  0
  1  2  1  0  0  0  0
  1 17  1  0  0  0  0
  2  3  1  0  0  0  0
  2  8  1  0  0  0  0
  3 10  1  1  0  0  0
  4 11  1  0  0  0  0
  4  3  1  0  0  0  0
  5  4  1  0  0  0  0
  5  6  1  0  0  0  0
  6  1  1  0  0  0  0
  6 15  1  0  0  0  0
  9  2  1  0  0  0  0
 12  4  1  0  0  0  0
 13  5  1  0  0  0  0
 14  5  1  0  0  0  0
 16  6  1  0  0  0  0
 17 22  1  0  0  0  0
 18 17  2  0  0  0  0
 18 19  1  0  0  0  0
 19 20  2  0  0  0  0
 20 21  1  0  0  0  0
 21 25  1  0  0  0  0
 22 21  2  0  0  0  0
 23 18  1  0  0  0  0
 24 19  1  0  0  0  0
 26  3  1  0  0  0  0
 26 27  2  0  0  0  0
 27 28  1  0  0  0  0
 28 29  1  0  0  0  0
M  END
>  <minimizedAffinity>
-4.27192116

$$$$

 OpenBabel03262523373D

 29 30  0  0  1  0  0  0  0  0999 V2000
   37.1460   24.5110   31.6600 C   0  0  2  0  0  0  0  0  0  0  0  0
   38.2410   25.1280   32.5070 C   0  0  0  0  0  0  0  0  0  0  0  0
   37.7980   26.3690   33.2220 C   0  0  2  0  0  0  0  0  0  0  0  0
   37.1970   27.4030   32.3050 C   0  0  0  0  0  0  0  0  0  0  0  0
   36.3210   26.8150   31.2410 C   0  0  0  0  0  0  0  0  0  0  0  0
   35.9410   25.3790   31.5450 C   0  0  0  0  0  0  0  0  0  0  0  0
   37.5720   24.2990   30.6640 H   0  0  0  0  0  0  0  0  0  0  0  0
   38.5500   24.4020   33.2610 H   0  0  0  0  0  0  0  0  0  0  0  0
   39.1110   25.4050   31.8870 H   0  0  0  0  0  0  0  0  0  0  0  0
   37.0710   26.0620   33.9990 H   0  0  0  0  0  0  0  0  0  0  0  0
   36.5120   28.0170   32.9560 H   0  0  0  0  0  0  0  0  0  0  0  0
   37.9510   28.1170   31.9250 H   0  0  0  0  0  0  0  0  0  0  0  0
   35.4250   27.4060   31.0060 H   0  0  0  0  0  0  0  0  0  0  0  0
   36.9680   26.7470   30.3180 H   0  0  0  0  0  0  0  0  0  0  0  0
   35.3560   25.4110   32.4910 H   0  0  0  0  0  0  0  0  0  0  0  0
   35.2790   25.0510   30.7360 H   0  0  0  0  0  0  0  0  0  0  0  0
   36.7220   23.2090   32.2530 C   0  0  0  0  0  0  0  0  0  0  0  0
   35.5600   22.6280   31.7150 C   0  0  0  0  0  0  0  0  0  0  0  0
   35.1490   21.4160   32.2700 C   0  0  0  0  0  0  0  0  0  0  0  0
   35.8890   20.8640   33.2960 N   0  0  0  0  0  0  0  0  0  0  0  0
   37.0010   21.4590   33.7820 C   0  0  0  0  0  0  0  0  0  0  0  0
   37.3990   22.6270   33.2480 N   0  0  0  0  0  0  0  0  0  0  0  0
   34.9510   23.0100   30.9280 H   0  0  0  0  0  0  0  0  0  0  0  0
   34.2610   20.9150   31.9010 H   0  0  0  0  0  0  0  0  0  0  0  0
   37.5070   20.9440   34.5850 H   0  0  0  0  0  0  0  0  0  0  0  0
   39.0260   26.9980   33.7910 C   0  0  0  0  0  3  0  0  0  0  0  0
   39.2730   27.1340   35.0800 C   0  0  0  0  0  3  0  0  0  0  0  0
   38.2630   26.6290   36.0400 C   0  0  0  0  0  2  0  0  0  0  0  0
   38.0230   25.5760   35.7730 H   0  0  0  0  0  0  0  0  0  0  0  0
  1  7  1  6  0  0  0
  1 17  1  0  0  0  0
  1  2  1  0  0  0  0
  2  3  1  0  0  0  0
  2  8  1  0  0  0  0
  3 26  1  0  0  0  0
  3 10  1  1  0  0  0
  4 11  1  0  0  0  0
  4  3  1  0  0  0  0
  5  6  1  0  0  0  0
  5  4  1  0  0  0  0
  6  1  1  0  0  0  0
  6 15  1  0  0  0  0
  9  2  1  0  0  0  0
 12  4  1  0  0  0  0
 13  5  1  0  0  0  0
 14  5  1  0  0  0  0
 16  6  1  0  0  0  0
 17 22  1  0  0  0  0
 18 17  2  0  0  0  0
 18 19  1  0  0  0  0
 19 20  2  0  0  0  0
 20 21  1  0  0  0  0
 21 25  1  0  0  0  0
 22 21  2  0  0  0  0
 23 18  1  0  0  0  0
 24 19  1  0  0  0  0
 26 27  2  0  0  0  0
 27 28  1  0  0  0  0
 29 28  1  0  0  0  0
M  END
>  <minimizedAffinity>
-4.22331524

$$$$

 OpenBabel03262523373D

 29 30  0  0  1  0  0  0  0  0999 V2000
   38.8070   25.5130   32.4820 C   0  0  2  0  0  0  0  0  0  0  0  0
   39.0590   24.4840   33.5660 C   0  0  0  0  0  0  0  0  0  0  0  0
   39.1910   25.0930   34.9300 C   0  0  2  0  0  0  0  0  0  0  0  0
   40.2230   26.1900   34.9960 C   0  0  0  0  0  0  0  0  0  0  0  0
   40.2210   27.0800   33.7900 C   0  0  0  0  0  0  0  0  0  0  0  0
   38.9610   26.9140   32.9630 C   0  0  0  0  0  0  0  0  0  0  0  0
   39.5070   25.3040   31.6530 H   0  0  0  0  0  0  0  0  0  0  0  0
   38.2170   23.7910   33.5920 H   0  0  0  0  0  0  0  0  0  0  0  0
   39.9900   23.9240   33.3700 H   0  0  0  0  0  0  0  0  0  0  0  0
   38.1930   25.4730   35.2210 H   0  0  0  0  0  0  0  0  0  0  0  0
   39.9080   26.8440   35.8570 H   0  0  0  0  0  0  0  0  0  0  0  0
   41.2240   25.8090   35.2730 H   0  0  0  0  0  0  0  0  0  0  0  0
   40.4000   28.1420   34.0040 H   0  0  0  0  0  0  0  0  0  0  0  0
   41.0480   26.6940   33.1260 H   0  0  0  0  0  0  0  0  0  0  0  0
   38.1190   27.2260   33.6200 H   0  0  0  0  0  0  0  0  0  0  0  0
   39.0360   27.6240   32.1310 H   0  0  0  0  0  0  0  0  0  0  0  0
   37.4210   25.3560   31.9500 C   0  0  0  0  0  0  0  0  0  0  0  0
   36.9120   24.0460   31.9160 C   0  0  0  0  0  0  0  0  0  0  0  0
   35.6200   23.8880   31.4100 C   0  0  0  0  0  0  0  0  0  0  0  0
   34.9290   25.0020   30.9790 N   0  0  0  0  0  0  0  0  0  0  0  0
   35.4600   26.2430   31.0310 C   0  0  0  0  0  0  0  0  0  0  0  0
   36.7040   26.3980   31.5190 N   0  0  0  0  0  0  0  0  0  0  0  0
   37.4010   23.1530   32.2320 H   0  0  0  0  0  0  0  0  0  0  0  0
   35.1680   22.9040   31.3560 H   0  0  0  0  0  0  0  0  0  0  0  0
   34.8360   27.0460   30.6690 H   0  0  0  0  0  0  0  0  0  0  0  0
   39.6890   24.0150   35.8340 C   0  0  0  0  0  3  0  0  0  0  0  0
   39.0350   23.5490   36.8810 C   0  0  0  0  0  3  0  0  0  0  0  0
   37.7070   24.1330   37.1890 C   0  0  0  0  0  2  0  0  0  0  0  0
   37.0890   24.1010   36.2650 H   0  0  0  0  0  0  0  0  0  0  0  0
  1  7  1  6  0  0  0
  1  6  1  0  0  0  0
  1  2  1  0  0  0  0
  2  8  1  0  0  0  0
  2  3  1  0  0  0  0
  3  4  1  0  0  0  0
  3 10  1  1  0  0  0
  3 26  1  0  0  0  0
  4 12  1  0  0  0  0
  4 11  1  0  0  0  0
  5 13  1  0  0  0  0
  5  4  1  0  0  0  0
  6 15  1  0  0  0  0
  6  5  1  0  0  0  0
  9  2  1  0  0  0  0
 14  5  1  0  0  0  0
 16  6  1  0  0  0  0
 17  1  1  0  0  0  0
 18 17  1  0  0  0  0
 18 23  1  0  0  0  0
 19 18  2  0  0  0  0
 20 21  2  0  0  0  0
 20 19  1  0  0  0  0
 21 22  1  0  0  0  0
 22 17  2  0  0  0  0
 24 19  1  0  0  0  0
 25 21  1  0  0  0  0
 26 27  2  0  0  0  0
 27 28  1  0  0  0  0
 29 28  1  0  0  0  0
M  END
>  <minimizedAffinity>
-4.15584183

$$$$
