
 OpenBabel03272509373D

 25 26  0  0  0  0  0  0  0  0999 V2000
   36.0290   29.5190   49.1110 C   0  0  0  0  0  0  0  0  0  0  0  0
   36.1500   29.4520   50.5040 C   0  0  0  0  0  0  0  0  0  0  0  0
   37.1550   30.1190   51.1940 C   0  0  0  0  0  0  0  0  0  0  0  0
   38.0860   30.8860   50.5000 C   0  0  0  0  0  0  0  0  0  0  0  0
   37.9550   30.9420   49.1330 C   0  0  0  0  0  0  0  0  0  0  0  0
   36.9540   30.2770   48.4680 C   0  0  0  0  0  0  0  0  0  0  0  0
   35.4240   28.8540   51.0420 H   0  0  0  0  0  0  0  0  0  0  0  0
   37.1420   29.9900   52.2620 H   0  0  0  0  0  0  0  0  0  0  0  0
   38.8260   31.3620   51.1280 H   0  0  0  0  0  0  0  0  0  0  0  0
   38.7430   31.5690   48.7430 H   0  0  0  0  0  0  0  0  0  0  0  0
   34.9470   28.7960   48.4750 C   0  0  0  0  0  0  0  0  0  0  0  0
   34.6110   27.7170   49.0860 O   0  0  0  0  0  0  0  0  0  0  0  0
   32.9230   30.8730   46.2950 C   0  0  0  0  0  0  0  0  0  0  0  0
   32.9370   30.2020   45.0790 C   0  0  0  0  0  0  0  0  0  0  0  0
   33.6450   29.0170   45.0030 C   0  0  0  0  0  0  0  0  0  0  0  0
   34.2960   28.5540   46.1070 N   0  0  0  0  0  0  0  0  0  0  0  0
   34.2670   29.2140   47.2560 C   0  0  0  0  0  0  0  0  0  0  0  0
   33.5790   30.3710   47.3390 N   0  0  0  0  0  0  0  0  0  0  0  0
   32.3870   31.8060   46.4190 H   0  0  0  0  0  0  0  0  0  0  0  0
   32.3760   30.6900   44.2940 H   0  0  0  0  0  0  0  0  0  0  0  0
   33.6400   28.5170   44.0520 H   0  0  0  0  0  0  0  0  0  0  0  0
   36.9630   30.4390   47.0320 C   0  0  0  0  0  3  0  0  0  0  0  0
   37.9170   30.9610   46.2870 C   0  0  0  0  0  3  0  0  0  0  0  0
   38.0950   31.2020   44.8520 C   0  0  0  0  0  2  0  0  0  0  0  0
   37.9140   32.2840   44.5960 H   0  0  0  0  0  0  0  0  0  0  0  0
  1  2  1  0  0  0  0
  2  7  1  0  0  0  0
  2  3  2  0  0  0  0
  3  8  1  0  0  0  0
  4  9  1  0  0  0  0
  4  3  1  0  0  0  0
  5  4  2  0  0  0  0
  6  1  2  0  0  0  0
  6  5  1  0  0  0  0
 10  5  1  0  0  0  0
 11 12  2  0  0  0  0
 11  1  1  0  0  0  0
 13 19  1  0  0  0  0
 13 18  1  0  0  0  0
 14 13  2  0  0  0  0
 15 14  1  0  0  0  0
 15 16  2  0  0  0  0
 16 17  1  0  0  0  0
 17 18  2  0  0  0  0
 17 11  1  0  0  0  0
 20 14  1  0  0  0  0
 21 15  1  0  0  0  0
 22  6  1  0  0  0  0
 23 22  2  0  0  0  0
 24 23  1  0  0  0  0
 25 24  1  0  0  0  0
M  END
>  <minimizedAffinity>
-5.09106827

>  <minimizedRMSD>
0.454476595

$$$$
