
 OpenBabel03272502513D

 22 23  0  0  0  0  0  0  0  0999 V2000
   35.9870   30.3290   48.5470 C   0  0  0  0  0  0  0  0  0  0  0  0
   36.0000   29.3380   49.5190 C   0  0  0  0  0  0  0  0  0  0  0  0
   35.0320   28.3570   49.5790 C   0  0  0  0  0  0  0  0  0  0  0  0
   34.0540   28.4210   48.6160 C   0  0  0  0  0  0  0  0  0  0  0  0
   34.0130   29.3970   47.6330 C   0  0  0  0  0  0  0  0  0  0  0  0
   35.0000   30.3420   47.6260 N   0  0  0  0  0  0  0  0  0  0  0  0
   36.7890   29.3260   50.2570 H   0  0  0  0  0  0  0  0  0  0  0  0
   35.0680   27.5960   50.3490 H   0  0  0  0  0  0  0  0  0  0  0  0
   33.2720   27.6720   48.6220 H   0  0  0  0  0  0  0  0  0  0  0  0
   38.1270   33.1180   49.5460 C   0  0  0  0  0  0  0  0  0  0  0  0
   39.0180   33.2350   48.4770 C   0  0  0  0  0  0  0  0  0  0  0  0
   38.8700   32.3400   47.4070 C   0  0  0  0  0  0  0  0  0  0  0  0
   37.8690   31.4200   47.4860 N   0  0  0  0  0  0  0  0  0  0  0  0
   37.0310   31.3350   48.5310 C   0  0  0  0  0  0  0  0  0  0  0  0
   37.1660   32.1840   49.5520 N   0  0  0  0  0  0  0  0  0  0  0  0
   38.2470   33.8190   50.3800 H   0  0  0  0  0  0  0  0  0  0  0  0
   39.7970   33.9960   48.4800 H   0  0  0  0  0  0  0  0  0  0  0  0
   39.5370   32.3920   46.5530 H   0  0  0  0  0  0  0  0  0  0  0  0
   32.9650   29.4460   46.6210 C   0  0  0  0  0  0  0  0  0  0  0  0
   32.6090   30.5920   46.0600 C   0  0  0  0  0  0  0  0  0  0  0  0
   31.5450   30.6990   45.0230 C   0  0  0  0  0  0  0  0  0  0  0  0
   31.9680   30.9600   44.0340 H   0  0  0  0  0  0  0  0  0  0  0  0
  1  2  1  0  0  0  0
  2  3  2  0  0  0  0
  2  7  1  0  0  0  0
  3  8  1  0  0  0  0
  4  9  1  0  0  0  0
  4  3  1  0  0  0  0
  5  4  2  0  0  0  0
  6  5  1  0  0  0  0
  6  1  2  0  0  0  0
 10 15  1  0  0  0  0
 10 16  1  0  0  0  0
 11 17  1  0  0  0  0
 11 10  2  0  0  0  0
 12 13  2  0  0  0  0
 12 11  1  0  0  0  0
 13 14  1  0  0  0  0
 14  1  1  0  0  0  0
 14 15  2  0  0  0  0
 18 12  1  0  0  0  0
 19  5  1  0  0  0  0
 20 19  2  0  0  0  0
 21 20  1  0  0  0  0
 22 21  1  0  0  0  0
M  END
>  <minimizedAffinity>
-5.00979471

>  <minimizedRMSD>
0.65150702

$$$$
