
 OpenBabel03272506333D

 14 14  0  0  0  0  0  0  0  0999 V2000
   37.4260   29.9180   50.9490 C   0  0  0  0  0  0  0  0  0  0  0  0
   38.1430   30.8990   50.2420 C   0  0  0  0  0  0  0  0  0  0  0  0
   37.7770   31.1730   48.9330 C   0  0  0  0  0  0  0  0  0  0  0  0
   36.7420   30.4820   48.3910 N   0  0  0  0  0  0  0  0  0  0  0  0
   36.0610   29.5370   49.0910 C   0  0  0  0  0  0  0  0  0  0  0  0
   36.4080   29.2670   50.3520 N   0  0  0  0  0  0  0  0  0  0  0  0
   38.9750   31.4670   50.6460 H   0  0  0  0  0  0  0  0  0  0  0  0
   38.2810   31.9070   48.3370 H   0  0  0  0  0  0  0  0  0  0  0  0
   37.8950   29.7490   52.2350 O   0  0  0  0  0  0  0  0  0  0  0  0
   38.2790   28.8410   52.4660 H   0  0  0  0  0  0  0  0  0  0  0  0
   34.9500   28.8040   48.4940 C   0  0  0  0  0  3  0  0  0  0  0  0
   33.8960   28.4040   49.1890 C   0  0  0  0  0  3  0  0  0  0  0  0
   32.7790   27.6510   48.5190 C   0  0  0  0  0  2  0  0  0  0  0  0
   31.8260   27.9040   48.9960 H   0  0  0  0  0  0  0  0  0  0  0  0
  1  9  1  0  0  0  0
  2  7  1  0  0  0  0
  2  1  2  0  0  0  0
  3  2  1  0  0  0  0
  4  3  2  0  0  0  0
  4  5  1  0  0  0  0
  5  6  2  0  0  0  0
  6  1  1  0  0  0  0
  8  3  1  0  0  0  0
  9 10  1  0  0  0  0
 11  5  1  0  0  0  0
 11 12  2  0  0  0  0
 13 14  1  0  0  0  0
 13 12  1  0  0  0  0
M  END
>  <minimizedAffinity>
-4.2365942

>  <minimizedRMSD>
1.25339985

$$$$
