
 OpenBabel03272503373D

 14 14  0  0  0  0  0  0  0  0999 V2000
   37.3500   29.9350   51.2270 C   0  0  0  0  0  0  0  0  0  0  0  0
   38.1050   30.9130   50.5860 C   0  0  0  0  0  0  0  0  0  0  0  0
   37.5480   31.5840   49.4840 C   0  0  0  0  0  0  0  0  0  0  0  0
   36.2870   31.2270   49.1140 N   0  0  0  0  0  0  0  0  0  0  0  0
   35.5740   30.2690   49.7600 C   0  0  0  0  0  0  0  0  0  0  0  0
   36.1120   29.6400   50.8020 N   0  0  0  0  0  0  0  0  0  0  0  0
   39.0960   31.2340   50.8300 H   0  0  0  0  0  0  0  0  0  0  0  0
   34.5810   30.0270   49.4250 H   0  0  0  0  0  0  0  0  0  0  0  0
   38.0440   29.3790   52.2840 O   0  0  0  0  0  0  0  0  0  0  0  0
   38.8110   28.7520   52.1020 H   0  0  0  0  0  0  0  0  0  0  0  0
   38.2660   32.6210   48.7520 C   0  0  0  0  0  0  0  0  0  0  0  0
   38.9900   33.5130   49.3860 C   0  0  0  0  0  0  0  0  0  0  0  0
   39.7070   34.5580   48.5750 C   0  0  0  0  0  0  0  0  0  0  0  0
   38.9860   35.3620   48.2670 H   0  0  0  0  0  0  0  0  0  0  0  0
  1  9  1  0  0  0  0
  2  7  1  0  0  0  0
  2  1  2  0  0  0  0
  3  2  1  0  0  0  0
  4  3  2  0  0  0  0
  4  5  1  0  0  0  0
  5  6  2  0  0  0  0
  6  1  1  0  0  0  0
  8  5  1  0  0  0  0
 10  9  1  0  0  0  0
 11 12  2  0  0  0  0
 11  3  1  0  0  0  0
 13 12  1  0  0  0  0
 14 13  1  0  0  0  0
M  END
>  <minimizedAffinity>
-4.57951212

>  <minimizedRMSD>
0.539336562

$$$$
