
 OpenBabel03272506193D

 29 30  0  0  0  0  0  0  0  0999 V2000
   38.9280   25.5860   34.9450 C   0  0  0  0  0  0  0  0  0  0  0  0
   38.8320   27.0270   35.3880 C   0  0  0  0  0  0  0  0  0  0  0  0
   37.5140   27.6580   35.0450 C   0  0  0  0  0  0  0  0  0  0  0  0
   37.1720   27.5490   33.5850 C   0  0  0  0  0  0  0  0  0  0  0  0
   37.5020   26.2130   32.9970 C   0  0  0  0  0  0  0  0  0  0  0  0
   37.8080   25.1690   34.0550 C   0  0  0  0  0  0  0  0  0  0  0  0
   39.8960   25.3990   34.4390 H   0  0  0  0  0  0  0  0  0  0  0  0
   39.0380   27.2040   36.4410 H   0  0  0  0  0  0  0  0  0  0  0  0
   39.6030   27.5990   34.7990 H   0  0  0  0  0  0  0  0  0  0  0  0
   36.7390   27.1700   35.6960 H   0  0  0  0  0  0  0  0  0  0  0  0
   37.5880   28.7220   35.3400 H   0  0  0  0  0  0  0  0  0  0  0  0
   37.6080   28.4010   33.0150 H   0  0  0  0  0  0  0  0  0  0  0  0
   36.0710   27.6780   33.5060 H   0  0  0  0  0  0  0  0  0  0  0  0
   38.4430   26.3200   32.4040 H   0  0  0  0  0  0  0  0  0  0  0  0
   36.7180   25.8170   32.3270 H   0  0  0  0  0  0  0  0  0  0  0  0
   38.0750   24.2490   33.4970 H   0  0  0  0  0  0  0  0  0  0  0  0
   36.8710   24.9210   34.6170 H   0  0  0  0  0  0  0  0  0  0  0  0
   38.9190   24.6880   36.1370 C   0  0  0  0  0  0  0  0  0  0  0  0
   39.9360   23.7210   36.2140 C   0  0  0  0  0  0  0  0  0  0  0  0
   39.9320   22.8760   37.3150 C   0  0  0  0  0  0  0  0  0  0  0  0
   38.9640   23.0150   38.2600 N   0  0  0  0  0  0  0  0  0  0  0  0
   37.9840   23.9670   38.1600 C   0  0  0  0  0  0  0  0  0  0  0  0
   37.9750   24.7880   37.1040 N   0  0  0  0  0  0  0  0  0  0  0  0
   40.7140   23.5590   35.5150 H   0  0  0  0  0  0  0  0  0  0  0  0
   37.2530   24.0060   38.9570 H   0  0  0  0  0  0  0  0  0  0  0  0
   40.9370   21.8370   37.4990 C   0  0  0  0  0  3  0  0  0  0  0  0
   41.8750   21.5850   36.6040 C   0  0  0  0  0  3  0  0  0  0  0  0
   42.9130   20.5340   36.7620 C   0  0  0  0  0  2  0  0  0  0  0  0
   43.9550   20.9570   36.7800 H   0  0  0  0  0  0  0  0  0  0  0  0
  1  2  1  0  0  0  0
  1 18  1  0  0  0  0
  2  8  1  0  0  0  0
  3 11  1  0  0  0  0
  3  2  1  0  0  0  0
  3 10  1  0  0  0  0
  4  3  1  0  0  0  0
  5  4  1  0  0  0  0
  5  6  1  0  0  0  0
  6 17  1  0  0  0  0
  6  1  1  0  0  0  0
  7  1  1  0  0  0  0
  9  2  1  0  0  0  0
 12  4  1  0  0  0  0
 13  4  1  0  0  0  0
 14  5  1  0  0  0  0
 15  5  1  0  0  0  0
 16  6  1  0  0  0  0
 18 19  2  0  0  0  0
 18 23  1  0  0  0  0
 19 20  1  0  0  0  0
 20 26  1  0  0  0  0
 20 21  2  0  0  0  0
 22 21  1  0  0  0  0
 22 25  1  0  0  0  0
 23 22  2  0  0  0  0
 24 19  1  0  0  0  0
 27 28  1  0  0  0  0
 27 26  2  0  0  0  0
 28 29  1  0  0  0  0
M  END
>  <minimizedAffinity>
-4.85128689

$$$$

 OpenBabel03272506193D

 29 30  0  0  0  0  0  0  0  0999 V2000
   38.0730   25.9070   33.5880 C   0  0  0  0  0  0  0  0  0  0  0  0
   38.3790   24.8110   34.5810 C   0  0  0  0  0  0  0  0  0  0  0  0
   37.8780   25.1160   35.9620 C   0  0  0  0  0  0  0  0  0  0  0  0
   38.3710   26.4340   36.4890 C   0  0  0  0  0  0  0  0  0  0  0  0
   38.3580   27.5240   35.4640 C   0  0  0  0  0  0  0  0  0  0  0  0
   37.5640   27.1530   34.2260 C   0  0  0  0  0  0  0  0  0  0  0  0
   38.9690   26.1390   32.9780 H   0  0  0  0  0  0  0  0  0  0  0  0
   38.0350   23.8180   34.2980 H   0  0  0  0  0  0  0  0  0  0  0  0
   39.5000   24.7590   34.6710 H   0  0  0  0  0  0  0  0  0  0  0  0
   36.7560   25.0740   35.9190 H   0  0  0  0  0  0  0  0  0  0  0  0
   38.2250   24.2910   36.6130 H   0  0  0  0  0  0  0  0  0  0  0  0
   39.3590   26.3110   36.9890 H   0  0  0  0  0  0  0  0  0  0  0  0
   37.6710   26.7360   37.2970 H   0  0  0  0  0  0  0  0  0  0  0  0
   39.4080   27.6770   35.1100 H   0  0  0  0  0  0  0  0  0  0  0  0
   37.9830   28.4900   35.8480 H   0  0  0  0  0  0  0  0  0  0  0  0
   37.6660   28.0140   33.5360 H   0  0  0  0  0  0  0  0  0  0  0  0
   36.4750   27.0990   34.4840 H   0  0  0  0  0  0  0  0  0  0  0  0
   37.0400   25.4380   32.6180 C   0  0  0  0  0  0  0  0  0  0  0  0
   36.8890   24.0490   32.4690 C   0  0  0  0  0  0  0  0  0  0  0  0
   35.9350   23.6030   31.5630 C   0  0  0  0  0  0  0  0  0  0  0  0
   35.1980   24.5110   30.8700 N   0  0  0  0  0  0  0  0  0  0  0  0
   35.3660   25.8610   31.0350 C   0  0  0  0  0  0  0  0  0  0  0  0
   36.2810   26.3040   31.9040 N   0  0  0  0  0  0  0  0  0  0  0  0
   37.4300   23.2920   32.9730 H   0  0  0  0  0  0  0  0  0  0  0  0
   34.7370   26.5110   30.4420 H   0  0  0  0  0  0  0  0  0  0  0  0
   35.6930   22.1860   31.3280 C   0  0  0  0  0  3  0  0  0  0  0  0
   35.1240   21.4010   32.2240 C   0  0  0  0  0  3  0  0  0  0  0  0
   34.8620   19.9530   32.0140 C   0  0  0  0  0  2  0  0  0  0  0  0
   33.7670   19.7030   32.0530 H   0  0  0  0  0  0  0  0  0  0  0  0
  1  6  1  0  0  0  0
  1  2  1  0  0  0  0
  2  9  1  0  0  0  0
  2  3  1  0  0  0  0
  3  4  1  0  0  0  0
  3 11  1  0  0  0  0
  4 12  1  0  0  0  0
  4 13  1  0  0  0  0
  5 15  1  0  0  0  0
  5  4  1  0  0  0  0
  6 17  1  0  0  0  0
  6  5  1  0  0  0  0
  7  1  1  0  0  0  0
  8  2  1  0  0  0  0
 10  3  1  0  0  0  0
 14  5  1  0  0  0  0
 16  6  1  0  0  0  0
 18  1  1  0  0  0  0
 19 18  1  0  0  0  0
 19 24  1  0  0  0  0
 20 19  2  0  0  0  0
 21 22  2  0  0  0  0
 21 20  1  0  0  0  0
 22 23  1  0  0  0  0
 23 18  2  0  0  0  0
 25 22  1  0  0  0  0
 26 20  1  0  0  0  0
 26 27  2  0  0  0  0
 28 29  1  0  0  0  0
 28 27  1  0  0  0  0
M  END
>  <minimizedAffinity>
-4.82328844

$$$$

 OpenBabel03272506193D

 29 30  0  0  0  0  0  0  0  0999 V2000
   37.3410   27.0290   33.7000 C   0  0  0  0  0  0  0  0  0  0  0  0
   37.5000   26.9310   35.1980 C   0  0  0  0  0  0  0  0  0  0  0  0
   38.8820   27.2810   35.6650 C   0  0  0  0  0  0  0  0  0  0  0  0
   39.9540   26.4760   34.9840 C   0  0  0  0  0  0  0  0  0  0  0  0
   39.7170   26.2930   33.5180 C   0  0  0  0  0  0  0  0  0  0  0  0
   38.6350   27.2110   32.9820 C   0  0  0  0  0  0  0  0  0  0  0  0
   36.8180   26.1350   33.3040 H   0  0  0  0  0  0  0  0  0  0  0  0
   36.7810   27.5040   35.7800 H   0  0  0  0  0  0  0  0  0  0  0  0
   37.3550   25.8480   35.4680 H   0  0  0  0  0  0  0  0  0  0  0  0
   39.0130   28.3840   35.4970 H   0  0  0  0  0  0  0  0  0  0  0  0
   38.9020   27.0970   36.7560 H   0  0  0  0  0  0  0  0  0  0  0  0
   40.1280   25.5190   35.5250 H   0  0  0  0  0  0  0  0  0  0  0  0
   40.9000   27.0500   35.0930 H   0  0  0  0  0  0  0  0  0  0  0  0
   39.3330   25.2560   33.3580 H   0  0  0  0  0  0  0  0  0  0  0  0
   40.6250   26.4210   32.9020 H   0  0  0  0  0  0  0  0  0  0  0  0
   38.5260   26.9510   31.9100 H   0  0  0  0  0  0  0  0  0  0  0  0
   39.0000   28.2700   33.0010 H   0  0  0  0  0  0  0  0  0  0  0  0
   36.4650   28.1880   33.3580 C   0  0  0  0  0  0  0  0  0  0  0  0
   35.9760   28.9560   34.4290 C   0  0  0  0  0  0  0  0  0  0  0  0
   35.1540   30.0320   34.1210 C   0  0  0  0  0  0  0  0  0  0  0  0
   34.8610   30.2970   32.8200 N   0  0  0  0  0  0  0  0  0  0  0  0
   35.3520   29.5320   31.7950 C   0  0  0  0  0  0  0  0  0  0  0  0
   36.1450   28.4920   32.0770 N   0  0  0  0  0  0  0  0  0  0  0  0
   36.1630   28.8020   35.4590 H   0  0  0  0  0  0  0  0  0  0  0  0
   35.0660   29.8150   30.7900 H   0  0  0  0  0  0  0  0  0  0  0  0
   34.5910   30.8960   35.1500 C   0  0  0  0  0  3  0  0  0  0  0  0
   35.3390   31.6010   35.9790 C   0  0  0  0  0  3  0  0  0  0  0  0
   34.7960   32.4910   37.0370 C   0  0  0  0  0  2  0  0  0  0  0  0
   35.0890   33.5660   36.8890 H   0  0  0  0  0  0  0  0  0  0  0  0
  1  2  1  0  0  0  0
  2  9  1  0  0  0  0
  2  3  1  0  0  0  0
  2  8  1  0  0  0  0
  3 11  1  0  0  0  0
  4 13  1  0  0  0  0
  4 12  1  0  0  0  0
  4  3  1  0  0  0  0
  5  4  1  0  0  0  0
  6 17  1  0  0  0  0
  6  5  1  0  0  0  0
  6  1  1  0  0  0  0
  7  1  1  0  0  0  0
 10  3  1  0  0  0  0
 14  5  1  0  0  0  0
 15  5  1  0  0  0  0
 16  6  1  0  0  0  0
 18  1  1  0  0  0  0
 18 19  1  0  0  0  0
 19 24  1  0  0  0  0
 20 19  2  0  0  0  0
 20 26  1  0  0  0  0
 21 20  1  0  0  0  0
 22 23  1  0  0  0  0
 22 21  2  0  0  0  0
 23 18  2  0  0  0  0
 25 22  1  0  0  0  0
 26 27  2  0  0  0  0
 27 28  1  0  0  0  0
 29 28  1  0  0  0  0
M  END
>  <minimizedAffinity>
-4.70508575

$$$$

 OpenBabel03272506193D

 29 30  0  0  0  0  0  0  0  0999 V2000
   38.2350   27.0030   33.0020 C   0  0  0  0  0  0  0  0  0  0  0  0
   39.5930   26.9080   33.6560 C   0  0  0  0  0  0  0  0  0  0  0  0
   39.5190   26.5270   35.1050 C   0  0  0  0  0  0  0  0  0  0  0  0
   38.6280   27.4350   35.9080 C   0  0  0  0  0  0  0  0  0  0  0  0
   37.3640   27.8040   35.1970 C   0  0  0  0  0  0  0  0  0  0  0  0
   37.1080   26.9430   33.9750 C   0  0  0  0  0  0  0  0  0  0  0  0
   38.1580   27.9310   32.3990 H   0  0  0  0  0  0  0  0  0  0  0  0
   40.3020   26.2490   33.1600 H   0  0  0  0  0  0  0  0  0  0  0  0
   40.0340   27.9440   33.6380 H   0  0  0  0  0  0  0  0  0  0  0  0
   39.1740   25.4580   35.1450 H   0  0  0  0  0  0  0  0  0  0  0  0
   40.5540   26.5660   35.4950 H   0  0  0  0  0  0  0  0  0  0  0  0
   39.1990   28.3160   36.2780 H   0  0  0  0  0  0  0  0  0  0  0  0
   38.3380   26.8710   36.8200 H   0  0  0  0  0  0  0  0  0  0  0  0
   37.4780   28.8460   34.8090 H   0  0  0  0  0  0  0  0  0  0  0  0
   36.4680   27.7760   35.8430 H   0  0  0  0  0  0  0  0  0  0  0  0
   36.1780   27.3390   33.5200 H   0  0  0  0  0  0  0  0  0  0  0  0
   36.8650   25.8980   34.2990 H   0  0  0  0  0  0  0  0  0  0  0  0
   38.0590   25.8820   32.0330 C   0  0  0  0  0  0  0  0  0  0  0  0
   36.9760   25.0140   32.2520 C   0  0  0  0  0  0  0  0  0  0  0  0
   36.8090   23.9630   31.3600 C   0  0  0  0  0  0  0  0  0  0  0  0
   37.6820   23.8180   30.3280 N   0  0  0  0  0  0  0  0  0  0  0  0
   38.7300   24.6800   30.1370 C   0  0  0  0  0  0  0  0  0  0  0  0
   38.9040   25.6970   30.9900 N   0  0  0  0  0  0  0  0  0  0  0  0
   36.2650   25.0690   33.0330 H   0  0  0  0  0  0  0  0  0  0  0  0
   39.3770   24.4890   29.2910 H   0  0  0  0  0  0  0  0  0  0  0  0
   35.7210   23.0020   31.4890 C   0  0  0  0  0  3  0  0  0  0  0  0
   35.9000   21.7800   31.9560 C   0  0  0  0  0  3  0  0  0  0  0  0
   34.8130   20.7780   32.1000 C   0  0  0  0  0  2  0  0  0  0  0  0
   34.6550   20.4640   33.1680 H   0  0  0  0  0  0  0  0  0  0  0  0
  1  2  1  0  0  0  0
  1  6  1  0  0  0  0
  2  3  1  0  0  0  0
  3 10  1  0  0  0  0
  3 11  1  0  0  0  0
  3  4  1  0  0  0  0
  4 12  1  0  0  0  0
  4 13  1  0  0  0  0
  5 15  1  0  0  0  0
  5  4  1  0  0  0  0
  6 17  1  0  0  0  0
  6  5  1  0  0  0  0
  7  1  1  0  0  0  0
  8  2  1  0  0  0  0
  9  2  1  0  0  0  0
 14  5  1  0  0  0  0
 16  6  1  0  0  0  0
 18 19  1  0  0  0  0
 18  1  1  0  0  0  0
 19 24  1  0  0  0  0
 20 26  1  0  0  0  0
 20 19  2  0  0  0  0
 21 20  1  0  0  0  0
 22 21  2  0  0  0  0
 22 23  1  0  0  0  0
 23 18  2  0  0  0  0
 25 22  1  0  0  0  0
 26 27  2  0  0  0  0
 27 28  1  0  0  0  0
 28 29  1  0  0  0  0
M  END
>  <minimizedAffinity>
-4.59608698

$$$$

 OpenBabel03272506193D

 29 30  0  0  0  0  0  0  0  0999 V2000
   35.8360   22.2750   31.1760 C   0  0  0  0  0  0  0  0  0  0  0  0
   35.0130   21.6130   32.2550 C   0  0  0  0  0  0  0  0  0  0  0  0
   35.8150   20.6790   33.1130 C   0  0  0  0  0  0  0  0  0  0  0  0
   36.5490   19.6350   32.3190 C   0  0  0  0  0  0  0  0  0  0  0  0
   37.1700   20.1710   31.0670 C   0  0  0  0  0  0  0  0  0  0  0  0
   37.1980   21.6870   31.0320 C   0  0  0  0  0  0  0  0  0  0  0  0
   35.3070   22.2340   30.2030 H   0  0  0  0  0  0  0  0  0  0  0  0
   34.4630   22.2930   32.9030 H   0  0  0  0  0  0  0  0  0  0  0  0
   34.2540   20.9670   31.7320 H   0  0  0  0  0  0  0  0  0  0  0  0
   36.5140   21.3140   33.7210 H   0  0  0  0  0  0  0  0  0  0  0  0
   35.1010   20.1970   33.8070 H   0  0  0  0  0  0  0  0  0  0  0  0
   35.9000   18.7470   32.1430 H   0  0  0  0  0  0  0  0  0  0  0  0
   37.3770   19.2690   32.9630 H   0  0  0  0  0  0  0  0  0  0  0  0
   36.5280   19.8650   30.2050 H   0  0  0  0  0  0  0  0  0  0  0  0
   38.1930   19.7950   30.8820 H   0  0  0  0  0  0  0  0  0  0  0  0
   37.6360   21.9550   30.0490 H   0  0  0  0  0  0  0  0  0  0  0  0
   37.9220   22.0650   31.7990 H   0  0  0  0  0  0  0  0  0  0  0  0
   35.9990   23.7270   31.4820 C   0  0  0  0  0  0  0  0  0  0  0  0
   36.9570   24.0720   32.4510 C   0  0  0  0  0  0  0  0  0  0  0  0
   37.1100   25.4190   32.7460 C   0  0  0  0  0  0  0  0  0  0  0  0
   36.3420   26.3370   32.1000 N   0  0  0  0  0  0  0  0  0  0  0  0
   35.4150   25.9720   31.1590 C   0  0  0  0  0  0  0  0  0  0  0  0
   35.2560   24.6770   30.8640 N   0  0  0  0  0  0  0  0  0  0  0  0
   37.5820   23.4100   32.9900 H   0  0  0  0  0  0  0  0  0  0  0  0
   34.8470   26.7680   30.6950 H   0  0  0  0  0  0  0  0  0  0  0  0
   38.0720   25.8920   33.7330 C   0  0  0  0  0  3  0  0  0  0  0  0
   37.7550   26.7500   34.6860 C   0  0  0  0  0  3  0  0  0  0  0  0
   38.7120   27.2510   35.7050 C   0  0  0  0  0  2  0  0  0  0  0  0
   38.4110   26.9740   36.7520 H   0  0  0  0  0  0  0  0  0  0  0  0
  1 18  1  0  0  0  0
  1  2  1  0  0  0  0
  2  8  1  0  0  0  0
  2  3  1  0  0  0  0
  3 10  1  0  0  0  0
  3 11  1  0  0  0  0
  4 13  1  0  0  0  0
  4  3  1  0  0  0  0
  5  4  1  0  0  0  0
  6  5  1  0  0  0  0
  6  1  1  0  0  0  0
  6 17  1  0  0  0  0
  7  1  1  0  0  0  0
  9  2  1  0  0  0  0
 12  4  1  0  0  0  0
 14  5  1  0  0  0  0
 15  5  1  0  0  0  0
 16  6  1  0  0  0  0
 18 19  1  0  0  0  0
 19 20  2  0  0  0  0
 19 24  1  0  0  0  0
 20 26  1  0  0  0  0
 21 20  1  0  0  0  0
 22 21  2  0  0  0  0
 23 22  1  0  0  0  0
 23 18  2  0  0  0  0
 25 22  1  0  0  0  0
 26 27  2  0  0  0  0
 27 28  1  0  0  0  0
 28 29  1  0  0  0  0
M  END
>  <minimizedAffinity>
-4.55019188

$$$$

 OpenBabel03272506193D

 29 30  0  0  0  0  0  0  0  0999 V2000
   38.6970   24.8000   35.8800 C   0  0  0  0  0  0  0  0  0  0  0  0
   39.8870   23.8730   35.9360 C   0  0  0  0  0  0  0  0  0  0  0  0
   39.6570   22.6770   36.8120 C   0  0  0  0  0  0  0  0  0  0  0  0
   39.2300   23.0430   38.2070 C   0  0  0  0  0  0  0  0  0  0  0  0
   38.2390   24.1650   38.2480 C   0  0  0  0  0  0  0  0  0  0  0  0
   37.6470   24.4710   36.8850 C   0  0  0  0  0  0  0  0  0  0  0  0
   39.0180   25.8530   36.0080 H   0  0  0  0  0  0  0  0  0  0  0  0
   40.2540   23.5290   34.9700 H   0  0  0  0  0  0  0  0  0  0  0  0
   40.7230   24.4480   36.4220 H   0  0  0  0  0  0  0  0  0  0  0  0
   38.8950   22.0340   36.2950 H   0  0  0  0  0  0  0  0  0  0  0  0
   40.6120   22.1180   36.8410 H   0  0  0  0  0  0  0  0  0  0  0  0
   40.1180   23.2160   38.8560 H   0  0  0  0  0  0  0  0  0  0  0  0
   38.7280   22.1480   38.6310 H   0  0  0  0  0  0  0  0  0  0  0  0
   38.7820   25.0930   38.5510 H   0  0  0  0  0  0  0  0  0  0  0  0
   37.4130   24.0020   38.9630 H   0  0  0  0  0  0  0  0  0  0  0  0
   36.9710   25.3350   37.0400 H   0  0  0  0  0  0  0  0  0  0  0  0
   36.9870   23.6230   36.5660 H   0  0  0  0  0  0  0  0  0  0  0  0
   38.0670   24.7360   34.5280 C   0  0  0  0  0  0  0  0  0  0  0  0
   37.5530   25.9360   34.0070 C   0  0  0  0  0  0  0  0  0  0  0  0
   36.9590   25.8850   32.7530 C   0  0  0  0  0  0  0  0  0  0  0  0
   36.8990   24.6990   32.0900 N   0  0  0  0  0  0  0  0  0  0  0  0
   37.4090   23.5440   32.6220 C   0  0  0  0  0  0  0  0  0  0  0  0
   37.9840   23.5780   33.8300 N   0  0  0  0  0  0  0  0  0  0  0  0
   37.5650   26.8880   34.4700 H   0  0  0  0  0  0  0  0  0  0  0  0
   37.3170   22.6460   32.0260 H   0  0  0  0  0  0  0  0  0  0  0  0
   36.3940   27.0670   32.1150 C   0  0  0  0  0  3  0  0  0  0  0  0
   36.9320   28.2670   32.2300 C   0  0  0  0  0  3  0  0  0  0  0  0
   36.3800   29.4900   31.5930 C   0  0  0  0  0  2  0  0  0  0  0  0
   37.0940   29.9530   30.8580 H   0  0  0  0  0  0  0  0  0  0  0  0
  1  2  1  0  0  0  0
  1  7  1  0  0  0  0
  1  6  1  0  0  0  0
  2  9  1  0  0  0  0
  2  3  1  0  0  0  0
  3 11  1  0  0  0  0
  3  4  1  0  0  0  0
  4  5  1  0  0  0  0
  4 13  1  0  0  0  0
  4 12  1  0  0  0  0
  5 14  1  0  0  0  0
  5 15  1  0  0  0  0
  6 16  1  0  0  0  0
  6  5  1  0  0  0  0
  8  2  1  0  0  0  0
 10  3  1  0  0  0  0
 17  6  1  0  0  0  0
 18  1  1  0  0  0  0
 19 24  1  0  0  0  0
 19 18  1  0  0  0  0
 20 19  2  0  0  0  0
 21 22  2  0  0  0  0
 21 20  1  0  0  0  0
 22 23  1  0  0  0  0
 23 18  2  0  0  0  0
 25 22  1  0  0  0  0
 26 27  2  0  0  0  0
 26 20  1  0  0  0  0
 28 27  1  0  0  0  0
 29 28  1  0  0  0  0
M  END
>  <minimizedAffinity>
-4.38404989

$$$$

 OpenBabel03272506193D

 29 30  0  0  0  0  0  0  0  0999 V2000
   37.1640   21.3250   32.8220 C   0  0  0  0  0  0  0  0  0  0  0  0
   36.6500   21.4330   31.4060 C   0  0  0  0  0  0  0  0  0  0  0  0
   35.1750   21.1780   31.2980 C   0  0  0  0  0  0  0  0  0  0  0  0
   34.7600   19.8610   31.8930 C   0  0  0  0  0  0  0  0  0  0  0  0
   35.4490   19.5510   33.1850 C   0  0  0  0  0  0  0  0  0  0  0  0
   36.1650   20.7550   33.7690 C   0  0  0  0  0  0  0  0  0  0  0  0
   38.0940   20.7220   32.8530 H   0  0  0  0  0  0  0  0  0  0  0  0
   36.8780   22.3680   30.8980 H   0  0  0  0  0  0  0  0  0  0  0  0
   37.1420   20.6080   30.8190 H   0  0  0  0  0  0  0  0  0  0  0  0
   34.6570   22.0440   31.7930 H   0  0  0  0  0  0  0  0  0  0  0  0
   34.9280   21.2040   30.2200 H   0  0  0  0  0  0  0  0  0  0  0  0
   34.8490   19.0460   31.1400 H   0  0  0  0  0  0  0  0  0  0  0  0
   33.6740   19.9390   32.1130 H   0  0  0  0  0  0  0  0  0  0  0  0
   36.2510   18.8010   32.9760 H   0  0  0  0  0  0  0  0  0  0  0  0
   34.7790   19.1310   33.9560 H   0  0  0  0  0  0  0  0  0  0  0  0
   36.6640   20.3890   34.6880 H   0  0  0  0  0  0  0  0  0  0  0  0
   35.4090   21.5070   34.1130 H   0  0  0  0  0  0  0  0  0  0  0  0
   37.5480   22.6760   33.3260 C   0  0  0  0  0  0  0  0  0  0  0  0
   37.9470   22.7660   34.6700 C   0  0  0  0  0  0  0  0  0  0  0  0
   38.2990   24.0200   35.1500 C   0  0  0  0  0  0  0  0  0  0  0  0
   38.2450   25.0930   34.3170 N   0  0  0  0  0  0  0  0  0  0  0  0
   37.8520   24.9780   33.0100 C   0  0  0  0  0  0  0  0  0  0  0  0
   37.5100   23.7750   32.5340 N   0  0  0  0  0  0  0  0  0  0  0  0
   38.0090   21.9740   35.3700 H   0  0  0  0  0  0  0  0  0  0  0  0
   37.8370   25.8840   32.4190 H   0  0  0  0  0  0  0  0  0  0  0  0
   38.7300   24.2310   36.5260 C   0  0  0  0  0  3  0  0  0  0  0  0
   38.1520   23.6360   37.5540 C   0  0  0  0  0  3  0  0  0  0  0  0
   38.5660   23.8290   38.9670 C   0  0  0  0  0  2  0  0  0  0  0  0
   38.9210   22.8760   39.4470 H   0  0  0  0  0  0  0  0  0  0  0  0
  1  7  1  0  0  0  0
  1 18  1  0  0  0  0
  1  6  1  0  0  0  0
  2  1  1  0  0  0  0
  3  2  1  0  0  0  0
  3 10  1  0  0  0  0
  3  4  1  0  0  0  0
  4 13  1  0  0  0  0
  4  5  1  0  0  0  0
  5  6  1  0  0  0  0
  5 15  1  0  0  0  0
  6 17  1  0  0  0  0
  6 16  1  0  0  0  0
  8  2  1  0  0  0  0
  9  2  1  0  0  0  0
 11  3  1  0  0  0  0
 12  4  1  0  0  0  0
 14  5  1  0  0  0  0
 18 19  1  0  0  0  0
 19 20  2  0  0  0  0
 19 24  1  0  0  0  0
 20 26  1  0  0  0  0
 21 20  1  0  0  0  0
 22 21  2  0  0  0  0
 23 22  1  0  0  0  0
 23 18  2  0  0  0  0
 25 22  1  0  0  0  0
 26 27  2  0  0  0  0
 27 28  1  0  0  0  0
 28 29  1  0  0  0  0
M  END
>  <minimizedAffinity>
-4.38010979

$$$$

 OpenBabel03272506193D

 29 30  0  0  0  0  0  0  0  0999 V2000
   38.7120   24.3630   35.8230 C   0  0  0  0  0  0  0  0  0  0  0  0
   39.9710   23.6260   36.2140 C   0  0  0  0  0  0  0  0  0  0  0  0
   39.7560   22.6520   37.3340 C   0  0  0  0  0  0  0  0  0  0  0  0
   39.1340   23.2830   38.5500 C   0  0  0  0  0  0  0  0  0  0  0  0
   38.0430   24.2520   38.2220 C   0  0  0  0  0  0  0  0  0  0  0  0
   37.5880   24.1540   36.7790 C   0  0  0  0  0  0  0  0  0  0  0  0
   38.9140   25.4480   35.7150 H   0  0  0  0  0  0  0  0  0  0  0  0
   40.4810   23.1130   35.4010 H   0  0  0  0  0  0  0  0  0  0  0  0
   40.6850   24.3980   36.6170 H   0  0  0  0  0  0  0  0  0  0  0  0
   39.1250   21.8180   36.9250 H   0  0  0  0  0  0  0  0  0  0  0  0
   40.7500   22.2370   37.5870 H   0  0  0  0  0  0  0  0  0  0  0  0
   39.9190   23.7110   39.2140 H   0  0  0  0  0  0  0  0  0  0  0  0
   38.6740   22.4580   39.1360 H   0  0  0  0  0  0  0  0  0  0  0  0
   38.4550   25.2860   38.3350 H   0  0  0  0  0  0  0  0  0  0  0  0
   37.1580   24.1630   38.8780 H   0  0  0  0  0  0  0  0  0  0  0  0
   36.8190   24.9420   36.6530 H   0  0  0  0  0  0  0  0  0  0  0  0
   37.0540   23.1820   36.6210 H   0  0  0  0  0  0  0  0  0  0  0  0
   38.2550   23.9060   34.4770 C   0  0  0  0  0  0  0  0  0  0  0  0
   37.6660   22.6320   34.4030 C   0  0  0  0  0  0  0  0  0  0  0  0
   37.2440   22.1950   33.1540 C   0  0  0  0  0  0  0  0  0  0  0  0
   37.4140   23.0020   32.0720 N   0  0  0  0  0  0  0  0  0  0  0  0
   37.9910   24.2400   32.1740 C   0  0  0  0  0  0  0  0  0  0  0  0
   38.4030   24.6730   33.3710 N   0  0  0  0  0  0  0  0  0  0  0  0
   37.5080   21.9560   35.2020 H   0  0  0  0  0  0  0  0  0  0  0  0
   38.0870   24.8140   31.2610 H   0  0  0  0  0  0  0  0  0  0  0  0
   36.6200   20.8930   32.9580 C   0  0  0  0  0  3  0  0  0  0  0  0
   35.4650   20.7410   32.3350 C   0  0  0  0  0  3  0  0  0  0  0  0
   34.8040   19.4290   32.1190 C   0  0  0  0  0  2  0  0  0  0  0  0
   34.6840   19.1810   31.0300 H   0  0  0  0  0  0  0  0  0  0  0  0
  1  2  1  0  0  0  0
  1  6  1  0  0  0  0
  2  9  1  0  0  0  0
  2  3  1  0  0  0  0
  3 11  1  0  0  0  0
  3  4  1  0  0  0  0
  4 13  1  0  0  0  0
  4 12  1  0  0  0  0
  5 14  1  0  0  0  0
  5  4  1  0  0  0  0
  5 15  1  0  0  0  0
  6  5  1  0  0  0  0
  7  1  1  0  0  0  0
  8  2  1  0  0  0  0
 10  3  1  0  0  0  0
 16  6  1  0  0  0  0
 17  6  1  0  0  0  0
 18  1  1  0  0  0  0
 19 18  1  0  0  0  0
 19 24  1  0  0  0  0
 20 19  2  0  0  0  0
 21 22  2  0  0  0  0
 21 20  1  0  0  0  0
 22 23  1  0  0  0  0
 23 18  2  0  0  0  0
 25 22  1  0  0  0  0
 26 20  1  0  0  0  0
 27 26  2  0  0  0  0
 28 27  1  0  0  0  0
 29 28  1  0  0  0  0
M  END
>  <minimizedAffinity>
-4.37519264

$$$$

 OpenBabel03272506193D

 29 30  0  0  0  0  0  0  0  0999 V2000
   37.1990   26.9160   34.8660 C   0  0  0  0  0  0  0  0  0  0  0  0
   38.4040   27.4120   35.6290 C   0  0  0  0  0  0  0  0  0  0  0  0
   39.6930   26.8240   35.1340 C   0  0  0  0  0  0  0  0  0  0  0  0
   39.6840   25.3200   35.1150 C   0  0  0  0  0  0  0  0  0  0  0  0
   38.3950   24.7420   34.6230 C   0  0  0  0  0  0  0  0  0  0  0  0
   37.5060   25.7760   33.9580 C   0  0  0  0  0  0  0  0  0  0  0  0
   36.3880   26.6280   35.5650 H   0  0  0  0  0  0  0  0  0  0  0  0
   38.5120   28.4940   35.6750 H   0  0  0  0  0  0  0  0  0  0  0  0
   38.2910   27.0460   36.6870 H   0  0  0  0  0  0  0  0  0  0  0  0
   39.8780   27.2560   34.1140 H   0  0  0  0  0  0  0  0  0  0  0  0
   40.4880   27.1920   35.8100 H   0  0  0  0  0  0  0  0  0  0  0  0
   40.0000   24.9140   36.1030 H   0  0  0  0  0  0  0  0  0  0  0  0
   40.4770   25.0060   34.4030 H   0  0  0  0  0  0  0  0  0  0  0  0
   37.8180   24.3800   35.5100 H   0  0  0  0  0  0  0  0  0  0  0  0
   38.5260   23.8910   33.9300 H   0  0  0  0  0  0  0  0  0  0  0  0
   36.5780   25.2380   33.6800 H   0  0  0  0  0  0  0  0  0  0  0  0
   37.9700   26.1000   32.9910 H   0  0  0  0  0  0  0  0  0  0  0  0
   36.6360   28.0200   34.0350 C   0  0  0  0  0  0  0  0  0  0  0  0
   36.8720   27.9610   32.6510 C   0  0  0  0  0  0  0  0  0  0  0  0
   36.3580   28.9870   31.8700 C   0  0  0  0  0  0  0  0  0  0  0  0
   35.6590   29.9910   32.4630 N   0  0  0  0  0  0  0  0  0  0  0  0
   35.4430   30.0250   33.8150 C   0  0  0  0  0  0  0  0  0  0  0  0
   35.9320   29.0420   34.5800 N   0  0  0  0  0  0  0  0  0  0  0  0
   37.4080   27.2120   32.1280 H   0  0  0  0  0  0  0  0  0  0  0  0
   34.8770   30.8610   34.2020 H   0  0  0  0  0  0  0  0  0  0  0  0
   36.5410   29.0280   30.4250 C   0  0  0  0  0  3  0  0  0  0  0  0
   37.7290   29.1450   29.8590 C   0  0  0  0  0  3  0  0  0  0  0  0
   37.9490   29.1890   28.3900 C   0  0  0  0  0  2  0  0  0  0  0  0
   38.5770   28.3330   28.0220 H   0  0  0  0  0  0  0  0  0  0  0  0
  1  7  1  0  0  0  0
  1  2  1  0  0  0  0
  2  8  1  0  0  0  0
  2  9  1  0  0  0  0
  3  2  1  0  0  0  0
  3 11  1  0  0  0  0
  4  3  1  0  0  0  0
  4 12  1  0  0  0  0
  5  4  1  0  0  0  0
  5 14  1  0  0  0  0
  6  5  1  0  0  0  0
  6  1  1  0  0  0  0
 10  3  1  0  0  0  0
 13  4  1  0  0  0  0
 15  5  1  0  0  0  0
 16  6  1  0  0  0  0
 17  6  1  0  0  0  0
 18 23  1  0  0  0  0
 18  1  1  0  0  0  0
 19 18  2  0  0  0  0
 20 21  2  0  0  0  0
 20 19  1  0  0  0  0
 21 22  1  0  0  0  0
 22 25  1  0  0  0  0
 22 23  2  0  0  0  0
 24 19  1  0  0  0  0
 26 20  1  0  0  0  0
 27 26  2  0  0  0  0
 28 27  1  0  0  0  0
 29 28  1  0  0  0  0
M  END
>  <minimizedAffinity>
-4.37400866

$$$$
