
 OpenBabel03272508403D

 37 39  0  0  1  0  0  0  0  0999 V2000
   33.1040   31.2360   43.5490 N   0  0  0  0  0  0  0  0  0  0  0  0
   33.2220   30.7660   44.9250 C   0  0  0  0  0  0  0  0  0  0  0  0
   34.5590   30.3020   45.2950 C   0  0  2  0  0  0  0  0  0  0  0  0
   35.1600   29.4390   44.2420 N   0  0  0  0  0  0  0  0  0  0  0  0
   35.1300   30.2060   42.9830 C   0  0  0  0  0  0  0  0  0  0  0  0
   33.6570   30.2790   42.6570 C   0  0  0  0  0  0  0  0  0  0  0  0
   32.8120   31.5330   45.5720 H   0  0  0  0  0  0  0  0  0  0  0  0
   32.5600   29.8360   44.8620 H   0  0  0  0  0  0  0  0  0  0  0  0
   35.3430   31.0780   45.3530 H   0  0  0  0  0  0  0  0  0  0  0  0
   34.5700   28.6000   44.1340 H   0  0  0  0  0  0  0  0  0  0  0  0
   35.5890   31.1870   43.1130 H   0  0  0  0  0  0  0  0  0  0  0  0
   35.6040   29.5610   42.2270 H   0  0  0  0  0  0  0  0  0  0  0  0
   33.2340   29.2630   42.7980 H   0  0  0  0  0  0  0  0  0  0  0  0
   33.5140   30.5400   41.5930 H   0  0  0  0  0  0  0  0  0  0  0  0
   32.7090   27.9730   45.3280 Cl  0  0  0  0  0  0  0  0  0  0  0  0
   33.7320   28.4410   46.6870 C   0  0  0  0  0  0  0  0  0  0  0  0
   34.5110   29.5560   46.5390 C   0  0  0  0  0  0  0  0  0  0  0  0
   35.3720   30.0450   47.5320 C   0  0  0  0  0  0  0  0  0  0  0  0
   35.3970   29.3180   48.7290 C   0  0  0  0  0  0  0  0  0  0  0  0
   34.5980   28.1780   48.8870 C   0  0  0  0  0  0  0  0  0  0  0  0
   33.7770   27.7550   47.8620 C   0  0  0  0  0  0  0  0  0  0  0  0
   36.0620   30.8410   47.6730 H   0  0  0  0  0  0  0  0  0  0  0  0
   35.9730   29.5000   49.6240 H   0  0  0  0  0  0  0  0  0  0  0  0
   34.5630   27.5690   49.7770 H   0  0  0  0  0  0  0  0  0  0  0  0
   32.9370   26.5760   47.9970 C   0  0  0  0  0  3  0  0  0  0  0  0
   33.2680   25.4070   47.4940 C   0  0  0  0  0  3  0  0  0  0  0  0
   32.4530   24.1750   47.6010 C   0  0  0  0  0  2  0  0  0  0  0  0
   32.0050   23.8490   46.6440 H   0  0  0  0  0  0  0  0  0  0  0  0
   32.5000   32.4740   43.2120 C   0  0  0  0  0  0  0  0  0  0  0  0
   32.4090   32.9190   41.8900 C   0  0  0  0  0  0  0  0  0  0  0  0
   31.7990   34.1460   41.6420 C   0  0  0  0  0  0  0  0  0  0  0  0
   31.3160   34.8630   42.7290 N   0  0  0  0  0  0  0  0  0  0  0  0
   31.4300   34.3860   43.9830 C   0  0  0  0  0  0  0  0  0  0  0  0
   32.0060   33.2220   44.2360 N   0  0  0  0  0  0  0  0  0  0  0  0
   32.8040   32.3180   41.0910 H   0  0  0  0  0  0  0  0  0  0  0  0
   31.7010   34.5390   40.6440 H   0  0  0  0  0  0  0  0  0  0  0  0
   31.0510   34.9480   44.8230 H   0  0  0  0  0  0  0  0  0  0  0  0
  1  2  1  0  0  0  0
  2  3  1  0  0  0  0
  2  7  1  0  0  0  0
  3  9  1  1  0  0  0
  3 17  1  0  0  0  0
  4  3  1  0  0  0  0
  5 11  1  0  0  0  0
  5  4  1  0  0  0  0
  6 13  1  0  0  0  0
  6  5  1  0  0  0  0
  6  1  1  0  0  0  0
  8  2  1  0  0  0  0
 10  4  1  0  0  0  0
 12  5  1  0  0  0  0
 14  6  1  0  0  0  0
 15 16  1  0  0  0  0
 16 21  1  0  0  0  0
 17 16  2  0  0  0  0
 17 18  1  0  0  0  0
 18 22  1  0  0  0  0
 18 19  2  0  0  0  0
 19 20  1  0  0  0  0
 19 23  1  0  0  0  0
 20 24  1  0  0  0  0
 21 25  1  0  0  0  0
 21 20  2  0  0  0  0
 26 27  1  0  0  0  0
 26 25  2  0  0  0  0
 28 27  1  0  0  0  0
 29  1  1  0  0  0  0
 29 34  1  0  0  0  0
 30 29  2  0  0  0  0
 31 30  1  0  0  0  0
 31 32  2  0  0  0  0
 32 33  1  0  0  0  0
 33 34  2  0  0  0  0
 33 37  1  0  0  0  0
 35 30  1  0  0  0  0
 36 31  1  0  0  0  0
M  END
>  <minimizedAffinity>
-4.20700216

>  <minimizedRMSD>
5.44229269

$$$$
