
 OpenBabel03272507363D

 14 14  0  0  0  0  0  0  0  0999 V2000
   36.9870   30.0100   50.6340 C   0  0  0  0  0  0  0  0  0  0  0  0
   37.3020   30.9100   49.6210 C   0  0  0  0  0  0  0  0  0  0  0  0
   36.5190   30.9160   48.4780 C   0  0  0  0  0  0  0  0  0  0  0  0
   35.4810   30.0470   48.3970 N   0  0  0  0  0  0  0  0  0  0  0  0
   35.1830   29.1710   49.3950 C   0  0  0  0  0  0  0  0  0  0  0  0
   35.9450   29.1780   50.4860 N   0  0  0  0  0  0  0  0  0  0  0  0
   36.6360   31.5430   47.6250 H   0  0  0  0  0  0  0  0  0  0  0  0
   34.3550   28.4790   49.3270 H   0  0  0  0  0  0  0  0  0  0  0  0
   37.8410   30.1040   51.7140 O   0  0  0  0  0  0  0  0  0  0  0  0
   38.1120   29.3070   52.3030 H   0  0  0  0  0  0  0  0  0  0  0  0
   38.4140   31.8500   49.6860 C   0  0  0  0  0  3  0  0  0  0  0  0
   38.3290   33.0840   49.2210 C   0  0  0  0  0  3  0  0  0  0  0  0
   39.3870   34.0910   49.2430 C   0  0  0  0  0  2  0  0  0  0  0  0
   39.6830   34.3470   48.2030 H   0  0  0  0  0  0  0  0  0  0  0  0
  1  9  1  0  0  0  0
  2 11  1  0  0  0  0
  2  1  2  0  0  0  0
  3  2  1  0  0  0  0
  4  3  2  0  0  0  0
  4  5  1  0  0  0  0
  5  6  2  0  0  0  0
  6  1  1  0  0  0  0
  7  3  1  0  0  0  0
  8  5  1  0  0  0  0
  9 10  1  0  0  0  0
 12 13  1  0  0  0  0
 12 11  2  0  0  0  0
 14 13  1  0  0  0  0
M  END
>  <minimizedAffinity>
-4.66719341

>  <minimizedRMSD>
1.96941853

$$$$
