
 OpenBabel03272509533D

 38 40  0  0  0  0  0  0  0  0999 V2000
   37.2980   30.1510   51.4750 C   0  0  0  0  0  0  0  0  0  0  0  0
   38.0520   30.8430   50.4960 C   0  0  0  0  0  0  0  0  0  0  0  0
   37.6970   30.6450   49.1700 C   0  0  0  0  0  0  0  0  0  0  0  0
   36.6460   29.7970   48.9240 N   0  0  0  0  0  0  0  0  0  0  0  0
   35.9580   29.1630   49.8710 C   0  0  0  0  0  0  0  0  0  0  0  0
   36.2980   29.3510   51.1650 N   0  0  0  0  0  0  0  0  0  0  0  0
   37.6370   30.3590   52.4890 H   0  0  0  0  0  0  0  0  0  0  0  0
   38.8780   31.5090   50.6950 H   0  0  0  0  0  0  0  0  0  0  0  0
   38.9200   33.2630   49.0070 F   0  0  0  0  0  0  0  0  0  0  0  0
   38.9150   32.4740   47.9360 C   0  0  0  0  0  0  0  0  0  0  0  0
   38.3400   31.2560   48.0310 C   0  0  0  0  0  0  0  0  0  0  0  0
   38.3940   30.5220   46.8550 C   0  0  0  0  0  0  0  0  0  0  0  0
   38.9790   30.9940   45.7080 C   0  0  0  0  0  0  0  0  0  0  0  0
   39.5480   32.2320   45.6560 C   0  0  0  0  0  0  0  0  0  0  0  0
   39.5110   32.9830   46.8030 C   0  0  0  0  0  0  0  0  0  0  0  0
   37.9770   29.5120   46.7530 H   0  0  0  0  0  0  0  0  0  0  0  0
   39.0190   30.4090   44.7810 H   0  0  0  0  0  0  0  0  0  0  0  0
   40.0140   32.6260   44.7630 H   0  0  0  0  0  0  0  0  0  0  0  0
   39.9560   33.9690   46.7870 H   0  0  0  0  0  0  0  0  0  0  0  0
   34.9670   28.3810   49.3800 O   0  0  0  0  0  0  0  0  0  0  0  0
   34.4170   28.6920   48.0970 C   0  0  0  0  0  0  0  0  0  0  0  0
   35.2140   28.9640   47.3790 H   0  0  0  0  0  0  0  0  0  0  0  0
   33.7950   29.5970   48.2520 H   0  0  0  0  0  0  0  0  0  0  0  0
   33.5280   27.5870   47.6250 C   0  0  0  0  0  0  0  0  0  0  0  0
   33.7890   26.5960   48.0080 H   0  0  0  0  0  0  0  0  0  0  0  0
   33.6830   27.5150   46.5080 H   0  0  0  0  0  0  0  0  0  0  0  0
   32.0820   27.8950   47.7820 C   0  0  0  0  0  0  0  0  0  0  0  0
   31.4500   27.4730   48.9560 C   0  0  0  0  0  0  0  0  0  0  0  0
   30.1230   27.7170   49.1760 C   0  0  0  0  0  0  0  0  0  0  0  0
   29.4170   28.3610   48.2700 N   0  0  0  0  0  0  0  0  0  0  0  0
   30.0370   28.7730   47.1230 C   0  0  0  0  0  0  0  0  0  0  0  0
   31.3390   28.5560   46.8610 N   0  0  0  0  0  0  0  0  0  0  0  0
   32.0450   26.9430   49.6950 H   0  0  0  0  0  0  0  0  0  0  0  0
   29.6080   27.3980   50.0830 H   0  0  0  0  0  0  0  0  0  0  0  0
   29.2110   29.4820   46.1500 C   0  0  0  0  0  3  0  0  0  0  0  0
   29.7120   30.2750   45.2480 C   0  0  0  0  0  3  0  0  0  0  0  0
   28.8760   31.0080   44.2460 C   0  0  0  0  0  2  0  0  0  0  0  0
   27.8210   30.8680   44.5590 H   0  0  0  0  0  0  0  0  0  0  0  0
  1  7  1  0  0  0  0
  2  8  1  0  0  0  0
  2  1  2  0  0  0  0
  3  2  1  0  0  0  0
  4  3  2  0  0  0  0
  4  5  1  0  0  0  0
  5  6  2  0  0  0  0
  6  1  1  0  0  0  0
 10 11  1  0  0  0  0
 10  9  1  0  0  0  0
 11  3  1  0  0  0  0
 12 11  2  0  0  0  0
 13 12  1  0  0  0  0
 14 13  2  0  0  0  0
 14 15  1  0  0  0  0
 15 10  2  0  0  0  0
 16 12  1  0  0  0  0
 17 13  1  0  0  0  0
 18 14  1  0  0  0  0
 19 15  1  0  0  0  0
 20  5  1  0  0  0  0
 21 23  1  0  0  0  0
 21 20  1  0  0  0  0
 22 21  1  0  0  0  0
 24 27  1  0  0  0  0
 24 25  1  0  0  0  0
 24 21  1  0  0  0  0
 26 24  1  0  0  0  0
 27 28  1  0  0  0  0
 28 29  2  0  0  0  0
 28 33  1  0  0  0  0
 29 34  1  0  0  0  0
 30 29  1  0  0  0  0
 31 30  2  0  0  0  0
 32 31  1  0  0  0  0
 32 27  2  0  0  0  0
 35 31  1  0  0  0  0
 36 35  2  0  0  0  0
 37 38  1  0  0  0  0
 37 36  1  0  0  0  0
M  END
>  <minimizedAffinity>
-6.25911522

>  <minimizedRMSD>
0.367810905

$$$$
