
 OpenBabel03272502533D

 22 23  0  0  0  0  0  0  0  0999 V2000
   38.3250   24.6810   36.1440 C   0  0  0  0  0  0  0  0  0  0  0  0
   37.8270   24.7830   37.4360 C   0  0  0  0  0  0  0  0  0  0  0  0
   38.2680   23.9670   38.4580 C   0  0  0  0  0  0  0  0  0  0  0  0
   39.2290   23.0470   38.1180 C   0  0  0  0  0  0  0  0  0  0  0  0
   39.7460   22.9210   36.8370 C   0  0  0  0  0  0  0  0  0  0  0  0
   39.2690   23.7580   35.8680 N   0  0  0  0  0  0  0  0  0  0  0  0
   37.0710   25.5220   37.6590 H   0  0  0  0  0  0  0  0  0  0  0  0
   37.8610   24.0700   39.4570 H   0  0  0  0  0  0  0  0  0  0  0  0
   39.6060   22.3850   38.8860 H   0  0  0  0  0  0  0  0  0  0  0  0
   36.9730   27.6300   34.4610 C   0  0  0  0  0  0  0  0  0  0  0  0
   36.8840   27.2230   33.1280 C   0  0  0  0  0  0  0  0  0  0  0  0
   37.2970   25.9200   32.8180 C   0  0  0  0  0  0  0  0  0  0  0  0
   37.7540   25.1410   33.8370 N   0  0  0  0  0  0  0  0  0  0  0  0
   37.8260   25.5650   35.1090 C   0  0  0  0  0  0  0  0  0  0  0  0
   37.4350   26.8060   35.4110 N   0  0  0  0  0  0  0  0  0  0  0  0
   36.6500   28.6500   34.6990 H   0  0  0  0  0  0  0  0  0  0  0  0
   36.5080   27.9000   32.3620 H   0  0  0  0  0  0  0  0  0  0  0  0
   37.2470   25.5570   31.7970 H   0  0  0  0  0  0  0  0  0  0  0  0
   40.7670   21.9360   36.4990 C   0  0  0  0  0  3  0  0  0  0  0  0
   41.6000   21.4740   37.4180 C   0  0  0  0  0  3  0  0  0  0  0  0
   42.6620   20.4690   37.1280 C   0  0  0  0  0  2  0  0  0  0  0  0
   42.4390   19.4950   37.6050 H   0  0  0  0  0  0  0  0  0  0  0  0
  1  2  1  0  0  0  0
  2  7  1  0  0  0  0
  2  3  2  0  0  0  0
  3  8  1  0  0  0  0
  4  3  1  0  0  0  0
  4  9  1  0  0  0  0
  5  4  2  0  0  0  0
  6  1  2  0  0  0  0
  6  5  1  0  0  0  0
 10 16  1  0  0  0  0
 10 15  1  0  0  0  0
 11 10  2  0  0  0  0
 12 11  1  0  0  0  0
 12 13  2  0  0  0  0
 13 14  1  0  0  0  0
 14 15  2  0  0  0  0
 14  1  1  0  0  0  0
 17 11  1  0  0  0  0
 18 12  1  0  0  0  0
 19  5  1  0  0  0  0
 19 20  2  0  0  0  0
 21 20  1  0  0  0  0
 21 22  1  0  0  0  0
M  END
>  <minimizedAffinity>
-4.77649975

$$$$

 OpenBabel03272502533D

 22 23  0  0  0  0  0  0  0  0999 V2000
   37.2060   25.3900   32.5260 C   0  0  0  0  0  0  0  0  0  0  0  0
   36.3670   26.3300   31.9450 C   0  0  0  0  0  0  0  0  0  0  0  0
   35.2930   25.9680   31.1580 C   0  0  0  0  0  0  0  0  0  0  0  0
   35.1060   24.6190   30.9840 C   0  0  0  0  0  0  0  0  0  0  0  0
   35.9270   23.6550   31.5500 C   0  0  0  0  0  0  0  0  0  0  0  0
   36.9740   24.0760   32.3200 N   0  0  0  0  0  0  0  0  0  0  0  0
   36.5510   27.3820   32.1090 H   0  0  0  0  0  0  0  0  0  0  0  0
   34.6550   26.7250   30.7180 H   0  0  0  0  0  0  0  0  0  0  0  0
   34.2770   24.2860   30.3740 H   0  0  0  0  0  0  0  0  0  0  0  0
   40.5960   25.8150   33.8250 C   0  0  0  0  0  0  0  0  0  0  0  0
   40.4150   26.6700   34.9140 C   0  0  0  0  0  0  0  0  0  0  0  0
   39.1090   27.0980   35.1940 C   0  0  0  0  0  0  0  0  0  0  0  0
   38.1090   26.6490   34.3860 N   0  0  0  0  0  0  0  0  0  0  0  0
   38.3200   25.8270   33.3450 C   0  0  0  0  0  0  0  0  0  0  0  0
   39.5600   25.4160   33.0740 N   0  0  0  0  0  0  0  0  0  0  0  0
   41.6180   25.4840   33.6100 H   0  0  0  0  0  0  0  0  0  0  0  0
   41.2620   26.9900   35.5190 H   0  0  0  0  0  0  0  0  0  0  0  0
   38.9170   27.7620   36.0300 H   0  0  0  0  0  0  0  0  0  0  0  0
   35.7090   22.2270   31.3520 C   0  0  0  0  0  3  0  0  0  0  0  0
   35.0750   21.5000   32.2600 C   0  0  0  0  0  3  0  0  0  0  0  0
   34.8250   20.0390   32.1090 C   0  0  0  0  0  2  0  0  0  0  0  0
   33.7500   19.8250   31.9600 H   0  0  0  0  0  0  0  0  0  0  0  0
  1 14  1  0  0  0  0
  2  7  1  0  0  0  0
  2  1  2  0  0  0  0
  3  2  1  0  0  0  0
  4  3  2  0  0  0  0
  4  5  1  0  0  0  0
  5  6  2  0  0  0  0
  6  1  1  0  0  0  0
  8  3  1  0  0  0  0
  9  4  1  0  0  0  0
 10 11  1  0  0  0  0
 11 12  2  0  0  0  0
 11 17  1  0  0  0  0
 12 18  1  0  0  0  0
 13 12  1  0  0  0  0
 14 13  2  0  0  0  0
 15 14  1  0  0  0  0
 15 10  2  0  0  0  0
 16 10  1  0  0  0  0
 19  5  1  0  0  0  0
 19 20  2  0  0  0  0
 21 20  1  0  0  0  0
 22 21  1  0  0  0  0
M  END
>  <minimizedAffinity>
-4.45292616

$$$$

 OpenBabel03272502533D

 22 23  0  0  0  0  0  0  0  0999 V2000
   38.4940   25.4580   35.4630 C   0  0  0  0  0  0  0  0  0  0  0  0
   38.4500   26.7340   36.0100 C   0  0  0  0  0  0  0  0  0  0  0  0
   37.7950   27.7760   35.3860 C   0  0  0  0  0  0  0  0  0  0  0  0
   37.1900   27.4740   34.1910 C   0  0  0  0  0  0  0  0  0  0  0  0
   37.2170   26.2110   33.6190 C   0  0  0  0  0  0  0  0  0  0  0  0
   37.8820   25.2200   34.2850 N   0  0  0  0  0  0  0  0  0  0  0  0
   38.9390   26.9260   36.9540 H   0  0  0  0  0  0  0  0  0  0  0  0
   37.7770   28.7610   35.8380 H   0  0  0  0  0  0  0  0  0  0  0  0
   36.6650   28.2600   33.6640 H   0  0  0  0  0  0  0  0  0  0  0  0
   40.9830   22.9180   36.3040 C   0  0  0  0  0  0  0  0  0  0  0  0
   40.5080   22.3920   37.5080 C   0  0  0  0  0  0  0  0  0  0  0  0
   39.3190   22.9250   38.0250 C   0  0  0  0  0  0  0  0  0  0  0  0
   38.7100   23.9170   37.3180 N   0  0  0  0  0  0  0  0  0  0  0  0
   39.1960   24.4000   36.1630 C   0  0  0  0  0  0  0  0  0  0  0  0
   40.3280   23.8960   35.6660 N   0  0  0  0  0  0  0  0  0  0  0  0
   41.9140   22.4990   35.9050 H   0  0  0  0  0  0  0  0  0  0  0  0
   41.0470   21.5980   38.0220 H   0  0  0  0  0  0  0  0  0  0  0  0
   38.9090   22.5500   38.9560 H   0  0  0  0  0  0  0  0  0  0  0  0
   36.5680   25.9140   32.3470 C   0  0  0  0  0  3  0  0  0  0  0  0
   36.2350   24.6730   32.0250 C   0  0  0  0  0  3  0  0  0  0  0  0
   35.5700   24.3130   30.7410 C   0  0  0  0  0  2  0  0  0  0  0  0
   34.5260   23.9860   30.9030 H   0  0  0  0  0  0  0  0  0  0  0  0
  1  2  1  0  0  0  0
  1 14  1  0  0  0  0
  2  7  1  0  0  0  0
  3  8  1  0  0  0  0
  3  2  2  0  0  0  0
  4  3  1  0  0  0  0
  5  4  2  0  0  0  0
  5  6  1  0  0  0  0
  6  1  2  0  0  0  0
  9  4  1  0  0  0  0
 10 11  1  0  0  0  0
 11 17  1  0  0  0  0
 11 12  2  0  0  0  0
 12 18  1  0  0  0  0
 13 12  1  0  0  0  0
 14 13  2  0  0  0  0
 15 14  1  0  0  0  0
 15 10  2  0  0  0  0
 16 10  1  0  0  0  0
 19  5  1  0  0  0  0
 20 19  2  0  0  0  0
 21 22  1  0  0  0  0
 21 20  1  0  0  0  0
M  END
>  <minimizedAffinity>
-4.40787554

$$$$

 OpenBabel03272502533D

 22 23  0  0  0  0  0  0  0  0999 V2000
   36.8350   27.5350   33.7040 C   0  0  0  0  0  0  0  0  0  0  0  0
   36.9520   27.7800   32.3420 C   0  0  0  0  0  0  0  0  0  0  0  0
   36.4640   28.9310   31.7590 C   0  0  0  0  0  0  0  0  0  0  0  0
   35.8540   29.8210   32.6100 C   0  0  0  0  0  0  0  0  0  0  0  0
   35.7210   29.6050   33.9730 C   0  0  0  0  0  0  0  0  0  0  0  0
   36.2250   28.4460   34.4910 N   0  0  0  0  0  0  0  0  0  0  0  0
   37.4400   27.0520   31.7100 H   0  0  0  0  0  0  0  0  0  0  0  0
   36.5710   29.0950   30.6940 H   0  0  0  0  0  0  0  0  0  0  0  0
   35.4550   30.7390   32.1990 H   0  0  0  0  0  0  0  0  0  0  0  0
   38.1240   25.0900   36.0940 C   0  0  0  0  0  0  0  0  0  0  0  0
   38.3760   23.9690   35.3000 C   0  0  0  0  0  0  0  0  0  0  0  0
   38.0950   24.0680   33.9290 C   0  0  0  0  0  0  0  0  0  0  0  0
   37.5980   25.2500   33.4690 N   0  0  0  0  0  0  0  0  0  0  0  0
   37.3670   26.3080   34.2630 C   0  0  0  0  0  0  0  0  0  0  0  0
   37.6320   26.2190   35.5680 N   0  0  0  0  0  0  0  0  0  0  0  0
   38.3450   25.0070   37.1650 H   0  0  0  0  0  0  0  0  0  0  0  0
   38.7750   23.0540   35.7350 H   0  0  0  0  0  0  0  0  0  0  0  0
   38.2740   23.2250   33.2710 H   0  0  0  0  0  0  0  0  0  0  0  0
   35.0690   30.5640   34.8580 C   0  0  0  0  0  3  0  0  0  0  0  0
   35.7670   31.2640   35.7390 C   0  0  0  0  0  3  0  0  0  0  0  0
   35.1530   32.2560   36.6660 C   0  0  0  0  0  2  0  0  0  0  0  0
   35.4500   33.2900   36.4070 H   0  0  0  0  0  0  0  0  0  0  0  0
  1 14  1  0  0  0  0
  1  6  1  0  0  0  0
  2  1  2  0  0  0  0
  3  2  1  0  0  0  0
  3  4  2  0  0  0  0
  4  5  1  0  0  0  0
  5  6  2  0  0  0  0
  5 19  1  0  0  0  0
  7  2  1  0  0  0  0
  8  3  1  0  0  0  0
  9  4  1  0  0  0  0
 10 16  1  0  0  0  0
 11 17  1  0  0  0  0
 11 10  2  0  0  0  0
 12 11  1  0  0  0  0
 13 12  2  0  0  0  0
 13 14  1  0  0  0  0
 14 15  2  0  0  0  0
 15 10  1  0  0  0  0
 18 12  1  0  0  0  0
 19 20  2  0  0  0  0
 20 21  1  0  0  0  0
 22 21  1  0  0  0  0
M  END
>  <minimizedAffinity>
-4.38859749

$$$$

 OpenBabel03272502533D

 22 23  0  0  0  0  0  0  0  0999 V2000
   36.1820   23.3530   31.9470 C   0  0  0  0  0  0  0  0  0  0  0  0
   35.3920   24.0970   31.0820 C   0  0  0  0  0  0  0  0  0  0  0  0
   35.4700   25.4730   31.0160 C   0  0  0  0  0  0  0  0  0  0  0  0
   36.3790   26.0620   31.8620 C   0  0  0  0  0  0  0  0  0  0  0  0
   37.1820   25.3460   32.7370 C   0  0  0  0  0  0  0  0  0  0  0  0
   37.0580   23.9860   32.7550 N   0  0  0  0  0  0  0  0  0  0  0  0
   34.6900   23.5920   30.4330 H   0  0  0  0  0  0  0  0  0  0  0  0
   34.8410   26.0270   30.3310 H   0  0  0  0  0  0  0  0  0  0  0  0
   36.4770   27.1390   31.8470 H   0  0  0  0  0  0  0  0  0  0  0  0
   35.5880   19.9460   33.1300 C   0  0  0  0  0  0  0  0  0  0  0  0
   35.8300   19.1680   31.9960 C   0  0  0  0  0  0  0  0  0  0  0  0
   36.2010   19.8340   30.8190 C   0  0  0  0  0  0  0  0  0  0  0  0
   36.2990   21.1910   30.8640 N   0  0  0  0  0  0  0  0  0  0  0  0
   36.0580   21.9080   31.9730 C   0  0  0  0  0  0  0  0  0  0  0  0
   35.7050   21.2810   33.0960 N   0  0  0  0  0  0  0  0  0  0  0  0
   35.2980   19.4220   34.0480 H   0  0  0  0  0  0  0  0  0  0  0  0
   35.7320   18.0840   32.0310 H   0  0  0  0  0  0  0  0  0  0  0  0
   36.4000   19.2730   29.9120 H   0  0  0  0  0  0  0  0  0  0  0  0
   38.1410   25.9930   33.6260 C   0  0  0  0  0  3  0  0  0  0  0  0
   37.7400   26.6230   34.7200 C   0  0  0  0  0  3  0  0  0  0  0  0
   38.6750   27.3000   35.6620 C   0  0  0  0  0  2  0  0  0  0  0  0
   38.7300   26.7680   36.6310 H   0  0  0  0  0  0  0  0  0  0  0  0
  1 14  1  0  0  0  0
  1  6  1  0  0  0  0
  2  1  2  0  0  0  0
  3  2  1  0  0  0  0
  3  4  2  0  0  0  0
  4  5  1  0  0  0  0
  5  6  2  0  0  0  0
  5 19  1  0  0  0  0
  7  2  1  0  0  0  0
  8  3  1  0  0  0  0
  9  4  1  0  0  0  0
 10 16  1  0  0  0  0
 11 17  1  0  0  0  0
 11 10  2  0  0  0  0
 12 13  2  0  0  0  0
 12 11  1  0  0  0  0
 13 14  1  0  0  0  0
 14 15  2  0  0  0  0
 15 10  1  0  0  0  0
 18 12  1  0  0  0  0
 19 20  2  0  0  0  0
 20 21  1  0  0  0  0
 21 22  1  0  0  0  0
M  END
>  <minimizedAffinity>
-4.34609509

$$$$

 OpenBabel03272502533D

 22 23  0  0  0  0  0  0  0  0999 V2000
   37.9110   25.2860   34.9720 C   0  0  0  0  0  0  0  0  0  0  0  0
   37.9330   24.8010   33.6710 C   0  0  0  0  0  0  0  0  0  0  0  0
   37.4400   25.5290   32.6080 C   0  0  0  0  0  0  0  0  0  0  0  0
   36.9250   26.7650   32.9160 C   0  0  0  0  0  0  0  0  0  0  0  0
   36.8880   27.2770   34.2040 C   0  0  0  0  0  0  0  0  0  0  0  0
   37.3920   26.5080   35.2150 N   0  0  0  0  0  0  0  0  0  0  0  0
   38.3490   23.8230   33.4750 H   0  0  0  0  0  0  0  0  0  0  0  0
   37.4720   25.1240   31.6040 H   0  0  0  0  0  0  0  0  0  0  0  0
   36.5260   27.3730   32.1150 H   0  0  0  0  0  0  0  0  0  0  0  0
   40.0450   22.9960   36.8580 C   0  0  0  0  0  0  0  0  0  0  0  0
   39.4350   22.9530   38.1130 C   0  0  0  0  0  0  0  0  0  0  0  0
   38.2790   23.7250   38.3010 C   0  0  0  0  0  0  0  0  0  0  0  0
   37.8320   24.4600   37.2460 N   0  0  0  0  0  0  0  0  0  0  0  0
   38.4440   24.4780   36.0510 C   0  0  0  0  0  0  0  0  0  0  0  0
   39.5450   23.7460   35.8670 N   0  0  0  0  0  0  0  0  0  0  0  0
   40.9480   22.3920   36.7160 H   0  0  0  0  0  0  0  0  0  0  0  0
   39.8480   22.3420   38.9140 H   0  0  0  0  0  0  0  0  0  0  0  0
   37.7690   23.7250   39.2580 H   0  0  0  0  0  0  0  0  0  0  0  0
   36.3360   28.5920   34.5080 C   0  0  0  0  0  3  0  0  0  0  0  0
   35.6600   29.2760   33.5970 C   0  0  0  0  0  3  0  0  0  0  0  0
   35.0750   30.6220   33.8530 C   0  0  0  0  0  2  0  0  0  0  0  0
   33.9690   30.5860   33.8740 H   0  0  0  0  0  0  0  0  0  0  0  0
  1  6  1  0  0  0  0
  1 14  1  0  0  0  0
  2  1  2  0  0  0  0
  3  4  2  0  0  0  0
  3  2  1  0  0  0  0
  4  5  1  0  0  0  0
  5 19  1  0  0  0  0
  5  6  2  0  0  0  0
  7  2  1  0  0  0  0
  8  3  1  0  0  0  0
  9  4  1  0  0  0  0
 10 11  1  0  0  0  0
 11 12  2  0  0  0  0
 11 17  1  0  0  0  0
 12 18  1  0  0  0  0
 13 12  1  0  0  0  0
 14 13  2  0  0  0  0
 15 14  1  0  0  0  0
 15 10  2  0  0  0  0
 16 10  1  0  0  0  0
 20 21  1  0  0  0  0
 20 19  2  0  0  0  0
 21 22  1  0  0  0  0
M  END
>  <minimizedAffinity>
-4.34067917

$$$$

 OpenBabel03272502533D

 22 23  0  0  0  0  0  0  0  0999 V2000
   36.0720   27.8000   32.0380 C   0  0  0  0  0  0  0  0  0  0  0  0
   36.2110   28.6210   30.9280 C   0  0  0  0  0  0  0  0  0  0  0  0
   36.1380   29.9960   31.0180 C   0  0  0  0  0  0  0  0  0  0  0  0
   35.9190   30.5020   32.2760 C   0  0  0  0  0  0  0  0  0  0  0  0
   35.7750   29.7090   33.4040 C   0  0  0  0  0  0  0  0  0  0  0  0
   35.8580   28.3540   33.2500 N   0  0  0  0  0  0  0  0  0  0  0  0
   36.3840   28.1790   29.9560 H   0  0  0  0  0  0  0  0  0  0  0  0
   36.2510   30.6110   30.1330 H   0  0  0  0  0  0  0  0  0  0  0  0
   35.8530   31.5750   32.3970 H   0  0  0  0  0  0  0  0  0  0  0  0
   35.3900   24.3860   30.9260 C   0  0  0  0  0  0  0  0  0  0  0  0
   36.3440   23.6310   31.6110 C   0  0  0  0  0  0  0  0  0  0  0  0
   37.2250   24.3140   32.4620 C   0  0  0  0  0  0  0  0  0  0  0  0
   37.0880   25.6650   32.5600 N   0  0  0  0  0  0  0  0  0  0  0  0
   36.1590   26.3600   31.8850 C   0  0  0  0  0  0  0  0  0  0  0  0
   35.3180   25.7160   31.0740 N   0  0  0  0  0  0  0  0  0  0  0  0
   34.7040   23.8470   30.2620 H   0  0  0  0  0  0  0  0  0  0  0  0
   36.3970   22.5500   31.4850 H   0  0  0  0  0  0  0  0  0  0  0  0
   37.9830   23.7720   33.0160 H   0  0  0  0  0  0  0  0  0  0  0  0
   35.5420   30.2690   34.7300 C   0  0  0  0  0  3  0  0  0  0  0  0
   35.6870   31.5650   34.9590 C   0  0  0  0  0  3  0  0  0  0  0  0
   35.4630   32.1900   36.2930 C   0  0  0  0  0  2  0  0  0  0  0  0
   34.5620   32.8330   36.2930 H   0  0  0  0  0  0  0  0  0  0  0  0
  1  6  1  0  0  0  0
  2  3  1  0  0  0  0
  2  1  2  0  0  0  0
  3  4  2  0  0  0  0
  4  9  1  0  0  0  0
  4  5  1  0  0  0  0
  5 19  1  0  0  0  0
  6  5  2  0  0  0  0
  7  2  1  0  0  0  0
  8  3  1  0  0  0  0
 10 15  2  0  0  0  0
 10 11  1  0  0  0  0
 11 12  2  0  0  0  0
 12 13  1  0  0  0  0
 12 18  1  0  0  0  0
 14  1  1  0  0  0  0
 14 13  2  0  0  0  0
 15 14  1  0  0  0  0
 16 10  1  0  0  0  0
 17 11  1  0  0  0  0
 19 20  2  0  0  0  0
 20 21  1  0  0  0  0
 21 22  1  0  0  0  0
M  END
>  <minimizedAffinity>
-4.21941137

$$$$

 OpenBabel03272502533D

 22 23  0  0  0  0  0  0  0  0999 V2000
   37.7710   26.0400   33.6430 C   0  0  0  0  0  0  0  0  0  0  0  0
   37.1920   26.6720   34.7360 C   0  0  0  0  0  0  0  0  0  0  0  0
   37.9480   27.2980   35.7060 C   0  0  0  0  0  0  0  0  0  0  0  0
   39.3090   27.2570   35.5240 C   0  0  0  0  0  0  0  0  0  0  0  0
   39.9170   26.6340   34.4440 C   0  0  0  0  0  0  0  0  0  0  0  0
   39.1140   26.0320   33.5160 N   0  0  0  0  0  0  0  0  0  0  0  0
   36.1170   26.6800   34.8380 H   0  0  0  0  0  0  0  0  0  0  0  0
   37.4690   27.7830   36.5470 H   0  0  0  0  0  0  0  0  0  0  0  0
   39.9440   27.7330   36.2590 H   0  0  0  0  0  0  0  0  0  0  0  0
   36.2180   23.4780   31.5500 C   0  0  0  0  0  0  0  0  0  0  0  0
   35.3180   24.2070   30.7690 C   0  0  0  0  0  0  0  0  0  0  0  0
   35.2540   25.5920   30.9740 C   0  0  0  0  0  0  0  0  0  0  0  0
   36.0740   26.1310   31.9180 N   0  0  0  0  0  0  0  0  0  0  0  0
   36.9270   25.3990   32.6530 C   0  0  0  0  0  0  0  0  0  0  0  0
   36.9920   24.0800   32.4630 N   0  0  0  0  0  0  0  0  0  0  0  0
   36.2630   22.3950   31.3870 H   0  0  0  0  0  0  0  0  0  0  0  0
   34.6910   23.7100   30.0300 H   0  0  0  0  0  0  0  0  0  0  0  0
   34.5720   26.2020   30.3910 H   0  0  0  0  0  0  0  0  0  0  0  0
   41.3640   26.6020   34.2710 C   0  0  0  0  0  3  0  0  0  0  0  0
   42.1000   25.6630   34.8450 C   0  0  0  0  0  3  0  0  0  0  0  0
   43.5810   25.5840   34.7030 C   0  0  0  0  0  2  0  0  0  0  0  0
   43.8840   24.7050   34.1020 H   0  0  0  0  0  0  0  0  0  0  0  0
  1  2  1  0  0  0  0
  2  7  1  0  0  0  0
  2  3  2  0  0  0  0
  3  8  1  0  0  0  0
  4  3  1  0  0  0  0
  4  9  1  0  0  0  0
  5  4  2  0  0  0  0
  6  1  2  0  0  0  0
  6  5  1  0  0  0  0
 10 15  1  0  0  0  0
 11 12  1  0  0  0  0
 11 10  2  0  0  0  0
 12 13  2  0  0  0  0
 13 14  1  0  0  0  0
 14  1  1  0  0  0  0
 15 14  2  0  0  0  0
 16 10  1  0  0  0  0
 17 11  1  0  0  0  0
 18 12  1  0  0  0  0
 19  5  1  0  0  0  0
 19 20  2  0  0  0  0
 21 20  1  0  0  0  0
 22 21  1  0  0  0  0
M  END
>  <minimizedAffinity>
-4.17203283

$$$$

 OpenBabel03272502533D

 22 23  0  0  0  0  0  0  0  0999 V2000
   37.9780   25.4530   34.9080 C   0  0  0  0  0  0  0  0  0  0  0  0
   37.3740   26.6710   35.1900 C   0  0  0  0  0  0  0  0  0  0  0  0
   36.9160   27.5100   34.1960 C   0  0  0  0  0  0  0  0  0  0  0  0
   37.0940   27.0660   32.9080 C   0  0  0  0  0  0  0  0  0  0  0  0
   37.6940   25.8560   32.5930 C   0  0  0  0  0  0  0  0  0  0  0  0
   38.1280   25.0690   33.6230 N   0  0  0  0  0  0  0  0  0  0  0  0
   37.2530   26.9800   36.2190 H   0  0  0  0  0  0  0  0  0  0  0  0
   36.4480   28.4540   34.4470 H   0  0  0  0  0  0  0  0  0  0  0  0
   36.7510   27.6910   32.0940 H   0  0  0  0  0  0  0  0  0  0  0  0
   38.2330   23.8450   38.1800 C   0  0  0  0  0  0  0  0  0  0  0  0
   39.3370   23.0020   38.0360 C   0  0  0  0  0  0  0  0  0  0  0  0
   39.9920   22.9960   36.7960 C   0  0  0  0  0  0  0  0  0  0  0  0
   39.5070   23.8120   35.8200 N   0  0  0  0  0  0  0  0  0  0  0  0
   38.4410   24.6100   35.9930 C   0  0  0  0  0  0  0  0  0  0  0  0
   37.8130   24.6200   37.1710 N   0  0  0  0  0  0  0  0  0  0  0  0
   37.7230   23.8460   39.1500 H   0  0  0  0  0  0  0  0  0  0  0  0
   39.6720   22.3740   38.8600 H   0  0  0  0  0  0  0  0  0  0  0  0
   40.8550   22.3590   36.6350 H   0  0  0  0  0  0  0  0  0  0  0  0
   37.8740   25.4060   31.2180 C   0  0  0  0  0  3  0  0  0  0  0  0
   38.6330   24.3580   30.9370 C   0  0  0  0  0  3  0  0  0  0  0  0
   38.8510   23.8550   29.5510 C   0  0  0  0  0  2  0  0  0  0  0  0
   38.3640   22.8730   29.3950 H   0  0  0  0  0  0  0  0  0  0  0  0
  1  2  1  0  0  0  0
  1 14  1  0  0  0  0
  2  7  1  0  0  0  0
  3  8  1  0  0  0  0
  3  2  2  0  0  0  0
  4  3  1  0  0  0  0
  5  4  2  0  0  0  0
  5  6  1  0  0  0  0
  6  1  2  0  0  0  0
  9  4  1  0  0  0  0
 10 16  1  0  0  0  0
 11 10  1  0  0  0  0
 11 17  1  0  0  0  0
 12 11  2  0  0  0  0
 13 14  2  0  0  0  0
 13 12  1  0  0  0  0
 14 15  1  0  0  0  0
 15 10  2  0  0  0  0
 18 12  1  0  0  0  0
 19  5  1  0  0  0  0
 20 19  2  0  0  0  0
 21 20  1  0  0  0  0
 22 21  1  0  0  0  0
M  END
>  <minimizedAffinity>
-4.13568687

$$$$
