
 OpenBabel03272509503D

 28 29  0  0  0  0  0  0  0  0999 V2000
   33.7380   28.6000   48.7280 C   0  0  0  0  0  0  0  0  0  0  0  0
   34.2410   29.0680   47.8740 H   0  0  0  0  0  0  0  0  0  0  0  0
   33.1070   29.3940   49.2100 H   0  0  0  0  0  0  0  0  0  0  0  0
   32.8290   27.4780   48.3370 C   0  0  0  0  0  0  0  0  0  0  0  0
   33.0680   27.1260   47.2960 H   0  0  0  0  0  0  0  0  0  0  0  0
   32.9640   26.5880   48.9960 H   0  0  0  0  0  0  0  0  0  0  0  0
   31.3950   27.8690   48.3380 C   0  0  0  0  0  0  0  0  0  0  0  0
   30.7130   27.7370   49.5220 C   0  0  0  0  0  0  0  0  0  0  0  0
   29.3800   28.0660   49.6540 C   0  0  0  0  0  0  0  0  0  0  0  0
   28.7280   28.5300   48.5940 N   0  0  0  0  0  0  0  0  0  0  0  0
   29.4010   28.6630   47.4170 C   0  0  0  0  0  0  0  0  0  0  0  0
   30.7030   28.3440   47.2810 N   0  0  0  0  0  0  0  0  0  0  0  0
   31.2030   27.3630   50.4170 H   0  0  0  0  0  0  0  0  0  0  0  0
   28.8660   27.9540   50.5920 H   0  0  0  0  0  0  0  0  0  0  0  0
   28.9350   29.0350   46.5080 H   0  0  0  0  0  0  0  0  0  0  0  0
   34.6520   28.1810   49.7350 O   0  0  0  0  0  0  0  0  0  0  0  0
   37.2010   30.1610   51.3650 C   0  0  0  0  0  0  0  0  0  0  0  0
   37.8930   30.6390   50.2460 C   0  0  0  0  0  0  0  0  0  0  0  0
   37.4500   30.2590   48.9750 C   0  0  0  0  0  0  0  0  0  0  0  0
   36.3530   29.4310   48.9140 N   0  0  0  0  0  0  0  0  0  0  0  0
   35.7160   28.9920   50.0140 C   0  0  0  0  0  0  0  0  0  0  0  0
   36.1520   29.3660   51.2360 N   0  0  0  0  0  0  0  0  0  0  0  0
   37.5890   30.4880   52.3210 H   0  0  0  0  0  0  0  0  0  0  0  0
   38.7570   31.2910   50.2900 H   0  0  0  0  0  0  0  0  0  0  0  0
   38.0940   30.6970   47.7260 C   0  0  0  0  0  3  0  0  0  0  0  0
   37.4030   31.2270   46.7300 C   0  0  0  0  0  3  0  0  0  0  0  0
   38.1690   31.6320   45.5140 C   0  0  0  0  0  2  0  0  0  0  0  0
   38.9420   30.8710   45.3170 H   0  0  0  0  0  0  0  0  0  0  0  0
  1  3  1  0  0  0  0
  1 16  1  0  0  0  0
  2  1  1  0  0  0  0
  4  7  1  0  0  0  0
  4  1  1  0  0  0  0
  4  6  1  0  0  0  0
  5  4  1  0  0  0  0
  7  8  1  0  0  0  0
  8  9  2  0  0  0  0
  8 13  1  0  0  0  0
  9 14  1  0  0  0  0
 10  9  1  0  0  0  0
 11 10  2  0  0  0  0
 12 11  1  0  0  0  0
 12  7  2  0  0  0  0
 15 11  1  0  0  0  0
 16 21  1  0  0  0  0
 17 23  1  0  0  0  0
 18 24  1  0  0  0  0
 18 17  2  0  0  0  0
 19 18  1  0  0  0  0
 20 19  2  0  0  0  0
 20 21  1  0  0  0  0
 21 22  2  0  0  0  0
 22 17  1  0  0  0  0
 25 19  1  0  0  0  0
 26 25  2  0  0  0  0
 27 26  1  0  0  0  0
 28 27  1  0  0  0  0
M  END
>  <minimizedAffinity>
-5.0843029

>  <minimizedRMSD>
0.0622787811

$$$$
