
 OpenBabel03272506523D

 29 30  0  0  1  0  0  0  0  0999 V2000
   36.9550   22.5150   31.1620 C   0  0  1  0  0  0  0  0  0  0  0  0
   37.9260   22.0330   32.1390 C   0  0  0  0  0  0  0  0  0  0  0  0
   37.3880   21.5820   33.4690 C   0  0  0  0  0  0  0  0  0  0  0  0
   36.1080   20.8300   33.3930 C   0  0  2  0  0  0  0  0  0  0  0  0
   35.0840   21.3610   32.4470 C   0  0  0  0  0  0  0  0  0  0  0  0
   35.7080   21.6630   31.1210 C   0  0  0  0  0  0  0  0  0  0  0  0
   37.3930   22.3600   30.1240 H   0  0  0  0  0  0  0  0  0  0  0  0
   38.7990   22.6490   32.3200 H   0  0  0  0  0  0  0  0  0  0  0  0
   38.3660   21.0730   31.7080 H   0  0  0  0  0  0  0  0  0  0  0  0
   38.1330   20.9670   33.9880 H   0  0  0  0  0  0  0  0  0  0  0  0
   37.2120   22.4920   34.1010 H   0  0  0  0  0  0  0  0  0  0  0  0
   36.3780   19.8070   33.0000 H   0  0  0  0  0  0  0  0  0  0  0  0
   34.3440   20.5590   32.2760 H   0  0  0  0  0  0  0  0  0  0  0  0
   34.5270   22.2340   32.7980 H   0  0  0  0  0  0  0  0  0  0  0  0
   35.0350   21.8660   30.2990 H   0  0  0  0  0  0  0  0  0  0  0  0
   36.1390   20.6470   30.8310 H   0  0  0  0  0  0  0  0  0  0  0  0
   35.3380   24.4410   30.9780 C   0  0  0  0  0  0  0  0  0  0  0  0
   36.6540   23.9670   31.1700 C   0  0  0  0  0  0  0  0  0  0  0  0
   37.6460   24.9080   31.3710 C   0  0  0  0  0  0  0  0  0  0  0  0
   37.3100   26.2350   31.3720 N   0  0  0  0  0  0  0  0  0  0  0  0
   36.0440   26.6450   31.1840 C   0  0  0  0  0  0  0  0  0  0  0  0
   35.0490   25.7380   30.9850 N   0  0  0  0  0  0  0  0  0  0  0  0
   34.4900   23.7940   30.8130 H   0  0  0  0  0  0  0  0  0  0  0  0
   38.6830   24.6510   31.5290 H   0  0  0  0  0  0  0  0  0  0  0  0
   35.9110   27.7250   31.2080 H   0  0  0  0  0  0  0  0  0  0  0  0
   35.5850   20.6210   34.7600 C   0  0  0  0  0  3  0  0  0  0  0  0
   35.9120   21.2180   35.9020 C   0  0  0  0  0  3  0  0  0  0  0  0
   35.2540   20.8580   37.2060 C   0  0  0  0  0  2  0  0  0  0  0  0
   35.2110   21.7420   37.8670 H   0  0  0  0  0  0  0  0  0  0  0  0
  1  7  1  6  0  0  0
  1 18  1  0  0  0  0
  1  2  1  0  0  0  0
  2  8  1  0  0  0  0
  2  3  1  0  0  0  0
  3 10  1  0  0  0  0
  3 11  1  0  0  0  0
  4 12  1  6  0  0  0
  4  3  1  0  0  0  0
  4 26  1  0  0  0  0
  5 14  1  0  0  0  0
  5  4  1  0  0  0  0
  6  1  1  0  0  0  0
  6  5  1  0  0  0  0
  9  2  1  0  0  0  0
 13  5  1  0  0  0  0
 15  6  1  0  0  0  0
 16  6  1  0  0  0  0
 17 22  2  0  0  0  0
 17 18  1  0  0  0  0
 18 19  2  0  0  0  0
 19 20  1  0  0  0  0
 19 24  1  0  0  0  0
 21 25  1  0  0  0  0
 21 20  2  0  0  0  0
 22 21  1  0  0  0  0
 23 17  1  0  0  0  0
 26 27  2  0  0  0  0
 27 28  1  0  0  0  0
 28 29  1  0  0  0  0
M  END
>  <minimizedAffinity>
-4.72822857

$$$$

 OpenBabel03272506523D

 29 30  0  0  1  0  0  0  0  0999 V2000
   39.4760   24.5620   34.5910 C   0  0  1  0  0  0  0  0  0  0  0  0
   38.4320   24.3500   33.5930 C   0  0  0  0  0  0  0  0  0  0  0  0
   37.4590   25.4770   33.3750 C   0  0  0  0  0  0  0  0  0  0  0  0
   38.0700   26.8320   33.4070 C   0  0  2  0  0  0  0  0  0  0  0  0
   39.0850   27.0750   34.4710 C   0  0  0  0  0  0  0  0  0  0  0  0
   40.0700   25.9500   34.5180 C   0  0  0  0  0  0  0  0  0  0  0  0
   40.3610   23.9010   34.3210 H   0  0  0  0  0  0  0  0  0  0  0  0
   37.8700   23.4260   33.6480 H   0  0  0  0  0  0  0  0  0  0  0  0
   38.9610   24.2770   32.5860 H   0  0  0  0  0  0  0  0  0  0  0  0
   36.9370   25.3430   32.4200 H   0  0  0  0  0  0  0  0  0  0  0  0
   36.6860   25.4320   34.1860 H   0  0  0  0  0  0  0  0  0  0  0  0
   38.6260   26.9400   32.4310 H   0  0  0  0  0  0  0  0  0  0  0  0
   39.6510   27.9810   34.1880 H   0  0  0  0  0  0  0  0  0  0  0  0
   38.6840   27.2540   35.4720 H   0  0  0  0  0  0  0  0  0  0  0  0
   40.9610   26.1040   35.1110 H   0  0  0  0  0  0  0  0  0  0  0  0
   40.4850   25.9600   33.4550 H   0  0  0  0  0  0  0  0  0  0  0  0
   39.9900   23.2090   36.6550 C   0  0  0  0  0  0  0  0  0  0  0  0
   39.1740   24.1430   35.9820 C   0  0  0  0  0  0  0  0  0  0  0  0
   38.0900   24.6530   36.6690 C   0  0  0  0  0  0  0  0  0  0  0  0
   37.8610   24.2330   37.9520 N   0  0  0  0  0  0  0  0  0  0  0  0
   38.6630   23.3400   38.5580 C   0  0  0  0  0  0  0  0  0  0  0  0
   39.7380   22.8230   37.9020 N   0  0  0  0  0  0  0  0  0  0  0  0
   40.8600   22.7490   36.2120 H   0  0  0  0  0  0  0  0  0  0  0  0
   37.4050   25.3730   36.2460 H   0  0  0  0  0  0  0  0  0  0  0  0
   38.3720   23.0900   39.5760 H   0  0  0  0  0  0  0  0  0  0  0  0
   36.9960   27.8480   33.3830 C   0  0  0  0  0  3  0  0  0  0  0  0
   36.3230   28.4070   34.3850 C   0  0  0  0  0  3  0  0  0  0  0  0
   35.2530   29.4380   34.1490 C   0  0  0  0  0  2  0  0  0  0  0  0
   35.2170   30.1480   34.9950 H   0  0  0  0  0  0  0  0  0  0  0  0
  1  7  1  6  0  0  0
  1 18  1  0  0  0  0
  2  8  1  0  0  0  0
  2  1  1  0  0  0  0
  3  4  1  0  0  0  0
  3  2  1  0  0  0  0
  3 11  1  0  0  0  0
  4 12  1  6  0  0  0
  4  5  1  0  0  0  0
  5  6  1  0  0  0  0
  5 14  1  0  0  0  0
  6  1  1  0  0  0  0
  6 15  1  0  0  0  0
  9  2  1  0  0  0  0
 10  3  1  0  0  0  0
 13  5  1  0  0  0  0
 16  6  1  0  0  0  0
 17 22  1  0  0  0  0
 18 17  2  0  0  0  0
 18 19  1  0  0  0  0
 19 20  2  0  0  0  0
 20 21  1  0  0  0  0
 21 25  1  0  0  0  0
 22 21  2  0  0  0  0
 23 17  1  0  0  0  0
 24 19  1  0  0  0  0
 26  4  1  0  0  0  0
 26 27  2  0  0  0  0
 28 27  1  0  0  0  0
 28 29  1  0  0  0  0
M  END
>  <minimizedAffinity>
-4.54971552

$$$$

 OpenBabel03272506523D

 29 30  0  0  1  0  0  0  0  0999 V2000
   39.1850   26.7820   35.0970 C   0  0  1  0  0  0  0  0  0  0  0  0
   39.6120   26.8490   33.7030 C   0  0  0  0  0  0  0  0  0  0  0  0
   38.5460   26.6700   32.6560 C   0  0  0  0  0  0  0  0  0  0  0  0
   37.2520   27.3260   32.9770 C   0  0  2  0  0  0  0  0  0  0  0  0
   36.7770   27.2000   34.3840 C   0  0  0  0  0  0  0  0  0  0  0  0
   37.8860   27.5160   35.3380 C   0  0  0  0  0  0  0  0  0  0  0  0
   39.9250   27.3810   35.7200 H   0  0  0  0  0  0  0  0  0  0  0  0
   40.4700   26.2530   33.4150 H   0  0  0  0  0  0  0  0  0  0  0  0
   39.9620   27.9190   33.5250 H   0  0  0  0  0  0  0  0  0  0  0  0
   38.9050   27.0400   31.6880 H   0  0  0  0  0  0  0  0  0  0  0  0
   38.3530   25.5710   32.5390 H   0  0  0  0  0  0  0  0  0  0  0  0
   37.4200   28.4300   32.8140 H   0  0  0  0  0  0  0  0  0  0  0  0
   35.9960   27.9650   34.5400 H   0  0  0  0  0  0  0  0  0  0  0  0
   36.3310   26.2360   34.6460 H   0  0  0  0  0  0  0  0  0  0  0  0
   37.6150   27.6490   36.3760 H   0  0  0  0  0  0  0  0  0  0  0  0
   38.1660   28.5760   35.0250 H   0  0  0  0  0  0  0  0  0  0  0  0
   38.3020   25.1150   36.7700 C   0  0  0  0  0  0  0  0  0  0  0  0
   39.2190   25.4510   35.7500 C   0  0  0  0  0  0  0  0  0  0  0  0
   40.1430   24.4910   35.3830 C   0  0  0  0  0  0  0  0  0  0  0  0
   40.1260   23.2790   36.0170 N   0  0  0  0  0  0  0  0  0  0  0  0
   39.2350   22.9980   36.9850 C   0  0  0  0  0  0  0  0  0  0  0  0
   38.3150   23.9270   37.3640 N   0  0  0  0  0  0  0  0  0  0  0  0
   37.5410   25.7880   37.1320 H   0  0  0  0  0  0  0  0  0  0  0  0
   40.8860   24.6470   34.6150 H   0  0  0  0  0  0  0  0  0  0  0  0
   39.3280   21.9990   37.4080 H   0  0  0  0  0  0  0  0  0  0  0  0
   36.2390   26.9130   31.9810 C   0  0  0  0  0  3  0  0  0  0  0  0
   35.8560   25.6980   31.6020 C   0  0  0  0  0  3  0  0  0  0  0  0
   34.7930   25.4860   30.5590 C   0  0  0  0  0  2  0  0  0  0  0  0
   34.2380   24.5530   30.7660 H   0  0  0  0  0  0  0  0  0  0  0  0
  1  6  1  0  0  0  0
  1  7  1  1  0  0  0
  1 18  1  0  0  0  0
  2  1  1  0  0  0  0
  3  4  1  0  0  0  0
  3  2  1  0  0  0  0
  4 12  1  6  0  0  0
  4  5  1  0  0  0  0
  5 13  1  0  0  0  0
  5 14  1  0  0  0  0
  5  6  1  0  0  0  0
  6 15  1  0  0  0  0
  8  2  1  0  0  0  0
  9  2  1  0  0  0  0
 10  3  1  0  0  0  0
 11  3  1  0  0  0  0
 16  6  1  0  0  0  0
 17 23  1  0  0  0  0
 17 22  1  0  0  0  0
 18 17  2  0  0  0  0
 19 18  1  0  0  0  0
 19 20  2  0  0  0  0
 20 21  1  0  0  0  0
 21 22  2  0  0  0  0
 21 25  1  0  0  0  0
 24 19  1  0  0  0  0
 26  4  1  0  0  0  0
 27 26  2  0  0  0  0
 28 29  1  0  0  0  0
 28 27  1  0  0  0  0
M  END
>  <minimizedAffinity>
-4.40461874

$$$$

 OpenBabel03272506523D

 29 30  0  0  1  0  0  0  0  0999 V2000
   38.9080   22.9830   35.6370 C   0  0  1  0  0  0  0  0  0  0  0  0
   39.5480   23.8160   34.6250 C   0  0  0  0  0  0  0  0  0  0  0  0
   39.0140   25.2120   34.4540 C   0  0  0  0  0  0  0  0  0  0  0  0
   38.6490   25.8910   35.7260 C   0  0  2  0  0  0  0  0  0  0  0  0
   37.9300   25.0620   36.7350 C   0  0  0  0  0  0  0  0  0  0  0  0
   38.6170   23.7440   36.9100 C   0  0  0  0  0  0  0  0  0  0  0  0
   39.6630   22.2050   35.9820 H   0  0  0  0  0  0  0  0  0  0  0  0
   39.6870   23.3860   33.6400 H   0  0  0  0  0  0  0  0  0  0  0  0
   40.6150   23.9970   34.9860 H   0  0  0  0  0  0  0  0  0  0  0  0
   39.7430   25.8310   33.9170 H   0  0  0  0  0  0  0  0  0  0  0  0
   38.0920   25.1580   33.8190 H   0  0  0  0  0  0  0  0  0  0  0  0
   39.6260   26.1760   36.2120 H   0  0  0  0  0  0  0  0  0  0  0  0
   37.9980   25.5870   37.7040 H   0  0  0  0  0  0  0  0  0  0  0  0
   36.8670   24.8990   36.5390 H   0  0  0  0  0  0  0  0  0  0  0  0
   38.3060   23.1380   37.7500 H   0  0  0  0  0  0  0  0  0  0  0  0
   39.6650   24.0680   37.2220 H   0  0  0  0  0  0  0  0  0  0  0  0
   37.5880   21.8080   33.8380 C   0  0  0  0  0  0  0  0  0  0  0  0
   37.7640   22.1470   35.1970 C   0  0  0  0  0  0  0  0  0  0  0  0
   36.8340   21.6660   36.0990 C   0  0  0  0  0  0  0  0  0  0  0  0
   35.8010   20.8960   35.6370 N   0  0  0  0  0  0  0  0  0  0  0  0
   35.6680   20.5970   34.3330 C   0  0  0  0  0  0  0  0  0  0  0  0
   36.5710   21.0590   33.4260 N   0  0  0  0  0  0  0  0  0  0  0  0
   38.2540   22.1310   33.0530 H   0  0  0  0  0  0  0  0  0  0  0  0
   36.8780   21.8660   37.1590 H   0  0  0  0  0  0  0  0  0  0  0  0
   34.8050   19.9780   34.0970 H   0  0  0  0  0  0  0  0  0  0  0  0
   37.9570   27.1610   35.4160 C   0  0  0  0  0  3  0  0  0  0  0  0
   36.8760   27.3900   34.6770 C   0  0  0  0  0  3  0  0  0  0  0  0
   36.3220   28.7740   34.4830 C   0  0  0  0  0  2  0  0  0  0  0  0
   35.2250   28.7300   34.3580 H   0  0  0  0  0  0  0  0  0  0  0  0
  1  7  1  1  0  0  0
  1  6  1  0  0  0  0
  2  9  1  0  0  0  0
  2  1  1  0  0  0  0
  3  2  1  0  0  0  0
  3  4  1  0  0  0  0
  4 12  1  1  0  0  0
  4  5  1  0  0  0  0
  5  6  1  0  0  0  0
  5 13  1  0  0  0  0
  6 16  1  0  0  0  0
  6 15  1  0  0  0  0
  8  2  1  0  0  0  0
 10  3  1  0  0  0  0
 11  3  1  0  0  0  0
 14  5  1  0  0  0  0
 17 18  1  0  0  0  0
 18  1  1  0  0  0  0
 18 19  2  0  0  0  0
 19 24  1  0  0  0  0
 20 19  1  0  0  0  0
 21 20  2  0  0  0  0
 22 17  2  0  0  0  0
 22 21  1  0  0  0  0
 23 17  1  0  0  0  0
 25 21  1  0  0  0  0
 26  4  1  0  0  0  0
 27 26  2  0  0  0  0
 28 27  1  0  0  0  0
 29 28  1  0  0  0  0
M  END
>  <minimizedAffinity>
-4.36839056

$$$$

 OpenBabel03272506523D

 29 30  0  0  1  0  0  0  0  0999 V2000
   39.0450   25.7830   34.8720 C   0  0  1  0  0  0  0  0  0  0  0  0
   38.7170   25.8790   33.4540 C   0  0  0  0  0  0  0  0  0  0  0  0
   37.5020   26.6870   33.0880 C   0  0  0  0  0  0  0  0  0  0  0  0
   37.3260   27.9290   33.8860 C   0  0  2  0  0  0  0  0  0  0  0  0
   37.5920   27.8180   35.3500 C   0  0  0  0  0  0  0  0  0  0  0  0
   38.8830   27.1020   35.5920 C   0  0  0  0  0  0  0  0  0  0  0  0
   40.1620   25.5880   34.9630 H   0  0  0  0  0  0  0  0  0  0  0  0
   38.6910   24.9570   32.8850 H   0  0  0  0  0  0  0  0  0  0  0  0
   39.5650   26.4650   32.9670 H   0  0  0  0  0  0  0  0  0  0  0  0
   37.5300   26.9480   32.0230 H   0  0  0  0  0  0  0  0  0  0  0  0
   36.5950   26.0470   33.2500 H   0  0  0  0  0  0  0  0  0  0  0  0
   38.0970   28.6550   33.4960 H   0  0  0  0  0  0  0  0  0  0  0  0
   37.7180   28.8430   35.7420 H   0  0  0  0  0  0  0  0  0  0  0  0
   36.7970   27.3520   35.9380 H   0  0  0  0  0  0  0  0  0  0  0  0
   39.2770   27.1320   36.5980 H   0  0  0  0  0  0  0  0  0  0  0  0
   39.6230   27.7590   35.0240 H   0  0  0  0  0  0  0  0  0  0  0  0
   38.1360   24.7670   36.9940 C   0  0  0  0  0  0  0  0  0  0  0  0
   38.4590   24.6460   35.6250 C   0  0  0  0  0  0  0  0  0  0  0  0
   38.2030   23.4340   35.0150 C   0  0  0  0  0  0  0  0  0  0  0  0
   37.6580   22.4210   35.7570 N   0  0  0  0  0  0  0  0  0  0  0  0
   37.3660   22.5760   37.0600 C   0  0  0  0  0  0  0  0  0  0  0  0
   37.6080   23.7620   37.6840 N   0  0  0  0  0  0  0  0  0  0  0  0
   38.2950   25.6680   37.5660 H   0  0  0  0  0  0  0  0  0  0  0  0
   38.4120   23.2380   33.9740 H   0  0  0  0  0  0  0  0  0  0  0  0
   36.9370   21.6950   37.5350 H   0  0  0  0  0  0  0  0  0  0  0  0
   36.0080   28.5230   33.5770 C   0  0  0  0  0  3  0  0  0  0  0  0
   35.2780   29.3940   34.2660 C   0  0  0  0  0  3  0  0  0  0  0  0
   33.9430   29.8820   33.7720 C   0  0  0  0  0  2  0  0  0  0  0  0
   33.7660   30.9170   34.1160 H   0  0  0  0  0  0  0  0  0  0  0  0
  1  7  1  1  0  0  0
  1  6  1  0  0  0  0
  1 18  1  0  0  0  0
  2  1  1  0  0  0  0
  3 11  1  0  0  0  0
  3  2  1  0  0  0  0
  3  4  1  0  0  0  0
  4 12  1  6  0  0  0
  4  5  1  0  0  0  0
  5  6  1  0  0  0  0
  5 13  1  0  0  0  0
  5 14  1  0  0  0  0
  6 15  1  0  0  0  0
  8  2  1  0  0  0  0
  9  2  1  0  0  0  0
 10  3  1  0  0  0  0
 16  6  1  0  0  0  0
 17 23  1  0  0  0  0
 17 22  1  0  0  0  0
 18 17  2  0  0  0  0
 19 18  1  0  0  0  0
 19 20  2  0  0  0  0
 20 21  1  0  0  0  0
 21 25  1  0  0  0  0
 21 22  2  0  0  0  0
 24 19  1  0  0  0  0
 26  4  1  0  0  0  0
 26 27  2  0  0  0  0
 28 29  1  0  0  0  0
 28 27  1  0  0  0  0
M  END
>  <minimizedAffinity>
-4.32551193

$$$$

 OpenBabel03272506523D

 29 30  0  0  1  0  0  0  0  0999 V2000
   38.5190   27.2080   32.6310 C   0  0  1  0  0  0  0  0  0  0  0  0
   37.3190   27.5610   33.3830 C   0  0  0  0  0  0  0  0  0  0  0  0
   37.1750   26.9640   34.7560 C   0  0  0  0  0  0  0  0  0  0  0  0
   38.4400   26.9000   35.5340 C   0  0  2  0  0  0  0  0  0  0  0  0
   39.6560   26.4710   34.7860 C   0  0  0  0  0  0  0  0  0  0  0  0
   39.7610   27.2160   33.4920 C   0  0  0  0  0  0  0  0  0  0  0  0
   38.7280   28.0460   31.8900 H   0  0  0  0  0  0  0  0  0  0  0  0
   36.3670   27.4670   32.8740 H   0  0  0  0  0  0  0  0  0  0  0  0
   37.3920   28.6770   33.6010 H   0  0  0  0  0  0  0  0  0  0  0  0
   36.4280   27.5230   35.3330 H   0  0  0  0  0  0  0  0  0  0  0  0
   36.7910   25.9160   34.6430 H   0  0  0  0  0  0  0  0  0  0  0  0
   38.6490   27.9590   35.8660 H   0  0  0  0  0  0  0  0  0  0  0  0
   40.5350   26.7590   35.3910 H   0  0  0  0  0  0  0  0  0  0  0  0
   39.7400   25.3970   34.6000 H   0  0  0  0  0  0  0  0  0  0  0  0
   40.6960   27.1350   32.9560 H   0  0  0  0  0  0  0  0  0  0  0  0
   39.7800   28.2990   33.8480 H   0  0  0  0  0  0  0  0  0  0  0  0
   37.2060   25.3730   31.5050 C   0  0  0  0  0  0  0  0  0  0  0  0
   38.4390   26.0150   31.7540 C   0  0  0  0  0  0  0  0  0  0  0  0
   39.5640   25.4920   31.1450 C   0  0  0  0  0  0  0  0  0  0  0  0
   39.4300   24.3910   30.3430 N   0  0  0  0  0  0  0  0  0  0  0  0
   38.2370   23.8080   30.1320 C   0  0  0  0  0  0  0  0  0  0  0  0
   37.1150   24.3050   30.7200 N   0  0  0  0  0  0  0  0  0  0  0  0
   36.2690   25.6990   31.9290 H   0  0  0  0  0  0  0  0  0  0  0  0
   40.5520   25.9070   31.2690 H   0  0  0  0  0  0  0  0  0  0  0  0
   38.2680   22.9420   29.4740 H   0  0  0  0  0  0  0  0  0  0  0  0
   38.2110   26.1200   36.7700 C   0  0  0  0  0  3  0  0  0  0  0  0
   38.1780   24.8040   36.9580 C   0  0  0  0  0  3  0  0  0  0  0  0
   37.9270   24.1990   38.3120 C   0  0  0  0  0  2  0  0  0  0  0  0
   38.4580   23.2350   38.4020 H   0  0  0  0  0  0  0  0  0  0  0  0
  1  7  1  6  0  0  0
  1  2  1  0  0  0  0
  1  6  1  0  0  0  0
  2  9  1  0  0  0  0
  2  3  1  0  0  0  0
  3 10  1  0  0  0  0
  3  4  1  0  0  0  0
  4 12  1  1  0  0  0
  4 26  1  0  0  0  0
  5 13  1  0  0  0  0
  5  4  1  0  0  0  0
  6 16  1  0  0  0  0
  6  5  1  0  0  0  0
  8  2  1  0  0  0  0
 11  3  1  0  0  0  0
 14  5  1  0  0  0  0
 15  6  1  0  0  0  0
 17 18  1  0  0  0  0
 17 23  1  0  0  0  0
 18  1  1  0  0  0  0
 19 24  1  0  0  0  0
 19 18  2  0  0  0  0
 20 19  1  0  0  0  0
 21 20  2  0  0  0  0
 21 22  1  0  0  0  0
 22 17  2  0  0  0  0
 25 21  1  0  0  0  0
 26 27  2  0  0  0  0
 27 28  1  0  0  0  0
 28 29  1  0  0  0  0
M  END
>  <minimizedAffinity>
-4.31492901

$$$$

 OpenBabel03272506523D

 29 30  0  0  1  0  0  0  0  0999 V2000
   38.2840   26.3770   35.5230 C   0  0  1  0  0  0  0  0  0  0  0  0
   39.5300   26.8390   34.9210 C   0  0  0  0  0  0  0  0  0  0  0  0
   39.5490   26.9900   33.4240 C   0  0  0  0  0  0  0  0  0  0  0  0
   38.2970   27.5460   32.8460 C   0  0  2  0  0  0  0  0  0  0  0  0
   37.0190   27.0240   33.4100 C   0  0  0  0  0  0  0  0  0  0  0  0
   37.0690   27.0300   34.9050 C   0  0  0  0  0  0  0  0  0  0  0  0
   38.2490   26.7560   36.5950 H   0  0  0  0  0  0  0  0  0  0  0  0
   40.4430   26.3380   35.2200 H   0  0  0  0  0  0  0  0  0  0  0  0
   39.6850   27.9080   35.2840 H   0  0  0  0  0  0  0  0  0  0  0  0
   40.3930   27.6200   33.1210 H   0  0  0  0  0  0  0  0  0  0  0  0
   39.7120   25.9760   32.9730 H   0  0  0  0  0  0  0  0  0  0  0  0
   38.3080   28.6460   33.0960 H   0  0  0  0  0  0  0  0  0  0  0  0
   36.2170   27.7230   33.1150 H   0  0  0  0  0  0  0  0  0  0  0  0
   36.7190   26.0330   33.0560 H   0  0  0  0  0  0  0  0  0  0  0  0
   36.1370   26.8600   35.4260 H   0  0  0  0  0  0  0  0  0  0  0  0
   37.2700   28.1310   35.1260 H   0  0  0  0  0  0  0  0  0  0  0  0
   37.6830   24.3660   36.9210 C   0  0  0  0  0  0  0  0  0  0  0  0
   38.1190   24.9120   35.6940 C   0  0  0  0  0  0  0  0  0  0  0  0
   38.3820   24.0320   34.6630 C   0  0  0  0  0  0  0  0  0  0  0  0
   38.2100   22.6910   34.8770 N   0  0  0  0  0  0  0  0  0  0  0  0
   37.7930   22.2110   36.0610 C   0  0  0  0  0  0  0  0  0  0  0  0
   37.5270   23.0580   37.0930 N   0  0  0  0  0  0  0  0  0  0  0  0
   37.4500   24.9630   37.7900 H   0  0  0  0  0  0  0  0  0  0  0  0
   38.7190   24.3460   33.6870 H   0  0  0  0  0  0  0  0  0  0  0  0
   37.6970   21.1270   36.1000 H   0  0  0  0  0  0  0  0  0  0  0  0
   38.3630   27.4580   31.3710 C   0  0  0  0  0  3  0  0  0  0  0  0
   39.3480   27.7770   30.5380 C   0  0  0  0  0  3  0  0  0  0  0  0
   39.2170   27.6100   29.0480 C   0  0  0  0  0  2  0  0  0  0  0  0
   40.2020   27.3810   28.6030 H   0  0  0  0  0  0  0  0  0  0  0  0
  1 18  1  0  0  0  0
  1  7  1  1  0  0  0
  2  8  1  0  0  0  0
  2  9  1  0  0  0  0
  2  1  1  0  0  0  0
  3  2  1  0  0  0  0
  4 12  1  1  0  0  0
  4  5  1  0  0  0  0
  4  3  1  0  0  0  0
  5  6  1  0  0  0  0
  6 16  1  0  0  0  0
  6 15  1  0  0  0  0
  6  1  1  0  0  0  0
 10  3  1  0  0  0  0
 11  3  1  0  0  0  0
 13  5  1  0  0  0  0
 14  5  1  0  0  0  0
 17 22  1  0  0  0  0
 17 23  1  0  0  0  0
 18 17  2  0  0  0  0
 19 20  2  0  0  0  0
 19 18  1  0  0  0  0
 20 21  1  0  0  0  0
 21 25  1  0  0  0  0
 21 22  2  0  0  0  0
 24 19  1  0  0  0  0
 26  4  1  0  0  0  0
 27 26  2  0  0  0  0
 28 27  1  0  0  0  0
 29 28  1  0  0  0  0
M  END
>  <minimizedAffinity>
-4.2993598

$$$$

 OpenBabel03272506523D

 29 30  0  0  1  0  0  0  0  0999 V2000
   37.2450   27.1400   32.8140 C   0  0  1  0  0  0  0  0  0  0  0  0
   37.2800   27.2620   34.2680 C   0  0  0  0  0  0  0  0  0  0  0  0
   38.5220   26.7730   34.9630 C   0  0  0  0  0  0  0  0  0  0  0  0
   39.7880   27.0810   34.2490 C   0  0  2  0  0  0  0  0  0  0  0  0
   39.7780   26.8890   32.7700 C   0  0  0  0  0  0  0  0  0  0  0  0
   38.5600   27.5180   32.1720 C   0  0  0  0  0  0  0  0  0  0  0  0
   36.5370   27.9330   32.4110 H   0  0  0  0  0  0  0  0  0  0  0  0
   36.4210   26.9000   34.8190 H   0  0  0  0  0  0  0  0  0  0  0  0
   37.2880   28.3790   34.4960 H   0  0  0  0  0  0  0  0  0  0  0  0
   38.5730   27.1880   35.9770 H   0  0  0  0  0  0  0  0  0  0  0  0
   38.4490   25.6590   35.0630 H   0  0  0  0  0  0  0  0  0  0  0  0
   39.9680   28.1850   34.4070 H   0  0  0  0  0  0  0  0  0  0  0  0
   40.6500   27.4300   32.3600 H   0  0  0  0  0  0  0  0  0  0  0  0
   39.8620   25.8540   32.4300 H   0  0  0  0  0  0  0  0  0  0  0  0
   38.5380   27.6150   31.0960 H   0  0  0  0  0  0  0  0  0  0  0  0
   38.6690   28.6030   32.5090 H   0  0  0  0  0  0  0  0  0  0  0  0
   35.6310   25.9210   31.3080 C   0  0  0  0  0  0  0  0  0  0  0  0
   36.6770   25.8880   32.2560 C   0  0  0  0  0  0  0  0  0  0  0  0
   37.1510   24.6480   32.6380 C   0  0  0  0  0  0  0  0  0  0  0  0
   36.5910   23.5270   32.0880 N   0  0  0  0  0  0  0  0  0  0  0  0
   35.5950   23.6010   31.1880 C   0  0  0  0  0  0  0  0  0  0  0  0
   35.1110   24.8110   30.7950 N   0  0  0  0  0  0  0  0  0  0  0  0
   35.1880   26.8340   30.9420 H   0  0  0  0  0  0  0  0  0  0  0  0
   37.9470   24.5130   33.3550 H   0  0  0  0  0  0  0  0  0  0  0  0
   35.2390   22.6380   30.8280 H   0  0  0  0  0  0  0  0  0  0  0  0
   40.9060   26.3830   34.9200 C   0  0  0  0  0  3  0  0  0  0  0  0
   41.6040   25.3190   34.5360 C   0  0  0  0  0  3  0  0  0  0  0  0
   42.7200   24.7530   35.3720 C   0  0  0  0  0  2  0  0  0  0  0  0
   43.4910   24.3020   34.7220 H   0  0  0  0  0  0  0  0  0  0  0  0
  1  7  1  6  0  0  0
  1  2  1  0  0  0  0
  2  9  1  0  0  0  0
  2  8  1  0  0  0  0
  2  3  1  0  0  0  0
  3 11  1  0  0  0  0
  3 10  1  0  0  0  0
  4 12  1  1  0  0  0
  4 26  1  0  0  0  0
  4  3  1  0  0  0  0
  5  4  1  0  0  0  0
  6 16  1  0  0  0  0
  6  5  1  0  0  0  0
  6  1  1  0  0  0  0
 13  5  1  0  0  0  0
 14  5  1  0  0  0  0
 15  6  1  0  0  0  0
 17 18  1  0  0  0  0
 18 19  2  0  0  0  0
 18  1  1  0  0  0  0
 19 24  1  0  0  0  0
 20 19  1  0  0  0  0
 21 20  2  0  0  0  0
 22 21  1  0  0  0  0
 22 17  2  0  0  0  0
 23 17  1  0  0  0  0
 25 21  1  0  0  0  0
 27 26  2  0  0  0  0
 27 28  1  0  0  0  0
 29 28  1  0  0  0  0
M  END
>  <minimizedAffinity>
-4.25736952

$$$$

 OpenBabel03272506523D

 29 30  0  0  1  0  0  0  0  0999 V2000
   37.6460   26.5510   31.5670 C   0  0  1  0  0  0  0  0  0  0  0  0
   38.4680   25.5420   30.9070 C   0  0  0  0  0  0  0  0  0  0  0  0
   37.9920   24.1170   30.9870 C   0  0  0  0  0  0  0  0  0  0  0  0
   36.5210   23.9510   30.8560 C   0  0  2  0  0  0  0  0  0  0  0  0
   35.6760   24.9380   31.5870 C   0  0  0  0  0  0  0  0  0  0  0  0
   36.1690   26.3290   31.3400 C   0  0  0  0  0  0  0  0  0  0  0  0
   37.8280   27.5470   31.0490 H   0  0  0  0  0  0  0  0  0  0  0  0
   39.5320   25.5530   31.1120 H   0  0  0  0  0  0  0  0  0  0  0  0
   38.4130   25.7630   29.7900 H   0  0  0  0  0  0  0  0  0  0  0  0
   38.4900   23.5110   30.2200 H   0  0  0  0  0  0  0  0  0  0  0  0
   38.2950   23.7040   31.9850 H   0  0  0  0  0  0  0  0  0  0  0  0
   36.2920   24.1120   29.7620 H   0  0  0  0  0  0  0  0  0  0  0  0
   34.6580   24.8810   31.1630 H   0  0  0  0  0  0  0  0  0  0  0  0
   35.5800   24.7690   32.6630 H   0  0  0  0  0  0  0  0  0  0  0  0
   35.5260   27.1390   31.6550 H   0  0  0  0  0  0  0  0  0  0  0  0
   36.1040   26.4000   30.2030 H   0  0  0  0  0  0  0  0  0  0  0  0
   39.2580   26.6350   33.5040 C   0  0  0  0  0  0  0  0  0  0  0  0
   37.9660   26.8610   32.9820 C   0  0  0  0  0  0  0  0  0  0  0  0
   37.0170   27.3860   33.8370 C   0  0  0  0  0  0  0  0  0  0  0  0
   37.3690   27.6570   35.1320 N   0  0  0  0  0  0  0  0  0  0  0  0
   38.6110   27.4260   35.5910 C   0  0  0  0  0  0  0  0  0  0  0  0
   39.5650   26.9100   34.7670 N   0  0  0  0  0  0  0  0  0  0  0  0
   40.0730   26.2290   32.9240 H   0  0  0  0  0  0  0  0  0  0  0  0
   36.0010   27.5970   33.5370 H   0  0  0  0  0  0  0  0  0  0  0  0
   38.7620   27.6840   36.6370 H   0  0  0  0  0  0  0  0  0  0  0  0
   36.1630   22.5470   31.1500 C   0  0  0  0  0  3  0  0  0  0  0  0
   35.3590   22.0450   32.0820 C   0  0  0  0  0  3  0  0  0  0  0  0
   35.1220   20.5660   32.2190 C   0  0  0  0  0  2  0  0  0  0  0  0
   34.1020   20.3780   32.5980 H   0  0  0  0  0  0  0  0  0  0  0  0
  1  7  1  6  0  0  0
  1 18  1  0  0  0  0
  2  3  1  0  0  0  0
  2  8  1  0  0  0  0
  2  1  1  0  0  0  0
  3 11  1  0  0  0  0
  4 12  1  6  0  0  0
  4  3  1  0  0  0  0
  4 26  1  0  0  0  0
  4  5  1  0  0  0  0
  5 14  1  0  0  0  0
  6  1  1  0  0  0  0
  6  5  1  0  0  0  0
  6 15  1  0  0  0  0
  9  2  1  0  0  0  0
 10  3  1  0  0  0  0
 13  5  1  0  0  0  0
 16  6  1  0  0  0  0
 17 22  1  0  0  0  0
 18 17  2  0  0  0  0
 18 19  1  0  0  0  0
 19 20  2  0  0  0  0
 20 21  1  0  0  0  0
 21 25  1  0  0  0  0
 22 21  2  0  0  0  0
 23 17  1  0  0  0  0
 24 19  1  0  0  0  0
 26 27  2  0  0  0  0
 27 28  1  0  0  0  0
 28 29  1  0  0  0  0
M  END
>  <minimizedAffinity>
-4.24290276

$$$$
