
 OpenBabel03272509503D

 28 29  0  0  0  0  0  0  0  0999 V2000
   33.7120   28.5870   48.6810 C   0  0  0  0  0  0  0  0  0  0  0  0
   34.2510   28.9770   47.8110 H   0  0  0  0  0  0  0  0  0  0  0  0
   33.0850   29.4280   49.0810 H   0  0  0  0  0  0  0  0  0  0  0  0
   32.7890   27.4560   48.3490 C   0  0  0  0  0  0  0  0  0  0  0  0
   33.0130   27.0590   47.3210 H   0  0  0  0  0  0  0  0  0  0  0  0
   32.9260   26.5930   49.0430 H   0  0  0  0  0  0  0  0  0  0  0  0
   31.3590   27.8580   48.3510 C   0  0  0  0  0  0  0  0  0  0  0  0
   30.6780   27.7370   49.5370 C   0  0  0  0  0  0  0  0  0  0  0  0
   29.3480   28.0770   49.6700 C   0  0  0  0  0  0  0  0  0  0  0  0
   28.6970   28.5410   48.6090 N   0  0  0  0  0  0  0  0  0  0  0  0
   29.3690   28.6630   47.4300 C   0  0  0  0  0  0  0  0  0  0  0  0
   30.6680   28.3340   47.2930 N   0  0  0  0  0  0  0  0  0  0  0  0
   31.1670   27.3640   50.4320 H   0  0  0  0  0  0  0  0  0  0  0  0
   28.8350   27.9740   50.6100 H   0  0  0  0  0  0  0  0  0  0  0  0
   28.9040   29.0340   46.5200 H   0  0  0  0  0  0  0  0  0  0  0  0
   34.5860   28.2280   49.7460 O   0  0  0  0  0  0  0  0  0  0  0  0
   37.1650   30.1380   51.4120 C   0  0  0  0  0  0  0  0  0  0  0  0
   37.6770   30.8570   50.3260 C   0  0  0  0  0  0  0  0  0  0  0  0
   37.1110   30.6540   49.0640 C   0  0  0  0  0  0  0  0  0  0  0  0
   36.0780   29.7490   48.9780 N   0  0  0  0  0  0  0  0  0  0  0  0
   35.6140   29.0770   50.0460 C   0  0  0  0  0  0  0  0  0  0  0  0
   36.1680   29.2820   51.2600 N   0  0  0  0  0  0  0  0  0  0  0  0
   37.6420   30.3370   52.3630 H   0  0  0  0  0  0  0  0  0  0  0  0
   38.4900   31.5700   50.3900 H   0  0  0  0  0  0  0  0  0  0  0  0
   37.5630   31.3500   47.8490 C   0  0  0  0  0  3  0  0  0  0  0  0
   38.4950   30.8450   47.0560 C   0  0  0  0  0  3  0  0  0  0  0  0
   38.8690   31.6450   45.8540 C   0  0  0  0  0  2  0  0  0  0  0  0
   38.8910   32.7120   46.1350 H   0  0  0  0  0  0  0  0  0  0  0  0
  1  3  1  0  0  0  0
  1 16  1  0  0  0  0
  2  1  1  0  0  0  0
  4  7  1  0  0  0  0
  4  1  1  0  0  0  0
  4  6  1  0  0  0  0
  5  4  1  0  0  0  0
  7  8  1  0  0  0  0
  8  9  2  0  0  0  0
  8 13  1  0  0  0  0
  9 14  1  0  0  0  0
 10  9  1  0  0  0  0
 11 10  2  0  0  0  0
 12 11  1  0  0  0  0
 12  7  2  0  0  0  0
 15 11  1  0  0  0  0
 16 21  1  0  0  0  0
 17 23  1  0  0  0  0
 18 24  1  0  0  0  0
 18 17  2  0  0  0  0
 19 18  1  0  0  0  0
 20 19  2  0  0  0  0
 20 21  1  0  0  0  0
 21 22  2  0  0  0  0
 22 17  1  0  0  0  0
 25 19  1  0  0  0  0
 26 25  2  0  0  0  0
 27 28  1  0  0  0  0
 27 26  1  0  0  0  0
M  END
>  <minimizedAffinity>
-4.95829391

>  <minimizedRMSD>
0.49739933

$$$$
