
 OpenBabel03272506503D

 29 30  0  0  1  0  0  0  0  0999 V2000
   34.6960   30.5320   48.6830 C   0  0  1  0  0  0  0  0  0  0  0  0
   33.9340   30.2160   47.4790 C   0  0  0  0  0  0  0  0  0  0  0  0
   33.8990   28.7730   47.0540 C   0  0  0  0  0  0  0  0  0  0  0  0
   33.7840   27.8040   48.1750 C   0  0  2  0  0  0  0  0  0  0  0  0
   34.6150   28.0850   49.3810 C   0  0  0  0  0  0  0  0  0  0  0  0
   34.4800   29.5200   49.7840 C   0  0  0  0  0  0  0  0  0  0  0  0
   34.2630   31.4820   49.1340 H   0  0  0  0  0  0  0  0  0  0  0  0
   34.1180   30.8220   46.6000 H   0  0  0  0  0  0  0  0  0  0  0  0
   32.8420   30.4320   47.7240 H   0  0  0  0  0  0  0  0  0  0  0  0
   33.0730   28.6080   46.3520 H   0  0  0  0  0  0  0  0  0  0  0  0
   34.8510   28.5480   46.5050 H   0  0  0  0  0  0  0  0  0  0  0  0
   32.7130   27.8700   48.5270 H   0  0  0  0  0  0  0  0  0  0  0  0
   34.2080   27.4810   50.2120 H   0  0  0  0  0  0  0  0  0  0  0  0
   35.6740   27.8270   49.2930 H   0  0  0  0  0  0  0  0  0  0  0  0
   34.8770   29.7950   50.7510 H   0  0  0  0  0  0  0  0  0  0  0  0
   33.3550   29.6080   49.9520 H   0  0  0  0  0  0  0  0  0  0  0  0
   36.7770   30.6810   47.2670 C   0  0  0  0  0  0  0  0  0  0  0  0
   36.1250   30.8840   48.5030 C   0  0  0  0  0  0  0  0  0  0  0  0
   36.8690   31.4270   49.5340 C   0  0  0  0  0  0  0  0  0  0  0  0
   38.1830   31.7360   49.3100 N   0  0  0  0  0  0  0  0  0  0  0  0
   38.7670   31.5260   48.1170 C   0  0  0  0  0  0  0  0  0  0  0  0
   38.0560   30.9930   47.0860 N   0  0  0  0  0  0  0  0  0  0  0  0
   36.2910   30.2650   46.3990 H   0  0  0  0  0  0  0  0  0  0  0  0
   36.4660   31.6220   50.5160 H   0  0  0  0  0  0  0  0  0  0  0  0
   39.8160   31.8150   48.0710 H   0  0  0  0  0  0  0  0  0  0  0  0
   33.9620   26.4330   47.6510 C   0  0  0  0  0  0  0  0  0  0  0  0
   33.9540   25.9870   46.3990 C   0  0  0  0  0  0  0  0  0  0  0  0
   34.1570   24.5330   46.0690 C   0  0  0  0  0  0  0  0  0  0  0  0
   34.6580   24.4320   45.0900 H   0  0  0  0  0  0  0  0  0  0  0  0
  1  7  1  1  0  0  0
  1  6  1  0  0  0  0
  2  9  1  0  0  0  0
  2  1  1  0  0  0  0
  3  2  1  0  0  0  0
  3  4  1  0  0  0  0
  4 12  1  1  0  0  0
  4  5  1  0  0  0  0
  5  6  1  0  0  0  0
  5 13  1  0  0  0  0
  6 16  1  0  0  0  0
  6 15  1  0  0  0  0
  8  2  1  0  0  0  0
 10  3  1  0  0  0  0
 11  3  1  0  0  0  0
 14  5  1  0  0  0  0
 17 18  1  0  0  0  0
 18  1  1  0  0  0  0
 18 19  2  0  0  0  0
 19 24  1  0  0  0  0
 20 19  1  0  0  0  0
 21 20  2  0  0  0  0
 22 17  2  0  0  0  0
 22 21  1  0  0  0  0
 23 17  1  0  0  0  0
 25 21  1  0  0  0  0
 26  4  1  0  0  0  0
 27 26  2  0  0  0  0
 28 27  1  0  0  0  0
 29 28  1  0  0  0  0
M  END
>  <minimizedAffinity>
-4.75662518

>  <minimizedRMSD>
1.50747454

$$$$
