
 OpenBabel03272505543D

 29 30  0  0  1  0  0  0  0  0999 V2000
   35.3360   30.3780   49.6010 C   0  0  2  0  0  0  0  0  0  0  0  0
   36.3220   31.0310   48.6530 C   0  0  0  0  0  0  0  0  0  0  0  0
   37.7150   30.4990   48.8000 C   0  0  2  0  0  0  0  0  0  0  0  0
   38.2300   30.5570   50.2160 C   0  0  0  0  0  0  0  0  0  0  0  0
   37.1940   30.2000   51.2380 C   0  0  0  0  0  0  0  0  0  0  0  0
   35.9940   29.5110   50.6180 C   0  0  0  0  0  0  0  0  0  0  0  0
   34.7570   31.1820   50.0880 H   0  0  0  0  0  0  0  0  0  0  0  0
   36.0000   30.8410   47.6280 H   0  0  0  0  0  0  0  0  0  0  0  0
   36.3720   32.1210   48.8250 H   0  0  0  0  0  0  0  0  0  0  0  0
   37.7130   29.4570   48.4240 H   0  0  0  0  0  0  0  0  0  0  0  0
   39.0120   29.7490   50.2820 H   0  0  0  0  0  0  0  0  0  0  0  0
   38.7680   31.4990   50.4280 H   0  0  0  0  0  0  0  0  0  0  0  0
   37.5710   29.6170   52.0890 H   0  0  0  0  0  0  0  0  0  0  0  0
   36.7900   31.1840   51.6180 H   0  0  0  0  0  0  0  0  0  0  0  0
   36.3790   28.5650   50.1750 H   0  0  0  0  0  0  0  0  0  0  0  0
   35.3150   29.2620   51.4400 H   0  0  0  0  0  0  0  0  0  0  0  0
   34.3750   29.5360   48.8280 C   0  0  0  0  0  0  0  0  0  0  0  0
   34.2790   29.8060   47.4520 C   0  0  0  0  0  0  0  0  0  0  0  0
   33.3750   29.0320   46.7220 C   0  0  0  0  0  0  0  0  0  0  0  0
   32.6400   28.0650   47.3790 N   0  0  0  0  0  0  0  0  0  0  0  0
   32.7670   27.8420   48.7050 C   0  0  0  0  0  0  0  0  0  0  0  0
   33.6370   28.5860   49.4090 N   0  0  0  0  0  0  0  0  0  0  0  0
   34.8180   30.5390   46.8960 H   0  0  0  0  0  0  0  0  0  0  0  0
   33.2530   29.1880   45.6570 H   0  0  0  0  0  0  0  0  0  0  0  0
   32.1450   27.0620   49.1200 H   0  0  0  0  0  0  0  0  0  0  0  0
   38.6040   31.3990   48.0100 C   0  0  0  0  0  3  0  0  0  0  0  0
   38.7700   32.6880   48.2440 C   0  0  0  0  0  3  0  0  0  0  0  0
   38.0220   33.2920   49.3720 C   0  0  0  0  0  2  0  0  0  0  0  0
   38.2050   32.6780   50.2810 H   0  0  0  0  0  0  0  0  0  0  0  0
  1  7  1  1  0  0  0
  1  6  1  0  0  0  0
  2  3  1  0  0  0  0
  2  9  1  0  0  0  0
  2  1  1  0  0  0  0
  3 10  1  6  0  0  0
  3  4  1  0  0  0  0
  4 11  1  0  0  0  0
  4 12  1  0  0  0  0
  4  5  1  0  0  0  0
  5 14  1  0  0  0  0
  5 13  1  0  0  0  0
  6  5  1  0  0  0  0
  6 16  1  0  0  0  0
  8  2  1  0  0  0  0
 15  6  1  0  0  0  0
 17 22  1  0  0  0  0
 17  1  1  0  0  0  0
 18 17  2  0  0  0  0
 19 20  2  0  0  0  0
 19 18  1  0  0  0  0
 20 21  1  0  0  0  0
 21 25  1  0  0  0  0
 21 22  2  0  0  0  0
 23 18  1  0  0  0  0
 24 19  1  0  0  0  0
 26 27  2  0  0  0  0
 26  3  1  0  0  0  0
 27 28  1  0  0  0  0
 28 29  1  0  0  0  0
M  END
>  <minimizedAffinity>
-5.93936539

>  <minimizedRMSD>
0.915589094

$$$$
