
 OpenBabel03272509533D

 38 40  0  0  0  0  0  0  0  0999 V2000
   37.2590   30.1130   51.5520 C   0  0  0  0  0  0  0  0  0  0  0  0
   38.0160   30.8340   50.5970 C   0  0  0  0  0  0  0  0  0  0  0  0
   37.6770   30.6630   49.2640 C   0  0  0  0  0  0  0  0  0  0  0  0
   36.6370   29.8110   48.9870 N   0  0  0  0  0  0  0  0  0  0  0  0
   35.9450   29.1490   49.9110 C   0  0  0  0  0  0  0  0  0  0  0  0
   36.2700   29.3100   51.2130 N   0  0  0  0  0  0  0  0  0  0  0  0
   37.5850   30.3000   52.5750 H   0  0  0  0  0  0  0  0  0  0  0  0
   38.8340   31.5030   50.8200 H   0  0  0  0  0  0  0  0  0  0  0  0
   38.8590   33.3040   49.1680 F   0  0  0  0  0  0  0  0  0  0  0  0
   38.8830   32.5350   48.0830 C   0  0  0  0  0  0  0  0  0  0  0  0
   38.3260   31.3060   48.1460 C   0  0  0  0  0  0  0  0  0  0  0  0
   38.4090   30.5960   46.9570 C   0  0  0  0  0  0  0  0  0  0  0  0
   39.0020   31.1010   45.8270 C   0  0  0  0  0  0  0  0  0  0  0  0
   39.5510   32.3480   45.8070 C   0  0  0  0  0  0  0  0  0  0  0  0
   39.4860   33.0760   46.9680 C   0  0  0  0  0  0  0  0  0  0  0  0
   38.0100   29.5830   46.8290 H   0  0  0  0  0  0  0  0  0  0  0  0
   39.0640   30.5340   44.8900 H   0  0  0  0  0  0  0  0  0  0  0  0
   40.0230   32.7670   44.9290 H   0  0  0  0  0  0  0  0  0  0  0  0
   39.9150   34.0690   46.9780 H   0  0  0  0  0  0  0  0  0  0  0  0
   34.9670   28.3700   49.3920 O   0  0  0  0  0  0  0  0  0  0  0  0
   34.4250   28.7070   48.1130 C   0  0  0  0  0  0  0  0  0  0  0  0
   35.2270   28.9970   47.4060 H   0  0  0  0  0  0  0  0  0  0  0  0
   33.7990   29.6070   48.2830 H   0  0  0  0  0  0  0  0  0  0  0  0
   33.5430   27.6110   47.6100 C   0  0  0  0  0  0  0  0  0  0  0  0
   33.8070   26.6110   47.9690 H   0  0  0  0  0  0  0  0  0  0  0  0
   33.7020   27.5670   46.4920 H   0  0  0  0  0  0  0  0  0  0  0  0
   32.0950   27.9080   47.7700 C   0  0  0  0  0  0  0  0  0  0  0  0
   31.4660   27.4750   48.9410 C   0  0  0  0  0  0  0  0  0  0  0  0
   30.1380   27.7090   49.1640 C   0  0  0  0  0  0  0  0  0  0  0  0
   29.4270   28.3540   48.2620 N   0  0  0  0  0  0  0  0  0  0  0  0
   30.0440   28.7780   47.1170 C   0  0  0  0  0  0  0  0  0  0  0  0
   31.3470   28.5710   46.8540 N   0  0  0  0  0  0  0  0  0  0  0  0
   32.0650   26.9430   49.6770 H   0  0  0  0  0  0  0  0  0  0  0  0
   29.6250   27.3810   50.0690 H   0  0  0  0  0  0  0  0  0  0  0  0
   29.2130   29.4880   46.1500 C   0  0  0  0  0  3  0  0  0  0  0  0
   29.7100   30.2810   45.2460 C   0  0  0  0  0  3  0  0  0  0  0  0
   28.8710   31.0150   44.2480 C   0  0  0  0  0  2  0  0  0  0  0  0
   27.8170   30.8750   44.5660 H   0  0  0  0  0  0  0  0  0  0  0  0
  1  7  1  0  0  0  0
  2  8  1  0  0  0  0
  2  1  2  0  0  0  0
  3  2  1  0  0  0  0
  4  3  2  0  0  0  0
  4  5  1  0  0  0  0
  5  6  2  0  0  0  0
  6  1  1  0  0  0  0
 10 11  1  0  0  0  0
 10  9  1  0  0  0  0
 11  3  1  0  0  0  0
 12 11  2  0  0  0  0
 13 12  1  0  0  0  0
 14 13  2  0  0  0  0
 14 15  1  0  0  0  0
 15 19  1  0  0  0  0
 15 10  2  0  0  0  0
 16 12  1  0  0  0  0
 17 13  1  0  0  0  0
 18 14  1  0  0  0  0
 20  5  1  0  0  0  0
 21 23  1  0  0  0  0
 21 20  1  0  0  0  0
 22 21  1  0  0  0  0
 24 27  1  0  0  0  0
 24 25  1  0  0  0  0
 24 21  1  0  0  0  0
 26 24  1  0  0  0  0
 27 28  1  0  0  0  0
 28 29  2  0  0  0  0
 28 33  1  0  0  0  0
 29 34  1  0  0  0  0
 30 29  1  0  0  0  0
 31 30  2  0  0  0  0
 32 31  1  0  0  0  0
 32 27  2  0  0  0  0
 35 31  1  0  0  0  0
 36 35  2  0  0  0  0
 37 38  1  0  0  0  0
 37 36  1  0  0  0  0
M  END
>  <minimizedAffinity>
-6.26974726

>  <minimizedRMSD>
0.29863435

$$$$
