
 OpenBabel03272509493D

 28 29  0  0  0  0  0  0  0  0999 V2000
   33.7020   28.5390   49.1840 C   0  0  0  0  0  0  0  0  0  0  0  0
   33.6370   29.5540   48.7760 H   0  0  0  0  0  0  0  0  0  0  0  0
   33.2880   28.5800   50.2280 H   0  0  0  0  0  0  0  0  0  0  0  0
   32.8950   27.5390   48.4190 C   0  0  0  0  0  0  0  0  0  0  0  0
   33.2840   27.4460   47.3670 H   0  0  0  0  0  0  0  0  0  0  0  0
   32.9740   26.5170   48.8610 H   0  0  0  0  0  0  0  0  0  0  0  0
   31.4610   27.9130   48.3140 C   0  0  0  0  0  0  0  0  0  0  0  0
   30.6890   27.7480   49.4380 C   0  0  0  0  0  0  0  0  0  0  0  0
   29.3460   28.0580   49.4700 C   0  0  0  0  0  0  0  0  0  0  0  0
   28.7730   28.5360   48.3710 N   0  0  0  0  0  0  0  0  0  0  0  0
   29.5350   28.7020   47.2540 C   0  0  0  0  0  0  0  0  0  0  0  0
   30.8470   28.4010   47.2150 N   0  0  0  0  0  0  0  0  0  0  0  0
   31.1120   27.3610   50.3610 H   0  0  0  0  0  0  0  0  0  0  0  0
   28.7600   27.9210   50.3620 H   0  0  0  0  0  0  0  0  0  0  0  0
   29.1370   29.0860   46.3180 H   0  0  0  0  0  0  0  0  0  0  0  0
   35.0470   28.0970   49.3290 O   0  0  0  0  0  0  0  0  0  0  0  0
   37.1320   30.1190   51.4840 C   0  0  0  0  0  0  0  0  0  0  0  0
   37.8730   30.8160   50.5240 C   0  0  0  0  0  0  0  0  0  0  0  0
   37.6220   30.5610   49.1720 C   0  0  0  0  0  0  0  0  0  0  0  0
   36.6530   29.6300   48.8780 N   0  0  0  0  0  0  0  0  0  0  0  0
   35.9630   28.9790   49.8310 C   0  0  0  0  0  0  0  0  0  0  0  0
   36.2120   29.2340   51.1340 N   0  0  0  0  0  0  0  0  0  0  0  0
   37.3690   30.3580   52.5130 H   0  0  0  0  0  0  0  0  0  0  0  0
   38.6360   31.5500   50.7510 H   0  0  0  0  0  0  0  0  0  0  0  0
   38.3350   31.2310   48.0730 C   0  0  0  0  0  3  0  0  0  0  0  0
   38.3900   30.7160   46.8550 C   0  0  0  0  0  3  0  0  0  0  0  0
   39.1440   31.4890   45.8250 C   0  0  0  0  0  2  0  0  0  0  0  0
   40.0470   31.9120   46.2950 H   0  0  0  0  0  0  0  0  0  0  0  0
  1 16  1  0  0  0  0
  1  3  1  0  0  0  0
  2  1  1  0  0  0  0
  4  6  1  0  0  0  0
  4  1  1  0  0  0  0
  5  4  1  0  0  0  0
  7  4  1  0  0  0  0
  7  8  1  0  0  0  0
  8  9  2  0  0  0  0
  8 13  1  0  0  0  0
  9 14  1  0  0  0  0
 10  9  1  0  0  0  0
 11 10  2  0  0  0  0
 12 11  1  0  0  0  0
 12  7  2  0  0  0  0
 15 11  1  0  0  0  0
 16 21  1  0  0  0  0
 17 23  1  0  0  0  0
 18 24  1  0  0  0  0
 18 17  2  0  0  0  0
 19 18  1  0  0  0  0
 20 19  2  0  0  0  0
 20 21  1  0  0  0  0
 21 22  2  0  0  0  0
 22 17  1  0  0  0  0
 25 19  1  0  0  0  0
 26 25  2  0  0  0  0
 27 28  1  0  0  0  0
 27 26  1  0  0  0  0
M  END
>  <minimizedAffinity>
-5.07974052

>  <minimizedRMSD>
0.507612944

$$$$
