
 OpenBabel03262520393D

 29 30  0  0  1  0  0  0  0  0999 V2000
   39.1120   25.6280   34.6800 C   0  0  2  0  0  0  0  0  0  0  0  0
   39.1600   26.9660   35.3780 C   0  0  0  0  0  0  0  0  0  0  0  0
   37.8080   27.5910   35.5260 C   0  0  0  0  0  0  0  0  0  0  0  0
   37.0690   27.7310   34.2330 C   0  0  0  0  0  0  0  0  0  0  0  0
   37.1470   26.5090   33.3760 C   0  0  0  0  0  0  0  0  0  0  0  0
   37.7920   25.3230   34.0790 C   0  0  1  0  0  0  0  0  0  0  0  0
   39.9560   25.6180   33.9340 H   0  0  0  0  0  0  0  0  0  0  0  0
   39.5580   26.8490   36.4280 H   0  0  0  0  0  0  0  0  0  0  0  0
   39.7910   27.6710   34.8090 H   0  0  0  0  0  0  0  0  0  0  0  0
   37.2090   26.9640   36.2300 H   0  0  0  0  0  0  0  0  0  0  0  0
   37.9520   28.6170   35.9320 H   0  0  0  0  0  0  0  0  0  0  0  0
   36.0290   28.0230   34.4130 H   0  0  0  0  0  0  0  0  0  0  0  0
   37.5260   28.5950   33.6680 H   0  0  0  0  0  0  0  0  0  0  0  0
   36.1470   26.1620   33.0590 H   0  0  0  0  0  0  0  0  0  0  0  0
   37.7150   26.7260   32.4210 H   0  0  0  0  0  0  0  0  0  0  0  0
   37.0960   25.0160   34.8840 H   0  0  0  0  0  0  0  0  0  0  0  0
   39.4360   24.5430   35.6540 C   0  0  0  0  0  0  0  0  0  0  0  0
   38.4830   24.3000   36.6610 C   0  0  0  0  0  0  0  0  0  0  0  0
   38.7860   23.3070   37.5810 C   0  0  0  0  0  0  0  0  0  0  0  0
   39.9770   22.6170   37.4760 N   0  0  0  0  0  0  0  0  0  0  0  0
   40.8700   22.8840   36.4860 C   0  0  0  0  0  0  0  0  0  0  0  0
   40.5660   23.8470   35.6010 N   0  0  0  0  0  0  0  0  0  0  0  0
   37.5550   24.7970   36.7960 H   0  0  0  0  0  0  0  0  0  0  0  0
   38.0970   23.0580   38.3940 H   0  0  0  0  0  0  0  0  0  0  0  0
   41.7790   22.2980   36.4750 H   0  0  0  0  0  0  0  0  0  0  0  0
   37.8740   24.1960   33.0980 C   0  0  0  0  0  3  0  0  0  0  0  0
   37.0410   23.6530   32.1800 C   0  0  0  0  0  3  0  0  0  0  0  0
   35.7040   23.7060   31.5460 C   0  0  0  0  0  2  0  0  0  0  0  0
   35.0040   24.4320   32.0190 H   0  0  0  0  0  0  0  0  0  0  0  0
  1  7  1  6  0  0  0
  1  2  1  0  0  0  0
  1 17  1  0  0  0  0
  2  3  1  0  0  0  0
  2  8  1  0  0  0  0
  3 11  1  0  0  0  0
  3 10  1  0  0  0  0
  4 12  1  0  0  0  0
  4  3  1  0  0  0  0
  5  6  1  0  0  0  0
  5  4  1  0  0  0  0
  6  1  1  0  0  0  0
  6 16  1  1  0  0  0
  9  2  1  0  0  0  0
 13  4  1  0  0  0  0
 14  5  1  0  0  0  0
 15  5  1  0  0  0  0
 17 18  1  0  0  0  0
 18 23  1  0  0  0  0
 18 19  2  0  0  0  0
 19 24  1  0  0  0  0
 20 19  1  0  0  0  0
 21 20  2  0  0  0  0
 22 17  2  0  0  0  0
 22 21  1  0  0  0  0
 25 21  1  0  0  0  0
 26  6  1  0  0  0  0
 27 26  2  0  0  0  0
 28 29  1  0  0  0  0
 28 27  1  0  0  0  0
M  END
>  <minimizedAffinity>
-4.57866287

$$$$

 OpenBabel03262520393D

 29 30  0  0  1  0  0  0  0  0999 V2000
   39.0640   24.9380   34.6790 C   0  0  2  0  0  0  0  0  0  0  0  0
   39.7020   24.0520   33.6360 C   0  0  0  0  0  0  0  0  0  0  0  0
   41.0520   24.5370   33.2110 C   0  0  0  0  0  0  0  0  0  0  0  0
   41.0540   25.9530   32.7290 C   0  0  0  0  0  0  0  0  0  0  0  0
   40.2610   26.8730   33.6000 C   0  0  0  0  0  0  0  0  0  0  0  0
   39.7850   26.2160   34.8880 C   0  0  1  0  0  0  0  0  0  0  0  0
   37.9880   25.0760   34.3760 H   0  0  0  0  0  0  0  0  0  0  0  0
   39.8670   23.0140   34.0490 H   0  0  0  0  0  0  0  0  0  0  0  0
   39.0670   24.0060   32.7340 H   0  0  0  0  0  0  0  0  0  0  0  0
   41.7480   24.4400   34.0790 H   0  0  0  0  0  0  0  0  0  0  0  0
   41.3880   23.9030   32.3610 H   0  0  0  0  0  0  0  0  0  0  0  0
   42.0790   26.3160   32.6010 H   0  0  0  0  0  0  0  0  0  0  0  0
   40.6050   25.9640   31.6940 H   0  0  0  0  0  0  0  0  0  0  0  0
   40.8480   27.7550   33.9130 H   0  0  0  0  0  0  0  0  0  0  0  0
   39.3650   27.2800   33.0410 H   0  0  0  0  0  0  0  0  0  0  0  0
   40.6890   26.0190   35.4970 H   0  0  0  0  0  0  0  0  0  0  0  0
   39.0150   24.2180   35.9860 C   0  0  0  0  0  0  0  0  0  0  0  0
   37.8330   24.3630   36.7370 C   0  0  0  0  0  0  0  0  0  0  0  0
   37.7870   23.7110   37.9620 C   0  0  0  0  0  0  0  0  0  0  0  0
   38.8720   22.9690   38.3830 N   0  0  0  0  0  0  0  0  0  0  0  0
   39.9950   22.8550   37.6240 C   0  0  0  0  0  0  0  0  0  0  0  0
   40.0290   23.4890   36.4410 N   0  0  0  0  0  0  0  0  0  0  0  0
   36.9700   24.9190   36.4700 H   0  0  0  0  0  0  0  0  0  0  0  0
   36.9040   23.7750   38.6040 H   0  0  0  0  0  0  0  0  0  0  0  0
   40.8000   22.2560   38.0270 H   0  0  0  0  0  0  0  0  0  0  0  0
   38.9490   27.2110   35.6300 C   0  0  0  0  0  3  0  0  0  0  0  0
   37.7650   27.8300   35.4120 C   0  0  0  0  0  3  0  0  0  0  0  0
   36.6120   27.9960   34.4970 C   0  0  0  0  0  2  0  0  0  0  0  0
   36.7270   27.4750   33.5200 H   0  0  0  0  0  0  0  0  0  0  0  0
  1  7  1  6  0  0  0
  1  6  1  0  0  0  0
  1 17  1  0  0  0  0
  2  8  1  0  0  0  0
  2  1  1  0  0  0  0
  3  2  1  0  0  0  0
  3 10  1  0  0  0  0
  4  3  1  0  0  0  0
  4  5  1  0  0  0  0
  5 14  1  0  0  0  0
  5  6  1  0  0  0  0
  6 16  1  1  0  0  0
  6 26  1  0  0  0  0
  9  2  1  0  0  0  0
 11  3  1  0  0  0  0
 12  4  1  0  0  0  0
 13  4  1  0  0  0  0
 15  5  1  0  0  0  0
 17 22  2  0  0  0  0
 17 18  1  0  0  0  0
 18 19  2  0  0  0  0
 19 20  1  0  0  0  0
 19 24  1  0  0  0  0
 21 25  1  0  0  0  0
 21 20  2  0  0  0  0
 22 21  1  0  0  0  0
 23 18  1  0  0  0  0
 27 26  2  0  0  0  0
 28 27  1  0  0  0  0
 29 28  1  0  0  0  0
M  END
>  <minimizedAffinity>
-4.51668644

$$$$

 OpenBabel03262520393D

 29 30  0  0  1  0  0  0  0  0999 V2000
   38.5440   23.7140   35.8810 C   0  0  2  0  0  0  0  0  0  0  0  0
   37.4450   23.9610   36.8870 C   0  0  0  0  0  0  0  0  0  0  0  0
   37.9710   24.2950   38.2480 C   0  0  0  0  0  0  0  0  0  0  0  0
   38.9220   23.2750   38.7900 C   0  0  0  0  0  0  0  0  0  0  0  0
   39.9260   22.8140   37.7830 C   0  0  0  0  0  0  0  0  0  0  0  0
   39.8910   23.6170   36.4910 C   0  0  1  0  0  0  0  0  0  0  0  0
   38.2510   22.7980   35.2960 H   0  0  0  0  0  0  0  0  0  0  0  0
   36.8180   24.8470   36.5770 H   0  0  0  0  0  0  0  0  0  0  0  0
   36.8110   23.0630   36.9880 H   0  0  0  0  0  0  0  0  0  0  0  0
   38.4840   25.2860   38.1910 H   0  0  0  0  0  0  0  0  0  0  0  0
   37.1050   24.3360   38.9450 H   0  0  0  0  0  0  0  0  0  0  0  0
   39.4110   23.6460   39.6960 H   0  0  0  0  0  0  0  0  0  0  0  0
   38.3150   22.3840   39.1240 H   0  0  0  0  0  0  0  0  0  0  0  0
   40.9600   22.9000   38.1630 H   0  0  0  0  0  0  0  0  0  0  0  0
   39.7760   21.7180   37.5420 H   0  0  0  0  0  0  0  0  0  0  0  0
   40.2440   24.6370   36.7410 H   0  0  0  0  0  0  0  0  0  0  0  0
   38.5690   24.8260   34.8850 C   0  0  0  0  0  0  0  0  0  0  0  0
   39.0560   26.0650   35.3400 C   0  0  0  0  0  0  0  0  0  0  0  0
   39.0640   27.1090   34.4250 C   0  0  0  0  0  0  0  0  0  0  0  0
   38.6060   26.8950   33.1410 N   0  0  0  0  0  0  0  0  0  0  0  0
   38.1440   25.6800   32.7420 C   0  0  0  0  0  0  0  0  0  0  0  0
   38.1410   24.6780   33.6350 N   0  0  0  0  0  0  0  0  0  0  0  0
   39.4180   26.2920   36.3120 H   0  0  0  0  0  0  0  0  0  0  0  0
   39.4270   28.1020   34.7030 H   0  0  0  0  0  0  0  0  0  0  0  0
   37.8030   25.5970   31.7190 H   0  0  0  0  0  0  0  0  0  0  0  0
   40.8850   23.0140   35.5490 C   0  0  0  0  0  3  0  0  0  0  0  0
   42.2200   22.7910   35.5670 C   0  0  0  0  0  3  0  0  0  0  0  0
   43.4810   22.9240   36.3330 C   0  0  0  0  0  2  0  0  0  0  0  0
   43.3820   23.5060   37.2770 H   0  0  0  0  0  0  0  0  0  0  0  0
  1  7  1  6  0  0  0
  1  6  1  0  0  0  0
  1  2  1  0  0  0  0
  2  9  1  0  0  0  0
  2  3  1  0  0  0  0
  3  4  1  0  0  0  0
  3 11  1  0  0  0  0
  4 13  1  0  0  0  0
  4 12  1  0  0  0  0
  5 14  1  0  0  0  0
  5  4  1  0  0  0  0
  6 16  1  1  0  0  0
  6  5  1  0  0  0  0
  8  2  1  0  0  0  0
 10  3  1  0  0  0  0
 15  5  1  0  0  0  0
 17 18  1  0  0  0  0
 17  1  1  0  0  0  0
 18 23  1  0  0  0  0
 19 24  1  0  0  0  0
 19 18  2  0  0  0  0
 20 19  1  0  0  0  0
 21 20  2  0  0  0  0
 21 22  1  0  0  0  0
 22 17  2  0  0  0  0
 25 21  1  0  0  0  0
 26 27  2  0  0  0  0
 26  6  1  0  0  0  0
 27 28  1  0  0  0  0
 28 29  1  0  0  0  0
M  END
>  <minimizedAffinity>
-4.28308249

$$$$

 OpenBabel03262520393D

 29 30  0  0  1  0  0  0  0  0999 V2000
   36.1680   29.5350   32.9680 C   0  0  2  0  0  0  0  0  0  0  0  0
   36.3490   30.0860   31.5740 C   0  0  0  0  0  0  0  0  0  0  0  0
   36.5860   29.0150   30.5550 C   0  0  0  0  0  0  0  0  0  0  0  0
   37.7330   28.1150   30.8870 C   0  0  0  0  0  0  0  0  0  0  0  0
   37.7490   27.6860   32.3190 C   0  0  0  0  0  0  0  0  0  0  0  0
   36.4960   28.0940   33.0810 C   0  0  1  0  0  0  0  0  0  0  0  0
   36.7750   30.1870   33.6580 H   0  0  0  0  0  0  0  0  0  0  0  0
   35.4150   30.6240   31.2390 H   0  0  0  0  0  0  0  0  0  0  0  0
   37.2150   30.7700   31.5430 H   0  0  0  0  0  0  0  0  0  0  0  0
   35.6530   28.4070   30.4640 H   0  0  0  0  0  0  0  0  0  0  0  0
   36.8300   29.5140   29.5910 H   0  0  0  0  0  0  0  0  0  0  0  0
   37.7550   27.2520   30.2150 H   0  0  0  0  0  0  0  0  0  0  0  0
   38.6870   28.6810   30.6730 H   0  0  0  0  0  0  0  0  0  0  0  0
   37.8180   26.5880   32.4200 H   0  0  0  0  0  0  0  0  0  0  0  0
   38.6570   28.1030   32.8510 H   0  0  0  0  0  0  0  0  0  0  0  0
   35.6610   27.5040   32.6560 H   0  0  0  0  0  0  0  0  0  0  0  0
   34.7510   29.7190   33.3990 C   0  0  0  0  0  0  0  0  0  0  0  0
   34.5360   30.5730   34.4970 C   0  0  0  0  0  0  0  0  0  0  0  0
   33.2230   30.7350   34.9160 C   0  0  0  0  0  0  0  0  0  0  0  0
   32.2080   30.0700   34.2580 N   0  0  0  0  0  0  0  0  0  0  0  0
   32.4610   29.2530   33.2000 C   0  0  0  0  0  0  0  0  0  0  0  0
   33.7340   29.1040   32.8030 N   0  0  0  0  0  0  0  0  0  0  0  0
   35.2710   31.1090   35.0440 H   0  0  0  0  0  0  0  0  0  0  0  0
   32.9740   31.3820   35.7610 H   0  0  0  0  0  0  0  0  0  0  0  0
   31.6100   28.7690   32.7410 H   0  0  0  0  0  0  0  0  0  0  0  0
   36.6680   27.6730   34.5060 C   0  0  0  0  0  3  0  0  0  0  0  0
   37.7160   27.3360   35.2930 C   0  0  0  0  0  3  0  0  0  0  0  0
   39.1830   27.1510   35.3790 C   0  0  0  0  0  2  0  0  0  0  0  0
   39.7120   27.2440   34.4030 H   0  0  0  0  0  0  0  0  0  0  0  0
  1  6  1  0  0  0  0
  1 17  1  0  0  0  0
  1  7  1  1  0  0  0
  2  1  1  0  0  0  0
  3  4  1  0  0  0  0
  3  2  1  0  0  0  0
  4  5  1  0  0  0  0
  5 14  1  0  0  0  0
  5 15  1  0  0  0  0
  5  6  1  0  0  0  0
  6 16  1  6  0  0  0
  6 26  1  0  0  0  0
  8  2  1  0  0  0  0
  9  2  1  0  0  0  0
 10  3  1  0  0  0  0
 11  3  1  0  0  0  0
 12  4  1  0  0  0  0
 13  4  1  0  0  0  0
 17 18  1  0  0  0  0
 18 19  2  0  0  0  0
 18 23  1  0  0  0  0
 19 24  1  0  0  0  0
 20 19  1  0  0  0  0
 21 20  2  0  0  0  0
 22 21  1  0  0  0  0
 22 17  2  0  0  0  0
 25 21  1  0  0  0  0
 26 27  2  0  0  0  0
 27 28  1  0  0  0  0
 29 28  1  0  0  0  0
M  END
>  <minimizedAffinity>
-4.27151155

$$$$

 OpenBabel03262520393D

 29 30  0  0  1  0  0  0  0  0999 V2000
   39.3890   26.0450   35.2680 C   0  0  2  0  0  0  0  0  0  0  0  0
   40.7400   26.5680   34.8420 C   0  0  0  0  0  0  0  0  0  0  0  0
   41.5690   25.5330   34.1480 C   0  0  0  0  0  0  0  0  0  0  0  0
   41.7490   24.2790   34.9440 C   0  0  0  0  0  0  0  0  0  0  0  0
   40.4860   23.8010   35.5830 C   0  0  0  0  0  0  0  0  0  0  0  0
   39.2550   24.5760   35.1320 C   0  0  1  0  0  0  0  0  0  0  0  0
   39.2130   26.4150   36.3170 H   0  0  0  0  0  0  0  0  0  0  0  0
   40.6210   27.4100   34.0990 H   0  0  0  0  0  0  0  0  0  0  0  0
   41.3100   26.9140   35.7210 H   0  0  0  0  0  0  0  0  0  0  0  0
   41.0790   25.2870   33.1750 H   0  0  0  0  0  0  0  0  0  0  0  0
   42.5820   25.9630   33.9840 H   0  0  0  0  0  0  0  0  0  0  0  0
   42.2040   23.4940   34.3310 H   0  0  0  0  0  0  0  0  0  0  0  0
   42.5030   24.4930   35.7570 H   0  0  0  0  0  0  0  0  0  0  0  0
   40.2770   22.7420   35.3450 H   0  0  0  0  0  0  0  0  0  0  0  0
   40.5630   23.8540   36.7110 H   0  0  0  0  0  0  0  0  0  0  0  0
   39.1000   24.3300   34.0630 H   0  0  0  0  0  0  0  0  0  0  0  0
   38.3220   26.6830   34.4420 C   0  0  0  0  0  0  0  0  0  0  0  0
   37.4650   27.5800   35.1080 C   0  0  0  0  0  0  0  0  0  0  0  0
   36.4590   28.1620   34.3510 C   0  0  0  0  0  0  0  0  0  0  0  0
   36.3410   27.8480   33.0130 N   0  0  0  0  0  0  0  0  0  0  0  0
   37.1910   26.9750   32.4080 C   0  0  0  0  0  0  0  0  0  0  0  0
   38.1610   26.4180   33.1490 N   0  0  0  0  0  0  0  0  0  0  0  0
   37.5040   27.8590   36.1310 H   0  0  0  0  0  0  0  0  0  0  0  0
   35.7530   28.8700   34.7960 H   0  0  0  0  0  0  0  0  0  0  0  0
   37.0300   26.7830   31.3560 H   0  0  0  0  0  0  0  0  0  0  0  0
   38.0780   24.0520   35.8930 C   0  0  0  0  0  3  0  0  0  0  0  0
   37.6960   24.0410   37.1910 C   0  0  0  0  0  3  0  0  0  0  0  0
   38.0340   24.4350   38.5780 C   0  0  0  0  0  2  0  0  0  0  0  0
   39.0530   24.8690   38.6930 H   0  0  0  0  0  0  0  0  0  0  0  0
  1  7  1  1  0  0  0
  2  1  1  0  0  0  0
  2  9  1  0  0  0  0
  3  2  1  0  0  0  0
  3  4  1  0  0  0  0
  4  5  1  0  0  0  0
  4 13  1  0  0  0  0
  5 15  1  0  0  0  0
  6 16  1  6  0  0  0
  6  1  1  0  0  0  0
  6  5  1  0  0  0  0
  6 26  1  0  0  0  0
  8  2  1  0  0  0  0
 10  3  1  0  0  0  0
 11  3  1  0  0  0  0
 12  4  1  0  0  0  0
 14  5  1  0  0  0  0
 17 18  1  0  0  0  0
 17  1  1  0  0  0  0
 18 23  1  0  0  0  0
 19 24  1  0  0  0  0
 19 18  2  0  0  0  0
 20 19  1  0  0  0  0
 21 20  2  0  0  0  0
 21 22  1  0  0  0  0
 22 17  2  0  0  0  0
 25 21  1  0  0  0  0
 26 27  2  0  0  0  0
 27 28  1  0  0  0  0
 28 29  1  0  0  0  0
M  END
>  <minimizedAffinity>
-4.2676115

$$$$

 OpenBabel03262520393D

 29 30  0  0  1  0  0  0  0  0999 V2000
   38.4820   24.2610   34.7020 C   0  0  2  0  0  0  0  0  0  0  0  0
   38.0210   23.0710   33.8940 C   0  0  0  0  0  0  0  0  0  0  0  0
   39.0490   22.6090   32.9090 C   0  0  0  0  0  0  0  0  0  0  0  0
   39.5200   23.6860   31.9840 C   0  0  0  0  0  0  0  0  0  0  0  0
   39.8010   24.9780   32.6810 C   0  0  0  0  0  0  0  0  0  0  0  0
   39.7360   24.8670   34.1980 C   0  0  1  0  0  0  0  0  0  0  0  0
   37.6190   24.9840   34.7390 H   0  0  0  0  0  0  0  0  0  0  0  0
   37.8270   22.1880   34.5690 H   0  0  0  0  0  0  0  0  0  0  0  0
   37.1090   23.3250   33.3270 H   0  0  0  0  0  0  0  0  0  0  0  0
   39.9200   22.2020   33.4770 H   0  0  0  0  0  0  0  0  0  0  0  0
   38.5820   21.8190   32.2790 H   0  0  0  0  0  0  0  0  0  0  0  0
   40.3880   23.3490   31.4090 H   0  0  0  0  0  0  0  0  0  0  0  0
   38.7080   23.8610   31.2190 H   0  0  0  0  0  0  0  0  0  0  0  0
   40.8110   25.3600   32.4510 H   0  0  0  0  0  0  0  0  0  0  0  0
   39.0810   25.7820   32.3380 H   0  0  0  0  0  0  0  0  0  0  0  0
   40.5890   24.2300   34.5060 H   0  0  0  0  0  0  0  0  0  0  0  0
   38.7070   23.8470   36.1180 C   0  0  0  0  0  0  0  0  0  0  0  0
   37.7650   24.2990   37.0610 C   0  0  0  0  0  0  0  0  0  0  0  0
   37.9780   23.9340   38.3830 C   0  0  0  0  0  0  0  0  0  0  0  0
   39.0760   23.1650   38.7110 N   0  0  0  0  0  0  0  0  0  0  0  0
   39.9620   22.7490   37.7680 C   0  0  0  0  0  0  0  0  0  0  0  0
   39.7460   23.1070   36.4920 N   0  0  0  0  0  0  0  0  0  0  0  0
   36.9050   24.8920   36.8710 H   0  0  0  0  0  0  0  0  0  0  0  0
   37.2900   24.2450   39.1740 H   0  0  0  0  0  0  0  0  0  0  0  0
   40.7950   22.1500   38.1090 H   0  0  0  0  0  0  0  0  0  0  0  0
   39.9630   26.2320   34.7680 C   0  0  0  0  0  3  0  0  0  0  0  0
   39.1700   27.2370   35.2080 C   0  0  0  0  0  3  0  0  0  0  0  0
   37.7830   27.7040   35.4330 C   0  0  0  0  0  2  0  0  0  0  0  0
   37.0010   27.0200   35.0310 H   0  0  0  0  0  0  0  0  0  0  0  0
  1  7  1  6  0  0  0
  1 17  1  0  0  0  0
  2  8  1  0  0  0  0
  2  1  1  0  0  0  0
  3 10  1  0  0  0  0
  3  2  1  0  0  0  0
  4  5  1  0  0  0  0
  4  3  1  0  0  0  0
  5  6  1  0  0  0  0
  6 16  1  1  0  0  0
  6  1  1  0  0  0  0
  6 26  1  0  0  0  0
  9  2  1  0  0  0  0
 11  3  1  0  0  0  0
 12  4  1  0  0  0  0
 13  4  1  0  0  0  0
 14  5  1  0  0  0  0
 15  5  1  0  0  0  0
 17 22  2  0  0  0  0
 17 18  1  0  0  0  0
 18 19  2  0  0  0  0
 19 20  1  0  0  0  0
 19 24  1  0  0  0  0
 21 25  1  0  0  0  0
 21 20  2  0  0  0  0
 22 21  1  0  0  0  0
 23 18  1  0  0  0  0
 26 27  2  0  0  0  0
 27 28  1  0  0  0  0
 29 28  1  0  0  0  0
M  END
>  <minimizedAffinity>
-4.25177383

$$$$

 OpenBabel03262520393D

 29 30  0  0  1  0  0  0  0  0999 V2000
   38.1740   26.5780   33.1800 C   0  0  2  0  0  0  0  0  0  0  0  0
   39.1470   27.2210   32.2210 C   0  0  0  0  0  0  0  0  0  0  0  0
   40.5710   26.8680   32.5170 C   0  0  0  0  0  0  0  0  0  0  0  0
   40.9830   27.1730   33.9220 C   0  0  0  0  0  0  0  0  0  0  0  0
   39.9690   26.7540   34.9370 C   0  0  0  0  0  0  0  0  0  0  0  0
   38.8300   25.9370   34.3440 C   0  0  1  0  0  0  0  0  0  0  0  0
   37.4280   27.3720   33.4680 H   0  0  0  0  0  0  0  0  0  0  0  0
   38.9570   26.8620   31.1670 H   0  0  0  0  0  0  0  0  0  0  0  0
   39.0610   28.3210   32.2690 H   0  0  0  0  0  0  0  0  0  0  0  0
   40.7090   25.7770   32.3190 H   0  0  0  0  0  0  0  0  0  0  0  0
   41.2180   27.4780   31.8480 H   0  0  0  0  0  0  0  0  0  0  0  0
   41.9640   26.7380   34.1400 H   0  0  0  0  0  0  0  0  0  0  0  0
   41.1300   28.2890   34.0030 H   0  0  0  0  0  0  0  0  0  0  0  0
   40.4120   26.1210   35.7270 H   0  0  0  0  0  0  0  0  0  0  0  0
   39.5380   27.6560   35.4680 H   0  0  0  0  0  0  0  0  0  0  0  0
   39.2670   24.9720   34.0190 H   0  0  0  0  0  0  0  0  0  0  0  0
   37.3820   25.5350   32.4640 C   0  0  0  0  0  0  0  0  0  0  0  0
   37.9910   24.2750   32.3190 C   0  0  0  0  0  0  0  0  0  0  0  0
   37.2690   23.3050   31.6390 C   0  0  0  0  0  0  0  0  0  0  0  0
   36.0170   23.6070   31.1430 N   0  0  0  0  0  0  0  0  0  0  0  0
   35.4640   24.8400   31.3060 C   0  0  0  0  0  0  0  0  0  0  0  0
   36.1720   25.7690   31.9670 N   0  0  0  0  0  0  0  0  0  0  0  0
   38.9480   23.9830   32.6740 H   0  0  0  0  0  0  0  0  0  0  0  0
   37.6740   22.3010   31.4850 H   0  0  0  0  0  0  0  0  0  0  0  0
   34.4790   24.9940   30.8870 H   0  0  0  0  0  0  0  0  0  0  0  0
   37.8540   25.6450   35.4400 C   0  0  0  0  0  3  0  0  0  0  0  0
   37.8160   24.8030   36.4990 C   0  0  0  0  0  3  0  0  0  0  0  0
   38.5220   23.7460   37.2590 C   0  0  0  0  0  2  0  0  0  0  0  0
   39.4610   23.3890   36.7770 H   0  0  0  0  0  0  0  0  0  0  0  0
  1  7  1  1  0  0  0
  1  6  1  0  0  0  0
  2  9  1  0  0  0  0
  2  3  1  0  0  0  0
  2  1  1  0  0  0  0
  3  4  1  0  0  0  0
  4 13  1  0  0  0  0
  4 12  1  0  0  0  0
  4  5  1  0  0  0  0
  5 15  1  0  0  0  0
  5 14  1  0  0  0  0
  6 16  1  6  0  0  0
  6  5  1  0  0  0  0
  6 26  1  0  0  0  0
  8  2  1  0  0  0  0
 10  3  1  0  0  0  0
 11  3  1  0  0  0  0
 17  1  1  0  0  0  0
 18 17  1  0  0  0  0
 18 23  1  0  0  0  0
 19 18  2  0  0  0  0
 20 21  2  0  0  0  0
 20 19  1  0  0  0  0
 21 22  1  0  0  0  0
 22 17  2  0  0  0  0
 24 19  1  0  0  0  0
 25 21  1  0  0  0  0
 26 27  2  0  0  0  0
 27 28  1  0  0  0  0
 29 28  1  0  0  0  0
M  END
>  <minimizedAffinity>
-4.22242212

$$$$

 OpenBabel03262520393D

 29 30  0  0  1  0  0  0  0  0999 V2000
   38.3190   24.2460   33.4780 C   0  0  2  0  0  0  0  0  0  0  0  0
   38.3050   22.7420   33.3450 C   0  0  0  0  0  0  0  0  0  0  0  0
   37.8390   22.0550   34.5910 C   0  0  0  0  0  0  0  0  0  0  0  0
   38.6140   22.4400   35.8110 C   0  0  0  0  0  0  0  0  0  0  0  0
   38.8580   23.9110   35.9140 C   0  0  0  0  0  0  0  0  0  0  0  0
   38.1050   24.7180   34.8660 C   0  0  1  0  0  0  0  0  0  0  0  0
   39.2870   24.6040   33.0270 H   0  0  0  0  0  0  0  0  0  0  0  0
   37.5850   22.4240   32.5350 H   0  0  0  0  0  0  0  0  0  0  0  0
   39.3190   22.3690   33.1200 H   0  0  0  0  0  0  0  0  0  0  0  0
   36.7610   22.3020   34.7440 H   0  0  0  0  0  0  0  0  0  0  0  0
   37.9790   20.9610   34.4470 H   0  0  0  0  0  0  0  0  0  0  0  0
   38.1290   22.0550   36.7140 H   0  0  0  0  0  0  0  0  0  0  0  0
   39.6120   21.9140   35.7640 H   0  0  0  0  0  0  0  0  0  0  0  0
   38.5390   24.3150   36.8910 H   0  0  0  0  0  0  0  0  0  0  0  0
   39.9640   24.1390   35.8320 H   0  0  0  0  0  0  0  0  0  0  0  0
   37.0280   24.6290   35.1110 H   0  0  0  0  0  0  0  0  0  0  0  0
   37.2470   24.8330   32.6210 C   0  0  0  0  0  0  0  0  0  0  0  0
   36.4050   23.9220   31.9570 C   0  0  0  0  0  0  0  0  0  0  0  0
   35.4180   24.4600   31.1430 C   0  0  0  0  0  0  0  0  0  0  0  0
   35.3050   25.8300   31.0210 N   0  0  0  0  0  0  0  0  0  0  0  0
   36.1400   26.6760   31.6820 C   0  0  0  0  0  0  0  0  0  0  0  0
   37.0900   26.1440   32.4660 N   0  0  0  0  0  0  0  0  0  0  0  0
   36.4440   22.8620   32.0080 H   0  0  0  0  0  0  0  0  0  0  0  0
   34.7240   23.8170   30.5940 H   0  0  0  0  0  0  0  0  0  0  0  0
   35.9840   27.7350   31.5310 H   0  0  0  0  0  0  0  0  0  0  0  0
   38.4890   26.1550   35.0300 C   0  0  0  0  0  3  0  0  0  0  0  0
   39.6090   26.8840   34.8180 C   0  0  0  0  0  3  0  0  0  0  0  0
   41.0190   26.8730   34.3670 C   0  0  0  0  0  2  0  0  0  0  0  0
   41.4250   25.8560   34.1630 H   0  0  0  0  0  0  0  0  0  0  0  0
  1  7  1  6  0  0  0
  1  6  1  0  0  0  0
  2  1  1  0  0  0  0
  2  3  1  0  0  0  0
  3 10  1  0  0  0  0
  3  4  1  0  0  0  0
  4  5  1  0  0  0  0
  4 12  1  0  0  0  0
  5 14  1  0  0  0  0
  6 26  1  0  0  0  0
  6 16  1  1  0  0  0
  6  5  1  0  0  0  0
  8  2  1  0  0  0  0
  9  2  1  0  0  0  0
 11  3  1  0  0  0  0
 13  4  1  0  0  0  0
 15  5  1  0  0  0  0
 17  1  1  0  0  0  0
 18 23  1  0  0  0  0
 18 17  2  0  0  0  0
 19 18  1  0  0  0  0
 20 19  2  0  0  0  0
 20 21  1  0  0  0  0
 21 22  2  0  0  0  0
 22 17  1  0  0  0  0
 24 19  1  0  0  0  0
 25 21  1  0  0  0  0
 27 26  2  0  0  0  0
 28 27  1  0  0  0  0
 29 28  1  0  0  0  0
M  END
>  <minimizedAffinity>
-4.17154264

$$$$

 OpenBabel03262520393D

 29 30  0  0  1  0  0  0  0  0999 V2000
   39.1150   23.8930   35.4030 C   0  0  2  0  0  0  0  0  0  0  0  0
   38.3770   23.2020   36.5250 C   0  0  0  0  0  0  0  0  0  0  0  0
   39.1830   23.1210   37.7840 C   0  0  0  0  0  0  0  0  0  0  0  0
   40.5200   22.4770   37.5980 C   0  0  0  0  0  0  0  0  0  0  0  0
   41.2390   22.9550   36.3780 C   0  0  0  0  0  0  0  0  0  0  0  0
   40.5480   24.1280   35.6970 C   0  0  1  0  0  0  0  0  0  0  0  0
   38.9440   23.2790   34.4740 H   0  0  0  0  0  0  0  0  0  0  0  0
   37.4450   23.7780   36.7970 H   0  0  0  0  0  0  0  0  0  0  0  0
   38.1150   22.1710   36.2320 H   0  0  0  0  0  0  0  0  0  0  0  0
   39.3220   24.1570   38.1780 H   0  0  0  0  0  0  0  0  0  0  0  0
   38.6170   22.4940   38.5090 H   0  0  0  0  0  0  0  0  0  0  0  0
   41.1360   22.6000   38.4950 H   0  0  0  0  0  0  0  0  0  0  0  0
   40.3550   21.3640   37.5030 H   0  0  0  0  0  0  0  0  0  0  0  0
   42.2610   23.3030   36.6110 H   0  0  0  0  0  0  0  0  0  0  0  0
   41.3610   22.1140   35.6310 H   0  0  0  0  0  0  0  0  0  0  0  0
   40.6330   24.9900   36.3870 H   0  0  0  0  0  0  0  0  0  0  0  0
   38.4790   25.2140   35.1240 C   0  0  0  0  0  0  0  0  0  0  0  0
   37.7500   25.3170   33.9240 C   0  0  0  0  0  0  0  0  0  0  0  0
   37.1720   26.5480   33.6480 C   0  0  0  0  0  0  0  0  0  0  0  0
   37.3300   27.5930   34.5360 N   0  0  0  0  0  0  0  0  0  0  0  0
   38.0430   27.4490   35.6850 C   0  0  0  0  0  0  0  0  0  0  0  0
   38.5980   26.2540   35.9430 N   0  0  0  0  0  0  0  0  0  0  0  0
   37.5950   24.5540   33.2030 H   0  0  0  0  0  0  0  0  0  0  0  0
   36.5900   26.7080   32.7360 H   0  0  0  0  0  0  0  0  0  0  0  0
   38.1190   28.3170   36.3260 H   0  0  0  0  0  0  0  0  0  0  0  0
   41.3220   24.4610   34.4600 C   0  0  0  0  0  3  0  0  0  0  0  0
   41.6440   25.5980   33.8010 C   0  0  0  0  0  3  0  0  0  0  0  0
   41.5300   27.0740   33.7620 C   0  0  0  0  0  2  0  0  0  0  0  0
   40.8470   27.4990   34.5320 H   0  0  0  0  0  0  0  0  0  0  0  0
  1  7  1  6  0  0  0
  1  6  1  0  0  0  0
  1  2  1  0  0  0  0
  2  8  1  0  0  0  0
  2  3  1  0  0  0  0
  3 10  1  0  0  0  0
  3 11  1  0  0  0  0
  4  3  1  0  0  0  0
  4 12  1  0  0  0  0
  5 14  1  0  0  0  0
  5  4  1  0  0  0  0
  6  5  1  0  0  0  0
  6 16  1  1  0  0  0
  9  2  1  0  0  0  0
 13  4  1  0  0  0  0
 15  5  1  0  0  0  0
 17  1  1  0  0  0  0
 17 22  1  0  0  0  0
 18 17  2  0  0  0  0
 19 18  1  0  0  0  0
 19 20  2  0  0  0  0
 20 21  1  0  0  0  0
 21 22  2  0  0  0  0
 21 25  1  0  0  0  0
 23 18  1  0  0  0  0
 24 19  1  0  0  0  0
 26  6  1  0  0  0  0
 27 26  2  0  0  0  0
 28 27  1  0  0  0  0
 28 29  1  0  0  0  0
M  END
>  <minimizedAffinity>
-4.15812016

$$$$
