
 OpenBabel03272500583D

 30 31  0  0  0  0  0  0  0  0999 V2000
   38.1730   31.8180   47.4170 C   0  0  0  0  0  0  0  0  0  0  0  0
   38.7390   32.6240   48.3670 C   0  0  0  0  0  0  0  0  0  0  0  0
   38.2910   32.6440   49.6930 C   0  0  0  0  0  0  0  0  0  0  0  0
   37.1880   31.7650   50.0310 C   0  0  0  0  0  0  0  0  0  0  0  0
   36.6750   30.9920   49.0440 C   0  0  0  0  0  0  0  0  0  0  0  0
   37.1110   30.9820   47.7730 C   0  0  0  0  0  0  0  0  0  0  0  0
   39.5780   33.2990   48.1300 H   0  0  0  0  0  0  0  0  0  0  0  0
   38.7880   33.3120   50.3950 H   0  0  0  0  0  0  0  0  0  0  0  0
   36.9630   31.8910   51.0600 H   0  0  0  0  0  0  0  0  0  0  0  0
   35.9030   30.4150   49.5270 H   0  0  0  0  0  0  0  0  0  0  0  0
   40.0080   31.2570   45.9100 C   0  0  0  0  0  0  0  0  0  0  0  0
   38.7630   31.8940   46.0970 C   0  0  0  0  0  0  0  0  0  0  0  0
   38.2580   32.5130   44.9800 C   0  0  0  0  0  0  0  0  0  0  0  0
   38.9370   32.4850   43.8180 N   0  0  0  0  0  0  0  0  0  0  0  0
   40.0940   31.8870   43.6620 C   0  0  0  0  0  0  0  0  0  0  0  0
   40.6280   31.2740   44.7070 N   0  0  0  0  0  0  0  0  0  0  0  0
   40.4830   30.7430   46.7360 H   0  0  0  0  0  0  0  0  0  0  0  0
   37.2920   33.0080   45.1260 H   0  0  0  0  0  0  0  0  0  0  0  0
   40.6200   31.8790   42.7170 H   0  0  0  0  0  0  0  0  0  0  0  0
   35.0910   30.0770   46.9800 C   0  0  0  0  0  0  0  0  0  0  0  0
   34.5400   30.6650   47.9940 O   0  0  0  0  0  0  0  0  0  0  0  0
   36.5280   30.1910   46.8150 N   0  0  0  0  0  0  0  0  0  0  0  0
   37.0390   29.7260   46.0640 H   0  0  0  0  0  0  0  0  0  0  0  0
   34.3030   29.3740   46.1120 O   0  0  0  0  0  0  0  0  0  0  0  0
   33.2510   29.9100   45.3780 C   0  0  0  0  0  0  0  0  0  0  0  0
   33.4530   30.5790   44.2620 O   0  0  0  0  0  0  0  0  0  0  0  0
   31.8410   29.7350   45.8020 C   0  0  0  0  0  3  0  0  0  0  0  0
   31.4450   28.7720   46.5970 C   0  0  0  0  0  3  0  0  0  0  0  0
   30.0460   28.5530   47.0520 C   0  0  0  0  0  2  0  0  0  0  0  0
   29.3230   29.2560   46.6160 H   0  0  0  0  0  0  0  0  0  0  0  0
  1  6  2  0  0  0  0
  1  2  1  0  0  0  0
  2  3  2  0  0  0  0
  3  4  1  0  0  0  0
  3  8  1  0  0  0  0
  4  9  1  0  0  0  0
  5 10  1  0  0  0  0
  5  4  2  0  0  0  0
  6  5  1  0  0  0  0
  7  2  1  0  0  0  0
 11 12  1  0  0  0  0
 11 17  1  0  0  0  0
 12  1  1  0  0  0  0
 13 18  1  0  0  0  0
 13 12  2  0  0  0  0
 14 13  1  0  0  0  0
 15 14  2  0  0  0  0
 15 16  1  0  0  0  0
 16 11  2  0  0  0  0
 19 15  1  0  0  0  0
 20 21  2  0  0  0  0
 22 20  1  0  0  0  0
 22  6  1  0  0  0  0
 23 22  1  0  0  0  0
 24 20  1  0  0  0  0
 25 27  1  0  0  0  0
 25 24  1  0  0  0  0
 26 25  2  0  0  0  0
 27 28  2  0  0  0  0
 28 29  1  0  0  0  0
 30 29  1  0  0  0  0
M  END
>  <minimizedAffinity>
-5.26741266

>  <minimizedRMSD>
0.445317566

$$$$
