
 OpenBabel03272509513D

 28 29  0  0  0  0  0  0  0  0999 V2000
   38.5710   26.2050   34.3730 C   0  0  0  0  0  0  0  0  0  0  0  0
   38.3010   27.2480   34.1690 H   0  0  0  0  0  0  0  0  0  0  0  0
   39.6290   26.2100   34.7510 H   0  0  0  0  0  0  0  0  0  0  0  0
   37.7200   25.5670   35.4240 C   0  0  0  0  0  0  0  0  0  0  0  0
   37.3160   26.3470   36.1260 H   0  0  0  0  0  0  0  0  0  0  0  0
   36.8260   25.0650   34.9830 H   0  0  0  0  0  0  0  0  0  0  0  0
   38.4660   24.5860   36.2540 C   0  0  0  0  0  0  0  0  0  0  0  0
   38.0100   24.3750   37.5320 C   0  0  0  0  0  0  0  0  0  0  0  0
   38.6140   23.4910   38.4010 C   0  0  0  0  0  0  0  0  0  0  0  0
   39.6800   22.8160   37.9880 N   0  0  0  0  0  0  0  0  0  0  0  0
   40.1360   23.0220   36.7200 C   0  0  0  0  0  0  0  0  0  0  0  0
   39.5510   23.8830   35.8660 N   0  0  0  0  0  0  0  0  0  0  0  0
   37.1420   24.9040   37.9150 H   0  0  0  0  0  0  0  0  0  0  0  0
   38.2400   23.3420   39.3980 H   0  0  0  0  0  0  0  0  0  0  0  0
   41.0020   22.5070   36.3130 H   0  0  0  0  0  0  0  0  0  0  0  0
   38.5960   25.4110   33.1920 O   0  0  0  0  0  0  0  0  0  0  0  0
   35.6000   26.0800   31.2800 C   0  0  0  0  0  0  0  0  0  0  0  0
   35.1690   24.7710   31.0350 C   0  0  0  0  0  0  0  0  0  0  0  0
   35.9280   23.7120   31.5410 C   0  0  0  0  0  0  0  0  0  0  0  0
   37.0610   24.0350   32.2520 N   0  0  0  0  0  0  0  0  0  0  0  0
   37.4430   25.3070   32.4640 C   0  0  0  0  0  0  0  0  0  0  0  0
   36.7010   26.3220   31.9720 N   0  0  0  0  0  0  0  0  0  0  0  0
   34.9720   26.8580   30.8640 H   0  0  0  0  0  0  0  0  0  0  0  0
   34.2770   24.5120   30.4760 H   0  0  0  0  0  0  0  0  0  0  0  0
   35.5760   22.2960   31.3500 C   0  0  0  0  0  3  0  0  0  0  0  0
   35.1520   21.5370   32.3490 C   0  0  0  0  0  3  0  0  0  0  0  0
   34.8270   20.1160   32.0310 C   0  0  0  0  0  2  0  0  0  0  0  0
   35.5780   19.7360   31.3170 H   0  0  0  0  0  0  0  0  0  0  0  0
  1  3  1  0  0  0  0
  1  4  1  0  0  0  0
  2  1  1  0  0  0  0
  4  5  1  0  0  0  0
  4  7  1  0  0  0  0
  6  4  1  0  0  0  0
  7  8  1  0  0  0  0
  8 13  1  0  0  0  0
  8  9  2  0  0  0  0
  9 14  1  0  0  0  0
 10  9  1  0  0  0  0
 11 10  2  0  0  0  0
 12  7  2  0  0  0  0
 12 11  1  0  0  0  0
 15 11  1  0  0  0  0
 16  1  1  0  0  0  0
 17 22  1  0  0  0  0
 18 17  2  0  0  0  0
 18 19  1  0  0  0  0
 19 20  2  0  0  0  0
 20 21  1  0  0  0  0
 21 16  1  0  0  0  0
 22 21  2  0  0  0  0
 23 17  1  0  0  0  0
 24 18  1  0  0  0  0
 25 19  1  0  0  0  0
 25 26  2  0  0  0  0
 27 26  1  0  0  0  0
 28 27  1  0  0  0  0
M  END
>  <minimizedAffinity>
-4.89344501

$$$$

 OpenBabel03272509513D

 28 29  0  0  0  0  0  0  0  0999 V2000
   38.0320   22.1760   33.5560 C   0  0  0  0  0  0  0  0  0  0  0  0
   38.8670   21.4900   33.3720 H   0  0  0  0  0  0  0  0  0  0  0  0
   38.4750   23.1960   33.7090 H   0  0  0  0  0  0  0  0  0  0  0  0
   37.0760   22.2670   32.4090 C   0  0  0  0  0  0  0  0  0  0  0  0
   37.5530   21.8710   31.4710 H   0  0  0  0  0  0  0  0  0  0  0  0
   36.1690   21.6380   32.5750 H   0  0  0  0  0  0  0  0  0  0  0  0
   36.6520   23.6610   32.1200 C   0  0  0  0  0  0  0  0  0  0  0  0
   35.5990   23.8280   31.2560 C   0  0  0  0  0  0  0  0  0  0  0  0
   35.1100   25.0690   30.9080 C   0  0  0  0  0  0  0  0  0  0  0  0
   35.6800   26.1500   31.4280 N   0  0  0  0  0  0  0  0  0  0  0  0
   36.7270   25.9900   32.2860 C   0  0  0  0  0  0  0  0  0  0  0  0
   37.2090   24.7800   32.6310 N   0  0  0  0  0  0  0  0  0  0  0  0
   35.0990   22.9750   30.8060 H   0  0  0  0  0  0  0  0  0  0  0  0
   34.2830   25.1750   30.2290 H   0  0  0  0  0  0  0  0  0  0  0  0
   37.2440   26.8260   32.7500 H   0  0  0  0  0  0  0  0  0  0  0  0
   37.3420   21.8790   34.7650 O   0  0  0  0  0  0  0  0  0  0  0  0
   37.8140   23.3330   38.0430 C   0  0  0  0  0  0  0  0  0  0  0  0
   39.2040   23.2210   38.1620 C   0  0  0  0  0  0  0  0  0  0  0  0
   39.9210   22.6500   37.1070 C   0  0  0  0  0  0  0  0  0  0  0  0
   39.2000   22.2320   36.0120 N   0  0  0  0  0  0  0  0  0  0  0  0
   37.8630   22.3560   35.9360 C   0  0  0  0  0  0  0  0  0  0  0  0
   37.1810   22.9100   36.9610 N   0  0  0  0  0  0  0  0  0  0  0  0
   37.3130   23.7830   38.8900 H   0  0  0  0  0  0  0  0  0  0  0  0
   39.7750   23.5490   39.0220 H   0  0  0  0  0  0  0  0  0  0  0  0
   41.3820   22.4790   37.1160 C   0  0  0  0  0  3  0  0  0  0  0  0
   42.1680   23.1070   36.2540 C   0  0  0  0  0  3  0  0  0  0  0  0
   43.6340   22.8520   36.3630 C   0  0  0  0  0  2  0  0  0  0  0  0
   43.7880   21.7820   36.5870 H   0  0  0  0  0  0  0  0  0  0  0  0
  1  3  1  0  0  0  0
  1 16  1  0  0  0  0
  2  1  1  0  0  0  0
  4  6  1  0  0  0  0
  4  1  1  0  0  0  0
  5  4  1  0  0  0  0
  7  4  1  0  0  0  0
  7 12  1  0  0  0  0
  8  7  2  0  0  0  0
  9  8  1  0  0  0  0
  9 10  2  0  0  0  0
 10 11  1  0  0  0  0
 11 12  2  0  0  0  0
 11 15  1  0  0  0  0
 13  8  1  0  0  0  0
 14  9  1  0  0  0  0
 16 21  1  0  0  0  0
 17 18  1  0  0  0  0
 17 23  1  0  0  0  0
 18 24  1  0  0  0  0
 19 25  1  0  0  0  0
 19 18  2  0  0  0  0
 20 19  1  0  0  0  0
 21 20  2  0  0  0  0
 21 22  1  0  0  0  0
 22 17  2  0  0  0  0
 26 27  1  0  0  0  0
 26 25  2  0  0  0  0
 27 28  1  0  0  0  0
M  END
>  <minimizedAffinity>
-4.74339294

$$$$

 OpenBabel03272509513D

 28 29  0  0  0  0  0  0  0  0999 V2000
   36.7440   24.0620   30.9790 C   0  0  0  0  0  0  0  0  0  0  0  0
   37.1560   23.6180   30.0660 H   0  0  0  0  0  0  0  0  0  0  0  0
   36.3600   25.0800   30.7030 H   0  0  0  0  0  0  0  0  0  0  0  0
   35.6000   23.2870   31.5510 C   0  0  0  0  0  0  0  0  0  0  0  0
   35.4850   23.5110   32.6470 H   0  0  0  0  0  0  0  0  0  0  0  0
   34.6290   23.5750   31.0800 H   0  0  0  0  0  0  0  0  0  0  0  0
   35.7790   21.8170   31.4290 C   0  0  0  0  0  0  0  0  0  0  0  0
   34.8540   21.0200   32.0560 C   0  0  0  0  0  0  0  0  0  0  0  0
   34.9090   19.6430   32.0180 C   0  0  0  0  0  0  0  0  0  0  0  0
   35.8970   19.0600   31.3480 N   0  0  0  0  0  0  0  0  0  0  0  0
   36.8190   19.8470   30.7240 C   0  0  0  0  0  0  0  0  0  0  0  0
   36.7700   21.1930   30.7570 N   0  0  0  0  0  0  0  0  0  0  0  0
   34.0270   21.4500   32.6150 H   0  0  0  0  0  0  0  0  0  0  0  0
   34.1720   19.0390   32.5170 H   0  0  0  0  0  0  0  0  0  0  0  0
   37.6550   19.4440   30.1590 H   0  0  0  0  0  0  0  0  0  0  0  0
   37.7420   24.2910   31.9690 O   0  0  0  0  0  0  0  0  0  0  0  0
   36.8630   27.3880   33.6160 C   0  0  0  0  0  0  0  0  0  0  0  0
   37.2100   27.0720   34.9340 C   0  0  0  0  0  0  0  0  0  0  0  0
   37.7340   25.8030   35.2000 C   0  0  0  0  0  0  0  0  0  0  0  0
   37.8720   24.9450   34.1340 N   0  0  0  0  0  0  0  0  0  0  0  0
   37.5250   25.2860   32.8800 C   0  0  0  0  0  0  0  0  0  0  0  0
   37.0210   26.5150   32.6350 N   0  0  0  0  0  0  0  0  0  0  0  0
   36.4640   28.3840   33.4700 H   0  0  0  0  0  0  0  0  0  0  0  0
   37.1040   27.7450   35.7760 H   0  0  0  0  0  0  0  0  0  0  0  0
   38.1360   25.3550   36.5430 C   0  0  0  0  0  3  0  0  0  0  0  0
   37.7430   24.1930   37.0420 C   0  0  0  0  0  3  0  0  0  0  0  0
   38.2160   23.8500   38.4150 C   0  0  0  0  0  2  0  0  0  0  0  0
   38.1890   24.7640   39.0330 H   0  0  0  0  0  0  0  0  0  0  0  0
  1  4  1  0  0  0  0
  1 16  1  0  0  0  0
  2  1  1  0  0  0  0
  3  1  1  0  0  0  0
  4  5  1  0  0  0  0
  6  4  1  0  0  0  0
  7  4  1  0  0  0  0
  7  8  1  0  0  0  0
  8 13  1  0  0  0  0
  9  8  2  0  0  0  0
  9 14  1  0  0  0  0
 10  9  1  0  0  0  0
 11 12  1  0  0  0  0
 11 10  2  0  0  0  0
 12  7  2  0  0  0  0
 15 11  1  0  0  0  0
 16 21  1  0  0  0  0
 17 18  1  0  0  0  0
 18 19  2  0  0  0  0
 18 24  1  0  0  0  0
 19 25  1  0  0  0  0
 20 19  1  0  0  0  0
 21 20  2  0  0  0  0
 22 21  1  0  0  0  0
 22 17  2  0  0  0  0
 23 17  1  0  0  0  0
 25 26  2  0  0  0  0
 26 27  1  0  0  0  0
 27 28  1  0  0  0  0
M  END
>  <minimizedAffinity>
-4.65566969

$$$$

 OpenBabel03272509513D

 28 29  0  0  0  0  0  0  0  0999 V2000
   38.0080   26.8870   35.2560 C   0  0  0  0  0  0  0  0  0  0  0  0
   37.8730   27.0350   36.3340 H   0  0  0  0  0  0  0  0  0  0  0  0
   38.5940   27.7650   34.8760 H   0  0  0  0  0  0  0  0  0  0  0  0
   38.7790   25.6500   34.9210 C   0  0  0  0  0  0  0  0  0  0  0  0
   38.2780   25.0920   34.0830 H   0  0  0  0  0  0  0  0  0  0  0  0
   39.8050   25.8900   34.5520 H   0  0  0  0  0  0  0  0  0  0  0  0
   38.8840   24.7060   36.0640 C   0  0  0  0  0  0  0  0  0  0  0  0
   38.0170   24.8950   37.1110 C   0  0  0  0  0  0  0  0  0  0  0  0
   38.0120   24.0880   38.2290 C   0  0  0  0  0  0  0  0  0  0  0  0
   38.8810   23.0860   38.2980 N   0  0  0  0  0  0  0  0  0  0  0  0
   39.7440   22.8940   37.2600 C   0  0  0  0  0  0  0  0  0  0  0  0
   39.7530   23.6780   36.1650 N   0  0  0  0  0  0  0  0  0  0  0  0
   37.2880   25.7010   37.1010 H   0  0  0  0  0  0  0  0  0  0  0  0
   37.3230   24.2550   39.0380 H   0  0  0  0  0  0  0  0  0  0  0  0
   40.4820   22.0970   37.2450 H   0  0  0  0  0  0  0  0  0  0  0  0
   36.7750   26.9200   34.5460 O   0  0  0  0  0  0  0  0  0  0  0  0
   36.3210   29.3740   31.9290 C   0  0  0  0  0  0  0  0  0  0  0  0
   35.7810   30.4290   32.6730 C   0  0  0  0  0  0  0  0  0  0  0  0
   35.5970   30.2510   34.0480 C   0  0  0  0  0  0  0  0  0  0  0  0
   35.9640   29.0350   34.5770 N   0  0  0  0  0  0  0  0  0  0  0  0
   36.4780   28.0440   33.8270 C   0  0  0  0  0  0  0  0  0  0  0  0
   36.6520   28.2280   32.5010 N   0  0  0  0  0  0  0  0  0  0  0  0
   36.4410   29.5700   30.8710 H   0  0  0  0  0  0  0  0  0  0  0  0
   35.4920   31.3880   32.2600 H   0  0  0  0  0  0  0  0  0  0  0  0
   35.0400   31.2850   34.9340 C   0  0  0  0  0  3  0  0  0  0  0  0
   35.5550   31.5380   36.1270 C   0  0  0  0  0  3  0  0  0  0  0  0
   34.9020   32.6100   36.9340 C   0  0  0  0  0  2  0  0  0  0  0  0
   33.8090   32.5340   36.7990 H   0  0  0  0  0  0  0  0  0  0  0  0
  1  2  1  0  0  0  0
  3  1  1  0  0  0  0
  4  1  1  0  0  0  0
  4  7  1  0  0  0  0
  5  4  1  0  0  0  0
  6  4  1  0  0  0  0
  7 12  2  0  0  0  0
  7  8  1  0  0  0  0
  8  9  2  0  0  0  0
  9 10  1  0  0  0  0
  9 14  1  0  0  0  0
 11 10  2  0  0  0  0
 12 11  1  0  0  0  0
 13  8  1  0  0  0  0
 15 11  1  0  0  0  0
 16  1  1  0  0  0  0
 17 22  2  0  0  0  0
 17 18  1  0  0  0  0
 18 19  2  0  0  0  0
 19 20  1  0  0  0  0
 19 25  1  0  0  0  0
 21 16  1  0  0  0  0
 21 20  2  0  0  0  0
 22 21  1  0  0  0  0
 23 17  1  0  0  0  0
 24 18  1  0  0  0  0
 25 26  2  0  0  0  0
 26 27  1  0  0  0  0
 28 27  1  0  0  0  0
M  END
>  <minimizedAffinity>
-4.6468935

$$$$

 OpenBabel03272509513D

 28 29  0  0  0  0  0  0  0  0999 V2000
   37.5760   26.3380   34.8160 C   0  0  0  0  0  0  0  0  0  0  0  0
   37.5200   27.2040   35.4860 H   0  0  0  0  0  0  0  0  0  0  0  0
   36.6740   25.7030   35.0290 H   0  0  0  0  0  0  0  0  0  0  0  0
   37.5360   26.7070   33.3670 C   0  0  0  0  0  0  0  0  0  0  0  0
   36.9910   27.6800   33.2260 H   0  0  0  0  0  0  0  0  0  0  0  0
   38.5600   26.8720   32.9540 H   0  0  0  0  0  0  0  0  0  0  0  0
   36.8340   25.6970   32.5330 C   0  0  0  0  0  0  0  0  0  0  0  0
   35.8470   26.1540   31.6970 C   0  0  0  0  0  0  0  0  0  0  0  0
   35.1230   25.3190   30.8720 C   0  0  0  0  0  0  0  0  0  0  0  0
   35.3900   24.0180   30.8870 N   0  0  0  0  0  0  0  0  0  0  0  0
   36.3690   23.5590   31.7160 C   0  0  0  0  0  0  0  0  0  0  0  0
   37.0810   24.3690   32.5230 N   0  0  0  0  0  0  0  0  0  0  0  0
   35.5930   27.2100   31.6490 H   0  0  0  0  0  0  0  0  0  0  0  0
   34.3530   25.7000   30.2250 H   0  0  0  0  0  0  0  0  0  0  0  0
   36.6430   22.5090   31.7830 H   0  0  0  0  0  0  0  0  0  0  0  0
   38.6970   25.5070   35.0940 O   0  0  0  0  0  0  0  0  0  0  0  0
   38.0050   24.2240   38.4040 C   0  0  0  0  0  0  0  0  0  0  0  0
   38.9170   23.1640   38.4520 C   0  0  0  0  0  0  0  0  0  0  0  0
   39.7350   22.9370   37.3410 C   0  0  0  0  0  0  0  0  0  0  0  0
   39.5820   23.7810   36.2650 N   0  0  0  0  0  0  0  0  0  0  0  0
   38.6910   24.7880   36.2570 C   0  0  0  0  0  0  0  0  0  0  0  0
   37.9070   24.9990   37.3370 N   0  0  0  0  0  0  0  0  0  0  0  0
   37.3990   24.3520   39.2920 H   0  0  0  0  0  0  0  0  0  0  0  0
   39.0410   22.4980   39.2960 H   0  0  0  0  0  0  0  0  0  0  0  0
   40.7310   21.8560   37.2730 C   0  0  0  0  0  3  0  0  0  0  0  0
   41.9550   22.0590   36.8100 C   0  0  0  0  0  3  0  0  0  0  0  0
   42.8760   20.8840   36.7900 C   0  0  0  0  0  2  0  0  0  0  0  0
   42.3000   19.9930   36.4850 H   0  0  0  0  0  0  0  0  0  0  0  0
  1  3  1  0  0  0  0
  1 16  1  0  0  0  0
  1  2  1  0  0  0  0
  4  1  1  0  0  0  0
  5  4  1  0  0  0  0
  6  4  1  0  0  0  0
  7  4  1  0  0  0  0
  8  7  2  0  0  0  0
  9 10  2  0  0  0  0
  9  8  1  0  0  0  0
 10 11  1  0  0  0  0
 11 15  1  0  0  0  0
 11 12  2  0  0  0  0
 12  7  1  0  0  0  0
 13  8  1  0  0  0  0
 14  9  1  0  0  0  0
 16 21  1  0  0  0  0
 17 18  1  0  0  0  0
 17 23  1  0  0  0  0
 18 24  1  0  0  0  0
 19 18  2  0  0  0  0
 20 19  1  0  0  0  0
 21 20  2  0  0  0  0
 21 22  1  0  0  0  0
 22 17  2  0  0  0  0
 25 19  1  0  0  0  0
 26 25  2  0  0  0  0
 27 26  1  0  0  0  0
 28 27  1  0  0  0  0
M  END
>  <minimizedAffinity>
-4.62483358

$$$$

 OpenBabel03272509513D

 28 29  0  0  0  0  0  0  0  0999 V2000
   37.7730   24.4750   33.6390 C   0  0  0  0  0  0  0  0  0  0  0  0
   37.4320   25.3450   33.0670 H   0  0  0  0  0  0  0  0  0  0  0  0
   36.9290   24.1820   34.3200 H   0  0  0  0  0  0  0  0  0  0  0  0
   38.0930   23.2910   32.7830 C   0  0  0  0  0  0  0  0  0  0  0  0
   38.2200   23.6070   31.7110 H   0  0  0  0  0  0  0  0  0  0  0  0
   39.0620   22.8200   33.0750 H   0  0  0  0  0  0  0  0  0  0  0  0
   37.0260   22.2580   32.8030 C   0  0  0  0  0  0  0  0  0  0  0  0
   36.2910   22.0960   31.6560 C   0  0  0  0  0  0  0  0  0  0  0  0
   35.2730   21.1710   31.5470 C   0  0  0  0  0  0  0  0  0  0  0  0
   34.9920   20.4040   32.5940 N   0  0  0  0  0  0  0  0  0  0  0  0
   35.7200   20.5600   33.7350 C   0  0  0  0  0  0  0  0  0  0  0  0
   36.7150   21.4610   33.8480 N   0  0  0  0  0  0  0  0  0  0  0  0
   36.4840   22.7000   30.7730 H   0  0  0  0  0  0  0  0  0  0  0  0
   34.7100   21.0630   30.6370 H   0  0  0  0  0  0  0  0  0  0  0  0
   35.5470   19.9700   34.6320 H   0  0  0  0  0  0  0  0  0  0  0  0
   38.8630   24.7840   34.5010 O   0  0  0  0  0  0  0  0  0  0  0  0
   37.9870   24.2380   37.9670 C   0  0  0  0  0  0  0  0  0  0  0  0
   38.9410   23.2730   38.3110 C   0  0  0  0  0  0  0  0  0  0  0  0
   39.8470   22.8510   37.3330 C   0  0  0  0  0  0  0  0  0  0  0  0
   39.7350   23.4220   36.0860 N   0  0  0  0  0  0  0  0  0  0  0  0
   38.8030   24.3460   35.7940 C   0  0  0  0  0  0  0  0  0  0  0  0
   37.9340   24.7470   36.7470 N   0  0  0  0  0  0  0  0  0  0  0  0
   37.3140   24.5250   38.7640 H   0  0  0  0  0  0  0  0  0  0  0  0
   39.0320   22.8220   39.2920 H   0  0  0  0  0  0  0  0  0  0  0  0
   40.8930   21.8450   37.5750 C   0  0  0  0  0  3  0  0  0  0  0  0
   41.7980   21.5400   36.6580 C   0  0  0  0  0  3  0  0  0  0  0  0
   42.8080   20.5020   37.0210 C   0  0  0  0  0  2  0  0  0  0  0  0
   42.3030   19.7080   37.5980 H   0  0  0  0  0  0  0  0  0  0  0  0
  1  3  1  0  0  0  0
  1 16  1  0  0  0  0
  2  1  1  0  0  0  0
  4  7  1  0  0  0  0
  4  6  1  0  0  0  0
  4  1  1  0  0  0  0
  5  4  1  0  0  0  0
  7 12  1  0  0  0  0
  8  7  2  0  0  0  0
  9  8  1  0  0  0  0
  9 10  2  0  0  0  0
 10 11  1  0  0  0  0
 11 12  2  0  0  0  0
 11 15  1  0  0  0  0
 13  8  1  0  0  0  0
 14  9  1  0  0  0  0
 16 21  1  0  0  0  0
 17 18  1  0  0  0  0
 17 23  1  0  0  0  0
 18 24  1  0  0  0  0
 19 25  1  0  0  0  0
 19 18  2  0  0  0  0
 20 19  1  0  0  0  0
 21 20  2  0  0  0  0
 21 22  1  0  0  0  0
 22 17  2  0  0  0  0
 26 27  1  0  0  0  0
 26 25  2  0  0  0  0
 27 28  1  0  0  0  0
M  END
>  <minimizedAffinity>
-4.58766842

$$$$

 OpenBabel03272509513D

 28 29  0  0  0  0  0  0  0  0999 V2000
   37.6600   25.5620   34.0850 C   0  0  0  0  0  0  0  0  0  0  0  0
   36.7490   25.2950   34.6330 H   0  0  0  0  0  0  0  0  0  0  0  0
   37.5360   25.1780   33.0380 H   0  0  0  0  0  0  0  0  0  0  0  0
   37.8880   27.0380   34.0000 C   0  0  0  0  0  0  0  0  0  0  0  0
   37.3430   27.5670   34.8300 H   0  0  0  0  0  0  0  0  0  0  0  0
   38.9650   27.2990   34.1320 H   0  0  0  0  0  0  0  0  0  0  0  0
   37.4000   27.6250   32.7240 C   0  0  0  0  0  0  0  0  0  0  0  0
   38.0790   27.2840   31.5810 C   0  0  0  0  0  0  0  0  0  0  0  0
   37.7250   27.7610   30.3360 C   0  0  0  0  0  0  0  0  0  0  0  0
   36.6870   28.5830   30.2360 N   0  0  0  0  0  0  0  0  0  0  0  0
   36.0100   28.9230   31.3690 C   0  0  0  0  0  0  0  0  0  0  0  0
   36.3490   28.4610   32.5880 N   0  0  0  0  0  0  0  0  0  0  0  0
   38.9340   26.6150   31.6100 H   0  0  0  0  0  0  0  0  0  0  0  0
   38.2720   27.4800   29.4530 H   0  0  0  0  0  0  0  0  0  0  0  0
   35.1520   29.5900   31.3670 H   0  0  0  0  0  0  0  0  0  0  0  0
   38.8140   24.9030   34.5950 O   0  0  0  0  0  0  0  0  0  0  0  0
   37.9600   24.2280   38.0450 C   0  0  0  0  0  0  0  0  0  0  0  0
   38.9260   23.2620   38.3510 C   0  0  0  0  0  0  0  0  0  0  0  0
   39.8320   22.8850   37.3560 C   0  0  0  0  0  0  0  0  0  0  0  0
   39.7080   23.4960   36.1300 N   0  0  0  0  0  0  0  0  0  0  0  0
   38.7650   24.4200   35.8740 C   0  0  0  0  0  0  0  0  0  0  0  0
   37.8950   24.7780   36.8430 N   0  0  0  0  0  0  0  0  0  0  0  0
   37.2870   24.4800   38.8540 H   0  0  0  0  0  0  0  0  0  0  0  0
   39.0260   22.7790   39.3150 H   0  0  0  0  0  0  0  0  0  0  0  0
   40.8900   21.8830   37.5590 C   0  0  0  0  0  3  0  0  0  0  0  0
   41.7700   21.5900   36.6130 C   0  0  0  0  0  3  0  0  0  0  0  0
   42.7960   20.5560   36.9380 C   0  0  0  0  0  2  0  0  0  0  0  0
   42.3120   19.7540   37.5220 H   0  0  0  0  0  0  0  0  0  0  0  0
  1 16  1  0  0  0  0
  1  2  1  0  0  0  0
  3  1  1  0  0  0  0
  4  1  1  0  0  0  0
  4  6  1  0  0  0  0
  4  5  1  0  0  0  0
  7  4  1  0  0  0  0
  8 13  1  0  0  0  0
  8  7  2  0  0  0  0
  9  8  1  0  0  0  0
 10  9  2  0  0  0  0
 10 11  1  0  0  0  0
 11 12  2  0  0  0  0
 12  7  1  0  0  0  0
 14  9  1  0  0  0  0
 15 11  1  0  0  0  0
 16 21  1  0  0  0  0
 17 18  1  0  0  0  0
 17 23  1  0  0  0  0
 18 24  1  0  0  0  0
 19 25  1  0  0  0  0
 19 18  2  0  0  0  0
 20 19  1  0  0  0  0
 21 20  2  0  0  0  0
 21 22  1  0  0  0  0
 22 17  2  0  0  0  0
 26 27  1  0  0  0  0
 26 25  2  0  0  0  0
 27 28  1  0  0  0  0
M  END
>  <minimizedAffinity>
-4.52934742

$$$$

 OpenBabel03272509513D

 28 29  0  0  0  0  0  0  0  0999 V2000
   38.4080   27.5060   35.2210 C   0  0  0  0  0  0  0  0  0  0  0  0
   39.1010   28.3500   35.2990 H   0  0  0  0  0  0  0  0  0  0  0  0
   38.7930   26.8420   34.4020 H   0  0  0  0  0  0  0  0  0  0  0  0
   38.3310   26.6840   36.4690 C   0  0  0  0  0  0  0  0  0  0  0  0
   39.2260   26.8810   37.1210 H   0  0  0  0  0  0  0  0  0  0  0  0
   37.4420   26.9520   37.0870 H   0  0  0  0  0  0  0  0  0  0  0  0
   38.3110   25.2230   36.1980 C   0  0  0  0  0  0  0  0  0  0  0  0
   37.7240   24.4200   37.1430 C   0  0  0  0  0  0  0  0  0  0  0  0
   37.6410   23.0500   37.0100 C   0  0  0  0  0  0  0  0  0  0  0  0
   38.1490   22.4820   35.9220 N   0  0  0  0  0  0  0  0  0  0  0  0
   38.7330   23.2750   34.9800 C   0  0  0  0  0  0  0  0  0  0  0  0
   38.8170   24.6130   35.1040 N   0  0  0  0  0  0  0  0  0  0  0  0
   37.2930   24.8390   38.0490 H   0  0  0  0  0  0  0  0  0  0  0  0
   37.1750   22.4410   37.7640 H   0  0  0  0  0  0  0  0  0  0  0  0
   39.1710   22.8820   34.0660 H   0  0  0  0  0  0  0  0  0  0  0  0
   37.1080   27.9070   34.8020 O   0  0  0  0  0  0  0  0  0  0  0  0
   36.0780   28.2960   31.3570 C   0  0  0  0  0  0  0  0  0  0  0  0
   36.1230   26.9620   30.9360 C   0  0  0  0  0  0  0  0  0  0  0  0
   36.5060   25.9840   31.8580 C   0  0  0  0  0  0  0  0  0  0  0  0
   36.8160   26.4070   33.1300 N   0  0  0  0  0  0  0  0  0  0  0  0
   36.7620   27.7000   33.4960 C   0  0  0  0  0  0  0  0  0  0  0  0
   36.3890   28.6360   32.5970 N   0  0  0  0  0  0  0  0  0  0  0  0
   35.7740   29.0090   30.6010 H   0  0  0  0  0  0  0  0  0  0  0  0
   35.8800   26.6250   29.9360 H   0  0  0  0  0  0  0  0  0  0  0  0
   36.5910   24.5510   31.5340 C   0  0  0  0  0  3  0  0  0  0  0  0
   35.5180   23.7760   31.4950 C   0  0  0  0  0  3  0  0  0  0  0  0
   35.7330   22.3380   31.1540 C   0  0  0  0  0  2  0  0  0  0  0  0
   36.6560   21.9940   31.6510 H   0  0  0  0  0  0  0  0  0  0  0  0
  1  2  1  0  0  0  0
  1  4  1  0  0  0  0
  3  1  1  0  0  0  0
  4  6  1  0  0  0  0
  4  5  1  0  0  0  0
  7  4  1  0  0  0  0
  7  8  1  0  0  0  0
  8 13  1  0  0  0  0
  9  8  2  0  0  0  0
  9 14  1  0  0  0  0
 10  9  1  0  0  0  0
 11 12  1  0  0  0  0
 11 10  2  0  0  0  0
 12  7  2  0  0  0  0
 15 11  1  0  0  0  0
 16  1  1  0  0  0  0
 17 22  1  0  0  0  0
 18 17  2  0  0  0  0
 18 19  1  0  0  0  0
 19 20  2  0  0  0  0
 20 21  1  0  0  0  0
 21 16  1  0  0  0  0
 22 21  2  0  0  0  0
 23 17  1  0  0  0  0
 24 18  1  0  0  0  0
 25 19  1  0  0  0  0
 26 25  2  0  0  0  0
 27 26  1  0  0  0  0
 27 28  1  0  0  0  0
M  END
>  <minimizedAffinity>
-4.44704914

$$$$

 OpenBabel03272509513D

 28 29  0  0  0  0  0  0  0  0999 V2000
   37.7850   24.1600   36.8040 C   0  0  0  0  0  0  0  0  0  0  0  0
   37.6550   23.7050   35.8160 H   0  0  0  0  0  0  0  0  0  0  0  0
   36.7890   24.1100   37.3200 H   0  0  0  0  0  0  0  0  0  0  0  0
   38.7750   23.4390   37.6630 C   0  0  0  0  0  0  0  0  0  0  0  0
   39.2920   24.1600   38.3540 H   0  0  0  0  0  0  0  0  0  0  0  0
   38.2790   22.6890   38.3250 H   0  0  0  0  0  0  0  0  0  0  0  0
   39.8370   22.7620   36.8750 C   0  0  0  0  0  0  0  0  0  0  0  0
   40.7850   22.0610   37.5780 C   0  0  0  0  0  0  0  0  0  0  0  0
   41.8220   21.3900   36.9640 C   0  0  0  0  0  0  0  0  0  0  0  0
   41.9090   21.4210   35.6390 N   0  0  0  0  0  0  0  0  0  0  0  0
   40.9700   22.1160   34.9370 C   0  0  0  0  0  0  0  0  0  0  0  0
   39.9550   22.7730   35.5300 N   0  0  0  0  0  0  0  0  0  0  0  0
   40.7570   22.0050   38.6630 H   0  0  0  0  0  0  0  0  0  0  0  0
   42.5540   20.8460   37.5360 H   0  0  0  0  0  0  0  0  0  0  0  0
   40.9760   22.1870   33.8530 H   0  0  0  0  0  0  0  0  0  0  0  0
   38.1010   25.5460   36.7270 O   0  0  0  0  0  0  0  0  0  0  0  0
   39.9340   27.0430   33.9920 C   0  0  0  0  0  0  0  0  0  0  0  0
   38.9660   26.9770   32.9840 C   0  0  0  0  0  0  0  0  0  0  0  0
   37.7210   26.4210   33.2890 C   0  0  0  0  0  0  0  0  0  0  0  0
   37.5330   25.9700   34.5750 N   0  0  0  0  0  0  0  0  0  0  0  0
   38.4900   26.0490   35.5170 C   0  0  0  0  0  0  0  0  0  0  0  0
   39.6890   26.5900   35.2110 N   0  0  0  0  0  0  0  0  0  0  0  0
   40.8780   27.4840   33.6980 H   0  0  0  0  0  0  0  0  0  0  0  0
   39.1110   27.3310   31.9700 H   0  0  0  0  0  0  0  0  0  0  0  0
   36.6250   26.2980   32.3140 C   0  0  0  0  0  3  0  0  0  0  0  0
   36.2120   25.1220   31.8670 C   0  0  0  0  0  3  0  0  0  0  0  0
   35.0920   25.1280   30.8800 C   0  0  0  0  0  2  0  0  0  0  0  0
   35.2420   25.9710   30.1850 H   0  0  0  0  0  0  0  0  0  0  0  0
  1  3  1  0  0  0  0
  1  4  1  0  0  0  0
  2  1  1  0  0  0  0
  4  6  1  0  0  0  0
  4  5  1  0  0  0  0
  7  8  1  0  0  0  0
  7  4  1  0  0  0  0
  8 13  1  0  0  0  0
  9 14  1  0  0  0  0
  9  8  2  0  0  0  0
 10  9  1  0  0  0  0
 11 12  1  0  0  0  0
 11 10  2  0  0  0  0
 12  7  2  0  0  0  0
 15 11  1  0  0  0  0
 16  1  1  0  0  0  0
 17 22  1  0  0  0  0
 18 19  1  0  0  0  0
 18 17  2  0  0  0  0
 19 20  2  0  0  0  0
 20 21  1  0  0  0  0
 21 16  1  0  0  0  0
 22 21  2  0  0  0  0
 23 17  1  0  0  0  0
 24 18  1  0  0  0  0
 25 19  1  0  0  0  0
 26 25  2  0  0  0  0
 27 26  1  0  0  0  0
 28 27  1  0  0  0  0
M  END
>  <minimizedAffinity>
-4.40527105

$$$$
