
 OpenBabel03272508413D

 37 39  0  0  1  0  0  0  0  0999 V2000
   40.0970   30.8800   44.5360 N   0  0  0  0  0  0  0  0  0  0  0  0
   39.2800   30.6860   45.7290 C   0  0  0  0  0  0  0  0  0  0  0  0
   38.3970   31.8080   46.0480 C   0  0  2  0  0  0  0  0  0  0  0  0
   39.0930   33.1170   45.9220 N   0  0  0  0  0  0  0  0  0  0  0  0
   39.6550   33.1800   44.5600 C   0  0  0  0  0  0  0  0  0  0  0  0
   40.7500   32.1390   44.5910 C   0  0  0  0  0  0  0  0  0  0  0  0
   38.7820   29.7280   45.6350 H   0  0  0  0  0  0  0  0  0  0  0  0
   40.1040   30.6850   46.5210 H   0  0  0  0  0  0  0  0  0  0  0  0
   37.5640   31.9840   45.3450 H   0  0  0  0  0  0  0  0  0  0  0  0
   39.8660   33.1410   46.6030 H   0  0  0  0  0  0  0  0  0  0  0  0
   38.8900   32.9740   43.8110 H   0  0  0  0  0  0  0  0  0  0  0  0
   40.1400   34.1660   44.4800 H   0  0  0  0  0  0  0  0  0  0  0  0
   41.3240   32.2870   45.5280 H   0  0  0  0  0  0  0  0  0  0  0  0
   41.4550   32.3030   43.7550 H   0  0  0  0  0  0  0  0  0  0  0  0
   35.8170   30.3520   46.3100 Cl  0  0  0  0  0  0  0  0  0  0  0  0
   36.7250   31.0070   47.6740 C   0  0  0  0  0  0  0  0  0  0  0  0
   37.8830   31.6810   47.3990 C   0  0  0  0  0  0  0  0  0  0  0  0
   38.7060   32.2520   48.3800 C   0  0  0  0  0  0  0  0  0  0  0  0
   38.2720   32.1010   49.7030 C   0  0  0  0  0  0  0  0  0  0  0  0
   37.0840   31.4150   49.9900 C   0  0  0  0  0  0  0  0  0  0  0  0
   36.3280   30.8760   48.9700 C   0  0  0  0  0  0  0  0  0  0  0  0
   39.6180   32.7950   48.4450 H   0  0  0  0  0  0  0  0  0  0  0  0
   38.7320   32.4520   50.6150 H   0  0  0  0  0  0  0  0  0  0  0  0
   36.6870   31.2600   50.9810 H   0  0  0  0  0  0  0  0  0  0  0  0
   35.0920   30.1580   49.2360 C   0  0  0  0  0  3  0  0  0  0  0  0
   34.9480   28.8750   48.9880 C   0  0  0  0  0  3  0  0  0  0  0  0
   33.7130   28.0950   49.2400 C   0  0  0  0  0  2  0  0  0  0  0  0
   33.1900   27.7770   48.3190 H   0  0  0  0  0  0  0  0  0  0  0  0
   40.1950   29.9060   43.5090 C   0  0  0  0  0  0  0  0  0  0  0  0
   41.1720   29.9770   42.5110 C   0  0  0  0  0  0  0  0  0  0  0  0
   41.2030   28.9810   41.5390 C   0  0  0  0  0  0  0  0  0  0  0  0
   40.2560   27.9690   41.6160 N   0  0  0  0  0  0  0  0  0  0  0  0
   39.3360   27.9490   42.6000 C   0  0  0  0  0  0  0  0  0  0  0  0
   39.2930   28.8880   43.5310 N   0  0  0  0  0  0  0  0  0  0  0  0
   41.8780   30.7880   42.5050 H   0  0  0  0  0  0  0  0  0  0  0  0
   41.9330   28.9830   40.7470 H   0  0  0  0  0  0  0  0  0  0  0  0
   38.6030   27.1590   42.6540 H   0  0  0  0  0  0  0  0  0  0  0  0
  1  6  1  0  0  0  0
  1  2  1  0  0  0  0
  2  3  1  0  0  0  0
  2  8  1  0  0  0  0
  3  9  1  6  0  0  0
  3 17  1  0  0  0  0
  4  3  1  0  0  0  0
  4 10  1  0  0  0  0
  5  6  1  0  0  0  0
  5  4  1  0  0  0  0
  6 13  1  0  0  0  0
  7  2  1  0  0  0  0
 11  5  1  0  0  0  0
 12  5  1  0  0  0  0
 14  6  1  0  0  0  0
 15 16  1  0  0  0  0
 16 21  1  0  0  0  0
 17 16  2  0  0  0  0
 17 18  1  0  0  0  0
 18 22  1  0  0  0  0
 18 19  2  0  0  0  0
 19 20  1  0  0  0  0
 19 23  1  0  0  0  0
 20 24  1  0  0  0  0
 21 25  1  0  0  0  0
 21 20  2  0  0  0  0
 26 25  2  0  0  0  0
 26 27  1  0  0  0  0
 28 27  1  0  0  0  0
 29 34  1  0  0  0  0
 29  1  1  0  0  0  0
 30 29  2  0  0  0  0
 31 32  2  0  0  0  0
 31 30  1  0  0  0  0
 32 33  1  0  0  0  0
 33 37  1  0  0  0  0
 33 34  2  0  0  0  0
 35 30  1  0  0  0  0
 36 31  1  0  0  0  0
M  END
>  <minimizedAffinity>
-6.8987608

>  <minimizedRMSD>
5.99948406

$$$$
