
 OpenBabel03272508403D

 37 39  0  0  1  0  0  0  0  0999 V2000
   33.5040   31.2930   43.6610 N   0  0  0  0  0  0  0  0  0  0  0  0
   33.3720   30.6170   44.9480 C   0  0  0  0  0  0  0  0  0  0  0  0
   34.6420   30.2560   45.5770 C   0  0  2  0  0  0  0  0  0  0  0  0
   35.5940   29.6560   44.6040 N   0  0  0  0  0  0  0  0  0  0  0  0
   35.7390   30.6140   43.4920 C   0  0  0  0  0  0  0  0  0  0  0  0
   34.3880   30.5680   42.8180 C   0  0  0  0  0  0  0  0  0  0  0  0
   32.7110   31.2130   45.5670 H   0  0  0  0  0  0  0  0  0  0  0  0
   32.8930   29.6400   44.5970 H   0  0  0  0  0  0  0  0  0  0  0  0
   35.2620   31.0980   45.9330 H   0  0  0  0  0  0  0  0  0  0  0  0
   35.1810   28.7850   44.2410 H   0  0  0  0  0  0  0  0  0  0  0  0
   36.0000   31.6060   43.8620 H   0  0  0  0  0  0  0  0  0  0  0  0
   36.4680   30.1630   42.8000 H   0  0  0  0  0  0  0  0  0  0  0  0
   34.1050   29.5010   42.7120 H   0  0  0  0  0  0  0  0  0  0  0  0
   34.4560   30.9850   41.7970 H   0  0  0  0  0  0  0  0  0  0  0  0
   33.7200   27.5500   44.7560 Cl  0  0  0  0  0  0  0  0  0  0  0  0
   34.0320   28.0230   46.4270 C   0  0  0  0  0  0  0  0  0  0  0  0
   34.4230   29.3130   46.6580 C   0  0  0  0  0  0  0  0  0  0  0  0
   34.7060   29.8280   47.9310 C   0  0  0  0  0  0  0  0  0  0  0  0
   34.5610   28.9310   48.9970 C   0  0  0  0  0  0  0  0  0  0  0  0
   34.1570   27.6090   48.7660 C   0  0  0  0  0  0  0  0  0  0  0  0
   33.9000   27.1740   47.4830 C   0  0  0  0  0  0  0  0  0  0  0  0
   35.0210   30.7410   48.3750 H   0  0  0  0  0  0  0  0  0  0  0  0
   34.7200   29.0960   50.0520 H   0  0  0  0  0  0  0  0  0  0  0  0
   34.0240   26.8630   49.5340 H   0  0  0  0  0  0  0  0  0  0  0  0
   33.4800   25.8080   47.2120 C   0  0  0  0  0  3  0  0  0  0  0  0
   32.2250   25.4230   47.2820 C   0  0  0  0  0  3  0  0  0  0  0  0
   31.7410   24.0490   47.0160 C   0  0  0  0  0  2  0  0  0  0  0  0
   31.3860   23.5160   47.9190 H   0  0  0  0  0  0  0  0  0  0  0  0
   32.8120   32.4910   43.3510 C   0  0  0  0  0  0  0  0  0  0  0  0
   33.0530   33.2030   42.1720 C   0  0  0  0  0  0  0  0  0  0  0  0
   32.3300   34.3700   41.9410 C   0  0  0  0  0  0  0  0  0  0  0  0
   31.4070   34.7640   42.9010 N   0  0  0  0  0  0  0  0  0  0  0  0
   31.2150   34.0400   44.0200 C   0  0  0  0  0  0  0  0  0  0  0  0
   31.8930   32.9280   44.2550 N   0  0  0  0  0  0  0  0  0  0  0  0
   33.7820   32.8460   41.4670 H   0  0  0  0  0  0  0  0  0  0  0  0
   32.4730   34.9590   41.0500 H   0  0  0  0  0  0  0  0  0  0  0  0
   30.4960   34.3520   44.7620 H   0  0  0  0  0  0  0  0  0  0  0  0
  1  2  1  0  0  0  0
  2  7  1  0  0  0  0
  2  3  1  0  0  0  0
  3  9  1  1  0  0  0
  3 17  1  0  0  0  0
  4  3  1  0  0  0  0
  5 11  1  0  0  0  0
  5  4  1  0  0  0  0
  6  5  1  0  0  0  0
  6  1  1  0  0  0  0
  8  2  1  0  0  0  0
 10  4  1  0  0  0  0
 12  5  1  0  0  0  0
 13  6  1  0  0  0  0
 14  6  1  0  0  0  0
 15 16  1  0  0  0  0
 16 17  2  0  0  0  0
 16 21  1  0  0  0  0
 17 18  1  0  0  0  0
 18 22  1  0  0  0  0
 18 19  2  0  0  0  0
 19 23  1  0  0  0  0
 20 19  1  0  0  0  0
 20 24  1  0  0  0  0
 21 20  2  0  0  0  0
 25 26  2  0  0  0  0
 25 21  1  0  0  0  0
 27 26  1  0  0  0  0
 27 28  1  0  0  0  0
 29  1  1  0  0  0  0
 29 34  1  0  0  0  0
 30 29  2  0  0  0  0
 31 30  1  0  0  0  0
 31 32  2  0  0  0  0
 32 33  1  0  0  0  0
 33 34  2  0  0  0  0
 33 37  1  0  0  0  0
 35 30  1  0  0  0  0
 36 31  1  0  0  0  0
M  END
>  <minimizedAffinity>
-3.9706161

>  <minimizedRMSD>
5.58822441

$$$$
