
 OpenBabel03272509503D

 28 29  0  0  0  0  0  0  0  0999 V2000
   33.7770   28.6100   48.7610 C   0  0  0  0  0  0  0  0  0  0  0  0
   34.1890   29.1830   47.9220 H   0  0  0  0  0  0  0  0  0  0  0  0
   33.1600   29.3230   49.3710 H   0  0  0  0  0  0  0  0  0  0  0  0
   32.8820   27.4910   48.3310 C   0  0  0  0  0  0  0  0  0  0  0  0
   33.1700   27.1320   47.3050 H   0  0  0  0  0  0  0  0  0  0  0  0
   32.9800   26.6030   49.0000 H   0  0  0  0  0  0  0  0  0  0  0  0
   31.4520   27.8910   48.2610 C   0  0  0  0  0  0  0  0  0  0  0  0
   30.7010   27.7240   49.3980 C   0  0  0  0  0  0  0  0  0  0  0  0
   29.3640   28.0570   49.4610 C   0  0  0  0  0  0  0  0  0  0  0  0
   28.7770   28.5580   48.3810 N   0  0  0  0  0  0  0  0  0  0  0  0
   29.5200   28.7250   47.2500 C   0  0  0  0  0  0  0  0  0  0  0  0
   30.8260   28.4030   47.1810 N   0  0  0  0  0  0  0  0  0  0  0  0
   31.1360   27.3190   50.3070 H   0  0  0  0  0  0  0  0  0  0  0  0
   28.7950   27.9180   50.3630 H   0  0  0  0  0  0  0  0  0  0  0  0
   29.1090   29.1290   46.3280 H   0  0  0  0  0  0  0  0  0  0  0  0
   34.7880   28.1360   49.6440 O   0  0  0  0  0  0  0  0  0  0  0  0
   37.1960   30.1810   51.4040 C   0  0  0  0  0  0  0  0  0  0  0  0
   37.8820   30.7400   50.3200 C   0  0  0  0  0  0  0  0  0  0  0  0
   37.4840   30.3900   49.0260 C   0  0  0  0  0  0  0  0  0  0  0  0
   36.4340   29.5080   48.9090 N   0  0  0  0  0  0  0  0  0  0  0  0
   35.8020   28.9910   49.9770 C   0  0  0  0  0  0  0  0  0  0  0  0
   36.1940   29.3370   51.2220 N   0  0  0  0  0  0  0  0  0  0  0  0
   37.5480   30.4890   52.3810 H   0  0  0  0  0  0  0  0  0  0  0  0
   38.7080   31.4350   50.4080 H   0  0  0  0  0  0  0  0  0  0  0  0
   38.1260   30.9130   47.8100 C   0  0  0  0  0  3  0  0  0  0  0  0
   38.8000   32.0520   47.8060 C   0  0  0  0  0  3  0  0  0  0  0  0
   39.4060   32.4770   46.5100 C   0  0  0  0  0  2  0  0  0  0  0  0
   38.6970   32.2420   45.6980 H   0  0  0  0  0  0  0  0  0  0  0  0
  1  3  1  0  0  0  0
  1 16  1  0  0  0  0
  2  1  1  0  0  0  0
  4  1  1  0  0  0  0
  4  6  1  0  0  0  0
  5  4  1  0  0  0  0
  7  4  1  0  0  0  0
  7  8  1  0  0  0  0
  8  9  2  0  0  0  0
  8 13  1  0  0  0  0
  9 14  1  0  0  0  0
 10  9  1  0  0  0  0
 11 10  2  0  0  0  0
 12 11  1  0  0  0  0
 12  7  2  0  0  0  0
 15 11  1  0  0  0  0
 16 21  1  0  0  0  0
 17 23  1  0  0  0  0
 18 24  1  0  0  0  0
 18 17  2  0  0  0  0
 19 18  1  0  0  0  0
 20 19  2  0  0  0  0
 20 21  1  0  0  0  0
 21 22  2  0  0  0  0
 22 17  1  0  0  0  0
 25 19  1  0  0  0  0
 26 25  2  0  0  0  0
 27 26  1  0  0  0  0
 28 27  1  0  0  0  0
M  END
>  <minimizedAffinity>
-5.28605843

>  <minimizedRMSD>
0.384295613

$$$$
