
 OpenBabel03272509383D

 25 26  0  0  0  0  0  0  0  0999 V2000
   36.0440   29.5180   49.1140 C   0  0  0  0  0  0  0  0  0  0  0  0
   36.1610   29.4420   50.5070 C   0  0  0  0  0  0  0  0  0  0  0  0
   37.1630   30.1060   51.2030 C   0  0  0  0  0  0  0  0  0  0  0  0
   38.0940   30.8810   50.5160 C   0  0  0  0  0  0  0  0  0  0  0  0
   37.9660   30.9450   49.1500 C   0  0  0  0  0  0  0  0  0  0  0  0
   36.9690   30.2820   48.4780 C   0  0  0  0  0  0  0  0  0  0  0  0
   35.4350   28.8390   51.0390 H   0  0  0  0  0  0  0  0  0  0  0  0
   37.1480   29.9700   52.2710 H   0  0  0  0  0  0  0  0  0  0  0  0
   38.8320   31.3530   51.1490 H   0  0  0  0  0  0  0  0  0  0  0  0
   38.7530   31.5760   48.7650 H   0  0  0  0  0  0  0  0  0  0  0  0
   34.9640   28.7970   48.4720 C   0  0  0  0  0  0  0  0  0  0  0  0
   34.6290   27.7130   49.0740 O   0  0  0  0  0  0  0  0  0  0  0  0
   32.9410   30.8840   46.3000 C   0  0  0  0  0  0  0  0  0  0  0  0
   32.9590   30.2210   45.0800 C   0  0  0  0  0  0  0  0  0  0  0  0
   33.6690   29.0380   44.9970 C   0  0  0  0  0  0  0  0  0  0  0  0
   34.3180   28.5690   46.1000 N   0  0  0  0  0  0  0  0  0  0  0  0
   34.2860   29.2220   47.2530 C   0  0  0  0  0  0  0  0  0  0  0  0
   33.5950   30.3770   47.3430 N   0  0  0  0  0  0  0  0  0  0  0  0
   32.4030   31.8150   46.4290 H   0  0  0  0  0  0  0  0  0  0  0  0
   32.3980   30.7140   44.2970 H   0  0  0  0  0  0  0  0  0  0  0  0
   33.6670   28.5440   44.0430 H   0  0  0  0  0  0  0  0  0  0  0  0
   36.9810   30.4530   47.0430 C   0  0  0  0  0  3  0  0  0  0  0  0
   37.6060   31.3830   46.3500 C   0  0  0  0  0  3  0  0  0  0  0  0
   37.7280   31.7050   44.9240 C   0  0  0  0  0  2  0  0  0  0  0  0
   37.0650   32.5720   44.6450 H   0  0  0  0  0  0  0  0  0  0  0  0
  1  2  1  0  0  0  0
  2  7  1  0  0  0  0
  2  3  2  0  0  0  0
  3  8  1  0  0  0  0
  4  9  1  0  0  0  0
  4  3  1  0  0  0  0
  5  4  2  0  0  0  0
  6  1  2  0  0  0  0
  6  5  1  0  0  0  0
 10  5  1  0  0  0  0
 11 12  2  0  0  0  0
 11  1  1  0  0  0  0
 13 19  1  0  0  0  0
 13 18  1  0  0  0  0
 14 13  2  0  0  0  0
 15 14  1  0  0  0  0
 15 16  2  0  0  0  0
 16 17  1  0  0  0  0
 17 18  2  0  0  0  0
 17 11  1  0  0  0  0
 20 14  1  0  0  0  0
 21 15  1  0  0  0  0
 22  6  1  0  0  0  0
 23 22  2  0  0  0  0
 24 23  1  0  0  0  0
 25 24  1  0  0  0  0
M  END
>  <minimizedAffinity>
-5.13894081

>  <minimizedRMSD>
0.625277579

$$$$
