
 OpenBabel03272506543D

 39 41  0  0  1  0  0  0  0  0999 V2000
   38.9760   26.6190   32.6660 C   0  0  1  0  0  0  0  0  0  0  0  0
   40.1650   26.7710   33.4690 C   0  0  0  0  0  0  0  0  0  0  0  0
   40.2450   25.9220   34.7190 C   0  0  0  0  0  0  0  0  0  0  0  0
   39.7770   24.5460   34.6120 C   0  0  2  0  0  0  0  0  0  0  0  0
   38.5620   24.3130   33.7250 C   0  0  0  0  0  0  0  0  0  0  0  0
   38.6280   25.1650   32.4810 C   0  0  0  0  0  0  0  0  0  0  0  0
   39.2230   26.9540   31.6060 H   0  0  0  0  0  0  0  0  0  0  0  0
   41.0510   26.4160   32.8630 H   0  0  0  0  0  0  0  0  0  0  0  0
   40.4530   27.7810   33.7700 H   0  0  0  0  0  0  0  0  0  0  0  0
   39.4750   26.4540   35.3770 H   0  0  0  0  0  0  0  0  0  0  0  0
   41.2450   25.9860   35.1520 H   0  0  0  0  0  0  0  0  0  0  0  0
   40.5220   23.8230   34.2290 H   0  0  0  0  0  0  0  0  0  0  0  0
   38.6230   23.3280   33.2650 H   0  0  0  0  0  0  0  0  0  0  0  0
   37.6320   24.5520   34.2460 H   0  0  0  0  0  0  0  0  0  0  0  0
   37.6190   25.1310   32.0190 H   0  0  0  0  0  0  0  0  0  0  0  0
   39.3180   24.7420   31.6900 H   0  0  0  0  0  0  0  0  0  0  0  0
   39.3940   24.0950   35.9740 C   0  0  0  0  0  0  0  0  0  0  0  0
   38.3160   24.7130   36.5940 C   0  0  0  0  0  0  0  0  0  0  0  0
   37.9140   24.3620   37.8680 C   0  0  0  0  0  0  0  0  0  0  0  0
   38.5980   23.3840   38.5220 C   0  0  0  0  0  0  0  0  0  0  0  0
   39.6740   22.7620   37.9200 C   0  0  0  0  0  0  0  0  0  0  0  0
   40.0670   23.1310   36.6380 C   0  0  0  0  0  0  0  0  0  0  0  0
   37.6770   25.5100   36.2480 H   0  0  0  0  0  0  0  0  0  0  0  0
   37.0790   24.8110   38.4030 H   0  0  0  0  0  0  0  0  0  0  0  0
   38.2830   23.0950   39.5400 H   0  0  0  0  0  0  0  0  0  0  0  0
   40.1290   22.0140   38.5520 H   0  0  0  0  0  0  0  0  0  0  0  0
   41.2890   22.5370   36.2300 C   0  0  0  0  0  3  0  0  0  0  0  0
   42.5560   22.8670   36.1200 C   0  0  0  0  0  3  0  0  0  0  0  0
   43.2700   24.1340   36.4200 C   0  0  0  0  0  2  0  0  0  0  0  0
   43.1580   24.9070   35.6490 H   0  0  0  0  0  0  0  0  0  0  0  0
   37.2840   27.5450   34.2510 C   0  0  0  0  0  0  0  0  0  0  0  0
   37.8020   27.4470   32.9720 C   0  0  0  0  0  0  0  0  0  0  0  0
   37.1630   28.1790   31.9630 C   0  0  0  0  0  0  0  0  0  0  0  0
   36.0800   28.9390   32.2840 N   0  0  0  0  0  0  0  0  0  0  0  0
   35.6090   29.0030   33.5540 C   0  0  0  0  0  0  0  0  0  0  0  0
   36.2210   28.2960   34.5450 N   0  0  0  0  0  0  0  0  0  0  0  0
   37.6440   27.0790   35.1490 H   0  0  0  0  0  0  0  0  0  0  0  0
   37.5280   28.1370   30.9500 H   0  0  0  0  0  0  0  0  0  0  0  0
   34.7480   29.6340   33.6990 H   0  0  0  0  0  0  0  0  0  0  0  0
  1  7  1  6  0  0  0
  1 32  1  0  0  0  0
  1  2  1  0  0  0  0
  2  9  1  0  0  0  0
  2  3  1  0  0  0  0
  3 11  1  0  0  0  0
  3 10  1  0  0  0  0
  4 12  1  6  0  0  0
  4  3  1  0  0  0  0
  4 17  1  0  0  0  0
  5 14  1  0  0  0  0
  5  4  1  0  0  0  0
  6  1  1  0  0  0  0
  6  5  1  0  0  0  0
  8  2  1  0  0  0  0
 13  5  1  0  0  0  0
 15  6  1  0  0  0  0
 16  6  1  0  0  0  0
 17 18  2  0  0  0  0
 17 22  1  0  0  0  0
 18 19  1  0  0  0  0
 19 24  1  0  0  0  0
 19 20  2  0  0  0  0
 20 25  1  0  0  0  0
 21 20  1  0  0  0  0
 21 26  1  0  0  0  0
 22 21  2  0  0  0  0
 23 18  1  0  0  0  0
 27 22  1  0  0  0  0
 28 27  2  0  0  0  0
 28 29  1  0  0  0  0
 30 29  1  0  0  0  0
 31 36  1  0  0  0  0
 31 37  1  0  0  0  0
 32 31  2  0  0  0  0
 33 34  2  0  0  0  0
 33 32  1  0  0  0  0
 34 35  1  0  0  0  0
 35 39  1  0  0  0  0
 35 36  2  0  0  0  0
 38 33  1  0  0  0  0
M  END
>  <minimizedAffinity>
-5.71275806

$$$$

 OpenBabel03272506543D

 39 41  0  0  1  0  0  0  0  0999 V2000
   37.4840   27.3240   32.2910 C   0  0  1  0  0  0  0  0  0  0  0  0
   37.1780   28.5710   31.6350 C   0  0  0  0  0  0  0  0  0  0  0  0
   36.0850   29.4090   32.2620 C   0  0  0  0  0  0  0  0  0  0  0  0
   36.0680   29.4870   33.7160 C   0  0  2  0  0  0  0  0  0  0  0  0
   36.4460   28.2170   34.4660 C   0  0  0  0  0  0  0  0  0  0  0  0
   37.5870   27.5050   33.7830 C   0  0  0  0  0  0  0  0  0  0  0  0
   38.5450   27.0250   32.0020 H   0  0  0  0  0  0  0  0  0  0  0  0
   38.0850   29.2420   31.7050 H   0  0  0  0  0  0  0  0  0  0  0  0
   36.9640   28.5470   30.5640 H   0  0  0  0  0  0  0  0  0  0  0  0
   35.1650   28.7900   31.9790 H   0  0  0  0  0  0  0  0  0  0  0  0
   36.0540   30.3950   31.7950 H   0  0  0  0  0  0  0  0  0  0  0  0
   36.7300   30.2560   34.1560 H   0  0  0  0  0  0  0  0  0  0  0  0
   36.9350   28.4720   35.4040 H   0  0  0  0  0  0  0  0  0  0  0  0
   35.6050   27.5220   34.5280 H   0  0  0  0  0  0  0  0  0  0  0  0
   37.6390   26.4890   34.2290 H   0  0  0  0  0  0  0  0  0  0  0  0
   38.5950   27.9660   34.0070 H   0  0  0  0  0  0  0  0  0  0  0  0
   34.6810   29.8210   34.1320 C   0  0  0  0  0  0  0  0  0  0  0  0
   33.6270   29.2900   33.3990 C   0  0  0  0  0  0  0  0  0  0  0  0
   32.3120   29.5730   33.7110 C   0  0  0  0  0  0  0  0  0  0  0  0
   32.0540   30.3930   34.7660 C   0  0  0  0  0  0  0  0  0  0  0  0
   33.0900   30.9320   35.5020 C   0  0  0  0  0  0  0  0  0  0  0  0
   34.4090   30.6390   35.1710 C   0  0  0  0  0  0  0  0  0  0  0  0
   33.6360   28.6500   32.5310 H   0  0  0  0  0  0  0  0  0  0  0  0
   31.4480   29.1870   33.1740 H   0  0  0  0  0  0  0  0  0  0  0  0
   31.0060   30.6230   35.0250 H   0  0  0  0  0  0  0  0  0  0  0  0
   32.7450   31.5700   36.3020 H   0  0  0  0  0  0  0  0  0  0  0  0
   35.3560   31.4050   35.8970 C   0  0  0  0  0  3  0  0  0  0  0  0
   36.1870   32.4000   35.6870 C   0  0  0  0  0  3  0  0  0  0  0  0
   36.4790   33.1940   34.4660 C   0  0  0  0  0  2  0  0  0  0  0  0
   37.1400   32.6900   33.7500 H   0  0  0  0  0  0  0  0  0  0  0  0
   35.6020   26.1790   31.1160 C   0  0  0  0  0  0  0  0  0  0  0  0
   36.7280   26.1210   31.9180 C   0  0  0  0  0  0  0  0  0  0  0  0
   37.1320   24.8570   32.3660 C   0  0  0  0  0  0  0  0  0  0  0  0
   36.4090   23.7630   31.9960 N   0  0  0  0  0  0  0  0  0  0  0  0
   35.3110   23.8720   31.2080 C   0  0  0  0  0  0  0  0  0  0  0  0
   34.9070   25.0960   30.7650 N   0  0  0  0  0  0  0  0  0  0  0  0
   35.1540   27.0450   30.6660 H   0  0  0  0  0  0  0  0  0  0  0  0
   38.0030   24.7570   32.9920 H   0  0  0  0  0  0  0  0  0  0  0  0
   34.8130   22.9450   30.9750 H   0  0  0  0  0  0  0  0  0  0  0  0
  1  7  1  6  0  0  0
  1  6  1  0  0  0  0
  2  8  1  0  0  0  0
  2  3  1  0  0  0  0
  2  1  1  0  0  0  0
  3  4  1  0  0  0  0
  4 17  1  0  0  0  0
  4 12  1  1  0  0  0
  4  5  1  0  0  0  0
  5 14  1  0  0  0  0
  5 13  1  0  0  0  0
  6 16  1  0  0  0  0
  6 15  1  0  0  0  0
  6  5  1  0  0  0  0
  9  2  1  0  0  0  0
 10  3  1  0  0  0  0
 11  3  1  0  0  0  0
 17 22  1  0  0  0  0
 18 19  1  0  0  0  0
 18 17  2  0  0  0  0
 19 20  2  0  0  0  0
 20 25  1  0  0  0  0
 20 21  1  0  0  0  0
 21 26  1  0  0  0  0
 22 21  2  0  0  0  0
 22 27  1  0  0  0  0
 23 18  1  0  0  0  0
 24 19  1  0  0  0  0
 28 27  2  0  0  0  0
 29 28  1  0  0  0  0
 30 29  1  0  0  0  0
 31 32  1  0  0  0  0
 32  1  1  0  0  0  0
 32 33  2  0  0  0  0
 33 38  1  0  0  0  0
 34 33  1  0  0  0  0
 35 34  2  0  0  0  0
 36 31  2  0  0  0  0
 36 35  1  0  0  0  0
 37 31  1  0  0  0  0
 39 35  1  0  0  0  0
M  END
>  <minimizedAffinity>
-5.61450195

$$$$

 OpenBabel03272506543D

 39 41  0  0  1  0  0  0  0  0999 V2000
   39.0150   25.8510   35.5170 C   0  0  1  0  0  0  0  0  0  0  0  0
   38.4770   27.0730   36.0640 C   0  0  0  0  0  0  0  0  0  0  0  0
   37.7060   27.9560   35.1070 C   0  0  0  0  0  0  0  0  0  0  0  0
   36.8160   27.2870   34.1670 C   0  0  2  0  0  0  0  0  0  0  0  0
   37.3010   25.9590   33.6040 C   0  0  0  0  0  0  0  0  0  0  0  0
   37.9950   25.1420   34.6670 C   0  0  0  0  0  0  0  0  0  0  0  0
   39.1750   25.1220   36.3780 H   0  0  0  0  0  0  0  0  0  0  0  0
   37.7020   26.8040   36.8420 H   0  0  0  0  0  0  0  0  0  0  0  0
   39.1580   27.7350   36.6040 H   0  0  0  0  0  0  0  0  0  0  0  0
   38.5650   28.3670   34.4720 H   0  0  0  0  0  0  0  0  0  0  0  0
   37.2040   28.7540   35.6550 H   0  0  0  0  0  0  0  0  0  0  0  0
   35.8080   27.0520   34.5580 H   0  0  0  0  0  0  0  0  0  0  0  0
   36.4520   25.3060   33.4080 H   0  0  0  0  0  0  0  0  0  0  0  0
   38.0040   26.1040   32.7810 H   0  0  0  0  0  0  0  0  0  0  0  0
   38.5270   24.3220   34.1390 H   0  0  0  0  0  0  0  0  0  0  0  0
   37.2740   24.6130   35.3590 H   0  0  0  0  0  0  0  0  0  0  0  0
   36.6300   28.1920   33.0030 C   0  0  0  0  0  0  0  0  0  0  0  0
   37.4950   28.0650   31.9250 C   0  0  0  0  0  0  0  0  0  0  0  0
   37.3990   28.8840   30.8180 C   0  0  0  0  0  0  0  0  0  0  0  0
   36.4260   29.8350   30.7930 C   0  0  0  0  0  0  0  0  0  0  0  0
   35.5590   29.9760   31.8590 C   0  0  0  0  0  0  0  0  0  0  0  0
   35.6740   29.1450   32.9680 C   0  0  0  0  0  0  0  0  0  0  0  0
   38.3290   27.3960   31.7760 H   0  0  0  0  0  0  0  0  0  0  0  0
   38.0480   28.8320   29.9450 H   0  0  0  0  0  0  0  0  0  0  0  0
   36.3380   30.4940   29.9110 H   0  0  0  0  0  0  0  0  0  0  0  0
   34.8450   30.7730   31.7110 H   0  0  0  0  0  0  0  0  0  0  0  0
   34.8390   29.5280   34.0480 C   0  0  0  0  0  3  0  0  0  0  0  0
   34.8760   30.3370   35.0820 C   0  0  0  0  0  3  0  0  0  0  0  0
   35.9270   31.2690   35.5630 C   0  0  0  0  0  2  0  0  0  0  0  0
   36.7450   30.7820   36.1080 H   0  0  0  0  0  0  0  0  0  0  0  0
   40.8540   27.0090   34.2890 C   0  0  0  0  0  0  0  0  0  0  0  0
   40.3470   25.8760   34.9000 C   0  0  0  0  0  0  0  0  0  0  0  0
   41.1620   24.7360   34.9160 C   0  0  0  0  0  0  0  0  0  0  0  0
   42.3940   24.7970   34.3380 N   0  0  0  0  0  0  0  0  0  0  0  0
   42.8460   25.9320   33.7490 C   0  0  0  0  0  0  0  0  0  0  0  0
   42.0640   27.0480   33.7270 N   0  0  0  0  0  0  0  0  0  0  0  0
   40.3920   27.9730   34.1930 H   0  0  0  0  0  0  0  0  0  0  0  0
   40.8140   23.8290   35.3810 H   0  0  0  0  0  0  0  0  0  0  0  0
   43.8340   25.8720   33.3230 H   0  0  0  0  0  0  0  0  0  0  0  0
  1  2  1  0  0  0  0
  1  7  1  1  0  0  0
  2  9  1  0  0  0  0
  2  8  1  0  0  0  0
  3 11  1  0  0  0  0
  3  2  1  0  0  0  0
  4 12  1  1  0  0  0
  4  3  1  0  0  0  0
  5  4  1  0  0  0  0
  5  6  1  0  0  0  0
  6 16  1  0  0  0  0
  6  1  1  0  0  0  0
 10  3  1  0  0  0  0
 13  5  1  0  0  0  0
 14  5  1  0  0  0  0
 15  6  1  0  0  0  0
 17  4  1  0  0  0  0
 18 17  2  0  0  0  0
 19 18  1  0  0  0  0
 20 19  2  0  0  0  0
 20 21  1  0  0  0  0
 21 22  2  0  0  0  0
 22 17  1  0  0  0  0
 22 27  1  0  0  0  0
 23 18  1  0  0  0  0
 24 19  1  0  0  0  0
 25 20  1  0  0  0  0
 26 21  1  0  0  0  0
 27 28  2  0  0  0  0
 28 29  1  0  0  0  0
 29 30  1  0  0  0  0
 31 32  1  0  0  0  0
 32 33  2  0  0  0  0
 32  1  1  0  0  0  0
 33 38  1  0  0  0  0
 34 33  1  0  0  0  0
 35 34  2  0  0  0  0
 36 35  1  0  0  0  0
 36 31  2  0  0  0  0
 37 31  1  0  0  0  0
 39 35  1  0  0  0  0
M  END
>  <minimizedAffinity>
-5.53700113

$$$$

 OpenBabel03272506543D

 39 41  0  0  1  0  0  0  0  0999 V2000
   38.6950   23.1180   31.7450 C   0  0  1  0  0  0  0  0  0  0  0  0
   39.9120   23.6470   32.3110 C   0  0  0  0  0  0  0  0  0  0  0  0
   39.9920   23.6780   33.8220 C   0  0  0  0  0  0  0  0  0  0  0  0
   39.4640   22.5210   34.5320 C   0  0  2  0  0  0  0  0  0  0  0  0
   38.2160   21.8780   33.9450 C   0  0  0  0  0  0  0  0  0  0  0  0
   38.2810   21.8460   32.4380 C   0  0  0  0  0  0  0  0  0  0  0  0
   38.9250   22.7630   30.6870 H   0  0  0  0  0  0  0  0  0  0  0  0
   40.7650   22.9620   32.0240 H   0  0  0  0  0  0  0  0  0  0  0  0
   40.2500   24.6280   31.9700 H   0  0  0  0  0  0  0  0  0  0  0  0
   39.2650   24.5310   34.0480 H   0  0  0  0  0  0  0  0  0  0  0  0
   41.0060   23.9300   34.1380 H   0  0  0  0  0  0  0  0  0  0  0  0
   40.1670   21.6730   34.6410 H   0  0  0  0  0  0  0  0  0  0  0  0
   38.2210   20.8070   34.1430 H   0  0  0  0  0  0  0  0  0  0  0  0
   37.3120   22.4210   34.2300 H   0  0  0  0  0  0  0  0  0  0  0  0
   37.2590   21.6020   32.0810 H   0  0  0  0  0  0  0  0  0  0  0  0
   38.9290   21.0090   32.0400 H   0  0  0  0  0  0  0  0  0  0  0  0
   39.1020   22.9630   35.9040 C   0  0  0  0  0  0  0  0  0  0  0  0
   38.0240   23.8250   36.0550 C   0  0  0  0  0  0  0  0  0  0  0  0
   37.6410   24.2960   37.2950 C   0  0  0  0  0  0  0  0  0  0  0  0
   38.3440   23.8980   38.3890 C   0  0  0  0  0  0  0  0  0  0  0  0
   39.4200   23.0430   38.2560 C   0  0  0  0  0  0  0  0  0  0  0  0
   39.7940   22.5820   36.9990 C   0  0  0  0  0  0  0  0  0  0  0  0
   37.3720   24.2610   35.3140 H   0  0  0  0  0  0  0  0  0  0  0  0
   36.8070   24.9730   37.4740 H   0  0  0  0  0  0  0  0  0  0  0  0
   38.0440   24.2670   39.3860 H   0  0  0  0  0  0  0  0  0  0  0  0
   39.8910   22.8160   39.2010 H   0  0  0  0  0  0  0  0  0  0  0  0
   41.0180   21.8650   37.0020 C   0  0  0  0  0  3  0  0  0  0  0  0
   42.2950   22.0970   36.8040 C   0  0  0  0  0  3  0  0  0  0  0  0
   43.0260   23.3450   36.4670 C   0  0  0  0  0  2  0  0  0  0  0  0
   42.9660   23.6290   35.4090 H   0  0  0  0  0  0  0  0  0  0  0  0
   37.7200   25.4030   31.5000 C   0  0  0  0  0  0  0  0  0  0  0  0
   37.5660   24.0280   31.5120 C   0  0  0  0  0  0  0  0  0  0  0  0
   36.2790   23.5250   31.2840 C   0  0  0  0  0  0  0  0  0  0  0  0
   35.2570   24.3980   31.0670 N   0  0  0  0  0  0  0  0  0  0  0  0
   35.4580   25.7400   31.0670 C   0  0  0  0  0  0  0  0  0  0  0  0
   36.7050   26.2430   31.2860 N   0  0  0  0  0  0  0  0  0  0  0  0
   38.6220   25.9700   31.6350 H   0  0  0  0  0  0  0  0  0  0  0  0
   36.1070   22.4610   31.2820 H   0  0  0  0  0  0  0  0  0  0  0  0
   34.5820   26.3400   30.8850 H   0  0  0  0  0  0  0  0  0  0  0  0
  1  7  1  6  0  0  0
  1  2  1  0  0  0  0
  1  6  1  0  0  0  0
  2  3  1  0  0  0  0
  3 10  1  0  0  0  0
  3 11  1  0  0  0  0
  3  4  1  0  0  0  0
  4 12  1  1  0  0  0
  4 17  1  0  0  0  0
  5 13  1  0  0  0  0
  5 14  1  0  0  0  0
  5  4  1  0  0  0  0
  6  5  1  0  0  0  0
  8  2  1  0  0  0  0
  9  2  1  0  0  0  0
 15  6  1  0  0  0  0
 16  6  1  0  0  0  0
 17 18  2  0  0  0  0
 17 22  1  0  0  0  0
 18 19  1  0  0  0  0
 19 24  1  0  0  0  0
 19 20  2  0  0  0  0
 20 25  1  0  0  0  0
 21 20  1  0  0  0  0
 21 26  1  0  0  0  0
 22 27  1  0  0  0  0
 22 21  2  0  0  0  0
 23 18  1  0  0  0  0
 28 27  2  0  0  0  0
 29 28  1  0  0  0  0
 30 29  1  0  0  0  0
 31 32  1  0  0  0  0
 31 37  1  0  0  0  0
 32  1  1  0  0  0  0
 33 32  2  0  0  0  0
 34 33  1  0  0  0  0
 35 34  2  0  0  0  0
 35 36  1  0  0  0  0
 36 31  2  0  0  0  0
 38 33  1  0  0  0  0
 39 35  1  0  0  0  0
M  END
>  <minimizedAffinity>
-5.4560008

$$$$

 OpenBabel03272506543D

 39 41  0  0  1  0  0  0  0  0999 V2000
   39.5180   23.7560   34.3790 C   0  0  1  0  0  0  0  0  0  0  0  0
   38.4870   23.5810   33.3860 C   0  0  0  0  0  0  0  0  0  0  0  0
   37.7370   24.8280   32.9690 C   0  0  0  0  0  0  0  0  0  0  0  0
   38.5240   26.0410   32.7940 C   0  0  2  0  0  0  0  0  0  0  0  0
   39.6710   26.2500   33.7740 C   0  0  0  0  0  0  0  0  0  0  0  0
   40.3810   24.9500   34.0620 C   0  0  0  0  0  0  0  0  0  0  0  0
   40.2490   22.8880   34.2840 H   0  0  0  0  0  0  0  0  0  0  0  0
   38.9730   23.2420   32.4240 H   0  0  0  0  0  0  0  0  0  0  0  0
   37.7260   22.8180   33.5680 H   0  0  0  0  0  0  0  0  0  0  0  0
   37.1030   25.0080   33.9040 H   0  0  0  0  0  0  0  0  0  0  0  0
   37.1090   24.6140   32.1020 H   0  0  0  0  0  0  0  0  0  0  0  0
   39.0040   26.1540   31.8040 H   0  0  0  0  0  0  0  0  0  0  0  0
   40.4820   26.7880   33.2860 H   0  0  0  0  0  0  0  0  0  0  0  0
   39.3180   26.6570   34.7240 H   0  0  0  0  0  0  0  0  0  0  0  0
   41.0230   25.1300   34.9490 H   0  0  0  0  0  0  0  0  0  0  0  0
   41.1020   24.6490   33.2440 H   0  0  0  0  0  0  0  0  0  0  0  0
   37.6090   27.1990   32.9680 C   0  0  0  0  0  0  0  0  0  0  0  0
   37.0710   27.4310   34.2260 C   0  0  0  0  0  0  0  0  0  0  0  0
   36.1970   28.4730   34.4600 C   0  0  0  0  0  0  0  0  0  0  0  0
   35.8620   29.2880   33.4230 C   0  0  0  0  0  0  0  0  0  0  0  0
   36.3850   29.0690   32.1650 C   0  0  0  0  0  0  0  0  0  0  0  0
   37.2620   28.0110   31.9470 C   0  0  0  0  0  0  0  0  0  0  0  0
   37.2000   26.8870   35.1500 H   0  0  0  0  0  0  0  0  0  0  0  0
   35.7440   28.7030   35.4230 H   0  0  0  0  0  0  0  0  0  0  0  0
   35.1650   30.1270   33.6000 H   0  0  0  0  0  0  0  0  0  0  0  0
   36.0300   29.7820   31.4360 H   0  0  0  0  0  0  0  0  0  0  0  0
   37.5680   27.8060   30.5780 C   0  0  0  0  0  3  0  0  0  0  0  0
   38.6140   27.8590   29.7840 C   0  0  0  0  0  3  0  0  0  0  0  0
   40.0360   28.1900   30.0540 C   0  0  0  0  0  2  0  0  0  0  0  0
   40.2390   29.2650   30.1430 H   0  0  0  0  0  0  0  0  0  0  0  0
   38.0100   24.2750   36.2990 C   0  0  0  0  0  0  0  0  0  0  0  0
   39.1560   23.6830   35.8010 C   0  0  0  0  0  0  0  0  0  0  0  0
   39.9700   22.9940   36.7100 C   0  0  0  0  0  0  0  0  0  0  0  0
   39.6010   22.9430   38.0190 N   0  0  0  0  0  0  0  0  0  0  0  0
   38.4660   23.5410   38.4610 C   0  0  0  0  0  0  0  0  0  0  0  0
   37.6650   24.2140   37.5870 N   0  0  0  0  0  0  0  0  0  0  0  0
   37.2600   24.8240   35.7610 H   0  0  0  0  0  0  0  0  0  0  0  0
   40.8730   22.5140   36.3710 H   0  0  0  0  0  0  0  0  0  0  0  0
   38.2670   23.4390   39.5140 H   0  0  0  0  0  0  0  0  0  0  0  0
  1  7  1  6  0  0  0
  1 32  1  0  0  0  0
  2  9  1  0  0  0  0
  2  1  1  0  0  0  0
  3  2  1  0  0  0  0
  3 10  1  0  0  0  0
  4 12  1  6  0  0  0
  4 17  1  0  0  0  0
  4  3  1  0  0  0  0
  4  5  1  0  0  0  0
  5  6  1  0  0  0  0
  5 14  1  0  0  0  0
  6  1  1  0  0  0  0
  6 15  1  0  0  0  0
  8  2  1  0  0  0  0
 11  3  1  0  0  0  0
 13  5  1  0  0  0  0
 16  6  1  0  0  0  0
 17 18  1  0  0  0  0
 18 19  2  0  0  0  0
 18 23  1  0  0  0  0
 19 24  1  0  0  0  0
 20 25  1  0  0  0  0
 20 19  1  0  0  0  0
 21 20  2  0  0  0  0
 22 21  1  0  0  0  0
 22 17  2  0  0  0  0
 26 21  1  0  0  0  0
 27 22  1  0  0  0  0
 28 29  1  0  0  0  0
 28 27  2  0  0  0  0
 29 30  1  0  0  0  0
 31 36  1  0  0  0  0
 32 31  2  0  0  0  0
 32 33  1  0  0  0  0
 33 34  2  0  0  0  0
 34 35  1  0  0  0  0
 35 39  1  0  0  0  0
 36 35  2  0  0  0  0
 37 31  1  0  0  0  0
 38 33  1  0  0  0  0
M  END
>  <minimizedAffinity>
-5.33381367

$$$$

 OpenBabel03272506543D

 39 41  0  0  1  0  0  0  0  0999 V2000
   36.5380   23.0040   30.9210 C   0  0  1  0  0  0  0  0  0  0  0  0
   35.7760   24.2250   31.0060 C   0  0  0  0  0  0  0  0  0  0  0  0
   36.2120   25.2170   32.0620 C   0  0  0  0  0  0  0  0  0  0  0  0
   37.6460   25.4030   32.2380 C   0  0  2  0  0  0  0  0  0  0  0  0
   38.5110   24.1590   32.0950 C   0  0  0  0  0  0  0  0  0  0  0  0
   38.0180   23.2820   30.9710 C   0  0  0  0  0  0  0  0  0  0  0  0
   36.4000   22.5750   29.8740 H   0  0  0  0  0  0  0  0  0  0  0  0
   35.9170   24.8000   30.0420 H   0  0  0  0  0  0  0  0  0  0  0  0
   34.6900   24.1450   31.0960 H   0  0  0  0  0  0  0  0  0  0  0  0
   35.8570   24.6790   33.0070 H   0  0  0  0  0  0  0  0  0  0  0  0
   35.6860   26.1640   31.9270 H   0  0  0  0  0  0  0  0  0  0  0  0
   38.1170   26.1280   31.5480 H   0  0  0  0  0  0  0  0  0  0  0  0
   39.4860   24.4290   31.6920 H   0  0  0  0  0  0  0  0  0  0  0  0
   38.5120   23.5620   33.0100 H   0  0  0  0  0  0  0  0  0  0  0  0
   38.5270   22.3020   31.0860 H   0  0  0  0  0  0  0  0  0  0  0  0
   38.3350   23.6500   29.9500 H   0  0  0  0  0  0  0  0  0  0  0  0
   37.8670   25.9100   33.6170 C   0  0  0  0  0  0  0  0  0  0  0  0
   38.2730   25.0100   34.5930 C   0  0  0  0  0  0  0  0  0  0  0  0
   38.4780   25.4030   35.9010 C   0  0  0  0  0  0  0  0  0  0  0  0
   38.2740   26.7070   36.2300 C   0  0  0  0  0  0  0  0  0  0  0  0
   37.8670   27.6140   35.2710 C   0  0  0  0  0  0  0  0  0  0  0  0
   37.6620   27.2000   33.9600 C   0  0  0  0  0  0  0  0  0  0  0  0
   38.4610   23.9500   34.5280 H   0  0  0  0  0  0  0  0  0  0  0  0
   38.7950   24.7440   36.7070 H   0  0  0  0  0  0  0  0  0  0  0  0
   38.4380   27.0320   37.2730 H   0  0  0  0  0  0  0  0  0  0  0  0
   37.7350   28.6090   35.6700 H   0  0  0  0  0  0  0  0  0  0  0  0
   37.0740   28.1960   33.1390 C   0  0  0  0  0  3  0  0  0  0  0  0
   36.0280   28.9910   33.1510 C   0  0  0  0  0  3  0  0  0  0  0  0
   34.9410   29.1680   34.1470 C   0  0  0  0  0  2  0  0  0  0  0  0
   34.1630   28.3950   34.1070 H   0  0  0  0  0  0  0  0  0  0  0  0
   35.4330   20.7900   31.2570 C   0  0  0  0  0  0  0  0  0  0  0  0
   36.1490   21.8630   31.7600 C   0  0  0  0  0  0  0  0  0  0  0  0
   36.4990   21.8220   33.1150 C   0  0  0  0  0  0  0  0  0  0  0  0
   36.1250   20.7460   33.8620 N   0  0  0  0  0  0  0  0  0  0  0  0
   35.4230   19.7180   33.3230 C   0  0  0  0  0  0  0  0  0  0  0  0
   35.0760   19.7450   32.0050 N   0  0  0  0  0  0  0  0  0  0  0  0
   35.0940   20.6340   30.2510 H   0  0  0  0  0  0  0  0  0  0  0  0
   37.0570   22.6320   33.5540 H   0  0  0  0  0  0  0  0  0  0  0  0
   35.1780   18.9170   34.0010 H   0  0  0  0  0  0  0  0  0  0  0  0
  1  7  1  6  0  0  0
  1  6  1  0  0  0  0
  1  2  1  0  0  0  0
  1 32  1  0  0  0  0
  2  9  1  0  0  0  0
  2  3  1  0  0  0  0
  3  4  1  0  0  0  0
  3 10  1  0  0  0  0
  4 12  1  6  0  0  0
  4 17  1  0  0  0  0
  5  4  1  0  0  0  0
  5 14  1  0  0  0  0
  6 15  1  0  0  0  0
  6  5  1  0  0  0  0
  8  2  1  0  0  0  0
 11  3  1  0  0  0  0
 13  5  1  0  0  0  0
 16  6  1  0  0  0  0
 17 22  2  0  0  0  0
 17 18  1  0  0  0  0
 18 19  2  0  0  0  0
 19 20  1  0  0  0  0
 19 24  1  0  0  0  0
 20 25  1  0  0  0  0
 21 26  1  0  0  0  0
 21 20  2  0  0  0  0
 22 21  1  0  0  0  0
 23 18  1  0  0  0  0
 27 28  2  0  0  0  0
 27 22  1  0  0  0  0
 28 29  1  0  0  0  0
 30 29  1  0  0  0  0
 31 32  2  0  0  0  0
 31 36  1  0  0  0  0
 32 33  1  0  0  0  0
 33 38  1  0  0  0  0
 33 34  2  0  0  0  0
 35 34  1  0  0  0  0
 35 39  1  0  0  0  0
 36 35  2  0  0  0  0
 37 31  1  0  0  0  0
M  END
>  <minimizedAffinity>
-5.32465506

$$$$

 OpenBabel03272506543D

 39 41  0  0  1  0  0  0  0  0999 V2000
   39.8770   26.3630   32.1580 C   0  0  1  0  0  0  0  0  0  0  0  0
   40.5320   26.9930   33.2780 C   0  0  0  0  0  0  0  0  0  0  0  0
   40.5070   26.2320   34.5860 C   0  0  0  0  0  0  0  0  0  0  0  0
   40.7160   24.7920   34.5130 C   0  0  2  0  0  0  0  0  0  0  0  0
   40.1030   24.0790   33.3160 C   0  0  0  0  0  0  0  0  0  0  0  0
   40.2460   24.9060   32.0620 C   0  0  0  0  0  0  0  0  0  0  0  0
   40.3210   26.7970   31.2020 H   0  0  0  0  0  0  0  0  0  0  0  0
   41.6370   27.0680   33.0480 H   0  0  0  0  0  0  0  0  0  0  0  0
   40.2540   28.0210   33.5210 H   0  0  0  0  0  0  0  0  0  0  0  0
   39.4090   26.3650   34.8790 H   0  0  0  0  0  0  0  0  0  0  0  0
   41.1690   26.7090   35.3100 H   0  0  0  0  0  0  0  0  0  0  0  0
   41.7740   24.4690   34.4940 H   0  0  0  0  0  0  0  0  0  0  0  0
   40.7190   23.2270   33.0360 H   0  0  0  0  0  0  0  0  0  0  0  0
   39.0390   23.8820   33.4670 H   0  0  0  0  0  0  0  0  0  0  0  0
   39.5740   24.4510   31.3040 H   0  0  0  0  0  0  0  0  0  0  0  0
   41.2780   24.8400   31.6030 H   0  0  0  0  0  0  0  0  0  0  0  0
   40.0990   24.1870   35.7210 C   0  0  0  0  0  0  0  0  0  0  0  0
   38.8870   24.6960   36.1680 C   0  0  0  0  0  0  0  0  0  0  0  0
   38.2630   24.2010   37.2950 C   0  0  0  0  0  0  0  0  0  0  0  0
   38.8600   23.1870   37.9780 C   0  0  0  0  0  0  0  0  0  0  0  0
   40.0670   22.6710   37.5490 C   0  0  0  0  0  0  0  0  0  0  0  0
   40.6830   23.1860   36.4140 C   0  0  0  0  0  0  0  0  0  0  0  0
   38.2830   25.5010   35.7770 H   0  0  0  0  0  0  0  0  0  0  0  0
   37.3150   24.5600   37.6920 H   0  0  0  0  0  0  0  0  0  0  0  0
   38.3680   22.7810   38.8800 H   0  0  0  0  0  0  0  0  0  0  0  0
   40.4310   21.8790   38.1870 H   0  0  0  0  0  0  0  0  0  0  0  0
   41.9930   22.6840   36.2060 C   0  0  0  0  0  3  0  0  0  0  0  0
   43.2350   23.0950   36.3230 C   0  0  0  0  0  3  0  0  0  0  0  0
   43.8020   24.3910   36.7750 C   0  0  0  0  0  2  0  0  0  0  0  0
   43.7710   25.1840   36.0160 H   0  0  0  0  0  0  0  0  0  0  0  0
   37.7970   27.7080   32.4640 C   0  0  0  0  0  0  0  0  0  0  0  0
   38.4430   26.5980   31.9490 C   0  0  0  0  0  0  0  0  0  0  0  0
   37.6720   25.6940   31.2060 C   0  0  0  0  0  0  0  0  0  0  0  0
   36.3450   25.9470   31.0300 N   0  0  0  0  0  0  0  0  0  0  0  0
   35.7570   27.0500   31.5560 C   0  0  0  0  0  0  0  0  0  0  0  0
   36.4950   27.9370   32.2810 N   0  0  0  0  0  0  0  0  0  0  0  0
   38.2170   28.5120   33.0380 H   0  0  0  0  0  0  0  0  0  0  0  0
   38.1280   24.8150   30.7830 H   0  0  0  0  0  0  0  0  0  0  0  0
   34.7030   27.1540   31.3570 H   0  0  0  0  0  0  0  0  0  0  0  0
  1  7  1  6  0  0  0
  1  2  1  0  0  0  0
  2  9  1  0  0  0  0
  2  3  1  0  0  0  0
  3 10  1  0  0  0  0
  3 11  1  0  0  0  0
  4 12  1  1  0  0  0
  4  3  1  0  0  0  0
  4 17  1  0  0  0  0
  5 14  1  0  0  0  0
  5  4  1  0  0  0  0
  6  1  1  0  0  0  0
  6  5  1  0  0  0  0
  8  2  1  0  0  0  0
 13  5  1  0  0  0  0
 15  6  1  0  0  0  0
 16  6  1  0  0  0  0
 17 18  2  0  0  0  0
 17 22  1  0  0  0  0
 18 19  1  0  0  0  0
 19 24  1  0  0  0  0
 19 20  2  0  0  0  0
 20 25  1  0  0  0  0
 21 20  1  0  0  0  0
 21 26  1  0  0  0  0
 22 21  2  0  0  0  0
 23 18  1  0  0  0  0
 27 28  2  0  0  0  0
 27 22  1  0  0  0  0
 28 29  1  0  0  0  0
 30 29  1  0  0  0  0
 31 37  1  0  0  0  0
 32  1  1  0  0  0  0
 32 31  2  0  0  0  0
 33 32  1  0  0  0  0
 34 33  2  0  0  0  0
 34 35  1  0  0  0  0
 35 36  2  0  0  0  0
 36 31  1  0  0  0  0
 38 33  1  0  0  0  0
 39 35  1  0  0  0  0
M  END
>  <minimizedAffinity>
-5.25724506

$$$$

 OpenBabel03272506543D

 39 41  0  0  1  0  0  0  0  0999 V2000
   37.5240   24.9660   31.6080 C   0  0  1  0  0  0  0  0  0  0  0  0
   38.4130   23.9600   31.0790 C   0  0  0  0  0  0  0  0  0  0  0  0
   37.9380   22.5260   31.1750 C   0  0  0  0  0  0  0  0  0  0  0  0
   36.5310   22.2790   30.8900 C   0  0  2  0  0  0  0  0  0  0  0  0
   35.5480   23.3390   31.3670 C   0  0  0  0  0  0  0  0  0  0  0  0
   36.1050   24.7260   31.1610 C   0  0  0  0  0  0  0  0  0  0  0  0
   37.7790   25.9580   31.1090 H   0  0  0  0  0  0  0  0  0  0  0  0
   38.5110   24.1220   29.9650 H   0  0  0  0  0  0  0  0  0  0  0  0
   39.4480   23.9590   31.4270 H   0  0  0  0  0  0  0  0  0  0  0  0
   38.0570   22.3450   32.2980 H   0  0  0  0  0  0  0  0  0  0  0  0
   38.5970   21.8740   30.5990 H   0  0  0  0  0  0  0  0  0  0  0  0
   36.2800   22.1550   29.8190 H   0  0  0  0  0  0  0  0  0  0  0  0
   34.6980   23.3900   30.6880 H   0  0  0  0  0  0  0  0  0  0  0  0
   35.3170   23.2250   32.4280 H   0  0  0  0  0  0  0  0  0  0  0  0
   35.4610   25.4170   31.7450 H   0  0  0  0  0  0  0  0  0  0  0  0
   36.0140   25.0870   30.0930 H   0  0  0  0  0  0  0  0  0  0  0  0
   36.1490   21.0170   31.5740 C   0  0  0  0  0  0  0  0  0  0  0  0
   35.8010   21.0740   32.9170 C   0  0  0  0  0  0  0  0  0  0  0  0
   35.4560   19.9400   33.6250 C   0  0  0  0  0  0  0  0  0  0  0  0
   35.4600   18.7420   32.9810 C   0  0  0  0  0  0  0  0  0  0  0  0
   35.8070   18.6680   31.6460 C   0  0  0  0  0  0  0  0  0  0  0  0
   36.1550   19.8190   30.9500 C   0  0  0  0  0  0  0  0  0  0  0  0
   35.7630   21.9160   33.5910 H   0  0  0  0  0  0  0  0  0  0  0  0
   35.1750   19.9240   34.6770 H   0  0  0  0  0  0  0  0  0  0  0  0
   35.1830   17.8300   33.5380 H   0  0  0  0  0  0  0  0  0  0  0  0
   35.7760   17.6580   31.2640 H   0  0  0  0  0  0  0  0  0  0  0  0
   36.6590   19.5610   29.6490 C   0  0  0  0  0  3  0  0  0  0  0  0
   37.8190   19.3640   29.0640 C   0  0  0  0  0  3  0  0  0  0  0  0
   39.2000   19.3300   29.6080 C   0  0  0  0  0  2  0  0  0  0  0  0
   39.6350   20.3200   29.7950 H   0  0  0  0  0  0  0  0  0  0  0  0
   38.2490   24.5030   33.9510 C   0  0  0  0  0  0  0  0  0  0  0  0
   37.6160   25.3190   33.0300 C   0  0  0  0  0  0  0  0  0  0  0  0
   37.0630   26.5140   33.5070 C   0  0  0  0  0  0  0  0  0  0  0  0
   37.1710   26.8110   34.8310 N   0  0  0  0  0  0  0  0  0  0  0  0
   37.8020   25.9770   35.6960 C   0  0  0  0  0  0  0  0  0  0  0  0
   38.3450   24.8110   35.2460 N   0  0  0  0  0  0  0  0  0  0  0  0
   38.7450   23.5660   33.7760 H   0  0  0  0  0  0  0  0  0  0  0  0
   36.5600   27.1850   32.8300 H   0  0  0  0  0  0  0  0  0  0  0  0
   37.8320   26.3070   36.7210 H   0  0  0  0  0  0  0  0  0  0  0  0
  1  7  1  6  0  0  0
  1 32  1  0  0  0  0
  2  3  1  0  0  0  0
  2  9  1  0  0  0  0
  2  1  1  0  0  0  0
  3 10  1  0  0  0  0
  4 12  1  6  0  0  0
  4  3  1  0  0  0  0
  4  5  1  0  0  0  0
  4 17  1  0  0  0  0
  5 14  1  0  0  0  0
  6  5  1  0  0  0  0
  6  1  1  0  0  0  0
  6 15  1  0  0  0  0
  8  2  1  0  0  0  0
 11  3  1  0  0  0  0
 13  5  1  0  0  0  0
 16  6  1  0  0  0  0
 17 18  1  0  0  0  0
 18 23  1  0  0  0  0
 18 19  2  0  0  0  0
 19 24  1  0  0  0  0
 20 25  1  0  0  0  0
 20 19  1  0  0  0  0
 21 20  2  0  0  0  0
 22 17  2  0  0  0  0
 22 21  1  0  0  0  0
 26 21  1  0  0  0  0
 27 22  1  0  0  0  0
 28 29  1  0  0  0  0
 28 27  2  0  0  0  0
 29 30  1  0  0  0  0
 31 36  1  0  0  0  0
 32 33  1  0  0  0  0
 32 31  2  0  0  0  0
 33 34  2  0  0  0  0
 34 35  1  0  0  0  0
 35 39  1  0  0  0  0
 36 35  2  0  0  0  0
 37 31  1  0  0  0  0
 38 33  1  0  0  0  0
M  END
>  <minimizedAffinity>
-5.22733736

$$$$

 OpenBabel03272506543D

 39 41  0  0  1  0  0  0  0  0999 V2000
   35.7180   27.9980   31.8380 C   0  0  1  0  0  0  0  0  0  0  0  0
   35.9490   26.5850   31.6670 C   0  0  0  0  0  0  0  0  0  0  0  0
   37.1280   26.0010   32.4150 C   0  0  0  0  0  0  0  0  0  0  0  0
   37.3420   26.4730   33.7770 C   0  0  2  0  0  0  0  0  0  0  0  0
   37.0520   27.9450   34.0350 C   0  0  0  0  0  0  0  0  0  0  0  0
   35.8200   28.3930   33.2880 C   0  0  0  0  0  0  0  0  0  0  0  0
   34.6240   28.2070   31.5980 H   0  0  0  0  0  0  0  0  0  0  0  0
   35.0690   26.0250   32.1020 H   0  0  0  0  0  0  0  0  0  0  0  0
   36.0170   26.1980   30.6470 H   0  0  0  0  0  0  0  0  0  0  0  0
   37.9930   26.4330   31.8040 H   0  0  0  0  0  0  0  0  0  0  0  0
   37.1080   24.9120   32.3540 H   0  0  0  0  0  0  0  0  0  0  0  0
   36.7550   25.9510   34.5550 H   0  0  0  0  0  0  0  0  0  0  0  0
   36.6970   28.0790   35.0560 H   0  0  0  0  0  0  0  0  0  0  0  0
   37.8840   28.5800   33.7210 H   0  0  0  0  0  0  0  0  0  0  0  0
   35.8150   29.5030   33.3220 H   0  0  0  0  0  0  0  0  0  0  0  0
   34.8570   28.0890   33.7980 H   0  0  0  0  0  0  0  0  0  0  0  0
   38.7770   26.2660   34.1030 C   0  0  0  0  0  0  0  0  0  0  0  0
   39.7100   27.1350   33.5550 C   0  0  0  0  0  0  0  0  0  0  0  0
   41.0620   26.9930   33.7960 C   0  0  0  0  0  0  0  0  0  0  0  0
   41.4790   25.9720   34.5920 C   0  0  0  0  0  0  0  0  0  0  0  0
   40.5640   25.0960   35.1420 C   0  0  0  0  0  0  0  0  0  0  0  0
   39.2060   25.2520   34.8860 C   0  0  0  0  0  0  0  0  0  0  0  0
   39.5730   27.9760   32.8930 H   0  0  0  0  0  0  0  0  0  0  0  0
   41.8380   27.6420   33.3940 H   0  0  0  0  0  0  0  0  0  0  0  0
   42.5580   25.8510   34.7930 H   0  0  0  0  0  0  0  0  0  0  0  0
   41.0300   24.3310   35.7440 H   0  0  0  0  0  0  0  0  0  0  0  0
   38.4140   24.1780   35.3660 C   0  0  0  0  0  3  0  0  0  0  0  0
   37.9090   23.7600   36.5040 C   0  0  0  0  0  3  0  0  0  0  0  0
   37.9820   24.3210   37.8770 C   0  0  0  0  0  2  0  0  0  0  0  0
   38.9270   24.1170   38.3960 H   0  0  0  0  0  0  0  0  0  0  0  0
   36.4950   30.2930   31.2370 C   0  0  0  0  0  0  0  0  0  0  0  0
   36.4010   28.9440   30.9460 C   0  0  0  0  0  0  0  0  0  0  0  0
   36.9940   28.5010   29.7560 C   0  0  0  0  0  0  0  0  0  0  0  0
   37.6230   29.4050   28.9550 N   0  0  0  0  0  0  0  0  0  0  0  0
   37.6880   30.7200   29.2840 C   0  0  0  0  0  0  0  0  0  0  0  0
   37.1160   31.1640   30.4380 N   0  0  0  0  0  0  0  0  0  0  0  0
   36.1240   30.8120   32.1010 H   0  0  0  0  0  0  0  0  0  0  0  0
   36.9490   27.4590   29.4850 H   0  0  0  0  0  0  0  0  0  0  0  0
   38.2080   31.3490   28.5810 H   0  0  0  0  0  0  0  0  0  0  0  0
  1  7  1  6  0  0  0
  1  6  1  0  0  0  0
  2  1  1  0  0  0  0
  2  8  1  0  0  0  0
  2  3  1  0  0  0  0
  3  4  1  0  0  0  0
  4  5  1  0  0  0  0
  4 17  1  0  0  0  0
  4 12  1  1  0  0  0
  5 13  1  0  0  0  0
  6 15  1  0  0  0  0
  6 16  1  0  0  0  0
  6  5  1  0  0  0  0
  9  2  1  0  0  0  0
 10  3  1  0  0  0  0
 11  3  1  0  0  0  0
 14  5  1  0  0  0  0
 17 22  1  0  0  0  0
 18 19  1  0  0  0  0
 18 17  2  0  0  0  0
 19 20  2  0  0  0  0
 20 25  1  0  0  0  0
 20 21  1  0  0  0  0
 21 26  1  0  0  0  0
 22 21  2  0  0  0  0
 22 27  1  0  0  0  0
 23 18  1  0  0  0  0
 24 19  1  0  0  0  0
 27 28  2  0  0  0  0
 28 29  1  0  0  0  0
 29 30  1  0  0  0  0
 31 37  1  0  0  0  0
 32 31  1  0  0  0  0
 32  1  1  0  0  0  0
 33 32  2  0  0  0  0
 34 35  2  0  0  0  0
 34 33  1  0  0  0  0
 35 36  1  0  0  0  0
 36 31  2  0  0  0  0
 38 33  1  0  0  0  0
 39 35  1  0  0  0  0
M  END
>  <minimizedAffinity>
-5.17766142

$$$$
