
 OpenBabel03272509523D

 38 40  0  0  0  0  0  0  0  0999 V2000
   37.1840   30.0550   51.5870 C   0  0  0  0  0  0  0  0  0  0  0  0
   37.9520   30.7760   50.6400 C   0  0  0  0  0  0  0  0  0  0  0  0
   37.6160   30.6210   49.3050 C   0  0  0  0  0  0  0  0  0  0  0  0
   36.5680   29.7830   49.0160 N   0  0  0  0  0  0  0  0  0  0  0  0
   35.8660   29.1200   49.9320 C   0  0  0  0  0  0  0  0  0  0  0  0
   36.1870   29.2660   51.2360 N   0  0  0  0  0  0  0  0  0  0  0  0
   37.5080   30.2290   52.6110 H   0  0  0  0  0  0  0  0  0  0  0  0
   38.7770   31.4350   50.8720 H   0  0  0  0  0  0  0  0  0  0  0  0
   38.8170   33.2540   49.2340 F   0  0  0  0  0  0  0  0  0  0  0  0
   38.8410   32.4930   48.1430 C   0  0  0  0  0  0  0  0  0  0  0  0
   38.2760   31.2670   48.1950 C   0  0  0  0  0  0  0  0  0  0  0  0
   38.3610   30.5650   47.0020 C   0  0  0  0  0  0  0  0  0  0  0  0
   38.9640   31.0730   45.8790 C   0  0  0  0  0  0  0  0  0  0  0  0
   39.5220   32.3170   45.8710 C   0  0  0  0  0  0  0  0  0  0  0  0
   39.4550   33.0370   47.0360 C   0  0  0  0  0  0  0  0  0  0  0  0
   37.9560   29.5550   46.8650 H   0  0  0  0  0  0  0  0  0  0  0  0
   39.0290   30.5120   44.9380 H   0  0  0  0  0  0  0  0  0  0  0  0
   40.0020   32.7380   44.9980 H   0  0  0  0  0  0  0  0  0  0  0  0
   39.8900   34.0270   47.0550 H   0  0  0  0  0  0  0  0  0  0  0  0
   34.8810   28.3560   49.4030 O   0  0  0  0  0  0  0  0  0  0  0  0
   34.3480   28.7100   48.1240 C   0  0  0  0  0  0  0  0  0  0  0  0
   35.1540   29.0080   47.4260 H   0  0  0  0  0  0  0  0  0  0  0  0
   33.7220   29.6100   48.3020 H   0  0  0  0  0  0  0  0  0  0  0  0
   33.4660   27.6230   47.6020 C   0  0  0  0  0  0  0  0  0  0  0  0
   33.7350   26.6170   47.9390 H   0  0  0  0  0  0  0  0  0  0  0  0
   33.6200   27.6030   46.4830 H   0  0  0  0  0  0  0  0  0  0  0  0
   32.0180   27.9120   47.7750 C   0  0  0  0  0  0  0  0  0  0  0  0
   31.4030   27.4780   48.9520 C   0  0  0  0  0  0  0  0  0  0  0  0
   30.0750   27.7050   49.1860 C   0  0  0  0  0  0  0  0  0  0  0  0
   29.3530   28.3440   48.2900 N   0  0  0  0  0  0  0  0  0  0  0  0
   29.9570   28.7680   47.1390 C   0  0  0  0  0  0  0  0  0  0  0  0
   31.2580   28.5690   46.8640 N   0  0  0  0  0  0  0  0  0  0  0  0
   32.0110   26.9510   49.6840 H   0  0  0  0  0  0  0  0  0  0  0  0
   29.5730   27.3760   50.0970 H   0  0  0  0  0  0  0  0  0  0  0  0
   29.1130   29.4720   46.1770 C   0  0  0  0  0  3  0  0  0  0  0  0
   27.9020   29.8560   46.4560 C   0  0  0  0  0  3  0  0  0  0  0  0
   27.0250   30.5780   45.4800 C   0  0  0  0  0  2  0  0  0  0  0  0
   27.5490   30.5350   44.5020 H   0  0  0  0  0  0  0  0  0  0  0  0
  1  7  1  0  0  0  0
  2  8  1  0  0  0  0
  2  1  2  0  0  0  0
  3  2  1  0  0  0  0
  4  3  2  0  0  0  0
  4  5  1  0  0  0  0
  5  6  2  0  0  0  0
  6  1  1  0  0  0  0
 10 11  1  0  0  0  0
 10  9  1  0  0  0  0
 11  3  1  0  0  0  0
 12 11  2  0  0  0  0
 13 12  1  0  0  0  0
 14 13  2  0  0  0  0
 14 15  1  0  0  0  0
 15 19  1  0  0  0  0
 15 10  2  0  0  0  0
 16 12  1  0  0  0  0
 17 13  1  0  0  0  0
 18 14  1  0  0  0  0
 20  5  1  0  0  0  0
 21 23  1  0  0  0  0
 21 20  1  0  0  0  0
 22 21  1  0  0  0  0
 24 27  1  0  0  0  0
 24 25  1  0  0  0  0
 24 21  1  0  0  0  0
 26 24  1  0  0  0  0
 27 28  1  0  0  0  0
 28 29  2  0  0  0  0
 28 33  1  0  0  0  0
 29 34  1  0  0  0  0
 30 29  1  0  0  0  0
 31 30  2  0  0  0  0
 32 31  1  0  0  0  0
 32 27  2  0  0  0  0
 35 36  2  0  0  0  0
 35 31  1  0  0  0  0
 37 36  1  0  0  0  0
 38 37  1  0  0  0  0
M  END
>  <minimizedAffinity>
-6.40070963

>  <minimizedRMSD>
0.419784635

$$$$
