
 OpenBabel03272509123D

 23 24  0  0  0  0  0  0  0  0999 V2000
   37.7710   23.7010   32.3890 C   0  0  0  0  0  3  0  0  0  0  0  0
   38.0930   23.9420   33.7480 C   0  0  0  0  0  0  0  0  0  0  0  0
   38.0610   22.9030   34.6370 C   0  0  0  0  0  0  0  0  0  0  0  0
   37.7120   21.7020   34.1370 N   0  0  0  0  0  0  0  0  0  0  0  0
   37.4030   21.4820   32.8440 C   0  0  0  0  0  0  0  0  0  0  0  0
   37.4340   22.4710   31.9820 N   0  0  0  0  0  0  0  0  0  0  0  0
   37.7650   24.4390   31.6030 H   0  0  0  0  0  0  0  0  0  0  0  0
   37.1450   20.4880   32.6000 H   0  0  0  0  0  0  0  0  0  0  0  0
   38.3790   23.0100   36.0490 C   0  0  0  0  0  0  0  0  0  0  0  0
   39.6790   22.6660   36.4080 C   0  0  0  0  0  0  0  0  0  0  0  0
   40.1160   22.7670   37.7170 C   0  0  0  0  0  0  0  0  0  0  0  0
   39.1840   23.2250   38.6410 C   0  0  0  0  0  0  0  0  0  0  0  0
   37.8620   23.5820   38.3330 C   0  0  0  0  0  0  0  0  0  0  0  0
   37.4740   23.4610   36.9900 C   0  0  0  0  0  0  0  0  0  0  0  0
   40.4920   22.2670   35.8250 H   0  0  0  0  0  0  0  0  0  0  0  0
   41.0780   22.5400   38.1160 H   0  0  0  0  0  0  0  0  0  0  0  0
   39.4170   23.3470   39.7140 H   0  0  0  0  0  0  0  0  0  0  0  0
   37.1770   23.9290   39.0830 H   0  0  0  0  0  0  0  0  0  0  0  0
   36.4820   23.7120   36.6670 H   0  0  0  0  0  0  0  0  0  0  0  0
   38.3430   25.2640   34.1720 C   0  0  0  0  0  0  0  0  0  0  0  0
   38.5410   26.4320   34.6550 C   0  0  0  0  0  3  0  0  0  0  0  0
   38.5650   27.4100   35.7520 C   0  0  0  0  0  2  0  0  0  0  0  0
   37.8320   28.2190   35.5600 H   0  0  0  0  0  0  0  0  0  0  0  0
  1  2  1  0  0  0  0
  2 20  2  0  0  0  0
  2  3  1  0  0  0  0
  3  9  1  0  0  0  0
  4  3  2  0  0  0  0
  5  4  1  0  0  0  0
  6  1  1  0  0  0  0
  6  5  2  0  0  0  0
  7  1  1  0  0  0  0
  8  5  1  0  0  0  0
  9 10  2  0  0  0  0
  9 14  1  0  0  0  0
 10 11  1  0  0  0  0
 11 16  1  0  0  0  0
 11 12  2  0  0  0  0
 12 17  1  0  0  0  0
 13 12  1  0  0  0  0
 13 18  1  0  0  0  0
 14 13  2  0  0  0  0
 15 10  1  0  0  0  0
 19 14  1  0  0  0  0
 20 21  2  0  0  0  0
 21 22  1  0  0  0  0
 23 22  1  0  0  0  0
M  END
>  <minimizedAffinity>
-4.5210824

$$$$

 OpenBabel03272509123D

 23 24  0  0  0  0  0  0  0  0999 V2000
   36.6180   28.6610   31.5860 C   0  0  0  0  0  3  0  0  0  0  0  0
   36.2100   29.0140   32.8960 C   0  0  0  0  0  0  0  0  0  0  0  0
   35.4830   30.1580   33.0840 C   0  0  0  0  0  0  0  0  0  0  0  0
   35.2100   30.8790   31.9790 N   0  0  0  0  0  0  0  0  0  0  0  0
   35.6060   30.5370   30.7370 C   0  0  0  0  0  0  0  0  0  0  0  0
   36.3000   29.4410   30.5450 N   0  0  0  0  0  0  0  0  0  0  0  0
   37.1890   27.7860   31.3180 H   0  0  0  0  0  0  0  0  0  0  0  0
   35.3200   31.2020   29.9690 H   0  0  0  0  0  0  0  0  0  0  0  0
   34.9940   30.6270   34.3670 C   0  0  0  0  0  0  0  0  0  0  0  0
   35.8520   31.4610   35.0770 C   0  0  0  0  0  0  0  0  0  0  0  0
   35.4840   32.0080   36.2940 C   0  0  0  0  0  0  0  0  0  0  0  0
   34.2180   31.6720   36.7590 C   0  0  0  0  0  0  0  0  0  0  0  0
   33.3160   30.8340   36.0850 C   0  0  0  0  0  0  0  0  0  0  0  0
   33.7420   30.3100   34.8560 C   0  0  0  0  0  0  0  0  0  0  0  0
   36.8600   31.7790   34.8710 H   0  0  0  0  0  0  0  0  0  0  0  0
   36.0440   32.6570   36.9280 H   0  0  0  0  0  0  0  0  0  0  0  0
   33.8140   32.0470   37.7160 H   0  0  0  0  0  0  0  0  0  0  0  0
   32.3470   30.6010   36.4870 H   0  0  0  0  0  0  0  0  0  0  0  0
   33.1150   29.6600   34.2740 H   0  0  0  0  0  0  0  0  0  0  0  0
   36.6450   28.2320   33.9860 C   0  0  0  0  0  0  0  0  0  0  0  0
   37.1350   27.5750   34.9680 C   0  0  0  0  0  3  0  0  0  0  0  0
   38.2100   27.2300   35.9100 C   0  0  0  0  0  2  0  0  0  0  0  0
   38.5200   26.1770   35.7680 H   0  0  0  0  0  0  0  0  0  0  0  0
  1  2  1  0  0  0  0
  2  3  1  0  0  0  0
  2 20  2  0  0  0  0
  3  9  1  0  0  0  0
  4  3  2  0  0  0  0
  5  4  1  0  0  0  0
  6  5  2  0  0  0  0
  6  1  1  0  0  0  0
  7  1  1  0  0  0  0
  8  5  1  0  0  0  0
  9 14  2  0  0  0  0
  9 10  1  0  0  0  0
 10 11  2  0  0  0  0
 11 12  1  0  0  0  0
 11 16  1  0  0  0  0
 12 17  1  0  0  0  0
 13 18  1  0  0  0  0
 13 12  2  0  0  0  0
 14 13  1  0  0  0  0
 15 10  1  0  0  0  0
 19 14  1  0  0  0  0
 20 21  2  0  0  0  0
 21 22  1  0  0  0  0
 23 22  1  0  0  0  0
M  END
>  <minimizedAffinity>
-4.47280979

$$$$

 OpenBabel03272509123D

 23 24  0  0  0  0  0  0  0  0999 V2000
   35.1630   25.5960   30.8550 C   0  0  0  0  0  3  0  0  0  0  0  0
   36.0030   26.2930   31.7600 C   0  0  0  0  0  0  0  0  0  0  0  0
   36.8720   25.5850   32.5440 C   0  0  0  0  0  0  0  0  0  0  0  0
   36.8550   24.2470   32.3950 N   0  0  0  0  0  0  0  0  0  0  0  0
   36.0510   23.5920   31.5350 C   0  0  0  0  0  0  0  0  0  0  0  0
   35.2160   24.2610   30.7740 N   0  0  0  0  0  0  0  0  0  0  0  0
   34.4450   26.0460   30.1880 H   0  0  0  0  0  0  0  0  0  0  0  0
   36.1480   22.5410   31.5300 H   0  0  0  0  0  0  0  0  0  0  0  0
   37.7920   26.1730   33.5000 C   0  0  0  0  0  0  0  0  0  0  0  0
   37.2870   26.3840   34.7800 C   0  0  0  0  0  0  0  0  0  0  0  0
   38.0780   26.8990   35.7920 C   0  0  0  0  0  0  0  0  0  0  0  0
   39.3940   27.1940   35.4510 C   0  0  0  0  0  0  0  0  0  0  0  0
   39.9510   27.0040   34.1780 C   0  0  0  0  0  0  0  0  0  0  0  0
   39.1030   26.4780   33.1920 C   0  0  0  0  0  0  0  0  0  0  0  0
   36.2980   26.2430   35.1820 H   0  0  0  0  0  0  0  0  0  0  0  0
   37.8140   27.1020   36.8040 H   0  0  0  0  0  0  0  0  0  0  0  0
   40.1190   27.6090   36.1740 H   0  0  0  0  0  0  0  0  0  0  0  0
   40.9740   27.2500   33.9620 H   0  0  0  0  0  0  0  0  0  0  0  0
   39.4470   26.3010   32.1900 H   0  0  0  0  0  0  0  0  0  0  0  0
   35.8550   27.6880   31.9010 C   0  0  0  0  0  0  0  0  0  0  0  0
   35.7400   28.9410   32.1340 C   0  0  0  0  0  3  0  0  0  0  0  0
   35.7470   30.1170   33.0160 C   0  0  0  0  0  2  0  0  0  0  0  0
   34.7430   30.5840   33.0390 H   0  0  0  0  0  0  0  0  0  0  0  0
  1  2  1  0  0  0  0
  2 20  2  0  0  0  0
  2  3  1  0  0  0  0
  3  9  1  0  0  0  0
  4  3  2  0  0  0  0
  5  4  1  0  0  0  0
  6  1  1  0  0  0  0
  6  5  2  0  0  0  0
  7  1  1  0  0  0  0
  8  5  1  0  0  0  0
  9 10  1  0  0  0  0
 10 15  1  0  0  0  0
 10 11  2  0  0  0  0
 11 16  1  0  0  0  0
 12 11  1  0  0  0  0
 12 17  1  0  0  0  0
 13 12  2  0  0  0  0
 14  9  2  0  0  0  0
 14 13  1  0  0  0  0
 18 13  1  0  0  0  0
 19 14  1  0  0  0  0
 20 21  2  0  0  0  0
 21 22  1  0  0  0  0
 22 23  1  0  0  0  0
M  END
>  <minimizedAffinity>
-4.36498928

$$$$

 OpenBabel03272509123D

 23 24  0  0  0  0  0  0  0  0999 V2000
   38.1260   24.4590   32.2650 C   0  0  0  0  0  3  0  0  0  0  0  0
   38.1540   23.8960   33.5660 C   0  0  0  0  0  0  0  0  0  0  0  0
   38.8180   24.5550   34.5650 C   0  0  0  0  0  0  0  0  0  0  0  0
   39.4120   25.7140   34.2220 N   0  0  0  0  0  0  0  0  0  0  0  0
   39.3830   26.2400   32.9820 C   0  0  0  0  0  0  0  0  0  0  0  0
   38.7460   25.6200   32.0170 N   0  0  0  0  0  0  0  0  0  0  0  0
   37.6330   24.0340   31.4050 H   0  0  0  0  0  0  0  0  0  0  0  0
   39.8960   27.1550   32.8630 H   0  0  0  0  0  0  0  0  0  0  0  0
   38.9140   24.0950   35.9370 C   0  0  0  0  0  0  0  0  0  0  0  0
   37.9030   24.5210   36.7940 C   0  0  0  0  0  0  0  0  0  0  0  0
   37.8600   24.1160   38.1170 C   0  0  0  0  0  0  0  0  0  0  0  0
   38.8810   23.2690   38.5320 C   0  0  0  0  0  0  0  0  0  0  0  0
   39.9250   22.8140   37.7120 C   0  0  0  0  0  0  0  0  0  0  0  0
   39.9170   23.2550   36.3800 C   0  0  0  0  0  0  0  0  0  0  0  0
   37.0780   25.1940   36.6340 H   0  0  0  0  0  0  0  0  0  0  0  0
   37.1440   24.3670   38.8660 H   0  0  0  0  0  0  0  0  0  0  0  0
   38.9530   22.8810   39.5640 H   0  0  0  0  0  0  0  0  0  0  0  0
   40.6940   22.1610   38.0800 H   0  0  0  0  0  0  0  0  0  0  0  0
   40.6770   22.9550   35.6840 H   0  0  0  0  0  0  0  0  0  0  0  0
   37.5830   22.6240   33.7770 C   0  0  0  0  0  0  0  0  0  0  0  0
   36.9750   21.5210   33.9990 C   0  0  0  0  0  3  0  0  0  0  0  0
   35.8100   20.7260   34.4160 C   0  0  0  0  0  2  0  0  0  0  0  0
   36.0530   20.1350   35.3200 H   0  0  0  0  0  0  0  0  0  0  0  0
  1  2  1  0  0  0  0
  2 20  2  0  0  0  0
  2  3  1  0  0  0  0
  3  9  1  0  0  0  0
  4  3  2  0  0  0  0
  5  4  1  0  0  0  0
  6  1  1  0  0  0  0
  6  5  2  0  0  0  0
  7  1  1  0  0  0  0
  8  5  1  0  0  0  0
  9 14  2  0  0  0  0
  9 10  1  0  0  0  0
 10 11  2  0  0  0  0
 11 12  1  0  0  0  0
 11 16  1  0  0  0  0
 12 17  1  0  0  0  0
 13 18  1  0  0  0  0
 13 12  2  0  0  0  0
 14 13  1  0  0  0  0
 15 10  1  0  0  0  0
 19 14  1  0  0  0  0
 20 21  2  0  0  0  0
 21 22  1  0  0  0  0
 22 23  1  0  0  0  0
M  END
>  <minimizedAffinity>
-4.31620741

$$$$

 OpenBabel03272509123D

 23 24  0  0  0  0  0  0  0  0999 V2000
   33.5330   31.7030   37.0910 C   0  0  0  0  0  3  0  0  0  0  0  0
   34.3490   31.4040   35.9720 C   0  0  0  0  0  0  0  0  0  0  0  0
   33.9870   30.3840   35.1340 C   0  0  0  0  0  0  0  0  0  0  0  0
   32.8570   29.7250   35.4520 N   0  0  0  0  0  0  0  0  0  0  0  0
   32.0880   30.0140   36.5210 C   0  0  0  0  0  0  0  0  0  0  0  0
   32.4230   30.9920   37.3280 N   0  0  0  0  0  0  0  0  0  0  0  0
   33.7160   32.4820   37.8140 H   0  0  0  0  0  0  0  0  0  0  0  0
   31.2330   29.4080   36.6430 H   0  0  0  0  0  0  0  0  0  0  0  0
   34.7250   29.9830   33.9510 C   0  0  0  0  0  0  0  0  0  0  0  0
   35.6440   28.9520   34.1270 C   0  0  0  0  0  0  0  0  0  0  0  0
   36.3780   28.4510   33.0660 C   0  0  0  0  0  0  0  0  0  0  0  0
   36.1460   29.0390   31.8280 C   0  0  0  0  0  0  0  0  0  0  0  0
   35.2360   30.0820   31.5970 C   0  0  0  0  0  0  0  0  0  0  0  0
   34.5180   30.5490   32.7080 C   0  0  0  0  0  0  0  0  0  0  0  0
   35.9570   28.4280   35.0140 H   0  0  0  0  0  0  0  0  0  0  0  0
   37.1030   27.6700   33.0700 H   0  0  0  0  0  0  0  0  0  0  0  0
   36.6720   28.7240   30.9090 H   0  0  0  0  0  0  0  0  0  0  0  0
   35.0920   30.5060   30.6210 H   0  0  0  0  0  0  0  0  0  0  0  0
   33.8010   31.3430   32.6210 H   0  0  0  0  0  0  0  0  0  0  0  0
   35.5650   32.0980   35.8020 C   0  0  0  0  0  0  0  0  0  0  0  0
   36.6100   32.8110   35.6110 C   0  0  0  0  0  3  0  0  0  0  0  0
   37.3020   34.0380   35.1900 C   0  0  0  0  0  2  0  0  0  0  0  0
   37.9630   33.8270   34.3270 H   0  0  0  0  0  0  0  0  0  0  0  0
  1  6  1  0  0  0  0
  1  7  1  0  0  0  0
  2  1  1  0  0  0  0
  3  4  2  0  0  0  0
  3  2  1  0  0  0  0
  4  5  1  0  0  0  0
  5  8  1  0  0  0  0
  5  6  2  0  0  0  0
  9 10  1  0  0  0  0
  9  3  1  0  0  0  0
 10 15  1  0  0  0  0
 11 16  1  0  0  0  0
 11 10  2  0  0  0  0
 12 11  1  0  0  0  0
 13 12  2  0  0  0  0
 13 14  1  0  0  0  0
 14  9  2  0  0  0  0
 17 12  1  0  0  0  0
 18 13  1  0  0  0  0
 19 14  1  0  0  0  0
 20  2  2  0  0  0  0
 21 20  2  0  0  0  0
 22 21  1  0  0  0  0
 23 22  1  0  0  0  0
M  END
>  <minimizedAffinity>
-4.30148792

$$$$

 OpenBabel03272509123D

 23 24  0  0  0  0  0  0  0  0999 V2000
   43.6550   22.7160   35.6090 C   0  0  0  0  0  3  0  0  0  0  0  0
   42.3100   23.1090   35.8210 C   0  0  0  0  0  0  0  0  0  0  0  0
   41.4540   22.2500   36.4530 C   0  0  0  0  0  0  0  0  0  0  0  0
   41.9710   21.0650   36.8300 N   0  0  0  0  0  0  0  0  0  0  0  0
   43.2500   20.6970   36.6220 C   0  0  0  0  0  0  0  0  0  0  0  0
   44.0810   21.5140   36.0200 N   0  0  0  0  0  0  0  0  0  0  0  0
   44.4170   23.3080   35.1270 H   0  0  0  0  0  0  0  0  0  0  0  0
   43.5100   19.7350   36.9710 H   0  0  0  0  0  0  0  0  0  0  0  0
   40.0600   22.5320   36.7410 C   0  0  0  0  0  0  0  0  0  0  0  0
   39.7970   23.0900   37.9890 C   0  0  0  0  0  0  0  0  0  0  0  0
   38.5130   23.4430   38.3660 C   0  0  0  0  0  0  0  0  0  0  0  0
   37.5130   23.2050   37.4300 C   0  0  0  0  0  0  0  0  0  0  0  0
   37.7230   22.6430   36.1610 C   0  0  0  0  0  0  0  0  0  0  0  0
   39.0450   22.3060   35.8330 C   0  0  0  0  0  0  0  0  0  0  0  0
   40.4480   23.2970   38.8220 H   0  0  0  0  0  0  0  0  0  0  0  0
   38.1850   23.8760   39.2820 H   0  0  0  0  0  0  0  0  0  0  0  0
   36.4510   23.4450   37.6170 H   0  0  0  0  0  0  0  0  0  0  0  0
   36.9160   22.4760   35.4720 H   0  0  0  0  0  0  0  0  0  0  0  0
   39.2950   21.8720   34.8830 H   0  0  0  0  0  0  0  0  0  0  0  0
   41.8600   24.3350   35.2870 C   0  0  0  0  0  0  0  0  0  0  0  0
   41.3670   25.4390   34.8690 C   0  0  0  0  0  3  0  0  0  0  0  0
   40.3460   26.4960   34.8530 C   0  0  0  0  0  2  0  0  0  0  0  0
   39.8570   26.5410   33.8610 H   0  0  0  0  0  0  0  0  0  0  0  0
  1  2  1  0  0  0  0
  1  6  1  0  0  0  0
  2  3  1  0  0  0  0
  3  9  1  0  0  0  0
  3  4  2  0  0  0  0
  5  4  1  0  0  0  0
  5  8  1  0  0  0  0
  6  5  2  0  0  0  0
  7  1  1  0  0  0  0
  9 10  1  0  0  0  0
 10 11  2  0  0  0  0
 10 15  1  0  0  0  0
 11 16  1  0  0  0  0
 12 17  1  0  0  0  0
 12 11  1  0  0  0  0
 13 12  2  0  0  0  0
 14 13  1  0  0  0  0
 14  9  2  0  0  0  0
 18 13  1  0  0  0  0
 19 14  1  0  0  0  0
 20  2  2  0  0  0  0
 21 20  2  0  0  0  0
 22 21  1  0  0  0  0
 23 22  1  0  0  0  0
M  END
>  <minimizedAffinity>
-4.19069624

$$$$

 OpenBabel03272509123D

 23 24  0  0  0  0  0  0  0  0999 V2000
   36.9050   25.5880   32.2630 C   0  0  0  0  0  3  0  0  0  0  0  0
   36.9190   24.1770   32.3940 C   0  0  0  0  0  0  0  0  0  0  0  0
   36.0100   23.4330   31.6920 C   0  0  0  0  0  0  0  0  0  0  0  0
   35.1500   24.1190   30.9160 N   0  0  0  0  0  0  0  0  0  0  0  0
   35.1420   25.4610   30.8000 C   0  0  0  0  0  0  0  0  0  0  0  0
   36.0110   26.1850   31.4650 N   0  0  0  0  0  0  0  0  0  0  0  0
   37.5720   26.2740   32.7620 H   0  0  0  0  0  0  0  0  0  0  0  0
   34.4060   25.8590   30.1560 H   0  0  0  0  0  0  0  0  0  0  0  0
   35.9230   21.9850   31.7270 C   0  0  0  0  0  0  0  0  0  0  0  0
   36.7000   21.3050   30.7930 C   0  0  0  0  0  0  0  0  0  0  0  0
   36.7350   19.9220   30.7530 C   0  0  0  0  0  0  0  0  0  0  0  0
   35.9520   19.2620   31.6930 C   0  0  0  0  0  0  0  0  0  0  0  0
   35.1490   19.8970   32.6530 C   0  0  0  0  0  0  0  0  0  0  0  0
   35.1530   21.3000   32.6470 C   0  0  0  0  0  0  0  0  0  0  0  0
   37.3200   21.6690   29.9910 H   0  0  0  0  0  0  0  0  0  0  0  0
   37.2860   19.2900   30.0950 H   0  0  0  0  0  0  0  0  0  0  0  0
   35.8990   18.1610   31.7580 H   0  0  0  0  0  0  0  0  0  0  0  0
   34.5580   19.3430   33.3580 H   0  0  0  0  0  0  0  0  0  0  0  0
   34.5680   21.8670   33.3470 H   0  0  0  0  0  0  0  0  0  0  0  0
   37.8010   23.5800   33.3180 C   0  0  0  0  0  0  0  0  0  0  0  0
   38.5140   23.0110   34.2140 C   0  0  0  0  0  3  0  0  0  0  0  0
   38.6960   22.2650   35.4680 C   0  0  0  0  0  2  0  0  0  0  0  0
   39.2540   22.8790   36.2010 H   0  0  0  0  0  0  0  0  0  0  0  0
  1  2  1  0  0  0  0
  1  7  1  0  0  0  0
  2 20  2  0  0  0  0
  3  9  1  0  0  0  0
  3  2  1  0  0  0  0
  4  3  2  0  0  0  0
  5  4  1  0  0  0  0
  5  6  2  0  0  0  0
  6  1  1  0  0  0  0
  8  5  1  0  0  0  0
  9 14  1  0  0  0  0
 10  9  2  0  0  0  0
 11 10  1  0  0  0  0
 11 12  2  0  0  0  0
 12 17  1  0  0  0  0
 12 13  1  0  0  0  0
 13 18  1  0  0  0  0
 14 13  2  0  0  0  0
 14 19  1  0  0  0  0
 15 10  1  0  0  0  0
 16 11  1  0  0  0  0
 20 21  2  0  0  0  0
 21 22  1  0  0  0  0
 22 23  1  0  0  0  0
M  END
>  <minimizedAffinity>
-4.18891811

$$$$

 OpenBabel03272509123D

 23 24  0  0  0  0  0  0  0  0999 V2000
   37.0610   24.5680   32.4170 C   0  0  0  0  0  3  0  0  0  0  0  0
   37.1420   25.9810   32.4880 C   0  0  0  0  0  0  0  0  0  0  0  0
   36.2180   26.7370   31.8200 C   0  0  0  0  0  0  0  0  0  0  0  0
   35.2830   26.0600   31.1260 N   0  0  0  0  0  0  0  0  0  0  0  0
   35.2160   24.7160   31.0610 C   0  0  0  0  0  0  0  0  0  0  0  0
   36.0940   23.9810   31.7010 N   0  0  0  0  0  0  0  0  0  0  0  0
   37.7280   23.8740   32.9030 H   0  0  0  0  0  0  0  0  0  0  0  0
   34.4290   24.3270   30.4750 H   0  0  0  0  0  0  0  0  0  0  0  0
   36.1800   28.1880   31.8190 C   0  0  0  0  0  0  0  0  0  0  0  0
   35.6050   28.7830   32.9380 C   0  0  0  0  0  0  0  0  0  0  0  0
   35.5480   30.1590   33.0740 C   0  0  0  0  0  0  0  0  0  0  0  0
   36.0920   30.9010   32.0320 C   0  0  0  0  0  0  0  0  0  0  0  0
   36.6790   30.3520   30.8820 C   0  0  0  0  0  0  0  0  0  0  0  0
   36.7110   28.9520   30.7980 C   0  0  0  0  0  0  0  0  0  0  0  0
   35.1170   28.3520   33.7960 H   0  0  0  0  0  0  0  0  0  0  0  0
   35.1410   30.7310   33.8760 H   0  0  0  0  0  0  0  0  0  0  0  0
   36.1040   32.0060   32.0290 H   0  0  0  0  0  0  0  0  0  0  0  0
   37.0850   30.9680   30.1010 H   0  0  0  0  0  0  0  0  0  0  0  0
   37.1420   28.4490   29.9530 H   0  0  0  0  0  0  0  0  0  0  0  0
   38.2280   26.5750   33.1630 C   0  0  0  0  0  0  0  0  0  0  0  0
   39.2470   27.0140   33.8000 C   0  0  0  0  0  3  0  0  0  0  0  0
   40.4740   26.8410   34.5910 C   0  0  0  0  0  2  0  0  0  0  0  0
   40.3460   27.2850   35.5970 H   0  0  0  0  0  0  0  0  0  0  0  0
  1  2  1  0  0  0  0
  1  7  1  0  0  0  0
  2 20  2  0  0  0  0
  3  2  1  0  0  0  0
  4  3  2  0  0  0  0
  5  4  1  0  0  0  0
  5  6  2  0  0  0  0
  6  1  1  0  0  0  0
  8  5  1  0  0  0  0
  9  3  1  0  0  0  0
  9 10  1  0  0  0  0
 10 11  2  0  0  0  0
 10 15  1  0  0  0  0
 11 16  1  0  0  0  0
 12 11  1  0  0  0  0
 13 12  2  0  0  0  0
 14 13  1  0  0  0  0
 14  9  2  0  0  0  0
 17 12  1  0  0  0  0
 18 13  1  0  0  0  0
 19 14  1  0  0  0  0
 20 21  2  0  0  0  0
 21 22  1  0  0  0  0
 22 23  1  0  0  0  0
M  END
>  <minimizedAffinity>
-4.18332577

$$$$

 OpenBabel03272509123D

 23 24  0  0  0  0  0  0  0  0999 V2000
   36.4600   29.0490   31.0770 C   0  0  0  0  0  3  0  0  0  0  0  0
   36.5960   28.5100   32.3810 C   0  0  0  0  0  0  0  0  0  0  0  0
   37.5540   27.5620   32.6150 C   0  0  0  0  0  0  0  0  0  0  0  0
   38.3090   27.2030   31.5590 N   0  0  0  0  0  0  0  0  0  0  0  0
   38.1700   27.7190   30.3220 C   0  0  0  0  0  0  0  0  0  0  0  0
   37.2580   28.6310   30.0860 N   0  0  0  0  0  0  0  0  0  0  0  0
   35.7470   29.8000   30.7770 H   0  0  0  0  0  0  0  0  0  0  0  0
   38.8320   27.3380   29.5930 H   0  0  0  0  0  0  0  0  0  0  0  0
   37.8050   26.9390   33.9010 C   0  0  0  0  0  0  0  0  0  0  0  0
   37.6890   25.5520   33.9390 C   0  0  0  0  0  0  0  0  0  0  0  0
   37.9450   24.8380   35.0960 C   0  0  0  0  0  0  0  0  0  0  0  0
   38.3180   25.5850   36.2080 C   0  0  0  0  0  0  0  0  0  0  0  0
   38.4470   26.9820   36.2250 C   0  0  0  0  0  0  0  0  0  0  0  0
   38.1770   27.6540   35.0230 C   0  0  0  0  0  0  0  0  0  0  0  0
   37.3790   24.8480   33.1850 H   0  0  0  0  0  0  0  0  0  0  0  0
   37.8940   23.7850   35.2520 H   0  0  0  0  0  0  0  0  0  0  0  0
   38.5470   25.1260   37.1860 H   0  0  0  0  0  0  0  0  0  0  0  0
   38.7370   27.5160   37.1110 H   0  0  0  0  0  0  0  0  0  0  0  0
   38.2510   28.7220   34.9470 H   0  0  0  0  0  0  0  0  0  0  0  0
   35.6780   28.8900   33.3820 C   0  0  0  0  0  0  0  0  0  0  0  0
   34.8590   29.3370   34.2570 C   0  0  0  0  0  3  0  0  0  0  0  0
   34.1290   30.4140   34.9410 C   0  0  0  0  0  2  0  0  0  0  0  0
   34.4340   30.4680   36.0040 H   0  0  0  0  0  0  0  0  0  0  0  0
  1  2  1  0  0  0  0
  2  3  1  0  0  0  0
  2 20  2  0  0  0  0
  3  9  1  0  0  0  0
  4  3  2  0  0  0  0
  5  4  1  0  0  0  0
  6  5  2  0  0  0  0
  6  1  1  0  0  0  0
  7  1  1  0  0  0  0
  8  5  1  0  0  0  0
  9 10  2  0  0  0  0
  9 14  1  0  0  0  0
 10 11  1  0  0  0  0
 11 16  1  0  0  0  0
 11 12  2  0  0  0  0
 12 13  1  0  0  0  0
 12 17  1  0  0  0  0
 13 18  1  0  0  0  0
 14 13  2  0  0  0  0
 15 10  1  0  0  0  0
 19 14  1  0  0  0  0
 20 21  2  0  0  0  0
 21 22  1  0  0  0  0
 22 23  1  0  0  0  0
M  END
>  <minimizedAffinity>
-4.11391354

$$$$
