
 OpenBabel03272509493D

 28 29  0  0  0  0  0  0  0  0999 V2000
   33.7330   28.6030   48.7380 C   0  0  0  0  0  0  0  0  0  0  0  0
   34.1910   29.1240   47.8900 H   0  0  0  0  0  0  0  0  0  0  0  0
   33.1110   29.3590   49.2880 H   0  0  0  0  0  0  0  0  0  0  0  0
   32.8270   27.4860   48.3280 C   0  0  0  0  0  0  0  0  0  0  0  0
   33.0690   27.1510   47.2820 H   0  0  0  0  0  0  0  0  0  0  0  0
   32.9640   26.5850   48.9730 H   0  0  0  0  0  0  0  0  0  0  0  0
   31.3930   27.8730   48.3340 C   0  0  0  0  0  0  0  0  0  0  0  0
   30.7150   27.7400   49.5200 C   0  0  0  0  0  0  0  0  0  0  0  0
   29.3820   28.0660   49.6570 C   0  0  0  0  0  0  0  0  0  0  0  0
   28.7250   28.5280   48.5990 N   0  0  0  0  0  0  0  0  0  0  0  0
   29.3940   28.6630   47.4200 C   0  0  0  0  0  0  0  0  0  0  0  0
   30.6960   28.3470   47.2790 N   0  0  0  0  0  0  0  0  0  0  0  0
   31.2090   27.3670   50.4130 H   0  0  0  0  0  0  0  0  0  0  0  0
   28.8710   27.9530   50.5970 H   0  0  0  0  0  0  0  0  0  0  0  0
   28.9240   29.0330   46.5120 H   0  0  0  0  0  0  0  0  0  0  0  0
   34.6980   28.1490   49.6820 O   0  0  0  0  0  0  0  0  0  0  0  0
   37.1730   30.1680   51.3780 C   0  0  0  0  0  0  0  0  0  0  0  0
   37.8670   30.6810   50.2770 C   0  0  0  0  0  0  0  0  0  0  0  0
   37.4530   30.3100   48.9940 C   0  0  0  0  0  0  0  0  0  0  0  0
   36.3780   29.4560   48.9050 N   0  0  0  0  0  0  0  0  0  0  0  0
   35.7370   28.9830   49.9880 C   0  0  0  0  0  0  0  0  0  0  0  0
   36.1460   29.3490   51.2220 N   0  0  0  0  0  0  0  0  0  0  0  0
   37.5390   30.4900   52.3450 H   0  0  0  0  0  0  0  0  0  0  0  0
   38.7140   31.3540   50.3430 H   0  0  0  0  0  0  0  0  0  0  0  0
   38.1020   30.7840   47.7620 C   0  0  0  0  0  3  0  0  0  0  0  0
   38.7640   31.9290   47.7120 C   0  0  0  0  0  3  0  0  0  0  0  0
   39.3790   32.3000   46.4050 C   0  0  0  0  0  2  0  0  0  0  0  0
   38.6800   32.0220   45.5970 H   0  0  0  0  0  0  0  0  0  0  0  0
  1  3  1  0  0  0  0
  1 16  1  0  0  0  0
  2  1  1  0  0  0  0
  4  7  1  0  0  0  0
  4  1  1  0  0  0  0
  4  6  1  0  0  0  0
  5  4  1  0  0  0  0
  7  8  1  0  0  0  0
  8  9  2  0  0  0  0
  8 13  1  0  0  0  0
  9 14  1  0  0  0  0
 10  9  1  0  0  0  0
 11 10  2  0  0  0  0
 12 11  1  0  0  0  0
 12  7  2  0  0  0  0
 15 11  1  0  0  0  0
 16 21  1  0  0  0  0
 17 23  1  0  0  0  0
 18 24  1  0  0  0  0
 18 17  2  0  0  0  0
 19 18  1  0  0  0  0
 20 19  2  0  0  0  0
 20 21  1  0  0  0  0
 21 22  2  0  0  0  0
 22 17  1  0  0  0  0
 25 19  1  0  0  0  0
 26 25  2  0  0  0  0
 27 26  1  0  0  0  0
 28 27  1  0  0  0  0
M  END
>  <minimizedAffinity>
-5.28141403

>  <minimizedRMSD>
0.513088763

$$$$
