
 OpenBabel03272501473D

 42 45  0  0  1  0  0  0  0  0999 V2000
   37.3400   26.9930   35.0570 C   0  0  0  0  0  0  0  0  0  0  0  0
   37.6990   25.7700   34.4440 C   0  0  0  0  0  0  0  0  0  0  0  0
   37.3300   25.5840   33.1160 C   0  0  0  0  0  0  0  0  0  0  0  0
   36.6520   26.5740   32.4910 N   0  0  0  0  0  0  0  0  0  0  0  0
   36.3200   27.7390   33.1040 C   0  0  0  0  0  0  0  0  0  0  0  0
   36.6680   27.9300   34.3750 N   0  0  0  0  0  0  0  0  0  0  0  0
   37.5980   27.1940   36.0840 H   0  0  0  0  0  0  0  0  0  0  0  0
   37.6170   24.6580   32.6910 H   0  0  0  0  0  0  0  0  0  0  0  0
   37.9230   24.5920   36.5440 C   0  0  0  0  0  0  0  0  0  0  0  0
   38.4210   24.8480   35.2920 C   0  0  0  0  0  0  0  0  0  0  0  0
   39.5830   24.1920   34.9470 C   0  0  0  0  0  0  0  0  0  0  0  0
   40.1930   23.3190   35.8560 C   0  0  0  0  0  0  0  0  0  0  0  0
   41.2950   22.5720   35.7870 N   0  0  0  0  0  0  0  0  0  0  0  0
   41.4640   21.9050   36.9150 C   0  0  0  0  0  0  0  0  0  0  0  0
   40.4430   22.2200   37.7550 N   0  0  0  0  0  0  0  0  0  0  0  0
   39.6620   23.0980   37.0860 C   0  0  0  0  0  0  0  0  0  0  0  0
   38.5120   23.7390   37.4450 C   0  0  0  0  0  0  0  0  0  0  0  0
   37.0110   25.0820   36.8670 H   0  0  0  0  0  0  0  0  0  0  0  0
   39.9960   24.3750   33.9670 H   0  0  0  0  0  0  0  0  0  0  0  0
   41.9550   22.4970   34.9780 H   0  0  0  0  0  0  0  0  0  0  0  0
   42.2310   21.2090   37.2300 H   0  0  0  0  0  0  0  0  0  0  0  0
   38.0960   23.5600   38.4210 H   0  0  0  0  0  0  0  0  0  0  0  0
   35.5750   28.7540   32.3140 C   0  0  0  0  0  0  0  0  0  0  0  0
   35.5740   28.3860   31.2610 H   0  0  0  0  0  0  0  0  0  0  0  0
   34.5180   28.7410   32.6380 H   0  0  0  0  0  0  0  0  0  0  0  0
   36.2120   30.0920   32.3480 C   0  0  1  0  0  0  0  0  0  0  0  0
   36.4570   30.5160   30.8950 C   0  0  0  0  0  0  0  0  0  0  0  0
   35.7280   31.8110   30.6920 C   0  0  0  0  0  0  0  0  0  0  0  0
   34.6290   31.7580   31.7160 C   0  0  0  0  0  0  0  0  0  0  0  0
   35.4000   31.1990   32.9170 C   0  0  1  0  0  0  0  0  0  0  0  0
   37.1950   29.9930   32.8840 H   0  0  0  0  0  0  0  0  0  0  0  0
   37.5630   30.6880   30.7700 H   0  0  0  0  0  0  0  0  0  0  0  0
   36.1380   29.7530   30.1810 H   0  0  0  0  0  0  0  0  0  0  0  0
   36.3870   32.6610   30.9330 H   0  0  0  0  0  0  0  0  0  0  0  0
   35.3410   31.9460   29.6750 H   0  0  0  0  0  0  0  0  0  0  0  0
   33.9030   30.9750   31.4040 H   0  0  0  0  0  0  0  0  0  0  0  0
   34.1760   32.7250   31.9550 H   0  0  0  0  0  0  0  0  0  0  0  0
   36.1250   32.0220   33.1820 H   0  0  0  0  0  0  0  0  0  0  0  0
   34.5270   30.8560   34.0380 C   0  0  0  0  0  2  0  0  0  0  0  0
   34.7400   30.9860   35.3510 C   0  0  0  0  0  2  0  0  0  0  0  0
   36.0600   31.5650   35.7000 C   0  0  0  0  0  2  0  0  0  0  0  0
   36.1430   31.6790   36.8000 H   0  0  0  0  0  0  0  0  0  0  0  0
  1  7  1  0  0  0  0
  2  1  1  0  0  0  0
  2 10  1  0  0  0  0
  3  2  2  0  0  0  0
  4  5  2  0  0  0  0
  4  3  1  0  0  0  0
  5  6  1  0  0  0  0
  6  1  2  0  0  0  0
  8  3  1  0  0  0  0
  9 18  1  0  0  0  0
  9 17  1  0  0  0  0
 10  9  2  0  0  0  0
 11 10  1  0  0  0  0
 11 12  2  0  0  0  0
 12 16  1  0  0  0  0
 13 12  1  0  0  0  0
 13 14  1  0  0  0  0
 14 21  1  0  0  0  0
 14 15  2  0  0  0  0
 16 17  2  0  0  0  0
 16 15  1  0  0  0  0
 17 22  1  0  0  0  0
 19 11  1  0  0  0  0
 20 13  1  0  0  0  0
 23 26  1  0  0  0  0
 23 25  1  0  0  0  0
 23  5  1  0  0  0  0
 24 23  1  0  0  0  0
 26 31  1  1  0  0  0
 26 30  1  0  0  0  0
 27 26  1  0  0  0  0
 28 27  1  0  0  0  0
 28 34  1  0  0  0  0
 28 29  1  0  0  0  0
 29 37  1  0  0  0  0
 29 30  1  0  0  0  0
 30 38  1  1  0  0  0
 30 39  1  0  0  0  0
 32 27  1  0  0  0  0
 33 27  1  0  0  0  0
 35 28  1  0  0  0  0
 36 29  1  0  0  0  0
 39 40  1  0  0  0  0
 40 41  1  0  0  0  0
 41 42  1  0  0  0  0
M  END
>  <minimizedAffinity>
-5.73539972

$$$$

 OpenBabel03272501473D

 42 45  0  0  1  0  0  0  0  0999 V2000
   37.9490   27.2380   35.5330 C   0  0  0  0  0  0  0  0  0  0  0  0
   38.2010   26.1430   34.6730 C   0  0  0  0  0  0  0  0  0  0  0  0
   37.5370   26.1190   33.4520 C   0  0  0  0  0  0  0  0  0  0  0  0
   36.6930   27.1340   33.1570 N   0  0  0  0  0  0  0  0  0  0  0  0
   36.4690   28.1740   34.0010 C   0  0  0  0  0  0  0  0  0  0  0  0
   37.0990   28.2100   35.1730 N   0  0  0  0  0  0  0  0  0  0  0  0
   38.4340   27.3110   36.4920 H   0  0  0  0  0  0  0  0  0  0  0  0
   37.7510   25.2860   32.8360 H   0  0  0  0  0  0  0  0  0  0  0  0
   40.4310   25.2100   34.7260 C   0  0  0  0  0  0  0  0  0  0  0  0
   39.1380   25.1670   35.1820 C   0  0  0  0  0  0  0  0  0  0  0  0
   38.8420   24.1810   36.0990 C   0  0  0  0  0  0  0  0  0  0  0  0
   39.8360   23.2900   36.5180 C   0  0  0  0  0  0  0  0  0  0  0  0
   39.8280   22.2660   37.3730 N   0  0  0  0  0  0  0  0  0  0  0  0
   41.0290   21.7190   37.4390 C   0  0  0  0  0  0  0  0  0  0  0  0
   41.8550   22.4000   36.6030 N   0  0  0  0  0  0  0  0  0  0  0  0
   41.1040   23.3710   36.0380 C   0  0  0  0  0  0  0  0  0  0  0  0
   41.4160   24.3410   35.1280 C   0  0  0  0  0  0  0  0  0  0  0  0
   40.7190   25.9650   34.0030 H   0  0  0  0  0  0  0  0  0  0  0  0
   37.8310   24.1260   36.4740 H   0  0  0  0  0  0  0  0  0  0  0  0
   39.0130   21.9180   37.9280 H   0  0  0  0  0  0  0  0  0  0  0  0
   41.4050   20.8820   38.0130 H   0  0  0  0  0  0  0  0  0  0  0  0
   42.4220   24.4000   34.7510 H   0  0  0  0  0  0  0  0  0  0  0  0
   35.5200   29.2330   33.5670 C   0  0  0  0  0  0  0  0  0  0  0  0
   35.9780   29.7080   32.6680 H   0  0  0  0  0  0  0  0  0  0  0  0
   34.5940   28.7450   33.2110 H   0  0  0  0  0  0  0  0  0  0  0  0
   35.3090   30.2760   34.5980 C   0  0  1  0  0  0  0  0  0  0  0  0
   35.7900   31.6060   34.0060 C   0  0  0  0  0  0  0  0  0  0  0  0
   34.6210   32.5440   34.0390 C   0  0  0  0  0  0  0  0  0  0  0  0
   33.4330   31.6240   34.0120 C   0  0  0  0  0  0  0  0  0  0  0  0
   33.9010   30.5430   34.9930 C   0  0  1  0  0  0  0  0  0  0  0  0
   35.9360   30.0100   35.4930 H   0  0  0  0  0  0  0  0  0  0  0  0
   36.6060   32.0020   34.6740 H   0  0  0  0  0  0  0  0  0  0  0  0
   36.1900   31.4890   32.9960 H   0  0  0  0  0  0  0  0  0  0  0  0
   34.6080   33.1020   34.9900 H   0  0  0  0  0  0  0  0  0  0  0  0
   34.6080   33.2630   33.2120 H   0  0  0  0  0  0  0  0  0  0  0  0
   33.3840   31.1510   33.0070 H   0  0  0  0  0  0  0  0  0  0  0  0
   32.4930   32.0770   34.3450 H   0  0  0  0  0  0  0  0  0  0  0  0
   33.9440   31.0760   35.9860 H   0  0  0  0  0  0  0  0  0  0  0  0
   33.0050   29.3890   35.0290 C   0  0  0  0  0  2  0  0  0  0  0  0
   32.0730   29.0650   35.9310 C   0  0  0  0  0  2  0  0  0  0  0  0
   31.9450   30.0320   37.0490 C   0  0  0  0  0  2  0  0  0  0  0  0
   31.1270   29.7160   37.7280 H   0  0  0  0  0  0  0  0  0  0  0  0
  1  7  1  0  0  0  0
  2 10  1  0  0  0  0
  2  1  2  0  0  0  0
  3  2  1  0  0  0  0
  4  3  2  0  0  0  0
  4  5  1  0  0  0  0
  5  6  2  0  0  0  0
  6  1  1  0  0  0  0
  8  3  1  0  0  0  0
  9 17  2  0  0  0  0
  9 10  1  0  0  0  0
 10 11  2  0  0  0  0
 11 19  1  0  0  0  0
 11 12  1  0  0  0  0
 12 13  1  0  0  0  0
 13 14  1  0  0  0  0
 13 20  1  0  0  0  0
 14 21  1  0  0  0  0
 15 14  2  0  0  0  0
 16 12  2  0  0  0  0
 16 15  1  0  0  0  0
 17 16  1  0  0  0  0
 18  9  1  0  0  0  0
 22 17  1  0  0  0  0
 23  5  1  0  0  0  0
 23 26  1  0  0  0  0
 24 23  1  0  0  0  0
 25 23  1  0  0  0  0
 26 30  1  0  0  0  0
 26 31  1  1  0  0  0
 27 28  1  0  0  0  0
 27 26  1  0  0  0  0
 27 32  1  0  0  0  0
 28 34  1  0  0  0  0
 29 28  1  0  0  0  0
 29 37  1  0  0  0  0
 29 30  1  0  0  0  0
 30 39  1  0  0  0  0
 30 38  1  1  0  0  0
 33 27  1  0  0  0  0
 35 28  1  0  0  0  0
 36 29  1  0  0  0  0
 39 40  1  0  0  0  0
 40 41  1  0  0  0  0
 41 42  1  0  0  0  0
M  END
>  <minimizedAffinity>
-5.70763779

$$$$

 OpenBabel03272501473D

 42 45  0  0  1  0  0  0  0  0999 V2000
   37.7290   25.9660   33.2780 C   0  0  0  0  0  0  0  0  0  0  0  0
   38.1420   26.1890   34.6120 C   0  0  0  0  0  0  0  0  0  0  0  0
   37.6240   27.3010   35.2680 C   0  0  0  0  0  0  0  0  0  0  0  0
   36.7620   28.1000   34.5990 N   0  0  0  0  0  0  0  0  0  0  0  0
   36.3810   27.8620   33.3170 C   0  0  0  0  0  0  0  0  0  0  0  0
   36.8690   26.8010   32.6780 N   0  0  0  0  0  0  0  0  0  0  0  0
   38.0960   25.1220   32.7180 H   0  0  0  0  0  0  0  0  0  0  0  0
   37.9560   27.4350   36.2640 H   0  0  0  0  0  0  0  0  0  0  0  0
   40.3670   25.2430   34.6870 C   0  0  0  0  0  0  0  0  0  0  0  0
   39.0710   25.2140   35.1380 C   0  0  0  0  0  0  0  0  0  0  0  0
   38.7650   24.2430   36.0660 C   0  0  0  0  0  0  0  0  0  0  0  0
   39.7530   23.3510   36.5020 C   0  0  0  0  0  0  0  0  0  0  0  0
   39.7350   22.3390   37.3700 N   0  0  0  0  0  0  0  0  0  0  0  0
   40.9310   21.7850   37.4480 C   0  0  0  0  0  0  0  0  0  0  0  0
   41.7660   22.4500   36.6070 N   0  0  0  0  0  0  0  0  0  0  0  0
   41.0230   23.4180   36.0260 C   0  0  0  0  0  0  0  0  0  0  0  0
   41.3440   24.3740   35.1050 C   0  0  0  0  0  0  0  0  0  0  0  0
   40.6620   25.9870   33.9550 H   0  0  0  0  0  0  0  0  0  0  0  0
   37.7530   24.1990   36.4370 H   0  0  0  0  0  0  0  0  0  0  0  0
   38.9140   22.0030   37.9260 H   0  0  0  0  0  0  0  0  0  0  0  0
   41.3000   20.9540   38.0350 H   0  0  0  0  0  0  0  0  0  0  0  0
   42.3520   24.4220   34.7320 H   0  0  0  0  0  0  0  0  0  0  0  0
   35.4260   28.8110   32.6870 C   0  0  0  0  0  0  0  0  0  0  0  0
   35.2210   28.4100   31.6660 H   0  0  0  0  0  0  0  0  0  0  0  0
   34.4660   28.7520   33.2320 H   0  0  0  0  0  0  0  0  0  0  0  0
   35.9770   30.1810   32.5550 C   0  0  1  0  0  0  0  0  0  0  0  0
   36.0050   30.5180   31.0600 C   0  0  0  0  0  0  0  0  0  0  0  0
   35.1760   31.7540   30.8780 C   0  0  0  0  0  0  0  0  0  0  0  0
   34.2240   31.7100   32.0400 C   0  0  0  0  0  0  0  0  0  0  0  0
   35.1770   31.2770   33.1600 C   0  0  1  0  0  0  0  0  0  0  0  0
   37.0250   30.1720   32.9620 H   0  0  0  0  0  0  0  0  0  0  0  0
   37.0730   30.7410   30.7800 H   0  0  0  0  0  0  0  0  0  0  0  0
   35.6460   29.6920   30.4420 H   0  0  0  0  0  0  0  0  0  0  0  0
   35.8060   32.6530   30.9780 H   0  0  0  0  0  0  0  0  0  0  0  0
   34.6540   31.7980   29.9150 H   0  0  0  0  0  0  0  0  0  0  0  0
   33.5140   30.8700   31.8740 H   0  0  0  0  0  0  0  0  0  0  0  0
   33.7450   32.6660   32.2780 H   0  0  0  0  0  0  0  0  0  0  0  0
   35.8760   32.1550   33.2760 H   0  0  0  0  0  0  0  0  0  0  0  0
   34.4780   30.9640   34.4050 C   0  0  0  0  0  2  0  0  0  0  0  0
   34.8540   31.1860   35.6680 C   0  0  0  0  0  2  0  0  0  0  0  0
   36.1750   31.8460   35.8040 C   0  0  0  0  0  2  0  0  0  0  0  0
   36.3940   32.0320   36.8750 H   0  0  0  0  0  0  0  0  0  0  0  0
  1  2  1  0  0  0  0
  2 10  1  0  0  0  0
  2  3  2  0  0  0  0
  3  8  1  0  0  0  0
  4  3  1  0  0  0  0
  5  4  2  0  0  0  0
  6  1  2  0  0  0  0
  6  5  1  0  0  0  0
  7  1  1  0  0  0  0
  9 17  2  0  0  0  0
  9 10  1  0  0  0  0
 10 11  2  0  0  0  0
 11 19  1  0  0  0  0
 11 12  1  0  0  0  0
 12 13  1  0  0  0  0
 13 14  1  0  0  0  0
 13 20  1  0  0  0  0
 14 21  1  0  0  0  0
 15 14  2  0  0  0  0
 16 12  2  0  0  0  0
 16 15  1  0  0  0  0
 17 16  1  0  0  0  0
 18  9  1  0  0  0  0
 22 17  1  0  0  0  0
 23 25  1  0  0  0  0
 23  5  1  0  0  0  0
 24 23  1  0  0  0  0
 26 23  1  0  0  0  0
 26 31  1  1  0  0  0
 26 30  1  0  0  0  0
 27 26  1  0  0  0  0
 28 34  1  0  0  0  0
 28 27  1  0  0  0  0
 28 29  1  0  0  0  0
 29 37  1  0  0  0  0
 29 30  1  0  0  0  0
 30 38  1  1  0  0  0
 30 39  1  0  0  0  0
 32 27  1  0  0  0  0
 33 27  1  0  0  0  0
 35 28  1  0  0  0  0
 36 29  1  0  0  0  0
 39 40  1  0  0  0  0
 40 41  1  0  0  0  0
 41 42  1  0  0  0  0
M  END
>  <minimizedAffinity>
-5.66252661

$$$$

 OpenBabel03272501473D

 42 45  0  0  1  0  0  0  0  0999 V2000
   36.8420   27.9820   34.6950 C   0  0  0  0  0  0  0  0  0  0  0  0
   36.1110   28.8990   33.9050 C   0  0  0  0  0  0  0  0  0  0  0  0
   36.2420   28.8040   32.5230 C   0  0  0  0  0  0  0  0  0  0  0  0
   37.0560   27.8500   32.0180 N   0  0  0  0  0  0  0  0  0  0  0  0
   37.7480   26.9810   32.8010 C   0  0  0  0  0  0  0  0  0  0  0  0
   37.6300   27.0610   34.1240 N   0  0  0  0  0  0  0  0  0  0  0  0
   36.7800   28.0070   35.7710 H   0  0  0  0  0  0  0  0  0  0  0  0
   35.6800   29.5060   31.9650 H   0  0  0  0  0  0  0  0  0  0  0  0
   33.9510   29.8700   34.3970 C   0  0  0  0  0  0  0  0  0  0  0  0
   35.3000   29.8390   34.6460 C   0  0  0  0  0  0  0  0  0  0  0  0
   35.7700   30.7200   35.5960 C   0  0  0  0  0  0  0  0  0  0  0  0
   34.8860   31.5860   36.2500 C   0  0  0  0  0  0  0  0  0  0  0  0
   35.0640   32.5170   37.1880 N   0  0  0  0  0  0  0  0  0  0  0  0
   33.9090   33.0810   37.4930 C   0  0  0  0  0  0  0  0  0  0  0  0
   32.9380   32.5050   36.7360 N   0  0  0  0  0  0  0  0  0  0  0  0
   33.5570   31.5800   35.9690 C   0  0  0  0  0  0  0  0  0  0  0  0
   33.0730   30.7140   35.0310 C   0  0  0  0  0  0  0  0  0  0  0  0
   33.5280   29.1980   33.6590 H   0  0  0  0  0  0  0  0  0  0  0  0
   36.8280   30.7150   35.8100 H   0  0  0  0  0  0  0  0  0  0  0  0
   35.9670   32.7900   37.6390 H   0  0  0  0  0  0  0  0  0  0  0  0
   33.6560   33.8630   38.1980 H   0  0  0  0  0  0  0  0  0  0  0  0
   32.0200   30.7150   34.8130 H   0  0  0  0  0  0  0  0  0  0  0  0
   38.6110   25.9730   32.1300 C   0  0  0  0  0  0  0  0  0  0  0  0
   39.6500   26.3730   32.1830 H   0  0  0  0  0  0  0  0  0  0  0  0
   38.6110   25.0530   32.7420 H   0  0  0  0  0  0  0  0  0  0  0  0
   38.2540   25.7660   30.7070 C   0  0  1  0  0  0  0  0  0  0  0  0
   39.5610   25.7760   29.9040 C   0  0  0  0  0  0  0  0  0  0  0  0
   39.6420   24.4600   29.1910 C   0  0  0  0  0  0  0  0  0  0  0  0
   38.8140   23.5450   30.0490 C   0  0  0  0  0  0  0  0  0  0  0  0
   37.6280   24.4620   30.3630 C   0  0  1  0  0  0  0  0  0  0  0  0
   37.6050   26.6250   30.3840 H   0  0  0  0  0  0  0  0  0  0  0  0
   39.4910   26.6070   29.1470 H   0  0  0  0  0  0  0  0  0  0  0  0
   40.4340   25.9510   30.5370 H   0  0  0  0  0  0  0  0  0  0  0  0
   39.1650   24.5340   28.2000 H   0  0  0  0  0  0  0  0  0  0  0  0
   40.6660   24.0910   29.0590 H   0  0  0  0  0  0  0  0  0  0  0  0
   39.3590   23.3790   31.0040 H   0  0  0  0  0  0  0  0  0  0  0  0
   38.4810   22.6270   29.5540 H   0  0  0  0  0  0  0  0  0  0  0  0
   37.1220   24.6060   29.3650 H   0  0  0  0  0  0  0  0  0  0  0  0
   36.7230   23.8930   31.3590 C   0  0  0  0  0  2  0  0  0  0  0  0
   35.4320   24.1600   31.5860 C   0  0  0  0  0  2  0  0  0  0  0  0
   34.8550   25.1860   30.6840 C   0  0  0  0  0  2  0  0  0  0  0  0
   33.7770   25.3190   30.9070 H   0  0  0  0  0  0  0  0  0  0  0  0
  1  7  1  0  0  0  0
  2 10  1  0  0  0  0
  2  1  2  0  0  0  0
  3  2  1  0  0  0  0
  4  3  2  0  0  0  0
  4  5  1  0  0  0  0
  5  6  2  0  0  0  0
  6  1  1  0  0  0  0
  8  3  1  0  0  0  0
  9 10  2  0  0  0  0
  9 17  1  0  0  0  0
 10 11  1  0  0  0  0
 11 19  1  0  0  0  0
 11 12  2  0  0  0  0
 12 13  1  0  0  0  0
 13 14  1  0  0  0  0
 13 20  1  0  0  0  0
 14 21  1  0  0  0  0
 15 14  2  0  0  0  0
 16 12  1  0  0  0  0
 16 15  1  0  0  0  0
 17 16  2  0  0  0  0
 18  9  1  0  0  0  0
 22 17  1  0  0  0  0
 23 24  1  0  0  0  0
 23 25  1  0  0  0  0
 23  5  1  0  0  0  0
 26 31  1  6  0  0  0
 26 23  1  0  0  0  0
 27 33  1  0  0  0  0
 27 26  1  0  0  0  0
 28 27  1  0  0  0  0
 28 29  1  0  0  0  0
 29 30  1  0  0  0  0
 29 36  1  0  0  0  0
 30 38  1  6  0  0  0
 30 26  1  0  0  0  0
 30 39  1  0  0  0  0
 32 27  1  0  0  0  0
 34 28  1  0  0  0  0
 35 28  1  0  0  0  0
 37 29  1  0  0  0  0
 39 40  1  0  0  0  0
 41 42  1  0  0  0  0
 41 40  1  0  0  0  0
M  END
>  <minimizedAffinity>
-5.58646345

$$$$

 OpenBabel03272501473D

 42 45  0  0  1  0  0  0  0  0999 V2000
   36.9940   26.2840   33.2440 C   0  0  0  0  0  0  0  0  0  0  0  0
   36.4220   25.8570   32.0230 C   0  0  0  0  0  0  0  0  0  0  0  0
   35.6630   26.7800   31.3120 C   0  0  0  0  0  0  0  0  0  0  0  0
   35.5130   28.0230   31.8240 N   0  0  0  0  0  0  0  0  0  0  0  0
   36.0740   28.4070   33.0010 C   0  0  0  0  0  0  0  0  0  0  0  0
   36.8030   27.5330   33.6900 N   0  0  0  0  0  0  0  0  0  0  0  0
   37.5920   25.6130   33.8400 H   0  0  0  0  0  0  0  0  0  0  0  0
   35.2520   26.4250   30.4030 H   0  0  0  0  0  0  0  0  0  0  0  0
   37.9990   24.1540   31.3450 C   0  0  0  0  0  0  0  0  0  0  0  0
   36.7050   24.4870   31.6580 C   0  0  0  0  0  0  0  0  0  0  0  0
   35.7770   23.4710   31.5970 C   0  0  0  0  0  0  0  0  0  0  0  0
   36.1720   22.1790   31.2300 C   0  0  0  0  0  0  0  0  0  0  0  0
   35.5000   21.0350   31.0930 N   0  0  0  0  0  0  0  0  0  0  0  0
   36.3200   20.0680   30.7210 C   0  0  0  0  0  0  0  0  0  0  0  0
   37.5710   20.5870   30.6100 N   0  0  0  0  0  0  0  0  0  0  0  0
   37.4660   21.8970   30.9280 C   0  0  0  0  0  0  0  0  0  0  0  0
   38.4000   22.8910   30.9820 C   0  0  0  0  0  0  0  0  0  0  0  0
   38.7710   24.9150   31.3760 H   0  0  0  0  0  0  0  0  0  0  0  0
   34.7520   23.7070   31.8400 H   0  0  0  0  0  0  0  0  0  0  0  0
   34.4760   20.8860   31.2470 H   0  0  0  0  0  0  0  0  0  0  0  0
   36.1460   19.0200   30.5140 H   0  0  0  0  0  0  0  0  0  0  0  0
   39.4230   22.6610   30.7420 H   0  0  0  0  0  0  0  0  0  0  0  0
   35.8400   29.8000   33.4620 C   0  0  0  0  0  0  0  0  0  0  0  0
   36.8370   30.3010   33.4480 H   0  0  0  0  0  0  0  0  0  0  0  0
   35.2320   30.3220   32.7010 H   0  0  0  0  0  0  0  0  0  0  0  0
   35.2950   29.8680   34.8380 C   0  0  1  0  0  0  0  0  0  0  0  0
   36.1240   30.9060   35.6050 C   0  0  0  0  0  0  0  0  0  0  0  0
   35.1660   31.9530   36.0900 C   0  0  0  0  0  0  0  0  0  0  0  0
   34.0300   31.8690   35.1090 C   0  0  0  0  0  0  0  0  0  0  0  0
   33.8960   30.3490   34.9740 C   0  0  1  0  0  0  0  0  0  0  0  0
   35.4240   28.8560   35.3110 H   0  0  0  0  0  0  0  0  0  0  0  0
   36.5870   30.3860   36.4910 H   0  0  0  0  0  0  0  0  0  0  0  0
   36.9200   31.3340   34.9930 H   0  0  0  0  0  0  0  0  0  0  0  0
   34.7830   31.6850   37.0890 H   0  0  0  0  0  0  0  0  0  0  0  0
   35.5990   32.9590   36.1390 H   0  0  0  0  0  0  0  0  0  0  0  0
   34.3910   32.2520   34.1290 H   0  0  0  0  0  0  0  0  0  0  0  0
   33.0930   32.3180   35.4520 H   0  0  0  0  0  0  0  0  0  0  0  0
   33.5420   30.0150   35.9920 H   0  0  0  0  0  0  0  0  0  0  0  0
   32.9670   29.9560   33.9160 C   0  0  0  0  0  2  0  0  0  0  0  0
   31.8600   29.2100   33.9900 C   0  0  0  0  0  2  0  0  0  0  0  0
   31.5470   28.7190   35.3540 C   0  0  0  0  0  2  0  0  0  0  0  0
   30.5970   28.1470   35.3390 H   0  0  0  0  0  0  0  0  0  0  0  0
  1  6  1  0  0  0  0
  1  7  1  0  0  0  0
  2  1  2  0  0  0  0
  3  4  2  0  0  0  0
  3  2  1  0  0  0  0
  4  5  1  0  0  0  0
  5 23  1  0  0  0  0
  5  6  2  0  0  0  0
  8  3  1  0  0  0  0
  9 18  1  0  0  0  0
  9 10  1  0  0  0  0
 10  2  1  0  0  0  0
 11 10  2  0  0  0  0
 11 19  1  0  0  0  0
 12 11  1  0  0  0  0
 13 12  1  0  0  0  0
 13 20  1  0  0  0  0
 14 13  1  0  0  0  0
 15 14  2  0  0  0  0
 15 16  1  0  0  0  0
 16 17  1  0  0  0  0
 16 12  2  0  0  0  0
 17  9  2  0  0  0  0
 21 14  1  0  0  0  0
 22 17  1  0  0  0  0
 23 26  1  0  0  0  0
 24 23  1  0  0  0  0
 25 23  1  0  0  0  0
 26 30  1  0  0  0  0
 26 31  1  1  0  0  0
 26 27  1  0  0  0  0
 27 28  1  0  0  0  0
 27 32  1  0  0  0  0
 28 35  1  0  0  0  0
 28 34  1  0  0  0  0
 29 37  1  0  0  0  0
 29 28  1  0  0  0  0
 30 29  1  0  0  0  0
 30 38  1  1  0  0  0
 33 27  1  0  0  0  0
 36 29  1  0  0  0  0
 39 40  1  0  0  0  0
 39 30  1  0  0  0  0
 40 41  1  0  0  0  0
 42 41  1  0  0  0  0
M  END
>  <minimizedAffinity>
-5.52275848

$$$$

 OpenBabel03272501473D

 42 45  0  0  1  0  0  0  0  0999 V2000
   38.2650   27.1760   35.7560 C   0  0  0  0  0  0  0  0  0  0  0  0
   38.3080   26.0330   34.9250 C   0  0  0  0  0  0  0  0  0  0  0  0
   37.4800   26.0200   33.8080 C   0  0  0  0  0  0  0  0  0  0  0  0
   36.6850   27.0900   33.5820 N   0  0  0  0  0  0  0  0  0  0  0  0
   36.6630   28.1760   34.3970 C   0  0  0  0  0  0  0  0  0  0  0  0
   37.4520   28.2020   35.4690 N   0  0  0  0  0  0  0  0  0  0  0  0
   38.8840   27.2440   36.6360 H   0  0  0  0  0  0  0  0  0  0  0  0
   37.5400   25.1490   33.2090 H   0  0  0  0  0  0  0  0  0  0  0  0
   40.4120   24.8690   34.6680 C   0  0  0  0  0  0  0  0  0  0  0  0
   39.2270   25.0010   35.3480 C   0  0  0  0  0  0  0  0  0  0  0  0
   39.0160   24.1240   36.3890 C   0  0  0  0  0  0  0  0  0  0  0  0
   39.9830   23.1630   36.7070 C   0  0  0  0  0  0  0  0  0  0  0  0
   40.0380   22.2120   37.6400 N   0  0  0  0  0  0  0  0  0  0  0  0
   41.1730   21.5440   37.5430 C   0  0  0  0  0  0  0  0  0  0  0  0
   41.8910   22.0670   36.5150 N   0  0  0  0  0  0  0  0  0  0  0  0
   41.1420   23.0700   36.0040 C   0  0  0  0  0  0  0  0  0  0  0  0
   41.3690   23.9300   34.9690 C   0  0  0  0  0  0  0  0  0  0  0  0
   40.6300   25.5330   33.8390 H   0  0  0  0  0  0  0  0  0  0  0  0
   38.0910   24.2060   36.9400 H   0  0  0  0  0  0  0  0  0  0  0  0
   39.3100   21.9960   38.3600 H   0  0  0  0  0  0  0  0  0  0  0  0
   41.5700   20.7150   38.1160 H   0  0  0  0  0  0  0  0  0  0  0  0
   42.2890   23.8530   34.4160 H   0  0  0  0  0  0  0  0  0  0  0  0
   35.7490   29.2940   34.0460 C   0  0  0  0  0  0  0  0  0  0  0  0
   35.1020   29.4560   34.9390 H   0  0  0  0  0  0  0  0  0  0  0  0
   36.3500   30.2150   33.9390 H   0  0  0  0  0  0  0  0  0  0  0  0
   34.8820   28.9860   32.8830 C   0  0  1  0  0  0  0  0  0  0  0  0
   33.4430   29.3260   33.2860 C   0  0  0  0  0  0  0  0  0  0  0  0
   32.9460   30.3430   32.3020 C   0  0  0  0  0  0  0  0  0  0  0  0
   34.2050   31.0080   31.8210 C   0  0  0  0  0  0  0  0  0  0  0  0
   35.1140   29.7860   31.6530 C   0  0  1  0  0  0  0  0  0  0  0  0
   34.9670   27.8850   32.6720 H   0  0  0  0  0  0  0  0  0  0  0  0
   32.8300   28.3860   33.1910 H   0  0  0  0  0  0  0  0  0  0  0  0
   33.3740   29.6870   34.3140 H   0  0  0  0  0  0  0  0  0  0  0  0
   32.4680   29.8410   31.4440 H   0  0  0  0  0  0  0  0  0  0  0  0
   32.2340   31.0600   32.7280 H   0  0  0  0  0  0  0  0  0  0  0  0
   34.6200   31.6100   32.6590 H   0  0  0  0  0  0  0  0  0  0  0  0
   34.1040   31.5560   30.8790 H   0  0  0  0  0  0  0  0  0  0  0  0
   34.6430   29.2100   30.8050 H   0  0  0  0  0  0  0  0  0  0  0  0
   36.5000   30.1500   31.3640 C   0  0  0  0  0  2  0  0  0  0  0  0
   37.4100   29.5090   30.6240 C   0  0  0  0  0  2  0  0  0  0  0  0
   36.9220   28.2480   30.0160 C   0  0  0  0  0  2  0  0  0  0  0  0
   37.7180   27.8000   29.3860 H   0  0  0  0  0  0  0  0  0  0  0  0
  1  7  1  0  0  0  0
  2 10  1  0  0  0  0
  2  1  2  0  0  0  0
  3  2  1  0  0  0  0
  4  3  2  0  0  0  0
  4  5  1  0  0  0  0
  5  6  2  0  0  0  0
  6  1  1  0  0  0  0
  8  3  1  0  0  0  0
  9 17  2  0  0  0  0
  9 10  1  0  0  0  0
 10 11  2  0  0  0  0
 11 12  1  0  0  0  0
 11 19  1  0  0  0  0
 12 13  1  0  0  0  0
 13 20  1  0  0  0  0
 14 13  1  0  0  0  0
 14 21  1  0  0  0  0
 15 14  2  0  0  0  0
 16 15  1  0  0  0  0
 16 12  2  0  0  0  0
 17 16  1  0  0  0  0
 18  9  1  0  0  0  0
 22 17  1  0  0  0  0
 23  5  1  0  0  0  0
 23 24  1  0  0  0  0
 25 23  1  0  0  0  0
 26 31  1  6  0  0  0
 26 27  1  0  0  0  0
 26 23  1  0  0  0  0
 27 33  1  0  0  0  0
 28 35  1  0  0  0  0
 28 27  1  0  0  0  0
 29 28  1  0  0  0  0
 29 36  1  0  0  0  0
 30 38  1  6  0  0  0
 30 29  1  0  0  0  0
 30 26  1  0  0  0  0
 32 27  1  0  0  0  0
 34 28  1  0  0  0  0
 37 29  1  0  0  0  0
 39 30  1  0  0  0  0
 40 39  1  0  0  0  0
 41 40  1  0  0  0  0
 42 41  1  0  0  0  0
M  END
>  <minimizedAffinity>
-5.50471544

$$$$

 OpenBabel03272501473D

 42 45  0  0  1  0  0  0  0  0999 V2000
   35.1520   25.8910   31.1440 C   0  0  0  0  0  0  0  0  0  0  0  0
   36.2810   26.5250   31.7120 C   0  0  0  0  0  0  0  0  0  0  0  0
   37.3540   25.7190   32.0770 C   0  0  0  0  0  0  0  0  0  0  0  0
   37.2590   24.3860   31.8700 N   0  0  0  0  0  0  0  0  0  0  0  0
   36.1620   23.8030   31.3210 C   0  0  0  0  0  0  0  0  0  0  0  0
   35.1280   24.5630   30.9670 N   0  0  0  0  0  0  0  0  0  0  0  0
   34.2900   26.4630   30.8420 H   0  0  0  0  0  0  0  0  0  0  0  0
   38.1810   26.2280   32.4990 H   0  0  0  0  0  0  0  0  0  0  0  0
   36.4360   28.7350   30.7440 C   0  0  0  0  0  0  0  0  0  0  0  0
   36.1760   27.9600   31.8470 C   0  0  0  0  0  0  0  0  0  0  0  0
   35.8340   28.6300   33.0010 C   0  0  0  0  0  0  0  0  0  0  0  0
   35.7650   30.0280   33.0090 C   0  0  0  0  0  0  0  0  0  0  0  0
   35.4670   30.9110   33.9620 N   0  0  0  0  0  0  0  0  0  0  0  0
   35.5370   32.1400   33.4820 C   0  0  0  0  0  0  0  0  0  0  0  0
   35.8920   32.0680   32.1730 N   0  0  0  0  0  0  0  0  0  0  0  0
   36.0310   30.7530   31.8910 C   0  0  0  0  0  0  0  0  0  0  0  0
   36.3720   30.1070   30.7380 C   0  0  0  0  0  0  0  0  0  0  0  0
   36.7100   28.2600   29.8090 H   0  0  0  0  0  0  0  0  0  0  0  0
   35.6250   28.0430   33.8830 H   0  0  0  0  0  0  0  0  0  0  0  0
   35.2100   30.7010   34.9550 H   0  0  0  0  0  0  0  0  0  0  0  0
   35.3670   33.1030   33.9470 H   0  0  0  0  0  0  0  0  0  0  0  0
   36.5820   30.6870   29.8560 H   0  0  0  0  0  0  0  0  0  0  0  0
   36.1730   22.3270   31.1410 C   0  0  0  0  0  0  0  0  0  0  0  0
   35.4080   22.1060   30.3600 H   0  0  0  0  0  0  0  0  0  0  0  0
   37.1450   22.0380   30.7000 H   0  0  0  0  0  0  0  0  0  0  0  0
   35.8150   21.5930   32.3770 C   0  0  1  0  0  0  0  0  0  0  0  0
   34.6280   20.6830   32.0380 C   0  0  0  0  0  0  0  0  0  0  0  0
   35.0560   19.2790   32.3480 C   0  0  0  0  0  0  0  0  0  0  0  0
   36.5530   19.3330   32.2180 C   0  0  0  0  0  0  0  0  0  0  0  0
   36.8420   20.6650   32.9180 C   0  0  1  0  0  0  0  0  0  0  0  0
   35.5040   22.3480   33.1500 H   0  0  0  0  0  0  0  0  0  0  0  0
   33.7740   20.9690   32.7130 H   0  0  0  0  0  0  0  0  0  0  0  0
   34.3070   20.7910   31.0000 H   0  0  0  0  0  0  0  0  0  0  0  0
   34.8070   19.0270   33.3920 H   0  0  0  0  0  0  0  0  0  0  0  0
   34.6090   18.5250   31.6900 H   0  0  0  0  0  0  0  0  0  0  0  0
   36.8020   19.4700   31.1420 H   0  0  0  0  0  0  0  0  0  0  0  0
   37.0860   18.5090   32.7030 H   0  0  0  0  0  0  0  0  0  0  0  0
   36.5620   20.4730   33.9940 H   0  0  0  0  0  0  0  0  0  0  0  0
   38.2350   21.0840   32.7800 C   0  0  0  0  0  2  0  0  0  0  0  0
   39.0140   21.7410   33.6450 C   0  0  0  0  0  2  0  0  0  0  0  0
   38.3480   22.0860   34.9250 C   0  0  0  0  0  2  0  0  0  0  0  0
   39.0690   22.5890   35.6010 H   0  0  0  0  0  0  0  0  0  0  0  0
  1  2  1  0  0  0  0
  2 10  1  0  0  0  0
  2  3  2  0  0  0  0
  3  8  1  0  0  0  0
  4  3  1  0  0  0  0
  5  4  2  0  0  0  0
  6  1  2  0  0  0  0
  6  5  1  0  0  0  0
  7  1  1  0  0  0  0
  9 10  1  0  0  0  0
 10 11  2  0  0  0  0
 11 12  1  0  0  0  0
 11 19  1  0  0  0  0
 12 13  1  0  0  0  0
 13 20  1  0  0  0  0
 14 21  1  0  0  0  0
 14 13  1  0  0  0  0
 15 14  2  0  0  0  0
 16 15  1  0  0  0  0
 16 12  2  0  0  0  0
 17  9  2  0  0  0  0
 17 16  1  0  0  0  0
 18  9  1  0  0  0  0
 22 17  1  0  0  0  0
 23  5  1  0  0  0  0
 23 26  1  0  0  0  0
 24 23  1  0  0  0  0
 25 23  1  0  0  0  0
 26 30  1  0  0  0  0
 26 31  1  1  0  0  0
 27 28  1  0  0  0  0
 27 26  1  0  0  0  0
 27 32  1  0  0  0  0
 28 34  1  0  0  0  0
 29 28  1  0  0  0  0
 29 37  1  0  0  0  0
 29 30  1  0  0  0  0
 30 38  1  1  0  0  0
 33 27  1  0  0  0  0
 35 28  1  0  0  0  0
 36 29  1  0  0  0  0
 39 30  1  0  0  0  0
 39 40  1  0  0  0  0
 40 41  1  0  0  0  0
 41 42  1  0  0  0  0
M  END
>  <minimizedAffinity>
-5.4696908

$$$$

 OpenBabel03272501473D

 42 45  0  0  1  0  0  0  0  0999 V2000
   38.7640   27.1560   35.1300 C   0  0  0  0  0  0  0  0  0  0  0  0
   38.0730   26.8660   33.9310 C   0  0  0  0  0  0  0  0  0  0  0  0
   38.3910   25.6820   33.2760 C   0  0  0  0  0  0  0  0  0  0  0  0
   39.3370   24.8800   33.8170 N   0  0  0  0  0  0  0  0  0  0  0  0
   39.9860   25.1830   34.9710 C   0  0  0  0  0  0  0  0  0  0  0  0
   39.6890   26.3140   35.6080 N   0  0  0  0  0  0  0  0  0  0  0  0
   38.5600   28.0590   35.6820 H   0  0  0  0  0  0  0  0  0  0  0  0
   37.8540   25.4990   32.3820 H   0  0  0  0  0  0  0  0  0  0  0  0
   36.2730   28.3830   34.4880 C   0  0  0  0  0  0  0  0  0  0  0  0
   37.1010   27.8580   33.5270 C   0  0  0  0  0  0  0  0  0  0  0  0
   36.9300   28.3300   32.2440 C   0  0  0  0  0  0  0  0  0  0  0  0
   35.9520   29.2950   31.9750 C   0  0  0  0  0  0  0  0  0  0  0  0
   35.5790   29.9130   30.8530 N   0  0  0  0  0  0  0  0  0  0  0  0
   34.5940   30.7560   31.1050 C   0  0  0  0  0  0  0  0  0  0  0  0
   34.3060   30.6950   32.4310 N   0  0  0  0  0  0  0  0  0  0  0  0
   35.1550   29.7850   32.9600 C   0  0  0  0  0  0  0  0  0  0  0  0
   35.3100   29.3290   34.2370 C   0  0  0  0  0  0  0  0  0  0  0  0
   36.3640   28.0460   35.5150 H   0  0  0  0  0  0  0  0  0  0  0  0
   37.5690   27.9330   31.4700 H   0  0  0  0  0  0  0  0  0  0  0  0
   35.9830   29.7770   29.8980 H   0  0  0  0  0  0  0  0  0  0  0  0
   34.0390   31.4240   30.4580 H   0  0  0  0  0  0  0  0  0  0  0  0
   34.6750   29.7210   35.0130 H   0  0  0  0  0  0  0  0  0  0  0  0
   41.0060   24.2230   35.4700 C   0  0  0  0  0  0  0  0  0  0  0  0
   41.8780   24.3150   34.7810 H   0  0  0  0  0  0  0  0  0  0  0  0
   41.3620   24.5750   36.4550 H   0  0  0  0  0  0  0  0  0  0  0  0
   40.5330   22.8190   35.4510 C   0  0  1  0  0  0  0  0  0  0  0  0
   41.6560   21.9680   34.8470 C   0  0  0  0  0  0  0  0  0  0  0  0
   42.0180   20.9350   35.8720 C   0  0  0  0  0  0  0  0  0  0  0  0
   41.6190   21.5770   37.1710 C   0  0  0  0  0  0  0  0  0  0  0  0
   40.2720   22.1900   36.7720 C   0  0  1  0  0  0  0  0  0  0  0  0
   39.6230   22.7690   34.7920 H   0  0  0  0  0  0  0  0  0  0  0  0
   41.2440   21.4570   33.9320 H   0  0  0  0  0  0  0  0  0  0  0  0
   42.5190   22.5700   34.5530 H   0  0  0  0  0  0  0  0  0  0  0  0
   41.4080   20.0280   35.7300 H   0  0  0  0  0  0  0  0  0  0  0  0
   43.0770   20.6510   35.8580 H   0  0  0  0  0  0  0  0  0  0  0  0
   42.3140   22.4230   37.3680 H   0  0  0  0  0  0  0  0  0  0  0  0
   41.5030   20.8830   38.0100 H   0  0  0  0  0  0  0  0  0  0  0  0
   39.6130   21.2950   36.5740 H   0  0  0  0  0  0  0  0  0  0  0  0
   39.7180   23.0580   37.8090 C   0  0  0  0  0  2  0  0  0  0  0  0
   38.4630   23.4890   37.9750 C   0  0  0  0  0  2  0  0  0  0  0  0
   37.5110   23.0050   36.9460 C   0  0  0  0  0  2  0  0  0  0  0  0
   36.4900   23.3700   37.1770 H   0  0  0  0  0  0  0  0  0  0  0  0
  1  6  1  0  0  0  0
  1  7  1  0  0  0  0
  2  1  2  0  0  0  0
  3  4  2  0  0  0  0
  3  2  1  0  0  0  0
  4  5  1  0  0  0  0
  5 23  1  0  0  0  0
  5  6  2  0  0  0  0
  8  3  1  0  0  0  0
  9 18  1  0  0  0  0
 10  2  1  0  0  0  0
 10  9  2  0  0  0  0
 11 10  1  0  0  0  0
 12 11  2  0  0  0  0
 12 16  1  0  0  0  0
 13 14  1  0  0  0  0
 13 12  1  0  0  0  0
 14 15  2  0  0  0  0
 15 16  1  0  0  0  0
 16 17  2  0  0  0  0
 17  9  1  0  0  0  0
 17 22  1  0  0  0  0
 19 11  1  0  0  0  0
 20 13  1  0  0  0  0
 21 14  1  0  0  0  0
 23 25  1  0  0  0  0
 24 23  1  0  0  0  0
 26 31  1  6  0  0  0
 26 23  1  0  0  0  0
 26 30  1  0  0  0  0
 27 26  1  0  0  0  0
 27 28  1  0  0  0  0
 28 29  1  0  0  0  0
 29 36  1  0  0  0  0
 29 37  1  0  0  0  0
 30 38  1  6  0  0  0
 30 29  1  0  0  0  0
 30 39  1  0  0  0  0
 32 27  1  0  0  0  0
 33 27  1  0  0  0  0
 34 28  1  0  0  0  0
 35 28  1  0  0  0  0
 39 40  1  0  0  0  0
 41 42  1  0  0  0  0
 41 40  1  0  0  0  0
M  END
>  <minimizedAffinity>
-5.4638772

$$$$

 OpenBabel03272501473D

 42 45  0  0  1  0  0  0  0  0999 V2000
   37.0780   26.1110   33.1930 C   0  0  0  0  0  0  0  0  0  0  0  0
   37.0840   27.2080   34.0850 C   0  0  0  0  0  0  0  0  0  0  0  0
   37.7470   27.0460   35.2970 C   0  0  0  0  0  0  0  0  0  0  0  0
   38.3430   25.8590   35.5530 N   0  0  0  0  0  0  0  0  0  0  0  0
   38.3220   24.8210   34.6770 C   0  0  0  0  0  0  0  0  0  0  0  0
   37.6910   24.9630   33.5130 N   0  0  0  0  0  0  0  0  0  0  0  0
   36.5800   26.1760   32.2390 H   0  0  0  0  0  0  0  0  0  0  0  0
   37.7310   27.8880   35.9390 H   0  0  0  0  0  0  0  0  0  0  0  0
   35.8840   29.2550   34.5510 C   0  0  0  0  0  0  0  0  0  0  0  0
   36.3860   28.3840   33.6170 C   0  0  0  0  0  0  0  0  0  0  0  0
   36.1780   28.7130   32.2950 C   0  0  0  0  0  0  0  0  0  0  0  0
   35.4850   29.8840   31.9630 C   0  0  0  0  0  0  0  0  0  0  0  0
   35.1490   30.4320   30.7950 N   0  0  0  0  0  0  0  0  0  0  0  0
   34.4880   31.5580   30.9950 C   0  0  0  0  0  0  0  0  0  0  0  0
   34.3840   31.7610   32.3340 N   0  0  0  0  0  0  0  0  0  0  0  0
   35.0060   30.7160   32.9240 C   0  0  0  0  0  0  0  0  0  0  0  0
   35.2030   30.4060   34.2390 C   0  0  0  0  0  0  0  0  0  0  0  0
   36.0200   29.0450   35.6060 H   0  0  0  0  0  0  0  0  0  0  0  0
   36.5630   28.0440   31.5410 H   0  0  0  0  0  0  0  0  0  0  0  0
   35.3590   30.0570   29.8410 H   0  0  0  0  0  0  0  0  0  0  0  0
   34.0600   32.2720   30.3020 H   0  0  0  0  0  0  0  0  0  0  0  0
   34.8210   31.0690   34.9950 H   0  0  0  0  0  0  0  0  0  0  0  0
   39.0140   23.5650   35.0680 C   0  0  0  0  0  0  0  0  0  0  0  0
   38.2140   22.8620   35.3960 H   0  0  0  0  0  0  0  0  0  0  0  0
   39.4570   23.1150   34.1600 H   0  0  0  0  0  0  0  0  0  0  0  0
   39.9660   23.7560   36.1880 C   0  0  1  0  0  0  0  0  0  0  0  0
   39.5750   22.7670   37.2910 C   0  0  0  0  0  0  0  0  0  0  0  0
   40.7740   21.9030   37.5450 C   0  0  0  0  0  0  0  0  0  0  0  0
   41.5220   21.9530   36.2420 C   0  0  0  0  0  0  0  0  0  0  0  0
   41.3910   23.4420   35.9070 C   0  0  1  0  0  0  0  0  0  0  0  0
   39.8500   24.8090   36.5640 H   0  0  0  0  0  0  0  0  0  0  0  0
   39.3420   23.3630   38.2180 H   0  0  0  0  0  0  0  0  0  0  0  0
   38.6960   22.1750   37.0250 H   0  0  0  0  0  0  0  0  0  0  0  0
   41.4080   22.3520   38.3270 H   0  0  0  0  0  0  0  0  0  0  0  0
   40.5250   20.8770   37.8410 H   0  0  0  0  0  0  0  0  0  0  0  0
   40.9320   21.3960   35.4820 H   0  0  0  0  0  0  0  0  0  0  0  0
   42.5740   21.6540   36.3050 H   0  0  0  0  0  0  0  0  0  0  0  0
   41.9940   23.9570   36.7100 H   0  0  0  0  0  0  0  0  0  0  0  0
   41.8770   23.7640   34.5670 C   0  0  0  0  0  2  0  0  0  0  0  0
   42.8660   24.5830   34.1950 C   0  0  0  0  0  2  0  0  0  0  0  0
   43.5570   25.2540   35.3230 C   0  0  0  0  0  2  0  0  0  0  0  0
   44.3870   25.8800   34.9370 H   0  0  0  0  0  0  0  0  0  0  0  0
  1  6  2  0  0  0  0
  1  2  1  0  0  0  0
  2  3  2  0  0  0  0
  3  4  1  0  0  0  0
  3  8  1  0  0  0  0
  5 23  1  0  0  0  0
  5  4  2  0  0  0  0
  6  5  1  0  0  0  0
  7  1  1  0  0  0  0
  9 18  1  0  0  0  0
 10  2  1  0  0  0  0
 10  9  2  0  0  0  0
 11 10  1  0  0  0  0
 12 11  2  0  0  0  0
 12 16  1  0  0  0  0
 13 14  1  0  0  0  0
 13 12  1  0  0  0  0
 14 15  2  0  0  0  0
 15 16  1  0  0  0  0
 16 17  2  0  0  0  0
 17  9  1  0  0  0  0
 17 22  1  0  0  0  0
 19 11  1  0  0  0  0
 20 13  1  0  0  0  0
 21 14  1  0  0  0  0
 23 24  1  0  0  0  0
 23 26  1  0  0  0  0
 25 23  1  0  0  0  0
 26 31  1  1  0  0  0
 26 27  1  0  0  0  0
 27 28  1  0  0  0  0
 27 32  1  0  0  0  0
 28 35  1  0  0  0  0
 28 34  1  0  0  0  0
 29 37  1  0  0  0  0
 29 28  1  0  0  0  0
 30 26  1  0  0  0  0
 30 29  1  0  0  0  0
 30 38  1  1  0  0  0
 33 27  1  0  0  0  0
 36 29  1  0  0  0  0
 39 30  1  0  0  0  0
 40 39  1  0  0  0  0
 40 41  1  0  0  0  0
 42 41  1  0  0  0  0
M  END
>  <minimizedAffinity>
-5.45130062

$$$$
