
 OpenBabel03272509113D

 23 24  0  0  0  0  0  0  0  0999 V2000
   36.0700   31.1020   49.5140 C   0  0  0  0  0  3  0  0  0  0  0  0
   37.0750   31.5870   48.6400 C   0  0  0  0  0  0  0  0  0  0  0  0
   37.1730   31.0640   47.3800 C   0  0  0  0  0  0  0  0  0  0  0  0
   36.2870   30.1010   47.0630 N   0  0  0  0  0  0  0  0  0  0  0  0
   35.3360   29.6430   47.9020 C   0  0  0  0  0  0  0  0  0  0  0  0
   35.2300   30.1400   49.1110 N   0  0  0  0  0  0  0  0  0  0  0  0
   35.8960   31.4390   50.5230 H   0  0  0  0  0  0  0  0  0  0  0  0
   34.7150   28.8830   47.5140 H   0  0  0  0  0  0  0  0  0  0  0  0
   38.1460   31.4780   46.3860 C   0  0  0  0  0  0  0  0  0  0  0  0
   39.4270   30.9530   46.5320 C   0  0  0  0  0  0  0  0  0  0  0  0
   40.4310   31.2380   45.6240 C   0  0  0  0  0  0  0  0  0  0  0  0
   40.0850   32.0750   44.5700 C   0  0  0  0  0  0  0  0  0  0  0  0
   38.8120   32.6330   44.3770 C   0  0  0  0  0  0  0  0  0  0  0  0
   37.8320   32.3080   45.3280 C   0  0  0  0  0  0  0  0  0  0  0  0
   39.8520   30.3310   47.3010 H   0  0  0  0  0  0  0  0  0  0  0  0
   41.4420   30.9000   45.6230 H   0  0  0  0  0  0  0  0  0  0  0  0
   40.8020   32.3730   43.7840 H   0  0  0  0  0  0  0  0  0  0  0  0
   38.5930   33.2780   43.5470 H   0  0  0  0  0  0  0  0  0  0  0  0
   36.8320   32.6910   45.2570 H   0  0  0  0  0  0  0  0  0  0  0  0
   38.0110   32.5250   49.1220 C   0  0  0  0  0  0  0  0  0  0  0  0
   38.8700   33.4110   49.4580 C   0  0  0  0  0  3  0  0  0  0  0  0
   39.8010   34.5130   49.1690 C   0  0  0  0  0  2  0  0  0  0  0  0
   40.8380   34.2090   49.4080 H   0  0  0  0  0  0  0  0  0  0  0  0
  1  7  1  0  0  0  0
  2 20  2  0  0  0  0
  2  1  1  0  0  0  0
  3  2  1  0  0  0  0
  4  3  2  0  0  0  0
  4  5  1  0  0  0  0
  5  6  2  0  0  0  0
  6  1  1  0  0  0  0
  8  5  1  0  0  0  0
  9 10  1  0  0  0  0
  9  3  1  0  0  0  0
 10 15  1  0  0  0  0
 11 10  2  0  0  0  0
 12 11  1  0  0  0  0
 13 12  2  0  0  0  0
 13 14  1  0  0  0  0
 14  9  2  0  0  0  0
 16 11  1  0  0  0  0
 17 12  1  0  0  0  0
 18 13  1  0  0  0  0
 19 14  1  0  0  0  0
 20 21  2  0  0  0  0
 22 23  1  0  0  0  0
 22 21  1  0  0  0  0
M  END
>  <minimizedAffinity>
-5.132792

>  <minimizedRMSD>
2.27689409

$$$$
