
 OpenBabel03272507363D

 14 14  0  0  0  0  0  0  0  0999 V2000
   36.5080   30.6600   48.7540 C   0  0  0  0  0  0  0  0  0  0  0  0
   35.7020   29.8680   49.5660 C   0  0  0  0  0  0  0  0  0  0  0  0
   36.1390   29.5780   50.8480 C   0  0  0  0  0  0  0  0  0  0  0  0
   37.3330   30.0780   51.2550 N   0  0  0  0  0  0  0  0  0  0  0  0
   38.1120   30.8510   50.4520 C   0  0  0  0  0  0  0  0  0  0  0  0
   37.6780   31.1200   49.2230 N   0  0  0  0  0  0  0  0  0  0  0  0
   35.6360   28.9910   51.5790 H   0  0  0  0  0  0  0  0  0  0  0  0
   39.0630   31.2470   50.7790 H   0  0  0  0  0  0  0  0  0  0  0  0
   35.9600   30.8730   47.5060 O   0  0  0  0  0  0  0  0  0  0  0  0
   36.5130   30.9810   46.6470 H   0  0  0  0  0  0  0  0  0  0  0  0
   34.4170   29.3190   49.1480 C   0  0  0  0  0  3  0  0  0  0  0  0
   34.2680   28.0580   48.7870 C   0  0  0  0  0  3  0  0  0  0  0  0
   33.0250   27.4230   48.3550 C   0  0  0  0  0  2  0  0  0  0  0  0
   33.1170   27.1000   47.2940 H   0  0  0  0  0  0  0  0  0  0  0  0
  1  6  2  0  0  0  0
  1  2  1  0  0  0  0
  2  3  2  0  0  0  0
  3  4  1  0  0  0  0
  3  7  1  0  0  0  0
  5  8  1  0  0  0  0
  5  4  2  0  0  0  0
  6  5  1  0  0  0  0
  9  1  1  0  0  0  0
 10  9  1  0  0  0  0
 11  2  1  0  0  0  0
 12 11  2  0  0  0  0
 13 12  1  0  0  0  0
 14 13  1  0  0  0  0
M  END
>  <minimizedAffinity>
-3.99780965

>  <minimizedRMSD>
5.10810518

$$$$
