
 OpenBabel03272509113D

 23 24  0  0  0  0  0  0  0  0999 V2000
   36.6980   31.4530   49.9810 C   0  0  0  0  0  3  0  0  0  0  0  0
   37.5480   31.8640   48.9250 C   0  0  0  0  0  0  0  0  0  0  0  0
   37.5790   31.1320   47.7690 C   0  0  0  0  0  0  0  0  0  0  0  0
   36.7830   30.0470   47.7300 N   0  0  0  0  0  0  0  0  0  0  0  0
   35.9800   29.6610   48.7410 C   0  0  0  0  0  0  0  0  0  0  0  0
   35.9380   30.3580   49.8520 N   0  0  0  0  0  0  0  0  0  0  0  0
   36.5880   31.9510   50.9320 H   0  0  0  0  0  0  0  0  0  0  0  0
   35.4150   28.7870   48.5660 H   0  0  0  0  0  0  0  0  0  0  0  0
   38.3940   31.4470   46.6110 C   0  0  0  0  0  0  0  0  0  0  0  0
   37.7600   32.1620   45.5980 C   0  0  0  0  0  0  0  0  0  0  0  0
   38.4410   32.5600   44.4610 C   0  0  0  0  0  0  0  0  0  0  0  0
   39.7830   32.2020   44.3930 C   0  0  0  0  0  0  0  0  0  0  0  0
   40.4680   31.4800   45.3830 C   0  0  0  0  0  0  0  0  0  0  0  0
   39.7280   31.1040   46.5140 C   0  0  0  0  0  0  0  0  0  0  0  0
   36.7360   32.4770   45.4890 H   0  0  0  0  0  0  0  0  0  0  0  0
   38.0750   33.1080   43.6240 H   0  0  0  0  0  0  0  0  0  0  0  0
   40.4290   32.4630   43.5360 H   0  0  0  0  0  0  0  0  0  0  0  0
   41.5070   31.2240   45.2840 H   0  0  0  0  0  0  0  0  0  0  0  0
   40.1740   30.5510   47.3190 H   0  0  0  0  0  0  0  0  0  0  0  0
   38.4130   32.9600   49.1240 C   0  0  0  0  0  0  0  0  0  0  0  0
   39.2230   33.9470   49.2010 C   0  0  0  0  0  3  0  0  0  0  0  0
   40.1860   34.9010   48.6310 C   0  0  0  0  0  2  0  0  0  0  0  0
   41.1810   34.7620   49.0950 H   0  0  0  0  0  0  0  0  0  0  0  0
  1  7  1  0  0  0  0
  2 20  2  0  0  0  0
  2  1  1  0  0  0  0
  3  2  1  0  0  0  0
  4  3  2  0  0  0  0
  4  5  1  0  0  0  0
  5  6  2  0  0  0  0
  6  1  1  0  0  0  0
  8  5  1  0  0  0  0
  9  3  1  0  0  0  0
 10  9  2  0  0  0  0
 11 10  1  0  0  0  0
 12 11  2  0  0  0  0
 12 13  1  0  0  0  0
 13 14  2  0  0  0  0
 14  9  1  0  0  0  0
 14 19  1  0  0  0  0
 15 10  1  0  0  0  0
 16 11  1  0  0  0  0
 17 12  1  0  0  0  0
 18 13  1  0  0  0  0
 20 21  2  0  0  0  0
 22 23  1  0  0  0  0
 22 21  1  0  0  0  0
M  END
>  <minimizedAffinity>
-5.1152916

>  <minimizedRMSD>
2.08976865

$$$$
