
 OpenBabel03272500583D

 30 31  0  0  0  0  0  0  0  0999 V2000
   38.1210   31.8640   47.4150 C   0  0  0  0  0  0  0  0  0  0  0  0
   38.6080   32.7360   48.3500 C   0  0  0  0  0  0  0  0  0  0  0  0
   38.1020   32.7910   49.6540 C   0  0  0  0  0  0  0  0  0  0  0  0
   37.0280   31.8740   49.9850 C   0  0  0  0  0  0  0  0  0  0  0  0
   36.5950   31.0370   49.0140 C   0  0  0  0  0  0  0  0  0  0  0  0
   37.0850   30.9930   47.7640 C   0  0  0  0  0  0  0  0  0  0  0  0
   39.4230   33.4400   48.1180 H   0  0  0  0  0  0  0  0  0  0  0  0
   38.5370   33.5110   50.3460 H   0  0  0  0  0  0  0  0  0  0  0  0
   36.7530   32.0330   50.9980 H   0  0  0  0  0  0  0  0  0  0  0  0
   35.8300   30.4440   49.4900 H   0  0  0  0  0  0  0  0  0  0  0  0
   40.0060   31.2580   45.9890 C   0  0  0  0  0  0  0  0  0  0  0  0
   38.7630   31.9130   46.1180 C   0  0  0  0  0  0  0  0  0  0  0  0
   38.3100   32.5190   44.9730 C   0  0  0  0  0  0  0  0  0  0  0  0
   39.0340   32.4650   43.8380 N   0  0  0  0  0  0  0  0  0  0  0  0
   40.1890   31.8520   43.7370 C   0  0  0  0  0  0  0  0  0  0  0  0
   40.6730   31.2490   44.8120 N   0  0  0  0  0  0  0  0  0  0  0  0
   40.4420   30.7520   46.8420 H   0  0  0  0  0  0  0  0  0  0  0  0
   37.3450   33.0270   45.0730 H   0  0  0  0  0  0  0  0  0  0  0  0
   40.7510   31.8220   42.8140 H   0  0  0  0  0  0  0  0  0  0  0  0
   35.1360   30.0150   46.8830 C   0  0  0  0  0  0  0  0  0  0  0  0
   34.5070   30.6610   47.8130 O   0  0  0  0  0  0  0  0  0  0  0  0
   36.5810   30.1350   46.8190 N   0  0  0  0  0  0  0  0  0  0  0  0
   37.1500   29.6290   46.1400 H   0  0  0  0  0  0  0  0  0  0  0  0
   34.4210   29.2480   46.0060 O   0  0  0  0  0  0  0  0  0  0  0  0
   33.5220   29.7390   45.0670 C   0  0  0  0  0  0  0  0  0  0  0  0
   33.9070   30.5250   44.0830 O   0  0  0  0  0  0  0  0  0  0  0  0
   32.0830   29.3850   45.1100 C   0  0  0  0  0  3  0  0  0  0  0  0
   31.2540   29.8580   46.0060 C   0  0  0  0  0  3  0  0  0  0  0  0
   29.8050   29.5340   46.0930 C   0  0  0  0  0  2  0  0  0  0  0  0
   29.4690   28.7980   45.3490 H   0  0  0  0  0  0  0  0  0  0  0  0
  1  6  2  0  0  0  0
  1  2  1  0  0  0  0
  2  3  2  0  0  0  0
  3  4  1  0  0  0  0
  3  8  1  0  0  0  0
  4  9  1  0  0  0  0
  5 10  1  0  0  0  0
  5  4  2  0  0  0  0
  6  5  1  0  0  0  0
  7  2  1  0  0  0  0
 11 12  1  0  0  0  0
 11 17  1  0  0  0  0
 12  1  1  0  0  0  0
 13 18  1  0  0  0  0
 13 12  2  0  0  0  0
 14 13  1  0  0  0  0
 15 14  2  0  0  0  0
 15 16  1  0  0  0  0
 16 11  2  0  0  0  0
 19 15  1  0  0  0  0
 20 21  2  0  0  0  0
 22 20  1  0  0  0  0
 22  6  1  0  0  0  0
 23 22  1  0  0  0  0
 24 20  1  0  0  0  0
 25 27  1  0  0  0  0
 25 24  1  0  0  0  0
 26 25  2  0  0  0  0
 27 28  2  0  0  0  0
 28 29  1  0  0  0  0
 30 29  1  0  0  0  0
M  END
>  <minimizedAffinity>
-5.19758272

>  <minimizedRMSD>
0.446036279

$$$$
