
 OpenBabel03272503383D

 14 14  0  0  0  0  0  0  0  0999 V2000
   39.6770   22.7630   37.6980 C   0  0  0  0  0  0  0  0  0  0  0  0
   39.9570   23.3950   36.4890 C   0  0  0  0  0  0  0  0  0  0  0  0
   39.1680   24.4900   36.1000 C   0  0  0  0  0  0  0  0  0  0  0  0
   38.1680   24.8660   36.9460 N   0  0  0  0  0  0  0  0  0  0  0  0
   37.9200   24.2310   38.1190 C   0  0  0  0  0  0  0  0  0  0  0  0
   38.6740   23.1930   38.4770 N   0  0  0  0  0  0  0  0  0  0  0  0
   40.7250   23.1460   35.7870 H   0  0  0  0  0  0  0  0  0  0  0  0
   37.1170   24.5690   38.7500 H   0  0  0  0  0  0  0  0  0  0  0  0
   40.5440   21.7130   37.9250 O   0  0  0  0  0  0  0  0  0  0  0  0
   40.4500   20.8640   37.3910 H   0  0  0  0  0  0  0  0  0  0  0  0
   39.3870   25.2120   34.8520 C   0  0  0  0  0  3  0  0  0  0  0  0
   39.9420   26.4020   34.8510 C   0  0  0  0  0  3  0  0  0  0  0  0
   40.1420   27.0960   33.5320 C   0  0  0  0  0  2  0  0  0  0  0  0
   39.1720   27.5480   33.1880 H   0  0  0  0  0  0  0  0  0  0  0  0
  1  9  1  0  0  0  0
  1  6  1  0  0  0  0
  2  1  2  0  0  0  0
  3  2  1  0  0  0  0
  3  4  2  0  0  0  0
  4  5  1  0  0  0  0
  5  6  2  0  0  0  0
  5  8  1  0  0  0  0
  7  2  1  0  0  0  0
 10  9  1  0  0  0  0
 11  3  1  0  0  0  0
 12 11  2  0  0  0  0
 13 12  1  0  0  0  0
 14 13  1  0  0  0  0
M  END
>  <minimizedAffinity>
-3.86384606

$$$$

 OpenBabel03272503383D

 14 14  0  0  0  0  0  0  0  0999 V2000
   39.0720   23.1220   37.8720 C   0  0  0  0  0  0  0  0  0  0  0  0
   38.2380   24.0860   37.3110 C   0  0  0  0  0  0  0  0  0  0  0  0
   38.6050   24.6690   36.0870 C   0  0  0  0  0  0  0  0  0  0  0  0
   39.7700   24.2440   35.5220 N   0  0  0  0  0  0  0  0  0  0  0  0
   40.5630   23.3020   36.0920 C   0  0  0  0  0  0  0  0  0  0  0  0
   40.2050   22.7560   37.2530 N   0  0  0  0  0  0  0  0  0  0  0  0
   37.3160   24.4580   37.7060 H   0  0  0  0  0  0  0  0  0  0  0  0
   41.4730   23.0030   35.6030 H   0  0  0  0  0  0  0  0  0  0  0  0
   38.5640   22.6550   39.0670 O   0  0  0  0  0  0  0  0  0  0  0  0
   38.5930   23.2430   39.8850 H   0  0  0  0  0  0  0  0  0  0  0  0
   37.7940   25.6860   35.4270 C   0  0  0  0  0  3  0  0  0  0  0  0
   38.0230   26.9630   35.6260 C   0  0  0  0  0  3  0  0  0  0  0  0
   37.1530   27.9640   34.9170 C   0  0  0  0  0  2  0  0  0  0  0  0
   36.1690   28.0580   35.4510 H   0  0  0  0  0  0  0  0  0  0  0  0
  1  9  1  0  0  0  0
  2  7  1  0  0  0  0
  2  1  1  0  0  0  0
  3  2  2  0  0  0  0
  4  3  1  0  0  0  0
  4  5  2  0  0  0  0
  5  6  1  0  0  0  0
  6  1  2  0  0  0  0
  8  5  1  0  0  0  0
  9 10  1  0  0  0  0
 11 12  2  0  0  0  0
 11  3  1  0  0  0  0
 13 14  1  0  0  0  0
 13 12  1  0  0  0  0
M  END
>  <minimizedAffinity>
-3.85361505

$$$$

 OpenBabel03272503383D

 14 14  0  0  0  0  0  0  0  0999 V2000
   38.5840   23.2020   37.8310 C   0  0  0  0  0  0  0  0  0  0  0  0
   39.8690   22.8570   37.4210 C   0  0  0  0  0  0  0  0  0  0  0  0
   40.3670   23.4020   36.2260 C   0  0  0  0  0  0  0  0  0  0  0  0
   39.5460   24.2460   35.5400 N   0  0  0  0  0  0  0  0  0  0  0  0
   38.2980   24.5640   35.9660 C   0  0  0  0  0  0  0  0  0  0  0  0
   37.8360   24.0410   37.1000 N   0  0  0  0  0  0  0  0  0  0  0  0
   40.5570   22.2030   37.9150 H   0  0  0  0  0  0  0  0  0  0  0  0
   37.6910   25.2370   35.3850 H   0  0  0  0  0  0  0  0  0  0  0  0
   38.2550   22.5810   39.0200 O   0  0  0  0  0  0  0  0  0  0  0  0
   38.0580   21.5930   39.0280 H   0  0  0  0  0  0  0  0  0  0  0  0
   41.7000   23.0970   35.7180 C   0  0  0  0  0  3  0  0  0  0  0  0
   42.7090   22.9260   36.5400 C   0  0  0  0  0  3  0  0  0  0  0  0
   44.0600   22.6130   35.9570 C   0  0  0  0  0  2  0  0  0  0  0  0
   44.5350   23.5540   35.5690 H   0  0  0  0  0  0  0  0  0  0  0  0
  1  9  1  0  0  0  0
  2  1  1  0  0  0  0
  2  7  1  0  0  0  0
  3  2  2  0  0  0  0
  4  5  2  0  0  0  0
  4  3  1  0  0  0  0
  5  6  1  0  0  0  0
  6  1  2  0  0  0  0
  8  5  1  0  0  0  0
  9 10  1  0  0  0  0
 11  3  1  0  0  0  0
 11 12  2  0  0  0  0
 13 12  1  0  0  0  0
 14 13  1  0  0  0  0
M  END
>  <minimizedAffinity>
-3.51911926

$$$$

 OpenBabel03272503383D

 14 14  0  0  0  0  0  0  0  0999 V2000
   42.1450   20.8260   37.0380 C   0  0  0  0  0  0  0  0  0  0  0  0
   41.0980   21.6250   37.4880 C   0  0  0  0  0  0  0  0  0  0  0  0
   40.4890   22.5140   36.5870 C   0  0  0  0  0  0  0  0  0  0  0  0
   40.9700   22.5320   35.3130 N   0  0  0  0  0  0  0  0  0  0  0  0
   41.9930   21.7390   34.9020 C   0  0  0  0  0  0  0  0  0  0  0  0
   42.5630   20.9010   35.7650 N   0  0  0  0  0  0  0  0  0  0  0  0
   40.6790   21.6550   38.4730 H   0  0  0  0  0  0  0  0  0  0  0  0
   42.3340   21.7940   33.8830 H   0  0  0  0  0  0  0  0  0  0  0  0
   42.6260   20.0160   38.0470 O   0  0  0  0  0  0  0  0  0  0  0  0
   43.1740   20.4170   38.7910 H   0  0  0  0  0  0  0  0  0  0  0  0
   39.3870   23.3890   36.9710 C   0  0  0  0  0  3  0  0  0  0  0  0
   38.9500   23.4170   38.2080 C   0  0  0  0  0  3  0  0  0  0  0  0
   37.8110   24.3400   38.5430 C   0  0  0  0  0  2  0  0  0  0  0  0
   36.8400   23.8830   38.2110 H   0  0  0  0  0  0  0  0  0  0  0  0
  1  2  1  0  0  0  0
  1  9  1  0  0  0  0
  2  7  1  0  0  0  0
  3 11  1  0  0  0  0
  3  2  2  0  0  0  0
  4  3  1  0  0  0  0
  5  4  2  0  0  0  0
  5  6  1  0  0  0  0
  6  1  2  0  0  0  0
  8  5  1  0  0  0  0
  9 10  1  0  0  0  0
 11 12  2  0  0  0  0
 12 13  1  0  0  0  0
 14 13  1  0  0  0  0
M  END
>  <minimizedAffinity>
-3.51296973

$$$$

 OpenBabel03272503383D

 14 14  0  0  0  0  0  0  0  0999 V2000
   40.0870   22.9720   36.6660 C   0  0  0  0  0  0  0  0  0  0  0  0
   39.4660   23.9140   35.8500 C   0  0  0  0  0  0  0  0  0  0  0  0
   38.4000   24.6650   36.3720 C   0  0  0  0  0  0  0  0  0  0  0  0
   38.0410   24.4180   37.6630 N   0  0  0  0  0  0  0  0  0  0  0  0
   38.6660   23.4930   38.4350 C   0  0  0  0  0  0  0  0  0  0  0  0
   39.6750   22.7870   37.9290 N   0  0  0  0  0  0  0  0  0  0  0  0
   39.7030   24.1510   34.8330 H   0  0  0  0  0  0  0  0  0  0  0  0
   38.3420   23.3380   39.4490 H   0  0  0  0  0  0  0  0  0  0  0  0
   41.1090   22.3280   35.9990 O   0  0  0  0  0  0  0  0  0  0  0  0
   40.8900   21.6520   35.2840 H   0  0  0  0  0  0  0  0  0  0  0  0
   37.6920   25.6720   35.5900 C   0  0  0  0  0  3  0  0  0  0  0  0
   37.9840   26.9460   35.7110 C   0  0  0  0  0  3  0  0  0  0  0  0
   37.2190   27.9370   34.8770 C   0  0  0  0  0  2  0  0  0  0  0  0
   36.2120   28.1240   35.3380 H   0  0  0  0  0  0  0  0  0  0  0  0
  1  6  1  0  0  0  0
  2  3  1  0  0  0  0
  2  1  2  0  0  0  0
  3  4  2  0  0  0  0
  4  5  1  0  0  0  0
  5  8  1  0  0  0  0
  6  5  2  0  0  0  0
  7  2  1  0  0  0  0
  9  1  1  0  0  0  0
 10  9  1  0  0  0  0
 11 12  2  0  0  0  0
 11  3  1  0  0  0  0
 13 14  1  0  0  0  0
 13 12  1  0  0  0  0
M  END
>  <minimizedAffinity>
-3.45297956

$$$$

 OpenBabel03272503383D

 14 14  0  0  0  0  0  0  0  0999 V2000
   36.3610   28.4300   30.7830 C   0  0  0  0  0  0  0  0  0  0  0  0
   36.9430   27.6000   31.7370 C   0  0  0  0  0  0  0  0  0  0  0  0
   36.7770   27.9110   33.0960 C   0  0  0  0  0  0  0  0  0  0  0  0
   36.0460   29.0220   33.3940 N   0  0  0  0  0  0  0  0  0  0  0  0
   35.4900   29.8120   32.4410 C   0  0  0  0  0  0  0  0  0  0  0  0
   35.6540   29.5070   31.1550 N   0  0  0  0  0  0  0  0  0  0  0  0
   37.5250   26.7190   31.5640 H   0  0  0  0  0  0  0  0  0  0  0  0
   34.9220   30.6780   32.7310 H   0  0  0  0  0  0  0  0  0  0  0  0
   36.6200   27.9810   29.5030 O   0  0  0  0  0  0  0  0  0  0  0  0
   37.5450   28.0830   29.1160 H   0  0  0  0  0  0  0  0  0  0  0  0
   37.3510   27.0990   34.1640 C   0  0  0  0  0  3  0  0  0  0  0  0
   37.7910   27.6540   35.2680 C   0  0  0  0  0  3  0  0  0  0  0  0
   38.3720   26.7640   36.3330 C   0  0  0  0  0  2  0  0  0  0  0  0
   39.4230   26.4780   36.0580 H   0  0  0  0  0  0  0  0  0  0  0  0
  1  6  2  0  0  0  0
  1  2  1  0  0  0  0
  2  3  2  0  0  0  0
  3  4  1  0  0  0  0
  3 11  1  0  0  0  0
  5  8  1  0  0  0  0
  5  4  2  0  0  0  0
  6  5  1  0  0  0  0
  7  2  1  0  0  0  0
  9  1  1  0  0  0  0
 10  9  1  0  0  0  0
 11 12  2  0  0  0  0
 12 13  1  0  0  0  0
 14 13  1  0  0  0  0
M  END
>  <minimizedAffinity>
-3.44843531

$$$$

 OpenBabel03272503383D

 14 14  0  0  0  0  0  0  0  0999 V2000
   37.8480   22.3580   35.9450 C   0  0  0  0  0  0  0  0  0  0  0  0
   39.2310   22.1930   35.9290 C   0  0  0  0  0  0  0  0  0  0  0  0
   39.9770   22.6300   37.0360 C   0  0  0  0  0  0  0  0  0  0  0  0
   39.2860   23.1930   38.0670 N   0  0  0  0  0  0  0  0  0  0  0  0
   37.9380   23.3400   38.0530 C   0  0  0  0  0  0  0  0  0  0  0  0
   37.2400   22.9220   36.9990 N   0  0  0  0  0  0  0  0  0  0  0  0
   39.8260   21.7600   35.1520 H   0  0  0  0  0  0  0  0  0  0  0  0
   37.4410   23.7910   38.8950 H   0  0  0  0  0  0  0  0  0  0  0  0
   37.2740   21.8760   34.7860 O   0  0  0  0  0  0  0  0  0  0  0  0
   37.3850   22.3860   33.9240 H   0  0  0  0  0  0  0  0  0  0  0  0
   41.4280   22.4990   37.1060 C   0  0  0  0  0  3  0  0  0  0  0  0
   42.2070   23.2230   36.3360 C   0  0  0  0  0  3  0  0  0  0  0  0
   43.6960   23.0420   36.4550 C   0  0  0  0  0  2  0  0  0  0  0  0
   44.0120   22.1160   35.9030 H   0  0  0  0  0  0  0  0  0  0  0  0
  1  6  1  0  0  0  0
  2  1  2  0  0  0  0
  2  3  1  0  0  0  0
  3 11  1  0  0  0  0
  3  4  2  0  0  0  0
  5  4  1  0  0  0  0
  5  8  1  0  0  0  0
  6  5  2  0  0  0  0
  7  2  1  0  0  0  0
  9  1  1  0  0  0  0
 10  9  1  0  0  0  0
 12 13  1  0  0  0  0
 12 11  2  0  0  0  0
 14 13  1  0  0  0  0
M  END
>  <minimizedAffinity>
-3.40401411

$$$$

 OpenBabel03272503383D

 14 14  0  0  0  0  0  0  0  0999 V2000
   35.4210   25.0010   30.8850 C   0  0  0  0  0  0  0  0  0  0  0  0
   35.9710   26.0030   31.6810 C   0  0  0  0  0  0  0  0  0  0  0  0
   36.9110   25.6480   32.6620 C   0  0  0  0  0  0  0  0  0  0  0  0
   37.2270   24.3270   32.7700 N   0  0  0  0  0  0  0  0  0  0  0  0
   36.6750   23.3730   31.9800 C   0  0  0  0  0  0  0  0  0  0  0  0
   35.7840   23.7210   31.0520 N   0  0  0  0  0  0  0  0  0  0  0  0
   35.7630   27.0520   31.6430 H   0  0  0  0  0  0  0  0  0  0  0  0
   36.9600   22.3430   32.1070 H   0  0  0  0  0  0  0  0  0  0  0  0
   34.5210   25.5210   29.9770 O   0  0  0  0  0  0  0  0  0  0  0  0
   33.6220   25.8450   30.2960 H   0  0  0  0  0  0  0  0  0  0  0  0
   37.5380   26.6300   33.5410 C   0  0  0  0  0  3  0  0  0  0  0  0
   37.6280   26.4150   34.8320 C   0  0  0  0  0  3  0  0  0  0  0  0
   38.2860   27.4650   35.6870 C   0  0  0  0  0  2  0  0  0  0  0  0
   37.5660   28.3060   35.8770 H   0  0  0  0  0  0  0  0  0  0  0  0
  1  6  2  0  0  0  0
  1  2  1  0  0  0  0
  2  3  2  0  0  0  0
  3  4  1  0  0  0  0
  3 11  1  0  0  0  0
  5  8  1  0  0  0  0
  5  4  2  0  0  0  0
  6  5  1  0  0  0  0
  7  2  1  0  0  0  0
  9 10  1  0  0  0  0
  9  1  1  0  0  0  0
 11 12  2  0  0  0  0
 12 13  1  0  0  0  0
 13 14  1  0  0  0  0
M  END
>  <minimizedAffinity>
-3.3931706

$$$$

 OpenBabel03272503383D

 14 14  0  0  0  0  0  0  0  0999 V2000
   36.1130   24.7470   31.2900 C   0  0  0  0  0  0  0  0  0  0  0  0
   35.5440   23.4790   31.2020 C   0  0  0  0  0  0  0  0  0  0  0  0
   36.0580   22.4500   32.0070 C   0  0  0  0  0  0  0  0  0  0  0  0
   37.0930   22.7670   32.8340 N   0  0  0  0  0  0  0  0  0  0  0  0
   37.6270   24.0130   32.8980 C   0  0  0  0  0  0  0  0  0  0  0  0
   37.1320   24.9810   32.1300 N   0  0  0  0  0  0  0  0  0  0  0  0
   34.7330   23.1720   30.5740 H   0  0  0  0  0  0  0  0  0  0  0  0
   38.4450   24.2090   33.5690 H   0  0  0  0  0  0  0  0  0  0  0  0
   35.4910   25.6350   30.4350 O   0  0  0  0  0  0  0  0  0  0  0  0
   35.6500   25.5670   29.4420 H   0  0  0  0  0  0  0  0  0  0  0  0
   35.5250   21.0920   31.9810 C   0  0  0  0  0  3  0  0  0  0  0  0
   35.8900   20.2090   32.8800 C   0  0  0  0  0  3  0  0  0  0  0  0
   35.3050   18.8250   32.8010 C   0  0  0  0  0  2  0  0  0  0  0  0
   35.8350   18.2330   32.0060 H   0  0  0  0  0  0  0  0  0  0  0  0
  1  6  1  0  0  0  0
  2  1  2  0  0  0  0
  2  3  1  0  0  0  0
  3  4  2  0  0  0  0
  4  5  1  0  0  0  0
  5  8  1  0  0  0  0
  6  5  2  0  0  0  0
  7  2  1  0  0  0  0
  9  1  1  0  0  0  0
 10  9  1  0  0  0  0
 11  3  1  0  0  0  0
 11 12  2  0  0  0  0
 13 12  1  0  0  0  0
 14 13  1  0  0  0  0
M  END
>  <minimizedAffinity>
-3.37795973

$$$$
