
 OpenBabel03272506533D

 39 41  0  0  1  0  0  0  0  0999 V2000
   34.6530   30.3210   48.5260 C   0  0  1  0  0  0  0  0  0  0  0  0
   33.6930   30.5380   47.4720 C   0  0  0  0  0  0  0  0  0  0  0  0
   33.5190   29.4090   46.4790 C   0  0  0  0  0  0  0  0  0  0  0  0
   33.5090   28.0550   47.0170 C   0  0  2  0  0  0  0  0  0  0  0  0
   34.4560   27.7820   48.1770 C   0  0  0  0  0  0  0  0  0  0  0  0
   34.4960   28.9510   49.1310 C   0  0  0  0  0  0  0  0  0  0  0  0
   34.3840   31.0100   49.3930 H   0  0  0  0  0  0  0  0  0  0  0  0
   32.6670   30.6280   47.9380 H   0  0  0  0  0  0  0  0  0  0  0  0
   33.7820   31.4510   46.8780 H   0  0  0  0  0  0  0  0  0  0  0  0
   34.4980   29.4970   45.8950 H   0  0  0  0  0  0  0  0  0  0  0  0
   32.6580   29.6050   45.8370 H   0  0  0  0  0  0  0  0  0  0  0  0
   32.5290   27.7040   47.3930 H   0  0  0  0  0  0  0  0  0  0  0  0
   34.0260   27.0310   48.8380 H   0  0  0  0  0  0  0  0  0  0  0  0
   35.4750   27.5990   47.8290 H   0  0  0  0  0  0  0  0  0  0  0  0
   35.3700   28.7880   49.7950 H   0  0  0  0  0  0  0  0  0  0  0  0
   33.6080   28.9810   49.8310 H   0  0  0  0  0  0  0  0  0  0  0  0
   33.9100   27.1340   45.9230 C   0  0  0  0  0  0  0  0  0  0  0  0
   34.5120   27.6740   44.7950 C   0  0  0  0  0  0  0  0  0  0  0  0
   34.8930   26.8840   43.7280 C   0  0  0  0  0  0  0  0  0  0  0  0
   34.6680   25.5440   43.7960 C   0  0  0  0  0  0  0  0  0  0  0  0
   34.0670   24.9920   44.9100 C   0  0  0  0  0  0  0  0  0  0  0  0
   33.6860   25.8030   45.9730 C   0  0  0  0  0  0  0  0  0  0  0  0
   34.7480   28.6990   44.5540 H   0  0  0  0  0  0  0  0  0  0  0  0
   35.3680   27.2500   42.8200 H   0  0  0  0  0  0  0  0  0  0  0  0
   34.9710   24.9030   42.9490 H   0  0  0  0  0  0  0  0  0  0  0  0
   33.9410   23.9230   44.8270 H   0  0  0  0  0  0  0  0  0  0  0  0
   32.9230   25.1240   46.9560 C   0  0  0  0  0  3  0  0  0  0  0  0
   31.6850   25.0980   47.3970 C   0  0  0  0  0  3  0  0  0  0  0  0
   30.4790   25.8560   46.9810 C   0  0  0  0  0  2  0  0  0  0  0  0
   30.4340   26.8810   47.3700 H   0  0  0  0  0  0  0  0  0  0  0  0
   36.6370   30.6030   47.0370 C   0  0  0  0  0  0  0  0  0  0  0  0
   36.0580   30.6780   48.2920 C   0  0  0  0  0  0  0  0  0  0  0  0
   36.8690   31.1170   49.3460 C   0  0  0  0  0  0  0  0  0  0  0  0
   38.1660   31.4430   49.0910 N   0  0  0  0  0  0  0  0  0  0  0  0
   38.6880   31.3520   47.8420 C   0  0  0  0  0  0  0  0  0  0  0  0
   37.9100   30.9270   46.8070 N   0  0  0  0  0  0  0  0  0  0  0  0
   36.1760   30.3100   46.1120 H   0  0  0  0  0  0  0  0  0  0  0  0
   36.4660   31.1930   50.3420 H   0  0  0  0  0  0  0  0  0  0  0  0
   39.7230   31.6350   47.7500 H   0  0  0  0  0  0  0  0  0  0  0  0
  1  6  1  0  0  0  0
  1  7  1  1  0  0  0
  2  8  1  0  0  0  0
  2  1  1  0  0  0  0
  3  4  1  0  0  0  0
  3  2  1  0  0  0  0
  4 12  1  1  0  0  0
  4  5  1  0  0  0  0
  5 13  1  0  0  0  0
  5  6  1  0  0  0  0
  6 15  1  0  0  0  0
  6 16  1  0  0  0  0
  9  2  1  0  0  0  0
 10  3  1  0  0  0  0
 11  3  1  0  0  0  0
 14  5  1  0  0  0  0
 17 22  1  0  0  0  0
 17  4  1  0  0  0  0
 18 17  2  0  0  0  0
 19 20  2  0  0  0  0
 19 18  1  0  0  0  0
 20 21  1  0  0  0  0
 21 22  2  0  0  0  0
 22 27  1  0  0  0  0
 23 18  1  0  0  0  0
 24 19  1  0  0  0  0
 25 20  1  0  0  0  0
 26 21  1  0  0  0  0
 27 28  2  0  0  0  0
 29 30  1  0  0  0  0
 29 28  1  0  0  0  0
 31 32  1  0  0  0  0
 32  1  1  0  0  0  0
 32 33  2  0  0  0  0
 33 38  1  0  0  0  0
 34 33  1  0  0  0  0
 35 34  2  0  0  0  0
 36 31  2  0  0  0  0
 36 35  1  0  0  0  0
 37 31  1  0  0  0  0
 39 35  1  0  0  0  0
M  END
>  <minimizedAffinity>
-4.24857283

>  <minimizedRMSD>
1.28260636

$$$$
