
 OpenBabel03262520393D

 29 30  0  0  1  0  0  0  0  0999 V2000
   35.5430   30.4750   48.8680 C   0  0  2  0  0  0  0  0  0  0  0  0
   36.6550   31.4790   49.0590 C   0  0  0  0  0  0  0  0  0  0  0  0
   37.9440   30.8420   49.4750 C   0  0  0  0  0  0  0  0  0  0  0  0
   37.8250   29.9930   50.7010 C   0  0  0  0  0  0  0  0  0  0  0  0
   36.6200   29.1090   50.6890 C   0  0  0  0  0  0  0  0  0  0  0  0
   35.8830   29.1180   49.3570 C   0  0  1  0  0  0  0  0  0  0  0  0
   34.6250   30.9090   49.3550 H   0  0  0  0  0  0  0  0  0  0  0  0
   36.8770   32.0110   48.0880 H   0  0  0  0  0  0  0  0  0  0  0  0
   36.3790   32.2100   49.8390 H   0  0  0  0  0  0  0  0  0  0  0  0
   38.3150   30.2180   48.6270 H   0  0  0  0  0  0  0  0  0  0  0  0
   38.6630   31.6580   49.7120 H   0  0  0  0  0  0  0  0  0  0  0  0
   38.7390   29.4140   50.8600 H   0  0  0  0  0  0  0  0  0  0  0  0
   37.7530   30.6840   51.5910 H   0  0  0  0  0  0  0  0  0  0  0  0
   36.8810   28.0530   50.8800 H   0  0  0  0  0  0  0  0  0  0  0  0
   35.9000   29.4030   51.5110 H   0  0  0  0  0  0  0  0  0  0  0  0
   36.5530   28.6320   48.6210 H   0  0  0  0  0  0  0  0  0  0  0  0
   35.2060   30.3710   47.4180 C   0  0  0  0  0  0  0  0  0  0  0  0
   33.8390   30.4200   47.0870 C   0  0  0  0  0  0  0  0  0  0  0  0
   33.5170   30.3060   45.7420 C   0  0  0  0  0  0  0  0  0  0  0  0
   34.5210   30.1510   44.8090 N   0  0  0  0  0  0  0  0  0  0  0  0
   35.8310   30.1090   45.1720 C   0  0  0  0  0  0  0  0  0  0  0  0
   36.1320   30.2220   46.4750 N   0  0  0  0  0  0  0  0  0  0  0  0
   33.0230   30.5340   47.7560 H   0  0  0  0  0  0  0  0  0  0  0  0
   32.4770   30.3350   45.4050 H   0  0  0  0  0  0  0  0  0  0  0  0
   36.5560   29.9860   44.3790 H   0  0  0  0  0  0  0  0  0  0  0  0
   34.6670   28.2570   49.4980 C   0  0  0  0  0  0  0  0  0  0  0  0
   34.0010   27.3900   48.7010 C   0  0  0  0  0  0  0  0  0  0  0  0
   33.9340   26.7400   47.3720 C   0  0  0  0  0  0  0  0  0  0  0  0
   34.6750   27.1300   46.6360 H   0  0  0  0  0  0  0  0  0  0  0  0
  1  2  1  0  0  0  0
  1  7  1  1  0  0  0
  1  6  1  0  0  0  0
  2  3  1  0  0  0  0
  2  9  1  0  0  0  0
  3 11  1  0  0  0  0
  3  4  1  0  0  0  0
  4 12  1  0  0  0  0
  4 13  1  0  0  0  0
  5  4  1  0  0  0  0
  5 14  1  0  0  0  0
  5 15  1  0  0  0  0
  6 16  1  6  0  0  0
  6 26  1  0  0  0  0
  6  5  1  0  0  0  0
  8  2  1  0  0  0  0
 10  3  1  0  0  0  0
 17  1  1  0  0  0  0
 18 17  1  0  0  0  0
 18 23  1  0  0  0  0
 19 18  2  0  0  0  0
 20 21  2  0  0  0  0
 20 19  1  0  0  0  0
 21 22  1  0  0  0  0
 22 17  2  0  0  0  0
 24 19  1  0  0  0  0
 25 21  1  0  0  0  0
 27 26  2  0  0  0  0
 28 27  1  0  0  0  0
 29 28  1  0  0  0  0
M  END
>  <minimizedAffinity>
-4.98691177

>  <minimizedRMSD>
2.39184141

$$$$
