
 OpenBabel03272500323D

 39 41  0  0  1  0  0  0  0  0999 V2000
   35.3940   30.5680   49.1660 C   0  0  1  0  0  0  0  0  0  0  0  0
   34.5450   30.4580   47.9890 C   0  0  0  0  0  0  0  0  0  0  0  0
   33.4540   29.4900   48.4600 C   0  0  0  0  0  0  0  0  0  0  0  0
   34.1660   28.1320   48.3610 C   0  0  0  0  0  0  0  0  0  0  0  0
   35.3810   28.0500   49.1740 C   0  0  0  0  0  0  0  0  0  0  0  0
   35.8380   29.2840   49.8320 C   0  0  1  0  0  0  0  0  0  0  0  0
   34.8720   31.1220   49.9970 H   0  0  0  0  0  0  0  0  0  0  0  0
   34.7360   29.8150   47.1450 H   0  0  0  0  0  0  0  0  0  0  0  0
   34.0040   31.3940   47.7470 H   0  0  0  0  0  0  0  0  0  0  0  0
   32.5950   29.4830   47.7710 H   0  0  0  0  0  0  0  0  0  0  0  0
   33.1720   29.6930   49.5060 H   0  0  0  0  0  0  0  0  0  0  0  0
   34.4120   28.0600   47.2590 H   0  0  0  0  0  0  0  0  0  0  0  0
   33.3810   27.3990   48.5170 H   0  0  0  0  0  0  0  0  0  0  0  0
   36.2320   27.6830   48.5280 H   0  0  0  0  0  0  0  0  0  0  0  0
   35.2450   27.2230   49.9060 H   0  0  0  0  0  0  0  0  0  0  0  0
   35.4380   29.2540   50.8590 H   0  0  0  0  0  0  0  0  0  0  0  0
   36.7200   30.3400   46.4510 Cl  0  0  0  0  0  0  0  0  0  0  0  0
   37.2720   31.3860   47.7290 C   0  0  0  0  0  0  0  0  0  0  0  0
   38.3880   32.1150   47.4160 C   0  0  0  0  0  0  0  0  0  0  0  0
   38.8580   33.0150   48.3620 C   0  0  0  0  0  0  0  0  0  0  0  0
   38.1700   33.1240   49.5630 C   0  0  0  0  0  0  0  0  0  0  0  0
   37.0510   32.3520   49.7970 C   0  0  0  0  0  0  0  0  0  0  0  0
   36.5570   31.4530   48.8950 C   0  0  0  0  0  0  0  0  0  0  0  0
   39.7370   33.6160   48.1690 H   0  0  0  0  0  0  0  0  0  0  0  0
   38.5240   33.8280   50.3220 H   0  0  0  0  0  0  0  0  0  0  0  0
   36.5610   32.4930   50.7560 H   0  0  0  0  0  0  0  0  0  0  0  0
   39.1160   32.6110   43.8670 C   0  0  0  0  0  0  0  0  0  0  0  0
   40.2020   31.7920   43.6060 C   0  0  0  0  0  0  0  0  0  0  0  0
   40.6870   31.0630   44.6880 C   0  0  0  0  0  0  0  0  0  0  0  0
   40.0920   31.1830   45.9180 N   0  0  0  0  0  0  0  0  0  0  0  0
   39.0430   31.9940   46.1040 C   0  0  0  0  0  0  0  0  0  0  0  0
   38.5500   32.7150   45.0700 N   0  0  0  0  0  0  0  0  0  0  0  0
   38.6660   33.2200   43.0840 H   0  0  0  0  0  0  0  0  0  0  0  0
   40.6370   31.7300   42.6170 H   0  0  0  0  0  0  0  0  0  0  0  0
   41.5210   30.4250   44.5150 H   0  0  0  0  0  0  0  0  0  0  0  0
   37.3370   29.2650   49.9690 C   0  0  0  0  0  0  0  0  0  0  0  0
   38.0250   29.4420   51.0820 C   0  0  0  0  0  0  0  0  0  0  0  0
   37.2690   29.6850   52.3380 C   0  0  0  0  0  0  0  0  0  0  0  0
   36.4810   30.4440   52.2460 H   0  0  0  0  0  0  0  0  0  0  0  0
  1  6  1  0  0  0  0
  1  7  1  1  0  0  0
  2  3  1  0  0  0  0
  2  1  1  0  0  0  0
  3 11  1  0  0  0  0
  4  3  1  0  0  0  0
  4 13  1  0  0  0  0
  4  5  1  0  0  0  0
  5  6  1  0  0  0  0
  5 15  1  0  0  0  0
  6 36  1  0  0  0  0
  6 16  1  1  0  0  0
  8  2  1  0  0  0  0
  9  2  1  0  0  0  0
 10  3  1  0  0  0  0
 12  4  1  0  0  0  0
 14  5  1  0  0  0  0
 17 18  1  0  0  0  0
 18 23  1  0  0  0  0
 19 18  2  0  0  0  0
 19 20  1  0  0  0  0
 20 21  2  0  0  0  0
 21 22  1  0  0  0  0
 21 25  1  0  0  0  0
 22 26  1  0  0  0  0
 23  1  1  0  0  0  0
 23 22  2  0  0  0  0
 24 20  1  0  0  0  0
 27 32  1  0  0  0  0
 28 27  2  0  0  0  0
 28 29  1  0  0  0  0
 29 30  2  0  0  0  0
 30 31  1  0  0  0  0
 31 19  1  0  0  0  0
 32 31  2  0  0  0  0
 33 27  1  0  0  0  0
 34 28  1  0  0  0  0
 35 29  1  0  0  0  0
 36 37  2  0  0  0  0
 37 38  1  0  0  0  0
 39 38  1  0  0  0  0
M  END
>  <minimizedAffinity>
-6.57555103

>  <minimizedRMSD>
1.95333016

$$$$
