
 OpenBabel03272509503D

 28 29  0  0  0  0  0  0  0  0999 V2000
   34.2460   28.4290   48.3750 C   0  0  0  0  0  0  0  0  0  0  0  0
   34.9980   28.5480   47.5870 H   0  0  0  0  0  0  0  0  0  0  0  0
   33.6640   29.3890   48.4180 H   0  0  0  0  0  0  0  0  0  0  0  0
   33.2740   27.3250   48.1040 C   0  0  0  0  0  0  0  0  0  0  0  0
   33.5470   26.7880   47.1540 H   0  0  0  0  0  0  0  0  0  0  0  0
   33.2950   26.5490   48.9060 H   0  0  0  0  0  0  0  0  0  0  0  0
   31.8800   27.8110   47.9360 C   0  0  0  0  0  0  0  0  0  0  0  0
   30.9990   27.5470   48.9550 C   0  0  0  0  0  0  0  0  0  0  0  0
   29.6790   27.9450   48.9210 C   0  0  0  0  0  0  0  0  0  0  0  0
   29.2390   28.6110   47.8590 N   0  0  0  0  0  0  0  0  0  0  0  0
   30.1100   28.8750   46.8440 C   0  0  0  0  0  0  0  0  0  0  0  0
   31.4000   28.4890   46.8710 N   0  0  0  0  0  0  0  0  0  0  0  0
   31.3120   27.0070   49.8450 H   0  0  0  0  0  0  0  0  0  0  0  0
   29.0070   27.7280   49.7320 H   0  0  0  0  0  0  0  0  0  0  0  0
   29.8230   29.4130   45.9440 H   0  0  0  0  0  0  0  0  0  0  0  0
   34.8290   28.2820   49.6650 O   0  0  0  0  0  0  0  0  0  0  0  0
   37.3280   30.2250   51.4130 C   0  0  0  0  0  0  0  0  0  0  0  0
   38.0190   30.7710   50.3250 C   0  0  0  0  0  0  0  0  0  0  0  0
   37.5940   30.4470   49.0330 C   0  0  0  0  0  0  0  0  0  0  0  0
   36.5120   29.6030   48.9220 N   0  0  0  0  0  0  0  0  0  0  0  0
   35.8760   29.0980   49.9930 C   0  0  0  0  0  0  0  0  0  0  0  0
   36.2950   29.4180   51.2360 N   0  0  0  0  0  0  0  0  0  0  0  0
   37.7030   30.5110   52.3880 H   0  0  0  0  0  0  0  0  0  0  0  0
   38.8700   31.4350   50.4090 H   0  0  0  0  0  0  0  0  0  0  0  0
   38.2380   30.9580   47.8130 C   0  0  0  0  0  3  0  0  0  0  0  0
   38.8500   32.1320   47.7820 C   0  0  0  0  0  3  0  0  0  0  0  0
   39.4660   32.5410   46.4860 C   0  0  0  0  0  2  0  0  0  0  0  0
   38.7920   32.2390   45.6670 H   0  0  0  0  0  0  0  0  0  0  0  0
  1  3  1  0  0  0  0
  1 16  1  0  0  0  0
  2  1  1  0  0  0  0
  4  1  1  0  0  0  0
  4  6  1  0  0  0  0
  5  4  1  0  0  0  0
  7  4  1  0  0  0  0
  7  8  1  0  0  0  0
  8 13  1  0  0  0  0
  9  8  2  0  0  0  0
  9 14  1  0  0  0  0
 10  9  1  0  0  0  0
 11 12  1  0  0  0  0
 11 10  2  0  0  0  0
 12  7  2  0  0  0  0
 15 11  1  0  0  0  0
 16 21  1  0  0  0  0
 17 23  1  0  0  0  0
 18 24  1  0  0  0  0
 18 17  2  0  0  0  0
 19 18  1  0  0  0  0
 20 19  2  0  0  0  0
 20 21  1  0  0  0  0
 21 22  2  0  0  0  0
 22 17  1  0  0  0  0
 25 19  1  0  0  0  0
 26 25  2  0  0  0  0
 27 26  1  0  0  0  0
 28 27  1  0  0  0  0
M  END
>  <minimizedAffinity>
-5.28593159

>  <minimizedRMSD>
0.876237869

$$$$
