
 OpenBabel03262521163D

 23 23  0  0  0  0  0  0  0  0999 V2000
   35.4710   30.1290   47.2700 C   0  0  0  0  0  0  0  0  0  0  0  0
   35.8780   29.5410   46.4000 H   0  0  0  0  0  0  0  0  0  0  0  0
   34.6740   30.7720   46.7980 H   0  0  0  0  0  0  0  0  0  0  0  0
   35.1440   29.4590   48.3650 C   0  0  0  0  0  0  0  0  0  0  0  0
   34.2010   28.8410   48.2210 H   0  0  0  0  0  0  0  0  0  0  0  0
   35.8800   28.6650   48.6460 H   0  0  0  0  0  0  0  0  0  0  0  0
   34.8730   30.1310   49.6880 C   0  0  0  0  0  0  0  0  0  0  0  0
   33.7990   30.3340   49.8640 H   0  0  0  0  0  0  0  0  0  0  0  0
   35.3840   31.1160   49.6300 H   0  0  0  0  0  0  0  0  0  0  0  0
   35.4880   29.3330   50.7700 C   0  0  0  0  0  0  0  0  0  0  0  0
   36.6810   29.5090   51.3130 C   0  0  0  0  0  0  0  0  0  0  0  0
   37.6670   30.5470   50.9530 C   0  0  0  0  0  0  0  0  0  0  0  0
   38.4500   30.0830   50.2920 H   0  0  0  0  0  0  0  0  0  0  0  0
   36.3780   31.0030   47.8440 O   0  0  0  0  0  0  0  0  0  0  0  0
   37.5810   31.1960   47.1790 C   0  0  0  0  0  0  0  0  0  0  0  0
   38.2690   32.3230   47.6270 C   0  0  0  0  0  0  0  0  0  0  0  0
   39.4910   32.6340   47.0460 C   0  0  0  0  0  0  0  0  0  0  0  0
   39.9600   31.8030   46.0470 N   0  0  0  0  0  0  0  0  0  0  0  0
   39.2660   30.7220   45.6390 C   0  0  0  0  0  0  0  0  0  0  0  0
   38.0970   30.4360   46.2060 N   0  0  0  0  0  0  0  0  0  0  0  0
   37.9040   32.9850   48.4160 H   0  0  0  0  0  0  0  0  0  0  0  0
   40.0670   33.4960   47.3560 H   0  0  0  0  0  0  0  0  0  0  0  0
   39.6560   30.0810   44.8510 H   0  0  0  0  0  0  0  0  0  0  0  0
  1 14  1  0  0  0  0
  1  4  1  0  0  0  0
  2  1  1  0  0  0  0
  3  1  1  0  0  0  0
  4  6  1  0  0  0  0
  4  7  1  0  0  0  0
  5  4  1  0  0  0  0
  7  8  1  0  0  0  0
  7 10  1  0  0  0  0
  9  7  1  0  0  0  0
 10 11  2  0  0  0  0
 12 11  1  0  0  0  0
 13 12  1  0  0  0  0
 15 16  1  0  0  0  0
 15 14  1  0  0  0  0
 16 21  1  0  0  0  0
 17 22  1  0  0  0  0
 17 16  2  0  0  0  0
 18 17  1  0  0  0  0
 19 18  2  0  0  0  0
 19 20  1  0  0  0  0
 20 15  2  0  0  0  0
 23 19  1  0  0  0  0
M  END
>  <minimizedAffinity>
-4.21715784

>  <minimizedRMSD>
2.54622889

$$$$
