
 OpenBabel03272509473D

 20 20  0  0  0  0  0  0  0  0999 V2000
   34.7210   28.3050   49.7850 O   0  0  0  0  0  0  0  0  0  0  0  0
   37.3340   30.2210   51.4120 C   0  0  0  0  0  0  0  0  0  0  0  0
   38.0480   30.6560   50.2980 C   0  0  0  0  0  0  0  0  0  0  0  0
   37.6080   30.2760   49.0370 C   0  0  0  0  0  0  0  0  0  0  0  0
   36.4890   29.4920   48.9730 N   0  0  0  0  0  0  0  0  0  0  0  0
   35.8260   29.0930   50.0740 C   0  0  0  0  0  0  0  0  0  0  0  0
   36.2640   29.4670   51.2950 N   0  0  0  0  0  0  0  0  0  0  0  0
   37.6960   30.5290   52.3940 H   0  0  0  0  0  0  0  0  0  0  0  0
   38.9430   31.2840   50.3600 H   0  0  0  0  0  0  0  0  0  0  0  0
   38.1210   30.5830   48.1490 H   0  0  0  0  0  0  0  0  0  0  0  0
   34.1920   28.3820   48.4840 C   0  0  0  0  0  0  0  0  0  0  0  0
   34.9290   28.8400   47.7770 H   0  0  0  0  0  0  0  0  0  0  0  0
   33.2490   28.9750   48.5240 H   0  0  0  0  0  0  0  0  0  0  0  0
   33.8720   27.0150   47.9370 C   0  0  0  0  0  0  0  0  0  0  0  0
   34.7090   26.3150   48.1340 H   0  0  0  0  0  0  0  0  0  0  0  0
   32.9240   26.6820   48.4480 H   0  0  0  0  0  0  0  0  0  0  0  0
   33.5730   27.1300   46.4820 C   0  0  0  0  0  3  0  0  0  0  0  0
   32.3720   27.3600   45.9450 C   0  0  0  0  0  3  0  0  0  0  0  0
   32.0380   27.4830   44.4940 C   0  0  0  0  0  2  0  0  0  0  0  0
   32.8990   27.9730   43.9520 H   0  0  0  0  0  0  0  0  0  0  0  0
  1  6  1  0  0  0  0
  2  8  1  0  0  0  0
  3  9  1  0  0  0  0
  3  2  2  0  0  0  0
  4  3  1  0  0  0  0
  5  4  2  0  0  0  0
  5  6  1  0  0  0  0
  6  7  2  0  0  0  0
  7  2  1  0  0  0  0
 10  4  1  0  0  0  0
 11 13  1  0  0  0  0
 11  1  1  0  0  0  0
 12 11  1  0  0  0  0
 14 15  1  0  0  0  0
 14 16  1  0  0  0  0
 14 11  1  0  0  0  0
 17 14  1  0  0  0  0
 18 17  2  0  0  0  0
 19 18  1  0  0  0  0
 20 19  1  0  0  0  0
M  END
>  <minimizedAffinity>
-3.47741842

>  <minimizedRMSD>
0.309750259

$$$$
