
 OpenBabel03272509403D

 30 31  0  0  1  0  0  0  0  0999 V2000
   37.0690   30.9540   49.0520 C   0  0  0  0  0  0  0  0  0  0  0  0
   36.8250   31.9140   50.0430 C   0  0  0  0  0  0  0  0  0  0  0  0
   37.4300   33.1520   50.0660 C   0  0  0  0  0  0  0  0  0  0  0  0
   38.3330   33.4790   49.0590 C   0  0  0  0  0  0  0  0  0  0  0  0
   38.5720   32.5450   48.0930 C   0  0  0  0  0  0  0  0  0  0  0  0
   37.9560   31.3260   48.0970 C   0  0  0  0  0  0  0  0  0  0  0  0
   36.1430   31.7280   50.8470 H   0  0  0  0  0  0  0  0  0  0  0  0
   37.2230   33.8720   50.8440 H   0  0  0  0  0  0  0  0  0  0  0  0
   38.7940   34.4510   49.0960 H   0  0  0  0  0  0  0  0  0  0  0  0
   39.2890   32.8800   47.3450 H   0  0  0  0  0  0  0  0  0  0  0  0
   36.3780   29.6850   49.1240 C   0  0  1  0  0  3  0  0  0  0  0  0
   36.9150   28.8390   49.9390 O   0  0  0  0  0  1  0  0  0  0  0  0
   33.6080   30.1470   46.8360 C   0  0  0  0  0  0  0  0  0  0  0  0
   32.9480   28.9210   46.8590 C   0  0  0  0  0  0  0  0  0  0  0  0
   33.4550   27.9230   47.6670 C   0  0  0  0  0  0  0  0  0  0  0  0
   34.5680   28.1700   48.4020 N   0  0  0  0  0  0  0  0  0  0  0  0
   35.1880   29.3340   48.3760 C   0  0  0  0  0  0  0  0  0  0  0  0
   34.6920   30.3190   47.5820 N   0  0  0  0  0  0  0  0  0  0  0  0
   33.1750   30.8990   46.1890 H   0  0  0  0  0  0  0  0  0  0  0  0
   32.0650   28.7220   46.2760 H   0  0  0  0  0  0  0  0  0  0  0  0
   32.9790   26.9580   47.7170 H   0  0  0  0  0  0  0  0  0  0  0  0
   38.3130   30.4380   47.0010 C   0  0  0  0  0  3  0  0  0  0  0  0
   38.9180   30.7870   45.8810 C   0  0  0  0  0  3  0  0  0  0  0  0
   39.3410   30.0260   44.7030 C   0  0  0  0  0  0  0  0  0  0  0  0
   39.2820   28.9270   44.9540 H   0  0  0  0  0  0  0  0  0  0  0  0
   40.3450   30.2700   44.3180 H   0  0  0  0  0  0  0  0  0  0  0  0
   38.3240   30.1970   43.6110 C   0  0  0  0  0  3  0  0  0  0  0  0
   37.2260   29.4490   43.5460 C   0  0  0  0  0  3  0  0  0  0  0  0
   36.1970   29.5840   42.4880 C   0  0  0  0  0  2  0  0  0  0  0  0
   36.6280   29.9790   41.5340 H   0  0  0  0  0  0  0  0  0  0  0  0
  1 11  1  0  0  0  0
  1  2  1  0  0  0  0
  2  3  2  0  0  0  0
  2  7  1  0  0  0  0
  3  8  1  0  0  0  0
  4  9  1  0  0  0  0
  4  3  1  0  0  0  0
  5  6  1  0  0  0  0
  5  4  2  0  0  0  0
  6  1  2  0  0  0  0
 10  5  1  0  0  0  0
 11 12  1  1  0  0  0
 13 14  2  0  0  0  0
 13 18  1  0  0  0  0
 14 15  1  0  0  0  0
 15 21  1  0  0  0  0
 15 16  2  0  0  0  0
 17 16  1  0  0  0  0
 17 11  1  0  0  0  0
 18 17  2  0  0  0  0
 19 13  1  0  0  0  0
 20 14  1  0  0  0  0
 22  6  1  0  0  0  0
 23 22  2  0  0  0  0
 24 25  1  0  0  0  0
 24 23  1  0  0  0  0
 26 24  1  0  0  0  0
 27 24  1  0  0  0  0
 28 27  2  0  0  0  0
 29 28  1  0  0  0  0
 30 29  1  0  0  0  0
M  END
>  <minimizedAffinity>
-5.37516928

>  <minimizedRMSD>
0.262484938

$$$$
