
 OpenBabel03272509403D

 30 31  0  0  1  0  0  0  0  0999 V2000
   37.0680   30.9530   49.0520 C   0  0  0  0  0  0  0  0  0  0  0  0
   36.8220   31.9130   50.0430 C   0  0  0  0  0  0  0  0  0  0  0  0
   37.4270   33.1510   50.0660 C   0  0  0  0  0  0  0  0  0  0  0  0
   38.3320   33.4790   49.0610 C   0  0  0  0  0  0  0  0  0  0  0  0
   38.5720   32.5440   48.0940 C   0  0  0  0  0  0  0  0  0  0  0  0
   37.9550   31.3260   48.0980 C   0  0  0  0  0  0  0  0  0  0  0  0
   36.1390   31.7270   50.8460 H   0  0  0  0  0  0  0  0  0  0  0  0
   37.2190   33.8710   50.8440 H   0  0  0  0  0  0  0  0  0  0  0  0
   38.7930   34.4510   49.0980 H   0  0  0  0  0  0  0  0  0  0  0  0
   39.2890   32.8790   47.3470 H   0  0  0  0  0  0  0  0  0  0  0  0
   36.3760   29.6850   49.1230 C   0  0  2  0  0  3  0  0  0  0  0  0
   36.9130   28.8370   49.9370 O   0  0  0  0  0  1  0  0  0  0  0  0
   33.6070   30.1480   46.8350 C   0  0  0  0  0  0  0  0  0  0  0  0
   32.9460   28.9220   46.8570 C   0  0  0  0  0  0  0  0  0  0  0  0
   33.4530   27.9250   47.6650 C   0  0  0  0  0  0  0  0  0  0  0  0
   34.5650   28.1700   48.4000 N   0  0  0  0  0  0  0  0  0  0  0  0
   35.1860   29.3340   48.3750 C   0  0  0  0  0  0  0  0  0  0  0  0
   34.6900   30.3200   47.5810 N   0  0  0  0  0  0  0  0  0  0  0  0
   33.1740   30.9010   46.1880 H   0  0  0  0  0  0  0  0  0  0  0  0
   32.0630   28.7240   46.2740 H   0  0  0  0  0  0  0  0  0  0  0  0
   32.9760   26.9590   47.7150 H   0  0  0  0  0  0  0  0  0  0  0  0
   38.3130   30.4370   47.0020 C   0  0  0  0  0  3  0  0  0  0  0  0
   38.9170   30.7870   45.8810 C   0  0  0  0  0  3  0  0  0  0  0  0
   39.3400   30.0260   44.7030 C   0  0  0  0  0  0  0  0  0  0  0  0
   39.2820   28.9270   44.9550 H   0  0  0  0  0  0  0  0  0  0  0  0
   40.3450   30.2710   44.3190 H   0  0  0  0  0  0  0  0  0  0  0  0
   38.3240   30.1970   43.6110 C   0  0  0  0  0  3  0  0  0  0  0  0
   37.2250   29.4500   43.5470 C   0  0  0  0  0  3  0  0  0  0  0  0
   36.1970   29.5840   42.4890 C   0  0  0  0  0  2  0  0  0  0  0  0
   36.6280   29.9780   41.5330 H   0  0  0  0  0  0  0  0  0  0  0  0
  1 11  1  0  0  0  0
  1  2  1  0  0  0  0
  2  3  2  0  0  0  0
  2  7  1  0  0  0  0
  3  8  1  0  0  0  0
  4  9  1  0  0  0  0
  4  3  1  0  0  0  0
  5  6  1  0  0  0  0
  5  4  2  0  0  0  0
  6  1  2  0  0  0  0
 10  5  1  0  0  0  0
 11 12  1  6  0  0  0
 13 14  2  0  0  0  0
 13 18  1  0  0  0  0
 14 15  1  0  0  0  0
 15 21  1  0  0  0  0
 15 16  2  0  0  0  0
 17 16  1  0  0  0  0
 17 11  1  0  0  0  0
 18 17  2  0  0  0  0
 19 13  1  0  0  0  0
 20 14  1  0  0  0  0
 22  6  1  0  0  0  0
 23 22  2  0  0  0  0
 24 25  1  0  0  0  0
 24 23  1  0  0  0  0
 26 24  1  0  0  0  0
 27 24  1  0  0  0  0
 28 27  2  0  0  0  0
 29 28  1  0  0  0  0
 30 29  1  0  0  0  0
M  END
>  <minimizedAffinity>
-5.3749795

>  <minimizedRMSD>
0.243210793

$$$$
