
 OpenBabel03272509403D

 30 31  0  0  1  0  0  0  0  0999 V2000
   37.0660   30.9550   49.0590 C   0  0  0  0  0  0  0  0  0  0  0  0
   36.8220   31.9120   50.0530 C   0  0  0  0  0  0  0  0  0  0  0  0
   37.4280   33.1490   50.0800 C   0  0  0  0  0  0  0  0  0  0  0  0
   38.3320   33.4800   49.0740 C   0  0  0  0  0  0  0  0  0  0  0  0
   38.5700   32.5490   48.1040 C   0  0  0  0  0  0  0  0  0  0  0  0
   37.9530   31.3310   48.1050 C   0  0  0  0  0  0  0  0  0  0  0  0
   36.1410   31.7240   50.8560 H   0  0  0  0  0  0  0  0  0  0  0  0
   37.2220   33.8680   50.8600 H   0  0  0  0  0  0  0  0  0  0  0  0
   38.7930   34.4520   49.1140 H   0  0  0  0  0  0  0  0  0  0  0  0
   39.2860   32.8860   47.3580 H   0  0  0  0  0  0  0  0  0  0  0  0
   36.3740   29.6870   49.1270 C   0  0  2  0  0  3  0  0  0  0  0  0
   36.9090   28.8380   49.9410 O   0  0  0  0  0  1  0  0  0  0  0  0
   33.6070   30.1550   46.8360 C   0  0  0  0  0  0  0  0  0  0  0  0
   32.9480   28.9290   46.8530 C   0  0  0  0  0  0  0  0  0  0  0  0
   33.4550   27.9280   47.6570 C   0  0  0  0  0  0  0  0  0  0  0  0
   34.5660   28.1730   48.3950 N   0  0  0  0  0  0  0  0  0  0  0  0
   35.1860   29.3370   48.3750 C   0  0  0  0  0  0  0  0  0  0  0  0
   34.6900   30.3260   47.5850 N   0  0  0  0  0  0  0  0  0  0  0  0
   33.1750   30.9100   46.1920 H   0  0  0  0  0  0  0  0  0  0  0  0
   32.0670   28.7320   46.2680 H   0  0  0  0  0  0  0  0  0  0  0  0
   32.9800   26.9620   47.7020 H   0  0  0  0  0  0  0  0  0  0  0  0
   38.3090   30.4460   47.0050 C   0  0  0  0  0  3  0  0  0  0  0  0
   38.9250   30.7960   45.8920 C   0  0  0  0  0  3  0  0  0  0  0  0
   39.3490   30.0390   44.7120 C   0  0  0  0  0  0  0  0  0  0  0  0
   39.5420   28.9720   45.0290 H   0  0  0  0  0  0  0  0  0  0  0  0
   40.2320   30.4390   44.1860 H   0  0  0  0  0  0  0  0  0  0  0  0
   38.1960   29.9240   43.7560 C   0  0  0  0  0  3  0  0  0  0  0  0
   38.3670   29.9560   42.4380 C   0  0  0  0  0  3  0  0  0  0  0  0
   37.2590   29.8470   41.4590 C   0  0  0  0  0  2  0  0  0  0  0  0
   36.2920   30.2220   41.8790 H   0  0  0  0  0  0  0  0  0  0  0  0
  1 11  1  0  0  0  0
  1  2  1  0  0  0  0
  2  3  2  0  0  0  0
  2  7  1  0  0  0  0
  3  8  1  0  0  0  0
  4  9  1  0  0  0  0
  4  3  1  0  0  0  0
  5  6  1  0  0  0  0
  5  4  2  0  0  0  0
  6  1  2  0  0  0  0
 10  5  1  0  0  0  0
 11 12  1  6  0  0  0
 13 14  2  0  0  0  0
 13 18  1  0  0  0  0
 14 15  1  0  0  0  0
 15 21  1  0  0  0  0
 15 16  2  0  0  0  0
 17 16  1  0  0  0  0
 17 11  1  0  0  0  0
 18 17  2  0  0  0  0
 19 13  1  0  0  0  0
 20 14  1  0  0  0  0
 22  6  1  0  0  0  0
 23 22  2  0  0  0  0
 24 25  1  0  0  0  0
 24 23  1  0  0  0  0
 26 24  1  0  0  0  0
 27 24  1  0  0  0  0
 28 27  2  0  0  0  0
 29 30  1  0  0  0  0
 29 28  1  0  0  0  0
M  END
>  <minimizedAffinity>
-5.36663675

>  <minimizedRMSD>
0.350194693

$$$$
