
 OpenBabel03272509413D

 30 31  0  0  1  0  0  0  0  0999 V2000
   36.4580   28.6250   32.5150 C   0  0  0  0  0  0  0  0  0  0  0  0
   35.9170   29.6770   31.7630 C   0  0  0  0  0  0  0  0  0  0  0  0
   35.2360   30.7360   32.3220 C   0  0  0  0  0  0  0  0  0  0  0  0
   35.0670   30.7760   33.7030 C   0  0  0  0  0  0  0  0  0  0  0  0
   35.5940   29.7510   34.4370 C   0  0  0  0  0  0  0  0  0  0  0  0
   36.2650   28.7150   33.8540 C   0  0  0  0  0  0  0  0  0  0  0  0
   36.0090   29.7090   30.6980 H   0  0  0  0  0  0  0  0  0  0  0  0
   34.8290   31.5330   31.7180 H   0  0  0  0  0  0  0  0  0  0  0  0
   34.5320   31.6120   34.1190 H   0  0  0  0  0  0  0  0  0  0  0  0
   35.4180   29.8590   35.5050 H   0  0  0  0  0  0  0  0  0  0  0  0
   37.1560   27.5620   31.8250 C   0  0  2  0  0  3  0  0  0  0  0  0
   38.2850   27.9210   31.3110 O   0  0  0  0  0  1  0  0  0  0  0  0
   34.9360   24.8750   30.8390 C   0  0  0  0  0  0  0  0  0  0  0  0
   35.5770   23.7260   31.2960 C   0  0  0  0  0  0  0  0  0  0  0  0
   36.7840   23.8720   31.9500 C   0  0  0  0  0  0  0  0  0  0  0  0
   37.2970   25.1150   32.1220 N   0  0  0  0  0  0  0  0  0  0  0  0
   36.6840   26.1990   31.6870 C   0  0  0  0  0  0  0  0  0  0  0  0
   35.4950   26.0610   31.0430 N   0  0  0  0  0  0  0  0  0  0  0  0
   33.9920   24.7140   30.3330 H   0  0  0  0  0  0  0  0  0  0  0  0
   35.1730   22.7380   31.1600 H   0  0  0  0  0  0  0  0  0  0  0  0
   37.3170   23.0120   32.3210 H   0  0  0  0  0  0  0  0  0  0  0  0
   36.7680   27.6990   34.7660 C   0  0  0  0  0  3  0  0  0  0  0  0
   37.9250   27.7260   35.4000 C   0  0  0  0  0  3  0  0  0  0  0  0
   38.5660   26.8000   36.3370 C   0  0  0  0  0  0  0  0  0  0  0  0
   38.2350   27.0720   37.3810 H   0  0  0  0  0  0  0  0  0  0  0  0
   39.6670   26.7660   36.2890 H   0  0  0  0  0  0  0  0  0  0  0  0
   38.0060   25.4220   36.1320 C   0  0  0  0  0  3  0  0  0  0  0  0
   38.0090   24.5090   37.0990 C   0  0  0  0  0  3  0  0  0  0  0  0
   37.4690   23.1380   36.9410 C   0  0  0  0  0  2  0  0  0  0  0  0
   37.5190   22.7880   35.8800 H   0  0  0  0  0  0  0  0  0  0  0  0
  1  6  1  0  0  0  0
  2  3  1  0  0  0  0
  2  1  2  0  0  0  0
  3  4  2  0  0  0  0
  4  9  1  0  0  0  0
  4  5  1  0  0  0  0
  5 10  1  0  0  0  0
  6  5  2  0  0  0  0
  6 22  1  0  0  0  0
  7  2  1  0  0  0  0
  8  3  1  0  0  0  0
 11 12  1  6  0  0  0
 11  1  1  0  0  0  0
 13 18  2  0  0  0  0
 13 14  1  0  0  0  0
 14 15  2  0  0  0  0
 15 16  1  0  0  0  0
 15 21  1  0  0  0  0
 17 11  1  0  0  0  0
 17 16  2  0  0  0  0
 18 17  1  0  0  0  0
 19 13  1  0  0  0  0
 20 14  1  0  0  0  0
 22 23  2  0  0  0  0
 23 24  1  0  0  0  0
 24 25  1  0  0  0  0
 26 24  1  0  0  0  0
 27 24  1  0  0  0  0
 27 28  2  0  0  0  0
 29 28  1  0  0  0  0
 30 29  1  0  0  0  0
M  END
>  <minimizedAffinity>
-5.37046146

$$$$

 OpenBabel03272509413D

 30 31  0  0  1  0  0  0  0  0999 V2000
   38.9360   27.0380   33.1280 C   0  0  0  0  0  0  0  0  0  0  0  0
   39.7630   27.4180   32.0630 C   0  0  0  0  0  0  0  0  0  0  0  0
   41.1360   27.4910   32.1570 C   0  0  0  0  0  0  0  0  0  0  0  0
   41.7470   27.1730   33.3660 C   0  0  0  0  0  0  0  0  0  0  0  0
   40.9420   26.8020   34.4050 C   0  0  0  0  0  0  0  0  0  0  0  0
   39.5840   26.7390   34.2810 C   0  0  0  0  0  0  0  0  0  0  0  0
   39.3600   27.6770   31.1060 H   0  0  0  0  0  0  0  0  0  0  0  0
   41.7490   27.7880   31.3190 H   0  0  0  0  0  0  0  0  0  0  0  0
   42.8200   27.2360   33.4180 H   0  0  0  0  0  0  0  0  0  0  0  0
   41.4970   26.5710   35.3120 H   0  0  0  0  0  0  0  0  0  0  0  0
   37.5050   26.9950   32.9200 C   0  0  1  0  0  3  0  0  0  0  0  0
   36.8780   28.0370   33.3550 O   0  0  0  0  0  1  0  0  0  0  0  0
   36.6960   23.5720   32.0500 C   0  0  0  0  0  0  0  0  0  0  0  0
   35.5880   23.6920   31.2160 C   0  0  0  0  0  0  0  0  0  0  0  0
   35.1110   24.9590   30.9460 C   0  0  0  0  0  0  0  0  0  0  0  0
   35.7310   26.0310   31.4980 N   0  0  0  0  0  0  0  0  0  0  0  0
   36.7810   25.9100   32.2870 C   0  0  0  0  0  0  0  0  0  0  0  0
   37.2550   24.6650   32.5560 N   0  0  0  0  0  0  0  0  0  0  0  0
   37.0360   22.5610   32.2340 H   0  0  0  0  0  0  0  0  0  0  0  0
   35.0930   22.8430   30.7770 H   0  0  0  0  0  0  0  0  0  0  0  0
   34.2560   25.1020   30.3060 H   0  0  0  0  0  0  0  0  0  0  0  0
   38.8620   26.3270   35.4760 C   0  0  0  0  0  3  0  0  0  0  0  0
   38.6830   25.0860   35.8880 C   0  0  0  0  0  3  0  0  0  0  0  0
   37.9950   24.5150   37.0490 C   0  0  0  0  0  0  0  0  0  0  0  0
   37.0720   23.9790   36.6810 H   0  0  0  0  0  0  0  0  0  0  0  0
   37.7210   25.2360   37.8380 H   0  0  0  0  0  0  0  0  0  0  0  0
   38.8360   23.4180   37.6330 C   0  0  0  0  0  3  0  0  0  0  0  0
   39.9520   22.9960   37.0460 C   0  0  0  0  0  3  0  0  0  0  0  0
   40.8120   21.9160   37.5860 C   0  0  0  0  0  2  0  0  0  0  0  0
   40.2290   21.1880   38.2050 H   0  0  0  0  0  0  0  0  0  0  0  0
  1  6  1  0  0  0  0
  2  3  1  0  0  0  0
  2  1  2  0  0  0  0
  3  4  2  0  0  0  0
  4  9  1  0  0  0  0
  4  5  1  0  0  0  0
  5 10  1  0  0  0  0
  6  5  2  0  0  0  0
  6 22  1  0  0  0  0
  7  2  1  0  0  0  0
  8  3  1  0  0  0  0
 11  1  1  0  0  0  0
 11 12  1  6  0  0  0
 13 19  1  0  0  0  0
 13 18  1  0  0  0  0
 14 13  2  0  0  0  0
 15 14  1  0  0  0  0
 15 16  2  0  0  0  0
 16 17  1  0  0  0  0
 17 18  2  0  0  0  0
 17 11  1  0  0  0  0
 20 14  1  0  0  0  0
 21 15  1  0  0  0  0
 22 23  2  0  0  0  0
 23 24  1  0  0  0  0
 24 27  1  0  0  0  0
 24 26  1  0  0  0  0
 25 24  1  0  0  0  0
 28 29  1  0  0  0  0
 28 27  2  0  0  0  0
 29 30  1  0  0  0  0
M  END
>  <minimizedAffinity>
-5.33219385

$$$$

 OpenBabel03272509413D

 30 31  0  0  1  0  0  0  0  0999 V2000
   37.5530   25.7750   33.3100 C   0  0  0  0  0  0  0  0  0  0  0  0
   36.8940   26.7020   32.4910 C   0  0  0  0  0  0  0  0  0  0  0  0
   36.4110   27.9090   32.9480 C   0  0  0  0  0  0  0  0  0  0  0  0
   36.5800   28.2390   34.2890 C   0  0  0  0  0  0  0  0  0  0  0  0
   37.2230   27.3360   35.0880 C   0  0  0  0  0  0  0  0  0  0  0  0
   37.6900   26.1480   34.6060 C   0  0  0  0  0  0  0  0  0  0  0  0
   36.7290   26.5120   31.4510 H   0  0  0  0  0  0  0  0  0  0  0  0
   35.9060   28.6040   32.2940 H   0  0  0  0  0  0  0  0  0  0  0  0
   36.1960   29.1870   34.6250 H   0  0  0  0  0  0  0  0  0  0  0  0
   37.3140   27.6700   36.1200 H   0  0  0  0  0  0  0  0  0  0  0  0
   38.0190   24.5370   32.7260 C   0  0  2  0  0  3  0  0  0  0  0  0
   39.2160   24.5990   32.2450 O   0  0  0  0  0  1  0  0  0  0  0  0
   35.6450   22.1420   31.4010 C   0  0  0  0  0  0  0  0  0  0  0  0
   35.7140   21.0740   32.2920 C   0  0  0  0  0  0  0  0  0  0  0  0
   36.5830   21.1740   33.3600 C   0  0  0  0  0  0  0  0  0  0  0  0
   37.3310   22.2950   33.5020 N   0  0  0  0  0  0  0  0  0  0  0  0
   37.2610   23.3040   32.6540 C   0  0  0  0  0  0  0  0  0  0  0  0
   36.4060   23.2110   31.6010 N   0  0  0  0  0  0  0  0  0  0  0  0
   34.9500   22.0220   30.5790 H   0  0  0  0  0  0  0  0  0  0  0  0
   35.1220   20.1830   32.1820 H   0  0  0  0  0  0  0  0  0  0  0  0
   36.6720   20.3730   34.0750 H   0  0  0  0  0  0  0  0  0  0  0  0
   38.3530   25.2910   35.5780 C   0  0  0  0  0  3  0  0  0  0  0  0
   37.7850   24.7060   36.6160 C   0  0  0  0  0  3  0  0  0  0  0  0
   38.3040   23.8290   37.6680 C   0  0  0  0  0  0  0  0  0  0  0  0
   37.4630   23.1600   38.0130 H   0  0  0  0  0  0  0  0  0  0  0  0
   38.7540   24.3440   38.5330 H   0  0  0  0  0  0  0  0  0  0  0  0
   39.2980   22.8740   37.0710 C   0  0  0  0  0  3  0  0  0  0  0  0
   40.4300   22.5560   37.6930 C   0  0  0  0  0  3  0  0  0  0  0  0
   41.4390   21.6200   37.1410 C   0  0  0  0  0  2  0  0  0  0  0  0
   41.4230   21.5990   36.0230 H   0  0  0  0  0  0  0  0  0  0  0  0
  1  6  1  0  0  0  0
  2  3  1  0  0  0  0
  2  1  2  0  0  0  0
  3  4  2  0  0  0  0
  4  9  1  0  0  0  0
  4  5  1  0  0  0  0
  5 10  1  0  0  0  0
  6  5  2  0  0  0  0
  6 22  1  0  0  0  0
  7  2  1  0  0  0  0
  8  3  1  0  0  0  0
 11 12  1  6  0  0  0
 11  1  1  0  0  0  0
 13 18  2  0  0  0  0
 13 14  1  0  0  0  0
 14 15  2  0  0  0  0
 15 16  1  0  0  0  0
 15 21  1  0  0  0  0
 17 11  1  0  0  0  0
 17 16  2  0  0  0  0
 18 17  1  0  0  0  0
 19 13  1  0  0  0  0
 20 14  1  0  0  0  0
 22 23  2  0  0  0  0
 23 24  1  0  0  0  0
 24 25  1  0  0  0  0
 24 26  1  0  0  0  0
 27 24  1  0  0  0  0
 27 28  2  0  0  0  0
 29 28  1  0  0  0  0
 30 29  1  0  0  0  0
M  END
>  <minimizedAffinity>
-5.14594269

$$$$

 OpenBabel03272509413D

 30 31  0  0  1  0  0  0  0  0999 V2000
   37.3120   21.8610   33.5540 C   0  0  0  0  0  0  0  0  0  0  0  0
   36.5020   20.7390   33.7740 C   0  0  0  0  0  0  0  0  0  0  0  0
   35.3380   20.4950   33.0770 C   0  0  0  0  0  0  0  0  0  0  0  0
   34.9340   21.4020   32.1020 C   0  0  0  0  0  0  0  0  0  0  0  0
   35.7230   22.4950   31.8850 C   0  0  0  0  0  0  0  0  0  0  0  0
   36.8720   22.7090   32.5920 C   0  0  0  0  0  0  0  0  0  0  0  0
   36.7520   20.0030   34.5090 H   0  0  0  0  0  0  0  0  0  0  0  0
   34.7320   19.6220   33.2690 H   0  0  0  0  0  0  0  0  0  0  0  0
   34.0220   21.1920   31.5690 H   0  0  0  0  0  0  0  0  0  0  0  0
   35.3370   23.1510   31.1080 H   0  0  0  0  0  0  0  0  0  0  0  0
   38.5140   22.0180   34.3420 C   0  0  2  0  0  3  0  0  0  0  0  0
   39.5960   21.6620   33.7320 O   0  0  0  0  0  1  0  0  0  0  0  0
   39.9200   22.6610   37.6180 C   0  0  0  0  0  0  0  0  0  0  0  0
   38.9190   23.3690   38.2790 C   0  0  0  0  0  0  0  0  0  0  0  0
   37.7480   23.6290   37.5970 C   0  0  0  0  0  0  0  0  0  0  0  0
   37.6160   23.1920   36.3200 N   0  0  0  0  0  0  0  0  0  0  0  0
   38.5680   22.5220   35.7000 C   0  0  0  0  0  0  0  0  0  0  0  0
   39.7230   22.2630   36.3680 N   0  0  0  0  0  0  0  0  0  0  0  0
   40.8210   22.4790   38.1910 H   0  0  0  0  0  0  0  0  0  0  0  0
   39.0220   23.7170   39.2920 H   0  0  0  0  0  0  0  0  0  0  0  0
   36.9450   24.1730   38.0660 H   0  0  0  0  0  0  0  0  0  0  0  0
   37.6060   23.9180   32.2480 C   0  0  0  0  0  3  0  0  0  0  0  0
   37.3140   25.1440   32.6390 C   0  0  0  0  0  3  0  0  0  0  0  0
   37.9420   26.4420   32.3870 C   0  0  0  0  0  0  0  0  0  0  0  0
   37.1420   27.1560   32.0320 H   0  0  0  0  0  0  0  0  0  0  0  0
   38.7790   26.4310   31.6690 H   0  0  0  0  0  0  0  0  0  0  0  0
   38.3970   27.0350   33.6890 C   0  0  0  0  0  3  0  0  0  0  0  0
   38.0380   26.5190   34.8610 C   0  0  0  0  0  3  0  0  0  0  0  0
   38.4630   27.0720   36.1700 C   0  0  0  0  0  2  0  0  0  0  0  0
   38.6710   28.1700   36.1130 H   0  0  0  0  0  0  0  0  0  0  0  0
  1  2  1  0  0  0  0
  1 11  1  0  0  0  0
  2  7  1  0  0  0  0
  3  8  1  0  0  0  0
  3  2  2  0  0  0  0
  4  3  1  0  0  0  0
  5  4  2  0  0  0  0
  5  6  1  0  0  0  0
  6  1  2  0  0  0  0
  9  4  1  0  0  0  0
 10  5  1  0  0  0  0
 11 12  1  1  0  0  0
 11 17  1  0  0  0  0
 13 19  1  0  0  0  0
 13 14  1  0  0  0  0
 14 20  1  0  0  0  0
 15 21  1  0  0  0  0
 15 14  2  0  0  0  0
 16 15  1  0  0  0  0
 17 16  2  0  0  0  0
 17 18  1  0  0  0  0
 18 13  2  0  0  0  0
 22  6  1  0  0  0  0
 22 23  2  0  0  0  0
 24 23  1  0  0  0  0
 24 27  1  0  0  0  0
 25 24  1  0  0  0  0
 26 24  1  0  0  0  0
 27 28  2  0  0  0  0
 28 29  1  0  0  0  0
 30 29  1  0  0  0  0
M  END
>  <minimizedAffinity>
-5.14380503

$$$$

 OpenBabel03272509413D

 30 31  0  0  1  0  0  0  0  0999 V2000
   36.1510   28.9760   32.2050 C   0  0  0  0  0  0  0  0  0  0  0  0
   36.2050   29.2570   30.8330 C   0  0  0  0  0  0  0  0  0  0  0  0
   37.0520   28.6100   29.9600 C   0  0  0  0  0  0  0  0  0  0  0  0
   37.9040   27.6250   30.4500 C   0  0  0  0  0  0  0  0  0  0  0  0
   37.8520   27.3500   31.7870 C   0  0  0  0  0  0  0  0  0  0  0  0
   37.0010   28.0080   32.6280 C   0  0  0  0  0  0  0  0  0  0  0  0
   35.5790   30.0020   30.3900 H   0  0  0  0  0  0  0  0  0  0  0  0
   37.0730   28.8480   28.9060 H   0  0  0  0  0  0  0  0  0  0  0  0
   38.5570   27.1320   29.7510 H   0  0  0  0  0  0  0  0  0  0  0  0
   38.5480   26.5690   32.0880 H   0  0  0  0  0  0  0  0  0  0  0  0
   35.2230   29.7150   33.0330 C   0  0  2  0  0  3  0  0  0  0  0  0
   34.0170   29.2530   33.0150 O   0  0  0  0  0  1  0  0  0  0  0  0
   35.8380   31.6450   36.0360 C   0  0  0  0  0  0  0  0  0  0  0  0
   36.1480   32.9160   35.5600 C   0  0  0  0  0  0  0  0  0  0  0  0
   36.1450   33.1170   34.1940 C   0  0  0  0  0  0  0  0  0  0  0  0
   35.8460   32.0800   33.3740 N   0  0  0  0  0  0  0  0  0  0  0  0
   35.5540   30.8780   33.8310 C   0  0  0  0  0  0  0  0  0  0  0  0
   35.5540   30.6760   35.1760 N   0  0  0  0  0  0  0  0  0  0  0  0
   35.8520   31.5330   37.1130 H   0  0  0  0  0  0  0  0  0  0  0  0
   36.3860   33.7410   36.2080 H   0  0  0  0  0  0  0  0  0  0  0  0
   36.3790   34.0840   33.7780 H   0  0  0  0  0  0  0  0  0  0  0  0
   37.0610   27.6040   34.0250 C   0  0  0  0  0  3  0  0  0  0  0  0
   38.1490   27.2720   34.6940 C   0  0  0  0  0  3  0  0  0  0  0  0
   38.3740   26.8520   36.0790 C   0  0  0  0  0  0  0  0  0  0  0  0
   37.5250   27.2500   36.7090 H   0  0  0  0  0  0  0  0  0  0  0  0
   39.3400   27.1590   36.5150 H   0  0  0  0  0  0  0  0  0  0  0  0
   38.2230   25.3620   36.1760 C   0  0  0  0  0  3  0  0  0  0  0  0
   37.9590   24.7540   37.3280 C   0  0  0  0  0  3  0  0  0  0  0  0
   37.8040   23.2860   37.4700 C   0  0  0  0  0  2  0  0  0  0  0  0
   38.3860   22.7260   36.6940 H   0  0  0  0  0  0  0  0  0  0  0  0
  1  6  1  0  0  0  0
  1 11  1  0  0  0  0
  2  1  2  0  0  0  0
  3  4  2  0  0  0  0
  3  2  1  0  0  0  0
  4  5  1  0  0  0  0
  5 10  1  0  0  0  0
  5  6  2  0  0  0  0
  6 22  1  0  0  0  0
  7  2  1  0  0  0  0
  8  3  1  0  0  0  0
  9  4  1  0  0  0  0
 11 12  1  6  0  0  0
 11 17  1  0  0  0  0
 13 19  1  0  0  0  0
 14 13  1  0  0  0  0
 14 20  1  0  0  0  0
 15 14  2  0  0  0  0
 16 17  2  0  0  0  0
 16 15  1  0  0  0  0
 17 18  1  0  0  0  0
 18 13  2  0  0  0  0
 21 15  1  0  0  0  0
 22 23  2  0  0  0  0
 23 24  1  0  0  0  0
 24 27  1  0  0  0  0
 24 26  1  0  0  0  0
 24 25  1  0  0  0  0
 27 28  2  0  0  0  0
 28 29  1  0  0  0  0
 30 29  1  0  0  0  0
M  END
>  <minimizedAffinity>
-5.13520765

$$$$

 OpenBabel03272509413D

 30 31  0  0  1  0  0  0  0  0999 V2000
   39.5590   26.7430   34.2300 C   0  0  0  0  0  0  0  0  0  0  0  0
   40.9430   26.7620   34.4480 C   0  0  0  0  0  0  0  0  0  0  0  0
   41.8600   27.0930   33.4730 C   0  0  0  0  0  0  0  0  0  0  0  0
   41.4020   27.4260   32.2020 C   0  0  0  0  0  0  0  0  0  0  0  0
   40.0530   27.4070   31.9880 C   0  0  0  0  0  0  0  0  0  0  0  0
   39.1690   27.0760   32.9750 C   0  0  0  0  0  0  0  0  0  0  0  0
   41.3640   26.5160   35.4000 H   0  0  0  0  0  0  0  0  0  0  0  0
   42.9220   27.0990   33.6690 H   0  0  0  0  0  0  0  0  0  0  0  0
   42.1350   27.6810   31.4560 H   0  0  0  0  0  0  0  0  0  0  0  0
   39.7800   27.6800   30.9710 H   0  0  0  0  0  0  0  0  0  0  0  0
   38.6860   26.3810   35.3250 C   0  0  2  0  0  3  0  0  0  0  0  0
   38.2540   27.3880   36.0090 O   0  0  0  0  0  1  0  0  0  0  0  0
   38.0610   22.8460   34.8390 C   0  0  0  0  0  0  0  0  0  0  0  0
   37.6160   22.4110   36.0850 C   0  0  0  0  0  0  0  0  0  0  0  0
   37.5270   23.3370   37.1040 C   0  0  0  0  0  0  0  0  0  0  0  0
   37.8740   24.6250   36.8590 N   0  0  0  0  0  0  0  0  0  0  0  0
   38.2950   25.0310   35.6770 C   0  0  0  0  0  0  0  0  0  0  0  0
   38.3830   24.1220   34.6700 N   0  0  0  0  0  0  0  0  0  0  0  0
   38.1150   22.0860   34.0700 H   0  0  0  0  0  0  0  0  0  0  0  0
   37.3400   21.3890   36.2820 H   0  0  0  0  0  0  0  0  0  0  0  0
   37.1880   23.0470   38.0850 H   0  0  0  0  0  0  0  0  0  0  0  0
   37.7650   27.1010   32.5950 C   0  0  0  0  0  3  0  0  0  0  0  0
   37.2050   26.3930   31.6330 C   0  0  0  0  0  3  0  0  0  0  0  0
   35.8300   26.3050   31.1360 C   0  0  0  0  0  0  0  0  0  0  0  0
   35.8410   26.5360   30.0310 H   0  0  0  0  0  0  0  0  0  0  0  0
   35.1000   26.9540   31.6480 H   0  0  0  0  0  0  0  0  0  0  0  0
   35.3720   24.8760   31.1970 C   0  0  0  0  0  3  0  0  0  0  0  0
   36.1600   23.9020   31.6410 C   0  0  0  0  0  3  0  0  0  0  0  0
   35.7500   22.4790   31.7170 C   0  0  0  0  0  2  0  0  0  0  0  0
   34.9700   22.2270   30.9560 H   0  0  0  0  0  0  0  0  0  0  0  0
  1  2  1  0  0  0  0
  1 11  1  0  0  0  0
  2  7  1  0  0  0  0
  3  8  1  0  0  0  0
  3  2  2  0  0  0  0
  4  3  1  0  0  0  0
  5  4  2  0  0  0  0
  5  6  1  0  0  0  0
  6  1  2  0  0  0  0
  9  4  1  0  0  0  0
 10  5  1  0  0  0  0
 11 17  1  0  0  0  0
 11 12  1  1  0  0  0
 13 14  1  0  0  0  0
 14 20  1  0  0  0  0
 14 15  2  0  0  0  0
 15 21  1  0  0  0  0
 16 15  1  0  0  0  0
 17 16  2  0  0  0  0
 18 13  2  0  0  0  0
 18 17  1  0  0  0  0
 19 13  1  0  0  0  0
 22  6  1  0  0  0  0
 23 22  2  0  0  0  0
 24 27  1  0  0  0  0
 24 23  1  0  0  0  0
 24 26  1  0  0  0  0
 25 24  1  0  0  0  0
 27 28  2  0  0  0  0
 28 29  1  0  0  0  0
 30 29  1  0  0  0  0
M  END
>  <minimizedAffinity>
-5.08888245

$$$$

 OpenBabel03272509413D

 30 31  0  0  1  0  0  0  0  0999 V2000
   38.2530   25.0950   35.4350 C   0  0  0  0  0  0  0  0  0  0  0  0
   38.2750   26.2860   36.1730 C   0  0  0  0  0  0  0  0  0  0  0  0
   37.9420   27.5130   35.6430 C   0  0  0  0  0  0  0  0  0  0  0  0
   37.5640   27.5900   34.3050 C   0  0  0  0  0  0  0  0  0  0  0  0
   37.5430   26.4300   33.5850 C   0  0  0  0  0  0  0  0  0  0  0  0
   37.8770   25.2280   34.1400 C   0  0  0  0  0  0  0  0  0  0  0  0
   38.5570   26.3000   37.2050 H   0  0  0  0  0  0  0  0  0  0  0  0
   37.9690   28.4160   36.2350 H   0  0  0  0  0  0  0  0  0  0  0  0
   37.3090   28.5580   33.9110 H   0  0  0  0  0  0  0  0  0  0  0  0
   37.2370   26.5770   32.5510 H   0  0  0  0  0  0  0  0  0  0  0  0
   38.6210   23.8600   36.0930 C   0  0  2  0  0  3  0  0  0  0  0  0
   37.6210   23.2050   36.5810 O   0  0  0  0  0  1  0  0  0  0  0  0
   41.2870   21.7330   37.3140 C   0  0  0  0  0  0  0  0  0  0  0  0
   42.4200   22.2050   36.6560 C   0  0  0  0  0  0  0  0  0  0  0  0
   42.2710   23.2640   35.7830 C   0  0  0  0  0  0  0  0  0  0  0  0
   41.0400   23.8020   35.6000 N   0  0  0  0  0  0  0  0  0  0  0  0
   39.9710   23.3500   36.2270 C   0  0  0  0  0  0  0  0  0  0  0  0
   40.1120   22.3070   37.0870 N   0  0  0  0  0  0  0  0  0  0  0  0
   41.4500   20.9020   37.9880 H   0  0  0  0  0  0  0  0  0  0  0  0
   43.3980   21.7800   36.7990 H   0  0  0  0  0  0  0  0  0  0  0  0
   43.1190   23.6630   35.2510 H   0  0  0  0  0  0  0  0  0  0  0  0
   37.8060   24.0810   33.2460 C   0  0  0  0  0  3  0  0  0  0  0  0
   37.0860   23.9980   32.1430 C   0  0  0  0  0  3  0  0  0  0  0  0
   36.9090   22.9340   31.1510 C   0  0  0  0  0  0  0  0  0  0  0  0
   37.9300   22.6310   30.7760 H   0  0  0  0  0  0  0  0  0  0  0  0
   36.2570   23.1870   30.2980 H   0  0  0  0  0  0  0  0  0  0  0  0
   36.3980   21.6990   31.8340 C   0  0  0  0  0  3  0  0  0  0  0  0
   35.2510   21.1240   31.4830 C   0  0  0  0  0  3  0  0  0  0  0  0
   34.7080   19.9060   32.1300 C   0  0  0  0  0  2  0  0  0  0  0  0
   35.0490   19.8080   33.1920 H   0  0  0  0  0  0  0  0  0  0  0  0
  1 11  1  0  0  0  0
  1  2  1  0  0  0  0
  2  7  1  0  0  0  0
  3  2  2  0  0  0  0
  3  8  1  0  0  0  0
  4  3  1  0  0  0  0
  5  6  1  0  0  0  0
  5  4  2  0  0  0  0
  6  1  2  0  0  0  0
  9  4  1  0  0  0  0
 10  5  1  0  0  0  0
 11 17  1  0  0  0  0
 11 12  1  1  0  0  0
 13 19  1  0  0  0  0
 14 20  1  0  0  0  0
 14 13  2  0  0  0  0
 15 14  1  0  0  0  0
 16 15  2  0  0  0  0
 16 17  1  0  0  0  0
 17 18  2  0  0  0  0
 18 13  1  0  0  0  0
 21 15  1  0  0  0  0
 22  6  1  0  0  0  0
 23 22  2  0  0  0  0
 24 27  1  0  0  0  0
 24 23  1  0  0  0  0
 25 24  1  0  0  0  0
 26 24  1  0  0  0  0
 28 27  2  0  0  0  0
 28 29  1  0  0  0  0
 29 30  1  0  0  0  0
M  END
>  <minimizedAffinity>
-5.086061

$$$$

 OpenBabel03272509413D

 30 31  0  0  1  0  0  0  0  0999 V2000
   38.8190   26.8360   33.5870 C   0  0  0  0  0  0  0  0  0  0  0  0
   39.9420   26.6260   32.7760 C   0  0  0  0  0  0  0  0  0  0  0  0
   40.0170   27.0370   31.4630 C   0  0  0  0  0  0  0  0  0  0  0  0
   38.9280   27.6970   30.9000 C   0  0  0  0  0  0  0  0  0  0  0  0
   37.8340   27.9040   31.6900 C   0  0  0  0  0  0  0  0  0  0  0  0
   37.7900   27.4840   32.9890 C   0  0  0  0  0  0  0  0  0  0  0  0
   40.8130   26.1240   33.1430 H   0  0  0  0  0  0  0  0  0  0  0  0
   40.8950   26.8610   30.8600 H   0  0  0  0  0  0  0  0  0  0  0  0
   39.0080   28.0110   29.8730 H   0  0  0  0  0  0  0  0  0  0  0  0
   37.0300   28.4250   31.1750 H   0  0  0  0  0  0  0  0  0  0  0  0
   38.8480   26.3620   34.9530 C   0  0  2  0  0  3  0  0  0  0  0  0
   39.2850   27.2300   35.8030 O   0  0  0  0  0  1  0  0  0  0  0  0
   38.0570   22.8380   34.6730 C   0  0  0  0  0  0  0  0  0  0  0  0
   37.6980   22.4710   35.9680 C   0  0  0  0  0  0  0  0  0  0  0  0
   37.7270   23.4410   36.9500 C   0  0  0  0  0  0  0  0  0  0  0  0
   38.1000   24.7030   36.6220 N   0  0  0  0  0  0  0  0  0  0  0  0
   38.4380   25.0440   35.3930 C   0  0  0  0  0  0  0  0  0  0  0  0
   38.4100   24.0920   34.4230 N   0  0  0  0  0  0  0  0  0  0  0  0
   38.0190   22.0460   33.9350 H   0  0  0  0  0  0  0  0  0  0  0  0
   37.4030   21.4710   36.2310 H   0  0  0  0  0  0  0  0  0  0  0  0
   37.4590   23.2050   37.9660 H   0  0  0  0  0  0  0  0  0  0  0  0
   36.5550   27.7760   33.7020 C   0  0  0  0  0  3  0  0  0  0  0  0
   35.8750   28.9050   33.6500 C   0  0  0  0  0  3  0  0  0  0  0  0
   34.6360   29.3480   34.2950 C   0  0  0  0  0  0  0  0  0  0  0  0
   34.5130   28.7680   35.2560 H   0  0  0  0  0  0  0  0  0  0  0  0
   33.7240   29.2550   33.6810 H   0  0  0  0  0  0  0  0  0  0  0  0
   34.7970   30.7690   34.7530 C   0  0  0  0  0  3  0  0  0  0  0  0
   35.8360   31.1600   35.4840 C   0  0  0  0  0  3  0  0  0  0  0  0
   36.0340   32.5510   35.9590 C   0  0  0  0  0  2  0  0  0  0  0  0
   35.0620   33.0930   36.0820 H   0  0  0  0  0  0  0  0  0  0  0  0
  1 11  1  0  0  0  0
  2  7  1  0  0  0  0
  2  1  2  0  0  0  0
  3  2  1  0  0  0  0
  4  3  2  0  0  0  0
  4  5  1  0  0  0  0
  5  6  2  0  0  0  0
  6  1  1  0  0  0  0
  6 22  1  0  0  0  0
  8  3  1  0  0  0  0
  9  4  1  0  0  0  0
 10  5  1  0  0  0  0
 11 17  1  0  0  0  0
 11 12  1  6  0  0  0
 13 14  1  0  0  0  0
 14 20  1  0  0  0  0
 14 15  2  0  0  0  0
 15 21  1  0  0  0  0
 16 15  1  0  0  0  0
 17 16  2  0  0  0  0
 18 13  2  0  0  0  0
 18 17  1  0  0  0  0
 19 13  1  0  0  0  0
 23 22  2  0  0  0  0
 23 24  1  0  0  0  0
 24 27  1  0  0  0  0
 24 25  1  0  0  0  0
 26 24  1  0  0  0  0
 27 28  2  0  0  0  0
 28 29  1  0  0  0  0
 29 30  1  0  0  0  0
M  END
>  <minimizedAffinity>
-5.01178694

$$$$

 OpenBabel03272509413D

 30 31  0  0  1  0  0  0  0  0999 V2000
   38.7750   25.9540   33.8410 C   0  0  0  0  0  0  0  0  0  0  0  0
   39.8330   26.8730   33.8160 C   0  0  0  0  0  0  0  0  0  0  0  0
   40.5480   27.1750   32.6780 C   0  0  0  0  0  0  0  0  0  0  0  0
   40.2150   26.5420   31.4840 C   0  0  0  0  0  0  0  0  0  0  0  0
   39.1840   25.6460   31.5070 C   0  0  0  0  0  0  0  0  0  0  0  0
   38.4930   25.3690   32.6520 C   0  0  0  0  0  0  0  0  0  0  0  0
   40.1420   27.3950   34.6980 H   0  0  0  0  0  0  0  0  0  0  0  0
   41.3600   27.8870   32.6880 H   0  0  0  0  0  0  0  0  0  0  0  0
   40.7860   26.7920   30.6070 H   0  0  0  0  0  0  0  0  0  0  0  0
   38.9880   25.1980   30.5360 H   0  0  0  0  0  0  0  0  0  0  0  0
   38.0910   25.7130   35.0930 C   0  0  2  0  0  3  0  0  0  0  0  0
   37.0310   26.4310   35.2610 O   0  0  0  0  0  1  0  0  0  0  0  0
   38.1020   24.0490   38.3110 C   0  0  0  0  0  0  0  0  0  0  0  0
   39.1020   23.0880   38.1870 C   0  0  0  0  0  0  0  0  0  0  0  0
   39.7820   23.0070   36.9880 C   0  0  0  0  0  0  0  0  0  0  0  0
   39.4550   23.8570   35.9840 N   0  0  0  0  0  0  0  0  0  0  0  0
   38.5070   24.7660   36.1080 C   0  0  0  0  0  0  0  0  0  0  0  0
   37.8350   24.8500   37.2870 N   0  0  0  0  0  0  0  0  0  0  0  0
   37.5960   24.0770   39.2670 H   0  0  0  0  0  0  0  0  0  0  0  0
   39.3640   22.4110   38.9820 H   0  0  0  0  0  0  0  0  0  0  0  0
   40.5630   22.2790   36.8450 H   0  0  0  0  0  0  0  0  0  0  0  0
   37.4210   24.3930   32.5180 C   0  0  0  0  0  3  0  0  0  0  0  0
   36.7070   24.1640   31.4320 C   0  0  0  0  0  3  0  0  0  0  0  0
   35.6150   23.2330   31.1400 C   0  0  0  0  0  0  0  0  0  0  0  0
   35.5770   23.0770   30.0220 H   0  0  0  0  0  0  0  0  0  0  0  0
   34.6220   23.5380   31.5100 H   0  0  0  0  0  0  0  0  0  0  0  0
   35.9640   21.8760   31.6790 C   0  0  0  0  0  3  0  0  0  0  0  0
   35.2280   21.2780   32.6110 C   0  0  0  0  0  3  0  0  0  0  0  0
   35.5360   19.9400   33.1720 C   0  0  0  0  0  2  0  0  0  0  0  0
   36.6300   19.7100   33.1290 H   0  0  0  0  0  0  0  0  0  0  0  0
  1 11  1  0  0  0  0
  2  1  1  0  0  0  0
  2  7  1  0  0  0  0
  3  8  1  0  0  0  0
  3  2  2  0  0  0  0
  4  5  2  0  0  0  0
  4  3  1  0  0  0  0
  5  6  1  0  0  0  0
  6  1  2  0  0  0  0
  9  4  1  0  0  0  0
 10  5  1  0  0  0  0
 11 12  1  1  0  0  0
 11 17  1  0  0  0  0
 13 19  1  0  0  0  0
 14 13  1  0  0  0  0
 14 20  1  0  0  0  0
 15 14  2  0  0  0  0
 16 17  2  0  0  0  0
 16 15  1  0  0  0  0
 17 18  1  0  0  0  0
 18 13  2  0  0  0  0
 21 15  1  0  0  0  0
 22  6  1  0  0  0  0
 23 22  2  0  0  0  0
 24 23  1  0  0  0  0
 24 26  1  0  0  0  0
 24 27  1  0  0  0  0
 25 24  1  0  0  0  0
 27 28  2  0  0  0  0
 28 29  1  0  0  0  0
 30 29  1  0  0  0  0
M  END
>  <minimizedAffinity>
-4.98900604

$$$$
