
 OpenBabel03272502293D

 18 18  0  0  0  0  0  0  0  0999 V2000
   37.3960   30.2680   51.3550 C   0  0  0  0  0  0  0  0  0  0  0  0
   38.0640   30.7900   50.2460 C   0  0  0  0  0  0  0  0  0  0  0  0
   37.6390   30.4350   48.9820 C   0  0  0  0  0  0  0  0  0  0  0  0
   36.5790   29.5830   48.8620 N   0  0  0  0  0  0  0  0  0  0  0  0
   35.9500   29.0910   49.9460 C   0  0  0  0  0  0  0  0  0  0  0  0
   36.3590   29.4340   51.1810 N   0  0  0  0  0  0  0  0  0  0  0  0
   37.6940   30.5190   52.3680 H   0  0  0  0  0  0  0  0  0  0  0  0
   38.9030   31.4660   50.4170 H   0  0  0  0  0  0  0  0  0  0  0  0
   35.1080   28.4150   49.7910 H   0  0  0  0  0  0  0  0  0  0  0  0
   38.2890   30.9420   47.8120 C   0  0  0  0  0  3  0  0  0  0  0  0
   38.8430   32.1260   47.7690 C   0  0  0  0  0  3  0  0  0  0  0  0
   39.5270   32.6790   46.5600 C   0  0  0  0  0  0  0  0  0  0  0  0
   39.7320   33.7420   46.7710 H   0  0  0  0  0  0  0  0  0  0  0  0
   40.5220   32.1630   46.5150 H   0  0  0  0  0  0  0  0  0  0  0  0
   38.7630   32.4340   45.3300 C   0  0  0  0  0  3  0  0  0  0  0  0
   39.1710   31.7930   44.2390 C   0  0  0  0  0  3  0  0  0  0  0  0
   40.5530   31.2540   44.2380 C   0  0  0  0  0  2  0  0  0  0  0  0
   40.5710   30.2500   44.7520 H   0  0  0  0  0  0  0  0  0  0  0  0
  1  7  1  0  0  0  0
  2  8  1  0  0  0  0
  2  1  2  0  0  0  0
  3  2  1  0  0  0  0
  4  3  2  0  0  0  0
  4  5  1  0  0  0  0
  5  6  2  0  0  0  0
  6  1  1  0  0  0  0
  9  5  1  0  0  0  0
 10  3  1  0  0  0  0
 11 10  2  0  0  0  0
 12 13  1  0  0  0  0
 12 11  1  0  0  0  0
 14 12  1  0  0  0  0
 15 12  1  0  0  0  0
 16 15  2  0  0  0  0
 17 16  1  0  0  0  0
 17 18  1  0  0  0  0
M  END
>  <minimizedAffinity>
-4.4853549

>  <minimizedRMSD>
1.33060086

$$$$
