
 OpenBabel03272510043D

 32 33  0  0  0  0  0  0  0  0999 V2000
   36.1290   30.3640   45.5030 C   0  0  0  0  0  0  0  0  0  0  0  0
   35.7180   30.1520   46.7810 C   0  0  0  0  0  0  0  0  0  0  0  0
   34.4770   29.5720   47.0180 C   0  0  0  0  0  0  0  0  0  0  0  0
   33.6260   29.1960   45.9960 C   0  0  0  0  0  0  0  0  0  0  0  0
   34.0060   29.3990   44.6970 C   0  0  0  0  0  0  0  0  0  0  0  0
   35.2380   29.9720   44.4970 C   0  0  0  0  0  0  0  0  0  0  0  0
   34.1720   29.4100   48.0630 H   0  0  0  0  0  0  0  0  0  0  0  0
   32.7000   28.7590   46.2880 H   0  0  0  0  0  0  0  0  0  0  0  0
   33.3160   29.0940   43.9260 H   0  0  0  0  0  0  0  0  0  0  0  0
   35.4270   30.0860   43.4210 H   0  0  0  0  0  0  0  0  0  0  0  0
   38.0490   32.0930   48.8560 C   0  0  0  0  0  0  0  0  0  0  0  0
   37.2550   31.6790   47.7960 C   0  0  0  0  0  0  0  0  0  0  0  0
   36.5100   30.5460   47.8960 C   0  0  0  0  0  0  0  0  0  0  0  0
   36.5810   29.8560   49.0680 N   0  0  0  0  0  0  0  0  0  0  0  0
   37.3420   30.2520   50.0940 C   0  0  0  0  0  0  0  0  0  0  0  0
   38.0720   31.3650   49.9800 N   0  0  0  0  0  0  0  0  0  0  0  0
   38.6920   32.9460   48.9470 H   0  0  0  0  0  0  0  0  0  0  0  0
   37.3900   32.4380   47.0620 H   0  0  0  0  0  0  0  0  0  0  0  0
   37.2690   29.4380   51.3370 C   0  0  0  0  0  0  0  0  0  0  0  0
   37.5670   30.1830   52.4610 F   0  0  0  0  0  0  0  0  0  0  0  0
   35.8870   29.0720   51.5640 F   0  0  0  0  0  0  0  0  0  0  0  0
   37.8960   28.2840   51.3410 F   0  0  0  0  0  0  0  0  0  0  0  0
   37.6480   31.0350   45.0820 S   0  0  0  0  0  0  0  0  0  0  0  0
   37.5030   32.3940   44.5010 O   0  0  0  0  0  0  0  0  0  0  0  0
   37.8600   30.3120   43.7680 O   0  0  0  0  0  0  0  0  0  0  0  0
   39.2000   30.5030   45.5090 C   0  0  0  0  0  0  0  0  0  0  0  0
   39.2800   29.4040   45.5980 H   0  0  0  0  0  0  0  0  0  0  0  0
   39.2860   30.7750   46.6370 H   0  0  0  0  0  0  0  0  0  0  0  0
   40.3470   31.2100   44.9630 C   0  0  0  0  0  3  0  0  0  0  0  0
   40.9320   32.3880   45.1510 C   0  0  0  0  0  3  0  0  0  0  0  0
   40.3050   33.2710   46.1730 C   0  0  0  0  0  2  0  0  0  0  0  0
   39.3890   33.7270   45.7030 H   0  0  0  0  0  0  0  0  0  0  0  0
  1  2  1  0  0  0  0
  2  3  2  0  0  0  0
  2 13  1  0  0  0  0
  3  7  1  0  0  0  0
  4  8  1  0  0  0  0
  4  3  1  0  0  0  0
  5  4  2  0  0  0  0
  6  5  1  0  0  0  0
  6  1  2  0  0  0  0
  9  5  1  0  0  0  0
 10  6  1  0  0  0  0
 11 17  1  0  0  0  0
 11 16  1  0  0  0  0
 12 13  1  0  0  0  0
 12 11  2  0  0  0  0
 13 14  2  0  0  0  0
 14 15  1  0  0  0  0
 15 19  1  0  0  0  0
 16 15  2  0  0  0  0
 18 12  1  0  0  0  0
 19 22  1  0  0  0  0
 19 21  1  0  0  0  0
 19 20  1  0  0  0  0
 23  1  1  0  0  0  0
 23 26  1  0  0  0  0
 24 23  2  0  0  0  0
 25 23  2  0  0  0  0
 26 27  1  0  0  0  0
 26 28  1  0  0  0  0
 29 30  2  0  0  0  0
 29 26  1  0  0  0  0
 30 31  1  0  0  0  0
 32 31  1  0  0  0  0
M  END
>  <minimizedAffinity>
-6.08407497

>  <minimizedRMSD>
1.9023546

$$$$
