
 OpenBabel03272510043D

 32 33  0  0  0  0  0  0  0  0999 V2000
   35.7860   30.3660   45.7000 C   0  0  0  0  0  0  0  0  0  0  0  0
   35.4360   30.2660   47.0100 C   0  0  0  0  0  0  0  0  0  0  0  0
   34.1460   29.8760   47.3500 C   0  0  0  0  0  0  0  0  0  0  0  0
   33.1850   29.5820   46.4020 C   0  0  0  0  0  0  0  0  0  0  0  0
   33.5010   29.6760   45.0730 C   0  0  0  0  0  0  0  0  0  0  0  0
   34.7850   30.0620   44.7710 C   0  0  0  0  0  0  0  0  0  0  0  0
   33.8920   29.8010   48.4180 H   0  0  0  0  0  0  0  0  0  0  0  0
   32.2290   29.2920   46.7700 H   0  0  0  0  0  0  0  0  0  0  0  0
   32.7260   29.4410   44.3620 H   0  0  0  0  0  0  0  0  0  0  0  0
   34.9150   30.1050   43.6810 H   0  0  0  0  0  0  0  0  0  0  0  0
   38.0960   31.9890   48.8710 C   0  0  0  0  0  0  0  0  0  0  0  0
   37.1850   31.6470   47.8820 C   0  0  0  0  0  0  0  0  0  0  0  0
   36.3470   30.5880   48.0540 C   0  0  0  0  0  0  0  0  0  0  0  0
   36.4480   29.9010   49.2250 N   0  0  0  0  0  0  0  0  0  0  0  0
   37.3210   30.2290   50.1830 C   0  0  0  0  0  0  0  0  0  0  0  0
   38.1400   31.2680   49.9990 N   0  0  0  0  0  0  0  0  0  0  0  0
   38.8200   32.7790   48.9010 H   0  0  0  0  0  0  0  0  0  0  0  0
   37.3310   32.3860   47.1310 H   0  0  0  0  0  0  0  0  0  0  0  0
   37.2720   29.4320   51.4380 C   0  0  0  0  0  0  0  0  0  0  0  0
   37.5760   30.1950   52.5480 F   0  0  0  0  0  0  0  0  0  0  0  0
   35.8970   29.0530   51.6870 F   0  0  0  0  0  0  0  0  0  0  0  0
   37.9110   28.2840   51.4500 F   0  0  0  0  0  0  0  0  0  0  0  0
   37.3520   30.7990   45.1550 S   0  0  0  0  0  0  0  0  0  0  0  0
   37.3590   32.1460   44.5300 O   0  0  0  0  0  0  0  0  0  0  0  0
   37.3680   30.0120   43.8610 O   0  0  0  0  0  0  0  0  0  0  0  0
   38.8400   30.0630   45.5030 C   0  0  0  0  0  0  0  0  0  0  0  0
   38.9570   29.0670   45.0400 H   0  0  0  0  0  0  0  0  0  0  0  0
   38.7300   29.7270   46.6110 H   0  0  0  0  0  0  0  0  0  0  0  0
   40.0230   30.9040   45.5820 C   0  0  0  0  0  3  0  0  0  0  0  0
   40.8610   31.4710   44.7200 C   0  0  0  0  0  3  0  0  0  0  0  0
   40.5780   31.2280   43.2800 C   0  0  0  0  0  2  0  0  0  0  0  0
   40.9340   30.1850   43.0400 H   0  0  0  0  0  0  0  0  0  0  0  0
  1  2  1  0  0  0  0
  2  3  2  0  0  0  0
  2 13  1  0  0  0  0
  3  7  1  0  0  0  0
  4  8  1  0  0  0  0
  4  3  1  0  0  0  0
  5  4  2  0  0  0  0
  6  5  1  0  0  0  0
  6  1  2  0  0  0  0
  9  5  1  0  0  0  0
 10  6  1  0  0  0  0
 11 17  1  0  0  0  0
 11 16  1  0  0  0  0
 12 13  1  0  0  0  0
 12 11  2  0  0  0  0
 13 14  2  0  0  0  0
 14 15  1  0  0  0  0
 15 19  1  0  0  0  0
 16 15  2  0  0  0  0
 18 12  1  0  0  0  0
 19 22  1  0  0  0  0
 19 21  1  0  0  0  0
 19 20  1  0  0  0  0
 23 26  1  0  0  0  0
 23  1  1  0  0  0  0
 24 23  2  0  0  0  0
 25 23  2  0  0  0  0
 26 29  1  0  0  0  0
 26 28  1  0  0  0  0
 27 26  1  0  0  0  0
 30 29  2  0  0  0  0
 31 30  1  0  0  0  0
 32 31  1  0  0  0  0
M  END
>  <minimizedAffinity>
-5.68375683

>  <minimizedRMSD>
2.26607442

$$$$
