
 OpenBabel03272509403D

 30 31  0  0  1  0  0  0  0  0999 V2000
   37.0730   30.9530   49.0530 C   0  0  0  0  0  0  0  0  0  0  0  0
   36.8360   31.9180   50.0410 C   0  0  0  0  0  0  0  0  0  0  0  0
   37.4460   33.1530   50.0560 C   0  0  0  0  0  0  0  0  0  0  0  0
   38.3460   33.4740   49.0440 C   0  0  0  0  0  0  0  0  0  0  0  0
   38.5770   32.5350   48.0800 C   0  0  0  0  0  0  0  0  0  0  0  0
   37.9570   31.3180   48.0920 C   0  0  0  0  0  0  0  0  0  0  0  0
   36.1570   31.7370   50.8490 H   0  0  0  0  0  0  0  0  0  0  0  0
   37.2450   33.8780   50.8320 H   0  0  0  0  0  0  0  0  0  0  0  0
   38.8100   34.4440   49.0750 H   0  0  0  0  0  0  0  0  0  0  0  0
   39.2910   32.8640   47.3280 H   0  0  0  0  0  0  0  0  0  0  0  0
   36.3770   29.6870   49.1330 C   0  0  2  0  0  3  0  0  0  0  0  0
   36.9090   28.8450   49.9560 O   0  0  0  0  0  1  0  0  0  0  0  0
   33.6060   30.1450   46.8460 C   0  0  0  0  0  0  0  0  0  0  0  0
   32.9490   28.9160   46.8650 C   0  0  0  0  0  0  0  0  0  0  0  0
   33.4600   27.9190   47.6710 C   0  0  0  0  0  0  0  0  0  0  0  0
   34.5720   28.1670   48.4070 N   0  0  0  0  0  0  0  0  0  0  0  0
   35.1890   29.3330   48.3840 C   0  0  0  0  0  0  0  0  0  0  0  0
   34.6890   30.3190   47.5920 N   0  0  0  0  0  0  0  0  0  0  0  0
   33.1700   30.8970   46.2010 H   0  0  0  0  0  0  0  0  0  0  0  0
   32.0670   28.7160   46.2820 H   0  0  0  0  0  0  0  0  0  0  0  0
   32.9870   26.9520   47.7190 H   0  0  0  0  0  0  0  0  0  0  0  0
   38.3050   30.4240   46.9980 C   0  0  0  0  0  3  0  0  0  0  0  0
   38.8930   30.7690   45.8680 C   0  0  0  0  0  3  0  0  0  0  0  0
   39.3060   30.0030   44.6900 C   0  0  0  0  0  0  0  0  0  0  0  0
   38.5180   29.2210   44.4850 H   0  0  0  0  0  0  0  0  0  0  0  0
   40.2980   29.5260   44.7600 H   0  0  0  0  0  0  0  0  0  0  0  0
   39.2530   30.8890   43.4790 C   0  0  0  0  0  3  0  0  0  0  0  0
   39.2540   32.2150   43.5750 C   0  0  0  0  0  3  0  0  0  0  0  0
   39.2030   33.1270   42.4070 C   0  0  0  0  0  2  0  0  0  0  0  0
   38.6860   32.6580   41.5320 H   0  0  0  0  0  0  0  0  0  0  0  0
  1 11  1  0  0  0  0
  1  2  1  0  0  0  0
  2  3  2  0  0  0  0
  2  7  1  0  0  0  0
  3  8  1  0  0  0  0
  4  9  1  0  0  0  0
  4  3  1  0  0  0  0
  5  6  1  0  0  0  0
  5  4  2  0  0  0  0
  6  1  2  0  0  0  0
 10  5  1  0  0  0  0
 11 12  1  6  0  0  0
 13 14  2  0  0  0  0
 13 18  1  0  0  0  0
 14 15  1  0  0  0  0
 15 21  1  0  0  0  0
 15 16  2  0  0  0  0
 17 16  1  0  0  0  0
 17 11  1  0  0  0  0
 18 17  2  0  0  0  0
 19 13  1  0  0  0  0
 20 14  1  0  0  0  0
 22  6  1  0  0  0  0
 23 22  2  0  0  0  0
 24 26  1  0  0  0  0
 24 23  1  0  0  0  0
 25 24  1  0  0  0  0
 27 28  2  0  0  0  0
 27 24  1  0  0  0  0
 29 28  1  0  0  0  0
 30 29  1  0  0  0  0
M  END
>  <minimizedAffinity>
-5.54220581

>  <minimizedRMSD>
1.11330593

$$$$
