
 OpenBabel03272502293D

 18 18  0  0  0  0  0  0  0  0999 V2000
   38.7530   23.3300   38.4790 C   0  0  0  0  0  0  0  0  0  0  0  0
   38.0530   24.3150   37.7800 C   0  0  0  0  0  0  0  0  0  0  0  0
   38.4440   24.6240   36.4920 C   0  0  0  0  0  0  0  0  0  0  0  0
   39.5020   23.9540   35.9490 N   0  0  0  0  0  0  0  0  0  0  0  0
   40.1620   23.0080   36.6440 C   0  0  0  0  0  0  0  0  0  0  0  0
   39.7860   22.7020   37.8990 N   0  0  0  0  0  0  0  0  0  0  0  0
   38.4820   23.0540   39.4940 H   0  0  0  0  0  0  0  0  0  0  0  0
   37.2170   24.8090   38.2750 H   0  0  0  0  0  0  0  0  0  0  0  0
   41.0010   22.5040   36.1610 H   0  0  0  0  0  0  0  0  0  0  0  0
   37.7610   25.6250   35.7300 C   0  0  0  0  0  3  0  0  0  0  0  0
   38.0600   26.8960   35.8060 C   0  0  0  0  0  3  0  0  0  0  0  0
   37.3620   27.9610   35.0230 C   0  0  0  0  0  0  0  0  0  0  0  0
   36.4400   28.2070   35.5740 H   0  0  0  0  0  0  0  0  0  0  0  0
   38.0250   28.8640   35.0860 H   0  0  0  0  0  0  0  0  0  0  0  0
   37.1540   27.5720   33.6210 C   0  0  0  0  0  3  0  0  0  0  0  0
   36.3870   28.1770   32.7200 C   0  0  0  0  0  3  0  0  0  0  0  0
   35.6430   29.3850   33.1530 C   0  0  0  0  0  2  0  0  0  0  0  0
   36.3150   30.2880   33.0870 H   0  0  0  0  0  0  0  0  0  0  0  0
  1  7  1  0  0  0  0
  2  8  1  0  0  0  0
  2  1  2  0  0  0  0
  3  2  1  0  0  0  0
  4  3  2  0  0  0  0
  4  5  1  0  0  0  0
  5  6  2  0  0  0  0
  6  1  1  0  0  0  0
  9  5  1  0  0  0  0
 10 11  2  0  0  0  0
 10  3  1  0  0  0  0
 12 14  1  0  0  0  0
 12 13  1  0  0  0  0
 12 11  1  0  0  0  0
 15 12  1  0  0  0  0
 16 17  1  0  0  0  0
 16 15  2  0  0  0  0
 18 17  1  0  0  0  0
M  END
>  <minimizedAffinity>
-3.93065166

$$$$

 OpenBabel03272502293D

 18 18  0  0  0  0  0  0  0  0999 V2000
   39.8650   22.7600   37.1750 C   0  0  0  0  0  0  0  0  0  0  0  0
   39.3080   22.2240   36.0120 C   0  0  0  0  0  0  0  0  0  0  0  0
   37.9370   22.2550   35.8520 C   0  0  0  0  0  0  0  0  0  0  0  0
   37.1750   22.8100   36.8380 N   0  0  0  0  0  0  0  0  0  0  0  0
   37.7340   23.3210   37.9520 C   0  0  0  0  0  0  0  0  0  0  0  0
   39.0690   23.2940   38.1140 N   0  0  0  0  0  0  0  0  0  0  0  0
   40.9370   22.7570   37.3440 H   0  0  0  0  0  0  0  0  0  0  0  0
   39.9780   21.7970   35.2650 H   0  0  0  0  0  0  0  0  0  0  0  0
   37.0760   23.7530   38.7080 H   0  0  0  0  0  0  0  0  0  0  0  0
   37.3160   21.7200   34.6790 C   0  0  0  0  0  3  0  0  0  0  0  0
   36.2100   21.0220   34.7220 C   0  0  0  0  0  3  0  0  0  0  0  0
   35.5410   20.4510   33.5130 C   0  0  0  0  0  0  0  0  0  0  0  0
   36.1930   19.6430   33.1430 H   0  0  0  0  0  0  0  0  0  0  0  0
   34.6050   19.9620   33.8900 H   0  0  0  0  0  0  0  0  0  0  0  0
   35.2180   21.4840   32.5190 C   0  0  0  0  0  3  0  0  0  0  0  0
   35.5470   21.4970   31.2310 C   0  0  0  0  0  3  0  0  0  0  0  0
   36.3310   20.3500   30.7130 C   0  0  0  0  0  2  0  0  0  0  0  0
   35.6360   19.4990   30.4560 H   0  0  0  0  0  0  0  0  0  0  0  0
  1  7  1  0  0  0  0
  1  6  1  0  0  0  0
  2  1  2  0  0  0  0
  3  2  1  0  0  0  0
  3  4  2  0  0  0  0
  4  5  1  0  0  0  0
  5  6  2  0  0  0  0
  5  9  1  0  0  0  0
  8  2  1  0  0  0  0
 10 11  2  0  0  0  0
 10  3  1  0  0  0  0
 12 14  1  0  0  0  0
 12 11  1  0  0  0  0
 13 12  1  0  0  0  0
 15 12  1  0  0  0  0
 16 15  2  0  0  0  0
 17 16  1  0  0  0  0
 18 17  1  0  0  0  0
M  END
>  <minimizedAffinity>
-3.87771773

$$$$

 OpenBabel03272502293D

 18 18  0  0  0  0  0  0  0  0999 V2000
   40.2950   23.0040   36.5490 C   0  0  0  0  0  0  0  0  0  0  0  0
   39.5880   23.9790   35.8440 C   0  0  0  0  0  0  0  0  0  0  0  0
   38.5150   24.5980   36.4540 C   0  0  0  0  0  0  0  0  0  0  0  0
   38.1830   24.2310   37.7260 N   0  0  0  0  0  0  0  0  0  0  0  0
   38.8800   23.2870   38.3870 C   0  0  0  0  0  0  0  0  0  0  0  0
   39.9280   22.6810   37.7980 N   0  0  0  0  0  0  0  0  0  0  0  0
   41.1460   22.4910   36.1100 H   0  0  0  0  0  0  0  0  0  0  0  0
   39.9100   24.2230   34.8310 H   0  0  0  0  0  0  0  0  0  0  0  0
   38.5710   23.0330   39.4020 H   0  0  0  0  0  0  0  0  0  0  0  0
   37.7560   25.6040   35.7760 C   0  0  0  0  0  3  0  0  0  0  0  0
   38.1100   26.8630   35.7580 C   0  0  0  0  0  3  0  0  0  0  0  0
   37.3360   27.9340   35.0590 C   0  0  0  0  0  0  0  0  0  0  0  0
   36.4230   28.1030   35.6520 H   0  0  0  0  0  0  0  0  0  0  0  0
   37.9570   28.8630   35.1510 H   0  0  0  0  0  0  0  0  0  0  0  0
   37.0980   27.6120   33.6450 C   0  0  0  0  0  3  0  0  0  0  0  0
   36.3030   28.2510   32.7940 C   0  0  0  0  0  3  0  0  0  0  0  0
   35.5570   29.4270   33.3030 C   0  0  0  0  0  2  0  0  0  0  0  0
   36.2170   30.3410   33.2660 H   0  0  0  0  0  0  0  0  0  0  0  0
  1  6  1  0  0  0  0
  2  3  1  0  0  0  0
  2  1  2  0  0  0  0
  3  4  2  0  0  0  0
  4  5  1  0  0  0  0
  5  9  1  0  0  0  0
  6  5  2  0  0  0  0
  7  1  1  0  0  0  0
  8  2  1  0  0  0  0
 10  3  1  0  0  0  0
 11 10  2  0  0  0  0
 12 14  1  0  0  0  0
 12 13  1  0  0  0  0
 12 11  1  0  0  0  0
 15 12  1  0  0  0  0
 16 17  1  0  0  0  0
 16 15  2  0  0  0  0
 18 17  1  0  0  0  0
M  END
>  <minimizedAffinity>
-3.83545017

$$$$

 OpenBabel03272502293D

 18 18  0  0  0  0  0  0  0  0999 V2000
   36.8650   28.5820   30.7300 C   0  0  0  0  0  0  0  0  0  0  0  0
   37.4320   27.7780   31.7200 C   0  0  0  0  0  0  0  0  0  0  0  0
   36.9370   27.8530   33.0060 C   0  0  0  0  0  0  0  0  0  0  0  0
   35.9080   28.7130   33.2630 N   0  0  0  0  0  0  0  0  0  0  0  0
   35.3770   29.4790   32.2920 C   0  0  0  0  0  0  0  0  0  0  0  0
   35.8540   29.4100   31.0360 N   0  0  0  0  0  0  0  0  0  0  0  0
   37.2210   28.5560   29.7040 H   0  0  0  0  0  0  0  0  0  0  0  0
   38.2510   27.1130   31.4430 H   0  0  0  0  0  0  0  0  0  0  0  0
   34.5560   30.1480   32.5530 H   0  0  0  0  0  0  0  0  0  0  0  0
   37.4820   27.0520   34.0590 C   0  0  0  0  0  3  0  0  0  0  0  0
   37.7040   27.5190   35.2600 C   0  0  0  0  0  3  0  0  0  0  0  0
   38.2740   26.7040   36.3760 C   0  0  0  0  0  0  0  0  0  0  0  0
   39.2890   27.0910   36.5650 H   0  0  0  0  0  0  0  0  0  0  0  0
   37.6590   26.9590   37.2790 H   0  0  0  0  0  0  0  0  0  0  0  0
   38.2080   25.2620   36.0990 C   0  0  0  0  0  3  0  0  0  0  0  0
   38.0620   24.2760   36.9780 C   0  0  0  0  0  3  0  0  0  0  0  0
   37.9530   24.6450   38.4100 C   0  0  0  0  0  2  0  0  0  0  0  0
   36.8870   24.9240   38.6500 H   0  0  0  0  0  0  0  0  0  0  0  0
  1  6  2  0  0  0  0
  1  2  1  0  0  0  0
  2  3  2  0  0  0  0
  3  4  1  0  0  0  0
  3 10  1  0  0  0  0
  5  9  1  0  0  0  0
  5  4  2  0  0  0  0
  6  5  1  0  0  0  0
  7  1  1  0  0  0  0
  8  2  1  0  0  0  0
 10 11  2  0  0  0  0
 11 12  1  0  0  0  0
 12 13  1  0  0  0  0
 12 14  1  0  0  0  0
 15 12  1  0  0  0  0
 15 16  2  0  0  0  0
 16 17  1  0  0  0  0
 17 18  1  0  0  0  0
M  END
>  <minimizedAffinity>
-3.63601422

$$$$

 OpenBabel03272502293D

 18 18  0  0  0  0  0  0  0  0999 V2000
   37.0410   26.7540   33.5840 C   0  0  0  0  0  0  0  0  0  0  0  0
   36.6950   27.9570   34.2030 C   0  0  0  0  0  0  0  0  0  0  0  0
   35.8750   28.8410   33.5310 C   0  0  0  0  0  0  0  0  0  0  0  0
   35.4320   28.5070   32.2840 N   0  0  0  0  0  0  0  0  0  0  0  0
   35.7800   27.3410   31.7070 C   0  0  0  0  0  0  0  0  0  0  0  0
   36.5780   26.4740   32.3570 N   0  0  0  0  0  0  0  0  0  0  0  0
   37.6830   26.0280   34.0740 H   0  0  0  0  0  0  0  0  0  0  0  0
   37.0840   28.1580   35.2010 H   0  0  0  0  0  0  0  0  0  0  0  0
   35.3970   27.1240   30.7080 H   0  0  0  0  0  0  0  0  0  0  0  0
   35.4890   30.0870   34.1190 C   0  0  0  0  0  3  0  0  0  0  0  0
   35.8940   30.4630   35.3050 C   0  0  0  0  0  3  0  0  0  0  0  0
   35.5050   31.7590   35.9420 C   0  0  0  0  0  0  0  0  0  0  0  0
   36.3470   32.0580   36.5880 H   0  0  0  0  0  0  0  0  0  0  0  0
   35.4620   32.5040   35.1050 H   0  0  0  0  0  0  0  0  0  0  0  0
   34.2070   31.6740   36.6240 C   0  0  0  0  0  3  0  0  0  0  0  0
   33.6100   32.6170   37.3450 C   0  0  0  0  0  3  0  0  0  0  0  0
   34.3130   33.9140   37.4950 C   0  0  0  0  0  2  0  0  0  0  0  0
   34.1060   34.5650   36.5970 H   0  0  0  0  0  0  0  0  0  0  0  0
  1  7  1  0  0  0  0
  1  2  1  0  0  0  0
  2  8  1  0  0  0  0
  3 10  1  0  0  0  0
  3  2  2  0  0  0  0
  4  3  1  0  0  0  0
  5  4  2  0  0  0  0
  5  6  1  0  0  0  0
  6  1  2  0  0  0  0
  9  5  1  0  0  0  0
 10 11  2  0  0  0  0
 11 12  1  0  0  0  0
 12 13  1  0  0  0  0
 12 15  1  0  0  0  0
 14 12  1  0  0  0  0
 15 16  2  0  0  0  0
 16 17  1  0  0  0  0
 18 17  1  0  0  0  0
M  END
>  <minimizedAffinity>
-3.58824039

$$$$

 OpenBabel03272502293D

 18 18  0  0  0  0  0  0  0  0999 V2000
   40.0780   22.6490   37.4960 C   0  0  0  0  0  0  0  0  0  0  0  0
   39.6160   22.2280   36.2470 C   0  0  0  0  0  0  0  0  0  0  0  0
   38.2870   22.4200   35.9270 C   0  0  0  0  0  0  0  0  0  0  0  0
   37.4710   23.0150   36.8450 N   0  0  0  0  0  0  0  0  0  0  0  0
   37.9380   23.4130   38.0440 C   0  0  0  0  0  0  0  0  0  0  0  0
   39.2330   23.2290   38.3620 N   0  0  0  0  0  0  0  0  0  0  0  0
   41.1150   22.5200   37.7910 H   0  0  0  0  0  0  0  0  0  0  0  0
   40.3250   21.7610   35.5630 H   0  0  0  0  0  0  0  0  0  0  0  0
   37.2410   23.8830   38.7390 H   0  0  0  0  0  0  0  0  0  0  0  0
   37.7630   22.0070   34.6610 C   0  0  0  0  0  3  0  0  0  0  0  0
   38.3840   22.2330   33.5320 C   0  0  0  0  0  3  0  0  0  0  0  0
   37.8580   21.8130   32.1970 C   0  0  0  0  0  0  0  0  0  0  0  0
   38.2110   22.5610   31.4690 H   0  0  0  0  0  0  0  0  0  0  0  0
   38.3860   20.8540   31.9540 H   0  0  0  0  0  0  0  0  0  0  0  0
   36.4030   21.6100   32.2140 C   0  0  0  0  0  3  0  0  0  0  0  0
   35.4660   22.4390   31.7650 C   0  0  0  0  0  3  0  0  0  0  0  0
   35.9140   23.7250   31.1770 C   0  0  0  0  0  2  0  0  0  0  0  0
   36.1970   23.5700   30.0960 H   0  0  0  0  0  0  0  0  0  0  0  0
  1  7  1  0  0  0  0
  1  6  1  0  0  0  0
  2  1  2  0  0  0  0
  3  2  1  0  0  0  0
  3  4  2  0  0  0  0
  4  5  1  0  0  0  0
  5  6  2  0  0  0  0
  5  9  1  0  0  0  0
  8  2  1  0  0  0  0
 10  3  1  0  0  0  0
 11 10  2  0  0  0  0
 12 15  1  0  0  0  0
 12 11  1  0  0  0  0
 13 12  1  0  0  0  0
 14 12  1  0  0  0  0
 16 15  2  0  0  0  0
 17 16  1  0  0  0  0
 18 17  1  0  0  0  0
M  END
>  <minimizedAffinity>
-3.53537083

$$$$

 OpenBabel03272502293D

 18 18  0  0  0  0  0  0  0  0999 V2000
   36.0160   27.6900   31.4390 C   0  0  0  0  0  0  0  0  0  0  0  0
   35.8060   26.3840   30.9920 C   0  0  0  0  0  0  0  0  0  0  0  0
   36.2960   25.3340   31.7420 C   0  0  0  0  0  0  0  0  0  0  0  0
   36.9700   25.6110   32.8960 N   0  0  0  0  0  0  0  0  0  0  0  0
   37.1610   26.8790   33.3080 C   0  0  0  0  0  0  0  0  0  0  0  0
   36.6850   27.9070   32.5810 N   0  0  0  0  0  0  0  0  0  0  0  0
   35.6480   28.5470   30.8820 H   0  0  0  0  0  0  0  0  0  0  0  0
   35.2570   26.2370   30.0610 H   0  0  0  0  0  0  0  0  0  0  0  0
   37.7070   27.0430   34.2380 H   0  0  0  0  0  0  0  0  0  0  0  0
   36.1080   23.9770   31.3290 C   0  0  0  0  0  3  0  0  0  0  0  0
   36.9570   23.0260   31.6210 C   0  0  0  0  0  3  0  0  0  0  0  0
   36.7850   21.6010   31.2010 C   0  0  0  0  0  0  0  0  0  0  0  0
   37.2650   21.5020   30.2130 H   0  0  0  0  0  0  0  0  0  0  0  0
   37.4020   21.0000   31.9190 H   0  0  0  0  0  0  0  0  0  0  0  0
   35.3800   21.1760   31.2480 C   0  0  0  0  0  3  0  0  0  0  0  0
   34.7680   20.5140   32.2250 C   0  0  0  0  0  3  0  0  0  0  0  0
   35.5730   20.1500   33.4150 C   0  0  0  0  0  2  0  0  0  0  0  0
   35.6160   21.0240   34.1270 H   0  0  0  0  0  0  0  0  0  0  0  0
  1  6  1  0  0  0  0
  2  1  2  0  0  0  0
  2  3  1  0  0  0  0
  3  4  2  0  0  0  0
  4  5  1  0  0  0  0
  5  9  1  0  0  0  0
  6  5  2  0  0  0  0
  7  1  1  0  0  0  0
  8  2  1  0  0  0  0
 10 11  2  0  0  0  0
 10  3  1  0  0  0  0
 12 15  1  0  0  0  0
 12 11  1  0  0  0  0
 12 14  1  0  0  0  0
 13 12  1  0  0  0  0
 15 16  2  0  0  0  0
 16 17  1  0  0  0  0
 17 18  1  0  0  0  0
M  END
>  <minimizedAffinity>
-3.53532338

$$$$

 OpenBabel03272502293D

 18 18  0  0  0  0  0  0  0  0999 V2000
   35.8980   29.1610   31.7120 C   0  0  0  0  0  0  0  0  0  0  0  0
   36.3840   28.5110   32.8480 C   0  0  0  0  0  0  0  0  0  0  0  0
   37.4230   27.6130   32.7100 C   0  0  0  0  0  0  0  0  0  0  0  0
   37.9370   27.3910   31.4660 N   0  0  0  0  0  0  0  0  0  0  0  0
   37.4510   28.0290   30.3840 C   0  0  0  0  0  0  0  0  0  0  0  0
   36.4390   28.9070   30.5110 N   0  0  0  0  0  0  0  0  0  0  0  0
   35.0830   29.8760   31.7720 H   0  0  0  0  0  0  0  0  0  0  0  0
   35.9260   28.7380   33.8120 H   0  0  0  0  0  0  0  0  0  0  0  0
   37.9000   27.8130   29.4130 H   0  0  0  0  0  0  0  0  0  0  0  0
   37.9590   26.9200   33.8420 C   0  0  0  0  0  3  0  0  0  0  0  0
   37.8010   27.3450   35.0690 C   0  0  0  0  0  3  0  0  0  0  0  0
   38.3510   26.6410   36.2680 C   0  0  0  0  0  0  0  0  0  0  0  0
   39.3500   27.0680   36.4550 H   0  0  0  0  0  0  0  0  0  0  0  0
   37.7010   26.9560   37.1260 H   0  0  0  0  0  0  0  0  0  0  0  0
   38.3270   25.1800   36.1130 C   0  0  0  0  0  3  0  0  0  0  0  0
   38.1750   24.2690   37.0680 C   0  0  0  0  0  3  0  0  0  0  0  0
   38.0110   24.7540   38.4590 C   0  0  0  0  0  2  0  0  0  0  0  0
   36.9320   25.0250   38.6420 H   0  0  0  0  0  0  0  0  0  0  0  0
  1  7  1  0  0  0  0
  1  2  1  0  0  0  0
  2  8  1  0  0  0  0
  3  2  2  0  0  0  0
  3 10  1  0  0  0  0
  4  3  1  0  0  0  0
  5  6  1  0  0  0  0
  5  4  2  0  0  0  0
  6  1  2  0  0  0  0
  9  5  1  0  0  0  0
 10 11  2  0  0  0  0
 11 12  1  0  0  0  0
 12 13  1  0  0  0  0
 12 14  1  0  0  0  0
 15 12  1  0  0  0  0
 15 16  2  0  0  0  0
 16 17  1  0  0  0  0
 17 18  1  0  0  0  0
M  END
>  <minimizedAffinity>
-3.52800393

$$$$

 OpenBabel03272502293D

 18 18  0  0  0  0  0  0  0  0999 V2000
   36.4460   25.9660   31.6310 C   0  0  0  0  0  0  0  0  0  0  0  0
   35.9760   27.2690   31.8040 C   0  0  0  0  0  0  0  0  0  0  0  0
   36.2260   27.9160   32.9970 C   0  0  0  0  0  0  0  0  0  0  0  0
   36.9250   27.2570   33.9670 N   0  0  0  0  0  0  0  0  0  0  0  0
   37.3680   25.9990   33.7780 C   0  0  0  0  0  0  0  0  0  0  0  0
   37.1290   25.3630   32.6170 N   0  0  0  0  0  0  0  0  0  0  0  0
   36.2740   25.4170   30.7100 H   0  0  0  0  0  0  0  0  0  0  0  0
   35.4260   27.7340   30.9860 H   0  0  0  0  0  0  0  0  0  0  0  0
   37.9220   25.5200   34.5870 H   0  0  0  0  0  0  0  0  0  0  0  0
   35.7670   29.2520   33.2260 C   0  0  0  0  0  3  0  0  0  0  0  0
   35.7550   29.8010   34.4130 C   0  0  0  0  0  3  0  0  0  0  0  0
   35.2800   31.1930   34.6790 C   0  0  0  0  0  0  0  0  0  0  0  0
   35.6270   31.8120   33.8360 H   0  0  0  0  0  0  0  0  0  0  0  0
   34.1610   31.1490   34.6070 H   0  0  0  0  0  0  0  0  0  0  0  0
   35.6910   31.6750   36.0050 C   0  0  0  0  0  3  0  0  0  0  0  0
   34.9050   32.0930   36.9920 C   0  0  0  0  0  3  0  0  0  0  0  0
   33.4410   32.0830   36.7550 C   0  0  0  0  0  2  0  0  0  0  0  0
   33.0310   31.0520   36.9560 H   0  0  0  0  0  0  0  0  0  0  0  0
  1  2  2  0  0  0  0
  1  6  1  0  0  0  0
  2  3  1  0  0  0  0
  3 10  1  0  0  0  0
  3  4  2  0  0  0  0
  5  4  1  0  0  0  0
  5  9  1  0  0  0  0
  6  5  2  0  0  0  0
  7  1  1  0  0  0  0
  8  2  1  0  0  0  0
 10 11  2  0  0  0  0
 11 12  1  0  0  0  0
 12 15  1  0  0  0  0
 13 12  1  0  0  0  0
 14 12  1  0  0  0  0
 15 16  2  0  0  0  0
 17 18  1  0  0  0  0
 17 16  1  0  0  0  0
M  END
>  <minimizedAffinity>
-3.52037692

$$$$
