
 OpenBabel03272509473D

 20 20  0  0  0  0  0  0  0  0999 V2000
   34.7240   28.3050   49.7870 O   0  0  0  0  0  0  0  0  0  0  0  0
   37.3370   30.2220   51.4120 C   0  0  0  0  0  0  0  0  0  0  0  0
   38.0510   30.6580   50.2980 C   0  0  0  0  0  0  0  0  0  0  0  0
   37.6100   30.2780   49.0380 C   0  0  0  0  0  0  0  0  0  0  0  0
   36.4910   29.4930   48.9740 N   0  0  0  0  0  0  0  0  0  0  0  0
   35.8290   29.0930   50.0760 C   0  0  0  0  0  0  0  0  0  0  0  0
   36.2670   29.4680   51.2960 N   0  0  0  0  0  0  0  0  0  0  0  0
   37.7000   30.5310   52.3940 H   0  0  0  0  0  0  0  0  0  0  0  0
   38.9460   31.2860   50.3590 H   0  0  0  0  0  0  0  0  0  0  0  0
   38.1220   30.5850   48.1480 H   0  0  0  0  0  0  0  0  0  0  0  0
   34.1880   28.3890   48.4900 C   0  0  0  0  0  0  0  0  0  0  0  0
   34.9260   28.8410   47.7790 H   0  0  0  0  0  0  0  0  0  0  0  0
   33.2510   28.9910   48.5360 H   0  0  0  0  0  0  0  0  0  0  0  0
   33.8510   27.0260   47.9420 C   0  0  0  0  0  0  0  0  0  0  0  0
   34.6610   26.3060   48.1760 H   0  0  0  0  0  0  0  0  0  0  0  0
   32.8760   26.7240   48.4200 H   0  0  0  0  0  0  0  0  0  0  0  0
   33.6110   27.1350   46.4770 C   0  0  0  0  0  3  0  0  0  0  0  0
   32.4840   26.8030   45.8410 C   0  0  0  0  0  3  0  0  0  0  0  0
   32.2090   26.9000   44.3760 C   0  0  0  0  0  2  0  0  0  0  0  0
   32.7360   27.8050   43.9550 H   0  0  0  0  0  0  0  0  0  0  0  0
  1  6  1  0  0  0  0
  2  8  1  0  0  0  0
  3  9  1  0  0  0  0
  3  2  2  0  0  0  0
  4  3  1  0  0  0  0
  5  4  2  0  0  0  0
  5  6  1  0  0  0  0
  6  7  2  0  0  0  0
  7  2  1  0  0  0  0
 10  4  1  0  0  0  0
 11 13  1  0  0  0  0
 11  1  1  0  0  0  0
 12 11  1  0  0  0  0
 14 15  1  0  0  0  0
 14 16  1  0  0  0  0
 14 11  1  0  0  0  0
 17 14  1  0  0  0  0
 18 17  2  0  0  0  0
 19 18  1  0  0  0  0
 20 19  1  0  0  0  0
M  END
>  <minimizedAffinity>
-3.46947646

>  <minimizedRMSD>
0.255948037

$$$$
