
 OpenBabel03272502293D

 18 18  0  0  0  0  0  0  0  0999 V2000
   37.4200   30.0940   51.3290 C   0  0  0  0  0  0  0  0  0  0  0  0
   37.7040   30.4900   50.0200 C   0  0  0  0  0  0  0  0  0  0  0  0
   36.7650   30.2590   49.0340 C   0  0  0  0  0  0  0  0  0  0  0  0
   35.5920   29.6510   49.3750 N   0  0  0  0  0  0  0  0  0  0  0  0
   35.3400   29.2780   50.6440 C   0  0  0  0  0  0  0  0  0  0  0  0
   36.2500   29.5000   51.6100 N   0  0  0  0  0  0  0  0  0  0  0  0
   38.1270   30.2550   52.1370 H   0  0  0  0  0  0  0  0  0  0  0  0
   38.6610   30.9720   49.8200 H   0  0  0  0  0  0  0  0  0  0  0  0
   34.3860   28.7950   50.8610 H   0  0  0  0  0  0  0  0  0  0  0  0
   37.0060   30.6460   47.6770 C   0  0  0  0  0  3  0  0  0  0  0  0
   38.1970   30.6240   47.1380 C   0  0  0  0  0  3  0  0  0  0  0  0
   38.4760   31.0220   45.7240 C   0  0  0  0  0  0  0  0  0  0  0  0
   39.3190   30.4000   45.3800 H   0  0  0  0  0  0  0  0  0  0  0  0
   37.5770   30.6970   45.1370 H   0  0  0  0  0  0  0  0  0  0  0  0
   38.6840   32.4700   45.5870 C   0  0  0  0  0  3  0  0  0  0  0  0
   39.8310   33.1050   45.3660 C   0  0  0  0  0  3  0  0  0  0  0  0
   41.0560   32.2800   45.2390 C   0  0  0  0  0  2  0  0  0  0  0  0
   41.1470   31.8920   44.1850 H   0  0  0  0  0  0  0  0  0  0  0  0
  1  6  1  0  0  0  0
  1  7  1  0  0  0  0
  2  1  2  0  0  0  0
  3  4  2  0  0  0  0
  3  2  1  0  0  0  0
  4  5  1  0  0  0  0
  5  9  1  0  0  0  0
  5  6  2  0  0  0  0
  8  2  1  0  0  0  0
 10  3  1  0  0  0  0
 11 10  2  0  0  0  0
 12 11  1  0  0  0  0
 13 12  1  0  0  0  0
 14 12  1  0  0  0  0
 15 12  1  0  0  0  0
 16 15  2  0  0  0  0
 17 16  1  0  0  0  0
 18 17  1  0  0  0  0
M  END
>  <minimizedAffinity>
-4.33128214

>  <minimizedRMSD>
1.50777555

$$$$
