
 OpenBabel03272502293D

 18 18  0  0  0  0  0  0  0  0999 V2000
   37.5460   30.2160   51.3090 C   0  0  0  0  0  0  0  0  0  0  0  0
   37.7880   30.5920   49.9860 C   0  0  0  0  0  0  0  0  0  0  0  0
   36.8480   30.2850   49.0230 C   0  0  0  0  0  0  0  0  0  0  0  0
   35.7150   29.6240   49.3990 N   0  0  0  0  0  0  0  0  0  0  0  0
   35.5030   29.2720   50.6820 C   0  0  0  0  0  0  0  0  0  0  0  0
   36.4150   29.5680   51.6260 N   0  0  0  0  0  0  0  0  0  0  0  0
   38.2570   30.4360   52.1000 H   0  0  0  0  0  0  0  0  0  0  0  0
   38.7150   31.1180   49.7570 H   0  0  0  0  0  0  0  0  0  0  0  0
   34.5790   28.7450   50.9270 H   0  0  0  0  0  0  0  0  0  0  0  0
   37.0460   30.6470   47.6530 C   0  0  0  0  0  3  0  0  0  0  0  0
   38.2230   30.6360   47.0830 C   0  0  0  0  0  3  0  0  0  0  0  0
   38.4580   31.0100   45.6540 C   0  0  0  0  0  0  0  0  0  0  0  0
   39.3020   30.3960   45.3010 H   0  0  0  0  0  0  0  0  0  0  0  0
   37.5490   30.6580   45.0980 H   0  0  0  0  0  0  0  0  0  0  0  0
   38.6370   32.4580   45.4820 C   0  0  0  0  0  3  0  0  0  0  0  0
   39.7760   33.1150   45.2890 C   0  0  0  0  0  3  0  0  0  0  0  0
   41.0250   32.3180   45.2340 C   0  0  0  0  0  2  0  0  0  0  0  0
   41.1670   31.9030   44.1950 H   0  0  0  0  0  0  0  0  0  0  0  0
  1  6  1  0  0  0  0
  1  7  1  0  0  0  0
  2  1  2  0  0  0  0
  3  4  2  0  0  0  0
  3  2  1  0  0  0  0
  4  5  1  0  0  0  0
  5  9  1  0  0  0  0
  5  6  2  0  0  0  0
  8  2  1  0  0  0  0
 10  3  1  0  0  0  0
 11 10  2  0  0  0  0
 12 11  1  0  0  0  0
 13 12  1  0  0  0  0
 14 12  1  0  0  0  0
 15 12  1  0  0  0  0
 16 15  2  0  0  0  0
 17 16  1  0  0  0  0
 18 17  1  0  0  0  0
M  END
>  <minimizedAffinity>
-4.33845568

>  <minimizedRMSD>
1.65796137

$$$$
