
 OpenBabel03262520323D

 18 18  0  0  0  0  0  0  0  0999 V2000
   37.3660   30.2490   51.4480 C   0  0  0  0  0  0  0  0  0  0  0  0
   38.1330   30.7580   50.3860 C   0  0  0  0  0  0  0  0  0  0  0  0
   37.7550   30.4340   49.0580 C   0  0  0  0  0  0  0  0  0  0  0  0
   36.6540   29.6350   48.9040 N   0  0  0  0  0  0  0  0  0  0  0  0
   35.9560   29.1720   49.9660 C   0  0  0  0  0  0  0  0  0  0  0  0
   36.3080   29.4760   51.2100 N   0  0  0  0  0  0  0  0  0  0  0  0
   37.6050   30.4610   52.4810 H   0  0  0  0  0  0  0  0  0  0  0  0
   38.9830   31.3790   50.5810 H   0  0  0  0  0  0  0  0  0  0  0  0
   38.3210   30.8080   48.2170 H   0  0  0  0  0  0  0  0  0  0  0  0
   34.8100   28.3350   49.6660 C   0  0  0  0  0  0  0  0  0  0  0  0
   34.4280   28.2030   48.4360 C   0  0  0  0  0  0  0  0  0  0  0  0
   33.3090   27.4190   47.8810 C   0  0  0  0  0  0  0  0  0  0  0  0
   32.8460   28.0140   47.0620 H   0  0  0  0  0  0  0  0  0  0  0  0
   32.5680   27.2980   48.7200 H   0  0  0  0  0  0  0  0  0  0  0  0
   33.7200   26.0580   47.4640 C   0  0  0  0  0  0  0  0  0  0  0  0
   33.9870   25.6910   46.2360 C   0  0  0  0  0  0  0  0  0  0  0  0
   33.8840   26.6820   45.1370 C   0  0  0  0  0  0  0  0  0  0  0  0
   34.2890   27.6760   45.3720 H   0  0  0  0  0  0  0  0  0  0  0  0
  1  7  1  0  0  0  0
  2  8  1  0  0  0  0
  2  1  2  0  0  0  0
  3  2  1  0  0  0  0
  4  3  2  0  0  0  0
  4  5  1  0  0  0  0
  5  6  2  0  0  0  0
  6  1  1  0  0  0  0
  9  3  1  0  0  0  0
 10  5  1  0  0  0  0
 11 10  2  0  0  0  0
 12 11  1  0  0  0  0
 12 14  1  0  0  0  0
 13 12  1  0  0  0  0
 15 12  1  0  0  0  0
 16 15  2  0  0  0  0
 17 18  1  0  0  0  0
 17 16  1  0  0  0  0
M  END
>  <minimizedAffinity>
-4.19784403

>  <minimizedRMSD>
0.30577153

$$$$
