
 OpenBabel03262520323D

 18 18  0  0  0  0  0  0  0  0999 V2000
   37.3640   30.2650   51.4610 C   0  0  0  0  0  0  0  0  0  0  0  0
   38.1280   30.7760   50.3980 C   0  0  0  0  0  0  0  0  0  0  0  0
   37.7520   30.4480   49.0700 C   0  0  0  0  0  0  0  0  0  0  0  0
   36.6550   29.6430   48.9180 N   0  0  0  0  0  0  0  0  0  0  0  0
   35.9590   29.1790   49.9800 C   0  0  0  0  0  0  0  0  0  0  0  0
   36.3090   29.4860   51.2240 N   0  0  0  0  0  0  0  0  0  0  0  0
   37.6020   30.4800   52.4940 H   0  0  0  0  0  0  0  0  0  0  0  0
   38.9750   31.4020   50.5920 H   0  0  0  0  0  0  0  0  0  0  0  0
   38.3160   30.8240   48.2280 H   0  0  0  0  0  0  0  0  0  0  0  0
   34.8170   28.3350   49.6830 C   0  0  0  0  0  3  0  0  0  0  0  0
   34.5090   28.1020   48.4460 C   0  0  0  0  0  3  0  0  0  0  0  0
   33.4110   27.2900   47.8920 C   0  0  0  0  0  0  0  0  0  0  0  0
   32.6510   27.9830   47.4660 H   0  0  0  0  0  0  0  0  0  0  0  0
   32.9630   26.7350   48.7640 H   0  0  0  0  0  0  0  0  0  0  0  0
   33.8880   26.2720   46.9270 C   0  0  0  0  0  3  0  0  0  0  0  0
   33.3810   25.0730   46.7760 C   0  0  0  0  0  3  0  0  0  0  0  0
   32.2350   24.6530   47.6180 C   0  0  0  0  0  2  0  0  0  0  0  0
   31.4600   25.4190   47.7570 H   0  0  0  0  0  0  0  0  0  0  0  0
  1  7  1  0  0  0  0
  2  8  1  0  0  0  0
  2  1  2  0  0  0  0
  3  2  1  0  0  0  0
  4  3  2  0  0  0  0
  4  5  1  0  0  0  0
  5  6  2  0  0  0  0
  6  1  1  0  0  0  0
  9  3  1  0  0  0  0
 10  5  1  0  0  0  0
 11 10  2  0  0  0  0
 12 11  1  0  0  0  0
 12 14  1  0  0  0  0
 13 12  1  0  0  0  0
 15 12  1  0  0  0  0
 16 15  2  0  0  0  0
 16 17  1  0  0  0  0
 17 18  1  0  0  0  0
M  END
>  <minimizedAffinity>
-4.14328718

>  <minimizedRMSD>
0.474037439

$$$$
