
 OpenBabel03272509473D

 20 20  0  0  0  0  0  0  0  0999 V2000
   34.7470   28.2970   49.8450 O   0  0  0  0  0  0  0  0  0  0  0  0
   37.3650   30.2460   51.4230 C   0  0  0  0  0  0  0  0  0  0  0  0
   38.0650   30.6740   50.2970 C   0  0  0  0  0  0  0  0  0  0  0  0
   37.6130   30.2780   49.0450 C   0  0  0  0  0  0  0  0  0  0  0  0
   36.4980   29.4870   49.0010 N   0  0  0  0  0  0  0  0  0  0  0  0
   35.8500   29.0940   50.1140 C   0  0  0  0  0  0  0  0  0  0  0  0
   36.2990   29.4840   51.3260 N   0  0  0  0  0  0  0  0  0  0  0  0
   37.7360   30.5660   52.3980 H   0  0  0  0  0  0  0  0  0  0  0  0
   38.9560   31.3080   50.3420 H   0  0  0  0  0  0  0  0  0  0  0  0
   38.1140   30.5790   48.1480 H   0  0  0  0  0  0  0  0  0  0  0  0
   34.1120   28.4650   48.6010 C   0  0  0  0  0  0  0  0  0  0  0  0
   34.7590   29.0450   47.8960 H   0  0  0  0  0  0  0  0  0  0  0  0
   33.1380   28.9800   48.7730 H   0  0  0  0  0  0  0  0  0  0  0  0
   33.8400   27.1400   47.9370 C   0  0  0  0  0  0  0  0  0  0  0  0
   34.7900   26.6040   47.7430 H   0  0  0  0  0  0  0  0  0  0  0  0
   33.1750   26.5630   48.6400 H   0  0  0  0  0  0  0  0  0  0  0  0
   33.0660   27.3720   46.6860 C   0  0  0  0  0  3  0  0  0  0  0  0
   32.3960   28.4860   46.3750 C   0  0  0  0  0  3  0  0  0  0  0  0
   31.6110   28.7520   45.1320 C   0  0  0  0  0  2  0  0  0  0  0  0
   32.1140   28.2460   44.2570 H   0  0  0  0  0  0  0  0  0  0  0  0
  1  6  1  0  0  0  0
  2  8  1  0  0  0  0
  3  9  1  0  0  0  0
  3  2  2  0  0  0  0
  4  3  1  0  0  0  0
  5  4  2  0  0  0  0
  5  6  1  0  0  0  0
  6  7  2  0  0  0  0
  7  2  1  0  0  0  0
 10  4  1  0  0  0  0
 11 13  1  0  0  0  0
 11  1  1  0  0  0  0
 12 11  1  0  0  0  0
 14 11  1  0  0  0  0
 14 16  1  0  0  0  0
 15 14  1  0  0  0  0
 17 14  1  0  0  0  0
 18 17  2  0  0  0  0
 19 18  1  0  0  0  0
 20 19  1  0  0  0  0
M  END
>  <minimizedAffinity>
-3.49794102

>  <minimizedRMSD>
0.244094148

$$$$
