
 OpenBabel03272505023D

 24 25  0  0  0  0  0  0  0  0999 V2000
   38.5810   30.5870   46.7700 Cl  0  0  0  0  0  0  0  0  0  0  0  0
   38.9370   32.0540   47.6760 C   0  0  0  0  0  0  0  0  0  0  0  0
   38.3820   32.2000   48.9090 C   0  0  0  0  0  0  0  0  0  0  0  0
   38.7090   33.3780   49.5570 C   0  0  0  0  0  0  0  0  0  0  0  0
   39.5420   34.3130   48.9560 C   0  0  0  0  0  0  0  0  0  0  0  0
   40.0650   34.1120   47.7240 C   0  0  0  0  0  0  0  0  0  0  0  0
   39.7540   32.9400   47.0540 C   0  0  0  0  0  0  0  0  0  0  0  0
   38.3020   33.5660   50.5490 H   0  0  0  0  0  0  0  0  0  0  0  0
   39.7660   35.2260   49.5150 H   0  0  0  0  0  0  0  0  0  0  0  0
   40.7060   34.8850   47.3220 H   0  0  0  0  0  0  0  0  0  0  0  0
   37.9830   30.3300   50.5020 C   0  0  0  0  0  0  0  0  0  0  0  0
   37.4990   31.2200   49.5550 C   0  0  0  0  0  0  0  0  0  0  0  0
   36.1410   31.1740   49.2160 C   0  0  0  0  0  0  0  0  0  0  0  0
   35.3770   30.2460   49.8490 N   0  0  0  0  0  0  0  0  0  0  0  0
   35.8540   29.3990   50.7530 C   0  0  0  0  0  0  0  0  0  0  0  0
   37.1550   29.4350   51.0850 N   0  0  0  0  0  0  0  0  0  0  0  0
   39.0390   30.4060   50.7290 H   0  0  0  0  0  0  0  0  0  0  0  0
   35.7710   31.8740   48.4750 H   0  0  0  0  0  0  0  0  0  0  0  0
   35.2360   28.6640   51.2510 H   0  0  0  0  0  0  0  0  0  0  0  0
   40.2980   32.7420   45.7840 O   0  0  0  0  0  0  0  0  0  0  0  0
   39.7260   33.3760   44.7050 C   0  0  0  0  0  3  0  0  0  0  0  0
   39.6550   32.7490   43.5470 C   0  0  0  0  0  3  0  0  0  0  0  0
   40.1690   31.3740   43.3370 C   0  0  0  0  0  2  0  0  0  0  0  0
   40.5620   31.2360   42.2980 H   0  0  0  0  0  0  0  0  0  0  0  0
  1  2  1  0  0  0  0
  2  3  1  0  0  0  0
  3 12  1  0  0  0  0
  3  4  2  0  0  0  0
  4  8  1  0  0  0  0
  5  9  1  0  0  0  0
  5  4  1  0  0  0  0
  6  5  2  0  0  0  0
  7  2  2  0  0  0  0
  7  6  1  0  0  0  0
 10  6  1  0  0  0  0
 11 17  1  0  0  0  0
 11 16  1  0  0  0  0
 12 11  2  0  0  0  0
 13 12  1  0  0  0  0
 13 14  2  0  0  0  0
 14 15  1  0  0  0  0
 15 16  2  0  0  0  0
 15 19  1  0  0  0  0
 18 13  1  0  0  0  0
 20  7  1  0  0  0  0
 21 20  1  0  0  0  0
 22 21  2  0  0  0  0
 23 22  1  0  0  0  0
 24 23  1  0  0  0  0
M  END
>  <minimizedAffinity>
-5.78576422

>  <minimizedRMSD>
0.73669225

$$$$
