
 OpenBabel03272505023D

 24 25  0  0  0  0  0  0  0  0999 V2000
   38.5530   30.5890   46.7850 Cl  0  0  0  0  0  0  0  0  0  0  0  0
   38.9180   32.0580   47.6840 C   0  0  0  0  0  0  0  0  0  0  0  0
   38.3600   32.2150   48.9150 C   0  0  0  0  0  0  0  0  0  0  0  0
   38.6940   33.3930   49.5580 C   0  0  0  0  0  0  0  0  0  0  0  0
   39.5370   34.3180   48.9550 C   0  0  0  0  0  0  0  0  0  0  0  0
   40.0630   34.1070   47.7260 C   0  0  0  0  0  0  0  0  0  0  0  0
   39.7450   32.9340   47.0610 C   0  0  0  0  0  0  0  0  0  0  0  0
   38.2850   33.5900   50.5480 H   0  0  0  0  0  0  0  0  0  0  0  0
   39.7670   35.2330   49.5100 H   0  0  0  0  0  0  0  0  0  0  0  0
   40.7120   34.8720   47.3220 H   0  0  0  0  0  0  0  0  0  0  0  0
   37.8990   30.4680   50.6260 C   0  0  0  0  0  0  0  0  0  0  0  0
   37.4660   31.2450   49.5630 C   0  0  0  0  0  0  0  0  0  0  0  0
   36.1510   31.0940   49.1060 C   0  0  0  0  0  0  0  0  0  0  0  0
   35.3750   30.1830   49.7470 N   0  0  0  0  0  0  0  0  0  0  0  0
   35.8020   29.4440   50.7640 C   0  0  0  0  0  0  0  0  0  0  0  0
   37.0620   29.5800   51.2090 N   0  0  0  0  0  0  0  0  0  0  0  0
   38.9240   30.6210   50.9420 H   0  0  0  0  0  0  0  0  0  0  0  0
   35.8220   31.7070   48.2740 H   0  0  0  0  0  0  0  0  0  0  0  0
   35.1750   28.7200   51.2670 H   0  0  0  0  0  0  0  0  0  0  0  0
   40.2910   32.7250   45.7940 O   0  0  0  0  0  0  0  0  0  0  0  0
   39.7750   33.4140   44.7210 C   0  0  0  0  0  3  0  0  0  0  0  0
   39.6140   32.7950   43.5680 C   0  0  0  0  0  3  0  0  0  0  0  0
   39.9670   31.3690   43.3590 C   0  0  0  0  0  2  0  0  0  0  0  0
   40.3250   31.1840   42.3130 H   0  0  0  0  0  0  0  0  0  0  0  0
  1  2  1  0  0  0  0
  2  3  1  0  0  0  0
  3  4  2  0  0  0  0
  3 12  1  0  0  0  0
  4  8  1  0  0  0  0
  5  9  1  0  0  0  0
  5  4  1  0  0  0  0
  6  5  2  0  0  0  0
  7  2  2  0  0  0  0
  7  6  1  0  0  0  0
 10  6  1  0  0  0  0
 11 17  1  0  0  0  0
 11 16  1  0  0  0  0
 12 11  2  0  0  0  0
 13 12  1  0  0  0  0
 13 14  2  0  0  0  0
 14 15  1  0  0  0  0
 15 16  2  0  0  0  0
 15 19  1  0  0  0  0
 18 13  1  0  0  0  0
 20  7  1  0  0  0  0
 21 20  1  0  0  0  0
 22 21  2  0  0  0  0
 23 22  1  0  0  0  0
 24 23  1  0  0  0  0
M  END
>  <minimizedAffinity>
-5.81481171

>  <minimizedRMSD>
1.1076045

$$$$
