
 OpenBabel03272502243D

 25 26  0  0  0  0  0  0  0  0999 V2000
   37.5760   30.3390   51.0380 C   0  0  0  0  0  0  0  0  0  0  0  0
   38.0310   30.9110   49.8340 C   0  0  0  0  0  0  0  0  0  0  0  0
   37.3590   30.5830   48.6710 C   0  0  0  0  0  0  0  0  0  0  0  0
   36.3090   29.7400   48.7490 N   0  0  0  0  0  0  0  0  0  0  0  0
   35.8900   29.2020   49.9180 C   0  0  0  0  0  0  0  0  0  0  0  0
   36.5310   29.5100   51.0530 N   0  0  0  0  0  0  0  0  0  0  0  0
   38.1280   30.6200   51.9240 H   0  0  0  0  0  0  0  0  0  0  0  0
   38.8750   31.5920   49.7620 H   0  0  0  0  0  0  0  0  0  0  0  0
   37.7130   31.0900   47.3480 C   0  0  0  0  0  0  0  0  0  0  0  0
   36.9950   30.7560   46.2170 C   0  0  0  0  0  0  0  0  0  0  0  0
   37.3230   31.2240   44.9600 C   0  0  0  0  0  0  0  0  0  0  0  0
   38.3970   32.0490   44.8200 N   0  0  0  0  0  0  0  0  0  0  0  0
   39.0760   32.3580   45.9230 C   0  0  0  0  0  0  0  0  0  0  0  0
   38.7720   31.9120   47.1560 N   0  0  0  0  0  0  0  0  0  0  0  0
   36.1390   30.0970   46.3410 H   0  0  0  0  0  0  0  0  0  0  0  0
   36.7110   30.9180   44.1200 H   0  0  0  0  0  0  0  0  0  0  0  0
   40.2490   33.2540   45.8020 C   0  0  0  0  0  0  0  0  0  0  0  0
   40.3750   33.9690   46.9870 F   0  0  0  0  0  0  0  0  0  0  0  0
   41.4150   32.5420   45.5600 F   0  0  0  0  0  0  0  0  0  0  0  0
   40.0890   34.1840   44.8070 F   0  0  0  0  0  0  0  0  0  0  0  0
   34.8010   28.3530   49.8570 O   0  0  0  0  0  0  0  0  0  0  0  0
   34.3880   27.7030   48.7250 C   0  0  0  0  0  2  0  0  0  0  0  0
   33.2670   27.3710   48.1020 C   0  0  0  0  0  2  0  0  0  0  0  0
   32.0240   27.8090   48.7930 C   0  0  0  0  0  2  0  0  0  0  0  0
   31.1340   27.2510   48.4380 H   0  0  0  0  0  0  0  0  0  0  0  0
  1  6  1  0  0  0  0
  1  7  1  0  0  0  0
  2  1  2  0  0  0  0
  3  4  2  0  0  0  0
  3  2  1  0  0  0  0
  4  5  1  0  0  0  0
  5  6  2  0  0  0  0
  8  2  1  0  0  0  0
  9  3  1  0  0  0  0
 10 15  1  0  0  0  0
 10  9  2  0  0  0  0
 11 10  1  0  0  0  0
 12 11  2  0  0  0  0
 12 13  1  0  0  0  0
 13 14  2  0  0  0  0
 14  9  1  0  0  0  0
 16 11  1  0  0  0  0
 17 13  1  0  0  0  0
 17 18  1  0  0  0  0
 19 17  1  0  0  0  0
 20 17  1  0  0  0  0
 21  5  1  0  0  0  0
 22 21  1  0  0  0  0
 23 22  1  0  0  0  0
 23 24  1  0  0  0  0
 25 24  1  0  0  0  0
M  END
>  <minimizedAffinity>
-6.25962543

>  <minimizedRMSD>
0.318419784

$$$$
