
 OpenBabel03272502253D

 25 26  0  0  0  0  0  0  0  0999 V2000
   37.5720   30.3430   51.0370 C   0  0  0  0  0  0  0  0  0  0  0  0
   38.0270   30.9140   49.8340 C   0  0  0  0  0  0  0  0  0  0  0  0
   37.3570   30.5840   48.6700 C   0  0  0  0  0  0  0  0  0  0  0  0
   36.3080   29.7390   48.7480 N   0  0  0  0  0  0  0  0  0  0  0  0
   35.8890   29.2020   49.9160 C   0  0  0  0  0  0  0  0  0  0  0  0
   36.5290   29.5110   51.0520 N   0  0  0  0  0  0  0  0  0  0  0  0
   38.1220   30.6250   51.9240 H   0  0  0  0  0  0  0  0  0  0  0  0
   38.8700   31.5960   49.7620 H   0  0  0  0  0  0  0  0  0  0  0  0
   37.7120   31.0900   47.3470 C   0  0  0  0  0  0  0  0  0  0  0  0
   36.9940   30.7560   46.2160 C   0  0  0  0  0  0  0  0  0  0  0  0
   37.3220   31.2240   44.9590 C   0  0  0  0  0  0  0  0  0  0  0  0
   38.3970   32.0490   44.8190 N   0  0  0  0  0  0  0  0  0  0  0  0
   39.0750   32.3580   45.9220 C   0  0  0  0  0  0  0  0  0  0  0  0
   38.7710   31.9130   47.1550 N   0  0  0  0  0  0  0  0  0  0  0  0
   36.1380   30.0980   46.3400 H   0  0  0  0  0  0  0  0  0  0  0  0
   36.7110   30.9180   44.1190 H   0  0  0  0  0  0  0  0  0  0  0  0
   40.2490   33.2530   45.8010 C   0  0  0  0  0  0  0  0  0  0  0  0
   40.3750   33.9680   46.9860 F   0  0  0  0  0  0  0  0  0  0  0  0
   41.4150   32.5410   45.5600 F   0  0  0  0  0  0  0  0  0  0  0  0
   40.0890   34.1830   44.8050 F   0  0  0  0  0  0  0  0  0  0  0  0
   34.8020   28.3510   49.8560 O   0  0  0  0  0  0  0  0  0  0  0  0
   34.3880   27.7030   48.7220 C   0  0  0  0  0  2  0  0  0  0  0  0
   33.2660   27.3700   48.0990 C   0  0  0  0  0  2  0  0  0  0  0  0
   32.0240   27.8080   48.7920 C   0  0  0  0  0  2  0  0  0  0  0  0
   31.1340   27.2510   48.4370 H   0  0  0  0  0  0  0  0  0  0  0  0
  1  6  1  0  0  0  0
  1  7  1  0  0  0  0
  2  1  2  0  0  0  0
  3  4  2  0  0  0  0
  3  2  1  0  0  0  0
  4  5  1  0  0  0  0
  5  6  2  0  0  0  0
  8  2  1  0  0  0  0
  9  3  1  0  0  0  0
 10 15  1  0  0  0  0
 10  9  2  0  0  0  0
 11 10  1  0  0  0  0
 12 11  2  0  0  0  0
 12 13  1  0  0  0  0
 13 14  2  0  0  0  0
 14  9  1  0  0  0  0
 16 11  1  0  0  0  0
 17 13  1  0  0  0  0
 17 18  1  0  0  0  0
 19 17  1  0  0  0  0
 20 17  1  0  0  0  0
 21  5  1  0  0  0  0
 22 21  1  0  0  0  0
 23 22  1  0  0  0  0
 23 24  1  0  0  0  0
 25 24  1  0  0  0  0
M  END
>  <minimizedAffinity>
-6.25997257

>  <minimizedRMSD>
0.419403583

$$$$
