
 OpenBabel03272502303D

 19 19  0  0  0  0  0  0  0  0999 V2000
   37.3710   21.8490   34.8380 C   0  0  0  0  0  3  0  0  0  0  0  0
   36.2890   21.1110   34.9240 C   0  0  0  0  0  3  0  0  0  0  0  0
   38.0950   23.4590   38.1020 C   0  0  0  0  0  0  0  0  0  0  0  0
   37.4320   22.9940   36.9660 C   0  0  0  0  0  0  0  0  0  0  0  0
   38.1060   22.2990   35.9860 C   0  0  0  0  0  0  0  0  0  0  0  0
   39.4370   22.0770   36.1590 N   0  0  0  0  0  0  0  0  0  0  0  0
   40.0550   22.5290   37.2540 C   0  0  0  0  0  0  0  0  0  0  0  0
   39.4050   23.2150   38.2270 N   0  0  0  0  0  0  0  0  0  0  0  0
   37.6530   24.0130   38.9230 H   0  0  0  0  0  0  0  0  0  0  0  0
   36.3930   23.2120   36.9110 H   0  0  0  0  0  0  0  0  0  0  0  0
   41.1340   22.3340   37.3660 H   0  0  0  0  0  0  0  0  0  0  0  0
   35.5990   20.6930   33.6600 C   0  0  0  0  0  0  0  0  0  0  0  0
   34.6260   21.2610   33.6100 H   0  0  0  0  0  0  0  0  0  0  0  0
   35.4360   19.6200   33.6440 H   0  0  0  0  0  0  0  0  0  0  0  0
   36.6030   21.2760   32.2660 S   0  0  0  0  0  0  0  0  0  0  0  0
   35.8100   22.4950   31.2730 C   0  0  0  0  0  3  0  0  0  0  0  0
   35.5580   23.7970   31.4620 C   0  0  0  0  0  3  0  0  0  0  0  0
   34.9730   25.0780   30.9390 C   0  0  0  0  0  2  0  0  0  0  0  0
   34.1550   25.3610   31.6420 H   0  0  0  0  0  0  0  0  0  0  0  0
  1  2  2  0  0  0  0
  1  5  1  0  0  0  0
  3  8  1  0  0  0  0
  3  9  1  0  0  0  0
  4  3  2  0  0  0  0
  5  6  2  0  0  0  0
  5  4  1  0  0  0  0
  6  7  1  0  0  0  0
  7 11  1  0  0  0  0
  7  8  2  0  0  0  0
 10  4  1  0  0  0  0
 12  2  1  0  0  0  0
 13 12  1  0  0  0  0
 14 12  1  0  0  0  0
 15 12  1  0  0  0  0
 16 17  2  0  0  0  0
 16 15  1  0  0  0  0
 18 17  1  0  0  0  0
 18 19  1  0  0  0  0
M  END
>  <minimizedAffinity>
-3.8631351

$$$$

 OpenBabel03272502303D

 19 19  0  0  0  0  0  0  0  0999 V2000
   37.8590   25.5030   35.4130 C   0  0  0  0  0  3  0  0  0  0  0  0
   37.8550   26.7950   35.6440 C   0  0  0  0  0  3  0  0  0  0  0  0
   38.6820   23.4400   38.3860 C   0  0  0  0  0  0  0  0  0  0  0  0
   38.0590   24.3440   37.5240 C   0  0  0  0  0  0  0  0  0  0  0  0
   38.5400   24.5580   36.2520 C   0  0  0  0  0  0  0  0  0  0  0  0
   39.6390   23.8610   35.8580 N   0  0  0  0  0  0  0  0  0  0  0  0
   40.2230   22.9990   36.6950 C   0  0  0  0  0  0  0  0  0  0  0  0
   39.7620   22.7780   37.9510 N   0  0  0  0  0  0  0  0  0  0  0  0
   38.3790   23.2060   39.4000 H   0  0  0  0  0  0  0  0  0  0  0  0
   37.2060   24.8460   37.9130 H   0  0  0  0  0  0  0  0  0  0  0  0
   41.1120   22.4490   36.3470 H   0  0  0  0  0  0  0  0  0  0  0  0
   37.1080   27.6940   34.7050 C   0  0  0  0  0  0  0  0  0  0  0  0
   37.4370   28.7500   34.9250 H   0  0  0  0  0  0  0  0  0  0  0  0
   36.0360   27.5760   34.8270 H   0  0  0  0  0  0  0  0  0  0  0  0
   37.6740   27.3230   33.0220 S   0  0  0  0  0  0  0  0  0  0  0  0
   36.5060   26.4290   32.0550 C   0  0  0  0  0  3  0  0  0  0  0  0
   36.2960   25.1190   31.8640 C   0  0  0  0  0  3  0  0  0  0  0  0
   35.5010   24.0320   31.2000 C   0  0  0  0  0  2  0  0  0  0  0  0
   36.2150   23.4710   30.5510 H   0  0  0  0  0  0  0  0  0  0  0  0
  1  2  2  0  0  0  0
  1  5  1  0  0  0  0
  3  9  1  0  0  0  0
  4 10  1  0  0  0  0
  4  3  2  0  0  0  0
  5  4  1  0  0  0  0
  6  5  2  0  0  0  0
  6  7  1  0  0  0  0
  7  8  2  0  0  0  0
  8  3  1  0  0  0  0
 11  7  1  0  0  0  0
 12 14  1  0  0  0  0
 12 13  1  0  0  0  0
 12  2  1  0  0  0  0
 15 12  1  0  0  0  0
 16 15  1  0  0  0  0
 17 16  2  0  0  0  0
 18 17  1  0  0  0  0
 19 18  1  0  0  0  0
M  END
>  <minimizedAffinity>
-3.7986412

$$$$

 OpenBabel03272502303D

 19 19  0  0  0  0  0  0  0  0999 V2000
   37.7150   25.6030   35.7150 C   0  0  0  0  0  3  0  0  0  0  0  0
   38.0650   26.8670   35.6590 C   0  0  0  0  0  3  0  0  0  0  0  0
   38.7220   23.3910   38.5190 C   0  0  0  0  0  0  0  0  0  0  0  0
   38.0460   24.3350   37.7460 C   0  0  0  0  0  0  0  0  0  0  0  0
   38.4490   24.6190   36.4600 C   0  0  0  0  0  0  0  0  0  0  0  0
   39.5240   23.9490   35.9640 N   0  0  0  0  0  0  0  0  0  0  0  0
   40.1600   23.0480   36.7180 C   0  0  0  0  0  0  0  0  0  0  0  0
   39.7750   22.7590   37.9870 N   0  0  0  0  0  0  0  0  0  0  0  0
   38.4820   23.1020   39.5370 H   0  0  0  0  0  0  0  0  0  0  0  0
   37.2170   24.8110   38.2120 H   0  0  0  0  0  0  0  0  0  0  0  0
   41.0270   22.5220   36.2890 H   0  0  0  0  0  0  0  0  0  0  0  0
   37.2250   27.8120   34.8530 C   0  0  0  0  0  0  0  0  0  0  0  0
   37.8210   28.7620   34.7290 H   0  0  0  0  0  0  0  0  0  0  0  0
   36.2740   27.9980   35.3410 H   0  0  0  0  0  0  0  0  0  0  0  0
   37.0410   27.1050   33.1930 S   0  0  0  0  0  0  0  0  0  0  0  0
   37.0190   28.3030   31.9020 C   0  0  0  0  0  3  0  0  0  0  0  0
   36.2560   29.3790   31.6750 C   0  0  0  0  0  3  0  0  0  0  0  0
   35.9250   30.5540   30.7990 C   0  0  0  0  0  2  0  0  0  0  0  0
   34.8800   30.3960   30.4410 H   0  0  0  0  0  0  0  0  0  0  0  0
  1  5  1  0  0  0  0
  2  1  2  0  0  0  0
  3  9  1  0  0  0  0
  4 10  1  0  0  0  0
  4  3  2  0  0  0  0
  5  4  1  0  0  0  0
  6  5  2  0  0  0  0
  6  7  1  0  0  0  0
  7  8  2  0  0  0  0
  8  3  1  0  0  0  0
 11  7  1  0  0  0  0
 12 14  1  0  0  0  0
 12  2  1  0  0  0  0
 13 12  1  0  0  0  0
 15 12  1  0  0  0  0
 16 15  1  0  0  0  0
 17 16  2  0  0  0  0
 18 17  1  0  0  0  0
 19 18  1  0  0  0  0
M  END
>  <minimizedAffinity>
-3.74537563

$$$$

 OpenBabel03272502303D

 19 19  0  0  0  0  0  0  0  0999 V2000
   36.2490   23.4470   31.5130 C   0  0  0  0  0  3  0  0  0  0  0  0
   35.3230   24.3020   31.1480 C   0  0  0  0  0  3  0  0  0  0  0  0
   34.8100   20.0950   32.1910 C   0  0  0  0  0  0  0  0  0  0  0  0
   35.0350   21.4720   32.1960 C   0  0  0  0  0  0  0  0  0  0  0  0
   36.0650   22.0240   31.4660 C   0  0  0  0  0  0  0  0  0  0  0  0
   36.8540   21.1880   30.7400 N   0  0  0  0  0  0  0  0  0  0  0  0
   36.6240   19.8720   30.7470 C   0  0  0  0  0  0  0  0  0  0  0  0
   35.6150   19.3140   31.4610 N   0  0  0  0  0  0  0  0  0  0  0  0
   34.0300   19.5690   32.7310 H   0  0  0  0  0  0  0  0  0  0  0  0
   34.3710   22.0510   32.7900 H   0  0  0  0  0  0  0  0  0  0  0  0
   37.2810   19.2210   30.1490 H   0  0  0  0  0  0  0  0  0  0  0  0
   35.6210   25.7690   31.2340 C   0  0  0  0  0  0  0  0  0  0  0  0
   34.8900   26.2140   31.9690 H   0  0  0  0  0  0  0  0  0  0  0  0
   35.5420   26.2380   30.2580 H   0  0  0  0  0  0  0  0  0  0  0  0
   37.2660   25.9530   31.9750 S   0  0  0  0  0  0  0  0  0  0  0  0
   37.2400   26.4860   33.6530 C   0  0  0  0  0  3  0  0  0  0  0  0
   38.2090   26.8150   34.5170 C   0  0  0  0  0  3  0  0  0  0  0  0
   38.5980   27.2760   35.8930 C   0  0  0  0  0  2  0  0  0  0  0  0
   39.2090   26.4570   36.3390 H   0  0  0  0  0  0  0  0  0  0  0  0
  2 12  1  0  0  0  0
  2  1  2  0  0  0  0
  3  4  1  0  0  0  0
  3  9  1  0  0  0  0
  4 10  1  0  0  0  0
  5  1  1  0  0  0  0
  5  4  2  0  0  0  0
  6  7  2  0  0  0  0
  6  5  1  0  0  0  0
  7  8  1  0  0  0  0
  8  3  2  0  0  0  0
 11  7  1  0  0  0  0
 12 13  1  0  0  0  0
 12 15  1  0  0  0  0
 14 12  1  0  0  0  0
 15 16  1  0  0  0  0
 16 17  2  0  0  0  0
 17 18  1  0  0  0  0
 18 19  1  0  0  0  0
M  END
>  <minimizedAffinity>
-3.71310353

$$$$

 OpenBabel03272502303D

 19 19  0  0  0  0  0  0  0  0999 V2000
   38.8780   24.6040   34.4360 C   0  0  0  0  0  3  0  0  0  0  0  0
   37.8520   25.1590   33.8340 C   0  0  0  0  0  3  0  0  0  0  0  0
   39.8300   22.8400   37.5580 C   0  0  0  0  0  0  0  0  0  0  0  0
   39.8140   23.2960   36.2400 C   0  0  0  0  0  0  0  0  0  0  0  0
   38.8440   24.1720   35.8050 C   0  0  0  0  0  0  0  0  0  0  0  0
   37.9040   24.5810   36.6980 N   0  0  0  0  0  0  0  0  0  0  0  0
   37.9340   24.1340   37.9560 C   0  0  0  0  0  0  0  0  0  0  0  0
   38.8820   23.2710   38.4000 N   0  0  0  0  0  0  0  0  0  0  0  0
   40.5480   22.1520   37.9920 H   0  0  0  0  0  0  0  0  0  0  0  0
   40.5860   22.9260   35.6090 H   0  0  0  0  0  0  0  0  0  0  0  0
   37.1580   24.4830   38.6570 H   0  0  0  0  0  0  0  0  0  0  0  0
   37.9940   25.5720   32.3990 C   0  0  0  0  0  0  0  0  0  0  0  0
   38.4530   24.7020   31.8480 H   0  0  0  0  0  0  0  0  0  0  0  0
   38.6020   26.4670   32.3110 H   0  0  0  0  0  0  0  0  0  0  0  0
   36.3250   25.7820   31.7200 S   0  0  0  0  0  0  0  0  0  0  0  0
   35.5500   24.2740   31.2430 C   0  0  0  0  0  3  0  0  0  0  0  0
   35.8670   22.9880   31.4400 C   0  0  0  0  0  3  0  0  0  0  0  0
   35.5300   21.5390   31.2350 C   0  0  0  0  0  2  0  0  0  0  0  0
   36.3660   21.1020   30.6390 H   0  0  0  0  0  0  0  0  0  0  0  0
  1  5  1  0  0  0  0
  2  1  2  0  0  0  0
  3  9  1  0  0  0  0
  3  8  1  0  0  0  0
  4  3  2  0  0  0  0
  5  4  1  0  0  0  0
  5  6  2  0  0  0  0
  6  7  1  0  0  0  0
  7  8  2  0  0  0  0
  7 11  1  0  0  0  0
 10  4  1  0  0  0  0
 12  2  1  0  0  0  0
 13 12  1  0  0  0  0
 14 12  1  0  0  0  0
 15 12  1  0  0  0  0
 16 17  2  0  0  0  0
 16 15  1  0  0  0  0
 18 17  1  0  0  0  0
 19 18  1  0  0  0  0
M  END
>  <minimizedAffinity>
-3.66070151

$$$$

 OpenBabel03272502303D

 19 19  0  0  0  0  0  0  0  0999 V2000
   38.2020   25.1660   33.6150 C   0  0  0  0  0  3  0  0  0  0  0  0
   38.1780   24.4110   34.6880 C   0  0  0  0  0  3  0  0  0  0  0  0
   35.6330   26.4750   31.2790 C   0  0  0  0  0  0  0  0  0  0  0  0
   36.6610   26.3990   32.2190 C   0  0  0  0  0  0  0  0  0  0  0  0
   37.1440   25.1810   32.6440 C   0  0  0  0  0  0  0  0  0  0  0  0
   36.5920   24.0550   32.1190 N   0  0  0  0  0  0  0  0  0  0  0  0
   35.6080   24.1460   31.2200 C   0  0  0  0  0  0  0  0  0  0  0  0
   35.1210   25.3380   30.7920 N   0  0  0  0  0  0  0  0  0  0  0  0
   35.1870   27.3820   30.8850 H   0  0  0  0  0  0  0  0  0  0  0  0
   37.0350   27.3270   32.5770 H   0  0  0  0  0  0  0  0  0  0  0  0
   35.1800   23.2160   30.8130 H   0  0  0  0  0  0  0  0  0  0  0  0
   39.3350   24.4750   35.6410 C   0  0  0  0  0  0  0  0  0  0  0  0
   39.3510   25.5170   36.0730 H   0  0  0  0  0  0  0  0  0  0  0  0
   40.2660   24.2370   35.1360 H   0  0  0  0  0  0  0  0  0  0  0  0
   38.9730   23.3550   37.0210 S   0  0  0  0  0  0  0  0  0  0  0  0
   40.3860   22.5170   37.6540 C   0  0  0  0  0  3  0  0  0  0  0  0
   41.2360   21.6340   37.1140 C   0  0  0  0  0  3  0  0  0  0  0  0
   42.4470   20.7590   37.2710 C   0  0  0  0  0  2  0  0  0  0  0  0
   42.0970   19.7090   37.1270 H   0  0  0  0  0  0  0  0  0  0  0  0
  1  2  2  0  0  0  0
  2 12  1  0  0  0  0
  3  4  1  0  0  0  0
  4 10  1  0  0  0  0
  4  5  2  0  0  0  0
  5  1  1  0  0  0  0
  6  5  1  0  0  0  0
  7  6  2  0  0  0  0
  8  7  1  0  0  0  0
  8  3  2  0  0  0  0
  9  3  1  0  0  0  0
 11  7  1  0  0  0  0
 12 13  1  0  0  0  0
 12 15  1  0  0  0  0
 14 12  1  0  0  0  0
 15 16  1  0  0  0  0
 17 18  1  0  0  0  0
 17 16  2  0  0  0  0
 19 18  1  0  0  0  0
M  END
>  <minimizedAffinity>
-3.54261804

$$$$

 OpenBabel03272502303D

 19 19  0  0  0  0  0  0  0  0999 V2000
   35.6660   28.9930   34.0200 C   0  0  0  0  0  3  0  0  0  0  0  0
   36.5480   28.1220   34.4500 C   0  0  0  0  0  3  0  0  0  0  0  0
   33.3010   31.3690   35.6120 C   0  0  0  0  0  0  0  0  0  0  0  0
   33.8270   30.3230   34.8530 C   0  0  0  0  0  0  0  0  0  0  0  0
   35.1830   30.0820   34.8210 C   0  0  0  0  0  0  0  0  0  0  0  0
   35.9940   30.8920   35.5540 N   0  0  0  0  0  0  0  0  0  0  0  0
   35.4730   31.8880   36.2750 C   0  0  0  0  0  0  0  0  0  0  0  0
   34.1400   32.1390   36.3150 N   0  0  0  0  0  0  0  0  0  0  0  0
   32.2540   31.6360   35.6990 H   0  0  0  0  0  0  0  0  0  0  0  0
   33.1230   29.7390   34.3110 H   0  0  0  0  0  0  0  0  0  0  0  0
   36.1550   32.5280   36.8570 H   0  0  0  0  0  0  0  0  0  0  0  0
   36.9860   27.0240   33.5280 C   0  0  0  0  0  0  0  0  0  0  0  0
   37.4490   27.5140   32.6240 H   0  0  0  0  0  0  0  0  0  0  0  0
   36.1490   26.3900   33.2550 H   0  0  0  0  0  0  0  0  0  0  0  0
   38.3220   26.1140   34.3530 S   0  0  0  0  0  0  0  0  0  0  0  0
   38.0870   25.9120   36.0860 C   0  0  0  0  0  3  0  0  0  0  0  0
   38.1480   24.8450   36.8930 C   0  0  0  0  0  3  0  0  0  0  0  0
   38.0330   24.2780   38.2800 C   0  0  0  0  0  2  0  0  0  0  0  0
   37.1930   23.5440   38.2510 H   0  0  0  0  0  0  0  0  0  0  0  0
  1  2  2  0  0  0  0
  1  5  1  0  0  0  0
  3  9  1  0  0  0  0
  3  8  1  0  0  0  0
  4  3  2  0  0  0  0
  5  4  1  0  0  0  0
  5  6  2  0  0  0  0
  6  7  1  0  0  0  0
  7  8  2  0  0  0  0
  7 11  1  0  0  0  0
 10  4  1  0  0  0  0
 12 15  1  0  0  0  0
 12  2  1  0  0  0  0
 13 12  1  0  0  0  0
 14 12  1  0  0  0  0
 15 16  1  0  0  0  0
 16 17  2  0  0  0  0
 17 18  1  0  0  0  0
 19 18  1  0  0  0  0
M  END
>  <minimizedAffinity>
-3.52434778

$$$$

 OpenBabel03272502303D

 19 19  0  0  0  0  0  0  0  0999 V2000
   35.7360   29.1570   33.3440 C   0  0  0  0  0  3  0  0  0  0  0  0
   36.5490   28.1610   33.6100 C   0  0  0  0  0  3  0  0  0  0  0  0
   35.2150   31.5210   36.1560 C   0  0  0  0  0  0  0  0  0  0  0  0
   35.8120   30.7630   35.1490 C   0  0  0  0  0  0  0  0  0  0  0  0
   35.0650   29.9140   34.3620 C   0  0  0  0  0  0  0  0  0  0  0  0
   33.7270   29.8400   34.5930 N   0  0  0  0  0  0  0  0  0  0  0  0
   33.1710   30.5730   35.5610 C   0  0  0  0  0  0  0  0  0  0  0  0
   33.8940   31.4120   36.3450 N   0  0  0  0  0  0  0  0  0  0  0  0
   35.7170   32.2120   36.8240 H   0  0  0  0  0  0  0  0  0  0  0  0
   36.8630   30.8820   35.0360 H   0  0  0  0  0  0  0  0  0  0  0  0
   32.0850   30.4910   35.7250 H   0  0  0  0  0  0  0  0  0  0  0  0
   37.2020   27.4380   32.4700 C   0  0  0  0  0  0  0  0  0  0  0  0
   37.8310   26.6150   32.9150 H   0  0  0  0  0  0  0  0  0  0  0  0
   37.7990   28.1180   31.8700 H   0  0  0  0  0  0  0  0  0  0  0  0
   35.8930   26.6200   31.5160 S   0  0  0  0  0  0  0  0  0  0  0  0
   36.2470   24.9450   31.1040 C   0  0  0  0  0  3  0  0  0  0  0  0
   35.6500   23.7870   31.4160 C   0  0  0  0  0  3  0  0  0  0  0  0
   35.6150   22.2900   31.2960 C   0  0  0  0  0  2  0  0  0  0  0  0
   35.7470   21.8880   32.3270 H   0  0  0  0  0  0  0  0  0  0  0  0
  1  2  2  0  0  0  0
  1  5  1  0  0  0  0
  3  8  1  0  0  0  0
  3  9  1  0  0  0  0
  4  3  2  0  0  0  0
  5  6  2  0  0  0  0
  5  4  1  0  0  0  0
  6  7  1  0  0  0  0
  7 11  1  0  0  0  0
  7  8  2  0  0  0  0
 10  4  1  0  0  0  0
 12 13  1  0  0  0  0
 12  2  1  0  0  0  0
 14 12  1  0  0  0  0
 15 12  1  0  0  0  0
 16 17  2  0  0  0  0
 16 15  1  0  0  0  0
 18 17  1  0  0  0  0
 18 19  1  0  0  0  0
M  END
>  <minimizedAffinity>
-3.4855442

$$$$

 OpenBabel03272502303D

 19 19  0  0  0  0  0  0  0  0999 V2000
   37.6890   25.5770   35.5960 C   0  0  0  0  0  3  0  0  0  0  0  0
   37.8900   26.8710   35.6830 C   0  0  0  0  0  3  0  0  0  0  0  0
   40.2220   23.0530   36.5890 C   0  0  0  0  0  0  0  0  0  0  0  0
   39.4980   23.9950   35.8580 C   0  0  0  0  0  0  0  0  0  0  0  0
   38.3950   24.6190   36.3990 C   0  0  0  0  0  0  0  0  0  0  0  0
   38.0330   24.2910   37.6680 N   0  0  0  0  0  0  0  0  0  0  0  0
   38.7380   23.3870   38.3540 C   0  0  0  0  0  0  0  0  0  0  0  0
   39.8250   22.7640   37.8350 N   0  0  0  0  0  0  0  0  0  0  0  0
   41.0980   22.5120   36.2510 H   0  0  0  0  0  0  0  0  0  0  0  0
   39.8490   24.1920   34.8740 H   0  0  0  0  0  0  0  0  0  0  0  0
   38.4200   23.1410   39.3800 H   0  0  0  0  0  0  0  0  0  0  0  0
   37.0950   27.7850   34.7990 C   0  0  0  0  0  0  0  0  0  0  0  0
   37.6340   28.7760   34.7750 H   0  0  0  0  0  0  0  0  0  0  0  0
   36.0790   27.8920   35.1650 H   0  0  0  0  0  0  0  0  0  0  0  0
   37.1720   27.1220   33.1120 S   0  0  0  0  0  0  0  0  0  0  0  0
   38.7380   27.3240   32.3340 C   0  0  0  0  0  3  0  0  0  0  0  0
   39.9640   26.8720   32.6290 C   0  0  0  0  0  3  0  0  0  0  0  0
   41.4240   26.8040   32.2810 C   0  0  0  0  0  2  0  0  0  0  0  0
   41.9720   27.2790   33.1280 H   0  0  0  0  0  0  0  0  0  0  0  0
  1  2  2  0  0  0  0
  1  5  1  0  0  0  0
  3  8  1  0  0  0  0
  4  5  1  0  0  0  0
  4  3  2  0  0  0  0
  5  6  2  0  0  0  0
  6  7  1  0  0  0  0
  7 11  1  0  0  0  0
  8  7  2  0  0  0  0
  9  3  1  0  0  0  0
 10  4  1  0  0  0  0
 12 14  1  0  0  0  0
 12  2  1  0  0  0  0
 13 12  1  0  0  0  0
 15 12  1  0  0  0  0
 16 17  2  0  0  0  0
 16 15  1  0  0  0  0
 18 17  1  0  0  0  0
 18 19  1  0  0  0  0
M  END
>  <minimizedAffinity>
-3.47329259

$$$$
