
 OpenBabel03272507163D

 21 22  0  0  1  0  0  0  0  0999 V2000
   36.6940   31.0170   50.5030 C   0  0  1  0  0  0  0  0  0  0  0  0
   36.0590   29.7360   50.7380 C   0  0  2  0  0  0  0  0  0  0  0  0
   37.4810   29.9210   51.2320 C   0  0  0  0  0  0  0  0  0  0  0  0
   36.6210   31.9130   51.1570 H   0  0  0  0  0  0  0  0  0  0  0  0
   35.2360   29.6820   51.4880 H   0  0  0  0  0  0  0  0  0  0  0  0
   37.5810   29.9660   52.3280 H   0  0  0  0  0  0  0  0  0  0  0  0
   38.2930   29.4090   50.7000 H   0  0  0  0  0  0  0  0  0  0  0  0
   37.2960   31.3560   49.1580 C   0  0  0  0  0  0  0  0  0  0  0  0
   38.3710   32.2460   49.1680 C   0  0  0  0  0  0  0  0  0  0  0  0
   38.8920   32.5560   47.9130 C   0  0  0  0  0  0  0  0  0  0  0  0
   38.3660   32.0120   46.7830 N   0  0  0  0  0  0  0  0  0  0  0  0
   37.3190   31.1500   46.8220 C   0  0  0  0  0  0  0  0  0  0  0  0
   36.7730   30.8150   48.0260 N   0  0  0  0  0  0  0  0  0  0  0  0
   38.7440   32.6440   50.1010 H   0  0  0  0  0  0  0  0  0  0  0  0
   39.7260   33.2440   47.8870 H   0  0  0  0  0  0  0  0  0  0  0  0
   36.8810   30.7050   45.9390 H   0  0  0  0  0  0  0  0  0  0  0  0
   35.9090   28.8410   49.6760 O   0  0  0  0  0  0  0  0  0  0  0  0
   34.8030   28.1250   49.3280 C   0  0  0  0  0  3  0  0  0  0  0  0
   34.0970   28.2540   48.2430 C   0  0  0  0  0  3  0  0  0  0  0  0
   32.9110   27.3990   47.9990 C   0  0  0  0  0  2  0  0  0  0  0  0
   32.9890   26.5080   48.6530 H   0  0  0  0  0  0  0  0  0  0  0  0
  1  2  1  0  0  0  0
  1  4  1  1  0  0  0
  1  3  1  0  0  0  0
  2  3  1  0  0  0  0
  2  5  1  1  0  0  0
  3  6  1  0  0  0  0
  7  3  1  0  0  0  0
  8  9  1  0  0  0  0
  8  1  1  0  0  0  0
  9 14  1  0  0  0  0
 10  9  2  0  0  0  0
 11 12  2  0  0  0  0
 11 10  1  0  0  0  0
 12 13  1  0  0  0  0
 13  8  2  0  0  0  0
 15 10  1  0  0  0  0
 16 12  1  0  0  0  0
 17  2  1  0  0  0  0
 18 17  1  0  0  0  0
 19 18  2  0  0  0  0
 20 19  1  0  0  0  0
 20 21  1  0  0  0  0
M  END
>  <minimizedAffinity>
-4.57614899

>  <minimizedRMSD>
1.18408453

$$$$
