
 OpenBabel03272504243D

 34 36  0  0  0  0  0  0  0  0999 V2000
   35.7630   29.9220   48.3950 C   0  0  0  0  0  0  0  0  0  0  0  0
   35.6140   29.0850   49.4240 C   0  0  0  0  0  0  0  0  0  0  0  0
   34.5540   28.2970   49.5510 C   0  0  0  0  0  0  0  0  0  0  0  0
   33.6030   28.3550   48.5960 N   0  0  0  0  0  0  0  0  0  0  0  0
   33.7280   29.1810   47.5480 C   0  0  0  0  0  0  0  0  0  0  0  0
   34.8040   29.9690   47.4390 N   0  0  0  0  0  0  0  0  0  0  0  0
   36.3500   29.0010   50.2100 H   0  0  0  0  0  0  0  0  0  0  0  0
   34.3850   27.6000   50.3740 H   0  0  0  0  0  0  0  0  0  0  0  0
   32.1190   27.9520   46.1830 C   0  0  0  0  0  0  0  0  0  0  0  0
   32.6660   29.1800   46.5600 C   0  0  0  0  0  0  0  0  0  0  0  0
   32.2360   30.3900   46.0740 C   0  0  0  0  0  0  0  0  0  0  0  0
   31.1990   30.4520   45.1500 C   0  0  0  0  0  0  0  0  0  0  0  0
   30.6000   29.2750   44.7250 C   0  0  0  0  0  0  0  0  0  0  0  0
   31.0970   28.1210   45.2630 C   0  0  0  0  0  0  0  0  0  0  0  0
   32.7090   31.3170   46.4130 H   0  0  0  0  0  0  0  0  0  0  0  0
   30.8970   31.4250   44.7980 H   0  0  0  0  0  0  0  0  0  0  0  0
   29.8060   29.2890   44.0200 H   0  0  0  0  0  0  0  0  0  0  0  0
   30.5990   27.2050   44.9040 H   0  0  0  0  0  0  0  0  0  0  0  0
   32.6310   26.4480   46.8020 S   0  0  0  0  0  0  0  0  0  0  0  0
   32.0040   25.5280   45.8020 O   0  0  0  0  0  0  0  0  0  0  0  0
   31.9060   26.0230   48.0160 O   0  0  0  0  0  0  0  0  0  0  0  0
   34.0030   25.5440   46.3200 C   0  0  0  0  0  3  0  0  0  0  0  0
   34.5050   24.4410   45.8690 C   0  0  0  0  0  3  0  0  0  0  0  0
   35.8660   23.9460   45.5340 C   0  0  0  0  0  2  0  0  0  0  0  0
   36.0290   23.0060   46.0980 H   0  0  0  0  0  0  0  0  0  0  0  0
   38.3560   32.3590   49.3430 C   0  0  0  0  0  0  0  0  0  0  0  0
   38.9100   32.6970   48.0790 C   0  0  0  0  0  0  0  0  0  0  0  0
   38.3730   32.0690   46.9290 C   0  0  0  0  0  0  0  0  0  0  0  0
   37.3530   31.1720   47.0850 N   0  0  0  0  0  0  0  0  0  0  0  0
   36.8600   30.8800   48.2790 C   0  0  0  0  0  0  0  0  0  0  0  0
   37.3610   31.4750   49.4120 N   0  0  0  0  0  0  0  0  0  0  0  0
   38.7090   32.7930   50.2650 H   0  0  0  0  0  0  0  0  0  0  0  0
   39.7110   33.4110   48.0340 H   0  0  0  0  0  0  0  0  0  0  0  0
   38.7860   32.3180   45.9620 H   0  0  0  0  0  0  0  0  0  0  0  0
  1  2  1  0  0  0  0
  2  3  2  0  0  0  0
  2  7  1  0  0  0  0
  3  8  1  0  0  0  0
  4  3  1  0  0  0  0
  5  4  2  0  0  0  0
  6  5  1  0  0  0  0
  6  1  2  0  0  0  0
  9 10  1  0  0  0  0
  9 19  1  0  0  0  0
 10  5  1  0  0  0  0
 11 15  1  0  0  0  0
 11 10  2  0  0  0  0
 12 11  1  0  0  0  0
 13 12  2  0  0  0  0
 13 14  1  0  0  0  0
 14  9  2  0  0  0  0
 16 12  1  0  0  0  0
 17 13  1  0  0  0  0
 18 14  1  0  0  0  0
 19 21  2  0  0  0  0
 20 19  2  0  0  0  0
 22 19  1  0  0  0  0
 23 22  2  0  0  0  0
 24 23  1  0  0  0  0
 24 25  1  0  0  0  0
 26 31  1  0  0  0  0
 26 32  1  0  0  0  0
 27 26  2  0  0  0  0
 28 29  2  0  0  0  0
 28 27  1  0  0  0  0
 29 30  1  0  0  0  0
 30  1  1  0  0  0  0
 30 31  2  0  0  0  0
 33 27  1  0  0  0  0
 34 28  1  0  0  0  0
M  END
>  <minimizedAffinity>
-5.1525135

>  <minimizedRMSD>
1.51915717

$$$$
