
 OpenBabel03272507373D

 18 18  0  0  0  0  0  0  0  0999 V2000
   37.2250   30.2900   47.9330 C   0  0  0  0  0  0  0  0  0  0  0  0
   37.7960   30.5500   46.7030 C   0  0  0  0  0  0  0  0  0  0  0  0
   36.9920   30.5850   45.5800 C   0  0  0  0  0  0  0  0  0  0  0  0
   35.6530   30.3560   45.7460 N   0  0  0  0  0  0  0  0  0  0  0  0
   35.1120   30.1020   46.9660 C   0  0  0  0  0  0  0  0  0  0  0  0
   35.9050   30.0720   48.0460 N   0  0  0  0  0  0  0  0  0  0  0  0
   37.3770   30.7840   44.5830 H   0  0  0  0  0  0  0  0  0  0  0  0
   34.0530   29.9220   47.0900 H   0  0  0  0  0  0  0  0  0  0  0  0
   39.7040   32.0560   46.7590 C   0  0  0  0  0  0  0  0  0  0  0  0
   39.2660   33.1620   47.2370 O   0  0  0  0  0  0  0  0  0  0  0  0
   39.1550   30.7920   46.4690 N   0  0  0  0  0  0  0  0  0  0  0  0
   40.7470   32.3170   46.5920 H   0  0  0  0  0  0  0  0  0  0  0  0
   39.8280   30.1180   46.0900 H   0  0  0  0  0  0  0  0  0  0  0  0
   38.1550   30.2870   48.9660 O   0  0  0  0  0  0  0  0  0  0  0  0
   37.9040   31.1770   49.9990 C   0  0  0  0  0  3  0  0  0  0  0  0
   37.4830   30.7110   51.1550 C   0  0  0  0  0  3  0  0  0  0  0  0
   37.2430   29.2820   51.4740 C   0  0  0  0  0  2  0  0  0  0  0  0
   37.5290   28.5990   50.6360 H   0  0  0  0  0  0  0  0  0  0  0  0
  1  6  1  0  0  0  0
  1 14  1  0  0  0  0
  2  1  2  0  0  0  0
  3  4  2  0  0  0  0
  3  2  1  0  0  0  0
  4  5  1  0  0  0  0
  5  8  1  0  0  0  0
  5  6  2  0  0  0  0
  7  3  1  0  0  0  0
  9 10  2  0  0  0  0
 11  2  1  0  0  0  0
 11  9  1  0  0  0  0
 12  9  1  0  0  0  0
 13 11  1  0  0  0  0
 14 15  1  0  0  0  0
 15 16  2  0  0  0  0
 16 17  1  0  0  0  0
 18 17  1  0  0  0  0
M  END
>  <minimizedAffinity>
-3.65109396

>  <minimizedRMSD>
3.27196336

$$$$
