
 OpenBabel03272507373D

 18 18  0  0  0  0  0  0  0  0999 V2000
   37.5630   30.6110   47.6850 C   0  0  0  0  0  0  0  0  0  0  0  0
   38.3200   30.7660   46.5410 C   0  0  0  0  0  0  0  0  0  0  0  0
   37.7080   30.6570   45.3080 C   0  0  0  0  0  0  0  0  0  0  0  0
   36.3650   30.3970   45.2830 N   0  0  0  0  0  0  0  0  0  0  0  0
   35.6390   30.2480   46.4210 C   0  0  0  0  0  0  0  0  0  0  0  0
   36.2480   30.3570   47.6110 N   0  0  0  0  0  0  0  0  0  0  0  0
   38.2450   30.7680   44.3680 H   0  0  0  0  0  0  0  0  0  0  0  0
   34.5770   30.0430   46.3940 H   0  0  0  0  0  0  0  0  0  0  0  0
   40.1600   32.2310   45.9260 C   0  0  0  0  0  0  0  0  0  0  0  0
   39.6250   33.2600   45.3800 O   0  0  0  0  0  0  0  0  0  0  0  0
   39.6940   31.0330   46.5010 N   0  0  0  0  0  0  0  0  0  0  0  0
   41.2130   32.4990   45.8520 H   0  0  0  0  0  0  0  0  0  0  0  0
   40.4350   30.4230   46.8610 H   0  0  0  0  0  0  0  0  0  0  0  0
   38.3150   30.7470   48.8470 O   0  0  0  0  0  0  0  0  0  0  0  0
   37.7010   31.4430   49.8780 C   0  0  0  0  0  3  0  0  0  0  0  0
   37.2390   30.7760   50.9140 C   0  0  0  0  0  3  0  0  0  0  0  0
   37.3140   29.3060   51.0950 C   0  0  0  0  0  2  0  0  0  0  0  0
   37.8810   28.7980   50.2760 H   0  0  0  0  0  0  0  0  0  0  0  0
  1 14  1  0  0  0  0
  2  1  2  0  0  0  0
  3  2  1  0  0  0  0
  4  3  2  0  0  0  0
  4  5  1  0  0  0  0
  5  6  2  0  0  0  0
  6  1  1  0  0  0  0
  7  3  1  0  0  0  0
  8  5  1  0  0  0  0
  9 11  1  0  0  0  0
 10  9  2  0  0  0  0
 11  2  1  0  0  0  0
 11 13  1  0  0  0  0
 12  9  1  0  0  0  0
 14 15  1  0  0  0  0
 15 16  2  0  0  0  0
 16 17  1  0  0  0  0
 18 17  1  0  0  0  0
M  END
>  <minimizedAffinity>
-4.05406094

>  <minimizedRMSD>
3.82672644

$$$$
