
 OpenBabel03272507163D

 21 22  0  0  1  0  0  0  0  0999 V2000
   36.6110   31.0510   50.4690 C   0  0  1  0  0  0  0  0  0  0  0  0
   36.0620   29.7330   50.7140 C   0  0  2  0  0  0  0  0  0  0  0  0
   37.4340   30.0440   51.2800 C   0  0  0  0  0  0  0  0  0  0  0  0
   36.4320   31.9590   51.0830 H   0  0  0  0  0  0  0  0  0  0  0  0
   35.2020   29.6400   51.4180 H   0  0  0  0  0  0  0  0  0  0  0  0
   37.4650   30.1320   52.3780 H   0  0  0  0  0  0  0  0  0  0  0  0
   38.3130   29.5800   50.8150 H   0  0  0  0  0  0  0  0  0  0  0  0
   37.2640   31.3920   49.1480 C   0  0  0  0  0  0  0  0  0  0  0  0
   38.3430   32.2760   49.2010 C   0  0  0  0  0  0  0  0  0  0  0  0
   38.9110   32.5880   47.9680 C   0  0  0  0  0  0  0  0  0  0  0  0
   38.4240   32.0520   46.8170 N   0  0  0  0  0  0  0  0  0  0  0  0
   37.3710   31.1960   46.8130 C   0  0  0  0  0  0  0  0  0  0  0  0
   36.7800   30.8590   47.9950 N   0  0  0  0  0  0  0  0  0  0  0  0
   38.6840   32.6680   50.1490 H   0  0  0  0  0  0  0  0  0  0  0  0
   39.7500   33.2710   47.9750 H   0  0  0  0  0  0  0  0  0  0  0  0
   36.9640   30.7570   45.9130 H   0  0  0  0  0  0  0  0  0  0  0  0
   36.0440   28.7950   49.6790 O   0  0  0  0  0  0  0  0  0  0  0  0
   34.9660   28.1640   49.1340 C   0  0  0  0  0  3  0  0  0  0  0  0
   33.7250   28.5490   49.1870 C   0  0  0  0  0  3  0  0  0  0  0  0
   32.6510   27.7550   48.5440 C   0  0  0  0  0  2  0  0  0  0  0  0
   33.1200   27.0870   47.7940 H   0  0  0  0  0  0  0  0  0  0  0  0
  1  2  1  0  0  0  0
  1  4  1  1  0  0  0
  1  3  1  0  0  0  0
  2  3  1  0  0  0  0
  2  5  1  1  0  0  0
  3  6  1  0  0  0  0
  7  3  1  0  0  0  0
  8  9  1  0  0  0  0
  8  1  1  0  0  0  0
  9 14  1  0  0  0  0
 10 15  1  0  0  0  0
 10  9  2  0  0  0  0
 11 10  1  0  0  0  0
 12 11  2  0  0  0  0
 12 13  1  0  0  0  0
 13  8  2  0  0  0  0
 16 12  1  0  0  0  0
 17  2  1  0  0  0  0
 18 19  2  0  0  0  0
 18 17  1  0  0  0  0
 20 19  1  0  0  0  0
 21 20  1  0  0  0  0
M  END
>  <minimizedAffinity>
-4.6471858

>  <minimizedRMSD>
1.23408449

$$$$
