
 OpenBabel03272507383D

 18 18  0  0  0  0  0  0  0  0999 V2000
   40.3850   23.7590   35.7880 C   0  0  0  0  0  0  0  0  0  0  0  0
   39.8110   22.8390   36.6430 C   0  0  0  0  0  0  0  0  0  0  0  0
   40.6240   21.9530   37.3240 C   0  0  0  0  0  0  0  0  0  0  0  0
   41.9740   22.0340   37.1130 N   0  0  0  0  0  0  0  0  0  0  0  0
   42.5170   22.9470   36.2670 C   0  0  0  0  0  0  0  0  0  0  0  0
   41.7150   23.8000   35.6140 N   0  0  0  0  0  0  0  0  0  0  0  0
   40.2380   21.2040   38.0120 H   0  0  0  0  0  0  0  0  0  0  0  0
   43.5850   23.0060   36.1050 H   0  0  0  0  0  0  0  0  0  0  0  0
   37.8410   23.4740   37.9180 C   0  0  0  0  0  0  0  0  0  0  0  0
   38.2350   24.3590   38.7580 O   0  0  0  0  0  0  0  0  0  0  0  0
   38.4420   22.7070   36.9010 N   0  0  0  0  0  0  0  0  0  0  0  0
   36.7870   23.4150   38.1800 H   0  0  0  0  0  0  0  0  0  0  0  0
   37.7950   22.0840   36.4070 H   0  0  0  0  0  0  0  0  0  0  0  0
   39.4450   24.5790   35.1760 O   0  0  0  0  0  0  0  0  0  0  0  0
   39.9330   25.7780   34.6750 C   0  0  0  0  0  3  0  0  0  0  0  0
   39.4440   26.9090   35.1340 C   0  0  0  0  0  3  0  0  0  0  0  0
   38.3870   27.0370   36.1670 C   0  0  0  0  0  2  0  0  0  0  0  0
   38.0770   26.0490   36.5910 H   0  0  0  0  0  0  0  0  0  0  0  0
  1  2  1  0  0  0  0
  2 11  1  0  0  0  0
  2  3  2  0  0  0  0
  3  7  1  0  0  0  0
  4  3  1  0  0  0  0
  5  4  2  0  0  0  0
  6  1  2  0  0  0  0
  6  5  1  0  0  0  0
  8  5  1  0  0  0  0
  9 12  1  0  0  0  0
  9 10  2  0  0  0  0
 11  9  1  0  0  0  0
 13 11  1  0  0  0  0
 14  1  1  0  0  0  0
 15 16  2  0  0  0  0
 15 14  1  0  0  0  0
 16 17  1  0  0  0  0
 17 18  1  0  0  0  0
M  END
>  <minimizedAffinity>
-3.89784098

$$$$

 OpenBabel03272507383D

 18 18  0  0  0  0  0  0  0  0999 V2000
   39.1210   23.7610   35.0120 C   0  0  0  0  0  0  0  0  0  0  0  0
   38.7460   22.7930   35.9220 C   0  0  0  0  0  0  0  0  0  0  0  0
   37.8230   21.8360   35.5460 C   0  0  0  0  0  0  0  0  0  0  0  0
   37.3210   21.8970   34.2750 N   0  0  0  0  0  0  0  0  0  0  0  0
   37.7040   22.8600   33.3950 C   0  0  0  0  0  0  0  0  0  0  0  0
   38.6000   23.7810   33.7750 N   0  0  0  0  0  0  0  0  0  0  0  0
   37.4840   21.0460   36.2130 H   0  0  0  0  0  0  0  0  0  0  0  0
   37.3030   22.9020   32.3920 H   0  0  0  0  0  0  0  0  0  0  0  0
   38.6190   23.4170   38.2680 C   0  0  0  0  0  0  0  0  0  0  0  0
   37.6480   24.2480   38.3610 O   0  0  0  0  0  0  0  0  0  0  0  0
   39.2220   22.6770   37.2330 N   0  0  0  0  0  0  0  0  0  0  0  0
   38.9450   23.3840   39.3060 H   0  0  0  0  0  0  0  0  0  0  0  0
   40.0010   22.0840   37.5380 H   0  0  0  0  0  0  0  0  0  0  0  0
   40.0520   24.6520   35.5320 O   0  0  0  0  0  0  0  0  0  0  0  0
   40.3770   25.7230   34.7120 C   0  0  0  0  0  3  0  0  0  0  0  0
   39.7780   26.8780   34.9020 C   0  0  0  0  0  3  0  0  0  0  0  0
   38.7540   27.1600   35.9380 C   0  0  0  0  0  2  0  0  0  0  0  0
   38.5790   26.2890   36.6180 H   0  0  0  0  0  0  0  0  0  0  0  0
  1 14  1  0  0  0  0
  1  2  1  0  0  0  0
  2 11  1  0  0  0  0
  3  2  2  0  0  0  0
  3  7  1  0  0  0  0
  4  3  1  0  0  0  0
  5  6  1  0  0  0  0
  5  4  2  0  0  0  0
  6  1  2  0  0  0  0
  8  5  1  0  0  0  0
  9 10  2  0  0  0  0
  9 12  1  0  0  0  0
 11 13  1  0  0  0  0
 11  9  1  0  0  0  0
 15 16  2  0  0  0  0
 15 14  1  0  0  0  0
 16 17  1  0  0  0  0
 17 18  1  0  0  0  0
M  END
>  <minimizedAffinity>
-3.82725334

$$$$

 OpenBabel03272507383D

 18 18  0  0  0  0  0  0  0  0999 V2000
   38.4240   24.6210   36.5570 C   0  0  0  0  0  0  0  0  0  0  0  0
   39.4240   23.9370   35.8950 C   0  0  0  0  0  0  0  0  0  0  0  0
   40.1120   22.9400   36.5600 C   0  0  0  0  0  0  0  0  0  0  0  0
   39.7630   22.6790   37.8570 N   0  0  0  0  0  0  0  0  0  0  0  0
   38.7760   23.3660   38.4890 C   0  0  0  0  0  0  0  0  0  0  0  0
   38.1180   24.3300   37.8310 N   0  0  0  0  0  0  0  0  0  0  0  0
   40.9090   22.3620   36.0980 H   0  0  0  0  0  0  0  0  0  0  0  0
   38.5050   23.1540   39.5150 H   0  0  0  0  0  0  0  0  0  0  0  0
   40.9090   25.0130   34.3000 C   0  0  0  0  0  0  0  0  0  0  0  0
   41.7240   25.7170   34.9950 O   0  0  0  0  0  0  0  0  0  0  0  0
   39.8260   24.1560   34.5720 N   0  0  0  0  0  0  0  0  0  0  0  0
   41.2680   25.2380   33.2970 H   0  0  0  0  0  0  0  0  0  0  0  0
   39.3970   23.7420   33.7380 H   0  0  0  0  0  0  0  0  0  0  0  0
   37.8250   25.5920   35.7630 O   0  0  0  0  0  0  0  0  0  0  0  0
   38.1870   26.9020   36.0450 C   0  0  0  0  0  3  0  0  0  0  0  0
   37.7170   27.8720   35.2910 C   0  0  0  0  0  3  0  0  0  0  0  0
   36.8100   27.7000   34.1300 C   0  0  0  0  0  2  0  0  0  0  0  0
   36.4890   26.6380   33.9870 H   0  0  0  0  0  0  0  0  0  0  0  0
  1  6  1  0  0  0  0
  2  1  2  0  0  0  0
  2  3  1  0  0  0  0
  3  4  2  0  0  0  0
  4  5  1  0  0  0  0
  5  8  1  0  0  0  0
  6  5  2  0  0  0  0
  7  3  1  0  0  0  0
  9 11  1  0  0  0  0
  9 10  2  0  0  0  0
 11  2  1  0  0  0  0
 12  9  1  0  0  0  0
 13 11  1  0  0  0  0
 14 15  1  0  0  0  0
 14  1  1  0  0  0  0
 16 15  2  0  0  0  0
 17 16  1  0  0  0  0
 18 17  1  0  0  0  0
M  END
>  <minimizedAffinity>
-3.61924863

$$$$

 OpenBabel03272507383D

 18 18  0  0  0  0  0  0  0  0999 V2000
   39.6310   24.5470   35.3000 C   0  0  0  0  0  0  0  0  0  0  0  0
   38.5280   24.9150   36.0450 C   0  0  0  0  0  0  0  0  0  0  0  0
   38.2400   26.2570   36.2050 C   0  0  0  0  0  0  0  0  0  0  0  0
   39.0740   27.1640   35.6100 N   0  0  0  0  0  0  0  0  0  0  0  0
   40.1550   26.7790   34.8820 C   0  0  0  0  0  0  0  0  0  0  0  0
   40.4210   25.4740   34.7360 N   0  0  0  0  0  0  0  0  0  0  0  0
   37.3880   26.6160   36.7770 H   0  0  0  0  0  0  0  0  0  0  0  0
   40.8100   27.5020   34.4150 H   0  0  0  0  0  0  0  0  0  0  0  0
   37.7880   23.7490   38.0450 C   0  0  0  0  0  0  0  0  0  0  0  0
   38.5870   24.1100   38.9800 O   0  0  0  0  0  0  0  0  0  0  0  0
   37.6380   24.0370   36.6750 N   0  0  0  0  0  0  0  0  0  0  0  0
   37.1410   23.0690   38.5970 H   0  0  0  0  0  0  0  0  0  0  0  0
   36.8520   23.5560   36.2280 H   0  0  0  0  0  0  0  0  0  0  0  0
   39.7920   23.1680   35.2290 O   0  0  0  0  0  0  0  0  0  0  0  0
   41.1040   22.7230   35.1570 C   0  0  0  0  0  3  0  0  0  0  0  0
   41.6360   22.1290   36.2020 C   0  0  0  0  0  3  0  0  0  0  0  0
   40.9520   21.8810   37.4950 C   0  0  0  0  0  2  0  0  0  0  0  0
   39.8780   22.1910   37.4800 H   0  0  0  0  0  0  0  0  0  0  0  0
  1  2  1  0  0  0  0
  2  3  2  0  0  0  0
  2 11  1  0  0  0  0
  3  7  1  0  0  0  0
  4  3  1  0  0  0  0
  5  4  2  0  0  0  0
  6  5  1  0  0  0  0
  6  1  2  0  0  0  0
  8  5  1  0  0  0  0
  9 12  1  0  0  0  0
  9 10  2  0  0  0  0
 11  9  1  0  0  0  0
 13 11  1  0  0  0  0
 14  1  1  0  0  0  0
 15 14  1  0  0  0  0
 15 16  2  0  0  0  0
 16 17  1  0  0  0  0
 18 17  1  0  0  0  0
M  END
>  <minimizedAffinity>
-3.60307717

$$$$

 OpenBabel03272507383D

 18 18  0  0  0  0  0  0  0  0999 V2000
   37.2450   26.3050   32.5420 C   0  0  0  0  0  0  0  0  0  0  0  0
   36.2380   26.8150   31.7470 C   0  0  0  0  0  0  0  0  0  0  0  0
   35.4140   25.9430   31.0630 C   0  0  0  0  0  0  0  0  0  0  0  0
   35.6400   24.6010   31.2090 N   0  0  0  0  0  0  0  0  0  0  0  0
   36.6380   24.1210   31.9960 C   0  0  0  0  0  0  0  0  0  0  0  0
   37.4300   24.9800   32.6540 N   0  0  0  0  0  0  0  0  0  0  0  0
   34.6020   26.2770   30.4200 H   0  0  0  0  0  0  0  0  0  0  0  0
   36.8120   23.0600   32.1070 H   0  0  0  0  0  0  0  0  0  0  0  0
   36.4510   28.8420   30.4230 C   0  0  0  0  0  0  0  0  0  0  0  0
   37.1540   28.5230   29.3990 O   0  0  0  0  0  0  0  0  0  0  0  0
   35.9560   28.1720   31.5580 N   0  0  0  0  0  0  0  0  0  0  0  0
   36.2800   29.8970   30.2180 H   0  0  0  0  0  0  0  0  0  0  0  0
   35.4020   28.7640   32.1860 H   0  0  0  0  0  0  0  0  0  0  0  0
   37.9900   27.2990   33.1650 O   0  0  0  0  0  0  0  0  0  0  0  0
   39.2690   26.9310   33.5570 C   0  0  0  0  0  3  0  0  0  0  0  0
   39.5660   26.9120   34.8380 C   0  0  0  0  0  3  0  0  0  0  0  0
   38.6380   27.2570   35.9440 C   0  0  0  0  0  2  0  0  0  0  0  0
   37.6020   27.4760   35.5840 H   0  0  0  0  0  0  0  0  0  0  0  0
  1  6  1  0  0  0  0
  1 14  1  0  0  0  0
  2  1  2  0  0  0  0
  3  4  2  0  0  0  0
  3  2  1  0  0  0  0
  4  5  1  0  0  0  0
  5  8  1  0  0  0  0
  5  6  2  0  0  0  0
  7  3  1  0  0  0  0
  9 11  1  0  0  0  0
 10  9  2  0  0  0  0
 11  2  1  0  0  0  0
 11 13  1  0  0  0  0
 12  9  1  0  0  0  0
 14 15  1  0  0  0  0
 15 16  2  0  0  0  0
 16 17  1  0  0  0  0
 18 17  1  0  0  0  0
M  END
>  <minimizedAffinity>
-3.56445384

$$$$

 OpenBabel03272507383D

 18 18  0  0  0  0  0  0  0  0999 V2000
   36.7710   27.5280   32.9570 C   0  0  0  0  0  0  0  0  0  0  0  0
   36.8880   26.9430   31.7120 C   0  0  0  0  0  0  0  0  0  0  0  0
   36.5560   27.6770   30.5900 C   0  0  0  0  0  0  0  0  0  0  0  0
   36.1220   28.9620   30.7720 N   0  0  0  0  0  0  0  0  0  0  0  0
   36.0140   29.5170   32.0080 C   0  0  0  0  0  0  0  0  0  0  0  0
   36.3400   28.7920   33.0870 N   0  0  0  0  0  0  0  0  0  0  0  0
   36.6250   27.2790   29.5800 H   0  0  0  0  0  0  0  0  0  0  0  0
   35.6700   30.5330   32.1450 H   0  0  0  0  0  0  0  0  0  0  0  0
   36.3860   24.6030   31.2860 C   0  0  0  0  0  0  0  0  0  0  0  0
   35.1080   24.5110   31.2830 O   0  0  0  0  0  0  0  0  0  0  0  0
   37.3260   25.6380   31.4600 N   0  0  0  0  0  0  0  0  0  0  0  0
   36.6550   23.5650   31.1000 H   0  0  0  0  0  0  0  0  0  0  0  0
   38.3030   25.3360   31.3860 H   0  0  0  0  0  0  0  0  0  0  0  0
   37.1400   26.6700   33.9870 O   0  0  0  0  0  0  0  0  0  0  0  0
   37.3830   27.2760   35.2120 C   0  0  0  0  0  3  0  0  0  0  0  0
   38.6180   27.3440   35.6580 C   0  0  0  0  0  3  0  0  0  0  0  0
   39.8180   26.8200   34.9600 C   0  0  0  0  0  2  0  0  0  0  0  0
   39.5810   26.4070   33.9480 H   0  0  0  0  0  0  0  0  0  0  0  0
  1  6  1  0  0  0  0
  1 14  1  0  0  0  0
  2  1  2  0  0  0  0
  3  4  2  0  0  0  0
  3  2  1  0  0  0  0
  4  5  1  0  0  0  0
  5  8  1  0  0  0  0
  5  6  2  0  0  0  0
  7  3  1  0  0  0  0
  9 11  1  0  0  0  0
 10  9  2  0  0  0  0
 11  2  1  0  0  0  0
 12  9  1  0  0  0  0
 13 11  1  0  0  0  0
 14 15  1  0  0  0  0
 15 16  2  0  0  0  0
 17 16  1  0  0  0  0
 18 17  1  0  0  0  0
M  END
>  <minimizedAffinity>
-3.52849936

$$$$

 OpenBabel03272507383D

 18 18  0  0  0  0  0  0  0  0999 V2000
   37.5700   25.3930   33.8550 C   0  0  0  0  0  0  0  0  0  0  0  0
   38.3180   24.8390   34.8750 C   0  0  0  0  0  0  0  0  0  0  0  0
   38.6320   25.6110   35.9760 C   0  0  0  0  0  0  0  0  0  0  0  0
   38.1790   26.9020   36.0010 N   0  0  0  0  0  0  0  0  0  0  0  0
   37.4450   27.4270   34.9850 C   0  0  0  0  0  0  0  0  0  0  0  0
   37.1490   26.6650   33.9230 N   0  0  0  0  0  0  0  0  0  0  0  0
   39.2160   25.2370   36.8140 H   0  0  0  0  0  0  0  0  0  0  0  0
   37.0910   28.4490   35.0120 H   0  0  0  0  0  0  0  0  0  0  0  0
   38.2030   22.5740   35.7500 C   0  0  0  0  0  0  0  0  0  0  0  0
   37.2210   22.5630   36.5740 O   0  0  0  0  0  0  0  0  0  0  0  0
   38.8070   23.5280   34.9090 N   0  0  0  0  0  0  0  0  0  0  0  0
   38.5380   21.5420   35.8350 H   0  0  0  0  0  0  0  0  0  0  0  0
   39.5970   23.1670   34.3630 H   0  0  0  0  0  0  0  0  0  0  0  0
   37.3360   24.4990   32.8170 O   0  0  0  0  0  0  0  0  0  0  0  0
   36.3810   24.8940   31.8910 C   0  0  0  0  0  3  0  0  0  0  0  0
   35.5770   23.9910   31.3750 C   0  0  0  0  0  3  0  0  0  0  0  0
   35.5900   22.5420   31.6930 C   0  0  0  0  0  2  0  0  0  0  0  0
   36.3250   22.2830   32.4950 H   0  0  0  0  0  0  0  0  0  0  0  0
  1  6  2  0  0  0  0
  1  2  1  0  0  0  0
  2 11  1  0  0  0  0
  2  3  2  0  0  0  0
  3  4  1  0  0  0  0
  3  7  1  0  0  0  0
  5  8  1  0  0  0  0
  5  4  2  0  0  0  0
  6  5  1  0  0  0  0
  9 12  1  0  0  0  0
  9 10  2  0  0  0  0
 11  9  1  0  0  0  0
 13 11  1  0  0  0  0
 14  1  1  0  0  0  0
 15 14  1  0  0  0  0
 16 17  1  0  0  0  0
 16 15  2  0  0  0  0
 17 18  1  0  0  0  0
M  END
>  <minimizedAffinity>
-3.40648413

$$$$

 OpenBabel03272507383D

 18 18  0  0  0  0  0  0  0  0999 V2000
   38.5280   24.6940   35.5890 C   0  0  0  0  0  0  0  0  0  0  0  0
   38.4540   23.7950   34.5440 C   0  0  0  0  0  0  0  0  0  0  0  0
   37.9360   22.5350   34.7740 C   0  0  0  0  0  0  0  0  0  0  0  0
   37.5170   22.2390   36.0430 N   0  0  0  0  0  0  0  0  0  0  0  0
   37.6000   23.1390   37.0570 C   0  0  0  0  0  0  0  0  0  0  0  0
   38.1050   24.3580   36.8170 N   0  0  0  0  0  0  0  0  0  0  0  0
   37.8490   21.7790   33.9970 H   0  0  0  0  0  0  0  0  0  0  0  0
   37.2670   22.8990   38.0570 H   0  0  0  0  0  0  0  0  0  0  0  0
   37.9140   24.3940   32.2500 C   0  0  0  0  0  0  0  0  0  0  0  0
   36.6480   24.5900   32.2250 O   0  0  0  0  0  0  0  0  0  0  0  0
   38.8640   24.0380   33.2270 N   0  0  0  0  0  0  0  0  0  0  0  0
   38.1600   24.5860   31.2070 H   0  0  0  0  0  0  0  0  0  0  0  0
   39.8260   23.9810   32.8780 H   0  0  0  0  0  0  0  0  0  0  0  0
   39.0700   25.9160   35.2060 O   0  0  0  0  0  0  0  0  0  0  0  0
   38.6320   27.0160   35.9280 C   0  0  0  0  0  3  0  0  0  0  0  0
   37.6960   27.7860   35.4170 C   0  0  0  0  0  3  0  0  0  0  0  0
   37.0410   27.5890   34.1010 C   0  0  0  0  0  2  0  0  0  0  0  0
   37.3740   26.6520   33.5900 H   0  0  0  0  0  0  0  0  0  0  0  0
  1  6  1  0  0  0  0
  2  3  1  0  0  0  0
  2  1  2  0  0  0  0
  3  4  2  0  0  0  0
  4  5  1  0  0  0  0
  5  8  1  0  0  0  0
  6  5  2  0  0  0  0
  7  3  1  0  0  0  0
  9 11  1  0  0  0  0
 10  9  2  0  0  0  0
 11  2  1  0  0  0  0
 12  9  1  0  0  0  0
 13 11  1  0  0  0  0
 14  1  1  0  0  0  0
 14 15  1  0  0  0  0
 16 15  2  0  0  0  0
 17 16  1  0  0  0  0
 18 17  1  0  0  0  0
M  END
>  <minimizedAffinity>
-3.39851904

$$$$

 OpenBabel03272507383D

 18 18  0  0  0  0  0  0  0  0999 V2000
   36.9770   25.7720   32.3620 C   0  0  0  0  0  0  0  0  0  0  0  0
   37.6030   24.5420   32.3970 C   0  0  0  0  0  0  0  0  0  0  0  0
   37.0260   23.4740   31.7380 C   0  0  0  0  0  0  0  0  0  0  0  0
   35.8490   23.6920   31.0760 N   0  0  0  0  0  0  0  0  0  0  0  0
   35.2490   24.9110   31.0550 C   0  0  0  0  0  0  0  0  0  0  0  0
   35.8220   25.9380   31.6990 N   0  0  0  0  0  0  0  0  0  0  0  0
   37.4660   22.4790   31.7250 H   0  0  0  0  0  0  0  0  0  0  0  0
   34.3190   25.0760   30.5290 H   0  0  0  0  0  0  0  0  0  0  0  0
   38.7840   23.6630   34.3310 C   0  0  0  0  0  0  0  0  0  0  0  0
   37.8790   23.2590   35.1440 O   0  0  0  0  0  0  0  0  0  0  0  0
   38.8050   24.2570   33.0540 N   0  0  0  0  0  0  0  0  0  0  0  0
   39.6780   23.4240   34.9040 H   0  0  0  0  0  0  0  0  0  0  0  0
   39.7460   24.4410   32.6920 H   0  0  0  0  0  0  0  0  0  0  0  0
   37.6720   26.7470   33.0690 O   0  0  0  0  0  0  0  0  0  0  0  0
   37.0340   27.2350   34.1990 C   0  0  0  0  0  3  0  0  0  0  0  0
   37.7280   27.4060   35.3030 C   0  0  0  0  0  3  0  0  0  0  0  0
   39.1740   27.1170   35.4650 C   0  0  0  0  0  2  0  0  0  0  0  0
   39.6590   26.7950   34.5100 H   0  0  0  0  0  0  0  0  0  0  0  0
  1  2  1  0  0  0  0
  1 14  1  0  0  0  0
  2 11  1  0  0  0  0
  3  2  2  0  0  0  0
  4  3  1  0  0  0  0
  5  4  2  0  0  0  0
  5  6  1  0  0  0  0
  6  1  2  0  0  0  0
  7  3  1  0  0  0  0
  8  5  1  0  0  0  0
  9 12  1  0  0  0  0
  9 10  2  0  0  0  0
 11  9  1  0  0  0  0
 13 11  1  0  0  0  0
 14 15  1  0  0  0  0
 15 16  2  0  0  0  0
 16 17  1  0  0  0  0
 18 17  1  0  0  0  0
M  END
>  <minimizedAffinity>
-3.38574648

$$$$
