
 OpenBabel03272502303D

 19 19  0  0  0  0  0  0  0  0999 V2000
   38.0800   30.5580   47.7280 C   0  0  0  0  0  3  0  0  0  0  0  0
   38.7450   31.6830   47.6090 C   0  0  0  0  0  3  0  0  0  0  0  0
   37.3410   30.1840   51.3450 C   0  0  0  0  0  0  0  0  0  0  0  0
   37.9540   30.5340   50.1420 C   0  0  0  0  0  0  0  0  0  0  0  0
   37.4020   30.1720   48.9330 C   0  0  0  0  0  0  0  0  0  0  0  0
   36.2400   29.4650   48.9470 N   0  0  0  0  0  0  0  0  0  0  0  0
   35.6670   29.1380   50.1090 C   0  0  0  0  0  0  0  0  0  0  0  0
   36.1990   29.4870   51.3070 N   0  0  0  0  0  0  0  0  0  0  0  0
   37.6990   30.4220   52.3410 H   0  0  0  0  0  0  0  0  0  0  0  0
   38.8590   31.0870   50.2220 H   0  0  0  0  0  0  0  0  0  0  0  0
   34.7270   28.5650   50.0880 H   0  0  0  0  0  0  0  0  0  0  0  0
   39.4160   31.9900   46.3030 C   0  0  0  0  0  0  0  0  0  0  0  0
   39.9230   31.0430   45.9600 H   0  0  0  0  0  0  0  0  0  0  0  0
   40.1230   32.8060   46.4140 H   0  0  0  0  0  0  0  0  0  0  0  0
   38.1160   32.3410   45.0870 S   0  0  0  0  0  0  0  0  0  0  0  0
   37.6300   30.9430   44.1340 C   0  0  0  0  0  3  0  0  0  0  0  0
   36.5670   30.1310   44.1880 C   0  0  0  0  0  3  0  0  0  0  0  0
   35.8280   28.9460   43.6320 C   0  0  0  0  0  2  0  0  0  0  0  0
   35.7800   28.1920   44.4530 H   0  0  0  0  0  0  0  0  0  0  0  0
  1  5  1  0  0  0  0
  2  1  2  0  0  0  0
  3  9  1  0  0  0  0
  4 10  1  0  0  0  0
  4  3  2  0  0  0  0
  5  6  2  0  0  0  0
  5  4  1  0  0  0  0
  6  7  1  0  0  0  0
  7  8  2  0  0  0  0
  8  3  1  0  0  0  0
 11  7  1  0  0  0  0
 12 14  1  0  0  0  0
 12  2  1  0  0  0  0
 13 12  1  0  0  0  0
 15 12  1  0  0  0  0
 16 17  2  0  0  0  0
 16 15  1  0  0  0  0
 18 17  1  0  0  0  0
 18 19  1  0  0  0  0
M  END
>  <minimizedAffinity>
-4.0370121

>  <minimizedRMSD>
0.503030002

$$$$
