
 OpenBabel03262522293D

 41 43  0  0  0  0  0  0  0  0999 V2000
   36.0390   25.1430   31.6630 C   0  0  0  0  0  0  0  0  0  0  0  0
   36.4190   23.9450   31.0660 C   0  0  0  0  0  0  0  0  0  0  0  0
   37.7360   23.8220   30.7070 C   0  0  0  0  0  0  0  0  0  0  0  0
   38.5840   24.8550   30.9480 N   0  0  0  0  0  0  0  0  0  0  0  0
   38.1820   25.9670   31.5150 C   0  0  0  0  0  0  0  0  0  0  0  0
   36.8720   26.1610   31.9020 N   0  0  0  0  0  0  0  0  0  0  0  0
   35.0120   25.2980   31.9690 H   0  0  0  0  0  0  0  0  0  0  0  0
   38.0660   22.8940   30.2350 H   0  0  0  0  0  0  0  0  0  0  0  0
   35.4850   22.9900   30.8780 O   0  0  0  0  0  0  0  0  0  0  0  0
   35.6740   21.7280   31.4090 C   0  0  0  0  0  0  0  0  0  0  0  0
   35.9340   20.5540   30.7400 C   0  0  0  0  0  0  0  0  0  0  0  0
   36.0920   19.4030   31.4370 C   0  0  0  0  0  0  0  0  0  0  0  0
   35.9890   19.4410   32.7850 C   0  0  0  0  0  0  0  0  0  0  0  0
   35.7270   20.6250   33.4620 C   0  0  0  0  0  0  0  0  0  0  0  0
   35.5750   21.7560   32.7430 N   0  0  0  0  0  0  0  0  0  0  0  0
   35.9940   20.6520   29.6610 H   0  0  0  0  0  0  0  0  0  0  0  0
   36.2980   18.4790   30.9000 H   0  0  0  0  0  0  0  0  0  0  0  0
   36.1030   18.5660   33.4010 H   0  0  0  0  0  0  0  0  0  0  0  0
   35.6170   20.6410   34.9810 C   0  0  0  0  0  0  0  0  0  0  0  0
   34.5360   20.6530   35.2380 H   0  0  0  0  0  0  0  0  0  0  0  0
   35.9910   21.6650   35.2640 H   0  0  0  0  0  0  0  0  0  0  0  0
   36.1870   19.8210   35.4200 H   0  0  0  0  0  0  0  0  0  0  0  0
   39.5190   27.1700   31.7140 S   0  0  0  0  0  0  0  0  0  0  0  0
   40.6080   26.4330   32.9840 C   0  0  0  0  0  0  0  0  0  0  0  0
   41.4170   27.1400   33.2790 H   0  0  0  0  0  0  0  0  0  0  0  0
   41.0450   25.4770   32.6270 H   0  0  0  0  0  0  0  0  0  0  0  0
   40.3810   23.9010   34.0350 F   0  0  0  0  0  0  0  0  0  0  0  0
   39.7390   24.9330   34.6400 C   0  0  0  0  0  0  0  0  0  0  0  0
   39.7720   26.2520   34.2130 C   0  0  0  0  0  0  0  0  0  0  0  0
   39.1000   27.2320   34.8760 C   0  0  0  0  0  0  0  0  0  0  0  0
   38.3460   26.9440   36.0210 C   0  0  0  0  0  0  0  0  0  0  0  0
   38.2980   25.6290   36.4680 C   0  0  0  0  0  0  0  0  0  0  0  0
   38.9940   24.6430   35.7730 C   0  0  0  0  0  0  0  0  0  0  0  0
   39.1790   28.2310   34.4760 H   0  0  0  0  0  0  0  0  0  0  0  0
   37.8210   27.7500   36.5270 H   0  0  0  0  0  0  0  0  0  0  0  0
   37.7070   25.4440   37.3540 H   0  0  0  0  0  0  0  0  0  0  0  0
   38.8790   23.3750   36.3020 O   0  0  0  0  0  0  0  0  0  0  0  0
   39.3040   23.0270   37.5600 C   0  0  0  0  0  3  0  0  0  0  0  0
   40.4630   22.4150   37.6950 C   0  0  0  0  0  3  0  0  0  0  0  0
   41.3640   22.0660   36.5920 C   0  0  0  0  0  2  0  0  0  0  0  0
   42.3080   22.6300   36.6060 H   0  0  0  0  0  0  0  0  0  0  0  0
  1  6  1  0  0  0  0
  1  7  1  0  0  0  0
  2  1  2  0  0  0  0
  3  4  2  0  0  0  0
  3  2  1  0  0  0  0
  4  5  1  0  0  0  0
  5 23  1  0  0  0  0
  5  6  2  0  0  0  0
  8  3  1  0  0  0  0
  9  2  1  0  0  0  0
  9 10  1  0  0  0  0
 10 15  1  0  0  0  0
 11 10  2  0  0  0  0
 11 12  1  0  0  0  0
 12 13  2  0  0  0  0
 13 18  1  0  0  0  0
 13 14  1  0  0  0  0
 14 19  1  0  0  0  0
 15 14  2  0  0  0  0
 16 11  1  0  0  0  0
 17 12  1  0  0  0  0
 19 20  1  0  0  0  0
 19 21  1  0  0  0  0
 19 22  1  0  0  0  0
 23 24  1  0  0  0  0
 24 25  1  0  0  0  0
 24 29  1  0  0  0  0
 26 24  1  0  0  0  0
 27 28  1  0  0  0  0
 28 33  1  0  0  0  0
 29 28  2  0  0  0  0
 29 30  1  0  0  0  0
 30 31  2  0  0  0  0
 31 32  1  0  0  0  0
 31 35  1  0  0  0  0
 32 36  1  0  0  0  0
 33 37  1  0  0  0  0
 33 32  2  0  0  0  0
 34 30  1  0  0  0  0
 37 38  1  0  0  0  0
 38 39  2  0  0  0  0
 40 41  1  0  0  0  0
 40 39  1  0  0  0  0
M  END
>  <minimizedAffinity>
-5.91687727

$$$$

 OpenBabel03262522293D

 41 43  0  0  0  0  0  0  0  0999 V2000
   36.9980   24.7660   32.6400 C   0  0  0  0  0  0  0  0  0  0  0  0
   38.1070   24.6340   33.4700 C   0  0  0  0  0  0  0  0  0  0  0  0
   38.9520   25.7110   33.5510 C   0  0  0  0  0  0  0  0  0  0  0  0
   38.6680   26.8270   32.8320 N   0  0  0  0  0  0  0  0  0  0  0  0
   37.6100   26.9070   32.0620 C   0  0  0  0  0  0  0  0  0  0  0  0
   36.7170   25.8640   31.9310 N   0  0  0  0  0  0  0  0  0  0  0  0
   36.2950   23.9500   32.5350 H   0  0  0  0  0  0  0  0  0  0  0  0
   39.8320   25.6380   34.1950 H   0  0  0  0  0  0  0  0  0  0  0  0
   38.2840   23.4740   34.1350 O   0  0  0  0  0  0  0  0  0  0  0  0
   38.4720   23.4870   35.5040 C   0  0  0  0  0  0  0  0  0  0  0  0
   37.7230   24.1330   36.4590 C   0  0  0  0  0  0  0  0  0  0  0  0
   38.0630   24.0300   37.7670 C   0  0  0  0  0  0  0  0  0  0  0  0
   39.1430   23.2860   38.0990 C   0  0  0  0  0  0  0  0  0  0  0  0
   39.9010   22.6330   37.1360 C   0  0  0  0  0  0  0  0  0  0  0  0
   39.5390   22.7530   35.8430 N   0  0  0  0  0  0  0  0  0  0  0  0
   36.8810   24.6980   36.0690 H   0  0  0  0  0  0  0  0  0  0  0  0
   37.4640   24.5440   38.5160 H   0  0  0  0  0  0  0  0  0  0  0  0
   39.4710   23.1600   39.1170 H   0  0  0  0  0  0  0  0  0  0  0  0
   41.1130   21.8010   37.5360 C   0  0  0  0  0  0  0  0  0  0  0  0
   42.0180   22.4140   37.3440 H   0  0  0  0  0  0  0  0  0  0  0  0
   41.1460   20.9880   36.7580 H   0  0  0  0  0  0  0  0  0  0  0  0
   41.0110   21.4350   38.5590 H   0  0  0  0  0  0  0  0  0  0  0  0
   37.4800   28.5060   31.2230 S   0  0  0  0  0  0  0  0  0  0  0  0
   35.7620   29.0450   31.5380 C   0  0  0  0  0  0  0  0  0  0  0  0
   35.2230   28.3140   32.1840 H   0  0  0  0  0  0  0  0  0  0  0  0
   35.2110   29.1950   30.5850 H   0  0  0  0  0  0  0  0  0  0  0  0
   35.2080   28.8950   34.2280 F   0  0  0  0  0  0  0  0  0  0  0  0
   35.5460   30.0920   33.6840 C   0  0  0  0  0  0  0  0  0  0  0  0
   35.8480   30.3020   32.3470 C   0  0  0  0  0  0  0  0  0  0  0  0
   36.1790   31.5350   31.8770 C   0  0  0  0  0  0  0  0  0  0  0  0
   36.2280   32.6450   32.7310 C   0  0  0  0  0  0  0  0  0  0  0  0
   35.9300   32.4580   34.0760 C   0  0  0  0  0  0  0  0  0  0  0  0
   35.5930   31.1860   34.5330 C   0  0  0  0  0  0  0  0  0  0  0  0
   36.3990   31.6110   30.8240 H   0  0  0  0  0  0  0  0  0  0  0  0
   36.4960   33.6170   32.3240 H   0  0  0  0  0  0  0  0  0  0  0  0
   35.9780   33.3360   34.7050 H   0  0  0  0  0  0  0  0  0  0  0  0
   35.3160   31.1140   35.8820 O   0  0  0  0  0  0  0  0  0  0  0  0
   35.0630   32.2060   36.6740 C   0  0  0  0  0  3  0  0  0  0  0  0
   33.9110   32.2800   37.3080 C   0  0  0  0  0  3  0  0  0  0  0  0
   32.8480   31.2710   37.2430 C   0  0  0  0  0  2  0  0  0  0  0  0
   32.6870   30.7460   38.1970 H   0  0  0  0  0  0  0  0  0  0  0  0
  1  2  1  0  0  0  0
  2  3  2  0  0  0  0
  2  9  1  0  0  0  0
  3  8  1  0  0  0  0
  4  3  1  0  0  0  0
  5  4  2  0  0  0  0
  6  5  1  0  0  0  0
  6  1  2  0  0  0  0
  7  1  1  0  0  0  0
  9 10  1  0  0  0  0
 10 15  2  0  0  0  0
 10 11  1  0  0  0  0
 11 12  2  0  0  0  0
 12 13  1  0  0  0  0
 12 17  1  0  0  0  0
 13 18  1  0  0  0  0
 14 19  1  0  0  0  0
 14 13  2  0  0  0  0
 15 14  1  0  0  0  0
 16 11  1  0  0  0  0
 19 22  1  0  0  0  0
 20 19  1  0  0  0  0
 21 19  1  0  0  0  0
 23 24  1  0  0  0  0
 23  5  1  0  0  0  0
 24 25  1  0  0  0  0
 24 29  1  0  0  0  0
 26 24  1  0  0  0  0
 28 27  1  0  0  0  0
 28 33  1  0  0  0  0
 29 28  2  0  0  0  0
 30 29  1  0  0  0  0
 30 31  2  0  0  0  0
 31 32  1  0  0  0  0
 32 33  2  0  0  0  0
 32 36  1  0  0  0  0
 33 37  1  0  0  0  0
 34 30  1  0  0  0  0
 35 31  1  0  0  0  0
 37 38  1  0  0  0  0
 38 39  2  0  0  0  0
 40 39  1  0  0  0  0
 40 41  1  0  0  0  0
M  END
>  <minimizedAffinity>
-5.83516312

$$$$

 OpenBabel03262522293D

 41 43  0  0  0  0  0  0  0  0999 V2000
   36.8550   29.7190   31.0310 C   0  0  0  0  0  0  0  0  0  0  0  0
   35.7380   29.8840   31.8430 C   0  0  0  0  0  0  0  0  0  0  0  0
   35.2260   28.7560   32.4310 C   0  0  0  0  0  0  0  0  0  0  0  0
   35.8250   27.5610   32.1940 N   0  0  0  0  0  0  0  0  0  0  0  0
   36.8780   27.4520   31.4210 C   0  0  0  0  0  0  0  0  0  0  0  0
   37.4460   28.5430   30.7970 N   0  0  0  0  0  0  0  0  0  0  0  0
   37.3030   30.5730   30.5400 H   0  0  0  0  0  0  0  0  0  0  0  0
   34.3480   28.8520   33.0740 H   0  0  0  0  0  0  0  0  0  0  0  0
   35.2300   31.1240   32.0020 O   0  0  0  0  0  0  0  0  0  0  0  0
   35.7710   31.9720   32.9490 C   0  0  0  0  0  0  0  0  0  0  0  0
   36.6620   33.0020   32.7600 C   0  0  0  0  0  0  0  0  0  0  0  0
   37.0840   33.7330   33.8200 C   0  0  0  0  0  0  0  0  0  0  0  0
   36.6120   33.4240   35.0490 C   0  0  0  0  0  0  0  0  0  0  0  0
   35.7120   32.3850   35.2430 C   0  0  0  0  0  0  0  0  0  0  0  0
   35.3090   31.6750   34.1710 N   0  0  0  0  0  0  0  0  0  0  0  0
   36.9670   33.1530   31.7280 H   0  0  0  0  0  0  0  0  0  0  0  0
   37.7890   34.5470   33.6600 H   0  0  0  0  0  0  0  0  0  0  0  0
   36.9040   33.9620   35.9350 H   0  0  0  0  0  0  0  0  0  0  0  0
   35.1950   32.0580   36.6390 C   0  0  0  0  0  0  0  0  0  0  0  0
   35.7650   31.1810   37.0100 H   0  0  0  0  0  0  0  0  0  0  0  0
   34.1560   31.6670   36.4520 H   0  0  0  0  0  0  0  0  0  0  0  0
   35.2310   32.9390   37.2810 H   0  0  0  0  0  0  0  0  0  0  0  0
   37.4670   25.7450   31.2840 S   0  0  0  0  0  0  0  0  0  0  0  0
   39.0830   25.7520   32.1380 C   0  0  0  0  0  0  0  0  0  0  0  0
   39.7140   26.6050   31.7970 H   0  0  0  0  0  0  0  0  0  0  0  0
   39.6190   24.7920   31.9840 H   0  0  0  0  0  0  0  0  0  0  0  0
   38.2620   23.6500   33.7090 F   0  0  0  0  0  0  0  0  0  0  0  0
   38.3980   24.8820   34.2640 C   0  0  0  0  0  0  0  0  0  0  0  0
   38.8030   26.0200   33.5850 C   0  0  0  0  0  0  0  0  0  0  0  0
   38.9160   27.2220   34.2120 C   0  0  0  0  0  0  0  0  0  0  0  0
   38.6260   27.3550   35.5760 C   0  0  0  0  0  0  0  0  0  0  0  0
   38.2180   26.2270   36.2790 C   0  0  0  0  0  0  0  0  0  0  0  0
   38.1100   25.0080   35.6140 C   0  0  0  0  0  0  0  0  0  0  0  0
   39.2370   28.0570   33.6090 H   0  0  0  0  0  0  0  0  0  0  0  0
   38.7260   28.3300   36.0480 H   0  0  0  0  0  0  0  0  0  0  0  0
   38.0030   26.3670   37.3290 H   0  0  0  0  0  0  0  0  0  0  0  0
   37.6980   23.9550   36.4040 O   0  0  0  0  0  0  0  0  0  0  0  0
   37.7920   23.9410   37.7740 C   0  0  0  0  0  3  0  0  0  0  0  0
   38.8410   23.3750   38.3340 C   0  0  0  0  0  3  0  0  0  0  0  0
   39.9470   22.7430   37.6060 C   0  0  0  0  0  2  0  0  0  0  0  0
   40.9000   23.2830   37.7090 H   0  0  0  0  0  0  0  0  0  0  0  0
  1  2  1  0  0  0  0
  2  9  1  0  0  0  0
  2  3  2  0  0  0  0
  3  8  1  0  0  0  0
  4  3  1  0  0  0  0
  5  4  2  0  0  0  0
  6  1  2  0  0  0  0
  6  5  1  0  0  0  0
  7  1  1  0  0  0  0
  9 10  1  0  0  0  0
 10 15  1  0  0  0  0
 11 10  2  0  0  0  0
 11 12  1  0  0  0  0
 12 13  2  0  0  0  0
 13 14  1  0  0  0  0
 13 18  1  0  0  0  0
 14 19  1  0  0  0  0
 15 14  2  0  0  0  0
 16 11  1  0  0  0  0
 17 12  1  0  0  0  0
 19 20  1  0  0  0  0
 19 22  1  0  0  0  0
 21 19  1  0  0  0  0
 23  5  1  0  0  0  0
 23 24  1  0  0  0  0
 24 29  1  0  0  0  0
 25 24  1  0  0  0  0
 26 24  1  0  0  0  0
 27 28  1  0  0  0  0
 28 33  1  0  0  0  0
 29 30  1  0  0  0  0
 29 28  2  0  0  0  0
 30 31  2  0  0  0  0
 31 35  1  0  0  0  0
 31 32  1  0  0  0  0
 32 36  1  0  0  0  0
 33 32  2  0  0  0  0
 33 37  1  0  0  0  0
 34 30  1  0  0  0  0
 37 38  1  0  0  0  0
 38 39  2  0  0  0  0
 40 41  1  0  0  0  0
 40 39  1  0  0  0  0
M  END
>  <minimizedAffinity>
-5.72546101

$$$$

 OpenBabel03262522293D

 41 43  0  0  0  0  0  0  0  0999 V2000
   37.8690   23.8830   30.5140 C   0  0  0  0  0  0  0  0  0  0  0  0
   36.6540   24.0270   31.1750 C   0  0  0  0  0  0  0  0  0  0  0  0
   36.5430   25.0810   32.0460 C   0  0  0  0  0  0  0  0  0  0  0  0
   37.6050   25.9110   32.2130 N   0  0  0  0  0  0  0  0  0  0  0  0
   38.7320   25.7370   31.5670 C   0  0  0  0  0  0  0  0  0  0  0  0
   38.9150   24.7000   30.6770 N   0  0  0  0  0  0  0  0  0  0  0  0
   38.0150   23.0710   29.8140 H   0  0  0  0  0  0  0  0  0  0  0  0
   35.6020   25.2210   32.5820 H   0  0  0  0  0  0  0  0  0  0  0  0
   35.6710   23.1370   30.9270 O   0  0  0  0  0  0  0  0  0  0  0  0
   35.7710   21.8480   31.4140 C   0  0  0  0  0  0  0  0  0  0  0  0
   35.9460   20.6820   30.7060 C   0  0  0  0  0  0  0  0  0  0  0  0
   36.0230   19.4990   31.3630 C   0  0  0  0  0  0  0  0  0  0  0  0
   35.9230   19.4990   32.7120 C   0  0  0  0  0  0  0  0  0  0  0  0
   35.7460   20.6750   33.4290 C   0  0  0  0  0  0  0  0  0  0  0  0
   35.6730   21.8370   32.7490 N   0  0  0  0  0  0  0  0  0  0  0  0
   36.0130   20.8120   29.6300 H   0  0  0  0  0  0  0  0  0  0  0  0
   36.1630   18.5820   30.7950 H   0  0  0  0  0  0  0  0  0  0  0  0
   35.9750   18.5970   33.2980 H   0  0  0  0  0  0  0  0  0  0  0  0
   35.6370   20.6470   34.9490 C   0  0  0  0  0  0  0  0  0  0  0  0
   34.5600   20.7270   35.2080 H   0  0  0  0  0  0  0  0  0  0  0  0
   36.0820   21.6320   35.2640 H   0  0  0  0  0  0  0  0  0  0  0  0
   36.1470   19.7750   35.3580 H   0  0  0  0  0  0  0  0  0  0  0  0
   39.9720   26.9890   31.9820 S   0  0  0  0  0  0  0  0  0  0  0  0
   39.8730   27.1410   33.8010 C   0  0  0  0  0  0  0  0  0  0  0  0
   38.8210   27.0450   34.1560 H   0  0  0  0  0  0  0  0  0  0  0  0
   40.3070   28.1030   34.1440 H   0  0  0  0  0  0  0  0  0  0  0  0
   38.4210   25.3220   35.2670 F   0  0  0  0  0  0  0  0  0  0  0  0
   39.7510   25.1200   35.0860 C   0  0  0  0  0  0  0  0  0  0  0  0
   40.5930   25.9580   34.3710 C   0  0  0  0  0  0  0  0  0  0  0  0
   41.9200   25.6870   34.2340 C   0  0  0  0  0  0  0  0  0  0  0  0
   42.4870   24.5450   34.8120 C   0  0  0  0  0  0  0  0  0  0  0  0
   41.6620   23.6900   35.5340 C   0  0  0  0  0  0  0  0  0  0  0  0
   40.3080   23.9890   35.6600 C   0  0  0  0  0  0  0  0  0  0  0  0
   42.5030   26.3920   33.6620 H   0  0  0  0  0  0  0  0  0  0  0  0
   43.5510   24.3560   34.6850 H   0  0  0  0  0  0  0  0  0  0  0  0
   42.1350   22.8180   35.9660 H   0  0  0  0  0  0  0  0  0  0  0  0
   39.5820   23.0740   36.3950 O   0  0  0  0  0  0  0  0  0  0  0  0
   39.8100   22.8010   37.7210 C   0  0  0  0  0  3  0  0  0  0  0  0
   39.0160   23.3330   38.6270 C   0  0  0  0  0  3  0  0  0  0  0  0
   37.8790   24.2150   38.3370 C   0  0  0  0  0  2  0  0  0  0  0  0
   36.9060   23.7630   38.5790 H   0  0  0  0  0  0  0  0  0  0  0  0
  1  6  2  0  0  0  0
  1  2  1  0  0  0  0
  2  3  2  0  0  0  0
  3  4  1  0  0  0  0
  3  8  1  0  0  0  0
  5 23  1  0  0  0  0
  5  4  2  0  0  0  0
  6  5  1  0  0  0  0
  7  1  1  0  0  0  0
  9  2  1  0  0  0  0
  9 10  1  0  0  0  0
 10 15  1  0  0  0  0
 11 12  1  0  0  0  0
 11 10  2  0  0  0  0
 12 13  2  0  0  0  0
 13 18  1  0  0  0  0
 13 14  1  0  0  0  0
 14 19  1  0  0  0  0
 15 14  2  0  0  0  0
 16 11  1  0  0  0  0
 17 12  1  0  0  0  0
 19 20  1  0  0  0  0
 19 21  1  0  0  0  0
 19 22  1  0  0  0  0
 23 24  1  0  0  0  0
 24 26  1  0  0  0  0
 24 25  1  0  0  0  0
 24 29  1  0  0  0  0
 28 27  1  0  0  0  0
 28 33  1  0  0  0  0
 29 28  2  0  0  0  0
 30 29  1  0  0  0  0
 30 31  2  0  0  0  0
 31 32  1  0  0  0  0
 32 33  2  0  0  0  0
 32 36  1  0  0  0  0
 33 37  1  0  0  0  0
 34 30  1  0  0  0  0
 35 31  1  0  0  0  0
 37 38  1  0  0  0  0
 38 39  2  0  0  0  0
 40 41  1  0  0  0  0
 40 39  1  0  0  0  0
M  END
>  <minimizedAffinity>
-5.6512475

$$$$

 OpenBabel03262522293D

 41 43  0  0  0  0  0  0  0  0999 V2000
   35.5730   28.6140   32.3340 C   0  0  0  0  0  0  0  0  0  0  0  0
   35.4510   29.2180   33.5810 C   0  0  0  0  0  0  0  0  0  0  0  0
   36.1040   28.6190   34.6270 C   0  0  0  0  0  0  0  0  0  0  0  0
   36.8200   27.4890   34.3950 N   0  0  0  0  0  0  0  0  0  0  0  0
   36.9080   26.9540   33.2020 C   0  0  0  0  0  0  0  0  0  0  0  0
   36.2770   27.5020   32.1040 N   0  0  0  0  0  0  0  0  0  0  0  0
   35.0800   29.0420   31.4710 H   0  0  0  0  0  0  0  0  0  0  0  0
   36.0270   29.0690   35.6200 H   0  0  0  0  0  0  0  0  0  0  0  0
   34.7090   30.3400   33.6880 O   0  0  0  0  0  0  0  0  0  0  0  0
   33.9620   30.5650   34.8280 C   0  0  0  0  0  0  0  0  0  0  0  0
   32.8890   29.8430   35.2980 C   0  0  0  0  0  0  0  0  0  0  0  0
   32.2750   30.2170   36.4470 C   0  0  0  0  0  0  0  0  0  0  0  0
   32.7400   31.3030   37.1060 C   0  0  0  0  0  0  0  0  0  0  0  0
   33.8230   32.0340   36.6330 C   0  0  0  0  0  0  0  0  0  0  0  0
   34.4140   31.6380   35.4880 N   0  0  0  0  0  0  0  0  0  0  0  0
   32.6110   28.9930   34.6820 H   0  0  0  0  0  0  0  0  0  0  0  0
   31.4280   29.6400   36.8120 H   0  0  0  0  0  0  0  0  0  0  0  0
   32.3020   31.6580   38.0230 H   0  0  0  0  0  0  0  0  0  0  0  0
   34.3270   33.2530   37.3950 C   0  0  0  0  0  0  0  0  0  0  0  0
   33.9300   34.1550   36.8840 H   0  0  0  0  0  0  0  0  0  0  0  0
   35.4320   33.2630   37.1790 H   0  0  0  0  0  0  0  0  0  0  0  0
   34.0800   33.1770   38.4550 H   0  0  0  0  0  0  0  0  0  0  0  0
   37.9250   25.4560   33.1830 S   0  0  0  0  0  0  0  0  0  0  0  0
   39.2750   25.8100   34.3640 C   0  0  0  0  0  0  0  0  0  0  0  0
   39.2200   26.8590   34.7340 H   0  0  0  0  0  0  0  0  0  0  0  0
   40.2670   25.6160   33.9040 H   0  0  0  0  0  0  0  0  0  0  0  0
   40.6550   23.4390   34.5670 F   0  0  0  0  0  0  0  0  0  0  0  0
   39.7840   23.7880   35.5480 C   0  0  0  0  0  0  0  0  0  0  0  0
   39.0300   24.9510   35.5660 C   0  0  0  0  0  0  0  0  0  0  0  0
   38.1770   25.2320   36.5890 C   0  0  0  0  0  0  0  0  0  0  0  0
   38.0280   24.3500   37.6670 C   0  0  0  0  0  0  0  0  0  0  0  0
   38.7740   23.1770   37.6710 C   0  0  0  0  0  0  0  0  0  0  0  0
   39.6400   22.9130   36.6130 C   0  0  0  0  0  0  0  0  0  0  0  0
   37.6280   26.1580   36.5240 H   0  0  0  0  0  0  0  0  0  0  0  0
   37.3380   24.6030   38.4690 H   0  0  0  0  0  0  0  0  0  0  0  0
   38.6330   22.5220   38.5190 H   0  0  0  0  0  0  0  0  0  0  0  0
   40.3310   21.7240   36.7180 O   0  0  0  0  0  0  0  0  0  0  0  0
   41.5080   21.5780   37.4090 C   0  0  0  0  0  3  0  0  0  0  0  0
   42.5810   21.1710   36.7610 C   0  0  0  0  0  3  0  0  0  0  0  0
   42.6310   20.8540   35.3290 C   0  0  0  0  0  2  0  0  0  0  0  0
   43.2470   21.5560   34.7490 H   0  0  0  0  0  0  0  0  0  0  0  0
  1  2  1  0  0  0  0
  2  9  1  0  0  0  0
  2  3  2  0  0  0  0
  3  8  1  0  0  0  0
  4  3  1  0  0  0  0
  5  4  2  0  0  0  0
  6  1  2  0  0  0  0
  6  5  1  0  0  0  0
  7  1  1  0  0  0  0
  9 10  1  0  0  0  0
 10 11  2  0  0  0  0
 10 15  1  0  0  0  0
 11 12  1  0  0  0  0
 12 17  1  0  0  0  0
 12 13  2  0  0  0  0
 13 18  1  0  0  0  0
 14 13  1  0  0  0  0
 14 19  1  0  0  0  0
 15 14  2  0  0  0  0
 16 11  1  0  0  0  0
 19 22  1  0  0  0  0
 20 19  1  0  0  0  0
 21 19  1  0  0  0  0
 23  5  1  0  0  0  0
 23 24  1  0  0  0  0
 24 25  1  0  0  0  0
 24 29  1  0  0  0  0
 26 24  1  0  0  0  0
 27 28  1  0  0  0  0
 28 29  2  0  0  0  0
 28 33  1  0  0  0  0
 29 30  1  0  0  0  0
 30 31  2  0  0  0  0
 31 32  1  0  0  0  0
 31 35  1  0  0  0  0
 32 36  1  0  0  0  0
 33 37  1  0  0  0  0
 33 32  2  0  0  0  0
 34 30  1  0  0  0  0
 37 38  1  0  0  0  0
 39 38  2  0  0  0  0
 40 39  1  0  0  0  0
 41 40  1  0  0  0  0
M  END
>  <minimizedAffinity>
-5.625947

$$$$

 OpenBabel03262522293D

 41 43  0  0  0  0  0  0  0  0999 V2000
   37.5470   25.3180   31.1440 C   0  0  0  0  0  0  0  0  0  0  0  0
   36.4370   26.1560   31.1320 C   0  0  0  0  0  0  0  0  0  0  0  0
   35.2060   25.5530   31.1150 C   0  0  0  0  0  0  0  0  0  0  0  0
   35.1360   24.1970   31.1100 N   0  0  0  0  0  0  0  0  0  0  0  0
   36.2100   23.4460   31.1220 C   0  0  0  0  0  0  0  0  0  0  0  0
   37.4810   23.9820   31.1390 N   0  0  0  0  0  0  0  0  0  0  0  0
   38.5450   25.7350   31.1580 H   0  0  0  0  0  0  0  0  0  0  0  0
   34.3140   26.1840   31.1050 H   0  0  0  0  0  0  0  0  0  0  0  0
   36.6330   27.4910   31.1390 O   0  0  0  0  0  0  0  0  0  0  0  0
   36.3140   28.2270   32.2630 C   0  0  0  0  0  0  0  0  0  0  0  0
   36.6290   27.9580   33.5750 C   0  0  0  0  0  0  0  0  0  0  0  0
   36.2260   28.8050   34.5530 C   0  0  0  0  0  0  0  0  0  0  0  0
   35.5160   29.9040   34.2070 C   0  0  0  0  0  0  0  0  0  0  0  0
   35.1970   30.1770   32.8840 C   0  0  0  0  0  0  0  0  0  0  0  0
   35.6110   29.3180   31.9320 N   0  0  0  0  0  0  0  0  0  0  0  0
   37.2020   27.0490   33.7250 H   0  0  0  0  0  0  0  0  0  0  0  0
   36.4810   28.5850   35.5880 H   0  0  0  0  0  0  0  0  0  0  0  0
   35.1640   30.6190   34.9310 H   0  0  0  0  0  0  0  0  0  0  0  0
   34.3960   31.4220   32.5210 C   0  0  0  0  0  0  0  0  0  0  0  0
   33.3450   31.1070   32.3550 H   0  0  0  0  0  0  0  0  0  0  0  0
   34.7800   31.6960   31.4990 H   0  0  0  0  0  0  0  0  0  0  0  0
   34.5310   32.2020   33.2720 H   0  0  0  0  0  0  0  0  0  0  0  0
   35.8220   21.6780   31.1110 S   0  0  0  0  0  0  0  0  0  0  0  0
   37.1790   20.9090   32.0650 C   0  0  0  0  0  0  0  0  0  0  0  0
   38.1350   21.4650   31.9230 H   0  0  0  0  0  0  0  0  0  0  0  0
   37.3090   19.8430   31.7850 H   0  0  0  0  0  0  0  0  0  0  0  0
   38.8330   22.4640   33.6190 F   0  0  0  0  0  0  0  0  0  0  0  0
   37.7440   21.8810   34.1830 C   0  0  0  0  0  0  0  0  0  0  0  0
   36.8340   21.0780   33.5130 C   0  0  0  0  0  0  0  0  0  0  0  0
   35.7640   20.5290   34.1490 C   0  0  0  0  0  0  0  0  0  0  0  0
   35.5400   20.7560   35.5130 C   0  0  0  0  0  0  0  0  0  0  0  0
   36.4390   21.5590   36.2060 C   0  0  0  0  0  0  0  0  0  0  0  0
   37.5270   22.1090   35.5330 C   0  0  0  0  0  0  0  0  0  0  0  0
   35.1060   19.9160   33.5530 H   0  0  0  0  0  0  0  0  0  0  0  0
   34.6760   20.3030   35.9930 H   0  0  0  0  0  0  0  0  0  0  0  0
   36.2340   21.7120   37.2570 H   0  0  0  0  0  0  0  0  0  0  0  0
   38.3540   22.8890   36.3140 O   0  0  0  0  0  0  0  0  0  0  0  0
   37.9390   24.0100   36.9890 C   0  0  0  0  0  3  0  0  0  0  0  0
   38.1900   25.1940   36.4700 C   0  0  0  0  0  3  0  0  0  0  0  0
   38.8890   25.4280   35.2020 C   0  0  0  0  0  2  0  0  0  0  0  0
   38.2430   25.8570   34.4220 H   0  0  0  0  0  0  0  0  0  0  0  0
  1  7  1  0  0  0  0
  2  9  1  0  0  0  0
  2  1  2  0  0  0  0
  3  2  1  0  0  0  0
  4  3  2  0  0  0  0
  4  5  1  0  0  0  0
  5  6  2  0  0  0  0
  6  1  1  0  0  0  0
  8  3  1  0  0  0  0
  9 10  1  0  0  0  0
 10 11  1  0  0  0  0
 11 16  1  0  0  0  0
 11 12  2  0  0  0  0
 12 17  1  0  0  0  0
 13 12  1  0  0  0  0
 13 18  1  0  0  0  0
 14 13  2  0  0  0  0
 15 10  2  0  0  0  0
 15 14  1  0  0  0  0
 19 14  1  0  0  0  0
 19 22  1  0  0  0  0
 20 19  1  0  0  0  0
 21 19  1  0  0  0  0
 23  5  1  0  0  0  0
 23 24  1  0  0  0  0
 24 29  1  0  0  0  0
 25 24  1  0  0  0  0
 26 24  1  0  0  0  0
 27 28  1  0  0  0  0
 28 33  1  0  0  0  0
 29 30  1  0  0  0  0
 29 28  2  0  0  0  0
 30 31  2  0  0  0  0
 31 35  1  0  0  0  0
 31 32  1  0  0  0  0
 32 36  1  0  0  0  0
 33 32  2  0  0  0  0
 33 37  1  0  0  0  0
 34 30  1  0  0  0  0
 37 38  1  0  0  0  0
 39 38  2  0  0  0  0
 40 39  1  0  0  0  0
 41 40  1  0  0  0  0
M  END
>  <minimizedAffinity>
-5.59590101

$$$$

 OpenBabel03262522293D

 41 43  0  0  0  0  0  0  0  0999 V2000
   35.4040   28.9130   32.6980 C   0  0  0  0  0  0  0  0  0  0  0  0
   35.3560   30.2630   32.3670 C   0  0  0  0  0  0  0  0  0  0  0  0
   36.2440   30.7000   31.4180 C   0  0  0  0  0  0  0  0  0  0  0  0
   37.1070   29.8100   30.8640 N   0  0  0  0  0  0  0  0  0  0  0  0
   37.1170   28.5450   31.2070 C   0  0  0  0  0  0  0  0  0  0  0  0
   36.2530   28.0350   32.1540 N   0  0  0  0  0  0  0  0  0  0  0  0
   34.7280   28.5100   33.4410 H   0  0  0  0  0  0  0  0  0  0  0  0
   36.2320   31.7550   31.1350 H   0  0  0  0  0  0  0  0  0  0  0  0
   34.4540   31.0510   32.9870 O   0  0  0  0  0  0  0  0  0  0  0  0
   34.6730   31.4530   34.2910 C   0  0  0  0  0  0  0  0  0  0  0  0
   35.7660   32.1090   34.8070 C   0  0  0  0  0  0  0  0  0  0  0  0
   35.8040   32.4250   36.1240 C   0  0  0  0  0  0  0  0  0  0  0  0
   34.7520   32.0810   36.9030 C   0  0  0  0  0  0  0  0  0  0  0  0
   33.6480   31.4190   36.3840 C   0  0  0  0  0  0  0  0  0  0  0  0
   33.6380   31.1180   35.0710 N   0  0  0  0  0  0  0  0  0  0  0  0
   36.5440   32.3310   34.0820 H   0  0  0  0  0  0  0  0  0  0  0  0
   36.6720   32.9450   36.5240 H   0  0  0  0  0  0  0  0  0  0  0  0
   34.7150   32.3000   37.9560 H   0  0  0  0  0  0  0  0  0  0  0  0
   32.4760   31.0440   37.2840 C   0  0  0  0  0  0  0  0  0  0  0  0
   32.5790   29.9670   37.5340 H   0  0  0  0  0  0  0  0  0  0  0  0
   31.5870   31.0960   36.5960 H   0  0  0  0  0  0  0  0  0  0  0  0
   32.4170   31.7140   38.1420 H   0  0  0  0  0  0  0  0  0  0  0  0
   38.3660   27.5900   30.3110 S   0  0  0  0  0  0  0  0  0  0  0  0
   38.3250   25.9390   31.0950 C   0  0  0  0  0  0  0  0  0  0  0  0
   39.0140   25.2320   30.5790 H   0  0  0  0  0  0  0  0  0  0  0  0
   37.2930   25.5300   31.1080 H   0  0  0  0  0  0  0  0  0  0  0  0
   37.2320   24.4440   33.1280 F   0  0  0  0  0  0  0  0  0  0  0  0
   38.2510   25.2980   33.4040 C   0  0  0  0  0  0  0  0  0  0  0  0
   38.8870   26.1050   32.4740 C   0  0  0  0  0  0  0  0  0  0  0  0
   39.9030   26.9370   32.8280 C   0  0  0  0  0  0  0  0  0  0  0  0
   40.3480   27.0090   34.1550 C   0  0  0  0  0  0  0  0  0  0  0  0
   39.7250   26.2090   35.1060 C   0  0  0  0  0  0  0  0  0  0  0  0
   38.6870   25.3660   34.7180 C   0  0  0  0  0  0  0  0  0  0  0  0
   40.3420   27.5300   32.0420 H   0  0  0  0  0  0  0  0  0  0  0  0
   41.1620   27.6840   34.4070 H   0  0  0  0  0  0  0  0  0  0  0  0
   40.0940   26.2910   36.1190 H   0  0  0  0  0  0  0  0  0  0  0  0
   38.1410   24.6170   35.7390 O   0  0  0  0  0  0  0  0  0  0  0  0
   38.7750   23.5570   36.3380 C   0  0  0  0  0  3  0  0  0  0  0  0
   38.7200   23.4390   37.6490 C   0  0  0  0  0  3  0  0  0  0  0  0
   38.0210   24.3630   38.5490 C   0  0  0  0  0  2  0  0  0  0  0  0
   37.1490   23.9110   39.0450 H   0  0  0  0  0  0  0  0  0  0  0  0
  1  7  1  0  0  0  0
  2  1  1  0  0  0  0
  2  9  1  0  0  0  0
  3  2  2  0  0  0  0
  4  5  2  0  0  0  0
  4  3  1  0  0  0  0
  5  6  1  0  0  0  0
  6  1  2  0  0  0  0
  8  3  1  0  0  0  0
  9 10  1  0  0  0  0
 10 11  2  0  0  0  0
 10 15  1  0  0  0  0
 11 12  1  0  0  0  0
 12 17  1  0  0  0  0
 12 13  2  0  0  0  0
 13 18  1  0  0  0  0
 14 13  1  0  0  0  0
 14 19  1  0  0  0  0
 15 14  2  0  0  0  0
 16 11  1  0  0  0  0
 19 20  1  0  0  0  0
 19 22  1  0  0  0  0
 21 19  1  0  0  0  0
 23 24  1  0  0  0  0
 23  5  1  0  0  0  0
 24 26  1  0  0  0  0
 24 29  1  0  0  0  0
 25 24  1  0  0  0  0
 27 28  1  0  0  0  0
 28 33  1  0  0  0  0
 29 30  1  0  0  0  0
 29 28  2  0  0  0  0
 30 31  2  0  0  0  0
 31 35  1  0  0  0  0
 31 32  1  0  0  0  0
 32 36  1  0  0  0  0
 33 32  2  0  0  0  0
 33 37  1  0  0  0  0
 34 30  1  0  0  0  0
 37 38  1  0  0  0  0
 38 39  2  0  0  0  0
 39 40  1  0  0  0  0
 40 41  1  0  0  0  0
M  END
>  <minimizedAffinity>
-5.56500578

$$$$

 OpenBabel03262522293D

 41 43  0  0  0  0  0  0  0  0999 V2000
   35.6320   24.8310   31.5450 C   0  0  0  0  0  0  0  0  0  0  0  0
   36.2350   23.6430   31.1470 C   0  0  0  0  0  0  0  0  0  0  0  0
   37.6060   23.6150   31.1410 C   0  0  0  0  0  0  0  0  0  0  0  0
   38.2880   24.7280   31.5160 N   0  0  0  0  0  0  0  0  0  0  0  0
   37.6770   25.8270   31.8850 C   0  0  0  0  0  0  0  0  0  0  0  0
   36.3020   25.9280   31.9140 N   0  0  0  0  0  0  0  0  0  0  0  0
   34.5530   24.9130   31.5690 H   0  0  0  0  0  0  0  0  0  0  0  0
   38.1100   22.6970   30.8340 H   0  0  0  0  0  0  0  0  0  0  0  0
   35.4510   22.6030   30.7960 O   0  0  0  0  0  0  0  0  0  0  0  0
   35.5950   21.3860   31.4330 C   0  0  0  0  0  0  0  0  0  0  0  0
   35.3160   21.0730   32.7430 C   0  0  0  0  0  0  0  0  0  0  0  0
   35.5230   19.8120   33.1940 C   0  0  0  0  0  0  0  0  0  0  0  0
   36.0050   18.8870   32.3340 C   0  0  0  0  0  0  0  0  0  0  0  0
   36.2880   19.2000   31.0110 C   0  0  0  0  0  0  0  0  0  0  0  0
   36.0720   20.4620   30.5900 N   0  0  0  0  0  0  0  0  0  0  0  0
   34.9330   21.9000   33.3340 H   0  0  0  0  0  0  0  0  0  0  0  0
   35.2980   19.5730   34.2320 H   0  0  0  0  0  0  0  0  0  0  0  0
   36.1930   17.8670   32.6230 H   0  0  0  0  0  0  0  0  0  0  0  0
   36.8300   18.1380   30.0620 C   0  0  0  0  0  0  0  0  0  0  0  0
   37.9260   18.2930   29.9770 H   0  0  0  0  0  0  0  0  0  0  0  0
   36.4180   18.4440   29.0590 H   0  0  0  0  0  0  0  0  0  0  0  0
   36.5270   17.1410   30.3830 H   0  0  0  0  0  0  0  0  0  0  0  0
   38.8310   27.1490   32.3310 S   0  0  0  0  0  0  0  0  0  0  0  0
   38.8810   27.1100   34.1580 C   0  0  0  0  0  0  0  0  0  0  0  0
   37.9790   26.6050   34.5740 H   0  0  0  0  0  0  0  0  0  0  0  0
   38.9760   28.1340   34.5750 H   0  0  0  0  0  0  0  0  0  0  0  0
   38.3430   24.5450   34.9920 F   0  0  0  0  0  0  0  0  0  0  0  0
   39.6310   24.9700   34.9380 C   0  0  0  0  0  0  0  0  0  0  0  0
   40.0360   26.2340   34.5370 C   0  0  0  0  0  0  0  0  0  0  0  0
   41.3500   26.5860   34.5080 C   0  0  0  0  0  0  0  0  0  0  0  0
   42.3490   25.6800   34.8860 C   0  0  0  0  0  0  0  0  0  0  0  0
   41.9670   24.4060   35.2920 C   0  0  0  0  0  0  0  0  0  0  0  0
   40.6160   24.0700   35.3120 C   0  0  0  0  0  0  0  0  0  0  0  0
   41.5770   27.5890   34.1840 H   0  0  0  0  0  0  0  0  0  0  0  0
   43.3900   25.9920   34.8530 H   0  0  0  0  0  0  0  0  0  0  0  0
   42.7650   23.7340   35.5760 H   0  0  0  0  0  0  0  0  0  0  0  0
   40.3490   22.7830   35.7300 O   0  0  0  0  0  0  0  0  0  0  0  0
   40.2510   22.4080   37.0480 C   0  0  0  0  0  3  0  0  0  0  0  0
   41.1510   21.5850   37.5440 C   0  0  0  0  0  3  0  0  0  0  0  0
   42.2790   21.0180   36.7960 C   0  0  0  0  0  2  0  0  0  0  0  0
   43.2570   21.3840   37.1410 H   0  0  0  0  0  0  0  0  0  0  0  0
  1  7  1  0  0  0  0
  1  6  1  0  0  0  0
  2  1  2  0  0  0  0
  3  2  1  0  0  0  0
  3  4  2  0  0  0  0
  4  5  1  0  0  0  0
  5  6  2  0  0  0  0
  5 23  1  0  0  0  0
  8  3  1  0  0  0  0
  9  2  1  0  0  0  0
  9 10  1  0  0  0  0
 10 11  1  0  0  0  0
 11 12  2  0  0  0  0
 11 16  1  0  0  0  0
 12 17  1  0  0  0  0
 13 18  1  0  0  0  0
 13 12  1  0  0  0  0
 14 13  2  0  0  0  0
 15 14  1  0  0  0  0
 15 10  2  0  0  0  0
 19 22  1  0  0  0  0
 19 14  1  0  0  0  0
 20 19  1  0  0  0  0
 21 19  1  0  0  0  0
 23 24  1  0  0  0  0
 24 29  1  0  0  0  0
 24 25  1  0  0  0  0
 24 26  1  0  0  0  0
 28 27  1  0  0  0  0
 28 33  1  0  0  0  0
 29 28  2  0  0  0  0
 30 29  1  0  0  0  0
 30 31  2  0  0  0  0
 31 32  1  0  0  0  0
 32 33  2  0  0  0  0
 32 36  1  0  0  0  0
 33 37  1  0  0  0  0
 34 30  1  0  0  0  0
 35 31  1  0  0  0  0
 37 38  1  0  0  0  0
 38 39  2  0  0  0  0
 40 41  1  0  0  0  0
 40 39  1  0  0  0  0
M  END
>  <minimizedAffinity>
-5.55002451

$$$$

 OpenBabel03262522293D

 41 43  0  0  0  0  0  0  0  0999 V2000
   35.6900   28.9210   32.2000 C   0  0  0  0  0  0  0  0  0  0  0  0
   35.1740   29.1860   33.4640 C   0  0  0  0  0  0  0  0  0  0  0  0
   35.8680   28.6830   34.5340 C   0  0  0  0  0  0  0  0  0  0  0  0
   36.9990   27.9670   34.3080 N   0  0  0  0  0  0  0  0  0  0  0  0
   37.4490   27.7420   33.0980 C   0  0  0  0  0  0  0  0  0  0  0  0
   36.8040   28.2160   31.9750 N   0  0  0  0  0  0  0  0  0  0  0  0
   35.1860   29.2920   31.3160 H   0  0  0  0  0  0  0  0  0  0  0  0
   35.4880   28.8730   35.5410 H   0  0  0  0  0  0  0  0  0  0  0  0
   34.0400   29.9100   33.5620 O   0  0  0  0  0  0  0  0  0  0  0  0
   33.4880   30.1570   34.8050 C   0  0  0  0  0  0  0  0  0  0  0  0
   32.5070   29.4460   35.4560 C   0  0  0  0  0  0  0  0  0  0  0  0
   32.0880   29.8430   36.6820 C   0  0  0  0  0  0  0  0  0  0  0  0
   32.6530   30.9400   37.2370 C   0  0  0  0  0  0  0  0  0  0  0  0
   33.6430   31.6590   36.5810 C   0  0  0  0  0  0  0  0  0  0  0  0
   34.0410   31.2410   35.3630 N   0  0  0  0  0  0  0  0  0  0  0  0
   32.1330   28.5860   34.9090 H   0  0  0  0  0  0  0  0  0  0  0  0
   31.3120   29.2740   37.1910 H   0  0  0  0  0  0  0  0  0  0  0  0
   32.3690   31.3120   38.2060 H   0  0  0  0  0  0  0  0  0  0  0  0
   34.2640   32.8910   37.2280 C   0  0  0  0  0  0  0  0  0  0  0  0
   33.7880   33.7840   36.7710 H   0  0  0  0  0  0  0  0  0  0  0  0
   35.3190   32.8940   36.8350 H   0  0  0  0  0  0  0  0  0  0  0  0
   34.1930   32.8350   38.3150 H   0  0  0  0  0  0  0  0  0  0  0  0
   38.9720   26.7620   33.0920 S   0  0  0  0  0  0  0  0  0  0  0  0
   39.4580   26.6680   34.8520 C   0  0  0  0  0  0  0  0  0  0  0  0
   38.6270   26.9990   35.5170 H   0  0  0  0  0  0  0  0  0  0  0  0
   40.3690   27.2710   35.0460 H   0  0  0  0  0  0  0  0  0  0  0  0
   37.2600   25.1770   35.5680 F   0  0  0  0  0  0  0  0  0  0  0  0
   38.4790   24.5810   35.5100 C   0  0  0  0  0  0  0  0  0  0  0  0
   39.6600   25.2170   35.1640 C   0  0  0  0  0  0  0  0  0  0  0  0
   40.8450   24.5490   35.1280 C   0  0  0  0  0  0  0  0  0  0  0  0
   40.9160   23.1860   35.4410 C   0  0  0  0  0  0  0  0  0  0  0  0
   39.7430   22.5260   35.7900 C   0  0  0  0  0  0  0  0  0  0  0  0
   38.5430   23.2310   35.8200 C   0  0  0  0  0  0  0  0  0  0  0  0
   41.7170   25.1210   34.8500 H   0  0  0  0  0  0  0  0  0  0  0  0
   41.8780   22.6800   35.4030 H   0  0  0  0  0  0  0  0  0  0  0  0
   39.8350   21.4740   36.0250 H   0  0  0  0  0  0  0  0  0  0  0  0
   37.4420   22.4810   36.1780 O   0  0  0  0  0  0  0  0  0  0  0  0
   36.9050   21.4850   35.4000 C   0  0  0  0  0  3  0  0  0  0  0  0
   35.8450   20.8370   35.8370 C   0  0  0  0  0  3  0  0  0  0  0  0
   35.1680   21.0930   37.1130 C   0  0  0  0  0  2  0  0  0  0  0  0
   34.1570   21.5080   36.9940 H   0  0  0  0  0  0  0  0  0  0  0  0
  1  2  1  0  0  0  0
  2  9  1  0  0  0  0
  2  3  2  0  0  0  0
  3  8  1  0  0  0  0
  4  3  1  0  0  0  0
  5  4  2  0  0  0  0
  6  1  2  0  0  0  0
  6  5  1  0  0  0  0
  7  1  1  0  0  0  0
  9 10  1  0  0  0  0
 10 15  2  0  0  0  0
 10 11  1  0  0  0  0
 11 12  2  0  0  0  0
 12 17  1  0  0  0  0
 12 13  1  0  0  0  0
 13 18  1  0  0  0  0
 14 19  1  0  0  0  0
 14 13  2  0  0  0  0
 15 14  1  0  0  0  0
 16 11  1  0  0  0  0
 19 22  1  0  0  0  0
 20 19  1  0  0  0  0
 21 19  1  0  0  0  0
 23  5  1  0  0  0  0
 23 24  1  0  0  0  0
 24 26  1  0  0  0  0
 24 29  1  0  0  0  0
 24 25  1  0  0  0  0
 28 27  1  0  0  0  0
 28 33  1  0  0  0  0
 29 28  2  0  0  0  0
 30 29  1  0  0  0  0
 30 31  2  0  0  0  0
 31 32  1  0  0  0  0
 32 33  2  0  0  0  0
 32 36  1  0  0  0  0
 33 37  1  0  0  0  0
 34 30  1  0  0  0  0
 35 31  1  0  0  0  0
 38 39  2  0  0  0  0
 38 37  1  0  0  0  0
 39 40  1  0  0  0  0
 41 40  1  0  0  0  0
M  END
>  <minimizedAffinity>
-5.49421787

$$$$
