
 OpenBabel03272507373D

 18 18  0  0  0  0  0  0  0  0999 V2000
   37.1960   30.2880   47.9840 C   0  0  0  0  0  0  0  0  0  0  0  0
   37.7860   30.5840   46.7710 C   0  0  0  0  0  0  0  0  0  0  0  0
   37.0050   30.6160   45.6320 C   0  0  0  0  0  0  0  0  0  0  0  0
   35.6700   30.3490   45.7660 N   0  0  0  0  0  0  0  0  0  0  0  0
   35.1100   30.0580   46.9690 C   0  0  0  0  0  0  0  0  0  0  0  0
   35.8810   30.0310   48.0660 N   0  0  0  0  0  0  0  0  0  0  0  0
   37.4050   30.8430   44.6460 H   0  0  0  0  0  0  0  0  0  0  0  0
   34.0540   29.8480   47.0670 H   0  0  0  0  0  0  0  0  0  0  0  0
   39.6590   32.1250   46.9380 C   0  0  0  0  0  0  0  0  0  0  0  0
   39.1920   33.1930   47.4690 O   0  0  0  0  0  0  0  0  0  0  0  0
   39.1420   30.8670   46.5710 N   0  0  0  0  0  0  0  0  0  0  0  0
   40.6990   32.4170   46.8000 H   0  0  0  0  0  0  0  0  0  0  0  0
   39.8350   30.2300   46.1650 H   0  0  0  0  0  0  0  0  0  0  0  0
   38.1050   30.2920   49.0360 O   0  0  0  0  0  0  0  0  0  0  0  0
   37.8050   31.1540   50.0810 C   0  0  0  0  0  3  0  0  0  0  0  0
   37.4130   30.6500   51.2320 C   0  0  0  0  0  3  0  0  0  0  0  0
   37.2560   29.2060   51.5330 C   0  0  0  0  0  2  0  0  0  0  0  0
   37.5800   28.5510   50.6860 H   0  0  0  0  0  0  0  0  0  0  0  0
  1  6  1  0  0  0  0
  1 14  1  0  0  0  0
  2  1  2  0  0  0  0
  3  4  2  0  0  0  0
  3  2  1  0  0  0  0
  4  5  1  0  0  0  0
  5  8  1  0  0  0  0
  5  6  2  0  0  0  0
  7  3  1  0  0  0  0
  9 10  2  0  0  0  0
 11  2  1  0  0  0  0
 11  9  1  0  0  0  0
 12  9  1  0  0  0  0
 13 11  1  0  0  0  0
 14 15  1  0  0  0  0
 15 16  2  0  0  0  0
 16 17  1  0  0  0  0
 18 17  1  0  0  0  0
M  END
>  <minimizedAffinity>
-3.68099308

>  <minimizedRMSD>
3.20795035

$$$$
