
 OpenBabel03272507373D

 18 18  0  0  0  0  0  0  0  0999 V2000
   36.8760   30.8210   48.2110 C   0  0  0  0  0  0  0  0  0  0  0  0
   36.8150   29.8980   49.2360 C   0  0  0  0  0  0  0  0  0  0  0  0
   37.6000   30.0830   50.3570 C   0  0  0  0  0  0  0  0  0  0  0  0
   38.4080   31.1870   50.3960 N   0  0  0  0  0  0  0  0  0  0  0  0
   38.4530   32.0830   49.3760 C   0  0  0  0  0  0  0  0  0  0  0  0
   37.6850   31.8890   48.2940 N   0  0  0  0  0  0  0  0  0  0  0  0
   37.6000   29.3950   51.2000 H   0  0  0  0  0  0  0  0  0  0  0  0
   39.0940   32.9530   49.4130 H   0  0  0  0  0  0  0  0  0  0  0  0
   34.7390   28.7980   49.8610 C   0  0  0  0  0  0  0  0  0  0  0  0
   34.0320   29.6880   50.4530 O   0  0  0  0  0  0  0  0  0  0  0  0
   36.0100   28.7530   49.2560 N   0  0  0  0  0  0  0  0  0  0  0  0
   34.0660   27.9450   49.9230 H   0  0  0  0  0  0  0  0  0  0  0  0
   36.2550   27.8400   48.8600 H   0  0  0  0  0  0  0  0  0  0  0  0
   36.0340   30.5030   47.1520 O   0  0  0  0  0  0  0  0  0  0  0  0
   36.6110   30.5580   45.8920 C   0  0  0  0  0  3  0  0  0  0  0  0
   35.8860   30.2330   44.8430 C   0  0  0  0  0  3  0  0  0  0  0  0
   34.4680   29.8020   44.8740 C   0  0  0  0  0  2  0  0  0  0  0  0
   34.0260   29.8450   45.9010 H   0  0  0  0  0  0  0  0  0  0  0  0
  1  6  2  0  0  0  0
  1  2  1  0  0  0  0
  2 11  1  0  0  0  0
  2  3  2  0  0  0  0
  3  4  1  0  0  0  0
  3  7  1  0  0  0  0
  5  8  1  0  0  0  0
  5  4  2  0  0  0  0
  6  5  1  0  0  0  0
  9 12  1  0  0  0  0
  9 10  2  0  0  0  0
 11  9  1  0  0  0  0
 13 11  1  0  0  0  0
 14  1  1  0  0  0  0
 15 14  1  0  0  0  0
 16 17  1  0  0  0  0
 16 15  2  0  0  0  0
 17 18  1  0  0  0  0
M  END
>  <minimizedAffinity>
-3.66064501

>  <minimizedRMSD>
5.78197336

$$$$
