
 OpenBabel03272503113D

 41 44  0  0  0  0  0  0  0  0999 V2000
   39.2860   31.9070   44.9630 C   0  0  0  0  0  0  0  0  0  0  0  0
   38.1960   32.5560   45.0790 O   0  0  0  0  0  0  0  0  0  0  0  0
   39.9720   31.6460   46.1740 N   0  0  0  0  0  0  0  0  0  0  0  0
   40.8640   31.1200   46.0940 H   0  0  0  0  0  0  0  0  0  0  0  0
   39.1860   32.2180   42.5810 C   0  0  0  0  0  0  0  0  0  0  0  0
   39.7240   31.5000   43.6340 C   0  0  0  0  0  0  0  0  0  0  0  0
   40.6060   30.4780   43.4770 C   0  0  0  0  0  0  0  0  0  0  0  0
   41.0040   30.1140   42.2000 C   0  0  0  0  0  0  0  0  0  0  0  0
   41.8340   29.1740   41.7360 N   0  0  0  0  0  0  0  0  0  0  0  0
   41.8450   29.2660   40.4020 C   0  0  0  0  0  0  0  0  0  0  0  0
   41.0230   30.2650   40.0210 N   0  0  0  0  0  0  0  0  0  0  0  0
   40.4790   30.8170   41.1360 C   0  0  0  0  0  0  0  0  0  0  0  0
   39.5860   31.8530   41.2900 C   0  0  0  0  0  0  0  0  0  0  0  0
   38.4770   33.0430   42.6770 H   0  0  0  0  0  0  0  0  0  0  0  0
   41.0130   29.9310   44.3340 H   0  0  0  0  0  0  0  0  0  0  0  0
   42.3970   28.4660   42.2800 H   0  0  0  0  0  0  0  0  0  0  0  0
   42.4020   28.6670   39.6780 H   0  0  0  0  0  0  0  0  0  0  0  0
   39.0590   32.5600   40.2100 O   0  0  0  0  0  0  0  0  0  0  0  0
   38.3770   33.7300   40.3300 C   0  0  0  0  0  2  0  0  0  0  0  0
   37.1760   34.1600   40.6410 C   0  0  0  0  0  2  0  0  0  0  0  0
   35.7390   34.3200   41.0340 C   0  0  0  0  0  2  0  0  0  0  0  0
   35.1770   34.8060   40.2120 H   0  0  0  0  0  0  0  0  0  0  0  0
   38.1290   30.1560   47.5090 F   0  0  0  0  0  0  0  0  0  0  0  0
   38.3740   31.3900   48.0010 C   0  0  0  0  0  0  0  0  0  0  0  0
   37.7170   31.8360   49.1080 C   0  0  0  0  0  0  0  0  0  0  0  0
   38.0170   33.1000   49.5510 C   0  0  0  0  0  0  0  0  0  0  0  0
   38.9330   33.9020   48.9280 C   0  0  0  0  0  0  0  0  0  0  0  0
   39.5960   33.4350   47.8010 C   0  0  0  0  0  0  0  0  0  0  0  0
   39.3070   32.1620   47.3380 C   0  0  0  0  0  0  0  0  0  0  0  0
   37.5020   33.4660   50.4280 H   0  0  0  0  0  0  0  0  0  0  0  0
   39.1760   34.9000   49.2710 H   0  0  0  0  0  0  0  0  0  0  0  0
   40.3310   33.9860   47.2400 H   0  0  0  0  0  0  0  0  0  0  0  0
   36.0720   29.3490   51.4530 C   0  0  0  0  0  0  0  0  0  0  0  0
   37.0270   30.2090   50.8680 C   0  0  0  0  0  0  0  0  0  0  0  0
   36.7460   30.9370   49.7370 C   0  0  0  0  0  0  0  0  0  0  0  0
   35.4820   30.7820   49.2070 N   0  0  0  0  0  0  0  0  0  0  0  0
   34.5710   29.9660   49.7590 C   0  0  0  0  0  0  0  0  0  0  0  0
   34.8610   29.2690   50.8550 N   0  0  0  0  0  0  0  0  0  0  0  0
   36.3450   28.8000   52.3420 H   0  0  0  0  0  0  0  0  0  0  0  0
   38.0250   30.3170   51.3040 H   0  0  0  0  0  0  0  0  0  0  0  0
   33.5990   29.8820   49.3060 H   0  0  0  0  0  0  0  0  0  0  0  0
  1  2  2  0  0  0  0
  1  3  1  0  0  0  0
  3 29  1  0  0  0  0
  4  3  1  0  0  0  0
  5 14  1  0  0  0  0
  5  6  1  0  0  0  0
  6  1  1  0  0  0  0
  7  6  2  0  0  0  0
  7 15  1  0  0  0  0
  8  7  1  0  0  0  0
  9  8  1  0  0  0  0
  9 16  1  0  0  0  0
 10  9  1  0  0  0  0
 11 10  2  0  0  0  0
 11 12  1  0  0  0  0
 12 13  1  0  0  0  0
 12  8  2  0  0  0  0
 13  5  2  0  0  0  0
 17 10  1  0  0  0  0
 18 19  1  0  0  0  0
 18 13  1  0  0  0  0
 19 20  1  0  0  0  0
 20 21  1  0  0  0  0
 22 21  1  0  0  0  0
 23 24  1  0  0  0  0
 24 25  1  0  0  0  0
 25 26  2  0  0  0  0
 25 35  1  0  0  0  0
 26 30  1  0  0  0  0
 27 31  1  0  0  0  0
 27 26  1  0  0  0  0
 28 27  2  0  0  0  0
 29 28  1  0  0  0  0
 29 24  2  0  0  0  0
 32 28  1  0  0  0  0
 33 39  1  0  0  0  0
 34 40  1  0  0  0  0
 34 33  1  0  0  0  0
 35 34  2  0  0  0  0
 36 35  1  0  0  0  0
 36 37  2  0  0  0  0
 37 38  1  0  0  0  0
 38 33  2  0  0  0  0
 41 37  1  0  0  0  0
M  END
>  <minimizedAffinity>
-7.28803778

>  <minimizedRMSD>
0.196723416

$$$$
