
 OpenBabel03262521303D

 26 27  0  0  1  0  0  0  0  0999 V2000
   38.4090   26.9220   35.0930 C   0  0  1  0  0  0  0  0  0  0  0  0
   38.6420   25.4690   34.7980 C   0  0  2  0  0  0  0  0  0  0  0  0
   37.6280   25.0130   33.9820 O   0  0  0  0  0  0  0  0  0  0  0  0
   37.0970   26.1360   33.3380 C   0  0  0  0  0  0  0  0  0  0  0  0
   37.0550   27.1360   34.4790 C   0  0  2  0  0  0  0  0  0  0  0  0
   39.1320   27.5590   34.5090 H   0  0  0  0  0  0  0  0  0  0  0  0
   39.6020   25.3790   34.2490 H   0  0  0  0  0  0  0  0  0  0  0  0
   36.1010   25.9030   32.9410 H   0  0  0  0  0  0  0  0  0  0  0  0
   37.8370   26.4780   32.6180 H   0  0  0  0  0  0  0  0  0  0  0  0
   36.3020   26.8740   35.2500 H   0  0  0  0  0  0  0  0  0  0  0  0
   39.9300   22.9640   37.3200 C   0  0  0  0  0  0  0  0  0  0  0  0
   39.8830   23.7590   36.1520 C   0  0  0  0  0  0  0  0  0  0  0  0
   38.7750   24.6120   35.9950 C   0  0  0  0  0  0  0  0  0  0  0  0
   37.8120   24.6350   36.9580 N   0  0  0  0  0  0  0  0  0  0  0  0
   37.8940   23.8580   38.0600 C   0  0  0  0  0  0  0  0  0  0  0  0
   38.9420   23.0390   38.2280 N   0  0  0  0  0  0  0  0  0  0  0  0
   40.8030   22.3470   37.3600 H   0  0  0  0  0  0  0  0  0  0  0  0
   40.6320   23.7610   35.3720 H   0  0  0  0  0  0  0  0  0  0  0  0
   37.1300   23.8760   38.8260 H   0  0  0  0  0  0  0  0  0  0  0  0
   38.5220   27.2810   36.3930 O   0  0  0  0  0  0  0  0  0  0  0  0
   38.9350   28.1670   36.5720 H   0  0  0  0  0  0  0  0  0  0  0  0
   36.8520   28.4220   34.0410 O   0  0  0  0  0  0  0  0  0  0  0  0
   35.6180   29.0220   34.2580 C   0  0  0  0  0  3  0  0  0  0  0  0
   35.5720   30.2390   34.7400 C   0  0  0  0  0  3  0  0  0  0  0  0
   34.2590   30.9050   34.9820 C   0  0  0  0  0  2  0  0  0  0  0  0
   33.9070   31.3050   33.9970 H   0  0  0  0  0  0  0  0  0  0  0  0
  1  6  1  6  0  0  0
  1 20  1  0  0  0  0
  2  7  1  6  0  0  0
  2  1  1  0  0  0  0
  2 13  1  0  0  0  0
  3  2  1  0  0  0  0
  4  3  1  0  0  0  0
  4  5  1  0  0  0  0
  5  1  1  0  0  0  0
  5 10  1  1  0  0  0
  8  4  1  0  0  0  0
  9  4  1  0  0  0  0
 11 17  1  0  0  0  0
 11 16  1  0  0  0  0
 12 11  2  0  0  0  0
 13 12  1  0  0  0  0
 13 14  2  0  0  0  0
 14 15  1  0  0  0  0
 15 16  2  0  0  0  0
 15 19  1  0  0  0  0
 18 12  1  0  0  0  0
 20 21  1  0  0  0  0
 22 23  1  0  0  0  0
 22  5  1  0  0  0  0
 23 24  2  0  0  0  0
 24 25  1  0  0  0  0
 26 25  1  0  0  0  0
M  END
>  <minimizedAffinity>
-4.40474176

$$$$

 OpenBabel03262521303D

 26 27  0  0  1  0  0  0  0  0999 V2000
   38.3670   26.8380   35.0920 C   0  0  1  0  0  0  0  0  0  0  0  0
   38.6580   25.3930   34.8120 C   0  0  2  0  0  0  0  0  0  0  0  0
   37.6740   24.8940   33.9840 O   0  0  0  0  0  0  0  0  0  0  0  0
   37.1120   25.9920   33.3230 C   0  0  0  0  0  0  0  0  0  0  0  0
   37.0160   26.9970   34.4560 C   0  0  2  0  0  0  0  0  0  0  0  0
   39.0750   27.4970   34.5140 H   0  0  0  0  0  0  0  0  0  0  0  0
   39.6290   25.3340   34.2780 H   0  0  0  0  0  0  0  0  0  0  0  0
   36.1310   25.7190   32.9130 H   0  0  0  0  0  0  0  0  0  0  0  0
   37.8500   26.3560   32.6120 H   0  0  0  0  0  0  0  0  0  0  0  0
   36.2600   26.7130   35.2180 H   0  0  0  0  0  0  0  0  0  0  0  0
   39.9940   22.9480   37.3680 C   0  0  0  0  0  0  0  0  0  0  0  0
   39.9350   23.7320   36.1930 C   0  0  0  0  0  0  0  0  0  0  0  0
   38.8040   24.5490   36.0180 C   0  0  0  0  0  0  0  0  0  0  0  0
   37.8300   24.5500   36.9700 N   0  0  0  0  0  0  0  0  0  0  0  0
   37.9240   23.7860   38.0790 C   0  0  0  0  0  0  0  0  0  0  0  0
   38.9940   23.0000   38.2650 N   0  0  0  0  0  0  0  0  0  0  0  0
   40.8850   22.3580   37.4230 H   0  0  0  0  0  0  0  0  0  0  0  0
   40.6920   23.7510   35.4210 H   0  0  0  0  0  0  0  0  0  0  0  0
   37.1510   23.7860   38.8360 H   0  0  0  0  0  0  0  0  0  0  0  0
   38.4460   27.2100   36.3910 O   0  0  0  0  0  0  0  0  0  0  0  0
   38.8230   28.1120   36.5690 H   0  0  0  0  0  0  0  0  0  0  0  0
   36.7720   28.2720   34.0050 O   0  0  0  0  0  0  0  0  0  0  0  0
   36.6620   28.4950   32.6380 C   0  0  0  0  0  3  0  0  0  0  0  0
   36.0870   29.5910   32.2120 C   0  0  0  0  0  3  0  0  0  0  0  0
   35.9560   29.8550   30.7480 C   0  0  0  0  0  2  0  0  0  0  0  0
   36.9400   30.2600   30.3990 H   0  0  0  0  0  0  0  0  0  0  0  0
  1  6  1  6  0  0  0
  1 20  1  0  0  0  0
  2  7  1  6  0  0  0
  2  1  1  0  0  0  0
  2 13  1  0  0  0  0
  3  2  1  0  0  0  0
  4  3  1  0  0  0  0
  4  5  1  0  0  0  0
  5  1  1  0  0  0  0
  5 10  1  1  0  0  0
  8  4  1  0  0  0  0
  9  4  1  0  0  0  0
 11 17  1  0  0  0  0
 11 16  1  0  0  0  0
 12 11  2  0  0  0  0
 13 12  1  0  0  0  0
 13 14  2  0  0  0  0
 14 15  1  0  0  0  0
 15 16  2  0  0  0  0
 15 19  1  0  0  0  0
 18 12  1  0  0  0  0
 20 21  1  0  0  0  0
 22  5  1  0  0  0  0
 23 22  1  0  0  0  0
 24 23  2  0  0  0  0
 25 24  1  0  0  0  0
 26 25  1  0  0  0  0
M  END
>  <minimizedAffinity>
-4.30399084

$$$$

 OpenBabel03262521303D

 26 27  0  0  1  0  0  0  0  0999 V2000
   35.9040   24.3350   31.0490 C   0  0  1  0  0  0  0  0  0  0  0  0
   37.1220   25.0250   31.5890 C   0  0  2  0  0  0  0  0  0  0  0  0
   37.8620   24.1170   32.3170 O   0  0  0  0  0  0  0  0  0  0  0  0
   37.5010   22.8460   31.8570 C   0  0  0  0  0  0  0  0  0  0  0  0
   35.9970   22.9970   31.7260 C   0  0  2  0  0  0  0  0  0  0  0  0
   36.0210   24.1460   29.9440 H   0  0  0  0  0  0  0  0  0  0  0  0
   37.7350   25.3660   30.7290 H   0  0  0  0  0  0  0  0  0  0  0  0
   37.7890   22.0860   32.5940 H   0  0  0  0  0  0  0  0  0  0  0  0
   37.9160   22.7330   30.8570 H   0  0  0  0  0  0  0  0  0  0  0  0
   35.4890   23.0920   32.7080 H   0  0  0  0  0  0  0  0  0  0  0  0
   36.8650   27.4760   34.4570 C   0  0  0  0  0  0  0  0  0  0  0  0
   37.1790   26.2880   33.7560 C   0  0  0  0  0  0  0  0  0  0  0  0
   36.8400   26.2340   32.3930 C   0  0  0  0  0  0  0  0  0  0  0  0
   36.2340   27.3080   31.8140 N   0  0  0  0  0  0  0  0  0  0  0  0
   35.9510   28.4250   32.5180 C   0  0  0  0  0  0  0  0  0  0  0  0
   36.2660   28.4970   33.8190 N   0  0  0  0  0  0  0  0  0  0  0  0
   37.1560   27.4340   35.4850 H   0  0  0  0  0  0  0  0  0  0  0  0
   37.6580   25.4210   34.1890 H   0  0  0  0  0  0  0  0  0  0  0  0
   35.4710   29.2790   32.0600 H   0  0  0  0  0  0  0  0  0  0  0  0
   34.7340   24.9940   31.2190 O   0  0  0  0  0  0  0  0  0  0  0  0
   34.0800   24.9300   30.4740 H   0  0  0  0  0  0  0  0  0  0  0  0
   35.4290   21.9780   31.0000 O   0  0  0  0  0  0  0  0  0  0  0  0
   35.7250   20.6630   31.3370 C   0  0  0  0  0  3  0  0  0  0  0  0
   34.8660   19.9740   32.0450 C   0  0  0  0  0  3  0  0  0  0  0  0
   35.1600   18.5600   32.4200 C   0  0  0  0  0  2  0  0  0  0  0  0
   34.9060   17.9250   31.5330 H   0  0  0  0  0  0  0  0  0  0  0  0
  1  6  1  6  0  0  0
  1 20  1  0  0  0  0
  1  2  1  0  0  0  0
  1  5  1  0  0  0  0
  2  7  1  6  0  0  0
  2  3  1  0  0  0  0
  2 13  1  0  0  0  0
  4  3  1  0  0  0  0
  4  8  1  0  0  0  0
  5  4  1  0  0  0  0
  5 10  1  1  0  0  0
  9  4  1  0  0  0  0
 11 17  1  0  0  0  0
 12 18  1  0  0  0  0
 12 11  2  0  0  0  0
 13 12  1  0  0  0  0
 14 13  2  0  0  0  0
 14 15  1  0  0  0  0
 15 16  2  0  0  0  0
 16 11  1  0  0  0  0
 19 15  1  0  0  0  0
 21 20  1  0  0  0  0
 22 23  1  0  0  0  0
 22  5  1  0  0  0  0
 23 24  2  0  0  0  0
 24 25  1  0  0  0  0
 26 25  1  0  0  0  0
M  END
>  <minimizedAffinity>
-4.21222878

$$$$

 OpenBabel03262521303D

 26 27  0  0  1  0  0  0  0  0999 V2000
   37.7920   24.8850   34.0020 C   0  0  1  0  0  0  0  0  0  0  0  0
   38.1710   25.4720   35.3300 C   0  0  2  0  0  0  0  0  0  0  0  0
   39.0490   26.5150   35.1210 O   0  0  0  0  0  0  0  0  0  0  0  0
   38.8470   26.9510   33.8070 C   0  0  0  0  0  0  0  0  0  0  0  0
   38.7120   25.6290   33.0760 C   0  0  2  0  0  0  0  0  0  0  0  0
   36.7430   25.1900   33.7260 H   0  0  0  0  0  0  0  0  0  0  0  0
   37.2530   25.8770   35.8030 H   0  0  0  0  0  0  0  0  0  0  0  0
   39.7120   27.5360   33.4710 H   0  0  0  0  0  0  0  0  0  0  0  0
   37.8820   27.4530   33.7770 H   0  0  0  0  0  0  0  0  0  0  0  0
   39.6650   25.0620   33.0380 H   0  0  0  0  0  0  0  0  0  0  0  0
   38.7260   23.3550   38.4140 C   0  0  0  0  0  0  0  0  0  0  0  0
   38.1220   24.2930   37.5450 C   0  0  0  0  0  0  0  0  0  0  0  0
   38.7320   24.5010   36.2940 C   0  0  0  0  0  0  0  0  0  0  0  0
   39.8580   23.8040   35.9790 N   0  0  0  0  0  0  0  0  0  0  0  0
   40.4050   22.9160   36.8380 C   0  0  0  0  0  0  0  0  0  0  0  0
   39.8390   22.7030   38.0340 N   0  0  0  0  0  0  0  0  0  0  0  0
   38.2000   23.2570   39.3400 H   0  0  0  0  0  0  0  0  0  0  0  0
   37.2290   24.8600   37.7680 H   0  0  0  0  0  0  0  0  0  0  0  0
   41.2990   22.3610   36.5880 H   0  0  0  0  0  0  0  0  0  0  0  0
   37.8500   23.5350   33.9200 O   0  0  0  0  0  0  0  0  0  0  0  0
   37.1410   23.0960   33.3800 H   0  0  0  0  0  0  0  0  0  0  0  0
   38.2040   25.7800   31.8080 O   0  0  0  0  0  0  0  0  0  0  0  0
   36.8380   25.9780   31.6480 C   0  0  0  0  0  3  0  0  0  0  0  0
   36.1340   25.0890   30.9940 C   0  0  0  0  0  3  0  0  0  0  0  0
   34.6650   25.2790   30.8080 C   0  0  0  0  0  2  0  0  0  0  0  0
   34.1680   24.9440   31.7540 H   0  0  0  0  0  0  0  0  0  0  0  0
  1  6  1  6  0  0  0
  1  2  1  0  0  0  0
  2  7  1  1  0  0  0
  2 13  1  0  0  0  0
  3  2  1  0  0  0  0
  4  3  1  0  0  0  0
  5 10  1  6  0  0  0
  5  4  1  0  0  0  0
  5  1  1  0  0  0  0
  8  4  1  0  0  0  0
  9  4  1  0  0  0  0
 11 17  1  0  0  0  0
 12 18  1  0  0  0  0
 12 11  2  0  0  0  0
 13 12  1  0  0  0  0
 14 13  2  0  0  0  0
 14 15  1  0  0  0  0
 15 16  2  0  0  0  0
 16 11  1  0  0  0  0
 19 15  1  0  0  0  0
 20  1  1  0  0  0  0
 21 20  1  0  0  0  0
 22  5  1  0  0  0  0
 23 22  1  0  0  0  0
 24 23  2  0  0  0  0
 25 24  1  0  0  0  0
 25 26  1  0  0  0  0
M  END
>  <minimizedAffinity>
-4.10645151

$$$$

 OpenBabel03262521303D

 26 27  0  0  1  0  0  0  0  0999 V2000
   38.3250   25.3210   34.3680 C   0  0  1  0  0  0  0  0  0  0  0  0
   38.6320   26.7350   33.9690 C   0  0  2  0  0  0  0  0  0  0  0  0
   38.3610   27.5670   35.0350 O   0  0  0  0  0  0  0  0  0  0  0  0
   38.4130   26.7720   36.1860 C   0  0  0  0  0  0  0  0  0  0  0  0
   37.6910   25.5240   35.7140 C   0  0  2  0  0  0  0  0  0  0  0  0
   39.2800   24.7500   34.5440 H   0  0  0  0  0  0  0  0  0  0  0  0
   39.7160   26.8010   33.7400 H   0  0  0  0  0  0  0  0  0  0  0  0
   37.8950   27.2760   37.0120 H   0  0  0  0  0  0  0  0  0  0  0  0
   39.4570   26.5140   36.3550 H   0  0  0  0  0  0  0  0  0  0  0  0
   36.6080   25.6950   35.5430 H   0  0  0  0  0  0  0  0  0  0  0  0
   37.9020   27.9690   30.4700 C   0  0  0  0  0  0  0  0  0  0  0  0
   38.6460   27.5240   31.5870 C   0  0  0  0  0  0  0  0  0  0  0  0
   37.9300   27.1980   32.7530 C   0  0  0  0  0  0  0  0  0  0  0  0
   36.5740   27.3220   32.7570 N   0  0  0  0  0  0  0  0  0  0  0  0
   35.8990   27.7520   31.6680 C   0  0  0  0  0  0  0  0  0  0  0  0
   36.5630   28.0670   30.5480 N   0  0  0  0  0  0  0  0  0  0  0  0
   38.5220   28.1950   29.6280 H   0  0  0  0  0  0  0  0  0  0  0  0
   39.7220   27.4160   31.6120 H   0  0  0  0  0  0  0  0  0  0  0  0
   34.8220   27.8500   31.6700 H   0  0  0  0  0  0  0  0  0  0  0  0
   37.5920   24.6090   33.4800 O   0  0  0  0  0  0  0  0  0  0  0  0
   37.8310   23.6500   33.3810 H   0  0  0  0  0  0  0  0  0  0  0  0
   37.8700   24.4610   36.5670 O   0  0  0  0  0  0  0  0  0  0  0  0
   39.0630   23.7520   36.5190 C   0  0  0  0  0  3  0  0  0  0  0  0
   39.4180   23.0240   37.5480 C   0  0  0  0  0  3  0  0  0  0  0  0
   40.6950   22.2520   37.5230 C   0  0  0  0  0  2  0  0  0  0  0  0
   40.4970   21.3090   36.9510 H   0  0  0  0  0  0  0  0  0  0  0  0
  1  6  1  1  0  0  0
  1  5  1  0  0  0  0
  2  7  1  6  0  0  0
  2  1  1  0  0  0  0
  2  3  1  0  0  0  0
  3  4  1  0  0  0  0
  4  9  1  0  0  0  0
  4  8  1  0  0  0  0
  5 10  1  6  0  0  0
  5  4  1  0  0  0  0
  5 22  1  0  0  0  0
 11 16  2  0  0  0  0
 11 12  1  0  0  0  0
 12 18  1  0  0  0  0
 12 13  2  0  0  0  0
 13 14  1  0  0  0  0
 13  2  1  0  0  0  0
 15 19  1  0  0  0  0
 15 14  2  0  0  0  0
 16 15  1  0  0  0  0
 17 11  1  0  0  0  0
 20  1  1  0  0  0  0
 21 20  1  0  0  0  0
 23 22  1  0  0  0  0
 23 24  2  0  0  0  0
 25 24  1  0  0  0  0
 26 25  1  0  0  0  0
M  END
>  <minimizedAffinity>
-4.10225296

$$$$

 OpenBabel03262521303D

 26 27  0  0  1  0  0  0  0  0999 V2000
   37.5220   24.4120   31.7020 C   0  0  1  0  0  0  0  0  0  0  0  0
   36.5290   23.5540   30.9740 C   0  0  2  0  0  0  0  0  0  0  0  0
   35.3050   24.1880   30.9810 O   0  0  0  0  0  0  0  0  0  0  0  0
   35.5590   25.5490   31.1800 C   0  0  0  0  0  0  0  0  0  0  0  0
   36.6350   25.4930   32.2490 C   0  0  2  0  0  0  0  0  0  0  0  0
   38.2210   24.9070   30.9700 H   0  0  0  0  0  0  0  0  0  0  0  0
   36.8670   23.4550   29.9220 H   0  0  0  0  0  0  0  0  0  0  0  0
   34.6470   26.0540   31.5210 H   0  0  0  0  0  0  0  0  0  0  0  0
   36.0120   25.9310   30.2670 H   0  0  0  0  0  0  0  0  0  0  0  0
   36.2490   25.1370   33.2260 H   0  0  0  0  0  0  0  0  0  0  0  0
   35.2310   20.4400   32.6820 C   0  0  0  0  0  0  0  0  0  0  0  0
   35.2650   21.7720   32.2080 C   0  0  0  0  0  0  0  0  0  0  0  0
   36.4080   22.1750   31.4950 C   0  0  0  0  0  0  0  0  0  0  0  0
   37.4160   21.2820   31.2950 N   0  0  0  0  0  0  0  0  0  0  0  0
   37.3460   20.0180   31.7650 C   0  0  0  0  0  0  0  0  0  0  0  0
   36.2650   19.6140   32.4460 N   0  0  0  0  0  0  0  0  0  0  0  0
   34.3280   20.2170   33.2110 H   0  0  0  0  0  0  0  0  0  0  0  0
   34.4800   22.5020   32.3520 H   0  0  0  0  0  0  0  0  0  0  0  0
   38.1460   19.3080   31.6060 H   0  0  0  0  0  0  0  0  0  0  0  0
   38.2900   23.7720   32.6150 O   0  0  0  0  0  0  0  0  0  0  0  0
   39.2350   24.0710   32.6830 H   0  0  0  0  0  0  0  0  0  0  0  0
   37.2780   26.6980   32.4080 O   0  0  0  0  0  0  0  0  0  0  0  0
   37.4150   27.2250   33.6860 C   0  0  0  0  0  3  0  0  0  0  0  0
   38.4140   26.8350   34.4380 C   0  0  0  0  0  3  0  0  0  0  0  0
   38.5830   27.3870   35.8140 C   0  0  0  0  0  2  0  0  0  0  0  0
   39.0800   28.3850   35.7090 H   0  0  0  0  0  0  0  0  0  0  0  0
  1  6  1  6  0  0  0
  1  5  1  0  0  0  0
  1 20  1  0  0  0  0
  2  7  1  6  0  0  0
  2  3  1  0  0  0  0
  2 13  1  0  0  0  0
  2  1  1  0  0  0  0
  3  4  1  0  0  0  0
  4  8  1  0  0  0  0
  4  5  1  0  0  0  0
  5 22  1  0  0  0  0
  5 10  1  1  0  0  0
  9  4  1  0  0  0  0
 11 17  1  0  0  0  0
 12 18  1  0  0  0  0
 12 11  2  0  0  0  0
 13 12  1  0  0  0  0
 14 13  2  0  0  0  0
 14 15  1  0  0  0  0
 15 16  2  0  0  0  0
 16 11  1  0  0  0  0
 19 15  1  0  0  0  0
 20 21  1  0  0  0  0
 22 23  1  0  0  0  0
 23 24  2  0  0  0  0
 24 25  1  0  0  0  0
 26 25  1  0  0  0  0
M  END
>  <minimizedAffinity>
-4.02739573

$$$$

 OpenBabel03262521303D

 26 27  0  0  1  0  0  0  0  0999 V2000
   39.5450   25.6620   34.1880 C   0  0  1  0  0  0  0  0  0  0  0  0
   38.9660   24.3040   34.4580 C   0  0  2  0  0  0  0  0  0  0  0  0
   37.7070   24.2380   33.8970 O   0  0  0  0  0  0  0  0  0  0  0  0
   37.6660   25.2090   32.8910 C   0  0  0  0  0  0  0  0  0  0  0  0
   38.3720   26.3670   33.5710 C   0  0  2  0  0  0  0  0  0  0  0  0
   40.3380   25.5960   33.3900 H   0  0  0  0  0  0  0  0  0  0  0  0
   39.6100   23.5500   33.9610 H   0  0  0  0  0  0  0  0  0  0  0  0
   36.6230   25.4380   32.6350 H   0  0  0  0  0  0  0  0  0  0  0  0
   38.2990   24.8600   32.0770 H   0  0  0  0  0  0  0  0  0  0  0  0
   37.7780   26.8020   34.4020 H   0  0  0  0  0  0  0  0  0  0  0  0
   37.8620   23.8800   38.0490 C   0  0  0  0  0  0  0  0  0  0  0  0
   37.8210   24.2690   36.6910 C   0  0  0  0  0  0  0  0  0  0  0  0
   38.9230   23.9250   35.8860 C   0  0  0  0  0  0  0  0  0  0  0  0
   39.9630   23.2440   36.4400 N   0  0  0  0  0  0  0  0  0  0  0  0
   39.9650   22.8900   37.7440 C   0  0  0  0  0  0  0  0  0  0  0  0
   38.9240   23.2080   38.5270 N   0  0  0  0  0  0  0  0  0  0  0  0
   36.9880   24.1790   38.5880 H   0  0  0  0  0  0  0  0  0  0  0  0
   37.0090   24.8100   36.2240 H   0  0  0  0  0  0  0  0  0  0  0  0
   40.7900   22.3480   38.1840 H   0  0  0  0  0  0  0  0  0  0  0  0
   40.1020   26.2820   35.2540 O   0  0  0  0  0  0  0  0  0  0  0  0
   40.9240   26.8120   35.0760 H   0  0  0  0  0  0  0  0  0  0  0  0
   38.7330   27.3540   32.6850 O   0  0  0  0  0  0  0  0  0  0  0  0
   37.7620   27.9090   31.8600 C   0  0  0  0  0  3  0  0  0  0  0  0
   38.0630   28.1930   30.6180 C   0  0  0  0  0  3  0  0  0  0  0  0
   37.0380   28.7890   29.7120 C   0  0  0  0  0  2  0  0  0  0  0  0
   36.3980   27.9480   29.3410 H   0  0  0  0  0  0  0  0  0  0  0  0
  1  6  1  6  0  0  0
  1  2  1  0  0  0  0
  1 20  1  0  0  0  0
  2  7  1  6  0  0  0
  2 13  1  0  0  0  0
  3  2  1  0  0  0  0
  4  5  1  0  0  0  0
  4  3  1  0  0  0  0
  5  1  1  0  0  0  0
  5 10  1  1  0  0  0
  8  4  1  0  0  0  0
  9  4  1  0  0  0  0
 11 16  1  0  0  0  0
 11 17  1  0  0  0  0
 12 11  2  0  0  0  0
 13 14  2  0  0  0  0
 13 12  1  0  0  0  0
 14 15  1  0  0  0  0
 15 19  1  0  0  0  0
 15 16  2  0  0  0  0
 18 12  1  0  0  0  0
 21 20  1  0  0  0  0
 22  5  1  0  0  0  0
 23 22  1  0  0  0  0
 24 23  2  0  0  0  0
 25 24  1  0  0  0  0
 26 25  1  0  0  0  0
M  END
>  <minimizedAffinity>
-3.9300034

$$$$

 OpenBabel03262521303D

 26 27  0  0  1  0  0  0  0  0999 V2000
   37.8320   25.9080   33.7270 C   0  0  1  0  0  0  0  0  0  0  0  0
   37.9420   27.3840   33.9790 C   0  0  2  0  0  0  0  0  0  0  0  0
   38.0270   27.5970   35.3390 O   0  0  0  0  0  0  0  0  0  0  0  0
   38.4930   26.4050   35.9030 C   0  0  0  0  0  0  0  0  0  0  0  0
   37.6910   25.3790   35.1250 C   0  0  2  0  0  0  0  0  0  0  0  0
   38.8060   25.5080   33.3270 H   0  0  0  0  0  0  0  0  0  0  0  0
   38.8800   27.7450   33.5090 H   0  0  0  0  0  0  0  0  0  0  0  0
   38.2740   26.3890   36.9790 H   0  0  0  0  0  0  0  0  0  0  0  0
   39.5390   26.3000   35.6210 H   0  0  0  0  0  0  0  0  0  0  0  0
   36.6100   25.4010   35.3760 H   0  0  0  0  0  0  0  0  0  0  0  0
   34.8400   29.5050   33.5600 C   0  0  0  0  0  0  0  0  0  0  0  0
   35.8520   28.7550   34.2020 C   0  0  0  0  0  0  0  0  0  0  0  0
   36.8530   28.1920   33.3900 C   0  0  0  0  0  0  0  0  0  0  0  0
   36.8050   28.3890   32.0430 N   0  0  0  0  0  0  0  0  0  0  0  0
   35.8200   29.1120   31.4670 C   0  0  0  0  0  0  0  0  0  0  0  0
   34.8580   29.6570   32.2240 N   0  0  0  0  0  0  0  0  0  0  0  0
   34.1220   29.8970   34.2490 H   0  0  0  0  0  0  0  0  0  0  0  0
   35.9150   28.5820   35.2680 H   0  0  0  0  0  0  0  0  0  0  0  0
   35.7820   29.2700   30.3980 H   0  0  0  0  0  0  0  0  0  0  0  0
   36.8610   25.5330   32.8620 O   0  0  0  0  0  0  0  0  0  0  0  0
   37.0800   24.7780   32.2550 H   0  0  0  0  0  0  0  0  0  0  0  0
   38.1820   24.1040   35.2780 O   0  0  0  0  0  0  0  0  0  0  0  0
   38.8560   23.7760   36.4480 C   0  0  0  0  0  3  0  0  0  0  0  0
   39.8230   22.8950   36.4050 C   0  0  0  0  0  3  0  0  0  0  0  0
   40.5630   22.5250   37.6470 C   0  0  0  0  0  2  0  0  0  0  0  0
   41.3280   23.3240   37.8240 H   0  0  0  0  0  0  0  0  0  0  0  0
  1  6  1  6  0  0  0
  1  2  1  0  0  0  0
  1  5  1  0  0  0  0
  2  7  1  6  0  0  0
  2  3  1  0  0  0  0
  3  4  1  0  0  0  0
  4  8  1  0  0  0  0
  5 22  1  0  0  0  0
  5 10  1  1  0  0  0
  5  4  1  0  0  0  0
  9  4  1  0  0  0  0
 11 12  1  0  0  0  0
 11 17  1  0  0  0  0
 12 18  1  0  0  0  0
 13  2  1  0  0  0  0
 13 12  2  0  0  0  0
 14 13  1  0  0  0  0
 15 14  2  0  0  0  0
 15 16  1  0  0  0  0
 16 11  2  0  0  0  0
 19 15  1  0  0  0  0
 20  1  1  0  0  0  0
 21 20  1  0  0  0  0
 22 23  1  0  0  0  0
 24 23  2  0  0  0  0
 24 25  1  0  0  0  0
 25 26  1  0  0  0  0
M  END
>  <minimizedAffinity>
-3.84658837

$$$$

 OpenBabel03262521303D

 26 27  0  0  1  0  0  0  0  0999 V2000
   39.6620   25.7000   35.0360 C   0  0  1  0  0  0  0  0  0  0  0  0
   38.2260   26.0210   35.3310 C   0  0  2  0  0  0  0  0  0  0  0  0
   37.6370   24.9220   35.9200 O   0  0  0  0  0  0  0  0  0  0  0  0
   38.6720   24.1630   36.4760 C   0  0  0  0  0  0  0  0  0  0  0  0
   39.7150   24.2390   35.3770 C   0  0  2  0  0  0  0  0  0  0  0  0
   40.3370   26.2270   35.7670 H   0  0  0  0  0  0  0  0  0  0  0  0
   38.2020   26.8620   36.0550 H   0  0  0  0  0  0  0  0  0  0  0  0
   38.3250   23.1390   36.6630 H   0  0  0  0  0  0  0  0  0  0  0  0
   39.0490   24.7110   37.3370 H   0  0  0  0  0  0  0  0  0  0  0  0
   39.4180   23.6790   34.4660 H   0  0  0  0  0  0  0  0  0  0  0  0
   36.1720   28.1230   32.9510 C   0  0  0  0  0  0  0  0  0  0  0  0
   36.9190   27.7750   34.1000 C   0  0  0  0  0  0  0  0  0  0  0  0
   37.4420   26.4710   34.1600 C   0  0  0  0  0  0  0  0  0  0  0  0
   37.2110   25.6140   33.1280 N   0  0  0  0  0  0  0  0  0  0  0  0
   36.4910   25.9850   32.0470 C   0  0  0  0  0  0  0  0  0  0  0  0
   35.9840   27.2230   31.9700 N   0  0  0  0  0  0  0  0  0  0  0  0
   35.8130   29.1300   32.9860 H   0  0  0  0  0  0  0  0  0  0  0  0
   37.1180   28.4340   34.9340 H   0  0  0  0  0  0  0  0  0  0  0  0
   36.3080   25.3050   31.2260 H   0  0  0  0  0  0  0  0  0  0  0  0
   40.0900   26.0240   33.7930 O   0  0  0  0  0  0  0  0  0  0  0  0
   41.0190   26.3690   33.7230 H   0  0  0  0  0  0  0  0  0  0  0  0
   40.9540   23.8230   35.8020 O   0  0  0  0  0  0  0  0  0  0  0  0
   41.0650   22.6150   36.4800 C   0  0  0  0  0  3  0  0  0  0  0  0
   42.2440   22.0630   36.6160 C   0  0  0  0  0  3  0  0  0  0  0  0
   42.3900   20.7660   37.3400 C   0  0  0  0  0  2  0  0  0  0  0  0
   42.3970   21.0000   38.4360 H   0  0  0  0  0  0  0  0  0  0  0  0
  1  2  1  0  0  0  0
  1  5  1  0  0  0  0
  1  6  1  1  0  0  0
  2  3  1  0  0  0  0
  2  7  1  1  0  0  0
  3  4  1  0  0  0  0
  4  8  1  0  0  0  0
  4  9  1  0  0  0  0
  5 10  1  6  0  0  0
  5 22  1  0  0  0  0
  5  4  1  0  0  0  0
 11 17  1  0  0  0  0
 11 12  1  0  0  0  0
 12 13  2  0  0  0  0
 12 18  1  0  0  0  0
 13  2  1  0  0  0  0
 14 13  1  0  0  0  0
 15 14  2  0  0  0  0
 16 15  1  0  0  0  0
 16 11  2  0  0  0  0
 19 15  1  0  0  0  0
 20  1  1  0  0  0  0
 21 20  1  0  0  0  0
 22 23  1  0  0  0  0
 23 24  2  0  0  0  0
 24 25  1  0  0  0  0
 25 26  1  0  0  0  0
M  END
>  <minimizedAffinity>
-3.8022759

$$$$
