
 OpenBabel03262521153D

 14 14  0  0  0  0  0  0  0  0999 V2000
   37.2250   31.5520   48.9270 C   0  0  0  0  0  0  0  0  0  0  0  0
   38.2350   32.4930   49.1790 C   0  0  0  0  0  0  0  0  0  0  0  0
   39.0300   32.9290   48.1220 C   0  0  0  0  0  0  0  0  0  0  0  0
   38.7730   32.4030   46.8760 N   0  0  0  0  0  0  0  0  0  0  0  0
   37.7870   31.4950   46.6660 C   0  0  0  0  0  0  0  0  0  0  0  0
   37.0340   31.0830   47.6780 N   0  0  0  0  0  0  0  0  0  0  0  0
   38.4550   32.9170   50.1370 H   0  0  0  0  0  0  0  0  0  0  0  0
   39.8070   33.6470   48.2920 H   0  0  0  0  0  0  0  0  0  0  0  0
   37.5930   31.0910   45.6970 H   0  0  0  0  0  0  0  0  0  0  0  0
   36.5240   31.2200   50.0720 O   0  0  0  0  0  0  0  0  0  0  0  0
   35.7250   30.0860   49.9990 C   0  0  0  0  0  0  0  0  0  0  0  0
   36.2310   29.4380   51.0310 C   0  0  0  0  0  0  0  0  0  0  0  0
   37.3310   29.9460   51.8890 C   0  0  0  0  0  0  0  0  0  0  0  0
   37.0610   29.8270   52.9640 H   0  0  0  0  0  0  0  0  0  0  0  0
  1  2  1  0  0  0  0
  1 10  1  0  0  0  0
  2  7  1  0  0  0  0
  3  8  1  0  0  0  0
  3  2  2  0  0  0  0
  4  3  1  0  0  0  0
  5  4  2  0  0  0  0
  5  6  1  0  0  0  0
  6  1  2  0  0  0  0
  9  5  1  0  0  0  0
 11 10  1  0  0  0  0
 11 12  1  0  0  0  0
 12 13  1  0  0  0  0
 13 14  1  0  0  0  0
M  END
>  <minimizedAffinity>
-3.93439245

>  <minimizedRMSD>
3.37254572

$$$$
