
 OpenBabel03262523593D

 24 25  0  0  0  0  0  0  0  0999 V2000
   38.6640   32.8090   47.6050 C   0  0  0  0  0  0  0  0  0  0  0  0
   39.4030   32.2000   46.5670 C   0  0  0  0  0  0  0  0  0  0  0  0
   39.0720   30.8850   46.2110 C   0  0  0  0  0  0  0  0  0  0  0  0
   38.0610   30.2700   46.8830 N   0  0  0  0  0  0  0  0  0  0  0  0
   37.3710   30.8770   47.8720 C   0  0  0  0  0  0  0  0  0  0  0  0
   37.6840   32.1450   48.2230 N   0  0  0  0  0  0  0  0  0  0  0  0
   38.9370   33.8240   47.8650 H   0  0  0  0  0  0  0  0  0  0  0  0
   39.6310   30.4160   45.4220 H   0  0  0  0  0  0  0  0  0  0  0  0
   37.9840   30.3580   50.8920 Br  0  0  0  0  0  0  0  0  0  0  0  0
   36.4020   29.9230   49.9240 C   0  0  0  0  0  0  0  0  0  0  0  0
   36.2930   30.2210   48.5910 C   0  0  0  0  0  0  0  0  0  0  0  0
   35.1040   29.8740   47.9480 C   0  0  0  0  0  0  0  0  0  0  0  0
   34.0560   29.2490   48.6030 C   0  0  0  0  0  0  0  0  0  0  0  0
   34.2150   28.9690   49.9440 C   0  0  0  0  0  0  0  0  0  0  0  0
   35.3970   29.3130   50.5940 C   0  0  0  0  0  0  0  0  0  0  0  0
   34.9630   30.0860   46.8940 H   0  0  0  0  0  0  0  0  0  0  0  0
   33.1490   28.9910   48.0790 H   0  0  0  0  0  0  0  0  0  0  0  0
   33.3900   28.4810   50.4490 H   0  0  0  0  0  0  0  0  0  0  0  0
   35.4750   29.0730   51.6470 H   0  0  0  0  0  0  0  0  0  0  0  0
   40.4120   32.9110   45.9460 O   0  0  0  0  0  0  0  0  0  0  0  0
   40.0600   33.6240   44.7870 C   0  0  0  0  0  3  0  0  0  0  0  0
   39.6520   32.9350   43.7240 C   0  0  0  0  0  3  0  0  0  0  0  0
   39.2010   33.3180   42.3410 C   0  0  0  0  0  2  0  0  0  0  0  0
   39.2450   34.4410   42.2420 H   0  0  0  0  0  0  0  0  0  0  0  0
  1  7  1  0  0  0  0
  1  6  1  0  0  0  0
  2  1  2  0  0  0  0
  3  2  1  0  0  0  0
  3  4  2  0  0  0  0
  4  5  1  0  0  0  0
  5  6  2  0  0  0  0
  5 11  1  0  0  0  0
  8  3  1  0  0  0  0
 10 15  1  0  0  0  0
 10  9  1  0  0  0  0
 11 10  2  0  0  0  0
 12 11  1  0  0  0  0
 12 13  2  0  0  0  0
 13 14  1  0  0  0  0
 14 18  1  0  0  0  0
 14 15  2  0  0  0  0
 15 19  1  0  0  0  0
 16 12  1  0  0  0  0
 17 13  1  0  0  0  0
 20  2  1  0  0  0  0
 21 20  1  0  0  0  0
 22 21  2  0  0  0  0
 23 22  1  0  0  0  0
 24 23  1  0  0  0  0
M  END
>  <minimizedAffinity>
-5.30246258

>  <minimizedRMSD>
2.25093651

$$$$
