
 OpenBabel03262522203D

 14 14  0  0  0  0  0  0  0  0999 V2000
   39.5770   22.5260   36.5290 C   0  0  0  0  0  0  0  0  0  0  0  0
   38.3260   22.9170   36.0270 C   0  0  0  0  0  0  0  0  0  0  0  0
   37.4300   23.5250   36.9070 C   0  0  0  0  0  0  0  0  0  0  0  0
   37.8050   23.7060   38.1860 N   0  0  0  0  0  0  0  0  0  0  0  0
   39.0180   23.3210   38.6470 C   0  0  0  0  0  0  0  0  0  0  0  0
   39.9290   22.7230   37.8290 N   0  0  0  0  0  0  0  0  0  0  0  0
   40.3500   22.0420   35.9200 H   0  0  0  0  0  0  0  0  0  0  0  0
   36.5130   23.7880   36.4540 H   0  0  0  0  0  0  0  0  0  0  0  0
   39.3010   23.4780   39.6890 H   0  0  0  0  0  0  0  0  0  0  0  0
   38.1720   22.6280   34.6930 O   0  0  0  0  0  0  0  0  0  0  0  0
   37.2550   21.7230   34.1820 C   0  0  0  0  0  3  0  0  0  0  0  0
   36.1910   21.0040   34.5010 C   0  0  0  0  0  3  0  0  0  0  0  0
   35.5260   20.1160   33.4920 C   0  0  0  0  0  2  0  0  0  0  0  0
   36.0730   20.2010   32.5110 H   0  0  0  0  0  0  0  0  0  0  0  0
  1  6  1  0  0  0  0
  2  1  2  0  0  0  0
  2  3  1  0  0  0  0
  3  4  2  0  0  0  0
  4  5  1  0  0  0  0
  5  9  1  0  0  0  0
  6  5  2  0  0  0  0
  7  1  1  0  0  0  0
  8  3  1  0  0  0  0
 10  2  1  0  0  0  0
 11 12  2  0  0  0  0
 11 10  1  0  0  0  0
 13 12  1  0  0  0  0
 14 13  1  0  0  0  0
M  END
>  <minimizedAffinity>
-3.17792773

$$$$

 OpenBabel03262522203D

 14 14  0  0  0  0  0  0  0  0999 V2000
   36.8270   24.4640   32.2390 C   0  0  0  0  0  0  0  0  0  0  0  0
   35.7590   24.3050   31.3420 C   0  0  0  0  0  0  0  0  0  0  0  0
   35.1040   25.4530   30.8980 C   0  0  0  0  0  0  0  0  0  0  0  0
   35.5230   26.6500   31.3480 N   0  0  0  0  0  0  0  0  0  0  0  0
   36.5570   26.7770   32.2120 C   0  0  0  0  0  0  0  0  0  0  0  0
   37.2300   25.6880   32.6760 N   0  0  0  0  0  0  0  0  0  0  0  0
   37.4060   23.6260   32.6460 H   0  0  0  0  0  0  0  0  0  0  0  0
   34.3140   25.2500   30.2270 H   0  0  0  0  0  0  0  0  0  0  0  0
   36.8800   27.7580   32.5640 H   0  0  0  0  0  0  0  0  0  0  0  0
   35.5170   22.9900   31.0290 O   0  0  0  0  0  0  0  0  0  0  0  0
   35.5770   21.9400   31.9320 C   0  0  0  0  0  3  0  0  0  0  0  0
   34.9890   20.8030   32.2710 C   0  0  0  0  0  3  0  0  0  0  0  0
   35.4940   19.9840   33.4220 C   0  0  0  0  0  2  0  0  0  0  0  0
   36.3910   20.4960   33.8710 H   0  0  0  0  0  0  0  0  0  0  0  0
  1  7  1  0  0  0  0
  1  6  1  0  0  0  0
  2  1  2  0  0  0  0
  3  2  1  0  0  0  0
  3  4  2  0  0  0  0
  4  5  1  0  0  0  0
  5  9  1  0  0  0  0
  5  6  2  0  0  0  0
  8  3  1  0  0  0  0
 10  2  1  0  0  0  0
 10 11  1  0  0  0  0
 11 12  2  0  0  0  0
 12 13  1  0  0  0  0
 13 14  1  0  0  0  0
M  END
>  <minimizedAffinity>
-3.15538573

$$$$

 OpenBabel03262522203D

 14 14  0  0  0  0  0  0  0  0999 V2000
   37.7500   22.8550   36.2120 C   0  0  0  0  0  0  0  0  0  0  0  0
   38.8950   22.2530   35.6680 C   0  0  0  0  0  0  0  0  0  0  0  0
   40.0340   22.1740   36.4700 C   0  0  0  0  0  0  0  0  0  0  0  0
   39.9810   22.6750   37.7180 N   0  0  0  0  0  0  0  0  0  0  0  0
   38.8630   23.2510   38.2200 C   0  0  0  0  0  0  0  0  0  0  0  0
   37.7250   23.3530   37.4780 N   0  0  0  0  0  0  0  0  0  0  0  0
   36.8060   22.9660   35.6640 H   0  0  0  0  0  0  0  0  0  0  0  0
   40.8520   21.7090   35.9900 H   0  0  0  0  0  0  0  0  0  0  0  0
   38.8420   23.6500   39.2350 H   0  0  0  0  0  0  0  0  0  0  0  0
   38.7090   21.8190   34.3790 O   0  0  0  0  0  0  0  0  0  0  0  0
   37.4820   21.7620   33.7350 C   0  0  0  0  0  3  0  0  0  0  0  0
   36.5950   20.9230   33.2250 C   0  0  0  0  0  3  0  0  0  0  0  0
   35.3310   21.4240   32.5920 C   0  0  0  0  0  2  0  0  0  0  0  0
   35.3090   22.5480   32.6550 H   0  0  0  0  0  0  0  0  0  0  0  0
  1  6  1  0  0  0  0
  2  1  2  0  0  0  0
  2  3  1  0  0  0  0
  3  4  2  0  0  0  0
  4  5  1  0  0  0  0
  5  9  1  0  0  0  0
  6  5  2  0  0  0  0
  7  1  1  0  0  0  0
  8  3  1  0  0  0  0
 10  2  1  0  0  0  0
 11 10  1  0  0  0  0
 12 11  2  0  0  0  0
 13 14  1  0  0  0  0
 13 12  1  0  0  0  0
M  END
>  <minimizedAffinity>
-3.13587451

$$$$

 OpenBabel03262522203D

 14 14  0  0  0  0  0  0  0  0999 V2000
   37.9950   24.6530   36.8200 C   0  0  0  0  0  0  0  0  0  0  0  0
   39.0090   24.1380   35.9980 C   0  0  0  0  0  0  0  0  0  0  0  0
   39.8830   23.2010   36.5500 C   0  0  0  0  0  0  0  0  0  0  0  0
   39.7130   22.8380   37.8350 N   0  0  0  0  0  0  0  0  0  0  0  0
   38.7250   23.3500   38.6070 C   0  0  0  0  0  0  0  0  0  0  0  0
   37.8460   24.2680   38.1160 N   0  0  0  0  0  0  0  0  0  0  0  0
   37.2590   25.3930   36.4810 H   0  0  0  0  0  0  0  0  0  0  0  0
   40.6170   22.8620   35.8710 H   0  0  0  0  0  0  0  0  0  0  0  0
   38.6060   23.0410   39.6470 H   0  0  0  0  0  0  0  0  0  0  0  0
   38.9830   24.6570   34.7270 O   0  0  0  0  0  0  0  0  0  0  0  0
   39.8930   25.5780   34.2320 C   0  0  0  0  0  3  0  0  0  0  0  0
   40.4540   26.7500   34.4870 C   0  0  0  0  0  3  0  0  0  0  0  0
   41.4610   27.3450   33.5470 C   0  0  0  0  0  2  0  0  0  0  0  0
   41.6190   26.6410   32.6830 H   0  0  0  0  0  0  0  0  0  0  0  0
  1  6  1  0  0  0  0
  2  3  1  0  0  0  0
  2  1  2  0  0  0  0
  3  4  2  0  0  0  0
  4  5  1  0  0  0  0
  5  9  1  0  0  0  0
  6  5  2  0  0  0  0
  7  1  1  0  0  0  0
  8  3  1  0  0  0  0
 10  2  1  0  0  0  0
 11 12  2  0  0  0  0
 11 10  1  0  0  0  0
 13 12  1  0  0  0  0
 14 13  1  0  0  0  0
M  END
>  <minimizedAffinity>
-3.12512827

$$$$

 OpenBabel03262522203D

 14 14  0  0  0  0  0  0  0  0999 V2000
   37.7720   24.5940   36.9810 C   0  0  0  0  0  0  0  0  0  0  0  0
   38.6750   24.2070   35.9780 C   0  0  0  0  0  0  0  0  0  0  0  0
   39.6900   23.3150   36.3230 C   0  0  0  0  0  0  0  0  0  0  0  0
   39.7550   22.8710   37.5920 N   0  0  0  0  0  0  0  0  0  0  0  0
   38.8720   23.2590   38.5410 C   0  0  0  0  0  0  0  0  0  0  0  0
   37.8620   24.1290   38.2560 N   0  0  0  0  0  0  0  0  0  0  0  0
   36.9410   25.2900   36.8120 H   0  0  0  0  0  0  0  0  0  0  0  0
   40.3270   23.0740   35.5160 H   0  0  0  0  0  0  0  0  0  0  0  0
   38.9430   22.8860   39.5640 H   0  0  0  0  0  0  0  0  0  0  0  0
   38.4070   24.7910   34.7640 O   0  0  0  0  0  0  0  0  0  0  0  0
   37.6580   25.9450   34.5920 C   0  0  0  0  0  3  0  0  0  0  0  0
   37.7360   27.2040   34.1930 C   0  0  0  0  0  3  0  0  0  0  0  0
   36.5290   28.0960   34.2070 C   0  0  0  0  0  2  0  0  0  0  0  0
   35.6440   27.5100   34.5830 H   0  0  0  0  0  0  0  0  0  0  0  0
  1  6  1  0  0  0  0
  2  3  1  0  0  0  0
  2  1  2  0  0  0  0
  3  4  2  0  0  0  0
  4  5  1  0  0  0  0
  5  9  1  0  0  0  0
  6  5  2  0  0  0  0
  7  1  1  0  0  0  0
  8  3  1  0  0  0  0
 10  2  1  0  0  0  0
 11 10  1  0  0  0  0
 12 13  1  0  0  0  0
 12 11  2  0  0  0  0
 13 14  1  0  0  0  0
M  END
>  <minimizedAffinity>
-3.10015225

$$$$

 OpenBabel03262522203D

 14 14  0  0  0  0  0  0  0  0999 V2000
   40.0500   24.8370   35.0860 C   0  0  0  0  0  0  0  0  0  0  0  0
   39.0200   24.3200   35.8880 C   0  0  0  0  0  0  0  0  0  0  0  0
   38.1180   25.2220   36.4520 C   0  0  0  0  0  0  0  0  0  0  0  0
   38.2760   26.5350   36.2020 N   0  0  0  0  0  0  0  0  0  0  0  0
   39.2780   27.0080   35.4240 C   0  0  0  0  0  0  0  0  0  0  0  0
   40.1850   26.1700   34.8500 N   0  0  0  0  0  0  0  0  0  0  0  0
   40.8080   24.2120   34.5980 H   0  0  0  0  0  0  0  0  0  0  0  0
   37.3750   24.7570   37.0410 H   0  0  0  0  0  0  0  0  0  0  0  0
   39.3870   28.0770   35.2350 H   0  0  0  0  0  0  0  0  0  0  0  0
   39.0640   22.9520   35.9970 O   0  0  0  0  0  0  0  0  0  0  0  0
   40.1760   22.2270   36.3960 C   0  0  0  0  0  3  0  0  0  0  0  0
   40.9230   21.9330   37.4480 C   0  0  0  0  0  3  0  0  0  0  0  0
   42.1110   21.0240   37.3230 C   0  0  0  0  0  2  0  0  0  0  0  0
   42.2010   20.6820   36.2540 H   0  0  0  0  0  0  0  0  0  0  0  0
  1  2  1  0  0  0  0
  2 10  1  0  0  0  0
  2  3  2  0  0  0  0
  3  8  1  0  0  0  0
  4  3  1  0  0  0  0
  5  4  2  0  0  0  0
  6  1  2  0  0  0  0
  6  5  1  0  0  0  0
  7  1  1  0  0  0  0
  9  5  1  0  0  0  0
 10 11  1  0  0  0  0
 11 12  2  0  0  0  0
 13 12  1  0  0  0  0
 14 13  1  0  0  0  0
M  END
>  <minimizedAffinity>
-3.0787642

$$$$

 OpenBabel03262522203D

 14 14  0  0  0  0  0  0  0  0999 V2000
   39.9210   22.7400   37.6810 C   0  0  0  0  0  0  0  0  0  0  0  0
   39.3880   23.4190   36.5740 C   0  0  0  0  0  0  0  0  0  0  0  0
   39.9600   23.1800   35.3250 C   0  0  0  0  0  0  0  0  0  0  0  0
   40.9890   22.3180   35.2410 N   0  0  0  0  0  0  0  0  0  0  0  0
   41.4850   21.6750   36.3230 C   0  0  0  0  0  0  0  0  0  0  0  0
   40.9620   21.8720   37.5660 N   0  0  0  0  0  0  0  0  0  0  0  0
   39.5420   22.8580   38.7040 H   0  0  0  0  0  0  0  0  0  0  0  0
   39.5040   23.7280   34.5450 H   0  0  0  0  0  0  0  0  0  0  0  0
   42.3200   20.9780   36.2320 H   0  0  0  0  0  0  0  0  0  0  0  0
   38.3430   24.2450   36.9080 O   0  0  0  0  0  0  0  0  0  0  0  0
   38.0550   25.4470   36.2780 C   0  0  0  0  0  3  0  0  0  0  0  0
   38.4460   26.7070   36.1790 C   0  0  0  0  0  3  0  0  0  0  0  0
   37.7300   27.6710   35.2800 C   0  0  0  0  0  2  0  0  0  0  0  0
   36.8870   27.1330   34.7620 H   0  0  0  0  0  0  0  0  0  0  0  0
  1  7  1  0  0  0  0
  2 10  1  0  0  0  0
  2  1  2  0  0  0  0
  3  2  1  0  0  0  0
  4  3  2  0  0  0  0
  4  5  1  0  0  0  0
  5  6  2  0  0  0  0
  6  1  1  0  0  0  0
  8  3  1  0  0  0  0
  9  5  1  0  0  0  0
 11 10  1  0  0  0  0
 12 11  2  0  0  0  0
 13 12  1  0  0  0  0
 14 13  1  0  0  0  0
M  END
>  <minimizedAffinity>
-3.07527614

$$$$

 OpenBabel03262522203D

 14 14  0  0  0  0  0  0  0  0999 V2000
   39.7500   23.3360   36.2760 C   0  0  0  0  0  0  0  0  0  0  0  0
   39.7090   22.8940   37.6070 C   0  0  0  0  0  0  0  0  0  0  0  0
   38.6740   23.3600   38.4180 C   0  0  0  0  0  0  0  0  0  0  0  0
   37.7720   24.2070   37.8890 N   0  0  0  0  0  0  0  0  0  0  0  0
   37.8330   24.6190   36.6010 C   0  0  0  0  0  0  0  0  0  0  0  0
   38.8230   24.1920   35.7670 N   0  0  0  0  0  0  0  0  0  0  0  0
   40.5220   23.0280   35.5590 H   0  0  0  0  0  0  0  0  0  0  0  0
   38.7120   22.9830   39.4030 H   0  0  0  0  0  0  0  0  0  0  0  0
   37.0900   25.3050   36.1920 H   0  0  0  0  0  0  0  0  0  0  0  0
   40.7350   22.0350   37.9170 O   0  0  0  0  0  0  0  0  0  0  0  0
   41.5650   21.4300   36.9860 C   0  0  0  0  0  3  0  0  0  0  0  0
   42.7080   20.7750   36.8590 C   0  0  0  0  0  3  0  0  0  0  0  0
   43.1830   20.3020   35.5160 C   0  0  0  0  0  2  0  0  0  0  0  0
   42.4250   20.5910   34.7360 H   0  0  0  0  0  0  0  0  0  0  0  0
  1  2  1  0  0  0  0
  2 10  1  0  0  0  0
  2  3  2  0  0  0  0
  3  8  1  0  0  0  0
  4  3  1  0  0  0  0
  5  4  2  0  0  0  0
  6  1  2  0  0  0  0
  6  5  1  0  0  0  0
  7  1  1  0  0  0  0
  9  5  1  0  0  0  0
 11 10  1  0  0  0  0
 12 11  2  0  0  0  0
 13 12  1  0  0  0  0
 14 13  1  0  0  0  0
M  END
>  <minimizedAffinity>
-3.07525301

$$$$

 OpenBabel03262522203D

 14 14  0  0  0  0  0  0  0  0999 V2000
   37.0440   27.0330   34.9070 C   0  0  0  0  0  0  0  0  0  0  0  0
   37.4140   25.9780   34.0590 C   0  0  0  0  0  0  0  0  0  0  0  0
   37.1760   26.1240   32.6930 C   0  0  0  0  0  0  0  0  0  0  0  0
   36.6060   27.2620   32.2550 N   0  0  0  0  0  0  0  0  0  0  0  0
   36.2580   28.2660   33.0930 C   0  0  0  0  0  0  0  0  0  0  0  0
   36.4700   28.1730   34.4360 N   0  0  0  0  0  0  0  0  0  0  0  0
   37.1890   27.0160   35.9940 H   0  0  0  0  0  0  0  0  0  0  0  0
   37.4810   25.2880   32.1230 H   0  0  0  0  0  0  0  0  0  0  0  0
   35.7970   29.1800   32.7170 H   0  0  0  0  0  0  0  0  0  0  0  0
   37.9770   24.9220   34.7350 O   0  0  0  0  0  0  0  0  0  0  0  0
   38.0150   24.8000   36.1150 C   0  0  0  0  0  3  0  0  0  0  0  0
   37.6770   24.0010   37.1140 C   0  0  0  0  0  3  0  0  0  0  0  0
   37.9730   24.3720   38.5370 C   0  0  0  0  0  2  0  0  0  0  0  0
   38.4990   25.3680   38.5550 H   0  0  0  0  0  0  0  0  0  0  0  0
  1  7  1  0  0  0  0
  2 10  1  0  0  0  0
  2  1  2  0  0  0  0
  3  2  1  0  0  0  0
  4  3  2  0  0  0  0
  4  5  1  0  0  0  0
  5  6  2  0  0  0  0
  6  1  1  0  0  0  0
  8  3  1  0  0  0  0
  9  5  1  0  0  0  0
 10 11  1  0  0  0  0
 11 12  2  0  0  0  0
 12 13  1  0  0  0  0
 13 14  1  0  0  0  0
M  END
>  <minimizedAffinity>
-3.02204466

$$$$
