
 OpenBabel03272509183D

 28 29  0  0  0  0  0  0  0  0999 V2000
   38.0080   31.2780   47.6870 C   0  0  0  0  0  0  0  0  0  0  0  0
   37.0470   31.2640   48.6890 C   0  0  0  0  0  0  0  0  0  0  0  0
   37.1450   32.3280   49.5940 C   0  0  0  0  0  0  0  0  0  0  0  0
   38.1380   33.3050   49.4690 C   0  0  0  0  0  0  0  0  0  0  0  0
   39.0640   33.2260   48.4150 C   0  0  0  0  0  0  0  0  0  0  0  0
   38.9770   32.1910   47.5260 C   0  0  0  0  0  0  0  0  0  0  0  0
   36.4340   32.3690   50.3860 H   0  0  0  0  0  0  0  0  0  0  0  0
   38.2110   34.1260   50.1700 H   0  0  0  0  0  0  0  0  0  0  0  0
   39.8450   33.9660   48.2900 H   0  0  0  0  0  0  0  0  0  0  0  0
   34.8930   30.3140   48.0070 C   0  0  0  0  0  0  0  0  0  0  0  0
   36.0290   30.2610   48.8150 C   0  0  0  0  0  0  0  0  0  0  0  0
   36.1340   29.2130   49.7360 C   0  0  0  0  0  0  0  0  0  0  0  0
   35.1240   28.3040   49.7940 N   0  0  0  0  0  0  0  0  0  0  0  0
   34.0320   28.3970   48.9820 C   0  0  0  0  0  0  0  0  0  0  0  0
   33.9200   29.3900   48.1010 N   0  0  0  0  0  0  0  0  0  0  0  0
   34.8210   31.1260   47.3010 H   0  0  0  0  0  0  0  0  0  0  0  0
   33.3070   27.5930   49.1460 H   0  0  0  0  0  0  0  0  0  0  0  0
   37.3150   29.1050   50.6180 C   0  0  0  0  0  0  0  0  0  0  0  0
   37.5080   30.0250   51.1830 H   0  0  0  0  0  0  0  0  0  0  0  0
   38.2030   28.8820   49.9840 H   0  0  0  0  0  0  0  0  0  0  0  0
   37.1630   28.2390   51.2910 H   0  0  0  0  0  0  0  0  0  0  0  0
   37.9750   30.2300   46.7270 O   0  0  0  0  0  0  0  0  0  0  0  0
   37.2270   30.1250   46.0780 H   0  0  0  0  0  0  0  0  0  0  0  0
   39.9100   32.1340   46.4850 O   0  0  0  0  0  0  0  0  0  0  0  0
   40.3000   33.2210   45.7590 C   0  0  0  0  0  3  0  0  0  0  0  0
   39.8990   33.5540   44.5410 C   0  0  0  0  0  3  0  0  0  0  0  0
   38.9170   32.6840   43.8440 C   0  0  0  0  0  2  0  0  0  0  0  0
   38.3600   32.0990   44.6060 H   0  0  0  0  0  0  0  0  0  0  0  0
  1  2  1  0  0  0  0
  2 11  1  0  0  0  0
  2  3  2  0  0  0  0
  3  7  1  0  0  0  0
  4  3  1  0  0  0  0
  4  8  1  0  0  0  0
  5  4  2  0  0  0  0
  6  1  2  0  0  0  0
  6  5  1  0  0  0  0
  9  5  1  0  0  0  0
 10 15  2  0  0  0  0
 10 11  1  0  0  0  0
 11 12  2  0  0  0  0
 12 13  1  0  0  0  0
 12 18  1  0  0  0  0
 14 17  1  0  0  0  0
 14 13  2  0  0  0  0
 15 14  1  0  0  0  0
 16 10  1  0  0  0  0
 18 19  1  0  0  0  0
 18 21  1  0  0  0  0
 20 18  1  0  0  0  0
 22  1  1  0  0  0  0
 23 22  1  0  0  0  0
 24  6  1  0  0  0  0
 25 24  1  0  0  0  0
 26 25  2  0  0  0  0
 27 26  1  0  0  0  0
 27 28  1  0  0  0  0
M  END
>  <minimizedAffinity>
-6.10073519

>  <minimizedRMSD>
0.874126971

$$$$
