
 OpenBabel03272509183D

 28 29  0  0  0  0  0  0  0  0999 V2000
   38.0020   31.3440   47.7030 C   0  0  0  0  0  0  0  0  0  0  0  0
   37.0430   31.2930   48.7060 C   0  0  0  0  0  0  0  0  0  0  0  0
   37.1300   32.3350   49.6390 C   0  0  0  0  0  0  0  0  0  0  0  0
   38.1120   33.3260   49.5360 C   0  0  0  0  0  0  0  0  0  0  0  0
   39.0360   33.2850   48.4790 C   0  0  0  0  0  0  0  0  0  0  0  0
   38.9590   32.2720   47.5640 C   0  0  0  0  0  0  0  0  0  0  0  0
   36.4200   32.3470   50.4320 H   0  0  0  0  0  0  0  0  0  0  0  0
   38.1760   34.1300   50.2580 H   0  0  0  0  0  0  0  0  0  0  0  0
   39.8090   34.0370   48.3720 H   0  0  0  0  0  0  0  0  0  0  0  0
   34.9060   30.3280   47.9930 C   0  0  0  0  0  0  0  0  0  0  0  0
   36.0370   30.2760   48.8090 C   0  0  0  0  0  0  0  0  0  0  0  0
   36.1480   29.2140   49.7130 C   0  0  0  0  0  0  0  0  0  0  0  0
   35.1490   28.2910   49.7480 N   0  0  0  0  0  0  0  0  0  0  0  0
   34.0620   28.3840   48.9300 C   0  0  0  0  0  0  0  0  0  0  0  0
   33.9440   29.3910   48.0640 N   0  0  0  0  0  0  0  0  0  0  0  0
   34.8290   31.1510   47.3000 H   0  0  0  0  0  0  0  0  0  0  0  0
   33.3460   27.5690   49.0750 H   0  0  0  0  0  0  0  0  0  0  0  0
   37.3240   29.1060   50.6010 C   0  0  0  0  0  0  0  0  0  0  0  0
   37.5010   30.0190   51.1830 H   0  0  0  0  0  0  0  0  0  0  0  0
   38.2200   28.9050   49.9710 H   0  0  0  0  0  0  0  0  0  0  0  0
   37.1780   28.2270   51.2590 H   0  0  0  0  0  0  0  0  0  0  0  0
   37.9790   30.3210   46.7170 O   0  0  0  0  0  0  0  0  0  0  0  0
   37.2300   30.2240   46.0660 H   0  0  0  0  0  0  0  0  0  0  0  0
   39.8910   32.2530   46.5210 O   0  0  0  0  0  0  0  0  0  0  0  0
   40.1510   33.3260   45.7190 C   0  0  0  0  0  3  0  0  0  0  0  0
   39.9830   33.4010   44.4070 C   0  0  0  0  0  3  0  0  0  0  0  0
   39.4580   32.2180   43.6800 C   0  0  0  0  0  2  0  0  0  0  0  0
   38.9050   31.5760   44.3990 H   0  0  0  0  0  0  0  0  0  0  0  0
  1  2  1  0  0  0  0
  2 11  1  0  0  0  0
  2  3  2  0  0  0  0
  3  7  1  0  0  0  0
  4  3  1  0  0  0  0
  4  8  1  0  0  0  0
  5  4  2  0  0  0  0
  6  1  2  0  0  0  0
  6  5  1  0  0  0  0
  9  5  1  0  0  0  0
 10 15  2  0  0  0  0
 10 11  1  0  0  0  0
 11 12  2  0  0  0  0
 12 13  1  0  0  0  0
 12 18  1  0  0  0  0
 14 17  1  0  0  0  0
 14 13  2  0  0  0  0
 15 14  1  0  0  0  0
 16 10  1  0  0  0  0
 18 19  1  0  0  0  0
 18 21  1  0  0  0  0
 20 18  1  0  0  0  0
 22  1  1  0  0  0  0
 23 22  1  0  0  0  0
 24  6  1  0  0  0  0
 25 24  1  0  0  0  0
 26 25  2  0  0  0  0
 27 28  1  0  0  0  0
 27 26  1  0  0  0  0
M  END
>  <minimizedAffinity>
-6.14045048

>  <minimizedRMSD>
0.557252645

$$$$
