
 OpenBabel03272509183D

 28 29  0  0  0  0  0  0  0  0999 V2000
   36.8950   30.6870   47.5950 C   0  0  0  0  0  0  0  0  0  0  0  0
   35.7030   30.5610   48.2950 C   0  0  0  0  0  0  0  0  0  0  0  0
   35.7350   31.0990   49.5880 C   0  0  0  0  0  0  0  0  0  0  0  0
   36.8880   31.7060   50.0970 C   0  0  0  0  0  0  0  0  0  0  0  0
   38.0450   31.7820   49.3040 C   0  0  0  0  0  0  0  0  0  0  0  0
   38.0220   31.2600   48.0400 C   0  0  0  0  0  0  0  0  0  0  0  0
   34.8480   31.0310   50.1730 H   0  0  0  0  0  0  0  0  0  0  0  0
   36.9100   32.1220   51.0960 H   0  0  0  0  0  0  0  0  0  0  0  0
   38.9530   32.2460   49.6690 H   0  0  0  0  0  0  0  0  0  0  0  0
   33.7800   30.5760   46.7760 C   0  0  0  0  0  0  0  0  0  0  0  0
   34.5220   29.9380   47.7700 C   0  0  0  0  0  0  0  0  0  0  0  0
   34.0770   28.6930   48.2260 C   0  0  0  0  0  0  0  0  0  0  0  0
   32.9470   28.1720   47.6770 N   0  0  0  0  0  0  0  0  0  0  0  0
   32.2540   28.8330   46.7060 C   0  0  0  0  0  0  0  0  0  0  0  0
   32.6680   30.0200   46.2620 N   0  0  0  0  0  0  0  0  0  0  0  0
   34.1300   31.5370   46.4310 H   0  0  0  0  0  0  0  0  0  0  0  0
   31.3690   28.2880   46.3640 H   0  0  0  0  0  0  0  0  0  0  0  0
   34.8230   27.9690   49.2770 C   0  0  0  0  0  0  0  0  0  0  0  0
   34.9910   28.5790   50.1740 H   0  0  0  0  0  0  0  0  0  0  0  0
   35.8110   27.6710   48.8600 H   0  0  0  0  0  0  0  0  0  0  0  0
   34.2690   27.0410   49.5140 H   0  0  0  0  0  0  0  0  0  0  0  0
   36.9420   30.1650   46.2740 O   0  0  0  0  0  0  0  0  0  0  0  0
   36.4050   30.5520   45.5280 H   0  0  0  0  0  0  0  0  0  0  0  0
   39.1870   31.3480   47.2700 O   0  0  0  0  0  0  0  0  0  0  0  0
   39.3250   32.1840   46.2000 C   0  0  0  0  0  3  0  0  0  0  0  0
   39.8280   33.4090   46.2030 C   0  0  0  0  0  3  0  0  0  0  0  0
   40.3120   33.9850   47.4830 C   0  0  0  0  0  2  0  0  0  0  0  0
   40.5480   33.1530   48.1800 H   0  0  0  0  0  0  0  0  0  0  0  0
  1  6  2  0  0  0  0
  1  2  1  0  0  0  0
  2  3  2  0  0  0  0
  3  4  1  0  0  0  0
  3  7  1  0  0  0  0
  4  8  1  0  0  0  0
  5  9  1  0  0  0  0
  5  4  2  0  0  0  0
  6  5  1  0  0  0  0
 10 11  1  0  0  0  0
 11 12  2  0  0  0  0
 11  2  1  0  0  0  0
 12 18  1  0  0  0  0
 13 12  1  0  0  0  0
 14 13  2  0  0  0  0
 15 14  1  0  0  0  0
 15 10  2  0  0  0  0
 16 10  1  0  0  0  0
 17 14  1  0  0  0  0
 18 21  1  0  0  0  0
 18 19  1  0  0  0  0
 20 18  1  0  0  0  0
 22  1  1  0  0  0  0
 23 22  1  0  0  0  0
 24  6  1  0  0  0  0
 25 26  2  0  0  0  0
 25 24  1  0  0  0  0
 26 27  1  0  0  0  0
 27 28  1  0  0  0  0
M  END
>  <minimizedAffinity>
-4.82370806

>  <minimizedRMSD>
2.09604049

$$$$
