
 OpenBabel03272509183D

 28 29  0  0  0  0  0  0  0  0999 V2000
   38.0140   31.3690   47.7890 C   0  0  0  0  0  0  0  0  0  0  0  0
   37.0260   31.3100   48.7610 C   0  0  0  0  0  0  0  0  0  0  0  0
   37.0720   32.3540   49.6940 C   0  0  0  0  0  0  0  0  0  0  0  0
   38.0470   33.3560   49.6200 C   0  0  0  0  0  0  0  0  0  0  0  0
   39.0040   33.3220   48.5920 C   0  0  0  0  0  0  0  0  0  0  0  0
   38.9660   32.3070   47.6770 C   0  0  0  0  0  0  0  0  0  0  0  0
   36.3380   32.3610   50.4650 H   0  0  0  0  0  0  0  0  0  0  0  0
   38.0800   34.1620   50.3410 H   0  0  0  0  0  0  0  0  0  0  0  0
   39.7710   34.0830   48.5070 H   0  0  0  0  0  0  0  0  0  0  0  0
   34.9090   30.3350   48.0040 C   0  0  0  0  0  0  0  0  0  0  0  0
   36.0280   30.2820   48.8350 C   0  0  0  0  0  0  0  0  0  0  0  0
   36.1350   29.2090   49.7270 C   0  0  0  0  0  0  0  0  0  0  0  0
   35.1450   28.2770   49.7340 N   0  0  0  0  0  0  0  0  0  0  0  0
   34.0690   28.3710   48.9010 C   0  0  0  0  0  0  0  0  0  0  0  0
   33.9550   29.3880   48.0470 N   0  0  0  0  0  0  0  0  0  0  0  0
   34.8340   31.1670   47.3200 H   0  0  0  0  0  0  0  0  0  0  0  0
   33.3590   27.5470   49.0240 H   0  0  0  0  0  0  0  0  0  0  0  0
   37.2990   29.1000   50.6310 C   0  0  0  0  0  0  0  0  0  0  0  0
   37.4590   30.0060   51.2270 H   0  0  0  0  0  0  0  0  0  0  0  0
   38.2060   28.9160   50.0110 H   0  0  0  0  0  0  0  0  0  0  0  0
   37.1520   28.2110   51.2740 H   0  0  0  0  0  0  0  0  0  0  0  0
   38.0330   30.3440   46.8050 O   0  0  0  0  0  0  0  0  0  0  0  0
   37.3060   30.2380   46.1310 H   0  0  0  0  0  0  0  0  0  0  0  0
   39.9300   32.2960   46.6640 O   0  0  0  0  0  0  0  0  0  0  0  0
   39.8300   33.0270   45.5160 C   0  0  0  0  0  3  0  0  0  0  0  0
   40.0760   32.6150   44.2820 C   0  0  0  0  0  3  0  0  0  0  0  0
   40.5140   31.2130   44.0660 C   0  0  0  0  0  2  0  0  0  0  0  0
   40.1850   30.6020   44.9320 H   0  0  0  0  0  0  0  0  0  0  0  0
  1  2  1  0  0  0  0
  2 11  1  0  0  0  0
  2  3  2  0  0  0  0
  3  7  1  0  0  0  0
  4  3  1  0  0  0  0
  4  8  1  0  0  0  0
  5  4  2  0  0  0  0
  6  1  2  0  0  0  0
  6  5  1  0  0  0  0
  9  5  1  0  0  0  0
 10 15  2  0  0  0  0
 10 11  1  0  0  0  0
 11 12  2  0  0  0  0
 12 13  1  0  0  0  0
 12 18  1  0  0  0  0
 14 17  1  0  0  0  0
 14 13  2  0  0  0  0
 15 14  1  0  0  0  0
 16 10  1  0  0  0  0
 18 19  1  0  0  0  0
 18 21  1  0  0  0  0
 20 18  1  0  0  0  0
 22  1  1  0  0  0  0
 23 22  1  0  0  0  0
 24  6  1  0  0  0  0
 25 24  1  0  0  0  0
 26 25  2  0  0  0  0
 27 26  1  0  0  0  0
 27 28  1  0  0  0  0
M  END
>  <minimizedAffinity>
-6.1589694

>  <minimizedRMSD>
0.884429991

$$$$
