
 OpenBabel03272509183D

 28 29  0  0  0  0  0  0  0  0999 V2000
   38.0770   31.3690   47.8500 C   0  0  0  0  0  0  0  0  0  0  0  0
   37.1850   31.5000   48.9060 C   0  0  0  0  0  0  0  0  0  0  0  0
   37.3650   32.6590   49.6710 C   0  0  0  0  0  0  0  0  0  0  0  0
   38.3700   33.5850   49.3680 C   0  0  0  0  0  0  0  0  0  0  0  0
   39.2210   33.3560   48.2740 C   0  0  0  0  0  0  0  0  0  0  0  0
   39.0530   32.2280   47.5210 C   0  0  0  0  0  0  0  0  0  0  0  0
   36.7100   32.8130   50.4950 H   0  0  0  0  0  0  0  0  0  0  0  0
   38.5060   34.4800   49.9600 H   0  0  0  0  0  0  0  0  0  0  0  0
   40.0090   34.0540   48.0130 H   0  0  0  0  0  0  0  0  0  0  0  0
   35.0690   30.3930   48.3550 C   0  0  0  0  0  0  0  0  0  0  0  0
   36.1560   30.5490   49.2150 C   0  0  0  0  0  0  0  0  0  0  0  0
   36.2020   29.7580   50.3680 C   0  0  0  0  0  0  0  0  0  0  0  0
   35.1850   28.8810   50.5880 N   0  0  0  0  0  0  0  0  0  0  0  0
   34.1430   28.7640   49.7170 C   0  0  0  0  0  0  0  0  0  0  0  0
   34.0880   29.5110   48.6150 N   0  0  0  0  0  0  0  0  0  0  0  0
   35.0420   31.0070   47.4680 H   0  0  0  0  0  0  0  0  0  0  0  0
   33.4050   28.0180   50.0300 H   0  0  0  0  0  0  0  0  0  0  0  0
   37.3290   29.8790   51.3160 C   0  0  0  0  0  0  0  0  0  0  0  0
   37.4940   30.9120   51.6490 H   0  0  0  0  0  0  0  0  0  0  0  0
   38.2510   29.5170   50.8080 H   0  0  0  0  0  0  0  0  0  0  0  0
   37.1340   29.2030   52.1700 H   0  0  0  0  0  0  0  0  0  0  0  0
   37.9580   30.2170   47.0260 O   0  0  0  0  0  0  0  0  0  0  0  0
   37.1660   30.0590   46.4420 H   0  0  0  0  0  0  0  0  0  0  0  0
   39.9130   32.0220   46.4380 O   0  0  0  0  0  0  0  0  0  0  0  0
   40.3790   33.0270   45.6410 C   0  0  0  0  0  3  0  0  0  0  0  0
   39.8880   33.4130   44.4730 C   0  0  0  0  0  3  0  0  0  0  0  0
   38.6990   32.7110   43.9250 C   0  0  0  0  0  2  0  0  0  0  0  0
   38.1550   32.2280   44.7640 H   0  0  0  0  0  0  0  0  0  0  0  0
  1  2  1  0  0  0  0
  2 11  1  0  0  0  0
  2  3  2  0  0  0  0
  3  7  1  0  0  0  0
  4  3  1  0  0  0  0
  4  8  1  0  0  0  0
  5  4  2  0  0  0  0
  6  1  2  0  0  0  0
  6  5  1  0  0  0  0
  9  5  1  0  0  0  0
 10 15  2  0  0  0  0
 10 11  1  0  0  0  0
 11 12  2  0  0  0  0
 12 13  1  0  0  0  0
 12 18  1  0  0  0  0
 14 17  1  0  0  0  0
 14 13  2  0  0  0  0
 15 14  1  0  0  0  0
 16 10  1  0  0  0  0
 18 19  1  0  0  0  0
 18 21  1  0  0  0  0
 20 18  1  0  0  0  0
 22  1  1  0  0  0  0
 23 22  1  0  0  0  0
 24  6  1  0  0  0  0
 25 24  1  0  0  0  0
 26 25  2  0  0  0  0
 27 26  1  0  0  0  0
 27 28  1  0  0  0  0
M  END
>  <minimizedAffinity>
-6.17372036

>  <minimizedRMSD>
0.926117778

$$$$
