
 OpenBabel03272509183D

 28 29  0  0  0  0  0  0  0  0999 V2000
   38.0830   31.3730   47.8510 C   0  0  0  0  0  0  0  0  0  0  0  0
   37.1930   31.5080   48.9070 C   0  0  0  0  0  0  0  0  0  0  0  0
   37.3740   32.6690   49.6690 C   0  0  0  0  0  0  0  0  0  0  0  0
   38.3780   33.5940   49.3610 C   0  0  0  0  0  0  0  0  0  0  0  0
   39.2280   33.3610   48.2670 C   0  0  0  0  0  0  0  0  0  0  0  0
   39.0580   32.2300   47.5180 C   0  0  0  0  0  0  0  0  0  0  0  0
   36.7200   32.8260   50.4940 H   0  0  0  0  0  0  0  0  0  0  0  0
   38.5160   34.4910   49.9510 H   0  0  0  0  0  0  0  0  0  0  0  0
   40.0150   34.0580   48.0030 H   0  0  0  0  0  0  0  0  0  0  0  0
   35.0780   30.3950   48.3600 C   0  0  0  0  0  0  0  0  0  0  0  0
   36.1640   30.5580   49.2210 C   0  0  0  0  0  0  0  0  0  0  0  0
   36.2080   29.7750   50.3790 C   0  0  0  0  0  0  0  0  0  0  0  0
   35.1920   28.8980   50.6030 N   0  0  0  0  0  0  0  0  0  0  0  0
   34.1510   28.7740   49.7310 C   0  0  0  0  0  0  0  0  0  0  0  0
   34.0970   29.5150   48.6240 N   0  0  0  0  0  0  0  0  0  0  0  0
   35.0530   31.0040   47.4690 H   0  0  0  0  0  0  0  0  0  0  0  0
   33.4130   28.0300   50.0470 H   0  0  0  0  0  0  0  0  0  0  0  0
   37.3340   29.9020   51.3280 C   0  0  0  0  0  0  0  0  0  0  0  0
   37.4970   30.9370   51.6550 H   0  0  0  0  0  0  0  0  0  0  0  0
   38.2570   29.5380   50.8240 H   0  0  0  0  0  0  0  0  0  0  0  0
   37.1380   29.2310   52.1860 H   0  0  0  0  0  0  0  0  0  0  0  0
   37.9630   30.2190   47.0310 O   0  0  0  0  0  0  0  0  0  0  0  0
   37.1700   30.0590   46.4480 H   0  0  0  0  0  0  0  0  0  0  0  0
   39.9180   32.0220   46.4340 O   0  0  0  0  0  0  0  0  0  0  0  0
   40.3830   33.0240   45.6340 C   0  0  0  0  0  3  0  0  0  0  0  0
   39.8880   33.4110   44.4680 C   0  0  0  0  0  3  0  0  0  0  0  0
   38.6950   32.7120   43.9260 C   0  0  0  0  0  2  0  0  0  0  0  0
   38.1530   32.2330   44.7670 H   0  0  0  0  0  0  0  0  0  0  0  0
  1  2  1  0  0  0  0
  2 11  1  0  0  0  0
  2  3  2  0  0  0  0
  3  7  1  0  0  0  0
  4  3  1  0  0  0  0
  4  8  1  0  0  0  0
  5  4  2  0  0  0  0
  6  1  2  0  0  0  0
  6  5  1  0  0  0  0
  9  5  1  0  0  0  0
 10 15  2  0  0  0  0
 10 11  1  0  0  0  0
 11 12  2  0  0  0  0
 12 13  1  0  0  0  0
 12 18  1  0  0  0  0
 14 17  1  0  0  0  0
 14 13  2  0  0  0  0
 15 14  1  0  0  0  0
 16 10  1  0  0  0  0
 18 19  1  0  0  0  0
 18 21  1  0  0  0  0
 20 18  1  0  0  0  0
 22  1  1  0  0  0  0
 23 22  1  0  0  0  0
 24  6  1  0  0  0  0
 25 24  1  0  0  0  0
 26 25  2  0  0  0  0
 27 26  1  0  0  0  0
 27 28  1  0  0  0  0
M  END
>  <minimizedAffinity>
-6.1796236

>  <minimizedRMSD>
1.13537526

$$$$
