
 OpenBabel03272507553D

 22 23  0  0  0  0  0  0  0  0999 V2000
   35.0840   29.3590   50.4900 C   0  0  0  0  0  0  0  0  0  0  0  0
   36.1400   29.9660   49.7560 C   0  0  0  0  0  0  0  0  0  0  0  0
   36.0750   29.9250   48.3710 C   0  0  0  0  0  0  0  0  0  0  0  0
   35.0070   29.3060   47.7900 N   0  0  0  0  0  0  0  0  0  0  0  0
   34.0220   28.7390   48.5120 C   0  0  0  0  0  0  0  0  0  0  0  0
   34.0580   28.7650   49.8670 N   0  0  0  0  0  0  0  0  0  0  0  0
   33.0210   28.1580   47.6830 N   0  0  0  0  0  0  0  0  0  0  0  0
   35.1310   29.3910   51.5490 H   0  0  0  0  0  0  0  0  0  0  0  0
   32.5890   28.7070   46.9210 H   0  0  0  0  0  0  0  0  0  0  0  0
   32.8230   27.1700   47.9630 H   0  0  0  0  0  0  0  0  0  0  0  0
   37.1250   30.5020   47.5510 C   0  0  0  0  0  0  0  0  0  0  0  0
   36.9020   31.0590   46.3100 C   0  0  0  0  0  0  0  0  0  0  0  0
   35.9290   31.1290   45.8090 H   0  0  0  0  0  0  0  0  0  0  0  0
   38.0630   31.5350   45.7430 C   0  0  0  0  0  0  0  0  0  0  0  0
   38.2520   32.0230   44.7980 H   0  0  0  0  0  0  0  0  0  0  0  0
   38.9970   31.2350   46.7100 C   0  0  0  0  0  0  0  0  0  0  0  0
   40.0670   31.4190   46.7180 H   0  0  0  0  0  0  0  0  0  0  0  0
   38.4080   30.6580   47.6970 O   0  0  0  0  0  0  0  0  0  0  0  0
   37.2610   30.6140   50.4980 C   0  0  0  0  0  0  0  0  0  0  0  0
   38.4690   30.0410   50.1580 F   0  0  0  0  0  0  0  0  0  0  0  0
   37.2740   31.9420   50.1880 F   0  0  0  0  0  0  0  0  0  0  0  0
   37.1160   30.4930   51.8690 F   0  0  0  0  0  0  0  0  0  0  0  0
  1  8  1  0  0  0  0
  2  1  2  0  0  0  0
  2 19  1  0  0  0  0
  3  2  1  0  0  0  0
  4  3  2  0  0  0  0
  4  5  1  0  0  0  0
  5  6  2  0  0  0  0
  6  1  1  0  0  0  0
  7 10  1  0  0  0  0
  7  5  1  0  0  0  0
  9  7  1  0  0  0  0
 11 18  1  0  0  0  0
 11  3  1  0  0  0  0
 12 11  2  0  0  0  0
 13 12  1  0  0  0  0
 14 12  1  0  0  0  0
 14 16  2  0  0  0  0
 15 14  1  0  0  0  0
 16 17  1  0  0  0  0
 16 18  1  0  0  0  0
 19 22  1  0  0  0  0
 20 19  1  0  0  0  0
 21 19  1  0  0  0  0
M  END
>  <minimizedAffinity>
-5.15435982

>  <minimizedRMSD>
1.16702223

$$$$
