
 OpenBabel03272501193D

 29 31  0  0  0  0  0  0  0  0999 V2000
   38.7430   31.6940   47.8780 C   0  0  0  0  0  0  0  0  0  0  0  0
   38.1020   32.0020   49.0620 C   0  0  0  0  0  0  0  0  0  0  0  0
   38.3690   33.2820   49.5650 C   0  0  0  0  0  0  0  0  0  0  0  0
   39.2210   34.1570   48.9010 C   0  0  0  0  0  0  0  0  0  0  0  0
   39.8260   33.7590   47.7080 C   0  0  0  0  0  0  0  0  0  0  0  0
   39.5790   32.4950   47.1860 C   0  0  0  0  0  0  0  0  0  0  0  0
   37.9130   33.6150   50.4860 H   0  0  0  0  0  0  0  0  0  0  0  0
   39.4390   35.1500   49.2740 H   0  0  0  0  0  0  0  0  0  0  0  0
   40.4950   34.4480   47.1860 H   0  0  0  0  0  0  0  0  0  0  0  0
   35.9250   30.8840   49.2830 C   0  0  0  0  0  0  0  0  0  0  0  0
   37.2240   31.0970   49.7450 C   0  0  0  0  0  0  0  0  0  0  0  0
   37.6160   30.3930   50.8920 C   0  0  0  0  0  0  0  0  0  0  0  0
   36.7150   29.5540   51.4770 N   0  0  0  0  0  0  0  0  0  0  0  0
   35.4710   29.3830   50.9910 C   0  0  0  0  0  0  0  0  0  0  0  0
   35.0740   30.0530   49.8880 N   0  0  0  0  0  0  0  0  0  0  0  0
   35.5840   31.4100   48.4010 H   0  0  0  0  0  0  0  0  0  0  0  0
   38.6190   30.5590   51.2450 H   0  0  0  0  0  0  0  0  0  0  0  0
   34.9600   28.6710   51.6310 H   0  0  0  0  0  0  0  0  0  0  0  0
   38.5400   30.4390   47.2960 O   0  0  0  0  0  0  0  0  0  0  0  0
   37.7120   30.2430   46.7170 H   0  0  0  0  0  0  0  0  0  0  0  0
   40.2020   32.1550   46.0060 O   0  0  0  0  0  0  0  0  0  0  0  0
   39.6540   32.3400   44.7440 C   0  0  0  0  0  0  0  0  0  0  0  0
   40.3130   31.6560   43.7230 C   0  0  0  0  0  0  0  0  0  0  0  0
   41.1680   30.9960   43.6380 H   0  0  0  0  0  0  0  0  0  0  0  0
   39.6290   31.9580   42.5410 C   0  0  0  0  0  0  0  0  0  0  0  0
   39.6880   31.7230   41.4870 H   0  0  0  0  0  0  0  0  0  0  0  0
   38.6030   32.8030   42.9260 C   0  0  0  0  0  0  0  0  0  0  0  0
   37.7670   33.3550   42.4860 H   0  0  0  0  0  0  0  0  0  0  0  0
   38.6450   33.0060   44.2240 O   0  0  0  0  0  0  0  0  0  0  0  0
  1  2  1  0  0  0  0
  2  3  2  0  0  0  0
  2 11  1  0  0  0  0
  3  7  1  0  0  0  0
  4  8  1  0  0  0  0
  4  3  1  0  0  0  0
  5  4  2  0  0  0  0
  6  5  1  0  0  0  0
  6  1  2  0  0  0  0
  9  5  1  0  0  0  0
 10 11  2  0  0  0  0
 10 15  1  0  0  0  0
 11 12  1  0  0  0  0
 12 17  1  0  0  0  0
 12 13  2  0  0  0  0
 14 13  1  0  0  0  0
 14 18  1  0  0  0  0
 15 14  2  0  0  0  0
 16 10  1  0  0  0  0
 19  1  1  0  0  0  0
 20 19  1  0  0  0  0
 21  6  1  0  0  0  0
 22 21  1  0  0  0  0
 23 22  2  0  0  0  0
 24 23  1  0  0  0  0
 25 27  2  0  0  0  0
 25 23  1  0  0  0  0
 26 25  1  0  0  0  0
 27 29  1  0  0  0  0
 28 27  1  0  0  0  0
 29 22  1  0  0  0  0
M  END
>  <minimizedAffinity>
-6.05731201

>  <minimizedRMSD>
0.553895414

$$$$
