
 OpenBabel03262520213D

 22 23  0  0  0  0  0  0  0  0999 V2000
   34.6230   29.5830   47.7690 C   0  0  0  0  0  0  0  0  0  0  0  0
   35.9340   30.1320   47.8220 C   0  0  0  0  0  0  0  0  0  0  0  0
   36.4880   30.5380   46.6270 C   0  0  0  0  0  0  0  0  0  0  0  0
   35.7220   30.3790   45.4930 N   0  0  0  0  0  0  0  0  0  0  0  0
   34.4990   29.8660   45.4700 C   0  0  0  0  0  0  0  0  0  0  0  0
   33.9610   29.4690   46.6250 N   0  0  0  0  0  0  0  0  0  0  0  0
   33.8480   29.8070   44.2200 N   0  0  0  0  0  0  0  0  0  0  0  0
   34.0320   29.2130   48.5880 H   0  0  0  0  0  0  0  0  0  0  0  0
   32.9510   30.3600   44.1340 H   0  0  0  0  0  0  0  0  0  0  0  0
   34.3080   29.2230   43.4920 H   0  0  0  0  0  0  0  0  0  0  0  0
   36.4980   30.2070   49.1680 C   0  0  0  0  0  0  0  0  0  0  0  0
   36.6110   29.1110   49.9950 C   0  0  0  0  0  0  0  0  0  0  0  0
   36.3380   28.0440   49.8540 H   0  0  0  0  0  0  0  0  0  0  0  0
   37.1640   29.3800   51.2150 C   0  0  0  0  0  0  0  0  0  0  0  0
   37.3950   28.7850   52.0760 H   0  0  0  0  0  0  0  0  0  0  0  0
   37.3950   30.7220   51.1090 C   0  0  0  0  0  0  0  0  0  0  0  0
   37.8270   31.4530   51.8040 H   0  0  0  0  0  0  0  0  0  0  0  0
   36.9970   31.0820   49.9550 O   0  0  0  0  0  0  0  0  0  0  0  0
   37.8490   31.1110   46.5930 C   0  0  0  0  0  0  0  0  0  0  0  0
   38.6430   30.2670   47.2460 F   0  0  0  0  0  0  0  0  0  0  0  0
   38.3440   31.2900   45.3110 F   0  0  0  0  0  0  0  0  0  0  0  0
   37.8830   32.3850   47.2060 F   0  0  0  0  0  0  0  0  0  0  0  0
  1  2  1  0  0  0  0
  1  8  1  0  0  0  0
  2 11  1  0  0  0  0
  3  2  2  0  0  0  0
  4  3  1  0  0  0  0
  5  4  2  0  0  0  0
  5  6  1  0  0  0  0
  6  1  2  0  0  0  0
  7  5  1  0  0  0  0
  9  7  1  0  0  0  0
 10  7  1  0  0  0  0
 11 18  1  0  0  0  0
 11 12  2  0  0  0  0
 12 14  1  0  0  0  0
 13 12  1  0  0  0  0
 14 15  1  0  0  0  0
 16 14  2  0  0  0  0
 16 17  1  0  0  0  0
 18 16  1  0  0  0  0
 19  3  1  0  0  0  0
 19 22  1  0  0  0  0
 19 20  1  0  0  0  0
 21 19  1  0  0  0  0
M  END
>  <minimizedAffinity>
-4.61587381

>  <minimizedRMSD>
3.88163853

$$$$
