
 OpenBabel03272509353D

 46 50  0  0  1  0  0  0  0  0999 V2000
   36.3570   30.6770   45.0440 C   0  0  1  0  0  0  0  0  0  0  0  0
   37.4140   31.5780   45.5660 C   0  0  0  0  0  0  0  0  0  0  0  0
   37.8760   30.2450   45.2410 C   0  0  2  0  0  0  0  0  0  0  0  0
   36.0800   30.5520   44.0040 H   0  0  0  0  0  0  0  0  0  0  0  0
   37.2810   31.8640   46.6620 H   0  0  0  0  0  0  0  0  0  0  0  0
   37.4140   32.4990   44.9660 H   0  0  0  0  0  0  0  0  0  0  0  0
   37.8830   29.3510   45.8520 H   0  0  0  0  0  0  0  0  0  0  0  0
   38.7340   30.2460   44.0110 C   0  0  0  0  0  0  0  0  0  0  0  0
   39.1930   31.5450   43.7520 C   0  0  0  0  0  0  0  0  0  0  0  0
   40.0920   31.7730   42.7400 C   0  0  0  0  0  0  0  0  0  0  0  0
   40.5700   30.7240   41.9460 C   0  0  0  0  0  0  0  0  0  0  0  0
   40.0960   29.4520   42.2300 C   0  0  0  0  0  0  0  0  0  0  0  0
   40.4720   28.3490   41.5190 C   0  0  0  0  0  0  0  0  0  0  0  0
   39.9980   27.0800   41.7730 C   0  0  0  0  0  0  0  0  0  0  0  0
   39.0910   26.9130   42.8070 C   0  0  0  0  0  0  0  0  0  0  0  0
   38.7110   28.0200   43.5250 C   0  0  0  0  0  0  0  0  0  0  0  0
   39.2130   29.2740   43.2340 C   0  0  0  0  0  0  0  0  0  0  0  0
   39.0430   32.5220   44.1670 H   0  0  0  0  0  0  0  0  0  0  0  0
   40.5470   32.6940   42.4020 H   0  0  0  0  0  0  0  0  0  0  0  0
   41.2760   30.7580   41.1210 H   0  0  0  0  0  0  0  0  0  0  0  0
   41.1800   28.4370   40.7040 H   0  0  0  0  0  0  0  0  0  0  0  0
   40.2790   26.1890   41.2260 H   0  0  0  0  0  0  0  0  0  0  0  0
   38.6780   25.9460   43.0620 H   0  0  0  0  0  0  0  0  0  0  0  0
   37.9880   27.8650   44.3460 H   0  0  0  0  0  0  0  0  0  0  0  0
   33.7680   28.4360   46.6110 C   0  0  0  0  0  0  0  0  0  0  0  0
   34.6270   29.0320   45.6450 C   0  0  0  0  0  0  0  0  0  0  0  0
   35.4660   30.0340   46.0430 C   0  0  0  0  0  0  0  0  0  0  0  0
   35.4080   30.3870   47.3610 N   0  0  0  0  0  0  0  0  0  0  0  0
   34.6100   29.8370   48.2730 C   0  0  0  0  0  0  0  0  0  0  0  0
   33.7650   28.8390   47.9050 N   0  0  0  0  0  0  0  0  0  0  0  0
   33.1340   27.6610   46.2500 H   0  0  0  0  0  0  0  0  0  0  0  0
   34.6280   28.7150   44.6310 H   0  0  0  0  0  0  0  0  0  0  0  0
   34.6990   30.3140   49.7050 C   0  0  0  0  0  0  0  0  0  0  0  0
   34.5910   31.4160   49.6560 H   0  0  0  0  0  0  0  0  0  0  0  0
   33.9230   29.8320   50.2970 H   0  0  0  0  0  0  0  0  0  0  0  0
   36.1000   29.9560   50.1910 C   0  0  0  0  0  0  0  0  0  0  0  0
   36.0370   29.9310   51.3090 H   0  0  0  0  0  0  0  0  0  0  0  0
   36.3880   28.9410   49.8220 H   0  0  0  0  0  0  0  0  0  0  0  0
   37.0790   30.9960   49.8170 C   0  0  0  0  0  0  0  0  0  0  0  0
   38.3480   31.1310   49.2960 C   0  0  0  0  0  0  0  0  0  0  0  0
   38.8770   30.2410   49.0430 H   0  0  0  0  0  0  0  0  0  0  0  0
   38.6610   32.4710   49.2050 C   0  0  0  0  0  0  0  0  0  0  0  0
   39.6040   32.8420   48.8260 H   0  0  0  0  0  0  0  0  0  0  0  0
   37.5400   33.0930   49.6850 C   0  0  0  0  0  0  0  0  0  0  0  0
   37.4860   34.1890   49.7390 H   0  0  0  0  0  0  0  0  0  0  0  0
   36.6240   32.2090   50.0400 O   0  0  0  0  0  0  0  0  0  0  0  0
  1  4  1  6  0  0  0
  1  3  1  0  0  0  0
  1  2  1  0  0  0  0
  1 27  1  0  0  0  0
  2  5  1  0  0  0  0
  3  2  1  0  0  0  0
  3  7  1  1  0  0  0
  6  2  1  0  0  0  0
  8  3  1  0  0  0  0
  9  8  1  0  0  0  0
  9 18  1  0  0  0  0
 10  9  2  0  0  0  0
 11 12  2  0  0  0  0
 11 10  1  0  0  0  0
 12 17  1  0  0  0  0
 13 14  2  0  0  0  0
 13 12  1  0  0  0  0
 14 15  1  0  0  0  0
 15 23  1  0  0  0  0
 15 16  2  0  0  0  0
 16 24  1  0  0  0  0
 17 16  1  0  0  0  0
 17  8  2  0  0  0  0
 19 10  1  0  0  0  0
 20 11  1  0  0  0  0
 21 13  1  0  0  0  0
 22 14  1  0  0  0  0
 25 30  1  0  0  0  0
 26 27  1  0  0  0  0
 26 25  2  0  0  0  0
 27 28  2  0  0  0  0
 28 29  1  0  0  0  0
 29 33  1  0  0  0  0
 30 29  2  0  0  0  0
 31 25  1  0  0  0  0
 32 26  1  0  0  0  0
 33 36  1  0  0  0  0
 33 35  1  0  0  0  0
 34 33  1  0  0  0  0
 36 37  1  0  0  0  0
 38 36  1  0  0  0  0
 39 46  1  0  0  0  0
 39 36  1  0  0  0  0
 40 39  2  0  0  0  0
 41 40  1  0  0  0  0
 42 40  1  0  0  0  0
 42 44  2  0  0  0  0
 43 42  1  0  0  0  0
 44 45  1  0  0  0  0
 44 46  1  0  0  0  0
M  END
>  <minimizedAffinity>
-5.85472679

>  <minimizedRMSD>
2.38057089

$$$$
