
 OpenBabel03262520213D

 22 23  0  0  0  0  0  0  0  0999 V2000
   36.0460   29.3480   51.1000 C   0  0  0  0  0  0  0  0  0  0  0  0
   36.1080   30.4540   50.2080 C   0  0  0  0  0  0  0  0  0  0  0  0
   35.0960   30.5630   49.2780 C   0  0  0  0  0  0  0  0  0  0  0  0
   34.1180   29.5940   49.3000 N   0  0  0  0  0  0  0  0  0  0  0  0
   34.0800   28.5720   50.1450 C   0  0  0  0  0  0  0  0  0  0  0  0
   35.0600   28.4630   51.0450 N   0  0  0  0  0  0  0  0  0  0  0  0
   32.9830   27.6910   50.0440 N   0  0  0  0  0  0  0  0  0  0  0  0
   36.7380   29.0970   51.8850 H   0  0  0  0  0  0  0  0  0  0  0  0
   32.3610   27.6200   50.8950 H   0  0  0  0  0  0  0  0  0  0  0  0
   32.8830   27.1870   49.1380 H   0  0  0  0  0  0  0  0  0  0  0  0
   37.2470   31.3420   50.4340 C   0  0  0  0  0  0  0  0  0  0  0  0
   38.0810   31.2300   51.5240 C   0  0  0  0  0  0  0  0  0  0  0  0
   38.0880   30.5280   52.3840 H   0  0  0  0  0  0  0  0  0  0  0  0
   39.0900   32.1500   51.5580 C   0  0  0  0  0  0  0  0  0  0  0  0
   39.8960   32.3490   52.2380 H   0  0  0  0  0  0  0  0  0  0  0  0
   38.8420   32.8570   50.4160 C   0  0  0  0  0  0  0  0  0  0  0  0
   39.3480   33.7140   49.9540 H   0  0  0  0  0  0  0  0  0  0  0  0
   37.8150   32.3400   49.8710 O   0  0  0  0  0  0  0  0  0  0  0  0
   35.0910   31.6770   48.3100 C   0  0  0  0  0  0  0  0  0  0  0  0
   36.3140   32.2010   48.3120 F   0  0  0  0  0  0  0  0  0  0  0  0
   34.7730   31.2880   47.0180 F   0  0  0  0  0  0  0  0  0  0  0  0
   34.1400   32.6600   48.6660 F   0  0  0  0  0  0  0  0  0  0  0  0
  1  8  1  0  0  0  0
  2 11  1  0  0  0  0
  2  1  2  0  0  0  0
  3  4  2  0  0  0  0
  3  2  1  0  0  0  0
  4  5  1  0  0  0  0
  5  6  2  0  0  0  0
  6  1  1  0  0  0  0
  7  5  1  0  0  0  0
  7  9  1  0  0  0  0
 10  7  1  0  0  0  0
 11 12  2  0  0  0  0
 12 14  1  0  0  0  0
 12 13  1  0  0  0  0
 14 15  1  0  0  0  0
 16 14  2  0  0  0  0
 17 16  1  0  0  0  0
 18 16  1  0  0  0  0
 18 11  1  0  0  0  0
 19 20  1  0  0  0  0
 19 22  1  0  0  0  0
 19  3  1  0  0  0  0
 21 19  1  0  0  0  0
M  END
>  <minimizedAffinity>
9.90635681

>  <minimizedRMSD>
2.48838711

$$$$
