
 OpenBabel03272500123D

 20 21  0  0  0  0  0  0  0  0999 V2000
   35.6300   29.3750   50.5340 C   0  0  0  0  0  0  0  0  0  0  0  0
   36.1990   30.3050   49.6480 C   0  0  0  0  0  0  0  0  0  0  0  0
   35.7030   30.3780   48.3420 C   0  0  0  0  0  0  0  0  0  0  0  0
   34.6880   29.5410   47.9850 N   0  0  0  0  0  0  0  0  0  0  0  0
   34.1610   28.6560   48.8650 C   0  0  0  0  0  0  0  0  0  0  0  0
   34.6220   28.5720   50.1160 N   0  0  0  0  0  0  0  0  0  0  0  0
   36.0170   29.3270   51.5350 H   0  0  0  0  0  0  0  0  0  0  0  0
   36.1320   31.0800   47.6720 H   0  0  0  0  0  0  0  0  0  0  0  0
   33.0750   27.7430   48.5230 C   0  0  0  0  0  0  0  0  0  0  0  0
   33.1830   26.6390   47.7020 C   0  0  0  0  0  0  0  0  0  0  0  0
   34.0390   26.2570   47.1800 H   0  0  0  0  0  0  0  0  0  0  0  0
   31.9220   26.0770   47.6600 C   0  0  0  0  0  0  0  0  0  0  0  0
   31.5470   25.2040   47.1410 H   0  0  0  0  0  0  0  0  0  0  0  0
   31.1030   26.8550   48.4530 C   0  0  0  0  0  0  0  0  0  0  0  0
   30.0530   26.8100   48.7220 H   0  0  0  0  0  0  0  0  0  0  0  0
   31.8400   27.8230   48.9350 O   0  0  0  0  0  0  0  0  0  0  0  0
   37.3110   31.1740   50.1470 C   0  0  0  0  0  0  0  0  0  0  0  0
   38.3660   31.2050   49.2140 F   0  0  0  0  0  0  0  0  0  0  0  0
   36.8390   32.4550   50.2630 F   0  0  0  0  0  0  0  0  0  0  0  0
   37.8270   30.7450   51.3430 F   0  0  0  0  0  0  0  0  0  0  0  0
  1  7  1  0  0  0  0
  2 17  1  0  0  0  0
  2  1  2  0  0  0  0
  3  2  1  0  0  0  0
  4  3  2  0  0  0  0
  4  5  1  0  0  0  0
  5  6  2  0  0  0  0
  6  1  1  0  0  0  0
  8  3  1  0  0  0  0
  9  5  1  0  0  0  0
  9 16  1  0  0  0  0
 10  9  2  0  0  0  0
 11 10  1  0  0  0  0
 12 10  1  0  0  0  0
 12 14  2  0  0  0  0
 13 12  1  0  0  0  0
 14 15  1  0  0  0  0
 14 16  1  0  0  0  0
 17 19  1  0  0  0  0
 17 20  1  0  0  0  0
 18 17  1  0  0  0  0
M  END
>  <minimizedAffinity>
-4.96331167

>  <minimizedRMSD>
1.04118133

$$$$
