
 OpenBabel03272507283D

 40 42  0  0  1  0  0  0  0  0999 V2000
   37.9310   30.4630   48.7590 C   0  0  0  0  0  0  0  0  0  0  0  0
   38.0050   30.8920   47.4190 C   0  0  0  0  0  0  0  0  0  0  0  0
   36.8620   30.7080   46.6380 C   0  0  0  0  0  0  0  0  0  0  0  0
   35.7740   30.1490   47.1860 N   0  0  0  0  0  0  0  0  0  0  0  0
   35.7430   29.7520   48.4750 C   0  0  0  0  0  0  0  0  0  0  0  0
   36.8130   29.9100   49.2510 N   0  0  0  0  0  0  0  0  0  0  0  0
   36.8540   31.0940   45.3000 N   0  0  0  0  0  0  0  0  0  0  0  0
   37.6120   32.2330   44.7170 C   0  0  0  0  0  0  0  0  0  0  0  0
   37.1170   32.4600   43.3430 C   0  0  0  0  0  0  0  0  0  0  0  0
   35.8430   31.7470   43.3160 C   0  0  0  0  0  0  0  0  0  0  0  0
   36.1590   30.5760   44.1640 C   0  0  2  0  0  0  0  0  0  0  0  0
   38.8310   30.6180   49.3370 H   0  0  0  0  0  0  0  0  0  0  0  0
   38.8670   31.3440   46.9560 H   0  0  0  0  0  0  0  0  0  0  0  0
   34.9070   29.2960   48.9850 H   0  0  0  0  0  0  0  0  0  0  0  0
   38.6610   32.2440   44.9200 H   0  0  0  0  0  0  0  0  0  0  0  0
   37.2240   33.0760   45.4050 H   0  0  0  0  0  0  0  0  0  0  0  0
   37.7480   32.5510   42.5000 H   0  0  0  0  0  0  0  0  0  0  0  0
   36.7380   33.5900   43.3880 H   0  0  0  0  0  0  0  0  0  0  0  0
   34.9560   32.2770   43.6850 H   0  0  0  0  0  0  0  0  0  0  0  0
   35.5990   31.4170   42.2650 H   0  0  0  0  0  0  0  0  0  0  0  0
   34.8770   29.8120   44.5050 C   0  0  0  0  0  0  0  0  0  0  0  0
   34.1930   30.5320   45.4630 F   0  0  0  0  0  0  0  0  0  0  0  0
   35.0540   28.5600   45.0080 F   0  0  0  0  0  0  0  0  0  0  0  0
   34.0940   29.8360   43.3680 F   0  0  0  0  0  0  0  0  0  0  0  0
   37.0230   29.6250   43.5200 C   0  0  2  0  0  0  0  0  0  0  0  0
   37.3420   28.8470   44.1880 H   0  0  0  0  0  0  0  0  0  0  0  0
   38.4670   30.1070   43.0810 C   0  0  0  0  0  0  0  0  0  0  0  0
   39.6090   29.8780   43.9020 C   0  0  0  0  0  0  0  0  0  0  0  0
   39.6450   29.3770   44.8890 H   0  0  0  0  0  0  0  0  0  0  0  0
   40.7520   30.3700   43.3160 C   0  0  0  0  0  0  0  0  0  0  0  0
   41.7580   30.3470   43.6910 H   0  0  0  0  0  0  0  0  0  0  0  0
   40.2410   30.8820   42.1500 C   0  0  0  0  0  0  0  0  0  0  0  0
   40.7770   31.3790   41.3580 H   0  0  0  0  0  0  0  0  0  0  0  0
   38.9610   30.7240   42.0380 O   0  0  0  0  0  0  0  0  0  0  0  0
   36.5240   29.3440   42.4010 O   0  0  0  0  0  0  0  0  0  0  0  0
   36.4770   28.3310   41.5180 C   0  0  0  0  0  0  0  0  0  0  0  0
   35.6440   27.4770   41.8310 O   0  0  0  0  0  0  0  0  0  0  0  0
   36.9660   27.7520   40.3160 N   0  0  0  0  0  0  0  0  0  0  0  0
   36.5130   28.1660   39.4670 H   0  0  0  0  0  0  0  0  0  0  0  0
   37.6890   27.0010   40.2710 H   0  0  0  0  0  0  0  0  0  0  0  0
  1  6  1  0  0  0  0
  1 12  1  0  0  0  0
  2  1  2  0  0  0  0
  3  4  2  0  0  0  0
  3  2  1  0  0  0  0
  4  5  1  0  0  0  0
  5 14  1  0  0  0  0
  5  6  2  0  0  0  0
  7  3  1  0  0  0  0
  8 15  1  0  0  0  0
  8  7  1  0  0  0  0
  8 16  1  0  0  0  0
  9 18  1  0  0  0  0
  9  8  1  0  0  0  0
 10  9  1  0  0  0  0
 10 19  1  0  0  0  0
 10 11  1  0  0  0  0
 11 21  1  1  0  0  0
 11  7  1  0  0  0  0
 13  2  1  0  0  0  0
 17  9  1  0  0  0  0
 20 10  1  0  0  0  0
 21 23  1  0  0  0  0
 21 22  1  0  0  0  0
 24 21  1  0  0  0  0
 25 11  1  0  0  0  0
 25 26  1  1  0  0  0
 27 25  1  0  0  0  0
 27 28  2  0  0  0  0
 28 29  1  0  0  0  0
 30 31  1  0  0  0  0
 30 28  1  0  0  0  0
 32 30  2  0  0  0  0
 33 32  1  0  0  0  0
 34 32  1  0  0  0  0
 34 27  1  0  0  0  0
 35 25  1  0  0  0  0
 36 37  2  0  0  0  0
 36 35  1  0  0  0  0
 38 36  1  0  0  0  0
 39 38  1  0  0  0  0
 40 38  1  0  0  0  0
M  END
>  <minimizedAffinity>
-4.00818825

>  <minimizedRMSD>
3.52499676

$$$$
