
 OpenBabel03272509573D

 45 48  0  0  0  0  0  0  0  0999 V2000
   34.5430   28.2500   48.4030 C   0  0  0  0  0  0  0  0  0  0  0  0
   35.5280   27.7280   48.3120 H   0  0  0  0  0  0  0  0  0  0  0  0
   34.5170   28.9940   47.5940 H   0  0  0  0  0  0  0  0  0  0  0  0
   33.4940   27.1820   48.2670 C   0  0  0  0  0  0  0  0  0  0  0  0
   33.3300   26.6930   49.2280 H   0  0  0  0  0  0  0  0  0  0  0  0
   33.8050   26.3840   47.5490 H   0  0  0  0  0  0  0  0  0  0  0  0
   32.1980   27.7120   47.7500 C   0  0  0  0  0  0  0  0  0  0  0  0
   31.0980   27.6900   48.6110 C   0  0  0  0  0  0  0  0  0  0  0  0
   29.8690   28.1570   48.2180 C   0  0  0  0  0  0  0  0  0  0  0  0
   29.7180   28.6450   46.9820 N   0  0  0  0  0  0  0  0  0  0  0  0
   30.8040   28.6550   46.1610 C   0  0  0  0  0  0  0  0  0  0  0  0
   32.0200   28.2060   46.5120 N   0  0  0  0  0  0  0  0  0  0  0  0
   31.1510   27.3100   49.6230 H   0  0  0  0  0  0  0  0  0  0  0  0
   29.0020   28.1500   48.8680 H   0  0  0  0  0  0  0  0  0  0  0  0
   30.5800   29.2120   44.7840 C   0  0  0  0  0  0  0  0  0  0  0  0
   31.3010   28.6810   44.1280 H   0  0  0  0  0  0  0  0  0  0  0  0
   29.5660   28.9060   44.4430 H   0  0  0  0  0  0  0  0  0  0  0  0
   30.7430   30.6880   44.7740 C   0  0  0  0  0  0  0  0  0  0  0  0
   31.8820   31.3370   45.2120 C   0  0  0  0  0  0  0  0  0  0  0  0
   32.7720   30.8320   45.6080 H   0  0  0  0  0  0  0  0  0  0  0  0
   31.6230   32.6830   45.0330 C   0  0  0  0  0  0  0  0  0  0  0  0
   32.3900   33.4030   45.3130 H   0  0  0  0  0  0  0  0  0  0  0  0
   30.3360   32.7860   44.4940 C   0  0  0  0  0  0  0  0  0  0  0  0
   29.9840   33.7900   44.2940 H   0  0  0  0  0  0  0  0  0  0  0  0
   29.8850   31.5750   44.3710 O   0  0  0  0  0  0  0  0  0  0  0  0
   34.5360   28.8300   49.6900 O   0  0  0  0  0  0  0  0  0  0  0  0
   37.2850   30.0250   51.7110 C   0  0  0  0  0  0  0  0  0  0  0  0
   38.0600   30.6790   50.7290 C   0  0  0  0  0  0  0  0  0  0  0  0
   37.5770   30.6630   49.4260 C   0  0  0  0  0  0  0  0  0  0  0  0
   36.3900   30.0100   49.2230 N   0  0  0  0  0  0  0  0  0  0  0  0
   35.6760   29.4010   50.1590 C   0  0  0  0  0  0  0  0  0  0  0  0
   36.1420   29.4140   51.4270 N   0  0  0  0  0  0  0  0  0  0  0  0
   37.6930   30.0580   52.7190 H   0  0  0  0  0  0  0  0  0  0  0  0
   38.9860   31.1860   50.8990 H   0  0  0  0  0  0  0  0  0  0  0  0
   38.8180   33.2770   49.2640 F   0  0  0  0  0  0  0  0  0  0  0  0
   38.8070   32.4850   48.1980 C   0  0  0  0  0  0  0  0  0  0  0  0
   38.2300   31.2780   48.2840 C   0  0  0  0  0  0  0  0  0  0  0  0
   38.2750   30.5340   47.1160 C   0  0  0  0  0  0  0  0  0  0  0  0
   38.8580   30.9900   45.9650 C   0  0  0  0  0  0  0  0  0  0  0  0
   39.4430   32.2420   45.9170 C   0  0  0  0  0  0  0  0  0  0  0  0
   39.4080   32.9830   47.0540 C   0  0  0  0  0  0  0  0  0  0  0  0
   37.8350   29.5310   47.0630 H   0  0  0  0  0  0  0  0  0  0  0  0
   38.8780   30.3850   45.0650 H   0  0  0  0  0  0  0  0  0  0  0  0
   39.9170   32.6440   45.0250 H   0  0  0  0  0  0  0  0  0  0  0  0
   39.8590   33.9670   47.0430 H   0  0  0  0  0  0  0  0  0  0  0  0
  1 26  1  0  0  0  0
  2  1  1  0  0  0  0
  3  1  1  0  0  0  0
  4  1  1  0  0  0  0
  4  5  1  0  0  0  0
  6  4  1  0  0  0  0
  7  4  1  0  0  0  0
  7  8  1  0  0  0  0
  8 13  1  0  0  0  0
  9  8  2  0  0  0  0
  9 14  1  0  0  0  0
 10  9  1  0  0  0  0
 11 12  1  0  0  0  0
 11 10  2  0  0  0  0
 12  7  2  0  0  0  0
 15 11  1  0  0  0  0
 16 15  1  0  0  0  0
 17 15  1  0  0  0  0
 18 15  1  0  0  0  0
 18 19  2  0  0  0  0
 19 20  1  0  0  0  0
 21 19  1  0  0  0  0
 21 22  1  0  0  0  0
 23 21  2  0  0  0  0
 24 23  1  0  0  0  0
 25 23  1  0  0  0  0
 25 18  1  0  0  0  0
 26 31  1  0  0  0  0
 27 33  1  0  0  0  0
 28 34  1  0  0  0  0
 28 27  2  0  0  0  0
 29 28  1  0  0  0  0
 30 29  2  0  0  0  0
 30 31  1  0  0  0  0
 31 32  2  0  0  0  0
 32 27  1  0  0  0  0
 36 37  1  0  0  0  0
 36 35  1  0  0  0  0
 37 29  1  0  0  0  0
 38 37  2  0  0  0  0
 39 38  1  0  0  0  0
 40 39  2  0  0  0  0
 40 41  1  0  0  0  0
 41 36  2  0  0  0  0
 42 38  1  0  0  0  0
 43 39  1  0  0  0  0
 44 40  1  0  0  0  0
 45 41  1  0  0  0  0
M  END
>  <minimizedAffinity>
-6.24235296

>  <minimizedRMSD>
1.05581284

$$$$
