
 OpenBabel03272509593D

 45 48  0  0  0  0  0  0  0  0999 V2000
   37.8490   27.4150   35.2980 C   0  0  0  0  0  0  0  0  0  0  0  0
   37.0530   27.1410   36.0350 H   0  0  0  0  0  0  0  0  0  0  0  0
   38.0960   28.4680   35.4930 H   0  0  0  0  0  0  0  0  0  0  0  0
   38.9930   26.4750   35.5580 C   0  0  0  0  0  0  0  0  0  0  0  0
   39.5480   26.7950   36.4410 H   0  0  0  0  0  0  0  0  0  0  0  0
   39.7200   26.4600   34.7090 H   0  0  0  0  0  0  0  0  0  0  0  0
   38.5460   25.0620   35.7350 C   0  0  0  0  0  0  0  0  0  0  0  0
   38.0210   24.6990   36.9790 C   0  0  0  0  0  0  0  0  0  0  0  0
   37.5870   23.4210   37.2290 C   0  0  0  0  0  0  0  0  0  0  0  0
   37.6670   22.5000   36.2630 N   0  0  0  0  0  0  0  0  0  0  0  0
   38.1830   22.8780   35.0600 C   0  0  0  0  0  0  0  0  0  0  0  0
   38.6170   24.1180   34.7810 N   0  0  0  0  0  0  0  0  0  0  0  0
   37.9270   25.3930   37.8030 H   0  0  0  0  0  0  0  0  0  0  0  0
   37.1760   23.1160   38.1840 H   0  0  0  0  0  0  0  0  0  0  0  0
   38.2520   21.8060   34.0100 C   0  0  0  0  0  0  0  0  0  0  0  0
   39.1790   22.0120   33.4360 H   0  0  0  0  0  0  0  0  0  0  0  0
   38.4110   20.8280   34.5170 H   0  0  0  0  0  0  0  0  0  0  0  0
   37.0240   21.8000   33.1740 C   0  0  0  0  0  0  0  0  0  0  0  0
   35.9930   20.8930   33.3310 C   0  0  0  0  0  0  0  0  0  0  0  0
   35.9780   20.0930   34.0830 H   0  0  0  0  0  0  0  0  0  0  0  0
   35.0620   21.2320   32.3680 C   0  0  0  0  0  0  0  0  0  0  0  0
   34.1470   20.6460   32.2990 H   0  0  0  0  0  0  0  0  0  0  0  0
   35.5730   22.3320   31.6710 C   0  0  0  0  0  0  0  0  0  0  0  0
   34.9520   22.7210   30.8750 H   0  0  0  0  0  0  0  0  0  0  0  0
   36.7270   22.6070   32.2000 O   0  0  0  0  0  0  0  0  0  0  0  0
   37.2780   27.2050   34.0240 O   0  0  0  0  0  0  0  0  0  0  0  0
   35.4300   29.4080   31.8320 C   0  0  0  0  0  0  0  0  0  0  0  0
   34.8500   30.2810   32.7770 C   0  0  0  0  0  0  0  0  0  0  0  0
   35.1370   30.0480   34.1160 C   0  0  0  0  0  0  0  0  0  0  0  0
   35.9610   28.9880   34.3880 N   0  0  0  0  0  0  0  0  0  0  0  0
   36.4970   28.1780   33.4870 C   0  0  0  0  0  0  0  0  0  0  0  0
   36.2200   28.4000   32.1840 N   0  0  0  0  0  0  0  0  0  0  0  0
   35.1840   29.6200   30.7940 H   0  0  0  0  0  0  0  0  0  0  0  0
   34.2080   31.1060   32.5520 H   0  0  0  0  0  0  0  0  0  0  0  0
   36.6180   31.8110   35.8770 F   0  0  0  0  0  0  0  0  0  0  0  0
   35.3100   31.6530   36.0490 C   0  0  0  0  0  0  0  0  0  0  0  0
   34.6350   30.8360   35.2290 C   0  0  0  0  0  0  0  0  0  0  0  0
   33.2790   30.7450   35.4950 C   0  0  0  0  0  0  0  0  0  0  0  0
   32.6720   31.4310   36.5120 C   0  0  0  0  0  0  0  0  0  0  0  0
   33.4050   32.2650   37.3370 C   0  0  0  0  0  0  0  0  0  0  0  0
   34.7350   32.3660   37.0880 C   0  0  0  0  0  0  0  0  0  0  0  0
   32.6220   30.1070   34.8920 H   0  0  0  0  0  0  0  0  0  0  0  0
   31.6080   31.3400   36.6970 H   0  0  0  0  0  0  0  0  0  0  0  0
   32.9640   32.8290   38.1560 H   0  0  0  0  0  0  0  0  0  0  0  0
   35.3310   33.0120   37.7190 H   0  0  0  0  0  0  0  0  0  0  0  0
  1  3  1  0  0  0  0
  1  4  1  0  0  0  0
  1  2  1  0  0  0  0
  4  7  1  0  0  0  0
  4  5  1  0  0  0  0
  6  4  1  0  0  0  0
  7  8  1  0  0  0  0
  8  9  2  0  0  0  0
  8 13  1  0  0  0  0
  9 14  1  0  0  0  0
 10  9  1  0  0  0  0
 11 10  2  0  0  0  0
 12 11  1  0  0  0  0
 12  7  2  0  0  0  0
 15 17  1  0  0  0  0
 15 11  1  0  0  0  0
 16 15  1  0  0  0  0
 18 19  2  0  0  0  0
 18 15  1  0  0  0  0
 19 20  1  0  0  0  0
 21 19  1  0  0  0  0
 22 21  1  0  0  0  0
 23 25  1  0  0  0  0
 23 21  2  0  0  0  0
 24 23  1  0  0  0  0
 25 18  1  0  0  0  0
 26  1  1  0  0  0  0
 27 32  2  0  0  0  0
 27 28  1  0  0  0  0
 28 29  2  0  0  0  0
 29 30  1  0  0  0  0
 29 37  1  0  0  0  0
 31 26  1  0  0  0  0
 31 30  2  0  0  0  0
 32 31  1  0  0  0  0
 33 27  1  0  0  0  0
 34 28  1  0  0  0  0
 35 36  1  0  0  0  0
 36 41  1  0  0  0  0
 37 38  1  0  0  0  0
 37 36  2  0  0  0  0
 38 39  2  0  0  0  0
 39 43  1  0  0  0  0
 39 40  1  0  0  0  0
 40 44  1  0  0  0  0
 41 40  2  0  0  0  0
 41 45  1  0  0  0  0
 42 38  1  0  0  0  0
M  END
>  <minimizedAffinity>
-6.45579433

$$$$

 OpenBabel03272509593D

 45 48  0  0  0  0  0  0  0  0999 V2000
   35.9620   22.2210   30.9710 C   0  0  0  0  0  0  0  0  0  0  0  0
   37.0020   22.6060   30.8240 H   0  0  0  0  0  0  0  0  0  0  0  0
   35.5430   22.0810   29.9640 H   0  0  0  0  0  0  0  0  0  0  0  0
   36.1010   20.9400   31.7450 C   0  0  0  0  0  0  0  0  0  0  0  0
   36.8600   20.3050   31.2850 H   0  0  0  0  0  0  0  0  0  0  0  0
   35.1510   20.3530   31.7500 H   0  0  0  0  0  0  0  0  0  0  0  0
   36.4450   21.1690   33.1790 C   0  0  0  0  0  0  0  0  0  0  0  0
   35.5720   20.6620   34.1450 C   0  0  0  0  0  0  0  0  0  0  0  0
   35.8120   20.8270   35.4860 C   0  0  0  0  0  0  0  0  0  0  0  0
   36.9050   21.4890   35.8810 N   0  0  0  0  0  0  0  0  0  0  0  0
   37.7400   21.9740   34.9210 C   0  0  0  0  0  0  0  0  0  0  0  0
   37.5370   21.8310   33.6010 N   0  0  0  0  0  0  0  0  0  0  0  0
   34.6710   20.1170   33.8950 H   0  0  0  0  0  0  0  0  0  0  0  0
   35.1500   20.4430   36.2540 H   0  0  0  0  0  0  0  0  0  0  0  0
   38.9530   22.7100   35.4160 C   0  0  0  0  0  0  0  0  0  0  0  0
   39.7750   21.9640   35.4110 H   0  0  0  0  0  0  0  0  0  0  0  0
   39.2270   23.4800   34.6620 H   0  0  0  0  0  0  0  0  0  0  0  0
   38.7020   23.3090   36.7510 C   0  0  0  0  0  0  0  0  0  0  0  0
   37.8940   24.4120   36.9570 C   0  0  0  0  0  0  0  0  0  0  0  0
   37.3620   24.9500   36.1620 H   0  0  0  0  0  0  0  0  0  0  0  0
   37.9330   24.6390   38.3200 C   0  0  0  0  0  0  0  0  0  0  0  0
   37.3610   25.4730   38.7250 H   0  0  0  0  0  0  0  0  0  0  0  0
   38.7630   23.6610   38.8770 C   0  0  0  0  0  0  0  0  0  0  0  0
   38.8960   23.7050   39.9500 H   0  0  0  0  0  0  0  0  0  0  0  0
   39.1770   22.9180   37.8950 O   0  0  0  0  0  0  0  0  0  0  0  0
   35.2910   23.2140   31.7180 O   0  0  0  0  0  0  0  0  0  0  0  0
   35.7000   26.7090   30.8890 C   0  0  0  0  0  0  0  0  0  0  0  0
   36.8370   27.0240   31.6620 C   0  0  0  0  0  0  0  0  0  0  0  0
   37.3900   26.0020   32.4230 C   0  0  0  0  0  0  0  0  0  0  0  0
   36.7730   24.7820   32.3460 N   0  0  0  0  0  0  0  0  0  0  0  0
   35.7040   24.5040   31.6140 C   0  0  0  0  0  0  0  0  0  0  0  0
   35.1630   25.4950   30.8730 N   0  0  0  0  0  0  0  0  0  0  0  0
   35.2940   27.5330   30.3060 H   0  0  0  0  0  0  0  0  0  0  0  0
   37.3120   27.9820   31.7140 H   0  0  0  0  0  0  0  0  0  0  0  0
   37.7060   27.6540   34.7840 F   0  0  0  0  0  0  0  0  0  0  0  0
   38.7140   26.8920   34.3710 C   0  0  0  0  0  0  0  0  0  0  0  0
   38.5570   26.1320   33.2790 C   0  0  0  0  0  0  0  0  0  0  0  0
   39.6680   25.3790   32.9380 C   0  0  0  0  0  0  0  0  0  0  0  0
   40.8330   25.4040   33.6550 C   0  0  0  0  0  0  0  0  0  0  0  0
   40.9550   26.2020   34.7770 C   0  0  0  0  0  0  0  0  0  0  0  0
   39.8750   26.9470   35.1250 C   0  0  0  0  0  0  0  0  0  0  0  0
   39.6600   24.7180   32.0630 H   0  0  0  0  0  0  0  0  0  0  0  0
   41.6880   24.8030   33.3630 H   0  0  0  0  0  0  0  0  0  0  0  0
   41.8610   26.2530   35.3760 H   0  0  0  0  0  0  0  0  0  0  0  0
   39.9440   27.5800   35.9990 H   0  0  0  0  0  0  0  0  0  0  0  0
  1 26  1  0  0  0  0
  1  4  1  0  0  0  0
  2  1  1  0  0  0  0
  3  1  1  0  0  0  0
  4  6  1  0  0  0  0
  4  7  1  0  0  0  0
  5  4  1  0  0  0  0
  7 12  2  0  0  0  0
  7  8  1  0  0  0  0
  8  9  2  0  0  0  0
  9 10  1  0  0  0  0
  9 14  1  0  0  0  0
 11 15  1  0  0  0  0
 11 10  2  0  0  0  0
 12 11  1  0  0  0  0
 13  8  1  0  0  0  0
 15 18  1  0  0  0  0
 16 15  1  0  0  0  0
 17 15  1  0  0  0  0
 18 19  2  0  0  0  0
 18 25  1  0  0  0  0
 19 21  1  0  0  0  0
 20 19  1  0  0  0  0
 21 22  1  0  0  0  0
 21 23  2  0  0  0  0
 23 24  1  0  0  0  0
 25 23  1  0  0  0  0
 27 28  1  0  0  0  0
 28 34  1  0  0  0  0
 28 29  2  0  0  0  0
 29 37  1  0  0  0  0
 30 29  1  0  0  0  0
 31 26  1  0  0  0  0
 31 30  2  0  0  0  0
 32 27  2  0  0  0  0
 32 31  1  0  0  0  0
 33 27  1  0  0  0  0
 36 35  1  0  0  0  0
 36 41  1  0  0  0  0
 37 36  2  0  0  0  0
 38 37  1  0  0  0  0
 38 39  2  0  0  0  0
 39 40  1  0  0  0  0
 40 41  2  0  0  0  0
 40 44  1  0  0  0  0
 41 45  1  0  0  0  0
 42 38  1  0  0  0  0
 43 39  1  0  0  0  0
M  END
>  <minimizedAffinity>
-6.14174557

$$$$

 OpenBabel03272509593D

 45 48  0  0  0  0  0  0  0  0999 V2000
   37.4350   26.6750   31.7870 C   0  0  0  0  0  0  0  0  0  0  0  0
   37.6100   27.2500   30.8430 H   0  0  0  0  0  0  0  0  0  0  0  0
   37.2270   25.6400   31.4790 H   0  0  0  0  0  0  0  0  0  0  0  0
   38.6930   26.8160   32.5960 C   0  0  0  0  0  0  0  0  0  0  0  0
   39.0100   27.8600   32.6170 H   0  0  0  0  0  0  0  0  0  0  0  0
   39.5380   26.2320   32.1570 H   0  0  0  0  0  0  0  0  0  0  0  0
   38.5370   26.3160   33.9940 C   0  0  0  0  0  0  0  0  0  0  0  0
   38.5190   27.2610   35.0230 C   0  0  0  0  0  0  0  0  0  0  0  0
   38.3790   26.8890   36.3360 C   0  0  0  0  0  0  0  0  0  0  0  0
   38.2570   25.5930   36.6420 N   0  0  0  0  0  0  0  0  0  0  0  0
   38.2780   24.6910   35.6220 C   0  0  0  0  0  0  0  0  0  0  0  0
   38.4130   25.0190   34.3260 N   0  0  0  0  0  0  0  0  0  0  0  0
   38.6120   28.3250   34.8460 H   0  0  0  0  0  0  0  0  0  0  0  0
   38.3620   27.6030   37.1520 H   0  0  0  0  0  0  0  0  0  0  0  0
   38.1380   23.2490   36.0180 C   0  0  0  0  0  0  0  0  0  0  0  0
   37.4380   23.2440   36.8800 H   0  0  0  0  0  0  0  0  0  0  0  0
   37.6200   22.7070   35.1950 H   0  0  0  0  0  0  0  0  0  0  0  0
   39.4620   22.6500   36.3240 C   0  0  0  0  0  0  0  0  0  0  0  0
   40.0130   22.6150   37.5920 C   0  0  0  0  0  0  0  0  0  0  0  0
   39.5320   23.0220   38.4900 H   0  0  0  0  0  0  0  0  0  0  0  0
   41.2320   21.9830   37.4390 C   0  0  0  0  0  0  0  0  0  0  0  0
   41.8580   21.8390   38.3180 H   0  0  0  0  0  0  0  0  0  0  0  0
   41.3630   21.6630   36.0830 C   0  0  0  0  0  0  0  0  0  0  0  0
   42.2770   21.1570   35.8000 H   0  0  0  0  0  0  0  0  0  0  0  0
   40.2860   22.0860   35.4930 O   0  0  0  0  0  0  0  0  0  0  0  0
   36.3350   27.2980   32.4150 O   0  0  0  0  0  0  0  0  0  0  0  0
   36.3560   30.7640   31.3860 C   0  0  0  0  0  0  0  0  0  0  0  0
   35.7990   31.3740   32.5300 C   0  0  0  0  0  0  0  0  0  0  0  0
   35.4510   30.5420   33.5860 C   0  0  0  0  0  0  0  0  0  0  0  0
   35.6850   29.2040   33.4120 N   0  0  0  0  0  0  0  0  0  0  0  0
   36.2090   28.6480   32.3300 C   0  0  0  0  0  0  0  0  0  0  0  0
   36.5490   29.4530   31.3000 N   0  0  0  0  0  0  0  0  0  0  0  0
   36.6170   31.4450   30.5790 H   0  0  0  0  0  0  0  0  0  0  0  0
   35.6210   32.4210   32.6550 H   0  0  0  0  0  0  0  0  0  0  0  0
   36.7170   32.0260   35.7300 F   0  0  0  0  0  0  0  0  0  0  0  0
   35.4410   31.6680   35.8380 C   0  0  0  0  0  0  0  0  0  0  0  0
   34.8660   30.9830   34.8410 C   0  0  0  0  0  0  0  0  0  0  0  0
   33.5360   30.6610   35.0560 C   0  0  0  0  0  0  0  0  0  0  0  0
   32.8590   31.0130   36.1920 C   0  0  0  0  0  0  0  0  0  0  0  0
   33.4900   31.7210   37.1990 C   0  0  0  0  0  0  0  0  0  0  0  0
   34.7930   32.0440   37.0030 C   0  0  0  0  0  0  0  0  0  0  0  0
   32.9580   30.1010   34.3110 H   0  0  0  0  0  0  0  0  0  0  0  0
   31.8170   30.7470   36.3330 H   0  0  0  0  0  0  0  0  0  0  0  0
   32.9910   32.0210   38.1180 H   0  0  0  0  0  0  0  0  0  0  0  0
   35.3090   32.5980   37.7760 H   0  0  0  0  0  0  0  0  0  0  0  0
  1 26  1  0  0  0  0
  1  4  1  0  0  0  0
  2  1  1  0  0  0  0
  3  1  1  0  0  0  0
  4  5  1  0  0  0  0
  4  7  1  0  0  0  0
  6  4  1  0  0  0  0
  7 12  2  0  0  0  0
  7  8  1  0  0  0  0
  8  9  2  0  0  0  0
  9 10  1  0  0  0  0
  9 14  1  0  0  0  0
 11 15  1  0  0  0  0
 11 10  2  0  0  0  0
 12 11  1  0  0  0  0
 13  8  1  0  0  0  0
 15 18  1  0  0  0  0
 15 16  1  0  0  0  0
 17 15  1  0  0  0  0
 18 19  2  0  0  0  0
 19 20  1  0  0  0  0
 21 19  1  0  0  0  0
 21 22  1  0  0  0  0
 23 21  2  0  0  0  0
 24 23  1  0  0  0  0
 25 23  1  0  0  0  0
 25 18  1  0  0  0  0
 27 28  1  0  0  0  0
 28 34  1  0  0  0  0
 28 29  2  0  0  0  0
 29 37  1  0  0  0  0
 30 29  1  0  0  0  0
 31 26  1  0  0  0  0
 31 30  2  0  0  0  0
 32 27  2  0  0  0  0
 32 31  1  0  0  0  0
 33 27  1  0  0  0  0
 35 36  1  0  0  0  0
 36 41  1  0  0  0  0
 37 38  1  0  0  0  0
 37 36  2  0  0  0  0
 38 39  2  0  0  0  0
 39 43  1  0  0  0  0
 39 40  1  0  0  0  0
 40 44  1  0  0  0  0
 41 40  2  0  0  0  0
 41 45  1  0  0  0  0
 42 38  1  0  0  0  0
M  END
>  <minimizedAffinity>
-6.13852262

$$$$

 OpenBabel03272509593D

 45 48  0  0  0  0  0  0  0  0999 V2000
   36.6340   26.1960   31.5580 C   0  0  0  0  0  0  0  0  0  0  0  0
   36.7280   26.9090   30.7020 H   0  0  0  0  0  0  0  0  0  0  0  0
   35.7990   25.5260   31.3060 H   0  0  0  0  0  0  0  0  0  0  0  0
   37.9580   25.4910   31.6560 C   0  0  0  0  0  0  0  0  0  0  0  0
   38.7040   26.1530   32.0990 H   0  0  0  0  0  0  0  0  0  0  0  0
   38.3460   25.1950   30.6510 H   0  0  0  0  0  0  0  0  0  0  0  0
   37.8800   24.2290   32.4490 C   0  0  0  0  0  0  0  0  0  0  0  0
   36.8700   23.3190   32.1230 C   0  0  0  0  0  0  0  0  0  0  0  0
   36.7260   22.1350   32.8010 C   0  0  0  0  0  0  0  0  0  0  0  0
   37.5680   21.8420   33.7970 N   0  0  0  0  0  0  0  0  0  0  0  0
   38.5430   22.7440   34.0970 C   0  0  0  0  0  0  0  0  0  0  0  0
   38.7130   23.9120   33.4550 N   0  0  0  0  0  0  0  0  0  0  0  0
   36.1560   23.4920   31.3280 H   0  0  0  0  0  0  0  0  0  0  0  0
   35.9510   21.4130   32.5660 H   0  0  0  0  0  0  0  0  0  0  0  0
   39.4610   22.3680   35.2240 C   0  0  0  0  0  0  0  0  0  0  0  0
   39.5190   21.2600   35.2030 H   0  0  0  0  0  0  0  0  0  0  0  0
   40.4830   22.7370   34.9820 H   0  0  0  0  0  0  0  0  0  0  0  0
   38.9700   22.9130   36.5150 C   0  0  0  0  0  0  0  0  0  0  0  0
   39.6820   22.8410   37.6990 C   0  0  0  0  0  0  0  0  0  0  0  0
   40.6720   22.3780   37.8010 H   0  0  0  0  0  0  0  0  0  0  0  0
   38.8800   23.4560   38.6410 C   0  0  0  0  0  0  0  0  0  0  0  0
   39.2390   23.5210   39.6680 H   0  0  0  0  0  0  0  0  0  0  0  0
   37.7190   23.8740   37.9840 C   0  0  0  0  0  0  0  0  0  0  0  0
   36.9820   24.3800   38.5940 H   0  0  0  0  0  0  0  0  0  0  0  0
   37.8440   23.5200   36.7400 O   0  0  0  0  0  0  0  0  0  0  0  0
   36.3800   26.9940   32.6940 O   0  0  0  0  0  0  0  0  0  0  0  0
   36.3790   30.4000   31.4820 C   0  0  0  0  0  0  0  0  0  0  0  0
   35.8010   31.0640   32.5850 C   0  0  0  0  0  0  0  0  0  0  0  0
   35.4490   30.2860   33.6800 C   0  0  0  0  0  0  0  0  0  0  0  0
   35.6990   28.9430   33.5800 N   0  0  0  0  0  0  0  0  0  0  0  0
   36.2420   28.3360   32.5350 C   0  0  0  0  0  0  0  0  0  0  0  0
   36.5870   29.0890   31.4680 N   0  0  0  0  0  0  0  0  0  0  0  0
   36.6420   31.0400   30.6430 H   0  0  0  0  0  0  0  0  0  0  0  0
   35.6110   32.1150   32.6520 H   0  0  0  0  0  0  0  0  0  0  0  0
   36.6570   31.9420   35.7300 F   0  0  0  0  0  0  0  0  0  0  0  0
   35.3930   31.5520   35.8560 C   0  0  0  0  0  0  0  0  0  0  0  0
   34.8440   30.7870   34.9030 C   0  0  0  0  0  0  0  0  0  0  0  0
   33.5240   30.4380   35.1330 C   0  0  0  0  0  0  0  0  0  0  0  0
   32.8310   30.8390   36.2430 C   0  0  0  0  0  0  0  0  0  0  0  0
   33.4340   31.6290   37.2050 C   0  0  0  0  0  0  0  0  0  0  0  0
   34.7280   31.9800   36.9930 C   0  0  0  0  0  0  0  0  0  0  0  0
   32.9680   29.8130   34.4240 H   0  0  0  0  0  0  0  0  0  0  0  0
   31.7970   30.5500   36.3970 H   0  0  0  0  0  0  0  0  0  0  0  0
   32.9210   31.9710   38.1010 H   0  0  0  0  0  0  0  0  0  0  0  0
   35.2220   32.5980   37.7310 H   0  0  0  0  0  0  0  0  0  0  0  0
  1  4  1  0  0  0  0
  1 26  1  0  0  0  0
  2  1  1  0  0  0  0
  3  1  1  0  0  0  0
  4  5  1  0  0  0  0
  4  7  1  0  0  0  0
  6  4  1  0  0  0  0
  7 12  1  0  0  0  0
  8  7  2  0  0  0  0
  8  9  1  0  0  0  0
  9 10  2  0  0  0  0
 10 11  1  0  0  0  0
 11 15  1  0  0  0  0
 12 11  2  0  0  0  0
 13  8  1  0  0  0  0
 14  9  1  0  0  0  0
 15 18  1  0  0  0  0
 16 15  1  0  0  0  0
 17 15  1  0  0  0  0
 18 25  1  0  0  0  0
 18 19  2  0  0  0  0
 19 20  1  0  0  0  0
 19 21  1  0  0  0  0
 21 22  1  0  0  0  0
 23 24  1  0  0  0  0
 23 21  2  0  0  0  0
 25 23  1  0  0  0  0
 27 28  1  0  0  0  0
 28 34  1  0  0  0  0
 28 29  2  0  0  0  0
 29 37  1  0  0  0  0
 30 29  1  0  0  0  0
 31 26  1  0  0  0  0
 31 30  2  0  0  0  0
 32 27  2  0  0  0  0
 32 31  1  0  0  0  0
 33 27  1  0  0  0  0
 35 36  1  0  0  0  0
 36 41  1  0  0  0  0
 37 38  1  0  0  0  0
 37 36  2  0  0  0  0
 38 39  2  0  0  0  0
 39 43  1  0  0  0  0
 39 40  1  0  0  0  0
 40 44  1  0  0  0  0
 41 40  2  0  0  0  0
 41 45  1  0  0  0  0
 42 38  1  0  0  0  0
M  END
>  <minimizedAffinity>
-6.09035397

$$$$

 OpenBabel03272509593D

 45 48  0  0  0  0  0  0  0  0999 V2000
   36.3390   22.4570   31.1130 C   0  0  0  0  0  0  0  0  0  0  0  0
   35.6610   22.4000   30.2250 H   0  0  0  0  0  0  0  0  0  0  0  0
   36.0440   23.3610   31.6650 H   0  0  0  0  0  0  0  0  0  0  0  0
   36.1170   21.1860   31.8850 C   0  0  0  0  0  0  0  0  0  0  0  0
   36.6970   20.3730   31.4440 H   0  0  0  0  0  0  0  0  0  0  0  0
   35.0470   20.8670   31.8610 H   0  0  0  0  0  0  0  0  0  0  0  0
   36.4700   21.3220   33.3290 C   0  0  0  0  0  0  0  0  0  0  0  0
   35.5950   20.7650   34.2650 C   0  0  0  0  0  0  0  0  0  0  0  0
   35.8410   20.8440   35.6130 C   0  0  0  0  0  0  0  0  0  0  0  0
   36.9430   21.4680   36.0430 N   0  0  0  0  0  0  0  0  0  0  0  0
   37.7800   22.0030   35.1110 C   0  0  0  0  0  0  0  0  0  0  0  0
   37.5700   21.9440   33.7860 N   0  0  0  0  0  0  0  0  0  0  0  0
   34.6860   20.2470   33.9870 H   0  0  0  0  0  0  0  0  0  0  0  0
   35.1780   20.4210   36.3590 H   0  0  0  0  0  0  0  0  0  0  0  0
   39.0020   22.6930   35.6460 C   0  0  0  0  0  0  0  0  0  0  0  0
   39.7980   21.9200   35.6590 H   0  0  0  0  0  0  0  0  0  0  0  0
   39.3250   23.4590   34.9050 H   0  0  0  0  0  0  0  0  0  0  0  0
   38.7350   23.2940   36.9780 C   0  0  0  0  0  0  0  0  0  0  0  0
   37.8410   24.3270   37.1870 C   0  0  0  0  0  0  0  0  0  0  0  0
   37.2450   24.8030   36.3980 H   0  0  0  0  0  0  0  0  0  0  0  0
   37.8930   24.5810   38.5440 C   0  0  0  0  0  0  0  0  0  0  0  0
   37.2630   25.3710   38.9520 H   0  0  0  0  0  0  0  0  0  0  0  0
   38.8180   23.6880   39.0950 C   0  0  0  0  0  0  0  0  0  0  0  0
   38.9730   23.7620   40.1630 H   0  0  0  0  0  0  0  0  0  0  0  0
   39.2700   22.9650   38.1150 O   0  0  0  0  0  0  0  0  0  0  0  0
   37.6480   22.5290   30.5880 O   0  0  0  0  0  0  0  0  0  0  0  0
   39.4780   25.4800   29.5810 C   0  0  0  0  0  0  0  0  0  0  0  0
   39.3790   26.2560   30.7560 C   0  0  0  0  0  0  0  0  0  0  0  0
   38.6830   25.7040   31.8240 C   0  0  0  0  0  0  0  0  0  0  0  0
   38.1580   24.4540   31.6290 N   0  0  0  0  0  0  0  0  0  0  0  0
   38.2610   23.7400   30.5180 C   0  0  0  0  0  0  0  0  0  0  0  0
   38.9360   24.2720   29.4770 N   0  0  0  0  0  0  0  0  0  0  0  0
   40.0290   25.9430   28.7660 H   0  0  0  0  0  0  0  0  0  0  0  0
   39.7940   27.2310   30.8960 H   0  0  0  0  0  0  0  0  0  0  0  0
   36.2880   27.0010   32.8150 F   0  0  0  0  0  0  0  0  0  0  0  0
   37.3750   26.9490   33.5780 C   0  0  0  0  0  0  0  0  0  0  0  0
   38.4760   26.3470   33.1100 C   0  0  0  0  0  0  0  0  0  0  0  0
   39.5490   26.3490   33.9860 C   0  0  0  0  0  0  0  0  0  0  0  0
   39.4950   26.9180   35.2290 C   0  0  0  0  0  0  0  0  0  0  0  0
   38.3380   27.5310   35.6750 C   0  0  0  0  0  0  0  0  0  0  0  0
   37.2770   27.5360   34.8280 C   0  0  0  0  0  0  0  0  0  0  0  0
   40.5060   25.8860   33.7150 H   0  0  0  0  0  0  0  0  0  0  0  0
   40.3520   26.9050   35.8930 H   0  0  0  0  0  0  0  0  0  0  0  0
   38.2500   27.9950   36.6540 H   0  0  0  0  0  0  0  0  0  0  0  0
   36.3600   28.0100   35.1540 H   0  0  0  0  0  0  0  0  0  0  0  0
  1  3  1  0  0  0  0
  1  4  1  0  0  0  0
  2  1  1  0  0  0  0
  4  7  1  0  0  0  0
  5  4  1  0  0  0  0
  6  4  1  0  0  0  0
  7 12  2  0  0  0  0
  7  8  1  0  0  0  0
  8  9  2  0  0  0  0
  9 10  1  0  0  0  0
  9 14  1  0  0  0  0
 11 15  1  0  0  0  0
 11 10  2  0  0  0  0
 12 11  1  0  0  0  0
 13  8  1  0  0  0  0
 15 16  1  0  0  0  0
 15 18  1  0  0  0  0
 17 15  1  0  0  0  0
 18 19  2  0  0  0  0
 18 25  1  0  0  0  0
 19 21  1  0  0  0  0
 20 19  1  0  0  0  0
 21 22  1  0  0  0  0
 21 23  2  0  0  0  0
 23 24  1  0  0  0  0
 25 23  1  0  0  0  0
 26  1  1  0  0  0  0
 27 28  1  0  0  0  0
 28 34  1  0  0  0  0
 28 29  2  0  0  0  0
 29 37  1  0  0  0  0
 30 29  1  0  0  0  0
 31 26  1  0  0  0  0
 31 30  2  0  0  0  0
 32 27  2  0  0  0  0
 32 31  1  0  0  0  0
 33 27  1  0  0  0  0
 35 36  1  0  0  0  0
 36 41  1  0  0  0  0
 37 36  2  0  0  0  0
 37 38  1  0  0  0  0
 38 39  2  0  0  0  0
 39 40  1  0  0  0  0
 39 43  1  0  0  0  0
 40 44  1  0  0  0  0
 41 45  1  0  0  0  0
 41 40  2  0  0  0  0
 42 38  1  0  0  0  0
M  END
>  <minimizedAffinity>
-6.08522749

$$$$

 OpenBabel03272509593D

 45 48  0  0  0  0  0  0  0  0999 V2000
   37.4160   25.6040   33.8030 C   0  0  0  0  0  0  0  0  0  0  0  0
   37.3610   25.8800   32.7200 H   0  0  0  0  0  0  0  0  0  0  0  0
   36.6190   24.8640   33.9700 H   0  0  0  0  0  0  0  0  0  0  0  0
   38.7980   25.0540   34.0190 C   0  0  0  0  0  0  0  0  0  0  0  0
   39.5350   25.8560   33.9540 H   0  0  0  0  0  0  0  0  0  0  0  0
   39.0710   24.3010   33.2400 H   0  0  0  0  0  0  0  0  0  0  0  0
   38.9390   24.3540   35.3300 C   0  0  0  0  0  0  0  0  0  0  0  0
   38.0120   24.6570   36.3300 C   0  0  0  0  0  0  0  0  0  0  0  0
   38.0670   24.0600   37.5650 C   0  0  0  0  0  0  0  0  0  0  0  0
   39.0300   23.1680   37.8190 N   0  0  0  0  0  0  0  0  0  0  0  0
   39.9220   22.8890   36.8280 C   0  0  0  0  0  0  0  0  0  0  0  0
   39.8970   23.4540   35.6100 N   0  0  0  0  0  0  0  0  0  0  0  0
   37.2080   25.3690   36.1920 H   0  0  0  0  0  0  0  0  0  0  0  0
   37.3600   24.2800   38.3570 H   0  0  0  0  0  0  0  0  0  0  0  0
   40.9830   21.8810   37.1660 C   0  0  0  0  0  0  0  0  0  0  0  0
   41.0650   21.8950   38.2720 H   0  0  0  0  0  0  0  0  0  0  0  0
   40.6040   20.8700   36.8950 H   0  0  0  0  0  0  0  0  0  0  0  0
   42.2570   22.1960   36.4710 C   0  0  0  0  0  0  0  0  0  0  0  0
   43.0300   23.3070   36.7550 C   0  0  0  0  0  0  0  0  0  0  0  0
   42.7830   24.0590   37.5140 H   0  0  0  0  0  0  0  0  0  0  0  0
   44.1100   23.2240   35.8960 C   0  0  0  0  0  0  0  0  0  0  0  0
   44.8690   24.0040   35.9370 H   0  0  0  0  0  0  0  0  0  0  0  0
   43.9400   22.0650   35.1310 C   0  0  0  0  0  0  0  0  0  0  0  0
   44.7140   21.8580   34.4030 H   0  0  0  0  0  0  0  0  0  0  0  0
   42.8310   21.5160   35.5250 O   0  0  0  0  0  0  0  0  0  0  0  0
   37.2140   26.8070   34.5140 O   0  0  0  0  0  0  0  0  0  0  0  0
   36.1700   29.2450   32.0570 C   0  0  0  0  0  0  0  0  0  0  0  0
   35.5270   30.1870   32.8880 C   0  0  0  0  0  0  0  0  0  0  0  0
   35.4980   29.9150   34.2500 C   0  0  0  0  0  0  0  0  0  0  0  0
   36.0990   28.7520   34.6540 N   0  0  0  0  0  0  0  0  0  0  0  0
   36.6980   27.8790   33.8580 C   0  0  0  0  0  0  0  0  0  0  0  0
   36.7290   28.1390   32.5330 N   0  0  0  0  0  0  0  0  0  0  0  0
   36.1740   29.4900   30.9980 H   0  0  0  0  0  0  0  0  0  0  0  0
   35.0610   31.0930   32.5620 H   0  0  0  0  0  0  0  0  0  0  0  0
   36.7710   31.8880   35.9500 F   0  0  0  0  0  0  0  0  0  0  0  0
   35.4630   31.6760   36.0500 C   0  0  0  0  0  0  0  0  0  0  0  0
   34.8850   30.7620   35.2600 C   0  0  0  0  0  0  0  0  0  0  0  0
   33.5190   30.6210   35.4460 C   0  0  0  0  0  0  0  0  0  0  0  0
   32.8130   31.3530   36.3610 C   0  0  0  0  0  0  0  0  0  0  0  0
   33.4480   32.2870   37.1590 C   0  0  0  0  0  0  0  0  0  0  0  0
   34.7860   32.4380   36.9880 C   0  0  0  0  0  0  0  0  0  0  0  0
   32.9360   29.9030   34.8570 H   0  0  0  0  0  0  0  0  0  0  0  0
   31.7440   31.2210   36.4850 H   0  0  0  0  0  0  0  0  0  0  0  0
   32.9270   32.8910   37.8980 H   0  0  0  0  0  0  0  0  0  0  0  0
   35.3060   33.1620   37.6000 H   0  0  0  0  0  0  0  0  0  0  0  0
  1  3  1  0  0  0  0
  1  4  1  0  0  0  0
  1 26  1  0  0  0  0
  2  1  1  0  0  0  0
  4  7  1  0  0  0  0
  5  4  1  0  0  0  0
  6  4  1  0  0  0  0
  7 12  2  0  0  0  0
  7  8  1  0  0  0  0
  8  9  2  0  0  0  0
  9 10  1  0  0  0  0
  9 14  1  0  0  0  0
 11 15  1  0  0  0  0
 11 10  2  0  0  0  0
 12 11  1  0  0  0  0
 13  8  1  0  0  0  0
 15 16  1  0  0  0  0
 17 15  1  0  0  0  0
 18 19  2  0  0  0  0
 18 15  1  0  0  0  0
 19 20  1  0  0  0  0
 21 22  1  0  0  0  0
 21 19  1  0  0  0  0
 23 25  1  0  0  0  0
 23 21  2  0  0  0  0
 24 23  1  0  0  0  0
 25 18  1  0  0  0  0
 27 32  2  0  0  0  0
 27 28  1  0  0  0  0
 28 29  2  0  0  0  0
 29 30  1  0  0  0  0
 29 37  1  0  0  0  0
 31 26  1  0  0  0  0
 31 30  2  0  0  0  0
 32 31  1  0  0  0  0
 33 27  1  0  0  0  0
 34 28  1  0  0  0  0
 35 36  1  0  0  0  0
 36 41  1  0  0  0  0
 37 38  1  0  0  0  0
 37 36  2  0  0  0  0
 38 39  2  0  0  0  0
 39 43  1  0  0  0  0
 39 40  1  0  0  0  0
 40 44  1  0  0  0  0
 41 40  2  0  0  0  0
 41 45  1  0  0  0  0
 42 38  1  0  0  0  0
M  END
>  <minimizedAffinity>
-6.08111429

$$$$

 OpenBabel03272509593D

 45 48  0  0  0  0  0  0  0  0999 V2000
   41.5110   25.1070   34.9770 C   0  0  0  0  0  0  0  0  0  0  0  0
   42.5690   24.8320   34.7400 H   0  0  0  0  0  0  0  0  0  0  0  0
   41.3980   24.9780   36.0630 H   0  0  0  0  0  0  0  0  0  0  0  0
   41.3430   26.5300   34.5230 C   0  0  0  0  0  0  0  0  0  0  0  0
   41.9160   26.7030   33.6100 H   0  0  0  0  0  0  0  0  0  0  0  0
   41.7210   27.2560   35.2830 H   0  0  0  0  0  0  0  0  0  0  0  0
   39.9140   26.8930   34.2890 C   0  0  0  0  0  0  0  0  0  0  0  0
   39.1130   27.1320   35.4090 C   0  0  0  0  0  0  0  0  0  0  0  0
   37.7890   27.4710   35.2860 C   0  0  0  0  0  0  0  0  0  0  0  0
   37.2490   27.5750   34.0670 N   0  0  0  0  0  0  0  0  0  0  0  0
   38.0490   27.3370   32.9910 C   0  0  0  0  0  0  0  0  0  0  0  0
   39.3480   27.0030   33.0740 N   0  0  0  0  0  0  0  0  0  0  0  0
   39.4860   27.0660   36.4230 H   0  0  0  0  0  0  0  0  0  0  0  0
   37.1490   27.6610   36.1400 H   0  0  0  0  0  0  0  0  0  0  0  0
   37.3950   27.4660   31.6450 C   0  0  0  0  0  0  0  0  0  0  0  0
   36.8850   28.4520   31.6560 H   0  0  0  0  0  0  0  0  0  0  0  0
   38.1930   27.5380   30.8720 H   0  0  0  0  0  0  0  0  0  0  0  0
   36.4790   26.3260   31.3870 C   0  0  0  0  0  0  0  0  0  0  0  0
   36.8790   25.0030   31.4010 C   0  0  0  0  0  0  0  0  0  0  0  0
   37.9040   24.6650   31.6020 H   0  0  0  0  0  0  0  0  0  0  0  0
   35.7380   24.2770   31.1170 C   0  0  0  0  0  0  0  0  0  0  0  0
   35.8090   23.1910   31.0730 H   0  0  0  0  0  0  0  0  0  0  0  0
   34.6980   25.1950   30.9440 C   0  0  0  0  0  0  0  0  0  0  0  0
   33.7270   24.7770   30.7130 H   0  0  0  0  0  0  0  0  0  0  0  0
   35.2090   26.3770   31.1170 O   0  0  0  0  0  0  0  0  0  0  0  0
   40.7100   24.2200   34.2260 O   0  0  0  0  0  0  0  0  0  0  0  0
   38.4230   22.7770   36.6260 C   0  0  0  0  0  0  0  0  0  0  0  0
   37.5790   22.0430   35.7650 C   0  0  0  0  0  0  0  0  0  0  0  0
   37.8580   22.0960   34.4060 C   0  0  0  0  0  0  0  0  0  0  0  0
   38.9320   22.8600   34.0320 N   0  0  0  0  0  0  0  0  0  0  0  0
   39.7130   23.5430   34.8550 C   0  0  0  0  0  0  0  0  0  0  0  0
   39.4460   23.4950   36.1780 N   0  0  0  0  0  0  0  0  0  0  0  0
   38.1750   22.7120   37.6830 H   0  0  0  0  0  0  0  0  0  0  0  0
   36.7430   21.4480   36.0680 H   0  0  0  0  0  0  0  0  0  0  0  0
   35.2840   20.7810   34.6310 F   0  0  0  0  0  0  0  0  0  0  0  0
   35.9160   20.8000   33.4620 C   0  0  0  0  0  0  0  0  0  0  0  0
   37.1050   21.4100   33.3690 C   0  0  0  0  0  0  0  0  0  0  0  0
   37.6750   21.3710   32.1070 C   0  0  0  0  0  0  0  0  0  0  0  0
   37.0780   20.7590   31.0390 C   0  0  0  0  0  0  0  0  0  0  0  0
   35.8490   20.1400   31.1760 C   0  0  0  0  0  0  0  0  0  0  0  0
   35.2770   20.1700   32.4070 C   0  0  0  0  0  0  0  0  0  0  0  0
   38.6480   21.8360   31.9080 H   0  0  0  0  0  0  0  0  0  0  0  0
   37.5480   20.7440   30.0620 H   0  0  0  0  0  0  0  0  0  0  0  0
   35.3380   19.6430   30.3550 H   0  0  0  0  0  0  0  0  0  0  0  0
   34.3160   19.6930   32.5410 H   0  0  0  0  0  0  0  0  0  0  0  0
  1  3  1  0  0  0  0
  2  1  1  0  0  0  0
  4  1  1  0  0  0  0
  4  6  1  0  0  0  0
  5  4  1  0  0  0  0
  7  4  1  0  0  0  0
  7  8  1  0  0  0  0
  8 13  1  0  0  0  0
  9  8  2  0  0  0  0
  9 14  1  0  0  0  0
 10  9  1  0  0  0  0
 11 12  1  0  0  0  0
 11 10  2  0  0  0  0
 12  7  2  0  0  0  0
 15 16  1  0  0  0  0
 15 11  1  0  0  0  0
 17 15  1  0  0  0  0
 18 19  2  0  0  0  0
 18 15  1  0  0  0  0
 19 20  1  0  0  0  0
 21 19  1  0  0  0  0
 22 21  1  0  0  0  0
 23 25  1  0  0  0  0
 23 21  2  0  0  0  0
 24 23  1  0  0  0  0
 25 18  1  0  0  0  0
 26 31  1  0  0  0  0
 26  1  1  0  0  0  0
 27 33  1  0  0  0  0
 28 34  1  0  0  0  0
 28 27  2  0  0  0  0
 29 28  1  0  0  0  0
 30 29  2  0  0  0  0
 30 31  1  0  0  0  0
 31 32  2  0  0  0  0
 32 27  1  0  0  0  0
 36 35  1  0  0  0  0
 37 36  1  0  0  0  0
 37 29  1  0  0  0  0
 38 37  2  0  0  0  0
 39 40  2  0  0  0  0
 39 38  1  0  0  0  0
 40 41  1  0  0  0  0
 41 45  1  0  0  0  0
 41 36  2  0  0  0  0
 42 38  1  0  0  0  0
 43 39  1  0  0  0  0
 44 40  1  0  0  0  0
M  END
>  <minimizedAffinity>
-6.0748477

$$$$

 OpenBabel03272509593D

 45 48  0  0  0  0  0  0  0  0999 V2000
   37.7360   26.6260   32.1880 C   0  0  0  0  0  0  0  0  0  0  0  0
   37.3800   26.9900   31.1920 H   0  0  0  0  0  0  0  0  0  0  0  0
   37.5830   25.5370   32.1870 H   0  0  0  0  0  0  0  0  0  0  0  0
   39.1820   27.0260   32.2810 C   0  0  0  0  0  0  0  0  0  0  0  0
   39.2620   28.0840   32.5370 H   0  0  0  0  0  0  0  0  0  0  0  0
   39.7150   26.8890   31.3080 H   0  0  0  0  0  0  0  0  0  0  0  0
   39.9400   26.2140   33.2780 C   0  0  0  0  0  0  0  0  0  0  0  0
   41.2060   26.6670   33.6560 C   0  0  0  0  0  0  0  0  0  0  0  0
   41.9710   25.9820   34.5670 C   0  0  0  0  0  0  0  0  0  0  0  0
   41.4970   24.8540   35.1050 N   0  0  0  0  0  0  0  0  0  0  0  0
   40.2610   24.4320   34.7200 C   0  0  0  0  0  0  0  0  0  0  0  0
   39.4850   25.0770   33.8330 N   0  0  0  0  0  0  0  0  0  0  0  0
   41.6500   27.5720   33.2610 H   0  0  0  0  0  0  0  0  0  0  0  0
   42.9560   26.3140   34.8760 H   0  0  0  0  0  0  0  0  0  0  0  0
   39.7750   23.1600   35.3530 C   0  0  0  0  0  0  0  0  0  0  0  0
   39.0630   22.7190   34.6250 H   0  0  0  0  0  0  0  0  0  0  0  0
   40.6310   22.4520   35.4190 H   0  0  0  0  0  0  0  0  0  0  0  0
   39.1750   23.4230   36.6860 C   0  0  0  0  0  0  0  0  0  0  0  0
   38.0440   24.1950   36.8790 C   0  0  0  0  0  0  0  0  0  0  0  0
   37.4810   24.6850   36.0740 H   0  0  0  0  0  0  0  0  0  0  0  0
   37.8280   24.1860   38.2440 C   0  0  0  0  0  0  0  0  0  0  0  0
   36.9770   24.7370   38.6400 H   0  0  0  0  0  0  0  0  0  0  0  0
   38.8400   23.4080   38.8150 C   0  0  0  0  0  0  0  0  0  0  0  0
   38.8090   23.3020   39.8920 H   0  0  0  0  0  0  0  0  0  0  0  0
   39.5920   22.9950   37.8390 O   0  0  0  0  0  0  0  0  0  0  0  0
   36.9440   27.2970   33.1450 O   0  0  0  0  0  0  0  0  0  0  0  0
   35.7560   30.2650   31.4570 C   0  0  0  0  0  0  0  0  0  0  0  0
   35.1650   30.9550   32.5380 C   0  0  0  0  0  0  0  0  0  0  0  0
   35.2180   30.3440   33.7840 C   0  0  0  0  0  0  0  0  0  0  0  0
   35.8410   29.1260   33.8420 N   0  0  0  0  0  0  0  0  0  0  0  0
   36.3900   28.4930   32.8150 C   0  0  0  0  0  0  0  0  0  0  0  0
   36.3420   29.0830   31.6010 N   0  0  0  0  0  0  0  0  0  0  0  0
   35.6960   30.7730   30.4970 H   0  0  0  0  0  0  0  0  0  0  0  0
   34.6810   31.9070   32.4810 H   0  0  0  0  0  0  0  0  0  0  0  0
   36.6080   31.7710   35.8900 F   0  0  0  0  0  0  0  0  0  0  0  0
   35.3000   31.5570   35.9900 C   0  0  0  0  0  0  0  0  0  0  0  0
   34.6680   30.8970   35.0110 C   0  0  0  0  0  0  0  0  0  0  0  0
   33.3080   30.7290   35.2140 C   0  0  0  0  0  0  0  0  0  0  0  0
   32.6580   31.1970   36.3240 C   0  0  0  0  0  0  0  0  0  0  0  0
   33.3480   31.8740   37.3130 C   0  0  0  0  0  0  0  0  0  0  0  0
   34.6810   32.0470   37.1270 C   0  0  0  0  0  0  0  0  0  0  0  0
   32.6830   30.2030   34.4820 H   0  0  0  0  0  0  0  0  0  0  0  0
   31.5920   31.0510   36.4570 H   0  0  0  0  0  0  0  0  0  0  0  0
   32.8720   32.2640   38.2100 H   0  0  0  0  0  0  0  0  0  0  0  0
   35.2440   32.5740   37.8870 H   0  0  0  0  0  0  0  0  0  0  0  0
  1  4  1  0  0  0  0
  1 26  1  0  0  0  0
  2  1  1  0  0  0  0
  3  1  1  0  0  0  0
  4  5  1  0  0  0  0
  4  7  1  0  0  0  0
  6  4  1  0  0  0  0
  7  8  2  0  0  0  0
  7 12  1  0  0  0  0
  8  9  1  0  0  0  0
  9 14  1  0  0  0  0
  9 10  2  0  0  0  0
 11 10  1  0  0  0  0
 11 15  1  0  0  0  0
 12 11  2  0  0  0  0
 13  8  1  0  0  0  0
 15 17  1  0  0  0  0
 15 18  1  0  0  0  0
 16 15  1  0  0  0  0
 18 19  2  0  0  0  0
 18 25  1  0  0  0  0
 19 21  1  0  0  0  0
 20 19  1  0  0  0  0
 21 22  1  0  0  0  0
 21 23  2  0  0  0  0
 23 24  1  0  0  0  0
 25 23  1  0  0  0  0
 27 32  2  0  0  0  0
 27 28  1  0  0  0  0
 28 29  2  0  0  0  0
 29 30  1  0  0  0  0
 29 37  1  0  0  0  0
 31 26  1  0  0  0  0
 31 30  2  0  0  0  0
 32 31  1  0  0  0  0
 33 27  1  0  0  0  0
 34 28  1  0  0  0  0
 35 36  1  0  0  0  0
 36 41  1  0  0  0  0
 37 38  1  0  0  0  0
 37 36  2  0  0  0  0
 38 39  2  0  0  0  0
 39 43  1  0  0  0  0
 39 40  1  0  0  0  0
 40 44  1  0  0  0  0
 41 40  2  0  0  0  0
 41 45  1  0  0  0  0
 42 38  1  0  0  0  0
M  END
>  <minimizedAffinity>
-5.98710394

$$$$

 OpenBabel03272509593D

 45 48  0  0  0  0  0  0  0  0999 V2000
   38.4230   27.3050   35.0730 C   0  0  0  0  0  0  0  0  0  0  0  0
   38.2580   28.3740   35.3580 H   0  0  0  0  0  0  0  0  0  0  0  0
   39.4450   27.2520   34.6690 H   0  0  0  0  0  0  0  0  0  0  0  0
   38.2370   26.5080   36.3340 C   0  0  0  0  0  0  0  0  0  0  0  0
   37.2090   26.6010   36.6880 H   0  0  0  0  0  0  0  0  0  0  0  0
   38.8960   26.8750   37.1590 H   0  0  0  0  0  0  0  0  0  0  0  0
   38.5740   25.0650   36.1560 C   0  0  0  0  0  0  0  0  0  0  0  0
   37.6660   24.1220   36.6450 C   0  0  0  0  0  0  0  0  0  0  0  0
   37.8960   22.7740   36.5230 C   0  0  0  0  0  0  0  0  0  0  0  0
   39.0140   22.3510   35.9250 N   0  0  0  0  0  0  0  0  0  0  0  0
   39.8840   23.2890   35.4570 C   0  0  0  0  0  0  0  0  0  0  0  0
   39.6910   24.6140   35.5590 N   0  0  0  0  0  0  0  0  0  0  0  0
   36.7420   24.3950   37.1390 H   0  0  0  0  0  0  0  0  0  0  0  0
   37.2070   22.0240   36.8950 H   0  0  0  0  0  0  0  0  0  0  0  0
   41.1240   22.7620   34.7940 C   0  0  0  0  0  0  0  0  0  0  0  0
   41.1110   21.6660   34.9690 H   0  0  0  0  0  0  0  0  0  0  0  0
   41.0210   22.9020   33.6950 H   0  0  0  0  0  0  0  0  0  0  0  0
   42.3380   23.4340   35.3240 C   0  0  0  0  0  0  0  0  0  0  0  0
   42.9150   23.1270   36.5420 C   0  0  0  0  0  0  0  0  0  0  0  0
   42.5370   22.3620   37.2330 H   0  0  0  0  0  0  0  0  0  0  0  0
   44.0040   23.9700   36.6490 C   0  0  0  0  0  0  0  0  0  0  0  0
   44.6240   23.9090   37.5430 H   0  0  0  0  0  0  0  0  0  0  0  0
   44.0370   24.7490   35.4890 C   0  0  0  0  0  0  0  0  0  0  0  0
   44.8440   25.4680   35.4210 H   0  0  0  0  0  0  0  0  0  0  0  0
   43.0290   24.3780   34.7590 O   0  0  0  0  0  0  0  0  0  0  0  0
   37.4310   27.0080   34.1140 O   0  0  0  0  0  0  0  0  0  0  0  0
   36.0000   29.3910   31.8030 C   0  0  0  0  0  0  0  0  0  0  0  0
   35.2810   30.2140   32.6960 C   0  0  0  0  0  0  0  0  0  0  0  0
   35.3390   29.8880   34.0450 C   0  0  0  0  0  0  0  0  0  0  0  0
   36.0930   28.7940   34.3770 N   0  0  0  0  0  0  0  0  0  0  0  0
   36.7620   28.0320   33.5230 C   0  0  0  0  0  0  0  0  0  0  0  0
   36.7080   28.3450   32.2110 N   0  0  0  0  0  0  0  0  0  0  0  0
   35.9310   29.6760   30.7560 H   0  0  0  0  0  0  0  0  0  0  0  0
   34.6950   31.0670   32.4260 H   0  0  0  0  0  0  0  0  0  0  0  0
   32.5520   29.7510   34.8300 F   0  0  0  0  0  0  0  0  0  0  0  0
   33.3830   30.5580   35.4820 C   0  0  0  0  0  0  0  0  0  0  0  0
   34.6690   30.6130   35.1120 C   0  0  0  0  0  0  0  0  0  0  0  0
   35.4460   31.4840   35.8570 C   0  0  0  0  0  0  0  0  0  0  0  0
   34.9460   32.2300   36.8900 C   0  0  0  0  0  0  0  0  0  0  0  0
   33.6110   32.1440   37.2410 C   0  0  0  0  0  0  0  0  0  0  0  0
   32.8370   31.2940   36.5200 C   0  0  0  0  0  0  0  0  0  0  0  0
   36.5140   31.6160   35.6470 H   0  0  0  0  0  0  0  0  0  0  0  0
   35.5780   32.9050   37.4560 H   0  0  0  0  0  0  0  0  0  0  0  0
   33.1720   32.7180   38.0540 H   0  0  0  0  0  0  0  0  0  0  0  0
   31.7890   31.2090   36.7750 H   0  0  0  0  0  0  0  0  0  0  0  0
  1  2  1  0  0  0  0
  1  4  1  0  0  0  0
  3  1  1  0  0  0  0
  4  5  1  0  0  0  0
  4  6  1  0  0  0  0
  7  4  1  0  0  0  0
  7  8  1  0  0  0  0
  8 13  1  0  0  0  0
  9  8  2  0  0  0  0
  9 14  1  0  0  0  0
 10  9  1  0  0  0  0
 11 12  1  0  0  0  0
 11 10  2  0  0  0  0
 12  7  2  0  0  0  0
 15 16  1  0  0  0  0
 15 18  1  0  0  0  0
 15 11  1  0  0  0  0
 17 15  1  0  0  0  0
 18 19  2  0  0  0  0
 19 21  1  0  0  0  0
 19 20  1  0  0  0  0
 21 22  1  0  0  0  0
 23 21  2  0  0  0  0
 24 23  1  0  0  0  0
 25 18  1  0  0  0  0
 25 23  1  0  0  0  0
 26  1  1  0  0  0  0
 27 32  2  0  0  0  0
 27 28  1  0  0  0  0
 28 29  2  0  0  0  0
 29 30  1  0  0  0  0
 29 37  1  0  0  0  0
 31 26  1  0  0  0  0
 31 30  2  0  0  0  0
 32 31  1  0  0  0  0
 33 27  1  0  0  0  0
 34 28  1  0  0  0  0
 35 36  1  0  0  0  0
 36 41  1  0  0  0  0
 37 36  2  0  0  0  0
 37 38  1  0  0  0  0
 38 39  2  0  0  0  0
 39 40  1  0  0  0  0
 39 43  1  0  0  0  0
 40 44  1  0  0  0  0
 41 45  1  0  0  0  0
 41 40  2  0  0  0  0
 42 38  1  0  0  0  0
M  END
>  <minimizedAffinity>
-5.96209192

$$$$
