
 OpenBabel03272505493D

 39 43  0  0  0  0  0  0  0  0999 V2000
   36.3090   30.3810   46.0580 C   0  0  0  0  0  0  0  0  0  0  0  0
   36.8410   30.7860   47.2270 C   0  0  0  0  0  0  0  0  0  0  0  0
   36.2020   30.5040   48.4240 C   0  0  0  0  0  0  0  0  0  0  0  0
   35.0040   29.7950   48.3810 C   0  0  0  0  0  0  0  0  0  0  0  0
   34.4570   29.3770   47.1570 C   0  0  0  0  0  0  0  0  0  0  0  0
   35.1390   29.6910   46.0350 N   0  0  0  0  0  0  0  0  0  0  0  0
   37.7740   31.3390   47.2840 H   0  0  0  0  0  0  0  0  0  0  0  0
   36.5580   30.7890   49.3940 H   0  0  0  0  0  0  0  0  0  0  0  0
   34.4370   29.5310   49.2670 H   0  0  0  0  0  0  0  0  0  0  0  0
   36.9970   30.6840   44.7490 C   0  0  0  0  0  0  0  0  0  0  0  0
   36.7140   29.8000   43.5830 C   0  0  0  0  0  0  0  0  0  0  0  0
   36.1510   31.1870   43.6190 C   0  0  0  0  0  0  0  0  0  0  0  0
   36.0060   28.9630   43.7920 H   0  0  0  0  0  0  0  0  0  0  0  0
   37.5340   29.5250   42.9210 H   0  0  0  0  0  0  0  0  0  0  0  0
   36.6470   31.8940   42.9230 H   0  0  0  0  0  0  0  0  0  0  0  0
   35.0490   31.2600   43.7250 H   0  0  0  0  0  0  0  0  0  0  0  0
   39.6330   33.2470   45.0720 C   0  0  0  0  0  0  0  0  0  0  0  0
   40.7820   32.4630   45.3210 C   0  0  0  0  0  0  0  0  0  0  0  0
   40.6430   31.0480   45.3760 C   0  0  0  0  0  0  0  0  0  0  0  0
   39.4070   30.5480   45.1850 N   0  0  0  0  0  0  0  0  0  0  0  0
   38.3140   31.3120   44.9470 C   0  0  0  0  0  0  0  0  0  0  0  0
   38.4260   32.6490   44.8910 N   0  0  0  0  0  0  0  0  0  0  0  0
   39.7430   34.3240   45.0300 H   0  0  0  0  0  0  0  0  0  0  0  0
   41.7300   32.9680   45.4610 H   0  0  0  0  0  0  0  0  0  0  0  0
   41.5180   30.4700   45.5650 H   0  0  0  0  0  0  0  0  0  0  0  0
   33.2080   28.6350   47.0650 C   0  0  0  0  0  0  0  0  0  0  0  0
   32.6950   27.9030   46.0420 N   0  0  0  0  0  0  0  0  0  0  0  0
   31.4940   27.3870   46.4090 C   0  0  0  0  0  0  0  0  0  0  0  0
   31.2700   27.8180   47.6900 N   0  0  0  0  0  0  0  0  0  0  0  0
   32.2990   28.5660   48.0810 N   0  0  0  0  0  0  0  0  0  0  0  0
   30.8010   26.7650   45.8750 H   0  0  0  0  0  0  0  0  0  0  0  0
   30.1560   27.5750   48.5700 C   0  0  0  0  0  0  0  0  0  0  0  0
   29.9290   27.6620   49.9310 C   0  0  0  0  0  0  0  0  0  0  0  0
   30.7520   27.9900   50.5590 H   0  0  0  0  0  0  0  0  0  0  0  0
   28.6100   27.2710   50.0860 C   0  0  0  0  0  0  0  0  0  0  0  0
   28.1990   27.2620   51.1050 H   0  0  0  0  0  0  0  0  0  0  0  0
   28.1040   26.9680   48.8220 C   0  0  0  0  0  0  0  0  0  0  0  0
   27.0750   26.6520   48.8450 H   0  0  0  0  0  0  0  0  0  0  0  0
   29.0620   27.1660   47.9690 O   0  0  0  0  0  0  0  0  0  0  0  0
  1  2  1  0  0  0  0
  2  7  1  0  0  0  0
  2  3  2  0  0  0  0
  3  8  1  0  0  0  0
  4  3  1  0  0  0  0
  4  9  1  0  0  0  0
  5  4  2  0  0  0  0
  6  1  2  0  0  0  0
  6  5  1  0  0  0  0
 10 21  1  0  0  0  0
 10  1  1  0  0  0  0
 11 12  1  0  0  0  0
 11 13  1  0  0  0  0
 11 10  1  0  0  0  0
 12 16  1  0  0  0  0
 12 10  1  0  0  0  0
 14 11  1  0  0  0  0
 15 12  1  0  0  0  0
 17 18  1  0  0  0  0
 18 19  2  0  0  0  0
 18 24  1  0  0  0  0
 19 25  1  0  0  0  0
 20 19  1  0  0  0  0
 21 20  2  0  0  0  0
 22 21  1  0  0  0  0
 22 17  2  0  0  0  0
 23 17  1  0  0  0  0
 26  5  1  0  0  0  0
 26 30  2  0  0  0  0
 27 28  2  0  0  0  0
 27 26  1  0  0  0  0
 28 29  1  0  0  0  0
 29 30  1  0  0  0  0
 29 32  1  0  0  0  0
 31 28  1  0  0  0  0
 32 33  2  0  0  0  0
 33 35  1  0  0  0  0
 33 34  1  0  0  0  0
 35 36  1  0  0  0  0
 37 38  1  0  0  0  0
 37 35  2  0  0  0  0
 39 32  1  0  0  0  0
 39 37  1  0  0  0  0
M  END
>  <minimizedAffinity>
-5.63840008

>  <minimizedRMSD>
0.903046787

$$$$
