
 OpenBabel03272509303D

 37 39  0  0  1  0  0  0  0  0999 V2000
   36.3700   30.7340   48.9580 C   0  0  2  0  0  0  0  0  0  0  0  0
   37.3570   31.6130   49.6650 C   0  0  0  0  0  0  0  0  0  0  0  0
   38.2580   30.8460   50.6080 C   0  0  0  0  0  0  0  0  0  0  0  0
   37.4250   30.0760   51.6320 C   0  0  0  0  0  0  0  0  0  0  0  0
   36.1550   29.4920   51.0730 C   0  0  0  0  0  0  0  0  0  0  0  0
   36.3120   29.3630   49.5460 C   0  0  1  0  0  0  0  0  0  0  0  0
   35.3100   31.1310   48.9970 H   0  0  0  0  0  0  0  0  0  0  0  0
   36.7180   32.2470   50.3680 H   0  0  0  0  0  0  0  0  0  0  0  0
   37.9000   32.3270   49.0760 H   0  0  0  0  0  0  0  0  0  0  0  0
   38.8540   31.5900   51.1510 H   0  0  0  0  0  0  0  0  0  0  0  0
   38.9130   30.1180   50.1200 H   0  0  0  0  0  0  0  0  0  0  0  0
   37.1640   30.7670   52.4540 H   0  0  0  0  0  0  0  0  0  0  0  0
   38.0350   29.2270   52.0420 H   0  0  0  0  0  0  0  0  0  0  0  0
   35.3030   30.1640   51.2110 H   0  0  0  0  0  0  0  0  0  0  0  0
   35.9560   28.4810   51.4910 H   0  0  0  0  0  0  0  0  0  0  0  0
   37.2600   28.8840   49.4930 H   0  0  0  0  0  0  0  0  0  0  0  0
   36.6940   30.6200   47.5110 C   0  0  0  0  0  0  0  0  0  0  0  0
   38.0490   30.7910   47.1790 C   0  0  0  0  0  0  0  0  0  0  0  0
   38.3800   30.6860   45.8230 C   0  0  0  0  0  0  0  0  0  0  0  0
   37.3780   30.4270   44.9140 N   0  0  0  0  0  0  0  0  0  0  0  0
   36.0740   30.2690   45.2920 C   0  0  0  0  0  0  0  0  0  0  0  0
   35.7510   30.3690   46.5970 N   0  0  0  0  0  0  0  0  0  0  0  0
   38.9150   30.9850   47.7810 H   0  0  0  0  0  0  0  0  0  0  0  0
   39.3760   30.7940   45.4200 H   0  0  0  0  0  0  0  0  0  0  0  0
   35.3780   30.0690   44.4930 H   0  0  0  0  0  0  0  0  0  0  0  0
   33.9910   28.4070   49.1470 C   0  0  0  0  0  0  0  0  0  0  0  0
   33.2180   29.1060   49.8660 O   0  0  0  0  0  0  0  0  0  0  0  0
   35.3930   28.4800   48.9240 N   0  0  0  0  0  0  0  0  0  0  0  0
   35.7350   27.7730   48.1950 H   0  0  0  0  0  0  0  0  0  0  0  0
   33.1920   27.3560   48.4650 C   0  0  0  0  0  0  0  0  0  0  0  0
   33.6270   26.3820   47.5960 C   0  0  0  0  0  0  0  0  0  0  0  0
   34.6190   26.1990   47.2510 H   0  0  0  0  0  0  0  0  0  0  0  0
   32.5370   25.5990   47.1870 C   0  0  0  0  0  0  0  0  0  0  0  0
   32.5790   24.7550   46.5010 H   0  0  0  0  0  0  0  0  0  0  0  0
   31.4710   26.1680   47.8560 C   0  0  0  0  0  0  0  0  0  0  0  0
   30.4600   25.7880   47.7530 H   0  0  0  0  0  0  0  0  0  0  0  0
   31.9000   27.1600   48.5660 O   0  0  0  0  0  0  0  0  0  0  0  0
  1  7  1  1  0  0  0
  1  6  1  0  0  0  0
  1  2  1  0  0  0  0
  2  8  1  0  0  0  0
  2  3  1  0  0  0  0
  3 10  1  0  0  0  0
  3  4  1  0  0  0  0
  4 13  1  0  0  0  0
  4 12  1  0  0  0  0
  5 14  1  0  0  0  0
  5 15  1  0  0  0  0
  5  4  1  0  0  0  0
  6 16  1  6  0  0  0
  6  5  1  0  0  0  0
  9  2  1  0  0  0  0
 11  3  1  0  0  0  0
 17  1  1  0  0  0  0
 18 17  1  0  0  0  0
 18 23  1  0  0  0  0
 19 18  2  0  0  0  0
 20 21  2  0  0  0  0
 20 19  1  0  0  0  0
 21 22  1  0  0  0  0
 22 17  2  0  0  0  0
 24 19  1  0  0  0  0
 25 21  1  0  0  0  0
 26 27  2  0  0  0  0
 28 26  1  0  0  0  0
 28  6  1  0  0  0  0
 29 28  1  0  0  0  0
 30 37  1  0  0  0  0
 30 26  1  0  0  0  0
 31 30  2  0  0  0  0
 32 31  1  0  0  0  0
 33 31  1  0  0  0  0
 33 35  2  0  0  0  0
 34 33  1  0  0  0  0
 35 37  1  0  0  0  0
 36 35  1  0  0  0  0
M  END
>  <minimizedAffinity>
-5.91438961

>  <minimizedRMSD>
0.610823095

$$$$
