
 OpenBabel03272508423D

 19 20  0  0  0  0  0  0  0  0999 V2000
   34.2360   29.2210   49.7600 C   0  0  0  0  0  0  0  0  0  0  0  0
   33.5610   29.6110   50.7390 O   0  0  0  0  0  0  0  0  0  0  0  0
   37.7760   30.0000   50.0620 C   0  0  0  0  0  0  0  0  0  0  0  0
   38.0350   30.7730   48.9260 C   0  0  0  0  0  0  0  0  0  0  0  0
   36.9940   31.0370   48.0410 C   0  0  0  0  0  0  0  0  0  0  0  0
   35.7790   30.5190   48.3410 N   0  0  0  0  0  0  0  0  0  0  0  0
   35.5500   29.7740   49.4440 C   0  0  0  0  0  0  0  0  0  0  0  0
   36.5520   29.5150   50.3050 N   0  0  0  0  0  0  0  0  0  0  0  0
   38.5860   29.7830   50.7700 H   0  0  0  0  0  0  0  0  0  0  0  0
   39.0260   31.1700   48.7230 H   0  0  0  0  0  0  0  0  0  0  0  0
   37.1170   31.6260   47.1430 H   0  0  0  0  0  0  0  0  0  0  0  0
   33.6650   28.1650   48.9120 C   0  0  0  0  0  0  0  0  0  0  0  0
   32.3120   27.8930   48.8180 C   0  0  0  0  0  0  0  0  0  0  0  0
   31.5140   28.3980   49.3340 H   0  0  0  0  0  0  0  0  0  0  0  0
   32.2740   26.8300   47.9090 C   0  0  0  0  0  0  0  0  0  0  0  0
   31.3590   26.3500   47.5910 H   0  0  0  0  0  0  0  0  0  0  0  0
   33.5600   26.5220   47.5110 C   0  0  0  0  0  0  0  0  0  0  0  0
   33.8800   25.7480   46.8130 H   0  0  0  0  0  0  0  0  0  0  0  0
   34.3660   27.3440   48.1340 O   0  0  0  0  0  0  0  0  0  0  0  0
  1  2  2  0  0  0  0
  3  8  1  0  0  0  0
  3  9  1  0  0  0  0
  4  3  2  0  0  0  0
  5  6  2  0  0  0  0
  5  4  1  0  0  0  0
  6  7  1  0  0  0  0
  7  1  1  0  0  0  0
  7  8  2  0  0  0  0
 10  4  1  0  0  0  0
 11  5  1  0  0  0  0
 12  1  1  0  0  0  0
 13 12  2  0  0  0  0
 13 14  1  0  0  0  0
 15 13  1  0  0  0  0
 16 15  1  0  0  0  0
 17 15  2  0  0  0  0
 17 19  1  0  0  0  0
 18 17  1  0  0  0  0
 19 12  1  0  0  0  0
M  END
>  <minimizedAffinity>
-3.83520532

>  <minimizedRMSD>
1.99661803

$$$$
