
 OpenBabel03272505493D

 39 43  0  0  0  0  0  0  0  0999 V2000
   36.3650   30.4180   46.0470 C   0  0  0  0  0  0  0  0  0  0  0  0
   36.8630   30.8600   47.2190 C   0  0  0  0  0  0  0  0  0  0  0  0
   36.2330   30.5430   48.4120 C   0  0  0  0  0  0  0  0  0  0  0  0
   35.0800   29.7630   48.3620 C   0  0  0  0  0  0  0  0  0  0  0  0
   34.5700   29.3070   47.1360 C   0  0  0  0  0  0  0  0  0  0  0  0
   35.2400   29.6580   46.0180 N   0  0  0  0  0  0  0  0  0  0  0  0
   37.7600   31.4690   47.2810 H   0  0  0  0  0  0  0  0  0  0  0  0
   36.5620   30.8530   49.3840 H   0  0  0  0  0  0  0  0  0  0  0  0
   34.5230   29.4680   49.2450 H   0  0  0  0  0  0  0  0  0  0  0  0
   37.0450   30.7580   44.7420 C   0  0  0  0  0  0  0  0  0  0  0  0
   36.7430   29.9150   43.5510 C   0  0  0  0  0  0  0  0  0  0  0  0
   36.1940   31.3060   43.6370 C   0  0  0  0  0  0  0  0  0  0  0  0
   36.0280   29.0790   43.7390 H   0  0  0  0  0  0  0  0  0  0  0  0
   37.5540   29.6550   42.8720 H   0  0  0  0  0  0  0  0  0  0  0  0
   36.6900   32.0300   42.9610 H   0  0  0  0  0  0  0  0  0  0  0  0
   35.0930   31.3850   43.7570 H   0  0  0  0  0  0  0  0  0  0  0  0
   39.7180   33.2810   45.0680 C   0  0  0  0  0  0  0  0  0  0  0  0
   40.8510   32.4820   45.3380 C   0  0  0  0  0  0  0  0  0  0  0  0
   40.6890   31.0700   45.4060 C   0  0  0  0  0  0  0  0  0  0  0  0
   39.4470   30.5870   45.2070 N   0  0  0  0  0  0  0  0  0  0  0  0
   38.3700   31.3660   44.9480 C   0  0  0  0  0  0  0  0  0  0  0  0
   38.5040   32.7010   44.8790 N   0  0  0  0  0  0  0  0  0  0  0  0
   39.8460   34.3560   45.0150 H   0  0  0  0  0  0  0  0  0  0  0  0
   41.8070   32.9720   45.4830 H   0  0  0  0  0  0  0  0  0  0  0  0
   41.5520   30.4800   45.6110 H   0  0  0  0  0  0  0  0  0  0  0  0
   33.3690   28.4900   47.0380 C   0  0  0  0  0  0  0  0  0  0  0  0
   32.9850   27.6060   46.0800 N   0  0  0  0  0  0  0  0  0  0  0  0
   31.7800   27.0740   46.4100 C   0  0  0  0  0  0  0  0  0  0  0  0
   31.4210   27.6510   47.5990 N   0  0  0  0  0  0  0  0  0  0  0  0
   32.3750   28.4990   47.9730 N   0  0  0  0  0  0  0  0  0  0  0  0
   31.1670   26.3510   45.9050 H   0  0  0  0  0  0  0  0  0  0  0  0
   30.2440   27.4590   48.4070 C   0  0  0  0  0  0  0  0  0  0  0  0
   28.9480   27.0310   48.1870 C   0  0  0  0  0  0  0  0  0  0  0  0
   28.6750   26.7540   47.1740 H   0  0  0  0  0  0  0  0  0  0  0  0
   28.3490   27.0960   49.4320 C   0  0  0  0  0  0  0  0  0  0  0  0
   27.2940   26.7970   49.5040 H   0  0  0  0  0  0  0  0  0  0  0  0
   29.3010   27.5550   50.3410 C   0  0  0  0  0  0  0  0  0  0  0  0
   28.9200   27.6370   51.3460 H   0  0  0  0  0  0  0  0  0  0  0  0
   30.3990   27.7520   49.6780 O   0  0  0  0  0  0  0  0  0  0  0  0
  1  2  1  0  0  0  0
  2  7  1  0  0  0  0
  2  3  2  0  0  0  0
  3  8  1  0  0  0  0
  4  3  1  0  0  0  0
  4  9  1  0  0  0  0
  5  4  2  0  0  0  0
  6  1  2  0  0  0  0
  6  5  1  0  0  0  0
 10 21  1  0  0  0  0
 10  1  1  0  0  0  0
 11 12  1  0  0  0  0
 11 13  1  0  0  0  0
 11 10  1  0  0  0  0
 12 16  1  0  0  0  0
 12 10  1  0  0  0  0
 14 11  1  0  0  0  0
 15 12  1  0  0  0  0
 17 18  1  0  0  0  0
 18 19  2  0  0  0  0
 18 24  1  0  0  0  0
 19 25  1  0  0  0  0
 20 19  1  0  0  0  0
 21 20  2  0  0  0  0
 22 21  1  0  0  0  0
 22 17  2  0  0  0  0
 23 17  1  0  0  0  0
 26  5  1  0  0  0  0
 26 30  2  0  0  0  0
 27 28  2  0  0  0  0
 27 26  1  0  0  0  0
 28 29  1  0  0  0  0
 29 30  1  0  0  0  0
 29 32  1  0  0  0  0
 31 28  1  0  0  0  0
 32 39  1  0  0  0  0
 33 32  2  0  0  0  0
 33 35  1  0  0  0  0
 34 33  1  0  0  0  0
 35 36  1  0  0  0  0
 35 37  2  0  0  0  0
 37 38  1  0  0  0  0
 39 37  1  0  0  0  0
M  END
>  <minimizedAffinity>
-5.62852907

>  <minimizedRMSD>
0.933529675

$$$$
