
 OpenBabel03272500123D

 20 21  0  0  0  0  0  0  0  0999 V2000
   35.5190   29.1600   50.4310 C   0  0  0  0  0  0  0  0  0  0  0  0
   36.1970   30.1760   49.7360 C   0  0  0  0  0  0  0  0  0  0  0  0
   35.9270   30.3540   48.3750 C   0  0  0  0  0  0  0  0  0  0  0  0
   35.0160   29.5320   47.7810 N   0  0  0  0  0  0  0  0  0  0  0  0
   34.3790   28.5620   48.4820 C   0  0  0  0  0  0  0  0  0  0  0  0
   34.6250   28.3780   49.7810 N   0  0  0  0  0  0  0  0  0  0  0  0
   35.7340   29.0320   51.4760 H   0  0  0  0  0  0  0  0  0  0  0  0
   36.4380   31.1210   47.8490 H   0  0  0  0  0  0  0  0  0  0  0  0
   33.3980   27.6630   47.8840 C   0  0  0  0  0  0  0  0  0  0  0  0
   33.6340   26.3570   47.5030 C   0  0  0  0  0  0  0  0  0  0  0  0
   34.5350   25.7780   47.5670 H   0  0  0  0  0  0  0  0  0  0  0  0
   32.4380   25.8920   46.9930 C   0  0  0  0  0  0  0  0  0  0  0  0
   32.1650   24.9280   46.5800 H   0  0  0  0  0  0  0  0  0  0  0  0
   31.5280   26.9270   47.0830 C   0  0  0  0  0  0  0  0  0  0  0  0
   30.4830   27.0320   46.8140 H   0  0  0  0  0  0  0  0  0  0  0  0
   32.1520   27.9440   47.6170 O   0  0  0  0  0  0  0  0  0  0  0  0
   37.1790   31.0200   50.4890 C   0  0  0  0  0  0  0  0  0  0  0  0
   38.4490   30.9510   49.8850 F   0  0  0  0  0  0  0  0  0  0  0  0
   36.7700   32.3260   50.4170 F   0  0  0  0  0  0  0  0  0  0  0  0
   37.3200   30.6340   51.7970 F   0  0  0  0  0  0  0  0  0  0  0  0
  1  7  1  0  0  0  0
  2  1  2  0  0  0  0
  2 17  1  0  0  0  0
  3  2  1  0  0  0  0
  4  3  2  0  0  0  0
  4  5  1  0  0  0  0
  5  6  2  0  0  0  0
  6  1  1  0  0  0  0
  8  3  1  0  0  0  0
  9  5  1  0  0  0  0
 10 11  1  0  0  0  0
 10  9  2  0  0  0  0
 12 14  2  0  0  0  0
 12 10  1  0  0  0  0
 13 12  1  0  0  0  0
 14 16  1  0  0  0  0
 15 14  1  0  0  0  0
 16  9  1  0  0  0  0
 17 20  1  0  0  0  0
 18 17  1  0  0  0  0
 19 17  1  0  0  0  0
M  END
>  <minimizedAffinity>
-4.83866882

>  <minimizedRMSD>
0.44044134

$$$$
