
 OpenBabel03272501183D

 29 31  0  0  0  0  0  0  0  0999 V2000
   38.8810   31.8890   47.7710 C   0  0  0  0  0  0  0  0  0  0  0  0
   38.3440   32.0990   49.0250 C   0  0  0  0  0  0  0  0  0  0  0  0
   38.6660   33.3300   49.6100 C   0  0  0  0  0  0  0  0  0  0  0  0
   39.4700   34.2550   48.9540 C   0  0  0  0  0  0  0  0  0  0  0  0
   39.9700   33.9560   47.6850 C   0  0  0  0  0  0  0  0  0  0  0  0
   39.6660   32.7420   47.0810 C   0  0  0  0  0  0  0  0  0  0  0  0
   38.2920   33.5870   50.5910 H   0  0  0  0  0  0  0  0  0  0  0  0
   39.7300   35.2110   49.3890 H   0  0  0  0  0  0  0  0  0  0  0  0
   40.6020   34.6840   47.1690 H   0  0  0  0  0  0  0  0  0  0  0  0
   36.1860   30.9600   49.3170 C   0  0  0  0  0  0  0  0  0  0  0  0
   37.5140   31.1430   49.7010 C   0  0  0  0  0  0  0  0  0  0  0  0
   37.9850   30.3600   50.7630 C   0  0  0  0  0  0  0  0  0  0  0  0
   37.1260   29.4770   51.3470 N   0  0  0  0  0  0  0  0  0  0  0  0
   35.8510   29.3370   50.9390 C   0  0  0  0  0  0  0  0  0  0  0  0
   35.3780   30.0830   49.9170 N   0  0  0  0  0  0  0  0  0  0  0  0
   35.7840   31.5470   48.5010 H   0  0  0  0  0  0  0  0  0  0  0  0
   39.0100   30.5040   51.0560 H   0  0  0  0  0  0  0  0  0  0  0  0
   35.3850   28.5790   51.5590 H   0  0  0  0  0  0  0  0  0  0  0  0
   38.6160   30.6890   47.1040 O   0  0  0  0  0  0  0  0  0  0  0  0
   37.7410   30.5470   46.5820 H   0  0  0  0  0  0  0  0  0  0  0  0
   40.1860   32.5000   45.8290 O   0  0  0  0  0  0  0  0  0  0  0  0
   39.4460   32.5100   44.6540 C   0  0  0  0  0  0  0  0  0  0  0  0
   38.1000   32.1820   44.8190 C   0  0  0  0  0  0  0  0  0  0  0  0
   37.4460   31.9130   45.6410 H   0  0  0  0  0  0  0  0  0  0  0  0
   37.5210   32.2430   43.5470 C   0  0  0  0  0  0  0  0  0  0  0  0
   36.5520   32.0940   43.0870 H   0  0  0  0  0  0  0  0  0  0  0  0
   38.5540   32.6020   42.7000 C   0  0  0  0  0  0  0  0  0  0  0  0
   38.7320   32.8010   41.6390 H   0  0  0  0  0  0  0  0  0  0  0  0
   39.6690   32.7510   43.3800 O   0  0  0  0  0  0  0  0  0  0  0  0
  1  2  1  0  0  0  0
  2  3  2  0  0  0  0
  2 11  1  0  0  0  0
  3  7  1  0  0  0  0
  4  8  1  0  0  0  0
  4  3  1  0  0  0  0
  5  4  2  0  0  0  0
  6  5  1  0  0  0  0
  6  1  2  0  0  0  0
  9  5  1  0  0  0  0
 10 11  2  0  0  0  0
 10 15  1  0  0  0  0
 11 12  1  0  0  0  0
 12 17  1  0  0  0  0
 12 13  2  0  0  0  0
 14 13  1  0  0  0  0
 14 18  1  0  0  0  0
 15 14  2  0  0  0  0
 16 10  1  0  0  0  0
 19  1  1  0  0  0  0
 20 19  1  0  0  0  0
 21  6  1  0  0  0  0
 22 23  2  0  0  0  0
 22 21  1  0  0  0  0
 23 24  1  0  0  0  0
 25 23  1  0  0  0  0
 26 25  1  0  0  0  0
 27 29  1  0  0  0  0
 27 25  2  0  0  0  0
 28 27  1  0  0  0  0
 29 22  1  0  0  0  0
M  END
>  <minimizedAffinity>
-6.04706621

>  <minimizedRMSD>
0.351939887

$$$$
