
 OpenBabel03272506433D

 31 33  0  0  1  0  0  0  0  0999 V2000
   32.2300   28.2030   47.5860 C   0  0  2  0  0  0  0  0  0  0  0  0
   33.5210   28.1720   48.3660 C   0  0  1  0  0  0  0  0  0  0  0  0
   34.0490   26.9060   48.2360 O   0  0  0  0  0  0  0  0  0  0  0  0
   33.3330   26.2140   47.2710 C   0  0  0  0  0  0  0  0  0  0  0  0
   32.5900   27.2650   46.4480 C   0  0  1  0  0  0  0  0  0  0  0  0
   31.3550   27.8740   48.1690 H   0  0  0  0  0  0  0  0  0  0  0  0
   33.3680   28.4720   49.4230 H   0  0  0  0  0  0  0  0  0  0  0  0
   34.0020   25.6550   46.5980 H   0  0  0  0  0  0  0  0  0  0  0  0
   32.5770   25.6020   47.7840 H   0  0  0  0  0  0  0  0  0  0  0  0
   33.2460   27.8100   45.7690 H   0  0  0  0  0  0  0  0  0  0  0  0
   31.9730   29.5010   47.1170 O   0  0  0  0  0  0  0  0  0  0  0  0
   31.1980   29.5150   46.5340 H   0  0  0  0  0  0  0  0  0  0  0  0
   34.6720   29.3330   47.5510 S   0  0  0  0  0  0  0  0  0  0  0  0
   37.2240   29.3480   50.5870 C   0  0  0  0  0  0  0  0  0  0  0  0
   37.7550   30.6310   50.6000 C   0  0  0  0  0  0  0  0  0  0  0  0
   37.3160   31.5400   49.6370 C   0  0  0  0  0  0  0  0  0  0  0  0
   36.3830   31.1320   48.7220 N   0  0  0  0  0  0  0  0  0  0  0  0
   35.8940   29.8670   48.7500 C   0  0  0  0  0  0  0  0  0  0  0  0
   36.3030   28.9700   49.6720 N   0  0  0  0  0  0  0  0  0  0  0  0
   37.6010   28.6960   51.3530 H   0  0  0  0  0  0  0  0  0  0  0  0
   38.4920   30.9680   51.3170 H   0  0  0  0  0  0  0  0  0  0  0  0
   37.6640   32.5530   49.5620 H   0  0  0  0  0  0  0  0  0  0  0  0
   31.4850   26.6950   45.8450 O   0  0  0  0  0  0  0  0  0  0  0  0
   30.1690   27.0510   46.0460 C   0  0  0  0  0  0  0  0  0  0  0  0
   29.3710   26.0590   46.6180 C   0  0  0  0  0  0  0  0  0  0  0  0
   29.5460   25.0360   46.9560 H   0  0  0  0  0  0  0  0  0  0  0  0
   28.0840   26.5940   46.7440 C   0  0  0  0  0  0  0  0  0  0  0  0
   27.1490   26.2010   47.1280 H   0  0  0  0  0  0  0  0  0  0  0  0
   28.2230   27.8800   46.2290 C   0  0  0  0  0  0  0  0  0  0  0  0
   27.4020   28.6050   46.1670 H   0  0  0  0  0  0  0  0  0  0  0  0
   29.4530   28.1060   45.8330 O   0  0  0  0  0  0  0  0  0  0  0  0
  1  6  1  1  0  0  0
  1  2  1  0  0  0  0
  2  7  1  1  0  0  0
  3  2  1  0  0  0  0
  4  9  1  0  0  0  0
  4  3  1  0  0  0  0
  5 10  1  6  0  0  0
  5  4  1  0  0  0  0
  5  1  1  0  0  0  0
  8  4  1  0  0  0  0
 11  1  1  0  0  0  0
 12 11  1  0  0  0  0
 13  2  1  0  0  0  0
 13 18  1  0  0  0  0
 14 15  1  0  0  0  0
 14 20  1  0  0  0  0
 15 21  1  0  0  0  0
 16 15  2  0  0  0  0
 17 18  2  0  0  0  0
 17 16  1  0  0  0  0
 18 19  1  0  0  0  0
 19 14  2  0  0  0  0
 22 16  1  0  0  0  0
 23 24  1  0  0  0  0
 23  5  1  0  0  0  0
 24 25  2  0  0  0  0
 25 27  1  0  0  0  0
 25 26  1  0  0  0  0
 27 28  1  0  0  0  0
 29 27  2  0  0  0  0
 30 29  1  0  0  0  0
 31 24  1  0  0  0  0
 31 29  1  0  0  0  0
M  END
>  <minimizedAffinity>
-4.21877766

>  <minimizedRMSD>
2.01725292

$$$$
