
 OpenBabel03272506433D

 31 33  0  0  1  0  0  0  0  0999 V2000
   32.3930   28.3530   47.4910 C   0  0  2  0  0  0  0  0  0  0  0  0
   33.6280   28.4230   48.3540 C   0  0  1  0  0  0  0  0  0  0  0  0
   34.1900   27.1650   48.3720 O   0  0  0  0  0  0  0  0  0  0  0  0
   33.5570   26.3740   47.4260 C   0  0  0  0  0  0  0  0  0  0  0  0
   32.8490   27.3300   46.4670 C   0  0  1  0  0  0  0  0  0  0  0  0
   31.4870   28.0510   48.0420 H   0  0  0  0  0  0  0  0  0  0  0  0
   33.3970   28.8080   49.3690 H   0  0  0  0  0  0  0  0  0  0  0  0
   34.2810   25.7780   46.8500 H   0  0  0  0  0  0  0  0  0  0  0  0
   32.7800   25.7880   47.9390 H   0  0  0  0  0  0  0  0  0  0  0  0
   33.5380   27.8320   45.7870 H   0  0  0  0  0  0  0  0  0  0  0  0
   32.1410   29.5980   46.8950 O   0  0  0  0  0  0  0  0  0  0  0  0
   31.4070   29.5410   46.2630 H   0  0  0  0  0  0  0  0  0  0  0  0
   34.8070   29.5410   47.5190 S   0  0  0  0  0  0  0  0  0  0  0  0
   37.3760   29.4800   50.5410 C   0  0  0  0  0  0  0  0  0  0  0  0
   37.9840   30.7280   50.5170 C   0  0  0  0  0  0  0  0  0  0  0  0
   37.5950   31.6360   49.5320 C   0  0  0  0  0  0  0  0  0  0  0  0
   36.6330   31.2620   48.6330 N   0  0  0  0  0  0  0  0  0  0  0  0
   36.0670   30.0300   48.6970 C   0  0  0  0  0  0  0  0  0  0  0  0
   36.4270   29.1350   49.6400 N   0  0  0  0  0  0  0  0  0  0  0  0
   37.7180   28.8260   51.3220 H   0  0  0  0  0  0  0  0  0  0  0  0
   38.7460   31.0370   51.2200 H   0  0  0  0  0  0  0  0  0  0  0  0
   38.0040   32.6230   49.4280 H   0  0  0  0  0  0  0  0  0  0  0  0
   31.8010   26.6810   45.8440 O   0  0  0  0  0  0  0  0  0  0  0  0
   31.5610   26.6290   44.4870 C   0  0  0  0  0  0  0  0  0  0  0  0
   31.1550   27.8340   43.9130 C   0  0  0  0  0  0  0  0  0  0  0  0
   30.9760   28.8420   44.2940 H   0  0  0  0  0  0  0  0  0  0  0  0
   30.9610   27.5910   42.5490 C   0  0  0  0  0  0  0  0  0  0  0  0
   30.6510   28.2170   41.7190 H   0  0  0  0  0  0  0  0  0  0  0  0
   31.2710   26.2390   42.4210 C   0  0  0  0  0  0  0  0  0  0  0  0
   31.2310   25.6920   41.4710 H   0  0  0  0  0  0  0  0  0  0  0  0
   31.6160   25.7170   43.5730 O   0  0  0  0  0  0  0  0  0  0  0  0
  1  6  1  1  0  0  0
  1  2  1  0  0  0  0
  2  3  1  0  0  0  0
  2  7  1  1  0  0  0
  4  9  1  0  0  0  0
  4  3  1  0  0  0  0
  5 10  1  6  0  0  0
  5  4  1  0  0  0  0
  5  1  1  0  0  0  0
  8  4  1  0  0  0  0
 11  1  1  0  0  0  0
 12 11  1  0  0  0  0
 13  2  1  0  0  0  0
 13 18  1  0  0  0  0
 14 20  1  0  0  0  0
 15 14  1  0  0  0  0
 15 21  1  0  0  0  0
 16 15  2  0  0  0  0
 17 18  2  0  0  0  0
 17 16  1  0  0  0  0
 18 19  1  0  0  0  0
 19 14  2  0  0  0  0
 22 16  1  0  0  0  0
 23  5  1  0  0  0  0
 24 23  1  0  0  0  0
 25 26  1  0  0  0  0
 25 24  2  0  0  0  0
 27 25  1  0  0  0  0
 28 27  1  0  0  0  0
 29 27  2  0  0  0  0
 29 31  1  0  0  0  0
 30 29  1  0  0  0  0
 31 24  1  0  0  0  0
M  END
>  <minimizedAffinity>
-3.68918443

>  <minimizedRMSD>
0.0395357423

$$$$
