
 OpenBabel03272500123D

 20 21  0  0  0  0  0  0  0  0999 V2000
   35.6470   29.0740   50.2750 C   0  0  0  0  0  0  0  0  0  0  0  0
   36.2670   30.1840   49.6760 C   0  0  0  0  0  0  0  0  0  0  0  0
   35.9890   30.4640   48.3340 C   0  0  0  0  0  0  0  0  0  0  0  0
   35.1270   29.6470   47.6650 N   0  0  0  0  0  0  0  0  0  0  0  0
   34.5460   28.5850   48.2740 C   0  0  0  0  0  0  0  0  0  0  0  0
   34.8000   28.3010   49.5530 N   0  0  0  0  0  0  0  0  0  0  0  0
   35.8670   28.8670   51.3070 H   0  0  0  0  0  0  0  0  0  0  0  0
   36.4560   31.3020   47.8810 H   0  0  0  0  0  0  0  0  0  0  0  0
   33.6190   27.6860   47.5930 C   0  0  0  0  0  0  0  0  0  0  0  0
   32.4810   27.1370   48.1500 C   0  0  0  0  0  0  0  0  0  0  0  0
   32.0770   27.2550   49.1370 H   0  0  0  0  0  0  0  0  0  0  0  0
   31.9150   26.3590   47.1580 C   0  0  0  0  0  0  0  0  0  0  0  0
   31.0210   25.7510   47.1540 H   0  0  0  0  0  0  0  0  0  0  0  0
   32.7260   26.4670   46.0460 C   0  0  0  0  0  0  0  0  0  0  0  0
   32.6890   26.0460   45.0470 H   0  0  0  0  0  0  0  0  0  0  0  0
   33.7140   27.2630   46.3630 O   0  0  0  0  0  0  0  0  0  0  0  0
   37.1970   31.0130   50.5060 C   0  0  0  0  0  0  0  0  0  0  0  0
   38.5000   30.9700   49.9730 F   0  0  0  0  0  0  0  0  0  0  0  0
   36.7810   32.3170   50.4480 F   0  0  0  0  0  0  0  0  0  0  0  0
   37.2690   30.5910   51.8090 F   0  0  0  0  0  0  0  0  0  0  0  0
  1  7  1  0  0  0  0
  2  1  1  0  0  0  0
  2 17  1  0  0  0  0
  3  2  2  0  0  0  0
  4  5  2  0  0  0  0
  4  3  1  0  0  0  0
  5  6  1  0  0  0  0
  6  1  2  0  0  0  0
  8  3  1  0  0  0  0
  9 10  2  0  0  0  0
  9  5  1  0  0  0  0
 10 11  1  0  0  0  0
 12 10  1  0  0  0  0
 13 12  1  0  0  0  0
 14 16  1  0  0  0  0
 14 12  2  0  0  0  0
 15 14  1  0  0  0  0
 16  9  1  0  0  0  0
 17 20  1  0  0  0  0
 18 17  1  0  0  0  0
 19 17  1  0  0  0  0
M  END
>  <minimizedAffinity>
-4.75564766

>  <minimizedRMSD>
0.221276686

$$$$
