
 OpenBabel03262520223D

 22 23  0  0  0  0  0  0  0  0999 V2000
   40.4500   23.7970   35.4370 C   0  0  0  0  0  0  0  0  0  0  0  0
   39.2860   24.1710   36.1650 C   0  0  0  0  0  0  0  0  0  0  0  0
   39.0070   23.4510   37.3070 C   0  0  0  0  0  0  0  0  0  0  0  0
   39.8820   22.4400   37.6400 N   0  0  0  0  0  0  0  0  0  0  0  0
   40.9640   22.1130   36.9460 C   0  0  0  0  0  0  0  0  0  0  0  0
   41.2340   22.8070   35.8380 N   0  0  0  0  0  0  0  0  0  0  0  0
   41.7650   21.0680   37.4540 N   0  0  0  0  0  0  0  0  0  0  0  0
   40.8260   24.2360   34.5290 H   0  0  0  0  0  0  0  0  0  0  0  0
   42.7590   21.3240   37.7080 H   0  0  0  0  0  0  0  0  0  0  0  0
   41.3060   20.1380   37.5330 H   0  0  0  0  0  0  0  0  0  0  0  0
   38.5580   25.3010   35.5920 C   0  0  0  0  0  0  0  0  0  0  0  0
   38.7400   26.6010   36.0120 C   0  0  0  0  0  0  0  0  0  0  0  0
   39.4000   27.0440   36.7870 H   0  0  0  0  0  0  0  0  0  0  0  0
   37.9700   27.5180   35.3550 C   0  0  0  0  0  0  0  0  0  0  0  0
   37.8580   28.5830   35.4220 H   0  0  0  0  0  0  0  0  0  0  0  0
   37.2850   26.7150   34.4880 C   0  0  0  0  0  0  0  0  0  0  0  0
   36.5280   26.9320   33.7240 H   0  0  0  0  0  0  0  0  0  0  0  0
   37.6750   25.5220   34.6940 O   0  0  0  0  0  0  0  0  0  0  0  0
   37.8130   23.7680   38.1150 C   0  0  0  0  0  0  0  0  0  0  0  0
   36.7970   23.9100   37.2690 F   0  0  0  0  0  0  0  0  0  0  0  0
   37.4910   22.7860   39.0390 F   0  0  0  0  0  0  0  0  0  0  0  0
   37.9990   24.9560   38.8580 F   0  0  0  0  0  0  0  0  0  0  0  0
  1  6  2  0  0  0  0
  1  2  1  0  0  0  0
  2  3  2  0  0  0  0
  3  4  1  0  0  0  0
  3 19  1  0  0  0  0
  5  7  1  0  0  0  0
  5  4  2  0  0  0  0
  6  5  1  0  0  0  0
  7 10  1  0  0  0  0
  7  9  1  0  0  0  0
  8  1  1  0  0  0  0
 11 12  2  0  0  0  0
 11  2  1  0  0  0  0
 12 13  1  0  0  0  0
 14 15  1  0  0  0  0
 14 12  1  0  0  0  0
 16 18  1  0  0  0  0
 16 14  2  0  0  0  0
 17 16  1  0  0  0  0
 18 11  1  0  0  0  0
 19 22  1  0  0  0  0
 19 21  1  0  0  0  0
 20 19  1  0  0  0  0
M  END
>  <minimizedAffinity>
-5.26715326

$$$$

 OpenBabel03262520223D

 22 23  0  0  0  0  0  0  0  0999 V2000
   38.2390   23.0480   34.8580 C   0  0  0  0  0  0  0  0  0  0  0  0
   38.1160   24.4590   34.7200 C   0  0  0  0  0  0  0  0  0  0  0  0
   38.2880   25.2140   35.8610 C   0  0  0  0  0  0  0  0  0  0  0  0
   38.5660   24.5350   37.0270 N   0  0  0  0  0  0  0  0  0  0  0  0
   38.6790   23.2170   37.1290 C   0  0  0  0  0  0  0  0  0  0  0  0
   38.5100   22.4830   36.0270 N   0  0  0  0  0  0  0  0  0  0  0  0
   39.0000   22.6940   38.4000 N   0  0  0  0  0  0  0  0  0  0  0  0
   38.1380   22.3010   34.0900 H   0  0  0  0  0  0  0  0  0  0  0  0
   39.9090   22.1590   38.4680 H   0  0  0  0  0  0  0  0  0  0  0  0
   38.3120   22.8810   39.1580 H   0  0  0  0  0  0  0  0  0  0  0  0
   37.8440   24.9050   33.3560 C   0  0  0  0  0  0  0  0  0  0  0  0
   38.8380   25.1530   32.4350 C   0  0  0  0  0  0  0  0  0  0  0  0
   39.9450   25.0820   32.5010 H   0  0  0  0  0  0  0  0  0  0  0  0
   38.3860   25.5620   31.2130 C   0  0  0  0  0  0  0  0  0  0  0  0
   38.8650   25.8330   30.2920 H   0  0  0  0  0  0  0  0  0  0  0  0
   37.0350   25.5580   31.4170 C   0  0  0  0  0  0  0  0  0  0  0  0
   36.1890   25.8030   30.7620 H   0  0  0  0  0  0  0  0  0  0  0  0
   36.8380   25.1850   32.6170 O   0  0  0  0  0  0  0  0  0  0  0  0
   38.1680   26.6840   35.8060 C   0  0  0  0  0  0  0  0  0  0  0  0
   38.2850   27.1310   37.0540 F   0  0  0  0  0  0  0  0  0  0  0  0
   39.1360   27.2920   35.0210 F   0  0  0  0  0  0  0  0  0  0  0  0
   36.9230   27.0760   35.2630 F   0  0  0  0  0  0  0  0  0  0  0  0
  1  6  1  0  0  0  0
  2  1  2  0  0  0  0
  2  3  1  0  0  0  0
  3  4  2  0  0  0  0
  4  5  1  0  0  0  0
  5  7  1  0  0  0  0
  6  5  2  0  0  0  0
  7  9  1  0  0  0  0
  7 10  1  0  0  0  0
  8  1  1  0  0  0  0
 11  2  1  0  0  0  0
 12 13  1  0  0  0  0
 12 11  2  0  0  0  0
 14 16  2  0  0  0  0
 14 12  1  0  0  0  0
 15 14  1  0  0  0  0
 16 18  1  0  0  0  0
 17 16  1  0  0  0  0
 18 11  1  0  0  0  0
 19  3  1  0  0  0  0
 19 20  1  0  0  0  0
 21 19  1  0  0  0  0
 22 19  1  0  0  0  0
M  END
>  <minimizedAffinity>
-4.71512938

$$$$

 OpenBabel03262520223D

 22 23  0  0  0  0  0  0  0  0999 V2000
   38.3700   24.0910   37.0580 C   0  0  0  0  0  0  0  0  0  0  0  0
   38.9900   24.7600   35.9660 C   0  0  0  0  0  0  0  0  0  0  0  0
   40.2210   24.2890   35.5640 C   0  0  0  0  0  0  0  0  0  0  0  0
   40.7360   23.2130   36.2520 N   0  0  0  0  0  0  0  0  0  0  0  0
   40.1370   22.6030   37.2670 C   0  0  0  0  0  0  0  0  0  0  0  0
   38.9460   23.0590   37.6600 N   0  0  0  0  0  0  0  0  0  0  0  0
   40.7990   21.4940   37.8340 N   0  0  0  0  0  0  0  0  0  0  0  0
   37.4200   24.3130   37.5110 H   0  0  0  0  0  0  0  0  0  0  0  0
   40.2890   20.5690   37.7810 H   0  0  0  0  0  0  0  0  0  0  0  0
   41.7310   21.6840   38.2560 H   0  0  0  0  0  0  0  0  0  0  0  0
   38.1990   25.8550   35.4080 C   0  0  0  0  0  0  0  0  0  0  0  0
   38.2820   27.1510   35.8680 C   0  0  0  0  0  0  0  0  0  0  0  0
   38.8930   27.6160   36.6710 H   0  0  0  0  0  0  0  0  0  0  0  0
   37.4650   28.0330   35.2190 C   0  0  0  0  0  0  0  0  0  0  0  0
   37.2780   29.0850   35.3130 H   0  0  0  0  0  0  0  0  0  0  0  0
   36.8550   27.2100   34.3150 C   0  0  0  0  0  0  0  0  0  0  0  0
   36.1020   27.3980   33.5390 H   0  0  0  0  0  0  0  0  0  0  0  0
   37.3220   26.0410   34.4960 O   0  0  0  0  0  0  0  0  0  0  0  0
   40.9360   24.9330   34.4440 C   0  0  0  0  0  0  0  0  0  0  0  0
   42.0160   24.1970   34.1970 F   0  0  0  0  0  0  0  0  0  0  0  0
   40.1820   25.0230   33.2830 F   0  0  0  0  0  0  0  0  0  0  0  0
   41.3110   26.2560   34.7690 F   0  0  0  0  0  0  0  0  0  0  0  0
  1  8  1  0  0  0  0
  1  6  1  0  0  0  0
  2  1  2  0  0  0  0
  3  2  1  0  0  0  0
  3  4  2  0  0  0  0
  4  5  1  0  0  0  0
  5  6  2  0  0  0  0
  5  7  1  0  0  0  0
  7 10  1  0  0  0  0
  9  7  1  0  0  0  0
 11 12  2  0  0  0  0
 11  2  1  0  0  0  0
 12 13  1  0  0  0  0
 14 15  1  0  0  0  0
 14 12  1  0  0  0  0
 16 18  1  0  0  0  0
 16 14  2  0  0  0  0
 17 16  1  0  0  0  0
 18 11  1  0  0  0  0
 19 22  1  0  0  0  0
 19  3  1  0  0  0  0
 20 19  1  0  0  0  0
 21 19  1  0  0  0  0
M  END
>  <minimizedAffinity>
-4.69999743

$$$$

 OpenBabel03262520223D

 22 23  0  0  0  0  0  0  0  0999 V2000
   37.8420   24.0180   33.4710 C   0  0  0  0  0  0  0  0  0  0  0  0
   38.3240   24.7760   34.5740 C   0  0  0  0  0  0  0  0  0  0  0  0
   37.9850   26.1110   34.6090 C   0  0  0  0  0  0  0  0  0  0  0  0
   37.2080   26.5880   33.5770 N   0  0  0  0  0  0  0  0  0  0  0  0
   36.7670   25.8590   32.5590 C   0  0  0  0  0  0  0  0  0  0  0  0
   37.0970   24.5660   32.5220 N   0  0  0  0  0  0  0  0  0  0  0  0
   35.9530   26.5080   31.6060 N   0  0  0  0  0  0  0  0  0  0  0  0
   38.0020   22.9730   33.2720 H   0  0  0  0  0  0  0  0  0  0  0  0
   34.9710   26.1330   31.4990 H   0  0  0  0  0  0  0  0  0  0  0  0
   36.3940   27.2980   31.0920 H   0  0  0  0  0  0  0  0  0  0  0  0
   39.1040   24.0020   35.5380 C   0  0  0  0  0  0  0  0  0  0  0  0
   40.4650   23.8190   35.4270 C   0  0  0  0  0  0  0  0  0  0  0  0
   41.2030   24.1710   34.6750 H   0  0  0  0  0  0  0  0  0  0  0  0
   41.0160   23.0650   36.4250 C   0  0  0  0  0  0  0  0  0  0  0  0
   42.0110   22.7340   36.6480 H   0  0  0  0  0  0  0  0  0  0  0  0
   39.9130   22.7810   37.1800 C   0  0  0  0  0  0  0  0  0  0  0  0
   39.7810   22.2040   38.1040 H   0  0  0  0  0  0  0  0  0  0  0  0
   38.9180   23.3360   36.6140 O   0  0  0  0  0  0  0  0  0  0  0  0
   38.4530   26.9710   35.7150 C   0  0  0  0  0  0  0  0  0  0  0  0
   37.7980   28.1250   35.6140 F   0  0  0  0  0  0  0  0  0  0  0  0
   38.2200   26.4340   36.9720 F   0  0  0  0  0  0  0  0  0  0  0  0
   39.8460   27.1920   35.6370 F   0  0  0  0  0  0  0  0  0  0  0  0
  1  2  1  0  0  0  0
  2  3  2  0  0  0  0
  2 11  1  0  0  0  0
  3 19  1  0  0  0  0
  4  3  1  0  0  0  0
  5  4  2  0  0  0  0
  6  5  1  0  0  0  0
  6  1  2  0  0  0  0
  7  5  1  0  0  0  0
  8  1  1  0  0  0  0
  9  7  1  0  0  0  0
 10  7  1  0  0  0  0
 11 18  1  0  0  0  0
 12 11  2  0  0  0  0
 12 14  1  0  0  0  0
 13 12  1  0  0  0  0
 14 15  1  0  0  0  0
 14 16  2  0  0  0  0
 16 17  1  0  0  0  0
 18 16  1  0  0  0  0
 19 21  1  0  0  0  0
 20 19  1  0  0  0  0
 22 19  1  0  0  0  0
M  END
>  <minimizedAffinity>
-4.58700514

$$$$

 OpenBabel03262520223D

 22 23  0  0  0  0  0  0  0  0999 V2000
   40.8090   24.3960   34.8100 C   0  0  0  0  0  0  0  0  0  0  0  0
   39.5770   24.8920   35.3210 C   0  0  0  0  0  0  0  0  0  0  0  0
   39.4110   26.2600   35.3290 C   0  0  0  0  0  0  0  0  0  0  0  0
   40.4490   27.0210   34.8390 N   0  0  0  0  0  0  0  0  0  0  0  0
   41.5880   26.5350   34.3640 C   0  0  0  0  0  0  0  0  0  0  0  0
   41.7540   25.2100   34.3580 N   0  0  0  0  0  0  0  0  0  0  0  0
   42.5310   27.4630   33.8730 N   0  0  0  0  0  0  0  0  0  0  0  0
   41.1200   23.3700   34.7250 H   0  0  0  0  0  0  0  0  0  0  0  0
   42.7820   27.3750   32.8500 H   0  0  0  0  0  0  0  0  0  0  0  0
   42.8950   28.1520   34.5620 H   0  0  0  0  0  0  0  0  0  0  0  0
   38.6440   23.8510   35.7470 C   0  0  0  0  0  0  0  0  0  0  0  0
   38.3040   22.7770   34.9540 C   0  0  0  0  0  0  0  0  0  0  0  0
   38.6190   22.4820   33.9310 H   0  0  0  0  0  0  0  0  0  0  0  0
   37.4180   21.9100   35.5280 C   0  0  0  0  0  0  0  0  0  0  0  0
   36.9520   20.9990   35.2080 H   0  0  0  0  0  0  0  0  0  0  0  0
   37.2160   22.5050   36.7410 C   0  0  0  0  0  0  0  0  0  0  0  0
   36.5930   22.2300   37.6020 H   0  0  0  0  0  0  0  0  0  0  0  0
   37.9290   23.5580   36.7660 O   0  0  0  0  0  0  0  0  0  0  0  0
   38.1650   26.8560   35.8510 C   0  0  0  0  0  0  0  0  0  0  0  0
   38.1750   26.6850   37.1710 F   0  0  0  0  0  0  0  0  0  0  0  0
   38.0390   28.2090   35.5760 F   0  0  0  0  0  0  0  0  0  0  0  0
   37.0260   26.2360   35.2890 F   0  0  0  0  0  0  0  0  0  0  0  0
  1  2  1  0  0  0  0
  2  3  2  0  0  0  0
  2 11  1  0  0  0  0
  3 19  1  0  0  0  0
  4  3  1  0  0  0  0
  5  4  2  0  0  0  0
  6  5  1  0  0  0  0
  6  1  2  0  0  0  0
  7  5  1  0  0  0  0
  7 10  1  0  0  0  0
  8  1  1  0  0  0  0
  9  7  1  0  0  0  0
 11 18  1  0  0  0  0
 12 14  1  0  0  0  0
 12 11  2  0  0  0  0
 13 12  1  0  0  0  0
 14 16  2  0  0  0  0
 15 14  1  0  0  0  0
 16 18  1  0  0  0  0
 16 17  1  0  0  0  0
 19 20  1  0  0  0  0
 21 19  1  0  0  0  0
 22 19  1  0  0  0  0
M  END
>  <minimizedAffinity>
-4.53051805

$$$$

 OpenBabel03262520223D

 22 23  0  0  0  0  0  0  0  0999 V2000
   37.8590   23.5900   33.7260 C   0  0  0  0  0  0  0  0  0  0  0  0
   38.6470   24.4540   34.5360 C   0  0  0  0  0  0  0  0  0  0  0  0
   39.1430   25.5910   33.9350 C   0  0  0  0  0  0  0  0  0  0  0  0
   38.8270   25.7880   32.6080 N   0  0  0  0  0  0  0  0  0  0  0  0
   38.0860   24.9670   31.8750 C   0  0  0  0  0  0  0  0  0  0  0  0
   37.6070   23.8640   32.4540 N   0  0  0  0  0  0  0  0  0  0  0  0
   37.8380   25.3440   30.5380 N   0  0  0  0  0  0  0  0  0  0  0  0
   37.3920   22.6640   34.0150 H   0  0  0  0  0  0  0  0  0  0  0  0
   36.8250   25.4980   30.2770 H   0  0  0  0  0  0  0  0  0  0  0  0
   38.6750   25.4370   29.9260 H   0  0  0  0  0  0  0  0  0  0  0  0
   38.7950   24.0080   35.9200 C   0  0  0  0  0  0  0  0  0  0  0  0
   37.9130   24.3570   36.9190 C   0  0  0  0  0  0  0  0  0  0  0  0
   36.9950   24.9810   36.9140 H   0  0  0  0  0  0  0  0  0  0  0  0
   38.2200   23.8420   38.1470 C   0  0  0  0  0  0  0  0  0  0  0  0
   37.7670   23.9070   39.1170 H   0  0  0  0  0  0  0  0  0  0  0  0
   39.3570   23.1410   37.8620 C   0  0  0  0  0  0  0  0  0  0  0  0
   40.0230   22.5310   38.4860 H   0  0  0  0  0  0  0  0  0  0  0  0
   39.5900   23.2930   36.6210 O   0  0  0  0  0  0  0  0  0  0  0  0
   39.9770   26.5370   34.7030 C   0  0  0  0  0  0  0  0  0  0  0  0
   40.3550   27.4950   33.8600 F   0  0  0  0  0  0  0  0  0  0  0  0
   39.3150   27.1190   35.7730 F   0  0  0  0  0  0  0  0  0  0  0  0
   41.1110   25.8930   35.2480 F   0  0  0  0  0  0  0  0  0  0  0  0
  1  8  1  0  0  0  0
  1  2  1  0  0  0  0
  2 11  1  0  0  0  0
  3  2  2  0  0  0  0
  3 19  1  0  0  0  0
  4  3  1  0  0  0  0
  5  6  1  0  0  0  0
  5  4  2  0  0  0  0
  6  1  2  0  0  0  0
  7  5  1  0  0  0  0
  9  7  1  0  0  0  0
 10  7  1  0  0  0  0
 11 18  1  0  0  0  0
 11 12  2  0  0  0  0
 12 14  1  0  0  0  0
 13 12  1  0  0  0  0
 14 15  1  0  0  0  0
 16 14  2  0  0  0  0
 16 17  1  0  0  0  0
 18 16  1  0  0  0  0
 19 22  1  0  0  0  0
 19 21  1  0  0  0  0
 20 19  1  0  0  0  0
M  END
>  <minimizedAffinity>
-4.45829153

$$$$

 OpenBabel03262520223D

 22 23  0  0  0  0  0  0  0  0999 V2000
   40.0160   26.7810   32.3900 C   0  0  0  0  0  0  0  0  0  0  0  0
   38.8780   26.9770   33.2210 C   0  0  0  0  0  0  0  0  0  0  0  0
   39.0960   26.9950   34.5820 C   0  0  0  0  0  0  0  0  0  0  0  0
   40.3950   26.8260   35.0120 N   0  0  0  0  0  0  0  0  0  0  0  0
   41.4410   26.6490   34.2150 C   0  0  0  0  0  0  0  0  0  0  0  0
   41.2320   26.6270   32.8970 N   0  0  0  0  0  0  0  0  0  0  0  0
   42.7050   26.5240   34.8290 N   0  0  0  0  0  0  0  0  0  0  0  0
   40.0440   26.7360   31.3150 H   0  0  0  0  0  0  0  0  0  0  0  0
   43.4190   27.2620   34.5790 H   0  0  0  0  0  0  0  0  0  0  0  0
   42.8220   25.7150   35.4740 H   0  0  0  0  0  0  0  0  0  0  0  0
   37.6260   27.1560   32.4900 C   0  0  0  0  0  0  0  0  0  0  0  0
   37.2520   28.3560   31.9260 C   0  0  0  0  0  0  0  0  0  0  0  0
   37.7490   29.3490   31.8950 H   0  0  0  0  0  0  0  0  0  0  0  0
   36.0470   28.3250   31.2830 C   0  0  0  0  0  0  0  0  0  0  0  0
   35.4670   29.0530   30.7500 H   0  0  0  0  0  0  0  0  0  0  0  0
   35.6790   27.0240   31.4750 C   0  0  0  0  0  0  0  0  0  0  0  0
   34.7920   26.4550   31.1660 H   0  0  0  0  0  0  0  0  0  0  0  0
   36.6050   26.4670   32.1450 O   0  0  0  0  0  0  0  0  0  0  0  0
   37.9680   27.1840   35.5150 C   0  0  0  0  0  0  0  0  0  0  0  0
   38.4610   27.0820   36.7470 F   0  0  0  0  0  0  0  0  0  0  0  0
   37.3400   28.4130   35.3850 F   0  0  0  0  0  0  0  0  0  0  0  0
   36.9660   26.2090   35.3100 F   0  0  0  0  0  0  0  0  0  0  0  0
  1  6  2  0  0  0  0
  1  2  1  0  0  0  0
  2  3  2  0  0  0  0
  3  4  1  0  0  0  0
  3 19  1  0  0  0  0
  5  7  1  0  0  0  0
  5  4  2  0  0  0  0
  6  5  1  0  0  0  0
  7 10  1  0  0  0  0
  8  1  1  0  0  0  0
  9  7  1  0  0  0  0
 11  2  1  0  0  0  0
 12 11  2  0  0  0  0
 13 12  1  0  0  0  0
 14 16  2  0  0  0  0
 14 12  1  0  0  0  0
 15 14  1  0  0  0  0
 16 18  1  0  0  0  0
 17 16  1  0  0  0  0
 18 11  1  0  0  0  0
 19 20  1  0  0  0  0
 21 19  1  0  0  0  0
 22 19  1  0  0  0  0
M  END
>  <minimizedAffinity>
-4.45553827

$$$$

 OpenBabel03262520223D

 22 23  0  0  0  0  0  0  0  0999 V2000
   37.6790   24.3150   33.1010 C   0  0  0  0  0  0  0  0  0  0  0  0
   37.7750   25.6320   33.6290 C   0  0  0  0  0  0  0  0  0  0  0  0
   38.1800   25.7510   34.9410 C   0  0  0  0  0  0  0  0  0  0  0  0
   38.4580   24.5840   35.6190 N   0  0  0  0  0  0  0  0  0  0  0  0
   38.3640   23.3650   35.1030 C   0  0  0  0  0  0  0  0  0  0  0  0
   37.9690   23.2480   33.8330 N   0  0  0  0  0  0  0  0  0  0  0  0
   38.7190   22.2830   35.9350 N   0  0  0  0  0  0  0  0  0  0  0  0
   37.3820   24.0250   32.1080 H   0  0  0  0  0  0  0  0  0  0  0  0
   39.5310   21.6900   35.6090 H   0  0  0  0  0  0  0  0  0  0  0  0
   38.1500   22.1640   36.7990 H   0  0  0  0  0  0  0  0  0  0  0  0
   37.4460   26.6870   32.6720 C   0  0  0  0  0  0  0  0  0  0  0  0
   38.3920   27.3140   31.8910 C   0  0  0  0  0  0  0  0  0  0  0  0
   39.4920   27.1850   31.8110 H   0  0  0  0  0  0  0  0  0  0  0  0
   37.8890   28.2720   31.0570 C   0  0  0  0  0  0  0  0  0  0  0  0
   38.3240   28.9350   30.3350 H   0  0  0  0  0  0  0  0  0  0  0  0
   36.5580   28.2130   31.3590 C   0  0  0  0  0  0  0  0  0  0  0  0
   35.6910   28.7690   30.9810 H   0  0  0  0  0  0  0  0  0  0  0  0
   36.4150   27.3170   32.2520 O   0  0  0  0  0  0  0  0  0  0  0  0
   38.2970   27.0820   35.5680 C   0  0  0  0  0  0  0  0  0  0  0  0
   39.4260   27.6250   35.1210 F   0  0  0  0  0  0  0  0  0  0  0  0
   37.2430   27.9320   35.2680 F   0  0  0  0  0  0  0  0  0  0  0  0
   38.3280   26.9820   36.9780 F   0  0  0  0  0  0  0  0  0  0  0  0
  1  2  2  0  0  0  0
  1  6  1  0  0  0  0
  2  3  1  0  0  0  0
  3 19  1  0  0  0  0
  3  4  2  0  0  0  0
  5  4  1  0  0  0  0
  5  7  1  0  0  0  0
  6  5  2  0  0  0  0
  7 10  1  0  0  0  0
  8  1  1  0  0  0  0
  9  7  1  0  0  0  0
 11  2  1  0  0  0  0
 12 11  2  0  0  0  0
 13 12  1  0  0  0  0
 14 16  2  0  0  0  0
 14 12  1  0  0  0  0
 15 14  1  0  0  0  0
 16 18  1  0  0  0  0
 17 16  1  0  0  0  0
 18 11  1  0  0  0  0
 19 22  1  0  0  0  0
 20 19  1  0  0  0  0
 21 19  1  0  0  0  0
M  END
>  <minimizedAffinity>
-4.31295967

$$$$

 OpenBabel03262520223D

 22 23  0  0  0  0  0  0  0  0999 V2000
   35.5790   28.9830   33.7690 C   0  0  0  0  0  0  0  0  0  0  0  0
   36.6190   28.1250   33.3160 C   0  0  0  0  0  0  0  0  0  0  0  0
   36.9800   28.2290   31.9900 C   0  0  0  0  0  0  0  0  0  0  0  0
   36.3040   29.1560   31.2270 N   0  0  0  0  0  0  0  0  0  0  0  0
   35.3380   29.9480   31.6740 C   0  0  0  0  0  0  0  0  0  0  0  0
   34.9840   29.8470   32.9570 N   0  0  0  0  0  0  0  0  0  0  0  0
   34.7770   30.8610   30.7560 N   0  0  0  0  0  0  0  0  0  0  0  0
   35.1630   29.0460   34.7600 H   0  0  0  0  0  0  0  0  0  0  0  0
   34.8830   31.8850   30.9940 H   0  0  0  0  0  0  0  0  0  0  0  0
   34.3070   30.4450   29.9260 H   0  0  0  0  0  0  0  0  0  0  0  0
   37.1770   27.2610   34.3540 C   0  0  0  0  0  0  0  0  0  0  0  0
   37.9360   27.7380   35.4000 C   0  0  0  0  0  0  0  0  0  0  0  0
   38.2650   28.7640   35.6710 H   0  0  0  0  0  0  0  0  0  0  0  0
   38.3670   26.7750   36.2690 C   0  0  0  0  0  0  0  0  0  0  0  0
   38.9590   26.7890   37.1630 H   0  0  0  0  0  0  0  0  0  0  0  0
   37.8300   25.6530   35.7050 C   0  0  0  0  0  0  0  0  0  0  0  0
   37.8650   24.5950   35.9950 H   0  0  0  0  0  0  0  0  0  0  0  0
   37.1990   26.0200   34.6640 O   0  0  0  0  0  0  0  0  0  0  0  0
   38.0450   27.3680   31.4370 C   0  0  0  0  0  0  0  0  0  0  0  0
   39.1590   27.6500   32.1070 F   0  0  0  0  0  0  0  0  0  0  0  0
   37.7810   26.0120   31.5580 F   0  0  0  0  0  0  0  0  0  0  0  0
   38.2320   27.6080   30.0570 F   0  0  0  0  0  0  0  0  0  0  0  0
  1  8  1  0  0  0  0
  2  1  1  0  0  0  0
  2 11  1  0  0  0  0
  3  2  2  0  0  0  0
  4  5  2  0  0  0  0
  4  3  1  0  0  0  0
  5  6  1  0  0  0  0
  6  1  2  0  0  0  0
  7  9  1  0  0  0  0
  7  5  1  0  0  0  0
 10  7  1  0  0  0  0
 11 18  1  0  0  0  0
 11 12  2  0  0  0  0
 12 13  1  0  0  0  0
 12 14  1  0  0  0  0
 14 15  1  0  0  0  0
 16 17  1  0  0  0  0
 16 14  2  0  0  0  0
 18 16  1  0  0  0  0
 19 21  1  0  0  0  0
 19  3  1  0  0  0  0
 19 20  1  0  0  0  0
 22 19  1  0  0  0  0
M  END
>  <minimizedAffinity>
-4.29757547

$$$$
