
 OpenBabel03272504413D

 44 46  0  0  0  0  0  0  0  0999 V2000
   34.7850   29.4050   48.8330 C   0  0  0  0  0  0  0  0  0  0  0  0
   34.1210   30.2240   49.2400 H   0  0  0  0  0  0  0  0  0  0  0  0
   35.6810   29.4510   49.4850 H   0  0  0  0  0  0  0  0  0  0  0  0
   37.5580   30.4440   48.5200 Cl  0  0  0  0  0  0  0  0  0  0  0  0
   36.4010   30.2930   47.1860 C   0  0  0  0  0  0  0  0  0  0  0  0
   36.7810   30.6650   45.9460 C   0  0  0  0  0  0  0  0  0  0  0  0
   35.8950   30.5520   44.9000 C   0  0  0  0  0  0  0  0  0  0  0  0
   34.6270   30.0550   45.1590 C   0  0  0  0  0  0  0  0  0  0  0  0
   34.3000   29.6880   46.4700 C   0  0  0  0  0  0  0  0  0  0  0  0
   35.1610   29.7940   47.5030 C   0  0  0  0  0  0  0  0  0  0  0  0
   36.2280   30.8600   43.9030 H   0  0  0  0  0  0  0  0  0  0  0  0
   34.0090   30.0050   44.2730 H   0  0  0  0  0  0  0  0  0  0  0  0
   33.2970   29.3480   46.4330 H   0  0  0  0  0  0  0  0  0  0  0  0
   39.7630   32.8360   45.9970 C   0  0  0  0  0  0  0  0  0  0  0  0
   40.6340   32.1050   45.1160 C   0  0  0  0  0  0  0  0  0  0  0  0
   40.1580   30.9160   44.5570 C   0  0  0  0  0  0  0  0  0  0  0  0
   38.9030   30.4900   44.8570 N   0  0  0  0  0  0  0  0  0  0  0  0
   38.1080   31.2000   45.6890 C   0  0  0  0  0  0  0  0  0  0  0  0
   38.5430   32.3470   46.2390 N   0  0  0  0  0  0  0  0  0  0  0  0
   40.1400   33.7410   46.4150 H   0  0  0  0  0  0  0  0  0  0  0  0
   41.6060   32.4830   44.9160 H   0  0  0  0  0  0  0  0  0  0  0  0
   41.0330   30.2250   43.6960 N   0  0  0  0  0  0  0  0  0  0  0  0
   41.6750   30.7510   43.0580 H   0  0  0  0  0  0  0  0  0  0  0  0
   41.1130   29.2000   43.6220 H   0  0  0  0  0  0  0  0  0  0  0  0
   34.1240   28.1130   49.0560 C   0  0  0  0  0  0  0  0  0  0  0  0
   34.5720   27.5200   49.8770 H   0  0  0  0  0  0  0  0  0  0  0  0
   34.2340   27.4850   48.1330 H   0  0  0  0  0  0  0  0  0  0  0  0
   32.7930   28.2650   49.3430 O   0  0  0  0  0  0  0  0  0  0  0  0
   32.6620   26.5350   47.3730 O   0  0  0  0  0  0  0  0  0  0  0  0
   31.8440   27.4250   48.2580 P   0  0  2  0  0  0  0  0  0  0  0  0
   31.0230   28.6040   47.3030 O   0  0  0  0  0  0  0  0  0  0  0  0
   30.5160   28.2910   46.0630 C   0  0  0  0  0  0  0  0  0  0  0  0
   29.2900   27.7460   45.7290 C   0  0  0  0  0  0  0  0  0  0  0  0
   28.5100   27.4700   46.3980 H   0  0  0  0  0  0  0  0  0  0  0  0
   29.2830   27.6320   44.3510 C   0  0  0  0  0  0  0  0  0  0  0  0
   28.4710   27.2410   43.7490 H   0  0  0  0  0  0  0  0  0  0  0  0
   30.4920   28.1090   43.9190 C   0  0  0  0  0  0  0  0  0  0  0  0
   30.8480   28.1770   42.8890 H   0  0  0  0  0  0  0  0  0  0  0  0
   31.1910   28.4880   44.9620 O   0  0  0  0  0  0  0  0  0  0  0  0
   30.6540   26.5260   48.9920 O   0  0  0  0  0  0  0  0  0  0  0  0
   29.8360   27.3330   49.7640 C   0  0  0  0  0  0  0  0  0  0  0  0
   29.3100   26.6640   50.8700 F   0  0  0  0  0  0  0  0  0  0  0  0
   30.5290   28.4080   50.2780 F   0  0  0  0  0  0  0  0  0  0  0  0
   28.7700   27.7900   48.9960 F   0  0  0  0  0  0  0  0  0  0  0  0
  1 25  1  0  0  0  0
  1  2  1  0  0  0  0
  1  3  1  0  0  0  0
  5 10  1  0  0  0  0
  5  4  1  0  0  0  0
  6  5  2  0  0  0  0
  7  8  2  0  0  0  0
  7  6  1  0  0  0  0
  8  9  1  0  0  0  0
  9 10  2  0  0  0  0
 10  1  1  0  0  0  0
 11  7  1  0  0  0  0
 12  8  1  0  0  0  0
 13  9  1  0  0  0  0
 14 19  1  0  0  0  0
 14 20  1  0  0  0  0
 15 14  2  0  0  0  0
 16 17  2  0  0  0  0
 16 15  1  0  0  0  0
 17 18  1  0  0  0  0
 18  6  1  0  0  0  0
 18 19  2  0  0  0  0
 21 15  1  0  0  0  0
 22 16  1  0  0  0  0
 23 22  1  0  0  0  0
 24 22  1  0  0  0  0
 25 28  1  0  0  0  0
 25 26  1  0  0  0  0
 27 25  1  0  0  0  0
 30 29  2  6  0  0  0
 30 40  1  0  0  0  0
 30 28  1  0  0  0  0
 31 30  1  0  0  0  0
 32 31  1  0  0  0  0
 33 32  2  0  0  0  0
 33 34  1  0  0  0  0
 35 33  1  0  0  0  0
 36 35  1  0  0  0  0
 37 35  2  0  0  0  0
 37 39  1  0  0  0  0
 38 37  1  0  0  0  0
 39 32  1  0  0  0  0
 40 41  1  0  0  0  0
 41 43  1  0  0  0  0
 41 42  1  0  0  0  0
 44 41  1  0  0  0  0
M  END
>  <minimizedAffinity>
-5.63545847

>  <minimizedRMSD>
0.202475265

$$$$
