
 OpenBabel03272509303D

 37 39  0  0  1  0  0  0  0  0999 V2000
   36.3080   30.7130   48.9820 C   0  0  2  0  0  0  0  0  0  0  0  0
   37.2940   31.5850   49.6980 C   0  0  0  0  0  0  0  0  0  0  0  0
   38.1890   30.8120   50.6410 C   0  0  0  0  0  0  0  0  0  0  0  0
   37.3500   30.0370   51.6570 C   0  0  0  0  0  0  0  0  0  0  0  0
   36.0820   29.4590   51.0890 C   0  0  0  0  0  0  0  0  0  0  0  0
   36.2450   29.3390   49.5620 C   0  0  1  0  0  0  0  0  0  0  0  0
   35.2490   31.1120   49.0180 H   0  0  0  0  0  0  0  0  0  0  0  0
   36.6530   32.2170   50.4020 H   0  0  0  0  0  0  0  0  0  0  0  0
   37.8420   32.3020   49.1150 H   0  0  0  0  0  0  0  0  0  0  0  0
   38.7850   31.5510   51.1900 H   0  0  0  0  0  0  0  0  0  0  0  0
   38.8450   30.0850   50.1510 H   0  0  0  0  0  0  0  0  0  0  0  0
   37.0880   30.7240   52.4810 H   0  0  0  0  0  0  0  0  0  0  0  0
   37.9570   29.1850   52.0650 H   0  0  0  0  0  0  0  0  0  0  0  0
   35.2310   30.1320   51.2270 H   0  0  0  0  0  0  0  0  0  0  0  0
   35.8790   28.4460   51.5010 H   0  0  0  0  0  0  0  0  0  0  0  0
   37.1920   28.8580   49.5110 H   0  0  0  0  0  0  0  0  0  0  0  0
   36.6380   30.6070   47.5350 C   0  0  0  0  0  0  0  0  0  0  0  0
   37.9920   30.7950   47.2080 C   0  0  0  0  0  0  0  0  0  0  0  0
   38.3290   30.6980   45.8530 C   0  0  0  0  0  0  0  0  0  0  0  0
   37.3320   30.4280   44.9400 N   0  0  0  0  0  0  0  0  0  0  0  0
   36.0290   30.2530   45.3140 C   0  0  0  0  0  0  0  0  0  0  0  0
   35.7010   30.3460   46.6180 N   0  0  0  0  0  0  0  0  0  0  0  0
   38.8540   30.9980   47.8140 H   0  0  0  0  0  0  0  0  0  0  0  0
   39.3240   30.8190   45.4540 H   0  0  0  0  0  0  0  0  0  0  0  0
   35.3390   30.0470   44.5120 H   0  0  0  0  0  0  0  0  0  0  0  0
   33.9240   28.3880   49.1490 C   0  0  0  0  0  0  0  0  0  0  0  0
   33.1500   29.0830   49.8710 O   0  0  0  0  0  0  0  0  0  0  0  0
   35.3270   28.4620   48.9310 N   0  0  0  0  0  0  0  0  0  0  0  0
   35.6700   27.7590   48.1980 H   0  0  0  0  0  0  0  0  0  0  0  0
   33.1260   27.3430   48.4570 C   0  0  0  0  0  0  0  0  0  0  0  0
   31.7570   27.2110   48.4020 C   0  0  0  0  0  0  0  0  0  0  0  0
   31.0160   27.8340   48.8460 H   0  0  0  0  0  0  0  0  0  0  0  0
   31.4270   26.0800   47.6400 C   0  0  0  0  0  0  0  0  0  0  0  0
   30.4190   25.7290   47.4250 H   0  0  0  0  0  0  0  0  0  0  0  0
   32.6580   25.5800   47.2670 C   0  0  0  0  0  0  0  0  0  0  0  0
   32.7540   24.6890   46.6570 H   0  0  0  0  0  0  0  0  0  0  0  0
   33.5860   26.3340   47.7570 O   0  0  0  0  0  0  0  0  0  0  0  0
  1  7  1  1  0  0  0
  1  6  1  0  0  0  0
  1  2  1  0  0  0  0
  2  8  1  0  0  0  0
  2  3  1  0  0  0  0
  3 10  1  0  0  0  0
  3  4  1  0  0  0  0
  4 13  1  0  0  0  0
  4 12  1  0  0  0  0
  5 14  1  0  0  0  0
  5 15  1  0  0  0  0
  5  4  1  0  0  0  0
  6 16  1  6  0  0  0
  6  5  1  0  0  0  0
  9  2  1  0  0  0  0
 11  3  1  0  0  0  0
 17  1  1  0  0  0  0
 18 17  1  0  0  0  0
 18 23  1  0  0  0  0
 19 18  2  0  0  0  0
 20 21  2  0  0  0  0
 20 19  1  0  0  0  0
 21 22  1  0  0  0  0
 22 17  2  0  0  0  0
 24 19  1  0  0  0  0
 25 21  1  0  0  0  0
 26 27  2  0  0  0  0
 28 26  1  0  0  0  0
 28  6  1  0  0  0  0
 29 28  1  0  0  0  0
 30 26  1  0  0  0  0
 31 30  2  0  0  0  0
 31 32  1  0  0  0  0
 33 31  1  0  0  0  0
 34 33  1  0  0  0  0
 35 33  2  0  0  0  0
 35 37  1  0  0  0  0
 36 35  1  0  0  0  0
 37 30  1  0  0  0  0
M  END
>  <minimizedAffinity>
-5.8528614

>  <minimizedRMSD>
0.438649297

$$$$
