
 OpenBabel03272504413D

 44 46  0  0  0  0  0  0  0  0999 V2000
   34.8610   29.4470   48.8730 C   0  0  0  0  0  0  0  0  0  0  0  0
   34.1830   30.2600   49.2710 H   0  0  0  0  0  0  0  0  0  0  0  0
   35.7590   29.5210   49.5200 H   0  0  0  0  0  0  0  0  0  0  0  0
   37.6300   30.4840   48.5230 Cl  0  0  0  0  0  0  0  0  0  0  0  0
   36.4610   30.3190   47.2020 C   0  0  0  0  0  0  0  0  0  0  0  0
   36.8280   30.6780   45.9550 C   0  0  0  0  0  0  0  0  0  0  0  0
   35.9320   30.5540   44.9190 C   0  0  0  0  0  0  0  0  0  0  0  0
   34.6670   30.0590   45.1950 C   0  0  0  0  0  0  0  0  0  0  0  0
   34.3530   29.7060   46.5120 C   0  0  0  0  0  0  0  0  0  0  0  0
   35.2240   29.8230   47.5360 C   0  0  0  0  0  0  0  0  0  0  0  0
   36.2560   30.8520   43.9150 H   0  0  0  0  0  0  0  0  0  0  0  0
   34.0410   30.0000   44.3150 H   0  0  0  0  0  0  0  0  0  0  0  0
   33.3490   29.3660   46.4890 H   0  0  0  0  0  0  0  0  0  0  0  0
   39.8110   32.8500   45.9540 C   0  0  0  0  0  0  0  0  0  0  0  0
   40.6730   32.1110   45.0730 C   0  0  0  0  0  0  0  0  0  0  0  0
   40.1910   30.9160   44.5300 C   0  0  0  0  0  0  0  0  0  0  0  0
   38.9400   30.4930   44.8460 N   0  0  0  0  0  0  0  0  0  0  0  0
   38.1520   31.2110   45.6790 C   0  0  0  0  0  0  0  0  0  0  0  0
   38.5930   32.3640   46.2140 N   0  0  0  0  0  0  0  0  0  0  0  0
   40.1910   33.7590   46.3600 H   0  0  0  0  0  0  0  0  0  0  0  0
   41.6420   32.4860   44.8590 H   0  0  0  0  0  0  0  0  0  0  0  0
   41.0580   30.2170   43.6670 N   0  0  0  0  0  0  0  0  0  0  0  0
   41.6940   30.7360   43.0170 H   0  0  0  0  0  0  0  0  0  0  0  0
   41.1370   29.1910   43.6020 H   0  0  0  0  0  0  0  0  0  0  0  0
   34.2250   28.1470   49.1190 C   0  0  0  0  0  0  0  0  0  0  0  0
   34.6640   27.5920   49.9710 H   0  0  0  0  0  0  0  0  0  0  0  0
   34.3770   27.4930   48.2200 H   0  0  0  0  0  0  0  0  0  0  0  0
   32.8840   28.2750   49.3640 O   0  0  0  0  0  0  0  0  0  0  0  0
   32.8500   26.5620   47.3750 O   0  0  0  0  0  0  0  0  0  0  0  0
   31.9850   27.4130   48.2540 P   0  0  2  0  0  0  0  0  0  0  0  0
   31.1390   28.5720   47.2950 O   0  0  0  0  0  0  0  0  0  0  0  0
   30.7450   28.2830   46.0090 C   0  0  0  0  0  0  0  0  0  0  0  0
   29.9010   27.2880   45.5530 C   0  0  0  0  0  0  0  0  0  0  0  0
   29.3990   26.5560   46.1410 H   0  0  0  0  0  0  0  0  0  0  0  0
   29.8400   27.4360   44.1790 C   0  0  0  0  0  0  0  0  0  0  0  0
   29.2640   26.8190   43.4990 H   0  0  0  0  0  0  0  0  0  0  0  0
   30.6410   28.5030   43.8710 C   0  0  0  0  0  0  0  0  0  0  0  0
   30.8400   28.9180   42.8810 H   0  0  0  0  0  0  0  0  0  0  0  0
   31.1570   28.9760   44.9800 O   0  0  0  0  0  0  0  0  0  0  0  0
   30.8150   26.4640   48.9570 O   0  0  0  0  0  0  0  0  0  0  0  0
   29.9020   27.2430   49.6470 C   0  0  0  0  0  0  0  0  0  0  0  0
   29.3280   26.5690   50.7260 F   0  0  0  0  0  0  0  0  0  0  0  0
   30.5010   28.3610   50.1870 F   0  0  0  0  0  0  0  0  0  0  0  0
   28.8760   27.6320   48.7920 F   0  0  0  0  0  0  0  0  0  0  0  0
  1 25  1  0  0  0  0
  1  2  1  0  0  0  0
  1  3  1  0  0  0  0
  5 10  1  0  0  0  0
  5  4  1  0  0  0  0
  6  5  2  0  0  0  0
  7  8  2  0  0  0  0
  7  6  1  0  0  0  0
  8  9  1  0  0  0  0
  9 10  2  0  0  0  0
 10  1  1  0  0  0  0
 11  7  1  0  0  0  0
 12  8  1  0  0  0  0
 13  9  1  0  0  0  0
 14 19  1  0  0  0  0
 14 20  1  0  0  0  0
 15 14  2  0  0  0  0
 16 17  2  0  0  0  0
 16 15  1  0  0  0  0
 17 18  1  0  0  0  0
 18  6  1  0  0  0  0
 18 19  2  0  0  0  0
 21 15  1  0  0  0  0
 22 16  1  0  0  0  0
 23 22  1  0  0  0  0
 24 22  1  0  0  0  0
 25 28  1  0  0  0  0
 25 26  1  0  0  0  0
 27 25  1  0  0  0  0
 30 29  2  6  0  0  0
 30 40  1  0  0  0  0
 30 28  1  0  0  0  0
 31 30  1  0  0  0  0
 32 31  1  0  0  0  0
 33 32  2  0  0  0  0
 33 34  1  0  0  0  0
 35 33  1  0  0  0  0
 36 35  1  0  0  0  0
 37 35  2  0  0  0  0
 37 39  1  0  0  0  0
 38 37  1  0  0  0  0
 39 32  1  0  0  0  0
 40 41  1  0  0  0  0
 41 43  1  0  0  0  0
 41 42  1  0  0  0  0
 44 41  1  0  0  0  0
M  END
>  <minimizedAffinity>
-5.63004875

>  <minimizedRMSD>
0.304443687

$$$$
