
 OpenBabel03272507523D

 31 33  0  0  0  0  0  0  0  0999 V2000
   36.7600   31.3840   48.7180 N   0  0  0  0  0  0  0  0  0  0  0  0
   37.0020   32.2780   49.6710 C   0  0  0  0  0  0  0  0  0  0  0  0
   38.0620   33.1770   49.5320 C   0  0  0  0  0  0  0  0  0  0  0  0
   38.7750   33.0340   48.3740 C   0  0  0  0  0  0  0  0  0  0  0  0
   39.7350   33.8560   48.2590 O   0  0  0  0  0  0  0  0  0  0  0  0
   38.5700   32.1530   47.3890 N   0  0  0  0  0  0  0  0  0  0  0  0
   37.5260   31.3100   47.5860 C   0  0  0  0  0  0  0  0  0  0  0  0
   37.3080   30.4680   46.6760 O   0  0  0  0  0  0  0  0  0  0  0  0
   36.3560   32.2860   50.5470 H   0  0  0  0  0  0  0  0  0  0  0  0
   38.2730   33.9030   50.2870 H   0  0  0  0  0  0  0  0  0  0  0  0
   35.5210   29.7620   50.0160 C   0  0  0  0  0  0  0  0  0  0  0  0
   35.6870   30.4360   48.8000 C   0  0  0  0  0  0  0  0  0  0  0  0
   34.8130   30.1520   47.7480 C   0  0  0  0  0  0  0  0  0  0  0  0
   33.8360   29.2250   47.9640 N   0  0  0  0  0  0  0  0  0  0  0  0
   33.6840   28.5910   49.1160 C   0  0  0  0  0  0  0  0  0  0  0  0
   34.5180   28.8500   50.1470 N   0  0  0  0  0  0  0  0  0  0  0  0
   35.0270   30.7180   46.8730 H   0  0  0  0  0  0  0  0  0  0  0  0
   32.8870   27.8660   49.2210 H   0  0  0  0  0  0  0  0  0  0  0  0
   37.4880   29.2920   51.6610 C   0  0  0  0  0  0  0  0  0  0  0  0
   38.0610   28.3920   51.0150 O   0  0  0  0  0  0  0  0  0  0  0  0
   36.3350   29.9820   51.1570 N   0  0  0  0  0  0  0  0  0  0  0  0
   37.9440   29.4730   52.5930 H   0  0  0  0  0  0  0  0  0  0  0  0
   36.1080   30.7920   51.7990 H   0  0  0  0  0  0  0  0  0  0  0  0
   39.3800   32.0940   46.2200 C   0  0  0  0  0  0  0  0  0  0  0  0
   40.4840   31.3840   45.7860 C   0  0  0  0  0  0  0  0  0  0  0  0
   40.8770   30.6630   46.4910 H   0  0  0  0  0  0  0  0  0  0  0  0
   40.7440   31.8500   44.5190 C   0  0  0  0  0  0  0  0  0  0  0  0
   41.5980   31.4040   43.9920 H   0  0  0  0  0  0  0  0  0  0  0  0
   39.8080   32.8100   44.2260 C   0  0  0  0  0  0  0  0  0  0  0  0
   39.8320   33.3060   43.2750 H   0  0  0  0  0  0  0  0  0  0  0  0
   39.0070   32.9340   45.2620 O   0  0  0  0  0  0  0  0  0  0  0  0
  1 12  1  0  0  0  0
  1  2  1  0  0  0  0
  2  9  1  0  0  0  0
  3  2  2  0  0  0  0
  3 10  1  0  0  0  0
  4  3  1  0  0  0  0
  5  4  2  0  0  0  0
  6  7  1  0  0  0  0
  6  4  1  0  0  0  0
  7  1  1  0  0  0  0
  8  7  2  0  0  0  0
 11 16  1  0  0  0  0
 11 21  1  0  0  0  0
 12 11  2  0  0  0  0
 13 14  2  0  0  0  0
 13 12  1  0  0  0  0
 14 15  1  0  0  0  0
 15 18  1  0  0  0  0
 15 16  2  0  0  0  0
 17 13  1  0  0  0  0
 19 22  1  0  0  0  0
 20 19  2  0  0  0  0
 21 19  1  0  0  0  0
 21 23  1  0  0  0  0
 24  6  1  0  0  0  0
 25 24  2  0  0  0  0
 25 26  1  0  0  0  0
 27 25  1  0  0  0  0
 28 27  1  0  0  0  0
 29 27  2  0  0  0  0
 29 31  1  0  0  0  0
 30 29  1  0  0  0  0
 31 24  1  0  0  0  0
M  END
>  <minimizedAffinity>
-6.22175646

>  <minimizedRMSD>
1.24959755

$$$$
