
 OpenBabel03272505243D

 27 29  0  0  0  0  0  0  0  0999 V2000
   36.4380   29.2640   50.9240 C   0  0  0  0  0  0  0  0  0  0  0  0
   36.7730   29.5640   49.5850 C   0  0  0  0  0  0  0  0  0  0  0  0
   35.7850   29.8840   48.6760 C   0  0  0  0  0  0  0  0  0  0  0  0
   34.5140   29.8920   49.1340 N   0  0  0  0  0  0  0  0  0  0  0  0
   34.1700   29.6100   50.4040 C   0  0  0  0  0  0  0  0  0  0  0  0
   35.1340   29.2960   51.3000 N   0  0  0  0  0  0  0  0  0  0  0  0
   36.0730   30.1910   47.3300 N   0  0  0  0  0  0  0  0  0  0  0  0
   35.2130   29.8790   46.3370 C   0  0  0  0  0  0  0  0  0  0  0  0
   35.5130   30.1760   45.0080 C   0  0  0  0  0  0  0  0  0  0  0  0
   36.7370   30.8080   44.7330 C   0  0  0  0  0  0  0  0  0  0  0  0
   37.0590   31.0950   43.5730 O   0  0  0  0  0  0  0  0  0  0  0  0
   37.5910   31.1140   45.7490 N   0  0  0  0  0  0  0  0  0  0  0  0
   37.2120   30.7880   46.9970 C   0  0  0  0  0  0  0  0  0  0  0  0
   38.0300   31.0900   47.9140 O   0  0  0  0  0  0  0  0  0  0  0  0
   37.1440   29.0110   51.6780 H   0  0  0  0  0  0  0  0  0  0  0  0
   37.8180   29.4900   49.4230 H   0  0  0  0  0  0  0  0  0  0  0  0
   33.1100   29.6620   50.6000 H   0  0  0  0  0  0  0  0  0  0  0  0
   34.2930   29.3940   46.6320 H   0  0  0  0  0  0  0  0  0  0  0  0
   34.8160   29.9220   44.2230 H   0  0  0  0  0  0  0  0  0  0  0  0
   38.8230   31.7550   45.4400 C   0  0  0  0  0  0  0  0  0  0  0  0
   40.1200   31.2920   45.3520 C   0  0  0  0  0  0  0  0  0  0  0  0
   40.3770   30.2630   45.5310 H   0  0  0  0  0  0  0  0  0  0  0  0
   40.9670   32.3370   45.0130 C   0  0  0  0  0  0  0  0  0  0  0  0
   42.0340   32.3000   44.8690 H   0  0  0  0  0  0  0  0  0  0  0  0
   40.0970   33.4220   44.9100 C   0  0  0  0  0  0  0  0  0  0  0  0
   40.4770   34.4130   44.6490 H   0  0  0  0  0  0  0  0  0  0  0  0
   38.8810   33.0440   45.1630 O   0  0  0  0  0  0  0  0  0  0  0  0
  1  6  1  0  0  0  0
  1 15  1  0  0  0  0
  2  1  2  0  0  0  0
  3  4  2  0  0  0  0
  3  2  1  0  0  0  0
  4  5  1  0  0  0  0
  5 17  1  0  0  0  0
  5  6  2  0  0  0  0
  7  3  1  0  0  0  0
  8 18  1  0  0  0  0
  8  7  1  0  0  0  0
  9  8  2  0  0  0  0
 10  9  1  0  0  0  0
 10 12  1  0  0  0  0
 11 10  2  0  0  0  0
 12 13  1  0  0  0  0
 13  7  1  0  0  0  0
 13 14  2  0  0  0  0
 16  2  1  0  0  0  0
 19  9  1  0  0  0  0
 20 12  1  0  0  0  0
 21 20  2  0  0  0  0
 21 22  1  0  0  0  0
 23 21  1  0  0  0  0
 24 23  1  0  0  0  0
 25 23  2  0  0  0  0
 25 27  1  0  0  0  0
 26 25  1  0  0  0  0
 27 20  1  0  0  0  0
M  END
>  <minimizedAffinity>
-5.62178326

>  <minimizedRMSD>
3.33900905

$$$$
