
 OpenBabel03272507283D

 40 42  0  0  1  0  0  0  0  0999 V2000
   34.6620   29.7830   47.0330 C   0  0  0  0  0  0  0  0  0  0  0  0
   35.5890   30.4390   46.2000 C   0  0  0  0  0  0  0  0  0  0  0  0
   35.7340   29.9350   44.9050 C   0  0  0  0  0  0  0  0  0  0  0  0
   35.0000   28.8790   44.5250 N   0  0  0  0  0  0  0  0  0  0  0  0
   34.1220   28.2790   45.3550 C   0  0  0  0  0  0  0  0  0  0  0  0
   33.9560   28.7300   46.5960 N   0  0  0  0  0  0  0  0  0  0  0  0
   36.6360   30.5170   44.0190 N   0  0  0  0  0  0  0  0  0  0  0  0
   37.0160   31.9550   43.9820 C   0  0  0  0  0  0  0  0  0  0  0  0
   37.7780   32.1970   42.7380 C   0  0  0  0  0  0  0  0  0  0  0  0
   37.4690   31.0300   41.9150 C   0  0  0  0  0  0  0  0  0  0  0  0
   37.4040   29.9700   42.9450 C   0  0  2  0  0  0  0  0  0  0  0  0
   34.5730   30.1960   48.0290 H   0  0  0  0  0  0  0  0  0  0  0  0
   36.1890   31.2890   46.4810 H   0  0  0  0  0  0  0  0  0  0  0  0
   33.4990   27.4280   45.1200 H   0  0  0  0  0  0  0  0  0  0  0  0
   37.3500   32.3710   44.9070 H   0  0  0  0  0  0  0  0  0  0  0  0
   35.9610   32.4140   43.8760 H   0  0  0  0  0  0  0  0  0  0  0  0
   38.7080   32.6970   42.7080 H   0  0  0  0  0  0  0  0  0  0  0  0
   37.1240   33.0330   42.1930 H   0  0  0  0  0  0  0  0  0  0  0  0
   36.5510   31.0600   41.3160 H   0  0  0  0  0  0  0  0  0  0  0  0
   38.3110   30.8250   41.1930 H   0  0  0  0  0  0  0  0  0  0  0  0
   36.8210   28.6890   42.3450 C   0  0  0  0  0  0  0  0  0  0  0  0
   35.4740   28.8920   42.1290 F   0  0  0  0  0  0  0  0  0  0  0  0
   36.9310   27.5730   43.1170 F   0  0  0  0  0  0  0  0  0  0  0  0
   37.3970   28.5450   41.0980 F   0  0  0  0  0  0  0  0  0  0  0  0
   38.6920   29.6080   43.4700 C   0  0  2  0  0  0  0  0  0  0  0  0
   38.6240   28.8620   44.2390 H   0  0  0  0  0  0  0  0  0  0  0  0
   39.4840   30.6870   44.3170 C   0  0  0  0  0  0  0  0  0  0  0  0
   39.4080   30.7160   45.7400 C   0  0  0  0  0  0  0  0  0  0  0  0
   38.8260   30.0470   46.4020 H   0  0  0  0  0  0  0  0  0  0  0  0
   40.1820   31.7260   46.2610 C   0  0  0  0  0  0  0  0  0  0  0  0
   40.3260   31.9960   47.2900 H   0  0  0  0  0  0  0  0  0  0  0  0
   40.6980   32.2710   45.1110 C   0  0  0  0  0  0  0  0  0  0  0  0
   41.3730   33.1060   45.0230 H   0  0  0  0  0  0  0  0  0  0  0  0
   40.2940   31.6740   44.0370 O   0  0  0  0  0  0  0  0  0  0  0  0
   39.4770   29.4560   42.4990 O   0  0  0  0  0  0  0  0  0  0  0  0
   40.6160   28.8150   42.1850 C   0  0  0  0  0  0  0  0  0  0  0  0
   40.4050   27.7090   41.6830 O   0  0  0  0  0  0  0  0  0  0  0  0
   42.0370   28.8200   42.1540 N   0  0  0  0  0  0  0  0  0  0  0  0
   42.4110   29.3420   41.3260 H   0  0  0  0  0  0  0  0  0  0  0  0
   42.6460   28.3590   42.8640 H   0  0  0  0  0  0  0  0  0  0  0  0
  1 12  1  0  0  0  0
  2 13  1  0  0  0  0
  2  1  2  0  0  0  0
  3  2  1  0  0  0  0
  4  3  2  0  0  0  0
  4  5  1  0  0  0  0
  5  6  2  0  0  0  0
  6  1  1  0  0  0  0
  7  3  1  0  0  0  0
  8  7  1  0  0  0  0
  8 15  1  0  0  0  0
  9  8  1  0  0  0  0
 10  9  1  0  0  0  0
 10 11  1  0  0  0  0
 11 21  1  6  0  0  0
 11 25  1  0  0  0  0
 11  7  1  0  0  0  0
 14  5  1  0  0  0  0
 16  8  1  0  0  0  0
 17  9  1  0  0  0  0
 18  9  1  0  0  0  0
 19 10  1  0  0  0  0
 20 10  1  0  0  0  0
 21 23  1  0  0  0  0
 22 21  1  0  0  0  0
 24 21  1  0  0  0  0
 25 26  1  1  0  0  0
 25 27  1  0  0  0  0
 27 28  2  0  0  0  0
 28 30  1  0  0  0  0
 28 29  1  0  0  0  0
 30 31  1  0  0  0  0
 32 30  2  0  0  0  0
 33 32  1  0  0  0  0
 34 27  1  0  0  0  0
 34 32  1  0  0  0  0
 35 25  1  0  0  0  0
 36 35  1  0  0  0  0
 37 36  2  0  0  0  0
 38 36  1  0  0  0  0
 38 40  1  0  0  0  0
 39 38  1  0  0  0  0
M  END
>  <minimizedAffinity>
-4.53418064

>  <minimizedRMSD>
2.80248117

$$$$
