
 OpenBabel03272507293D

 40 42  0  0  1  0  0  0  0  0999 V2000
   39.3650   26.0030   30.9530 C   0  0  0  0  0  0  0  0  0  0  0  0
   39.7600   25.6540   32.2590 C   0  0  0  0  0  0  0  0  0  0  0  0
   39.3800   24.3890   32.7120 C   0  0  0  0  0  0  0  0  0  0  0  0
   38.6760   23.5850   31.9020 N   0  0  0  0  0  0  0  0  0  0  0  0
   38.3170   23.9580   30.6560 C   0  0  0  0  0  0  0  0  0  0  0  0
   38.6600   25.1550   30.1890 N   0  0  0  0  0  0  0  0  0  0  0  0
   39.7210   23.9680   33.9940 N   0  0  0  0  0  0  0  0  0  0  0  0
   40.9460   24.3580   34.7430 C   0  0  0  0  0  0  0  0  0  0  0  0
   41.0540   23.4890   35.9340 C   0  0  0  0  0  0  0  0  0  0  0  0
   40.1520   22.3800   35.6310 C   0  0  0  0  0  0  0  0  0  0  0  0
   39.0700   23.0880   34.9120 C   0  0  2  0  0  0  0  0  0  0  0  0
   39.6730   26.9890   30.6320 H   0  0  0  0  0  0  0  0  0  0  0  0
   40.3260   26.2810   32.9280 H   0  0  0  0  0  0  0  0  0  0  0  0
   37.7520   23.3670   29.9490 H   0  0  0  0  0  0  0  0  0  0  0  0
   41.1240   25.4080   34.8250 H   0  0  0  0  0  0  0  0  0  0  0  0
   41.7380   24.0380   33.9660 H   0  0  0  0  0  0  0  0  0  0  0  0
   41.2160   23.8530   36.9120 H   0  0  0  0  0  0  0  0  0  0  0  0
   42.1130   22.9640   35.7750 H   0  0  0  0  0  0  0  0  0  0  0  0
   40.5500   21.5510   35.0330 H   0  0  0  0  0  0  0  0  0  0  0  0
   39.7580   21.9230   36.5840 H   0  0  0  0  0  0  0  0  0  0  0  0
   38.1270   22.0770   34.2530 C   0  0  0  0  0  0  0  0  0  0  0  0
   37.5600   21.3100   35.2500 F   0  0  0  0  0  0  0  0  0  0  0  0
   38.7080   21.2130   33.3770 F   0  0  0  0  0  0  0  0  0  0  0  0
   37.0990   22.8090   33.6930 F   0  0  0  0  0  0  0  0  0  0  0  0
   38.2440   23.8890   35.7740 C   0  0  2  0  0  0  0  0  0  0  0  0
   37.1970   23.7350   35.5940 H   0  0  0  0  0  0  0  0  0  0  0  0
   38.2470   25.4590   35.5620 C   0  0  0  0  0  0  0  0  0  0  0  0
   37.2110   26.1130   34.8330 C   0  0  0  0  0  0  0  0  0  0  0  0
   36.3340   25.6520   34.3440 H   0  0  0  0  0  0  0  0  0  0  0  0
   37.4160   27.4720   34.7880 C   0  0  0  0  0  0  0  0  0  0  0  0
   36.8110   28.2240   34.3150 H   0  0  0  0  0  0  0  0  0  0  0  0
   38.5830   27.5810   35.5020 C   0  0  0  0  0  0  0  0  0  0  0  0
   39.1340   28.4770   35.7310 H   0  0  0  0  0  0  0  0  0  0  0  0
   39.0290   26.4420   35.9260 O   0  0  0  0  0  0  0  0  0  0  0  0
   38.7120   23.8130   36.9390 O   0  0  0  0  0  0  0  0  0  0  0  0
   38.3130   23.5440   38.1940 C   0  0  0  0  0  0  0  0  0  0  0  0
   37.9990   24.5630   38.8130 O   0  0  0  0  0  0  0  0  0  0  0  0
   38.0660   22.5730   39.2020 N   0  0  0  0  0  0  0  0  0  0  0  0
   37.1300   22.1170   39.0880 H   0  0  0  0  0  0  0  0  0  0  0  0
   38.7290   22.3360   39.9720 H   0  0  0  0  0  0  0  0  0  0  0  0
  1  2  1  0  0  0  0
  2  3  2  0  0  0  0
  2 13  1  0  0  0  0
  3  7  1  0  0  0  0
  4  3  1  0  0  0  0
  5  4  2  0  0  0  0
  6  5  1  0  0  0  0
  6  1  2  0  0  0  0
  7  8  1  0  0  0  0
  7 11  1  0  0  0  0
  8 15  1  0  0  0  0
  8  9  1  0  0  0  0
  9 17  1  0  0  0  0
 10  9  1  0  0  0  0
 10 20  1  0  0  0  0
 11 21  1  6  0  0  0
 11 10  1  0  0  0  0
 11 25  1  0  0  0  0
 12  1  1  0  0  0  0
 14  5  1  0  0  0  0
 16  8  1  0  0  0  0
 18  9  1  0  0  0  0
 19 10  1  0  0  0  0
 21 22  1  0  0  0  0
 23 21  1  0  0  0  0
 24 21  1  0  0  0  0
 25 26  1  6  0  0  0
 25 35  1  0  0  0  0
 27 25  1  0  0  0  0
 27 34  1  0  0  0  0
 28 27  2  0  0  0  0
 29 28  1  0  0  0  0
 30 28  1  0  0  0  0
 30 32  2  0  0  0  0
 31 30  1  0  0  0  0
 32 33  1  0  0  0  0
 32 34  1  0  0  0  0
 35 36  1  0  0  0  0
 36 37  2  0  0  0  0
 36 38  1  0  0  0  0
 38 40  1  0  0  0  0
 39 38  1  0  0  0  0
M  END
>  <minimizedAffinity>
-5.10545206

$$$$

 OpenBabel03272507293D

 40 42  0  0  1  0  0  0  0  0999 V2000
   39.1530   22.5650   36.9820 C   0  0  0  0  0  0  0  0  0  0  0  0
   39.5250   23.2620   35.8160 C   0  0  0  0  0  0  0  0  0  0  0  0
   39.0920   24.5860   35.7130 C   0  0  0  0  0  0  0  0  0  0  0  0
   38.3620   25.1190   36.7050 N   0  0  0  0  0  0  0  0  0  0  0  0
   38.0280   24.4150   37.8060 C   0  0  0  0  0  0  0  0  0  0  0  0
   38.4210   23.1510   37.9410 N   0  0  0  0  0  0  0  0  0  0  0  0
   39.4060   25.3450   34.5890 N   0  0  0  0  0  0  0  0  0  0  0  0
   40.6390   25.2160   33.7670 C   0  0  0  0  0  0  0  0  0  0  0  0
   40.7030   26.3730   32.8490 C   0  0  0  0  0  0  0  0  0  0  0  0
   39.7610   27.3250   33.4320 C   0  0  0  0  0  0  0  0  0  0  0  0
   38.7130   26.4090   33.9350 C   0  0  2  0  0  0  0  0  0  0  0  0
   39.5030   21.5430   37.0320 H   0  0  0  0  0  0  0  0  0  0  0  0
   40.1100   22.8580   35.0070 H   0  0  0  0  0  0  0  0  0  0  0  0
   37.4450   24.7750   38.6420 H   0  0  0  0  0  0  0  0  0  0  0  0
   40.8580   24.2330   33.4110 H   0  0  0  0  0  0  0  0  0  0  0  0
   41.4240   25.3510   34.6040 H   0  0  0  0  0  0  0  0  0  0  0  0
   40.8720   26.2870   31.8100 H   0  0  0  0  0  0  0  0  0  0  0  0
   41.7420   26.8800   33.1440 H   0  0  0  0  0  0  0  0  0  0  0  0
   40.1300   27.9820   34.2290 H   0  0  0  0  0  0  0  0  0  0  0  0
   39.3410   28.0020   32.6330 H   0  0  0  0  0  0  0  0  0  0  0  0
   37.7360   27.1710   34.8340 C   0  0  0  0  0  0  0  0  0  0  0  0
   36.7760   26.2820   35.2710 F   0  0  0  0  0  0  0  0  0  0  0  0
   37.0750   28.2040   34.2450 F   0  0  0  0  0  0  0  0  0  0  0  0
   38.4510   27.5510   35.9530 F   0  0  0  0  0  0  0  0  0  0  0  0
   37.9130   25.8320   32.8880 C   0  0  2  0  0  0  0  0  0  0  0  0
   36.9030   25.6460   33.2020 H   0  0  0  0  0  0  0  0  0  0  0  0
   38.2450   24.3540   32.4240 C   0  0  0  0  0  0  0  0  0  0  0  0
   37.4610   23.2450   32.8580 C   0  0  0  0  0  0  0  0  0  0  0  0
   36.5860   23.2580   33.5330 H   0  0  0  0  0  0  0  0  0  0  0  0
   37.9260   22.0670   32.3220 C   0  0  0  0  0  0  0  0  0  0  0  0
   37.5450   21.0720   32.4640 H   0  0  0  0  0  0  0  0  0  0  0  0
   38.9860   22.5230   31.5790 C   0  0  0  0  0  0  0  0  0  0  0  0
   39.6620   21.9440   30.9720 H   0  0  0  0  0  0  0  0  0  0  0  0
   39.1450   23.8050   31.6500 O   0  0  0  0  0  0  0  0  0  0  0  0
   38.1480   26.4640   31.8270 O   0  0  0  0  0  0  0  0  0  0  0  0
   37.4990   26.9760   30.7670 C   0  0  0  0  0  0  0  0  0  0  0  0
   38.2610   27.5490   29.9850 O   0  0  0  0  0  0  0  0  0  0  0  0
   36.2690   27.1730   30.0820 N   0  0  0  0  0  0  0  0  0  0  0  0
   35.9980   26.3370   29.5130 H   0  0  0  0  0  0  0  0  0  0  0  0
   35.6970   28.0440   30.1310 H   0  0  0  0  0  0  0  0  0  0  0  0
  1 12  1  0  0  0  0
  1  6  1  0  0  0  0
  2  1  2  0  0  0  0
  3  2  1  0  0  0  0
  3  4  2  0  0  0  0
  4  5  1  0  0  0  0
  5  6  2  0  0  0  0
  5 14  1  0  0  0  0
  7  3  1  0  0  0  0
  8  7  1  0  0  0  0
  8 16  1  0  0  0  0
  9 18  1  0  0  0  0
  9 10  1  0  0  0  0
  9  8  1  0  0  0  0
 10 11  1  0  0  0  0
 10 19  1  0  0  0  0
 11  7  1  0  0  0  0
 11 21  1  1  0  0  0
 13  2  1  0  0  0  0
 15  8  1  0  0  0  0
 17  9  1  0  0  0  0
 20 10  1  0  0  0  0
 21 22  1  0  0  0  0
 21 24  1  0  0  0  0
 23 21  1  0  0  0  0
 25 26  1  1  0  0  0
 25 11  1  0  0  0  0
 27 28  2  0  0  0  0
 27 25  1  0  0  0  0
 28 29  1  0  0  0  0
 30 31  1  0  0  0  0
 30 28  1  0  0  0  0
 32 34  1  0  0  0  0
 32 30  2  0  0  0  0
 33 32  1  0  0  0  0
 34 27  1  0  0  0  0
 35 25  1  0  0  0  0
 36 35  1  0  0  0  0
 37 36  2  0  0  0  0
 38 40  1  0  0  0  0
 38 36  1  0  0  0  0
 39 38  1  0  0  0  0
M  END
>  <minimizedAffinity>
-4.95077753

$$$$

 OpenBabel03272507293D

 40 42  0  0  1  0  0  0  0  0999 V2000
   42.2230   21.9410   36.3580 C   0  0  0  0  0  0  0  0  0  0  0  0
   42.0380   23.1010   35.5800 C   0  0  0  0  0  0  0  0  0  0  0  0
   40.8570   23.8160   35.7920 C   0  0  0  0  0  0  0  0  0  0  0  0
   39.9770   23.3770   36.7040 N   0  0  0  0  0  0  0  0  0  0  0  0
   40.1930   22.2590   37.4290 C   0  0  0  0  0  0  0  0  0  0  0  0
   41.3060   21.5510   37.2550 N   0  0  0  0  0  0  0  0  0  0  0  0
   40.5900   24.9690   35.0590 N   0  0  0  0  0  0  0  0  0  0  0  0
   41.6040   25.9280   34.5440 C   0  0  0  0  0  0  0  0  0  0  0  0
   40.8940   27.1340   34.0660 C   0  0  0  0  0  0  0  0  0  0  0  0
   39.5740   27.0200   34.6800 C   0  0  0  0  0  0  0  0  0  0  0  0
   39.3630   25.5570   34.6230 C   0  0  2  0  0  0  0  0  0  0  0  0
   43.1460   21.4100   36.1700 H   0  0  0  0  0  0  0  0  0  0  0  0
   42.7300   23.4750   34.8430 H   0  0  0  0  0  0  0  0  0  0  0  0
   39.5330   21.8450   38.1780 H   0  0  0  0  0  0  0  0  0  0  0  0
   42.3920   25.5020   33.9630 H   0  0  0  0  0  0  0  0  0  0  0  0
   42.1390   26.1710   35.5380 H   0  0  0  0  0  0  0  0  0  0  0  0
   41.0570   27.5720   33.1190 H   0  0  0  0  0  0  0  0  0  0  0  0
   41.3750   27.9980   34.7330 H   0  0  0  0  0  0  0  0  0  0  0  0
   39.4550   27.3990   35.7030 H   0  0  0  0  0  0  0  0  0  0  0  0
   38.8020   27.5530   34.0530 H   0  0  0  0  0  0  0  0  0  0  0  0
   38.1450   25.1670   35.4630 C   0  0  0  0  0  0  0  0  0  0  0  0
   38.4380   25.4260   36.7860 F   0  0  0  0  0  0  0  0  0  0  0  0
   37.7740   23.8590   35.3930 F   0  0  0  0  0  0  0  0  0  0  0  0
   37.1330   26.0380   35.1120 F   0  0  0  0  0  0  0  0  0  0  0  0
   39.0950   25.0730   33.2960 C   0  0  2  0  0  0  0  0  0  0  0  0
   39.8240   25.4120   32.5830 H   0  0  0  0  0  0  0  0  0  0  0  0
   37.8170   25.6300   32.5430 C   0  0  0  0  0  0  0  0  0  0  0  0
   37.8210   26.9140   31.9220 C   0  0  0  0  0  0  0  0  0  0  0  0
   38.6470   27.6470   31.8880 H   0  0  0  0  0  0  0  0  0  0  0  0
   36.6120   27.1800   31.3220 C   0  0  0  0  0  0  0  0  0  0  0  0
   36.3140   28.0590   30.7810 H   0  0  0  0  0  0  0  0  0  0  0  0
   35.9220   26.0300   31.6130 C   0  0  0  0  0  0  0  0  0  0  0  0
   34.9100   25.7830   31.3400 H   0  0  0  0  0  0  0  0  0  0  0  0
   36.6160   25.1770   32.2950 O   0  0  0  0  0  0  0  0  0  0  0  0
   38.8000   23.8540   33.3790 O   0  0  0  0  0  0  0  0  0  0  0  0
   38.9790   22.7020   32.7110 C   0  0  0  0  0  0  0  0  0  0  0  0
   39.2570   21.7650   33.4620 O   0  0  0  0  0  0  0  0  0  0  0  0
   38.9930   22.0160   31.4660 N   0  0  0  0  0  0  0  0  0  0  0  0
   38.0310   21.7400   31.1570 H   0  0  0  0  0  0  0  0  0  0  0  0
   39.8540   21.8040   30.9160 H   0  0  0  0  0  0  0  0  0  0  0  0
  1  6  1  0  0  0  0
  2  3  1  0  0  0  0
  2  1  2  0  0  0  0
  3  4  2  0  0  0  0
  4  5  1  0  0  0  0
  5 14  1  0  0  0  0
  6  5  2  0  0  0  0
  7  3  1  0  0  0  0
  8  7  1  0  0  0  0
  8 16  1  0  0  0  0
  9  8  1  0  0  0  0
  9 10  1  0  0  0  0
  9 18  1  0  0  0  0
 10 19  1  0  0  0  0
 11 10  1  0  0  0  0
 11  7  1  0  0  0  0
 11 21  1  1  0  0  0
 12  1  1  0  0  0  0
 13  2  1  0  0  0  0
 15  8  1  0  0  0  0
 17  9  1  0  0  0  0
 20 10  1  0  0  0  0
 21 22  1  0  0  0  0
 23 21  1  0  0  0  0
 24 21  1  0  0  0  0
 25 26  1  6  0  0  0
 25 35  1  0  0  0  0
 25 11  1  0  0  0  0
 27 25  1  0  0  0  0
 28 27  2  0  0  0  0
 29 28  1  0  0  0  0
 30 32  2  0  0  0  0
 30 28  1  0  0  0  0
 31 30  1  0  0  0  0
 32 34  1  0  0  0  0
 33 32  1  0  0  0  0
 34 27  1  0  0  0  0
 36 35  1  0  0  0  0
 36 37  2  0  0  0  0
 38 36  1  0  0  0  0
 39 38  1  0  0  0  0
 40 38  1  0  0  0  0
M  END
>  <minimizedAffinity>
-4.91595697

$$$$

 OpenBabel03272507293D

 40 42  0  0  1  0  0  0  0  0999 V2000
   36.8310   27.8940   32.2600 C   0  0  0  0  0  0  0  0  0  0  0  0
   37.3140   26.5740   32.3410 C   0  0  0  0  0  0  0  0  0  0  0  0
   37.3990   26.0140   33.6180 C   0  0  0  0  0  0  0  0  0  0  0  0
   37.0240   26.7420   34.6810 N   0  0  0  0  0  0  0  0  0  0  0  0
   36.5660   28.0050   34.5590 C   0  0  0  0  0  0  0  0  0  0  0  0
   36.4710   28.5720   33.3600 N   0  0  0  0  0  0  0  0  0  0  0  0
   37.8750   24.7180   33.7890 N   0  0  0  0  0  0  0  0  0  0  0  0
   37.7190   23.5970   32.8230 C   0  0  0  0  0  0  0  0  0  0  0  0
   38.1220   22.3460   33.5010 C   0  0  0  0  0  0  0  0  0  0  0  0
   38.1020   22.7020   34.9170 C   0  0  0  0  0  0  0  0  0  0  0  0
   38.5870   24.0990   34.8620 C   0  0  2  0  0  0  0  0  0  0  0  0
   36.7780   28.2990   31.2590 H   0  0  0  0  0  0  0  0  0  0  0  0
   37.6200   25.9690   31.5030 H   0  0  0  0  0  0  0  0  0  0  0  0
   36.2470   28.6500   35.3650 H   0  0  0  0  0  0  0  0  0  0  0  0
   38.0420   23.7970   31.8250 H   0  0  0  0  0  0  0  0  0  0  0  0
   36.5700   23.6170   32.7140 H   0  0  0  0  0  0  0  0  0  0  0  0
   38.8010   21.6500   33.0880 H   0  0  0  0  0  0  0  0  0  0  0  0
   37.1350   21.6810   33.4240 H   0  0  0  0  0  0  0  0  0  0  0  0
   37.1410   22.6360   35.4440 H   0  0  0  0  0  0  0  0  0  0  0  0
   38.8240   22.0570   35.4950 H   0  0  0  0  0  0  0  0  0  0  0  0
   38.3920   24.7780   36.2200 C   0  0  0  0  0  0  0  0  0  0  0  0
   37.0390   24.8280   36.4820 F   0  0  0  0  0  0  0  0  0  0  0  0
   38.8570   26.0530   36.3150 F   0  0  0  0  0  0  0  0  0  0  0  0
   38.9390   23.9290   37.1630 F   0  0  0  0  0  0  0  0  0  0  0  0
   39.9910   24.2010   34.5710 C   0  0  2  0  0  0  0  0  0  0  0  0
   40.2350   23.8130   33.6000 H   0  0  0  0  0  0  0  0  0  0  0  0
   40.9920   23.2930   35.3980 C   0  0  0  0  0  0  0  0  0  0  0  0
   41.5180   22.0820   34.8570 C   0  0  0  0  0  0  0  0  0  0  0  0
   41.3110   21.6380   33.8660 H   0  0  0  0  0  0  0  0  0  0  0  0
   42.3710   21.4690   35.7440 C   0  0  0  0  0  0  0  0  0  0  0  0
   42.9150   20.5500   35.6220 H   0  0  0  0  0  0  0  0  0  0  0  0
   42.3220   22.3480   36.7970 C   0  0  0  0  0  0  0  0  0  0  0  0
   42.8420   22.2780   37.7380 H   0  0  0  0  0  0  0  0  0  0  0  0
   41.5450   23.3610   36.5810 O   0  0  0  0  0  0  0  0  0  0  0  0
   40.3780   25.3450   34.9200 O   0  0  0  0  0  0  0  0  0  0  0  0
   41.2450   26.3000   34.5420 C   0  0  0  0  0  0  0  0  0  0  0  0
   40.7000   27.1950   33.8930 O   0  0  0  0  0  0  0  0  0  0  0  0
   42.5780   26.7930   34.5460 N   0  0  0  0  0  0  0  0  0  0  0  0
   42.8070   27.3040   35.4310 H   0  0  0  0  0  0  0  0  0  0  0  0
   43.2580   26.6680   33.7640 H   0  0  0  0  0  0  0  0  0  0  0  0
  1  2  2  0  0  0  0
  1  6  1  0  0  0  0
  2  3  1  0  0  0  0
  3  7  1  0  0  0  0
  3  4  2  0  0  0  0
  5  4  1  0  0  0  0
  5 14  1  0  0  0  0
  6  5  2  0  0  0  0
  7 11  1  0  0  0  0
  8  9  1  0  0  0  0
  8  7  1  0  0  0  0
  9 10  1  0  0  0  0
 10 19  1  0  0  0  0
 10 20  1  0  0  0  0
 11 10  1  0  0  0  0
 11 21  1  1  0  0  0
 12  1  1  0  0  0  0
 13  2  1  0  0  0  0
 15  8  1  0  0  0  0
 16  8  1  0  0  0  0
 17  9  1  0  0  0  0
 18  9  1  0  0  0  0
 21 23  1  0  0  0  0
 21 22  1  0  0  0  0
 21 24  1  0  0  0  0
 25 26  1  6  0  0  0
 25 11  1  0  0  0  0
 25 35  1  0  0  0  0
 25 27  1  0  0  0  0
 27 34  1  0  0  0  0
 28 27  2  0  0  0  0
 28 30  1  0  0  0  0
 29 28  1  0  0  0  0
 30 32  2  0  0  0  0
 31 30  1  0  0  0  0
 32 33  1  0  0  0  0
 34 32  1  0  0  0  0
 36 38  1  0  0  0  0
 36 35  1  0  0  0  0
 37 36  2  0  0  0  0
 38 39  1  0  0  0  0
 40 38  1  0  0  0  0
M  END
>  <minimizedAffinity>
-4.91447926

$$$$

 OpenBabel03272507293D

 40 42  0  0  1  0  0  0  0  0999 V2000
   37.5780   27.3950   32.4860 C   0  0  0  0  0  0  0  0  0  0  0  0
   38.1000   26.1200   32.7780 C   0  0  0  0  0  0  0  0  0  0  0  0
   37.8490   25.6170   34.0560 C   0  0  0  0  0  0  0  0  0  0  0  0
   37.1380   26.3520   34.9240 N   0  0  0  0  0  0  0  0  0  0  0  0
   36.6550   27.5700   34.6050 C   0  0  0  0  0  0  0  0  0  0  0  0
   36.8740   28.0840   33.3970 N   0  0  0  0  0  0  0  0  0  0  0  0
   38.3370   24.3680   34.4310 N   0  0  0  0  0  0  0  0  0  0  0  0
   38.5370   23.2030   33.5260 C   0  0  0  0  0  0  0  0  0  0  0  0
   38.8060   22.0140   34.3610 C   0  0  0  0  0  0  0  0  0  0  0  0
   38.3560   22.4190   35.6900 C   0  0  0  0  0  0  0  0  0  0  0  0
   38.7470   23.8460   35.6960 C   0  0  2  0  0  0  0  0  0  0  0  0
   37.7900   27.7570   31.4900 H   0  0  0  0  0  0  0  0  0  0  0  0
   38.6730   25.5100   32.0980 H   0  0  0  0  0  0  0  0  0  0  0  0
   36.0780   28.2180   35.2480 H   0  0  0  0  0  0  0  0  0  0  0  0
   39.1210   23.3900   32.6520 H   0  0  0  0  0  0  0  0  0  0  0  0
   37.4690   23.1300   33.0930 H   0  0  0  0  0  0  0  0  0  0  0  0
   39.6180   21.3560   34.2000 H   0  0  0  0  0  0  0  0  0  0  0  0
   37.9280   21.2720   34.0460 H   0  0  0  0  0  0  0  0  0  0  0  0
   37.2910   22.2980   35.9240 H   0  0  0  0  0  0  0  0  0  0  0  0
   38.9210   21.8540   36.4860 H   0  0  0  0  0  0  0  0  0  0  0  0
   38.1270   24.5580   36.9000 C   0  0  0  0  0  0  0  0  0  0  0  0
   36.7630   24.3520   36.8620 F   0  0  0  0  0  0  0  0  0  0  0  0
   38.3190   25.9040   36.9540 F   0  0  0  0  0  0  0  0  0  0  0  0
   38.5870   23.8980   38.0230 F   0  0  0  0  0  0  0  0  0  0  0  0
   40.1660   24.0450   35.8110 C   0  0  2  0  0  0  0  0  0  0  0  0
   40.4170   24.7540   36.5780 H   0  0  0  0  0  0  0  0  0  0  0  0
   40.9160   24.7760   34.6220 C   0  0  0  0  0  0  0  0  0  0  0  0
   41.2310   26.1650   34.6830 C   0  0  0  0  0  0  0  0  0  0  0  0
   41.0060   26.8750   35.5000 H   0  0  0  0  0  0  0  0  0  0  0  0
   41.8890   26.5760   33.5480 C   0  0  0  0  0  0  0  0  0  0  0  0
   42.2520   27.5590   33.3040 H   0  0  0  0  0  0  0  0  0  0  0  0
   41.9440   25.4010   32.8410 C   0  0  0  0  0  0  0  0  0  0  0  0
   42.3790   25.2360   31.8700 H   0  0  0  0  0  0  0  0  0  0  0  0
   41.3940   24.4070   33.4620 O   0  0  0  0  0  0  0  0  0  0  0  0
   40.7200   22.9180   35.7750 O   0  0  0  0  0  0  0  0  0  0  0  0
   41.6560   22.2070   36.4280 C   0  0  0  0  0  0  0  0  0  0  0  0
   41.2650   21.8270   37.5340 O   0  0  0  0  0  0  0  0  0  0  0  0
   42.9630   21.6500   36.4380 N   0  0  0  0  0  0  0  0  0  0  0  0
   43.0070   20.7390   35.9230 H   0  0  0  0  0  0  0  0  0  0  0  0
   43.7900   22.0860   36.9020 H   0  0  0  0  0  0  0  0  0  0  0  0
  1  2  2  0  0  0  0
  1  6  1  0  0  0  0
  2  3  1  0  0  0  0
  3  7  1  0  0  0  0
  3  4  2  0  0  0  0
  5  4  1  0  0  0  0
  5 14  1  0  0  0  0
  6  5  2  0  0  0  0
  7 11  1  0  0  0  0
  8  9  1  0  0  0  0
  8  7  1  0  0  0  0
  9 10  1  0  0  0  0
 10 11  1  0  0  0  0
 10 19  1  0  0  0  0
 10 20  1  0  0  0  0
 11 25  1  0  0  0  0
 11 21  1  1  0  0  0
 12  1  1  0  0  0  0
 13  2  1  0  0  0  0
 15  8  1  0  0  0  0
 16  8  1  0  0  0  0
 17  9  1  0  0  0  0
 18  9  1  0  0  0  0
 21 23  1  0  0  0  0
 21 24  1  0  0  0  0
 22 21  1  0  0  0  0
 25 26  1  1  0  0  0
 27 28  2  0  0  0  0
 27 25  1  0  0  0  0
 28 29  1  0  0  0  0
 30 28  1  0  0  0  0
 31 30  1  0  0  0  0
 32 34  1  0  0  0  0
 32 30  2  0  0  0  0
 33 32  1  0  0  0  0
 34 27  1  0  0  0  0
 35 25  1  0  0  0  0
 35 36  1  0  0  0  0
 36 38  1  0  0  0  0
 36 37  2  0  0  0  0
 38 40  1  0  0  0  0
 39 38  1  0  0  0  0
M  END
>  <minimizedAffinity>
-4.8959341

$$$$

 OpenBabel03272507293D

 40 42  0  0  1  0  0  0  0  0999 V2000
   36.0320   26.7470   31.2080 C   0  0  0  0  0  0  0  0  0  0  0  0
   37.2260   26.3110   31.8140 C   0  0  0  0  0  0  0  0  0  0  0  0
   37.3870   24.9320   31.9610 C   0  0  0  0  0  0  0  0  0  0  0  0
   36.4230   24.1070   31.5270 N   0  0  0  0  0  0  0  0  0  0  0  0
   35.2920   24.5650   30.9510 C   0  0  0  0  0  0  0  0  0  0  0  0
   35.1020   25.8730   30.7940 N   0  0  0  0  0  0  0  0  0  0  0  0
   38.5340   24.4160   32.5590 N   0  0  0  0  0  0  0  0  0  0  0  0
   39.8930   25.0190   32.5010 C   0  0  0  0  0  0  0  0  0  0  0  0
   40.8580   24.0290   33.0260 C   0  0  0  0  0  0  0  0  0  0  0  0
   40.1150   22.7710   32.9830 C   0  0  0  0  0  0  0  0  0  0  0  0
   38.7550   23.2370   33.3340 C   0  0  2  0  0  0  0  0  0  0  0  0
   35.9360   27.8190   31.1090 H   0  0  0  0  0  0  0  0  0  0  0  0
   38.0160   26.9530   32.1690 H   0  0  0  0  0  0  0  0  0  0  0  0
   34.4750   23.9650   30.5790 H   0  0  0  0  0  0  0  0  0  0  0  0
   39.9590   26.0430   32.7970 H   0  0  0  0  0  0  0  0  0  0  0  0
   40.0070   25.0890   31.3550 H   0  0  0  0  0  0  0  0  0  0  0  0
   41.5800   24.2490   33.7640 H   0  0  0  0  0  0  0  0  0  0  0  0
   41.6010   23.8790   32.1060 H   0  0  0  0  0  0  0  0  0  0  0  0
   40.1130   22.2150   32.0370 H   0  0  0  0  0  0  0  0  0  0  0  0
   40.5020   22.0590   33.7680 H   0  0  0  0  0  0  0  0  0  0  0  0
   37.7370   22.1210   33.0870 C   0  0  0  0  0  0  0  0  0  0  0  0
   38.2180   20.9670   33.6700 F   0  0  0  0  0  0  0  0  0  0  0  0
   37.4900   21.8260   31.7810 F   0  0  0  0  0  0  0  0  0  0  0  0
   36.6000   22.4670   33.7900 F   0  0  0  0  0  0  0  0  0  0  0  0
   38.6170   23.5930   34.7200 C   0  0  2  0  0  0  0  0  0  0  0  0
   37.6190   23.4370   35.0840 H   0  0  0  0  0  0  0  0  0  0  0  0
   38.7280   25.1240   35.1120 C   0  0  0  0  0  0  0  0  0  0  0  0
   37.5660   25.9180   35.3430 C   0  0  0  0  0  0  0  0  0  0  0  0
   36.5080   25.6040   35.2790 H   0  0  0  0  0  0  0  0  0  0  0  0
   37.9040   27.2080   35.6800 C   0  0  0  0  0  0  0  0  0  0  0  0
   37.2520   28.0310   35.9090 H   0  0  0  0  0  0  0  0  0  0  0  0
   39.2730   27.1350   35.6350 C   0  0  0  0  0  0  0  0  0  0  0  0
   39.9810   27.9230   35.8310 H   0  0  0  0  0  0  0  0  0  0  0  0
   39.7120   25.9600   35.3160 O   0  0  0  0  0  0  0  0  0  0  0  0
   39.6050   23.1250   35.3410 O   0  0  0  0  0  0  0  0  0  0  0  0
   39.9300   22.6540   36.5580 C   0  0  0  0  0  0  0  0  0  0  0  0
   40.8910   21.8840   36.5190 O   0  0  0  0  0  0  0  0  0  0  0  0
   39.6690   22.6340   37.9550 N   0  0  0  0  0  0  0  0  0  0  0  0
   40.0950   23.4540   38.4470 H   0  0  0  0  0  0  0  0  0  0  0  0
   39.1210   21.8930   38.4440 H   0  0  0  0  0  0  0  0  0  0  0  0
  1  2  1  0  0  0  0
  2  3  2  0  0  0  0
  2 13  1  0  0  0  0
  3  7  1  0  0  0  0
  4  3  1  0  0  0  0
  5  4  2  0  0  0  0
  6  5  1  0  0  0  0
  6  1  2  0  0  0  0
  7 11  1  0  0  0  0
  8  7  1  0  0  0  0
  8 15  1  0  0  0  0
  8  9  1  0  0  0  0
  9 17  1  0  0  0  0
 10  9  1  0  0  0  0
 10 11  1  0  0  0  0
 10 20  1  0  0  0  0
 11 21  1  6  0  0  0
 11 25  1  0  0  0  0
 12  1  1  0  0  0  0
 14  5  1  0  0  0  0
 16  8  1  0  0  0  0
 18  9  1  0  0  0  0
 19 10  1  0  0  0  0
 21 22  1  0  0  0  0
 21 24  1  0  0  0  0
 23 21  1  0  0  0  0
 25 26  1  1  0  0  0
 25 27  1  0  0  0  0
 25 35  1  0  0  0  0
 27 34  1  0  0  0  0
 27 28  2  0  0  0  0
 28 30  1  0  0  0  0
 29 28  1  0  0  0  0
 30 31  1  0  0  0  0
 32 30  2  0  0  0  0
 32 33  1  0  0  0  0
 34 32  1  0  0  0  0
 35 36  1  0  0  0  0
 36 38  1  0  0  0  0
 37 36  2  0  0  0  0
 38 40  1  0  0  0  0
 38 39  1  0  0  0  0
M  END
>  <minimizedAffinity>
-4.85293198

$$$$

 OpenBabel03272507293D

 40 42  0  0  1  0  0  0  0  0999 V2000
   37.3490   23.1230   31.1840 C   0  0  0  0  0  0  0  0  0  0  0  0
   37.8510   23.1120   32.4990 C   0  0  0  0  0  0  0  0  0  0  0  0
   37.6500   24.2680   33.2570 C   0  0  0  0  0  0  0  0  0  0  0  0
   37.0040   25.3080   32.7100 N   0  0  0  0  0  0  0  0  0  0  0  0
   36.5380   25.2780   31.4440 C   0  0  0  0  0  0  0  0  0  0  0  0
   36.7100   24.1950   30.6920 N   0  0  0  0  0  0  0  0  0  0  0  0
   38.1240   24.3460   34.5630 N   0  0  0  0  0  0  0  0  0  0  0  0
   38.2480   23.2080   35.5140 C   0  0  0  0  0  0  0  0  0  0  0  0
   38.5280   23.7600   36.8570 C   0  0  0  0  0  0  0  0  0  0  0  0
   38.1550   25.1670   36.7340 C   0  0  0  0  0  0  0  0  0  0  0  0
   38.5830   25.4500   35.3460 C   0  0  2  0  0  0  0  0  0  0  0  0
   37.5200   22.2140   30.6230 H   0  0  0  0  0  0  0  0  0  0  0  0
   38.3730   22.2900   32.9610 H   0  0  0  0  0  0  0  0  0  0  0  0
   36.0100   26.0730   30.9380 H   0  0  0  0  0  0  0  0  0  0  0  0
   38.7920   22.3620   35.1560 H   0  0  0  0  0  0  0  0  0  0  0  0
   37.1580   22.8280   35.4790 H   0  0  0  0  0  0  0  0  0  0  0  0
   39.3120   23.4210   37.4780 H   0  0  0  0  0  0  0  0  0  0  0  0
   37.6150   23.3440   37.5020 H   0  0  0  0  0  0  0  0  0  0  0  0
   37.1000   25.4280   36.8850 H   0  0  0  0  0  0  0  0  0  0  0  0
   38.7440   25.7950   37.4630 H   0  0  0  0  0  0  0  0  0  0  0  0
   38.0420   26.8090   34.8950 C   0  0  0  0  0  0  0  0  0  0  0  0
   36.6820   26.8250   35.1260 F   0  0  0  0  0  0  0  0  0  0  0  0
   38.2200   27.1070   33.5790 F   0  0  0  0  0  0  0  0  0  0  0  0
   38.5920   27.7490   35.7440 F   0  0  0  0  0  0  0  0  0  0  0  0
   40.0110   25.5270   35.1970 C   0  0  2  0  0  0  0  0  0  0  0  0
   40.4490   26.2600   35.8480 H   0  0  0  0  0  0  0  0  0  0  0  0
   40.5890   26.1050   33.8400 C   0  0  0  0  0  0  0  0  0  0  0  0
   41.4340   27.2540   33.8210 C   0  0  0  0  0  0  0  0  0  0  0  0
   41.7710   27.8600   34.6810 H   0  0  0  0  0  0  0  0  0  0  0  0
   41.8220   27.5640   32.5390 C   0  0  0  0  0  0  0  0  0  0  0  0
   42.4540   28.3690   32.2080 H   0  0  0  0  0  0  0  0  0  0  0  0
   41.1860   26.5770   31.8300 C   0  0  0  0  0  0  0  0  0  0  0  0
   41.2010   26.4160   30.7650 H   0  0  0  0  0  0  0  0  0  0  0  0
   40.5030   25.7710   32.5780 O   0  0  0  0  0  0  0  0  0  0  0  0
   40.4610   24.3540   35.1580 O   0  0  0  0  0  0  0  0  0  0  0  0
   41.6350   23.7000   35.1430 C   0  0  0  0  0  0  0  0  0  0  0  0
   41.6110   22.7130   34.4040 O   0  0  0  0  0  0  0  0  0  0  0  0
   42.9770   23.6130   35.6050 N   0  0  0  0  0  0  0  0  0  0  0  0
   43.6200   24.2430   35.0690 H   0  0  0  0  0  0  0  0  0  0  0  0
   43.2960   22.9970   36.3840 H   0  0  0  0  0  0  0  0  0  0  0  0
  1  2  1  0  0  0  0
  2 13  1  0  0  0  0
  2  3  2  0  0  0  0
  3  7  1  0  0  0  0
  4  3  1  0  0  0  0
  5  4  2  0  0  0  0
  6  1  2  0  0  0  0
  6  5  1  0  0  0  0
  7 11  1  0  0  0  0
  7  8  1  0  0  0  0
  8  9  1  0  0  0  0
  9 17  1  0  0  0  0
  9 18  1  0  0  0  0
 10  9  1  0  0  0  0
 10 19  1  0  0  0  0
 10 20  1  0  0  0  0
 11 21  1  6  0  0  0
 11 10  1  0  0  0  0
 12  1  1  0  0  0  0
 14  5  1  0  0  0  0
 15  8  1  0  0  0  0
 16  8  1  0  0  0  0
 21 22  1  0  0  0  0
 21 24  1  0  0  0  0
 23 21  1  0  0  0  0
 25 11  1  0  0  0  0
 25 26  1  1  0  0  0
 27 25  1  0  0  0  0
 28 27  2  0  0  0  0
 28 29  1  0  0  0  0
 30 28  1  0  0  0  0
 31 30  1  0  0  0  0
 32 30  2  0  0  0  0
 32 34  1  0  0  0  0
 33 32  1  0  0  0  0
 34 27  1  0  0  0  0
 35 25  1  0  0  0  0
 36 35  1  0  0  0  0
 36 38  1  0  0  0  0
 37 36  2  0  0  0  0
 38 40  1  0  0  0  0
 39 38  1  0  0  0  0
M  END
>  <minimizedAffinity>
-4.8374877

$$$$

 OpenBabel03272507293D

 40 42  0  0  1  0  0  0  0  0999 V2000
   36.4840   27.3300   31.1250 C   0  0  0  0  0  0  0  0  0  0  0  0
   37.7830   26.9490   31.5140 C   0  0  0  0  0  0  0  0  0  0  0  0
   37.9580   25.6170   31.8960 C   0  0  0  0  0  0  0  0  0  0  0  0
   36.9080   24.7830   31.8730 N   0  0  0  0  0  0  0  0  0  0  0  0
   35.6790   25.1880   31.4930 C   0  0  0  0  0  0  0  0  0  0  0  0
   35.4720   26.4490   31.1230 N   0  0  0  0  0  0  0  0  0  0  0  0
   39.2080   25.1590   32.3050 N   0  0  0  0  0  0  0  0  0  0  0  0
   40.5210   25.6570   31.8140 C   0  0  0  0  0  0  0  0  0  0  0  0
   41.5710   24.7310   32.2910 C   0  0  0  0  0  0  0  0  0  0  0  0
   40.8240   23.5360   32.6760 C   0  0  0  0  0  0  0  0  0  0  0  0
   39.5930   24.1410   33.2300 C   0  0  2  0  0  0  0  0  0  0  0  0
   36.3810   28.3660   30.8360 H   0  0  0  0  0  0  0  0  0  0  0  0
   38.6420   27.5990   31.5400 H   0  0  0  0  0  0  0  0  0  0  0  0
   34.7890   24.5770   31.4490 H   0  0  0  0  0  0  0  0  0  0  0  0
   40.6680   26.7130   31.8730 H   0  0  0  0  0  0  0  0  0  0  0  0
   40.3600   25.4970   30.6820 H   0  0  0  0  0  0  0  0  0  0  0  0
   42.4510   25.0470   32.7820 H   0  0  0  0  0  0  0  0  0  0  0  0
   42.0720   24.3630   31.2740 H   0  0  0  0  0  0  0  0  0  0  0  0
   40.5900   22.8090   31.8890 H   0  0  0  0  0  0  0  0  0  0  0  0
   41.3780   22.9680   33.4780 H   0  0  0  0  0  0  0  0  0  0  0  0
   38.5320   23.0620   33.4550 C   0  0  0  0  0  0  0  0  0  0  0  0
   38.0900   22.6330   32.2210 F   0  0  0  0  0  0  0  0  0  0  0  0
   37.4300   23.4540   34.1520 F   0  0  0  0  0  0  0  0  0  0  0  0
   39.1830   21.9880   34.0290 F   0  0  0  0  0  0  0  0  0  0  0  0
   39.7930   24.7670   34.5090 C   0  0  2  0  0  0  0  0  0  0  0  0
   40.7180   25.3110   34.5560 H   0  0  0  0  0  0  0  0  0  0  0  0
   40.0560   23.8340   35.7620 C   0  0  0  0  0  0  0  0  0  0  0  0
   41.3520   23.3090   36.0400 C   0  0  0  0  0  0  0  0  0  0  0  0
   42.2820   23.4600   35.4610 H   0  0  0  0  0  0  0  0  0  0  0  0
   41.3440   22.5390   37.1800 C   0  0  0  0  0  0  0  0  0  0  0  0
   42.1620   22.0150   37.6390 H   0  0  0  0  0  0  0  0  0  0  0  0
   40.0240   22.6340   37.5450 C   0  0  0  0  0  0  0  0  0  0  0  0
   39.5420   22.1820   38.3950 H   0  0  0  0  0  0  0  0  0  0  0  0
   39.3230   23.3640   36.7380 O   0  0  0  0  0  0  0  0  0  0  0  0
   38.7120   25.3100   34.8490 O   0  0  0  0  0  0  0  0  0  0  0  0
   38.2640   26.4220   35.4570 C   0  0  0  0  0  0  0  0  0  0  0  0
   37.0920   26.6740   35.1650 O   0  0  0  0  0  0  0  0  0  0  0  0
   38.5240   27.5080   36.3360 N   0  0  0  0  0  0  0  0  0  0  0  0
   38.4200   27.2330   37.3420 H   0  0  0  0  0  0  0  0  0  0  0  0
   38.7850   28.4700   36.0290 H   0  0  0  0  0  0  0  0  0  0  0  0
  1  2  1  0  0  0  0
  2 13  1  0  0  0  0
  2  3  2  0  0  0  0
  3  7  1  0  0  0  0
  4  3  1  0  0  0  0
  5  4  2  0  0  0  0
  6  1  2  0  0  0  0
  6  5  1  0  0  0  0
  7 11  1  0  0  0  0
  8 15  1  0  0  0  0
  8  9  1  0  0  0  0
  8  7  1  0  0  0  0
  9 10  1  0  0  0  0
  9 17  1  0  0  0  0
 10 11  1  0  0  0  0
 10 20  1  0  0  0  0
 11 21  1  1  0  0  0
 11 25  1  0  0  0  0
 12  1  1  0  0  0  0
 14  5  1  0  0  0  0
 16  8  1  0  0  0  0
 18  9  1  0  0  0  0
 19 10  1  0  0  0  0
 21 24  1  0  0  0  0
 21 23  1  0  0  0  0
 22 21  1  0  0  0  0
 25 26  1  6  0  0  0
 25 35  1  0  0  0  0
 25 27  1  0  0  0  0
 27 28  2  0  0  0  0
 27 34  1  0  0  0  0
 28 30  1  0  0  0  0
 29 28  1  0  0  0  0
 30 32  2  0  0  0  0
 30 31  1  0  0  0  0
 32 33  1  0  0  0  0
 34 32  1  0  0  0  0
 35 36  1  0  0  0  0
 36 38  1  0  0  0  0
 37 36  2  0  0  0  0
 38 39  1  0  0  0  0
 40 38  1  0  0  0  0
M  END
>  <minimizedAffinity>
-4.8301363

$$$$

 OpenBabel03272507293D

 40 42  0  0  1  0  0  0  0  0999 V2000
   34.9190   19.7350   31.9220 C   0  0  0  0  0  0  0  0  0  0  0  0
   35.0540   21.1330   32.0280 C   0  0  0  0  0  0  0  0  0  0  0  0
   36.2630   21.6810   31.5950 C   0  0  0  0  0  0  0  0  0  0  0  0
   37.2160   20.8710   31.1090 N   0  0  0  0  0  0  0  0  0  0  0  0
   37.0470   19.5360   31.0250 C   0  0  0  0  0  0  0  0  0  0  0  0
   35.9090   18.9760   31.4270 N   0  0  0  0  0  0  0  0  0  0  0  0
   36.4840   23.0530   31.6740 N   0  0  0  0  0  0  0  0  0  0  0  0
   35.4450   24.1110   31.5460 C   0  0  0  0  0  0  0  0  0  0  0  0
   36.1310   25.4150   31.4190 C   0  0  0  0  0  0  0  0  0  0  0  0
   37.5000   25.0490   31.0670 C   0  0  0  0  0  0  0  0  0  0  0  0
   37.6750   23.8170   31.8680 C   0  0  2  0  0  0  0  0  0  0  0  0
   33.9730   19.3410   32.2660 H   0  0  0  0  0  0  0  0  0  0  0  0
   34.3040   21.8050   32.4140 H   0  0  0  0  0  0  0  0  0  0  0  0
   37.7650   18.8230   30.6470 H   0  0  0  0  0  0  0  0  0  0  0  0
   34.5970   24.0090   32.1880 H   0  0  0  0  0  0  0  0  0  0  0  0
   35.0100   23.8090   30.5200 H   0  0  0  0  0  0  0  0  0  0  0  0
   35.8890   26.2630   32.0010 H   0  0  0  0  0  0  0  0  0  0  0  0
   35.7310   25.8160   30.3690 H   0  0  0  0  0  0  0  0  0  0  0  0
   37.7210   24.8700   30.0070 H   0  0  0  0  0  0  0  0  0  0  0  0
   38.2210   25.8460   31.4100 H   0  0  0  0  0  0  0  0  0  0  0  0
   38.9590   23.0960   31.4490 C   0  0  0  0  0  0  0  0  0  0  0  0
   38.7750   22.6020   30.1740 F   0  0  0  0  0  0  0  0  0  0  0  0
   39.3240   22.0420   32.2290 F   0  0  0  0  0  0  0  0  0  0  0  0
   39.9380   24.0650   31.3530 F   0  0  0  0  0  0  0  0  0  0  0  0
   37.8090   24.0690   33.2760 C   0  0  2  0  0  0  0  0  0  0  0  0
   37.0480   24.7300   33.6460 H   0  0  0  0  0  0  0  0  0  0  0  0
   39.0540   24.9170   33.7680 C   0  0  0  0  0  0  0  0  0  0  0  0
   38.9970   26.3390   33.8580 C   0  0  0  0  0  0  0  0  0  0  0  0
   38.1460   26.9990   33.6090 H   0  0  0  0  0  0  0  0  0  0  0  0
   40.1860   26.8560   34.3160 C   0  0  0  0  0  0  0  0  0  0  0  0
   40.4450   27.8860   34.4870 H   0  0  0  0  0  0  0  0  0  0  0  0
   40.9190   25.7090   34.4850 C   0  0  0  0  0  0  0  0  0  0  0  0
   41.9340   25.6210   34.8350 H   0  0  0  0  0  0  0  0  0  0  0  0
   40.2660   24.6360   34.1720 O   0  0  0  0  0  0  0  0  0  0  0  0
   38.0370   22.9730   33.8470 O   0  0  0  0  0  0  0  0  0  0  0  0
   37.8630   22.3740   35.0380 C   0  0  0  0  0  0  0  0  0  0  0  0
   36.9680   21.5280   35.0090 O   0  0  0  0  0  0  0  0  0  0  0  0
   38.2570   22.2510   36.3980 N   0  0  0  0  0  0  0  0  0  0  0  0
   39.1010   21.6400   36.5100 H   0  0  0  0  0  0  0  0  0  0  0  0
   37.7710   22.7090   37.2000 H   0  0  0  0  0  0  0  0  0  0  0  0
  1  2  1  0  0  0  0
  1 12  1  0  0  0  0
  2 13  1  0  0  0  0
  3  7  1  0  0  0  0
  3  2  2  0  0  0  0
  4  3  1  0  0  0  0
  5  4  2  0  0  0  0
  5  6  1  0  0  0  0
  6  1  2  0  0  0  0
  7 11  1  0  0  0  0
  8  7  1  0  0  0  0
  8 15  1  0  0  0  0
  9  8  1  0  0  0  0
  9 17  1  0  0  0  0
 10 20  1  0  0  0  0
 10  9  1  0  0  0  0
 10 11  1  0  0  0  0
 11 21  1  6  0  0  0
 11 25  1  0  0  0  0
 14  5  1  0  0  0  0
 16  8  1  0  0  0  0
 18  9  1  0  0  0  0
 19 10  1  0  0  0  0
 21 23  1  0  0  0  0
 22 21  1  0  0  0  0
 24 21  1  0  0  0  0
 25 26  1  1  0  0  0
 25 27  1  0  0  0  0
 25 35  1  0  0  0  0
 27 28  2  0  0  0  0
 27 34  1  0  0  0  0
 28 30  1  0  0  0  0
 29 28  1  0  0  0  0
 30 32  2  0  0  0  0
 30 31  1  0  0  0  0
 32 33  1  0  0  0  0
 34 32  1  0  0  0  0
 35 36  1  0  0  0  0
 36 38  1  0  0  0  0
 37 36  2  0  0  0  0
 38 39  1  0  0  0  0
 38 40  1  0  0  0  0
M  END
>  <minimizedAffinity>
-4.81198215

$$$$
