
 OpenBabel03272506433D

 31 33  0  0  1  0  0  0  0  0999 V2000
   32.3770   28.3180   47.5830 C   0  0  2  0  0  0  0  0  0  0  0  0
   33.6490   28.3580   48.3930 C   0  0  1  0  0  0  0  0  0  0  0  0
   34.2130   27.1020   48.3370 O   0  0  0  0  0  0  0  0  0  0  0  0
   33.5390   26.3470   47.3890 C   0  0  0  0  0  0  0  0  0  0  0  0
   32.7890   27.3370   46.5000 C   0  0  1  0  0  0  0  0  0  0  0  0
   31.4970   27.9920   48.1610 H   0  0  0  0  0  0  0  0  0  0  0  0
   33.4620   28.7030   49.4310 H   0  0  0  0  0  0  0  0  0  0  0  0
   34.2380   25.7760   46.7590 H   0  0  0  0  0  0  0  0  0  0  0  0
   32.7860   25.7390   47.9130 H   0  0  0  0  0  0  0  0  0  0  0  0
   33.4470   27.8680   45.8110 H   0  0  0  0  0  0  0  0  0  0  0  0
   32.0970   29.5850   47.0480 O   0  0  0  0  0  0  0  0  0  0  0  0
   31.3360   29.5500   46.4470 H   0  0  0  0  0  0  0  0  0  0  0  0
   34.7880   29.5120   47.5520 S   0  0  0  0  0  0  0  0  0  0  0  0
   37.3850   29.4830   50.5500 C   0  0  0  0  0  0  0  0  0  0  0  0
   37.9900   30.7320   50.5080 C   0  0  0  0  0  0  0  0  0  0  0  0
   37.5910   31.6310   49.5190 C   0  0  0  0  0  0  0  0  0  0  0  0
   36.6210   31.2460   48.6320 N   0  0  0  0  0  0  0  0  0  0  0  0
   36.0580   30.0140   48.7130 C   0  0  0  0  0  0  0  0  0  0  0  0
   36.4280   29.1280   49.6610 N   0  0  0  0  0  0  0  0  0  0  0  0
   37.7350   28.8380   51.3330 H   0  0  0  0  0  0  0  0  0  0  0  0
   38.7580   31.0500   51.2020 H   0  0  0  0  0  0  0  0  0  0  0  0
   37.9970   32.6180   49.4020 H   0  0  0  0  0  0  0  0  0  0  0  0
   31.7150   26.7100   45.8990 O   0  0  0  0  0  0  0  0  0  0  0  0
   31.1360   27.0530   44.6960 C   0  0  0  0  0  0  0  0  0  0  0  0
   29.8710   27.6330   44.7930 C   0  0  0  0  0  0  0  0  0  0  0  0
   29.2090   27.8900   45.6230 H   0  0  0  0  0  0  0  0  0  0  0  0
   29.4470   27.9090   43.4890 C   0  0  0  0  0  0  0  0  0  0  0  0
   28.5470   28.3520   43.0770 H   0  0  0  0  0  0  0  0  0  0  0  0
   30.5110   27.4630   42.7090 C   0  0  0  0  0  0  0  0  0  0  0  0
   30.5310   27.5200   41.6140 H   0  0  0  0  0  0  0  0  0  0  0  0
   31.4740   26.9710   43.4500 O   0  0  0  0  0  0  0  0  0  0  0  0
  1  6  1  1  0  0  0
  1  2  1  0  0  0  0
  2  7  1  1  0  0  0
  3  2  1  0  0  0  0
  4  9  1  0  0  0  0
  4  3  1  0  0  0  0
  5 10  1  6  0  0  0
  5  4  1  0  0  0  0
  5  1  1  0  0  0  0
  8  4  1  0  0  0  0
 11  1  1  0  0  0  0
 12 11  1  0  0  0  0
 13  2  1  0  0  0  0
 13 18  1  0  0  0  0
 14 20  1  0  0  0  0
 15 14  1  0  0  0  0
 15 21  1  0  0  0  0
 16 15  2  0  0  0  0
 17 18  2  0  0  0  0
 17 16  1  0  0  0  0
 18 19  1  0  0  0  0
 19 14  2  0  0  0  0
 22 16  1  0  0  0  0
 23  5  1  0  0  0  0
 24 25  2  0  0  0  0
 24 23  1  0  0  0  0
 25 26  1  0  0  0  0
 27 25  1  0  0  0  0
 28 27  1  0  0  0  0
 29 31  1  0  0  0  0
 29 27  2  0  0  0  0
 30 29  1  0  0  0  0
 31 24  1  0  0  0  0
M  END
>  <minimizedAffinity>
-3.7442565

>  <minimizedRMSD>
0.602855623

$$$$
