
 OpenBabel03272504413D

 44 46  0  0  0  0  0  0  0  0999 V2000
   34.8010   29.3990   48.8290 C   0  0  0  0  0  0  0  0  0  0  0  0
   34.1400   30.2190   49.2430 H   0  0  0  0  0  0  0  0  0  0  0  0
   35.7000   29.4410   49.4780 H   0  0  0  0  0  0  0  0  0  0  0  0
   37.5740   30.4370   48.5120 Cl  0  0  0  0  0  0  0  0  0  0  0  0
   36.4130   30.2910   47.1810 C   0  0  0  0  0  0  0  0  0  0  0  0
   36.7890   30.6670   45.9410 C   0  0  0  0  0  0  0  0  0  0  0  0
   35.8990   30.5590   44.8970 C   0  0  0  0  0  0  0  0  0  0  0  0
   34.6310   30.0630   45.1590 C   0  0  0  0  0  0  0  0  0  0  0  0
   34.3090   29.6920   46.4690 C   0  0  0  0  0  0  0  0  0  0  0  0
   35.1730   29.7930   47.4990 C   0  0  0  0  0  0  0  0  0  0  0  0
   36.2300   30.8700   43.9000 H   0  0  0  0  0  0  0  0  0  0  0  0
   34.0110   30.0170   44.2740 H   0  0  0  0  0  0  0  0  0  0  0  0
   33.3050   29.3530   46.4340 H   0  0  0  0  0  0  0  0  0  0  0  0
   39.7710   32.8390   45.9830 C   0  0  0  0  0  0  0  0  0  0  0  0
   40.6410   32.1060   45.1040 C   0  0  0  0  0  0  0  0  0  0  0  0
   40.1650   30.9160   44.5480 C   0  0  0  0  0  0  0  0  0  0  0  0
   38.9100   30.4900   44.8500 N   0  0  0  0  0  0  0  0  0  0  0  0
   38.1150   31.2030   45.6810 C   0  0  0  0  0  0  0  0  0  0  0  0
   38.5510   32.3510   46.2280 N   0  0  0  0  0  0  0  0  0  0  0  0
   40.1480   33.7460   46.3990 H   0  0  0  0  0  0  0  0  0  0  0  0
   41.6120   32.4830   44.9020 H   0  0  0  0  0  0  0  0  0  0  0  0
   41.0390   30.2230   43.6880 N   0  0  0  0  0  0  0  0  0  0  0  0
   41.6810   30.7470   43.0480 H   0  0  0  0  0  0  0  0  0  0  0  0
   41.1190   29.1970   43.6170 H   0  0  0  0  0  0  0  0  0  0  0  0
   34.1370   28.1090   49.0500 C   0  0  0  0  0  0  0  0  0  0  0  0
   34.5860   27.5120   49.8670 H   0  0  0  0  0  0  0  0  0  0  0  0
   34.2430   27.4830   48.1240 H   0  0  0  0  0  0  0  0  0  0  0  0
   32.8080   28.2630   49.3420 O   0  0  0  0  0  0  0  0  0  0  0  0
   32.6660   26.5580   47.3510 O   0  0  0  0  0  0  0  0  0  0  0  0
   31.8530   27.4380   48.2500 P   0  0  2  0  0  0  0  0  0  0  0  0
   31.0290   28.6310   47.3130 O   0  0  0  0  0  0  0  0  0  0  0  0
   30.5540   28.3450   46.0540 C   0  0  0  0  0  0  0  0  0  0  0  0
   31.0550   28.7210   44.8220 C   0  0  0  0  0  0  0  0  0  0  0  0
   31.9200   29.3130   44.6370 H   0  0  0  0  0  0  0  0  0  0  0  0
   30.2060   28.1730   43.8780 C   0  0  0  0  0  0  0  0  0  0  0  0
   30.3030   28.2700   42.8030 H   0  0  0  0  0  0  0  0  0  0  0  0
   29.2400   27.4980   44.5760 C   0  0  0  0  0  0  0  0  0  0  0  0
   28.3970   26.9380   44.1670 H   0  0  0  0  0  0  0  0  0  0  0  0
   29.4820   27.6240   45.8580 O   0  0  0  0  0  0  0  0  0  0  0  0
   30.6650   26.5320   48.9780 O   0  0  0  0  0  0  0  0  0  0  0  0
   29.8380   27.3340   49.7460 C   0  0  0  0  0  0  0  0  0  0  0  0
   29.2960   26.6570   50.8390 F   0  0  0  0  0  0  0  0  0  0  0  0
   30.5260   28.4030   50.2780 F   0  0  0  0  0  0  0  0  0  0  0  0
   28.7830   27.8000   48.9680 F   0  0  0  0  0  0  0  0  0  0  0  0
  1 25  1  0  0  0  0
  1  2  1  0  0  0  0
  1  3  1  0  0  0  0
  5 10  1  0  0  0  0
  5  4  1  0  0  0  0
  6  5  2  0  0  0  0
  7  8  2  0  0  0  0
  7  6  1  0  0  0  0
  8  9  1  0  0  0  0
  9 10  2  0  0  0  0
 10  1  1  0  0  0  0
 11  7  1  0  0  0  0
 12  8  1  0  0  0  0
 13  9  1  0  0  0  0
 14 19  1  0  0  0  0
 14 20  1  0  0  0  0
 15 14  2  0  0  0  0
 16 17  2  0  0  0  0
 16 15  1  0  0  0  0
 17 18  1  0  0  0  0
 18  6  1  0  0  0  0
 18 19  2  0  0  0  0
 21 15  1  0  0  0  0
 22 16  1  0  0  0  0
 23 22  1  0  0  0  0
 24 22  1  0  0  0  0
 25 28  1  0  0  0  0
 25 26  1  0  0  0  0
 27 25  1  0  0  0  0
 30 29  2  6  0  0  0
 30 40  1  0  0  0  0
 30 28  1  0  0  0  0
 31 30  1  0  0  0  0
 32 31  1  0  0  0  0
 33 32  2  0  0  0  0
 34 33  1  0  0  0  0
 35 37  2  0  0  0  0
 35 33  1  0  0  0  0
 36 35  1  0  0  0  0
 37 39  1  0  0  0  0
 38 37  1  0  0  0  0
 39 32  1  0  0  0  0
 40 41  1  0  0  0  0
 41 43  1  0  0  0  0
 41 42  1  0  0  0  0
 44 41  1  0  0  0  0
M  END
>  <minimizedAffinity>
-5.63338232

>  <minimizedRMSD>
0.157099113

$$$$
