
 OpenBabel03272502313D

 26 27  0  0  1  0  0  0  0  0999 V2000
   37.8420   30.9120   48.7810 C   0  0  2  0  0  0  0  0  0  0  0  0
   38.5820   30.0800   48.9830 H   0  0  0  0  0  0  0  0  0  0  0  0
   38.5800   32.1440   48.5150 C   0  0  0  0  0  0  0  0  0  0  0  0
   39.2210   32.7190   47.4600 C   0  0  0  0  0  0  0  0  0  0  0  0
   39.2850   32.2520   46.5130 H   0  0  0  0  0  0  0  0  0  0  0  0
   39.7210   33.9220   47.8940 C   0  0  0  0  0  0  0  0  0  0  0  0
   40.2920   34.6650   47.3490 H   0  0  0  0  0  0  0  0  0  0  0  0
   39.3730   34.0630   49.2080 C   0  0  0  0  0  0  0  0  0  0  0  0
   39.5550   34.8580   49.9520 H   0  0  0  0  0  0  0  0  0  0  0  0
   38.7140   33.0010   49.5070 O   0  0  0  0  0  0  0  0  0  0  0  0
   35.7080   30.1960   47.9830 C   0  0  0  0  0  0  0  0  0  0  0  0
   36.9250   30.5460   47.6820 C   0  0  0  0  0  0  0  0  0  0  0  0
   34.1490   29.6420   44.6500 C   0  0  0  0  0  0  0  0  0  0  0  0
   35.0630   29.9790   45.6380 C   0  0  0  0  0  0  0  0  0  0  0  0
   34.7270   29.8190   46.9890 C   0  0  0  0  0  0  0  0  0  0  0  0
   33.5080   29.3330   47.2850 N   0  0  0  0  0  0  0  0  0  0  0  0
   32.6400   29.0140   46.3130 C   0  0  0  0  0  0  0  0  0  0  0  0
   32.9420   29.1600   45.0240 N   0  0  0  0  0  0  0  0  0  0  0  0
   34.3780   29.7490   43.6030 H   0  0  0  0  0  0  0  0  0  0  0  0
   35.9920   30.3490   45.2400 H   0  0  0  0  0  0  0  0  0  0  0  0
   31.6530   28.6280   46.5300 H   0  0  0  0  0  0  0  0  0  0  0  0
   36.8160   31.1240   50.2910 S   0  0  0  0  0  0  0  0  0  0  0  0
   36.9800   29.6830   51.3540 C   0  0  0  0  0  0  0  0  0  0  0  0
   37.6560   28.6270   50.7460 F   0  0  0  0  0  0  0  0  0  0  0  0
   37.5300   30.0090   52.5790 F   0  0  0  0  0  0  0  0  0  0  0  0
   35.6680   29.2370   51.6300 F   0  0  0  0  0  0  0  0  0  0  0  0
  1  2  1  1  0  0  0
  1 22  1  0  0  0  0
  3  1  1  0  0  0  0
  3 10  1  0  0  0  0
  4  6  1  0  0  0  0
  4  3  2  0  0  0  0
  5  4  1  0  0  0  0
  6  8  2  0  0  0  0
  7  6  1  0  0  0  0
  8 10  1  0  0  0  0
  8  9  1  0  0  0  0
 12 11  2  0  0  0  0
 12  1  1  0  0  0  0
 13 18  2  0  0  0  0
 13 14  1  0  0  0  0
 14 15  2  0  0  0  0
 15 16  1  0  0  0  0
 15 11  1  0  0  0  0
 17 21  1  0  0  0  0
 17 16  2  0  0  0  0
 18 17  1  0  0  0  0
 19 13  1  0  0  0  0
 20 14  1  0  0  0  0
 22 23  1  0  0  0  0
 23 26  1  0  0  0  0
 23 25  1  0  0  0  0
 24 23  1  0  0  0  0
M  END
>  <minimizedAffinity>
-5.46191216

>  <minimizedRMSD>
4.50878525

$$$$
