
 OpenBabel03272501183D

 29 31  0  0  0  0  0  0  0  0999 V2000
   38.7010   31.9410   47.7710 C   0  0  0  0  0  0  0  0  0  0  0  0
   38.2760   32.1180   49.0730 C   0  0  0  0  0  0  0  0  0  0  0  0
   38.6990   33.3080   49.6780 C   0  0  0  0  0  0  0  0  0  0  0  0
   39.4900   34.2260   48.9960 C   0  0  0  0  0  0  0  0  0  0  0  0
   39.8740   33.9620   47.6800 C   0  0  0  0  0  0  0  0  0  0  0  0
   39.4680   32.7880   47.0550 C   0  0  0  0  0  0  0  0  0  0  0  0
   38.4160   33.5380   50.6960 H   0  0  0  0  0  0  0  0  0  0  0  0
   39.8270   35.1510   49.4470 H   0  0  0  0  0  0  0  0  0  0  0  0
   40.4950   34.6840   47.1430 H   0  0  0  0  0  0  0  0  0  0  0  0
   36.1230   30.9840   49.4200 C   0  0  0  0  0  0  0  0  0  0  0  0
   37.4600   31.1700   49.7750 C   0  0  0  0  0  0  0  0  0  0  0  0
   37.9520   30.3960   50.8350 C   0  0  0  0  0  0  0  0  0  0  0  0
   37.1050   29.5200   51.4450 N   0  0  0  0  0  0  0  0  0  0  0  0
   35.8210   29.3780   51.0650 C   0  0  0  0  0  0  0  0  0  0  0  0
   35.3280   30.1150   50.0460 N   0  0  0  0  0  0  0  0  0  0  0  0
   35.7050   31.5640   48.6080 H   0  0  0  0  0  0  0  0  0  0  0  0
   38.9830   30.5420   51.1040 H   0  0  0  0  0  0  0  0  0  0  0  0
   35.3680   28.6260   51.7020 H   0  0  0  0  0  0  0  0  0  0  0  0
   38.3310   30.7830   47.0810 O   0  0  0  0  0  0  0  0  0  0  0  0
   37.4110   30.7000   46.6260 H   0  0  0  0  0  0  0  0  0  0  0  0
   39.8750   32.5790   45.7560 O   0  0  0  0  0  0  0  0  0  0  0  0
   39.0350   32.6200   44.6510 C   0  0  0  0  0  0  0  0  0  0  0  0
   39.6820   32.8920   43.4460 C   0  0  0  0  0  0  0  0  0  0  0  0
   40.6960   33.0890   43.1190 H   0  0  0  0  0  0  0  0  0  0  0  0
   38.6910   32.8940   42.4580 C   0  0  0  0  0  0  0  0  0  0  0  0
   38.6100   33.0400   41.3900 H   0  0  0  0  0  0  0  0  0  0  0  0
   37.5130   32.6230   43.1330 C   0  0  0  0  0  0  0  0  0  0  0  0
   36.4460   32.4960   42.9290 H   0  0  0  0  0  0  0  0  0  0  0  0
   37.7500   32.4670   44.4160 O   0  0  0  0  0  0  0  0  0  0  0  0
  1  2  1  0  0  0  0
  2  3  2  0  0  0  0
  2 11  1  0  0  0  0
  3  7  1  0  0  0  0
  4  8  1  0  0  0  0
  4  3  1  0  0  0  0
  5  4  2  0  0  0  0
  6  5  1  0  0  0  0
  6  1  2  0  0  0  0
  9  5  1  0  0  0  0
 10 11  2  0  0  0  0
 10 15  1  0  0  0  0
 11 12  1  0  0  0  0
 12 17  1  0  0  0  0
 12 13  2  0  0  0  0
 14 13  1  0  0  0  0
 14 18  1  0  0  0  0
 15 14  2  0  0  0  0
 16 10  1  0  0  0  0
 19  1  1  0  0  0  0
 20 19  1  0  0  0  0
 21  6  1  0  0  0  0
 22 21  1  0  0  0  0
 23 22  2  0  0  0  0
 24 23  1  0  0  0  0
 25 27  2  0  0  0  0
 25 23  1  0  0  0  0
 26 25  1  0  0  0  0
 27 29  1  0  0  0  0
 28 27  1  0  0  0  0
 29 22  1  0  0  0  0
M  END
>  <minimizedAffinity>
-6.1118331

>  <minimizedRMSD>
0.442401528

$$$$
