
 OpenBabel03262520213D

 22 23  0  0  0  0  0  0  0  0999 V2000
   33.8970   27.2590   48.3930 C   0  0  0  0  0  0  0  0  0  0  0  0
   34.1010   28.5470   47.8250 C   0  0  0  0  0  0  0  0  0  0  0  0
   33.4680   28.8090   46.6290 C   0  0  0  0  0  0  0  0  0  0  0  0
   32.6920   27.8020   46.0970 N   0  0  0  0  0  0  0  0  0  0  0  0
   32.5140   26.6080   46.6480 C   0  0  0  0  0  0  0  0  0  0  0  0
   33.1300   26.3510   47.8050 N   0  0  0  0  0  0  0  0  0  0  0  0
   31.6590   25.7090   45.9770 N   0  0  0  0  0  0  0  0  0  0  0  0
   34.3060   26.8730   49.3110 H   0  0  0  0  0  0  0  0  0  0  0  0
   30.7990   25.3990   46.5080 H   0  0  0  0  0  0  0  0  0  0  0  0
   31.9510   25.4290   45.0180 H   0  0  0  0  0  0  0  0  0  0  0  0
   34.9520   29.4260   48.6240 C   0  0  0  0  0  0  0  0  0  0  0  0
   36.1190   29.0020   49.2200 C   0  0  0  0  0  0  0  0  0  0  0  0
   36.6290   28.0160   49.2340 H   0  0  0  0  0  0  0  0  0  0  0  0
   36.7760   29.9700   49.9250 C   0  0  0  0  0  0  0  0  0  0  0  0
   37.6830   29.9900   50.4960 H   0  0  0  0  0  0  0  0  0  0  0  0
   35.9480   31.0400   49.7390 C   0  0  0  0  0  0  0  0  0  0  0  0
   35.9970   32.0790   50.0870 H   0  0  0  0  0  0  0  0  0  0  0  0
   34.9800   30.6440   49.0150 O   0  0  0  0  0  0  0  0  0  0  0  0
   33.6340   30.1180   45.9680 C   0  0  0  0  0  0  0  0  0  0  0  0
   34.9420   30.3410   45.8710 F   0  0  0  0  0  0  0  0  0  0  0  0
   33.0760   30.1750   44.7000 F   0  0  0  0  0  0  0  0  0  0  0  0
   33.0180   31.1490   46.7120 F   0  0  0  0  0  0  0  0  0  0  0  0
  1  8  1  0  0  0  0
  2  1  1  0  0  0  0
  2 11  1  0  0  0  0
  3  2  2  0  0  0  0
  4  3  1  0  0  0  0
  4  5  2  0  0  0  0
  5  6  1  0  0  0  0
  6  1  2  0  0  0  0
  7  9  1  0  0  0  0
  7  5  1  0  0  0  0
 10  7  1  0  0  0  0
 11 18  1  0  0  0  0
 11 12  2  0  0  0  0
 12 13  1  0  0  0  0
 12 14  1  0  0  0  0
 14 15  1  0  0  0  0
 16 14  2  0  0  0  0
 16 17  1  0  0  0  0
 18 16  1  0  0  0  0
 19  3  1  0  0  0  0
 19 22  1  0  0  0  0
 20 19  1  0  0  0  0
 21 19  1  0  0  0  0
M  END
>  <minimizedAffinity>
-3.59808707

>  <minimizedRMSD>
5.43156719

$$$$
