
 OpenBabel03272509353D

 46 50  0  0  1  0  0  0  0  0999 V2000
   36.3320   30.6200   44.7460 C   0  0  1  0  0  0  0  0  0  0  0  0
   37.3130   31.6770   45.0950 C   0  0  0  0  0  0  0  0  0  0  0  0
   37.8900   30.3580   44.9430 C   0  0  2  0  0  0  0  0  0  0  0  0
   36.0410   30.3240   43.7450 H   0  0  0  0  0  0  0  0  0  0  0  0
   37.1810   32.1050   46.1450 H   0  0  0  0  0  0  0  0  0  0  0  0
   37.2100   32.5000   44.3720 H   0  0  0  0  0  0  0  0  0  0  0  0
   37.9960   29.5660   45.6730 H   0  0  0  0  0  0  0  0  0  0  0  0
   38.7120   30.2600   43.6930 C   0  0  0  0  0  0  0  0  0  0  0  0
   39.1670   31.5330   43.3210 C   0  0  0  0  0  0  0  0  0  0  0  0
   40.0370   31.6770   42.2690 C   0  0  0  0  0  0  0  0  0  0  0  0
   40.4890   30.5680   41.5460 C   0  0  0  0  0  0  0  0  0  0  0  0
   40.0190   29.3240   41.9400 C   0  0  0  0  0  0  0  0  0  0  0  0
   40.3710   28.1680   41.3060 C   0  0  0  0  0  0  0  0  0  0  0  0
   39.9010   26.9250   41.6710 C   0  0  0  0  0  0  0  0  0  0  0  0
   39.0240   26.8420   42.7400 C   0  0  0  0  0  0  0  0  0  0  0  0
   38.6680   28.0040   43.3800 C   0  0  0  0  0  0  0  0  0  0  0  0
   39.1650   29.2290   42.9800 C   0  0  0  0  0  0  0  0  0  0  0  0
   39.0320   32.5400   43.6630 H   0  0  0  0  0  0  0  0  0  0  0  0
   40.4840   32.5680   41.8480 H   0  0  0  0  0  0  0  0  0  0  0  0
   41.1710   30.5350   40.7000 H   0  0  0  0  0  0  0  0  0  0  0  0
   41.0550   28.1890   40.4660 H   0  0  0  0  0  0  0  0  0  0  0  0
   40.1630   25.9920   41.1860 H   0  0  0  0  0  0  0  0  0  0  0  0
   38.6150   25.9000   43.0800 H   0  0  0  0  0  0  0  0  0  0  0  0
   37.9690   27.9160   44.2320 H   0  0  0  0  0  0  0  0  0  0  0  0
   33.8610   28.5290   46.6710 C   0  0  0  0  0  0  0  0  0  0  0  0
   34.6330   29.0550   45.5970 C   0  0  0  0  0  0  0  0  0  0  0  0
   35.5310   30.0500   45.8590 C   0  0  0  0  0  0  0  0  0  0  0  0
   35.6160   30.4650   47.1580 N   0  0  0  0  0  0  0  0  0  0  0  0
   34.9010   29.9800   48.1700 C   0  0  0  0  0  0  0  0  0  0  0  0
   33.9990   28.9910   47.9380 N   0  0  0  0  0  0  0  0  0  0  0  0
   33.1760   27.7570   46.4140 H   0  0  0  0  0  0  0  0  0  0  0  0
   34.5230   28.6920   44.6050 H   0  0  0  0  0  0  0  0  0  0  0  0
   35.1460   30.5200   49.5610 C   0  0  0  0  0  0  0  0  0  0  0  0
   34.9730   31.6120   49.4890 H   0  0  0  0  0  0  0  0  0  0  0  0
   34.4790   30.0250   50.2660 H   0  0  0  0  0  0  0  0  0  0  0  0
   36.6150   30.2530   49.8740 C   0  0  0  0  0  0  0  0  0  0  0  0
   36.6900   30.2360   50.9910 H   0  0  0  0  0  0  0  0  0  0  0  0
   36.9170   29.2530   49.4770 H   0  0  0  0  0  0  0  0  0  0  0  0
   37.4760   31.3450   49.3790 C   0  0  0  0  0  0  0  0  0  0  0  0
   38.5740   31.5590   48.5730 C   0  0  0  0  0  0  0  0  0  0  0  0
   39.0140   30.7100   48.1020 H   0  0  0  0  0  0  0  0  0  0  0  0
   38.8640   32.9070   48.5500 C   0  0  0  0  0  0  0  0  0  0  0  0
   39.6830   33.3350   47.9890 H   0  0  0  0  0  0  0  0  0  0  0  0
   37.9050   33.4530   49.3600 C   0  0  0  0  0  0  0  0  0  0  0  0
   37.8740   34.5360   49.5420 H   0  0  0  0  0  0  0  0  0  0  0  0
   37.1000   32.5180   49.8370 O   0  0  0  0  0  0  0  0  0  0  0  0
  1  4  1  6  0  0  0
  1  3  1  0  0  0  0
  1  2  1  0  0  0  0
  1 27  1  0  0  0  0
  2  5  1  0  0  0  0
  3  2  1  0  0  0  0
  3  7  1  1  0  0  0
  6  2  1  0  0  0  0
  8  3  1  0  0  0  0
  9 18  1  0  0  0  0
  9  8  1  0  0  0  0
 10  9  2  0  0  0  0
 11 12  2  0  0  0  0
 11 10  1  0  0  0  0
 12 17  1  0  0  0  0
 13 14  2  0  0  0  0
 13 12  1  0  0  0  0
 14 15  1  0  0  0  0
 15 23  1  0  0  0  0
 15 16  2  0  0  0  0
 16 24  1  0  0  0  0
 17 16  1  0  0  0  0
 17  8  2  0  0  0  0
 19 10  1  0  0  0  0
 20 11  1  0  0  0  0
 21 13  1  0  0  0  0
 22 14  1  0  0  0  0
 25 30  1  0  0  0  0
 26 27  1  0  0  0  0
 26 25  2  0  0  0  0
 27 28  2  0  0  0  0
 28 29  1  0  0  0  0
 29 33  1  0  0  0  0
 30 29  2  0  0  0  0
 31 25  1  0  0  0  0
 32 26  1  0  0  0  0
 33 36  1  0  0  0  0
 33 35  1  0  0  0  0
 34 33  1  0  0  0  0
 36 37  1  0  0  0  0
 38 36  1  0  0  0  0
 39 46  1  0  0  0  0
 39 36  1  0  0  0  0
 40 39  2  0  0  0  0
 41 40  1  0  0  0  0
 42 40  1  0  0  0  0
 42 44  2  0  0  0  0
 43 42  1  0  0  0  0
 44 45  1  0  0  0  0
 44 46  1  0  0  0  0
M  END
>  <minimizedAffinity>
-5.84943533

>  <minimizedRMSD>
2.63906765

$$$$
