
 OpenBabel03272507523D

 31 33  0  0  0  0  0  0  0  0999 V2000
   36.5420   31.2470   48.6830 N   0  0  0  0  0  0  0  0  0  0  0  0
   36.7270   32.1040   49.6810 C   0  0  0  0  0  0  0  0  0  0  0  0
   37.7840   33.0160   49.6320 C   0  0  0  0  0  0  0  0  0  0  0  0
   38.5570   32.9240   48.5080 C   0  0  0  0  0  0  0  0  0  0  0  0
   39.5140   33.7560   48.4750 O   0  0  0  0  0  0  0  0  0  0  0  0
   38.4120   32.0800   47.4800 N   0  0  0  0  0  0  0  0  0  0  0  0
   37.3670   31.2230   47.5910 C   0  0  0  0  0  0  0  0  0  0  0  0
   37.2030   30.4150   46.6380 O   0  0  0  0  0  0  0  0  0  0  0  0
   36.0360   32.0740   50.5220 H   0  0  0  0  0  0  0  0  0  0  0  0
   37.9490   33.7130   50.4240 H   0  0  0  0  0  0  0  0  0  0  0  0
   35.2760   29.5410   49.8390 C   0  0  0  0  0  0  0  0  0  0  0  0
   35.4760   30.2880   48.6720 C   0  0  0  0  0  0  0  0  0  0  0  0
   34.6380   30.0630   47.5770 C   0  0  0  0  0  0  0  0  0  0  0  0
   33.6630   29.1180   47.7050 N   0  0  0  0  0  0  0  0  0  0  0  0
   33.4790   28.4150   48.8110 C   0  0  0  0  0  0  0  0  0  0  0  0
   34.2770   28.6160   49.8820 N   0  0  0  0  0  0  0  0  0  0  0  0
   34.8750   30.6830   46.7450 H   0  0  0  0  0  0  0  0  0  0  0  0
   32.6850   27.6790   48.8450 H   0  0  0  0  0  0  0  0  0  0  0  0
   37.3370   29.1840   51.3950 C   0  0  0  0  0  0  0  0  0  0  0  0
   38.0750   28.5780   50.5920 O   0  0  0  0  0  0  0  0  0  0  0  0
   36.0510   29.6970   51.0180 N   0  0  0  0  0  0  0  0  0  0  0  0
   37.7670   29.2670   52.3540 H   0  0  0  0  0  0  0  0  0  0  0  0
   35.6710   30.2920   51.8050 H   0  0  0  0  0  0  0  0  0  0  0  0
   39.2810   32.0730   46.3540 C   0  0  0  0  0  0  0  0  0  0  0  0
   40.4160   31.3930   45.9540 C   0  0  0  0  0  0  0  0  0  0  0  0
   40.7850   30.6540   46.6540 H   0  0  0  0  0  0  0  0  0  0  0  0
   40.7330   31.9060   44.7180 C   0  0  0  0  0  0  0  0  0  0  0  0
   41.6210   31.4900   44.2210 H   0  0  0  0  0  0  0  0  0  0  0  0
   39.8000   32.8620   44.4100 C   0  0  0  0  0  0  0  0  0  0  0  0
   39.8660   33.3910   43.4780 H   0  0  0  0  0  0  0  0  0  0  0  0
   38.9450   32.9390   45.4070 O   0  0  0  0  0  0  0  0  0  0  0  0
  1  2  1  0  0  0  0
  2  9  1  0  0  0  0
  3  2  2  0  0  0  0
  3 10  1  0  0  0  0
  4  3  1  0  0  0  0
  5  4  2  0  0  0  0
  6  7  1  0  0  0  0
  6  4  1  0  0  0  0
  7  1  1  0  0  0  0
  8  7  2  0  0  0  0
 11 16  1  0  0  0  0
 11 21  1  0  0  0  0
 12  1  1  0  0  0  0
 12 11  2  0  0  0  0
 13 14  2  0  0  0  0
 13 12  1  0  0  0  0
 14 15  1  0  0  0  0
 15 18  1  0  0  0  0
 15 16  2  0  0  0  0
 17 13  1  0  0  0  0
 19 22  1  0  0  0  0
 20 19  2  0  0  0  0
 21 19  1  0  0  0  0
 21 23  1  0  0  0  0
 24  6  1  0  0  0  0
 25 24  2  0  0  0  0
 25 26  1  0  0  0  0
 27 25  1  0  0  0  0
 28 27  1  0  0  0  0
 29 27  2  0  0  0  0
 29 31  1  0  0  0  0
 30 29  1  0  0  0  0
 31 24  1  0  0  0  0
M  END
>  <minimizedAffinity>
-6.21970463

>  <minimizedRMSD>
1.09025884

$$$$
