
 OpenBabel03272509353D

 46 50  0  0  1  0  0  0  0  0999 V2000
   36.3630   30.5370   44.9540 C   0  0  1  0  0  0  0  0  0  0  0  0
   37.3760   31.5060   45.4420 C   0  0  0  0  0  0  0  0  0  0  0  0
   37.8690   30.1530   45.2980 C   0  0  2  0  0  0  0  0  0  0  0  0
   36.1580   30.2940   43.9180 H   0  0  0  0  0  0  0  0  0  0  0  0
   37.1660   31.9100   46.4880 H   0  0  0  0  0  0  0  0  0  0  0  0
   37.4080   32.3560   44.7440 H   0  0  0  0  0  0  0  0  0  0  0  0
   37.8420   29.3320   46.0040 H   0  0  0  0  0  0  0  0  0  0  0  0
   38.8080   30.0310   44.1350 C   0  0  0  0  0  0  0  0  0  0  0  0
   39.5320   31.2230   43.9820 C   0  0  0  0  0  0  0  0  0  0  0  0
   40.5380   31.3060   43.0510 C   0  0  0  0  0  0  0  0  0  0  0  0
   40.8640   30.2150   42.2380 C   0  0  0  0  0  0  0  0  0  0  0  0
   40.1290   29.0540   42.4150 C   0  0  0  0  0  0  0  0  0  0  0  0
   40.3380   27.9270   41.6740 C   0  0  0  0  0  0  0  0  0  0  0  0
   39.6060   26.7690   41.8230 C   0  0  0  0  0  0  0  0  0  0  0  0
   38.6020   26.7450   42.7780 C   0  0  0  0  0  0  0  0  0  0  0  0
   38.3890   27.8770   43.5260 C   0  0  0  0  0  0  0  0  0  0  0  0
   39.1490   29.0150   43.3420 C   0  0  0  0  0  0  0  0  0  0  0  0
   39.5440   32.1920   44.4380 H   0  0  0  0  0  0  0  0  0  0  0  0
   41.1910   32.1310   42.7990 H   0  0  0  0  0  0  0  0  0  0  0  0
   41.6290   30.1410   41.4680 H   0  0  0  0  0  0  0  0  0  0  0  0
   41.1140   27.9040   40.9180 H   0  0  0  0  0  0  0  0  0  0  0  0
   39.7500   25.8620   41.2490 H   0  0  0  0  0  0  0  0  0  0  0  0
   37.9880   25.8710   42.9480 H   0  0  0  0  0  0  0  0  0  0  0  0
   37.5850   27.8360   44.2840 H   0  0  0  0  0  0  0  0  0  0  0  0
   33.5660   28.5750   46.5370 C   0  0  0  0  0  0  0  0  0  0  0  0
   34.4810   29.0730   45.5670 C   0  0  0  0  0  0  0  0  0  0  0  0
   35.4120   29.9950   45.9570 C   0  0  0  0  0  0  0  0  0  0  0  0
   35.3860   30.3660   47.2710 N   0  0  0  0  0  0  0  0  0  0  0  0
   34.5360   29.9060   48.1860 C   0  0  0  0  0  0  0  0  0  0  0  0
   33.5990   28.9900   47.8270 N   0  0  0  0  0  0  0  0  0  0  0  0
   32.8610   27.8600   46.1820 H   0  0  0  0  0  0  0  0  0  0  0  0
   34.4530   28.7470   44.5570 H   0  0  0  0  0  0  0  0  0  0  0  0
   34.6680   30.3880   49.6130 C   0  0  0  0  0  0  0  0  0  0  0  0
   34.4690   31.4770   49.5760 H   0  0  0  0  0  0  0  0  0  0  0  0
   33.9680   29.8450   50.2460 H   0  0  0  0  0  0  0  0  0  0  0  0
   36.1190   30.1440   50.0170 C   0  0  0  0  0  0  0  0  0  0  0  0
   36.1040   30.0010   51.1280 H   0  0  0  0  0  0  0  0  0  0  0  0
   36.5000   29.2090   49.5370 H   0  0  0  0  0  0  0  0  0  0  0  0
   36.9620   31.3190   49.7230 C   0  0  0  0  0  0  0  0  0  0  0  0
   37.0100   32.6800   49.9370 C   0  0  0  0  0  0  0  0  0  0  0  0
   36.2180   33.1210   50.4980 H   0  0  0  0  0  0  0  0  0  0  0  0
   38.1490   33.1910   49.3520 C   0  0  0  0  0  0  0  0  0  0  0  0
   38.4190   34.2380   49.3780 H   0  0  0  0  0  0  0  0  0  0  0  0
   38.7450   32.0890   48.8000 C   0  0  0  0  0  0  0  0  0  0  0  0
   39.6940   32.1790   48.2520 H   0  0  0  0  0  0  0  0  0  0  0  0
   38.0320   31.0000   49.0300 O   0  0  0  0  0  0  0  0  0  0  0  0
  1  4  1  6  0  0  0
  1  3  1  0  0  0  0
  1  2  1  0  0  0  0
  1 27  1  0  0  0  0
  2  5  1  0  0  0  0
  3  2  1  0  0  0  0
  3  7  1  1  0  0  0
  6  2  1  0  0  0  0
  8  3  1  0  0  0  0
  9  8  1  0  0  0  0
  9 18  1  0  0  0  0
 10  9  2  0  0  0  0
 11 12  2  0  0  0  0
 11 10  1  0  0  0  0
 12 17  1  0  0  0  0
 13 14  2  0  0  0  0
 13 12  1  0  0  0  0
 14 15  1  0  0  0  0
 15 23  1  0  0  0  0
 15 16  2  0  0  0  0
 16 24  1  0  0  0  0
 17 16  1  0  0  0  0
 17  8  2  0  0  0  0
 19 10  1  0  0  0  0
 20 11  1  0  0  0  0
 21 13  1  0  0  0  0
 22 14  1  0  0  0  0
 25 30  1  0  0  0  0
 26 27  1  0  0  0  0
 26 25  2  0  0  0  0
 27 28  2  0  0  0  0
 28 29  1  0  0  0  0
 29 33  1  0  0  0  0
 30 29  2  0  0  0  0
 31 25  1  0  0  0  0
 32 26  1  0  0  0  0
 33 36  1  0  0  0  0
 33 35  1  0  0  0  0
 34 33  1  0  0  0  0
 36 37  1  0  0  0  0
 38 36  1  0  0  0  0
 39 40  2  0  0  0  0
 39 36  1  0  0  0  0
 40 41  1  0  0  0  0
 42 43  1  0  0  0  0
 42 40  1  0  0  0  0
 44 46  1  0  0  0  0
 44 42  2  0  0  0  0
 45 44  1  0  0  0  0
 46 39  1  0  0  0  0
M  END
>  <minimizedAffinity>
-5.74844646

>  <minimizedRMSD>
2.42665744

$$$$
