
 OpenBabel03272506433D

 31 33  0  0  1  0  0  0  0  0999 V2000
   32.4080   28.3500   47.5190 C   0  0  2  0  0  0  0  0  0  0  0  0
   33.6460   28.4260   48.3770 C   0  0  1  0  0  0  0  0  0  0  0  0
   34.2150   27.1710   48.3910 O   0  0  0  0  0  0  0  0  0  0  0  0
   33.5810   26.3780   47.4470 C   0  0  0  0  0  0  0  0  0  0  0  0
   32.8650   27.3310   46.4920 C   0  0  1  0  0  0  0  0  0  0  0  0
   31.5070   28.0440   48.0740 H   0  0  0  0  0  0  0  0  0  0  0  0
   33.4180   28.8090   49.3930 H   0  0  0  0  0  0  0  0  0  0  0  0
   34.3060   25.7860   46.8670 H   0  0  0  0  0  0  0  0  0  0  0  0
   32.8100   25.7870   47.9630 H   0  0  0  0  0  0  0  0  0  0  0  0
   33.5480   27.8380   45.8090 H   0  0  0  0  0  0  0  0  0  0  0  0
   32.1470   29.5950   46.9260 O   0  0  0  0  0  0  0  0  0  0  0  0
   31.4110   29.5350   46.2970 H   0  0  0  0  0  0  0  0  0  0  0  0
   34.8160   29.5510   47.5380 S   0  0  0  0  0  0  0  0  0  0  0  0
   37.3970   29.4930   50.5490 C   0  0  0  0  0  0  0  0  0  0  0  0
   38.0090   30.7390   50.5180 C   0  0  0  0  0  0  0  0  0  0  0  0
   37.6180   31.6450   49.5320 C   0  0  0  0  0  0  0  0  0  0  0  0
   36.6510   31.2710   48.6380 N   0  0  0  0  0  0  0  0  0  0  0  0
   36.0820   30.0410   48.7090 C   0  0  0  0  0  0  0  0  0  0  0  0
   36.4440   29.1470   49.6530 N   0  0  0  0  0  0  0  0  0  0  0  0
   37.7410   28.8410   51.3300 H   0  0  0  0  0  0  0  0  0  0  0  0
   38.7740   31.0490   51.2170 H   0  0  0  0  0  0  0  0  0  0  0  0
   38.0290   32.6310   49.4230 H   0  0  0  0  0  0  0  0  0  0  0  0
   31.8170   26.6770   45.8730 O   0  0  0  0  0  0  0  0  0  0  0  0
   31.3600   26.8950   44.5910 C   0  0  0  0  0  0  0  0  0  0  0  0
   32.1490   27.7500   43.8200 C   0  0  0  0  0  0  0  0  0  0  0  0
   33.0720   28.3060   43.9970 H   0  0  0  0  0  0  0  0  0  0  0  0
   31.5380   27.8500   42.5660 C   0  0  0  0  0  0  0  0  0  0  0  0
   31.7850   28.3910   41.6590 H   0  0  0  0  0  0  0  0  0  0  0  0
   30.4170   27.0330   42.6940 C   0  0  0  0  0  0  0  0  0  0  0  0
   29.6880   26.8670   41.8910 H   0  0  0  0  0  0  0  0  0  0  0  0
   30.3510   26.4960   43.8880 O   0  0  0  0  0  0  0  0  0  0  0  0
  1  6  1  1  0  0  0
  1  2  1  0  0  0  0
  2  3  1  0  0  0  0
  2  7  1  1  0  0  0
  4  9  1  0  0  0  0
  4  3  1  0  0  0  0
  5 10  1  6  0  0  0
  5  4  1  0  0  0  0
  5  1  1  0  0  0  0
  8  4  1  0  0  0  0
 11  1  1  0  0  0  0
 12 11  1  0  0  0  0
 13  2  1  0  0  0  0
 13 18  1  0  0  0  0
 14 20  1  0  0  0  0
 15 14  1  0  0  0  0
 15 21  1  0  0  0  0
 16 15  2  0  0  0  0
 17 18  2  0  0  0  0
 17 16  1  0  0  0  0
 18 19  1  0  0  0  0
 19 14  2  0  0  0  0
 22 16  1  0  0  0  0
 23  5  1  0  0  0  0
 24 23  1  0  0  0  0
 25 26  1  0  0  0  0
 25 24  2  0  0  0  0
 27 29  2  0  0  0  0
 27 25  1  0  0  0  0
 28 27  1  0  0  0  0
 29 31  1  0  0  0  0
 30 29  1  0  0  0  0
 31 24  1  0  0  0  0
M  END
>  <minimizedAffinity>
-3.71422505

>  <minimizedRMSD>
0.553363979

$$$$
