
 OpenBabel03272500133D

 20 21  0  0  0  0  0  0  0  0999 V2000
   37.0770   21.8350   32.7920 C   0  0  0  0  0  0  0  0  0  0  0  0
   35.9510   21.0090   32.9480 C   0  0  0  0  0  0  0  0  0  0  0  0
   35.5660   20.6350   34.2400 C   0  0  0  0  0  0  0  0  0  0  0  0
   36.3020   21.0910   35.2940 N   0  0  0  0  0  0  0  0  0  0  0  0
   37.3820   21.8870   35.1080 C   0  0  0  0  0  0  0  0  0  0  0  0
   37.7640   22.2530   33.8820 N   0  0  0  0  0  0  0  0  0  0  0  0
   37.3630   22.1160   31.7960 H   0  0  0  0  0  0  0  0  0  0  0  0
   34.7160   20.0110   34.3590 H   0  0  0  0  0  0  0  0  0  0  0  0
   38.1950   22.3950   36.2080 C   0  0  0  0  0  0  0  0  0  0  0  0
   37.7440   23.1980   37.2360 C   0  0  0  0  0  0  0  0  0  0  0  0
   36.7590   23.5860   37.4180 H   0  0  0  0  0  0  0  0  0  0  0  0
   38.8410   23.4330   38.0400 C   0  0  0  0  0  0  0  0  0  0  0  0
   38.9470   24.0090   38.9510 H   0  0  0  0  0  0  0  0  0  0  0  0
   39.9100   22.7690   37.4730 C   0  0  0  0  0  0  0  0  0  0  0  0
   40.9560   22.6630   37.7410 H   0  0  0  0  0  0  0  0  0  0  0  0
   39.4680   22.1750   36.3960 O   0  0  0  0  0  0  0  0  0  0  0  0
   35.2180   20.5670   31.7200 C   0  0  0  0  0  0  0  0  0  0  0  0
   35.1670   21.6130   30.7770 F   0  0  0  0  0  0  0  0  0  0  0  0
   35.9190   19.5410   31.1440 F   0  0  0  0  0  0  0  0  0  0  0  0
   33.9280   20.1790   31.9780 F   0  0  0  0  0  0  0  0  0  0  0  0
  1  2  2  0  0  0  0
  1  6  1  0  0  0  0
  2  3  1  0  0  0  0
  3  8  1  0  0  0  0
  3  4  2  0  0  0  0
  5  4  1  0  0  0  0
  5  9  1  0  0  0  0
  6  5  2  0  0  0  0
  7  1  1  0  0  0  0
  9 16  1  0  0  0  0
  9 10  2  0  0  0  0
 10 11  1  0  0  0  0
 10 12  1  0  0  0  0
 12 13  1  0  0  0  0
 14 15  1  0  0  0  0
 14 12  2  0  0  0  0
 16 14  1  0  0  0  0
 17 20  1  0  0  0  0
 17  2  1  0  0  0  0
 18 17  1  0  0  0  0
 19 17  1  0  0  0  0
M  END
>  <minimizedAffinity>
-4.67346954

$$$$

 OpenBabel03272500133D

 20 21  0  0  0  0  0  0  0  0999 V2000
   38.2290   22.9030   36.1260 C   0  0  0  0  0  0  0  0  0  0  0  0
   38.2370   24.0170   36.9820 C   0  0  0  0  0  0  0  0  0  0  0  0
   38.1490   25.2960   36.4210 C   0  0  0  0  0  0  0  0  0  0  0  0
   38.0590   25.4040   35.0650 N   0  0  0  0  0  0  0  0  0  0  0  0
   38.0540   24.3080   34.2680 C   0  0  0  0  0  0  0  0  0  0  0  0
   38.1380   23.0810   34.7860 N   0  0  0  0  0  0  0  0  0  0  0  0
   38.2980   21.9250   36.5670 H   0  0  0  0  0  0  0  0  0  0  0  0
   38.1540   26.1380   37.0660 H   0  0  0  0  0  0  0  0  0  0  0  0
   37.9590   24.3820   32.8130 C   0  0  0  0  0  0  0  0  0  0  0  0
   37.2320   23.5250   32.0120 C   0  0  0  0  0  0  0  0  0  0  0  0
   36.6270   22.6810   32.2870 H   0  0  0  0  0  0  0  0  0  0  0  0
   37.4270   23.9630   30.7170 C   0  0  0  0  0  0  0  0  0  0  0  0
   37.0500   23.5890   29.7740 H   0  0  0  0  0  0  0  0  0  0  0  0
   38.2600   25.0620   30.7830 C   0  0  0  0  0  0  0  0  0  0  0  0
   38.6840   25.7280   30.0380 H   0  0  0  0  0  0  0  0  0  0  0  0
   38.5400   25.2610   32.0440 O   0  0  0  0  0  0  0  0  0  0  0  0
   38.3410   23.7800   38.4570 C   0  0  0  0  0  0  0  0  0  0  0  0
   39.6490   23.3840   38.7990 F   0  0  0  0  0  0  0  0  0  0  0  0
   38.0970   24.9630   39.1030 F   0  0  0  0  0  0  0  0  0  0  0  0
   37.4840   22.8070   38.9020 F   0  0  0  0  0  0  0  0  0  0  0  0
  1  7  1  0  0  0  0
  1  2  1  0  0  0  0
  2 17  1  0  0  0  0
  3  2  2  0  0  0  0
  3  8  1  0  0  0  0
  4  3  1  0  0  0  0
  5  6  1  0  0  0  0
  5  4  2  0  0  0  0
  6  1  2  0  0  0  0
  9  5  1  0  0  0  0
 10 11  1  0  0  0  0
 10  9  2  0  0  0  0
 12 14  2  0  0  0  0
 12 10  1  0  0  0  0
 13 12  1  0  0  0  0
 14 16  1  0  0  0  0
 15 14  1  0  0  0  0
 16  9  1  0  0  0  0
 17 18  1  0  0  0  0
 17 20  1  0  0  0  0
 17 19  1  0  0  0  0
M  END
>  <minimizedAffinity>
-4.55323839

$$$$

 OpenBabel03272500133D

 20 21  0  0  0  0  0  0  0  0999 V2000
   38.1400   25.1050   36.3220 C   0  0  0  0  0  0  0  0  0  0  0  0
   38.1550   23.8390   36.9330 C   0  0  0  0  0  0  0  0  0  0  0  0
   38.1110   22.7020   36.1200 C   0  0  0  0  0  0  0  0  0  0  0  0
   38.0550   22.8710   34.7680 N   0  0  0  0  0  0  0  0  0  0  0  0
   38.0420   24.1070   34.2120 C   0  0  0  0  0  0  0  0  0  0  0  0
   38.0830   25.2040   34.9720 N   0  0  0  0  0  0  0  0  0  0  0  0
   38.1740   25.9730   36.9550 H   0  0  0  0  0  0  0  0  0  0  0  0
   38.1220   21.7460   36.5800 H   0  0  0  0  0  0  0  0  0  0  0  0
   37.9830   24.3310   32.7710 C   0  0  0  0  0  0  0  0  0  0  0  0
   37.4530   23.4560   31.8440 C   0  0  0  0  0  0  0  0  0  0  0  0
   37.0040   22.4920   31.9930 H   0  0  0  0  0  0  0  0  0  0  0  0
   37.6070   24.0700   30.6170 C   0  0  0  0  0  0  0  0  0  0  0  0
   37.3360   23.7470   29.6200 H   0  0  0  0  0  0  0  0  0  0  0  0
   38.2210   25.2850   30.8450 C   0  0  0  0  0  0  0  0  0  0  0  0
   38.5400   26.0980   30.2000 H   0  0  0  0  0  0  0  0  0  0  0  0
   38.4180   25.3830   32.1330 O   0  0  0  0  0  0  0  0  0  0  0  0
   38.2170   23.7720   38.4270 C   0  0  0  0  0  0  0  0  0  0  0  0
   37.3160   22.8030   38.9120 F   0  0  0  0  0  0  0  0  0  0  0  0
   39.4750   23.3680   38.7890 F   0  0  0  0  0  0  0  0  0  0  0  0
   37.9060   24.9640   39.0280 F   0  0  0  0  0  0  0  0  0  0  0  0
  1  2  1  0  0  0  0
  1  7  1  0  0  0  0
  2 17  1  0  0  0  0
  3  8  1  0  0  0  0
  3  2  2  0  0  0  0
  4  3  1  0  0  0  0
  5  4  2  0  0  0  0
  5  6  1  0  0  0  0
  6  1  2  0  0  0  0
  9  5  1  0  0  0  0
 10 11  1  0  0  0  0
 10  9  2  0  0  0  0
 12 14  2  0  0  0  0
 12 10  1  0  0  0  0
 13 12  1  0  0  0  0
 14 16  1  0  0  0  0
 15 14  1  0  0  0  0
 16  9  1  0  0  0  0
 17 19  1  0  0  0  0
 17 18  1  0  0  0  0
 17 20  1  0  0  0  0
M  END
>  <minimizedAffinity>
-4.5395751

$$$$

 OpenBabel03272500133D

 20 21  0  0  0  0  0  0  0  0999 V2000
   37.3460   27.4190   34.9270 C   0  0  0  0  0  0  0  0  0  0  0  0
   37.1650   27.0260   33.5900 C   0  0  0  0  0  0  0  0  0  0  0  0
   37.4490   25.7040   33.2340 C   0  0  0  0  0  0  0  0  0  0  0  0
   37.8890   24.8510   34.2030 N   0  0  0  0  0  0  0  0  0  0  0  0
   38.0520   25.2630   35.4840 C   0  0  0  0  0  0  0  0  0  0  0  0
   37.7870   26.5210   35.8410 N   0  0  0  0  0  0  0  0  0  0  0  0
   37.1240   28.4370   35.1900 H   0  0  0  0  0  0  0  0  0  0  0  0
   37.3120   25.4060   32.2250 H   0  0  0  0  0  0  0  0  0  0  0  0
   38.5210   24.3820   36.5490 C   0  0  0  0  0  0  0  0  0  0  0  0
   37.9960   24.3150   37.8240 C   0  0  0  0  0  0  0  0  0  0  0  0
   37.1840   24.8670   38.2580 H   0  0  0  0  0  0  0  0  0  0  0  0
   38.7390   23.3580   38.4870 C   0  0  0  0  0  0  0  0  0  0  0  0
   38.6760   22.9830   39.5010 H   0  0  0  0  0  0  0  0  0  0  0  0
   39.6800   22.8850   37.5940 C   0  0  0  0  0  0  0  0  0  0  0  0
   40.4680   22.1420   37.6590 H   0  0  0  0  0  0  0  0  0  0  0  0
   39.5020   23.5260   36.4700 O   0  0  0  0  0  0  0  0  0  0  0  0
   36.6770   28.0470   32.6100 C   0  0  0  0  0  0  0  0  0  0  0  0
   36.2730   29.2180   33.2810 F   0  0  0  0  0  0  0  0  0  0  0  0
   37.7200   28.3930   31.7910 F   0  0  0  0  0  0  0  0  0  0  0  0
   35.6110   27.6080   31.8670 F   0  0  0  0  0  0  0  0  0  0  0  0
  1  7  1  0  0  0  0
  1  6  1  0  0  0  0
  2  1  2  0  0  0  0
  3  2  1  0  0  0  0
  3  4  2  0  0  0  0
  4  5  1  0  0  0  0
  5  6  2  0  0  0  0
  5  9  1  0  0  0  0
  8  3  1  0  0  0  0
  9 10  2  0  0  0  0
 10 11  1  0  0  0  0
 10 12  1  0  0  0  0
 12 13  1  0  0  0  0
 14 15  1  0  0  0  0
 14 12  2  0  0  0  0
 16  9  1  0  0  0  0
 16 14  1  0  0  0  0
 17 18  1  0  0  0  0
 17  2  1  0  0  0  0
 19 17  1  0  0  0  0
 20 17  1  0  0  0  0
M  END
>  <minimizedAffinity>
-4.50516939

$$$$

 OpenBabel03272500133D

 20 21  0  0  0  0  0  0  0  0999 V2000
   38.1850   25.6780   36.6230 C   0  0  0  0  0  0  0  0  0  0  0  0
   38.1790   24.3010   36.9020 C   0  0  0  0  0  0  0  0  0  0  0  0
   38.1620   23.3990   35.8330 C   0  0  0  0  0  0  0  0  0  0  0  0
   38.1530   23.8980   34.5640 N   0  0  0  0  0  0  0  0  0  0  0  0
   38.1610   25.2320   34.3300 C   0  0  0  0  0  0  0  0  0  0  0  0
   38.1760   26.1070   35.3380 N   0  0  0  0  0  0  0  0  0  0  0  0
   38.1980   26.3620   37.4520 H   0  0  0  0  0  0  0  0  0  0  0  0
   38.1570   22.3590   36.0430 H   0  0  0  0  0  0  0  0  0  0  0  0
   38.1520   25.8050   32.9880 C   0  0  0  0  0  0  0  0  0  0  0  0
   38.1700   27.1530   32.6910 C   0  0  0  0  0  0  0  0  0  0  0  0
   38.1920   27.9980   33.3520 H   0  0  0  0  0  0  0  0  0  0  0  0
   38.1530   27.2350   31.3120 C   0  0  0  0  0  0  0  0  0  0  0  0
   38.1570   28.0900   30.6490 H   0  0  0  0  0  0  0  0  0  0  0  0
   38.1250   25.9420   30.8300 C   0  0  0  0  0  0  0  0  0  0  0  0
   38.1040   25.5130   29.8330 H   0  0  0  0  0  0  0  0  0  0  0  0
   38.1260   25.1430   31.8640 O   0  0  0  0  0  0  0  0  0  0  0  0
   38.1890   23.8660   38.3350 C   0  0  0  0  0  0  0  0  0  0  0  0
   39.4550   23.3560   38.6840 F   0  0  0  0  0  0  0  0  0  0  0  0
   37.9690   24.9670   39.1210 F   0  0  0  0  0  0  0  0  0  0  0  0
   37.2610   22.8930   38.6040 F   0  0  0  0  0  0  0  0  0  0  0  0
  1  2  1  0  0  0  0
  1  7  1  0  0  0  0
  2 17  1  0  0  0  0
  3  8  1  0  0  0  0
  3  2  2  0  0  0  0
  4  3  1  0  0  0  0
  5  4  2  0  0  0  0
  5  6  1  0  0  0  0
  6  1  2  0  0  0  0
  9  5  1  0  0  0  0
 10  9  2  0  0  0  0
 10 11  1  0  0  0  0
 12 10  1  0  0  0  0
 13 12  1  0  0  0  0
 14 12  2  0  0  0  0
 14 16  1  0  0  0  0
 15 14  1  0  0  0  0
 16  9  1  0  0  0  0
 17 20  1  0  0  0  0
 17 18  1  0  0  0  0
 17 19  1  0  0  0  0
M  END
>  <minimizedAffinity>
-4.48326778

$$$$

 OpenBabel03272500133D

 20 21  0  0  0  0  0  0  0  0999 V2000
   38.1620   23.8170   35.6260 C   0  0  0  0  0  0  0  0  0  0  0  0
   38.1970   24.5900   36.8000 C   0  0  0  0  0  0  0  0  0  0  0  0
   38.1540   25.9830   36.6880 C   0  0  0  0  0  0  0  0  0  0  0  0
   38.0790   26.5320   35.4420 N   0  0  0  0  0  0  0  0  0  0  0  0
   38.0450   25.7580   34.3310 C   0  0  0  0  0  0  0  0  0  0  0  0
   38.0870   24.4270   34.4180 N   0  0  0  0  0  0  0  0  0  0  0  0
   38.1950   22.7480   35.7230 H   0  0  0  0  0  0  0  0  0  0  0  0
   38.1810   26.5670   37.5730 H   0  0  0  0  0  0  0  0  0  0  0  0
   37.9650   26.3060   32.9800 C   0  0  0  0  0  0  0  0  0  0  0  0
   38.8620   27.1920   32.4190 C   0  0  0  0  0  0  0  0  0  0  0  0
   39.7470   27.6290   32.8430 H   0  0  0  0  0  0  0  0  0  0  0  0
   38.4000   27.4380   31.1410 C   0  0  0  0  0  0  0  0  0  0  0  0
   38.7890   28.0680   30.3520 H   0  0  0  0  0  0  0  0  0  0  0  0
   37.2470   26.6960   30.9780 C   0  0  0  0  0  0  0  0  0  0  0  0
   36.5470   26.5680   30.1580 H   0  0  0  0  0  0  0  0  0  0  0  0
   37.0420   26.0500   32.0950 O   0  0  0  0  0  0  0  0  0  0  0  0
   38.2810   23.8800   38.1150 C   0  0  0  0  0  0  0  0  0  0  0  0
   38.0790   24.7850   39.1750 F   0  0  0  0  0  0  0  0  0  0  0  0
   37.2670   22.9600   38.1740 F   0  0  0  0  0  0  0  0  0  0  0  0
   39.4920   23.2700   38.3160 F   0  0  0  0  0  0  0  0  0  0  0  0
  1  7  1  0  0  0  0
  1  2  1  0  0  0  0
  2 17  1  0  0  0  0
  3  2  2  0  0  0  0
  3  8  1  0  0  0  0
  4  3  1  0  0  0  0
  5  6  1  0  0  0  0
  5  4  2  0  0  0  0
  6  1  2  0  0  0  0
  9  5  1  0  0  0  0
 10 11  1  0  0  0  0
 10  9  2  0  0  0  0
 12 10  1  0  0  0  0
 13 12  1  0  0  0  0
 14 12  2  0  0  0  0
 14 16  1  0  0  0  0
 15 14  1  0  0  0  0
 16  9  1  0  0  0  0
 17 19  1  0  0  0  0
 17 20  1  0  0  0  0
 17 18  1  0  0  0  0
M  END
>  <minimizedAffinity>
-4.32535887

$$$$

 OpenBabel03272500133D

 20 21  0  0  0  0  0  0  0  0999 V2000
   38.3860   22.2920   36.4560 C   0  0  0  0  0  0  0  0  0  0  0  0
   39.7610   22.3110   36.1660 C   0  0  0  0  0  0  0  0  0  0  0  0
   40.1710   22.1080   34.8440 C   0  0  0  0  0  0  0  0  0  0  0  0
   39.2160   21.9010   33.8930 N   0  0  0  0  0  0  0  0  0  0  0  0
   37.8980   21.8890   34.2070 C   0  0  0  0  0  0  0  0  0  0  0  0
   37.4890   22.0800   35.4630 N   0  0  0  0  0  0  0  0  0  0  0  0
   38.0820   22.4490   37.4750 H   0  0  0  0  0  0  0  0  0  0  0  0
   41.2090   22.1220   34.6240 H   0  0  0  0  0  0  0  0  0  0  0  0
   36.8460   21.6710   33.2190 C   0  0  0  0  0  0  0  0  0  0  0  0
   35.7160   20.9000   33.4070 C   0  0  0  0  0  0  0  0  0  0  0  0
   35.4070   20.3400   34.2690 H   0  0  0  0  0  0  0  0  0  0  0  0
   35.0080   20.9760   32.2240 C   0  0  0  0  0  0  0  0  0  0  0  0
   34.0680   20.5290   31.9260 H   0  0  0  0  0  0  0  0  0  0  0  0
   35.7310   21.7850   31.3700 C   0  0  0  0  0  0  0  0  0  0  0  0
   35.5770   22.1290   30.3520 H   0  0  0  0  0  0  0  0  0  0  0  0
   36.8040   22.1640   32.0120 O   0  0  0  0  0  0  0  0  0  0  0  0
   40.7210   22.5470   37.2900 C   0  0  0  0  0  0  0  0  0  0  0  0
   40.0700   23.1810   38.3660 F   0  0  0  0  0  0  0  0  0  0  0  0
   41.1590   21.3310   37.7460 F   0  0  0  0  0  0  0  0  0  0  0  0
   41.7840   23.3330   36.9280 F   0  0  0  0  0  0  0  0  0  0  0  0
  1  7  1  0  0  0  0
  2  1  1  0  0  0  0
  2 17  1  0  0  0  0
  3  2  2  0  0  0  0
  4  5  2  0  0  0  0
  4  3  1  0  0  0  0
  5  6  1  0  0  0  0
  6  1  2  0  0  0  0
  8  3  1  0  0  0  0
  9 10  2  0  0  0  0
  9  5  1  0  0  0  0
 10 11  1  0  0  0  0
 12 10  1  0  0  0  0
 13 12  1  0  0  0  0
 14 16  1  0  0  0  0
 14 12  2  0  0  0  0
 15 14  1  0  0  0  0
 16  9  1  0  0  0  0
 17 19  1  0  0  0  0
 17 18  1  0  0  0  0
 20 17  1  0  0  0  0
M  END
>  <minimizedAffinity>
-4.31149483

$$$$

 OpenBabel03272500133D

 20 21  0  0  0  0  0  0  0  0999 V2000
   38.4140   24.5150   34.9830 C   0  0  0  0  0  0  0  0  0  0  0  0
   38.0910   25.8570   34.7160 C   0  0  0  0  0  0  0  0  0  0  0  0
   37.3760   26.1560   33.5520 C   0  0  0  0  0  0  0  0  0  0  0  0
   37.0240   25.1310   32.7250 N   0  0  0  0  0  0  0  0  0  0  0  0
   37.3510   23.8480   33.0130 C   0  0  0  0  0  0  0  0  0  0  0  0
   38.0340   23.5440   34.1200 N   0  0  0  0  0  0  0  0  0  0  0  0
   38.9640   24.2960   35.8810 H   0  0  0  0  0  0  0  0  0  0  0  0
   37.1310   27.1680   33.3500 H   0  0  0  0  0  0  0  0  0  0  0  0
   36.9930   22.7230   32.1550 C   0  0  0  0  0  0  0  0  0  0  0  0
   35.7080   22.2960   31.8870 C   0  0  0  0  0  0  0  0  0  0  0  0
   34.7710   22.6860   32.2370 H   0  0  0  0  0  0  0  0  0  0  0  0
   35.8400   21.2150   31.0380 C   0  0  0  0  0  0  0  0  0  0  0  0
   35.0980   20.5750   30.5780 H   0  0  0  0  0  0  0  0  0  0  0  0
   37.1910   21.0280   30.8270 C   0  0  0  0  0  0  0  0  0  0  0  0
   37.7690   20.3170   30.2440 H   0  0  0  0  0  0  0  0  0  0  0  0
   37.8200   21.9470   31.5110 O   0  0  0  0  0  0  0  0  0  0  0  0
   38.5300   26.9020   35.6950 C   0  0  0  0  0  0  0  0  0  0  0  0
   37.7800   28.0810   35.5220 F   0  0  0  0  0  0  0  0  0  0  0  0
   38.2730   26.4440   36.9600 F   0  0  0  0  0  0  0  0  0  0  0  0
   39.8550   27.2310   35.5650 F   0  0  0  0  0  0  0  0  0  0  0  0
  1  7  1  0  0  0  0
  2  1  1  0  0  0  0
  2 17  1  0  0  0  0
  3  2  2  0  0  0  0
  4  5  2  0  0  0  0
  4  3  1  0  0  0  0
  5  6  1  0  0  0  0
  6  1  2  0  0  0  0
  8  3  1  0  0  0  0
  9  5  1  0  0  0  0
 10  9  2  0  0  0  0
 10 11  1  0  0  0  0
 12 10  1  0  0  0  0
 13 12  1  0  0  0  0
 14 12  2  0  0  0  0
 14 16  1  0  0  0  0
 15 14  1  0  0  0  0
 16  9  1  0  0  0  0
 17 19  1  0  0  0  0
 18 17  1  0  0  0  0
 20 17  1  0  0  0  0
M  END
>  <minimizedAffinity>
-4.21718311

$$$$

 OpenBabel03272500133D

 20 21  0  0  0  0  0  0  0  0999 V2000
   38.3390   24.3610   36.6770 C   0  0  0  0  0  0  0  0  0  0  0  0
   39.5730   23.8610   36.2260 C   0  0  0  0  0  0  0  0  0  0  0  0
   40.0820   24.3270   35.0100 C   0  0  0  0  0  0  0  0  0  0  0  0
   39.3570   25.2480   34.3130 N   0  0  0  0  0  0  0  0  0  0  0  0
   38.1710   25.7100   34.7770 C   0  0  0  0  0  0  0  0  0  0  0  0
   37.6690   25.2760   35.9360 N   0  0  0  0  0  0  0  0  0  0  0  0
   37.9570   23.9960   37.6130 H   0  0  0  0  0  0  0  0  0  0  0  0
   41.0130   23.9500   34.6690 H   0  0  0  0  0  0  0  0  0  0  0  0
   37.3660   26.6950   34.0630 C   0  0  0  0  0  0  0  0  0  0  0  0
   36.8610   27.8610   34.6010 C   0  0  0  0  0  0  0  0  0  0  0  0
   36.9550   28.2510   35.5970 H   0  0  0  0  0  0  0  0  0  0  0  0
   36.1690   28.4800   33.5780 C   0  0  0  0  0  0  0  0  0  0  0  0
   35.6170   29.4100   33.5510 H   0  0  0  0  0  0  0  0  0  0  0  0
   36.2810   27.6690   32.4660 C   0  0  0  0  0  0  0  0  0  0  0  0
   35.9110   27.7380   31.4480 H   0  0  0  0  0  0  0  0  0  0  0  0
   36.9970   26.6330   32.8130 O   0  0  0  0  0  0  0  0  0  0  0  0
   40.2820   22.8500   37.0730 C   0  0  0  0  0  0  0  0  0  0  0  0
   39.8430   22.9350   38.4090 F   0  0  0  0  0  0  0  0  0  0  0  0
   39.9510   21.6000   36.6210 F   0  0  0  0  0  0  0  0  0  0  0  0
   41.6430   23.0140   37.0730 F   0  0  0  0  0  0  0  0  0  0  0  0
  1  7  1  0  0  0  0
  2  1  1  0  0  0  0
  2 17  1  0  0  0  0
  3  2  2  0  0  0  0
  4  5  2  0  0  0  0
  4  3  1  0  0  0  0
  5  6  1  0  0  0  0
  6  1  2  0  0  0  0
  8  3  1  0  0  0  0
  9 10  2  0  0  0  0
  9  5  1  0  0  0  0
 10 11  1  0  0  0  0
 12 10  1  0  0  0  0
 13 12  1  0  0  0  0
 14 16  1  0  0  0  0
 14 12  2  0  0  0  0
 15 14  1  0  0  0  0
 16  9  1  0  0  0  0
 17 20  1  0  0  0  0
 17 18  1  0  0  0  0
 19 17  1  0  0  0  0
M  END
>  <minimizedAffinity>
-4.21287441

$$$$
