
 OpenBabel03272500113D

 20 21  0  0  0  0  0  0  0  0999 V2000
   35.6110   29.3740   50.5450 C   0  0  0  0  0  0  0  0  0  0  0  0
   36.1870   30.3010   49.6590 C   0  0  0  0  0  0  0  0  0  0  0  0
   35.7000   30.3710   48.3500 C   0  0  0  0  0  0  0  0  0  0  0  0
   34.6850   29.5340   47.9900 N   0  0  0  0  0  0  0  0  0  0  0  0
   34.1520   28.6520   48.8700 C   0  0  0  0  0  0  0  0  0  0  0  0
   34.6050   28.5710   50.1230 N   0  0  0  0  0  0  0  0  0  0  0  0
   35.9930   29.3280   51.5480 H   0  0  0  0  0  0  0  0  0  0  0  0
   36.1330   31.0700   47.6800 H   0  0  0  0  0  0  0  0  0  0  0  0
   33.0660   27.7410   48.5240 C   0  0  0  0  0  0  0  0  0  0  0  0
   33.1740   26.6390   47.6980 C   0  0  0  0  0  0  0  0  0  0  0  0
   34.0310   26.2570   47.1780 H   0  0  0  0  0  0  0  0  0  0  0  0
   31.9140   26.0770   47.6540 C   0  0  0  0  0  0  0  0  0  0  0  0
   31.5400   25.2050   47.1320 H   0  0  0  0  0  0  0  0  0  0  0  0
   31.0950   26.8530   48.4490 C   0  0  0  0  0  0  0  0  0  0  0  0
   30.0440   26.8060   48.7160 H   0  0  0  0  0  0  0  0  0  0  0  0
   31.8300   27.8190   48.9340 O   0  0  0  0  0  0  0  0  0  0  0  0
   37.2980   31.1690   50.1630 C   0  0  0  0  0  0  0  0  0  0  0  0
   38.3620   31.1900   49.2390 F   0  0  0  0  0  0  0  0  0  0  0  0
   36.8300   32.4530   50.2640 F   0  0  0  0  0  0  0  0  0  0  0  0
   37.8010   30.7480   51.3660 F   0  0  0  0  0  0  0  0  0  0  0  0
  1  7  1  0  0  0  0
  2 17  1  0  0  0  0
  2  1  2  0  0  0  0
  3  2  1  0  0  0  0
  4  3  2  0  0  0  0
  4  5  1  0  0  0  0
  5  6  2  0  0  0  0
  6  1  1  0  0  0  0
  8  3  1  0  0  0  0
  9  5  1  0  0  0  0
  9 16  1  0  0  0  0
 10  9  2  0  0  0  0
 11 10  1  0  0  0  0
 12 10  1  0  0  0  0
 12 14  2  0  0  0  0
 13 12  1  0  0  0  0
 14 15  1  0  0  0  0
 14 16  1  0  0  0  0
 17 19  1  0  0  0  0
 17 20  1  0  0  0  0
 18 17  1  0  0  0  0
M  END
>  <minimizedAffinity>
-4.96161366

>  <minimizedRMSD>
1.17280328

$$$$
