
 OpenBabel03272500123D

 20 21  0  0  0  0  0  0  0  0999 V2000
   35.4230   29.1740   50.4620 C   0  0  0  0  0  0  0  0  0  0  0  0
   36.0930   30.1920   49.7620 C   0  0  0  0  0  0  0  0  0  0  0  0
   35.7360   30.4400   48.4320 C   0  0  0  0  0  0  0  0  0  0  0  0
   34.7520   29.6800   47.8720 N   0  0  0  0  0  0  0  0  0  0  0  0
   34.1260   28.7060   48.5760 C   0  0  0  0  0  0  0  0  0  0  0  0
   34.4540   28.4550   49.8460 N   0  0  0  0  0  0  0  0  0  0  0  0
   35.7050   28.9920   51.4830 H   0  0  0  0  0  0  0  0  0  0  0  0
   36.2410   31.2080   47.9040 H   0  0  0  0  0  0  0  0  0  0  0  0
   33.0690   27.8720   48.0140 C   0  0  0  0  0  0  0  0  0  0  0  0
   31.8520   27.6100   48.6100 C   0  0  0  0  0  0  0  0  0  0  0  0
   31.4650   27.9490   49.5520 H   0  0  0  0  0  0  0  0  0  0  0  0
   31.1730   26.7860   47.7330 C   0  0  0  0  0  0  0  0  0  0  0  0
   30.1900   26.3370   47.7930 H   0  0  0  0  0  0  0  0  0  0  0  0
   32.0000   26.5810   46.6470 C   0  0  0  0  0  0  0  0  0  0  0  0
   31.9020   26.0150   45.7260 H   0  0  0  0  0  0  0  0  0  0  0  0
   33.1020   27.2470   46.8700 O   0  0  0  0  0  0  0  0  0  0  0  0
   37.1590   30.9630   50.4770 C   0  0  0  0  0  0  0  0  0  0  0  0
   38.4020   30.7890   49.8380 F   0  0  0  0  0  0  0  0  0  0  0  0
   36.8520   32.2960   50.4010 F   0  0  0  0  0  0  0  0  0  0  0  0
   37.3080   30.5800   51.7850 F   0  0  0  0  0  0  0  0  0  0  0  0
  1  7  1  0  0  0  0
  2  1  2  0  0  0  0
  2 17  1  0  0  0  0
  3  2  1  0  0  0  0
  4  3  2  0  0  0  0
  4  5  1  0  0  0  0
  5  6  2  0  0  0  0
  6  1  1  0  0  0  0
  8  3  1  0  0  0  0
  9  5  1  0  0  0  0
  9 10  2  0  0  0  0
 10 11  1  0  0  0  0
 12 13  1  0  0  0  0
 12 10  1  0  0  0  0
 14 16  1  0  0  0  0
 14 12  2  0  0  0  0
 15 14  1  0  0  0  0
 16  9  1  0  0  0  0
 17 20  1  0  0  0  0
 18 17  1  0  0  0  0
 19 17  1  0  0  0  0
M  END
>  <minimizedAffinity>
-4.82399464

>  <minimizedRMSD>
0.601504445

$$$$
