
 OpenBabel03262520213D

 22 23  0  0  0  0  0  0  0  0999 V2000
   36.8530   31.4620   49.7880 C   0  0  0  0  0  0  0  0  0  0  0  0
   37.4230   31.5970   48.4920 C   0  0  0  0  0  0  0  0  0  0  0  0
   36.9330   30.7690   47.5060 C   0  0  0  0  0  0  0  0  0  0  0  0
   35.9340   29.8910   47.8630 N   0  0  0  0  0  0  0  0  0  0  0  0
   35.4150   29.7860   49.0800 C   0  0  0  0  0  0  0  0  0  0  0  0
   35.8910   30.5850   50.0380 N   0  0  0  0  0  0  0  0  0  0  0  0
   34.3740   28.8510   49.2580 N   0  0  0  0  0  0  0  0  0  0  0  0
   37.1040   32.0140   50.6780 H   0  0  0  0  0  0  0  0  0  0  0  0
   33.4420   29.2440   49.5650 H   0  0  0  0  0  0  0  0  0  0  0  0
   34.6160   27.8560   49.0730 H   0  0  0  0  0  0  0  0  0  0  0  0
   38.4500   32.6330   48.3950 C   0  0  0  0  0  0  0  0  0  0  0  0
   38.6930   33.5450   49.3980 C   0  0  0  0  0  0  0  0  0  0  0  0
   38.2270   33.6930   50.3960 H   0  0  0  0  0  0  0  0  0  0  0  0
   39.6920   34.4350   49.1220 C   0  0  0  0  0  0  0  0  0  0  0  0
   40.1320   35.2530   49.6580 H   0  0  0  0  0  0  0  0  0  0  0  0
   40.0700   34.0270   47.8740 C   0  0  0  0  0  0  0  0  0  0  0  0
   40.8360   34.3940   47.1790 H   0  0  0  0  0  0  0  0  0  0  0  0
   39.3330   33.0380   47.5630 O   0  0  0  0  0  0  0  0  0  0  0  0
   37.4780   30.8390   46.1350 C   0  0  0  0  0  0  0  0  0  0  0  0
   38.7250   30.3800   46.1880 F   0  0  0  0  0  0  0  0  0  0  0  0
   36.7630   30.0870   45.2150 F   0  0  0  0  0  0  0  0  0  0  0  0
   37.4670   32.1660   45.6470 F   0  0  0  0  0  0  0  0  0  0  0  0
  1  6  1  0  0  0  0
  1  8  1  0  0  0  0
  2  1  2  0  0  0  0
  3  4  2  0  0  0  0
  3  2  1  0  0  0  0
  4  5  1  0  0  0  0
  5  7  1  0  0  0  0
  5  6  2  0  0  0  0
  7  9  1  0  0  0  0
 10  7  1  0  0  0  0
 11  2  1  0  0  0  0
 11 12  2  0  0  0  0
 12 13  1  0  0  0  0
 14 12  1  0  0  0  0
 14 15  1  0  0  0  0
 16 14  2  0  0  0  0
 17 16  1  0  0  0  0
 18 16  1  0  0  0  0
 18 11  1  0  0  0  0
 19 20  1  0  0  0  0
 19  3  1  0  0  0  0
 21 19  1  0  0  0  0
 22 19  1  0  0  0  0
M  END
>  <minimizedAffinity>
-4.95562077

>  <minimizedRMSD>
3.70121312

$$$$
