
 OpenBabel03272500113D

 20 21  0  0  0  0  0  0  0  0999 V2000
   35.4400   29.1620   50.4320 C   0  0  0  0  0  0  0  0  0  0  0  0
   36.1670   30.1410   49.7320 C   0  0  0  0  0  0  0  0  0  0  0  0
   35.9270   30.3050   48.3640 C   0  0  0  0  0  0  0  0  0  0  0  0
   34.9970   29.5060   47.7680 N   0  0  0  0  0  0  0  0  0  0  0  0
   34.3130   28.5730   48.4730 C   0  0  0  0  0  0  0  0  0  0  0  0
   34.5290   28.4020   49.7790 N   0  0  0  0  0  0  0  0  0  0  0  0
   35.6320   29.0440   51.4830 H   0  0  0  0  0  0  0  0  0  0  0  0
   36.4750   31.0430   47.8350 H   0  0  0  0  0  0  0  0  0  0  0  0
   33.3090   27.6990   47.8730 C   0  0  0  0  0  0  0  0  0  0  0  0
   32.0630   27.4280   48.4020 C   0  0  0  0  0  0  0  0  0  0  0  0
   31.6130   27.7850   49.3080 H   0  0  0  0  0  0  0  0  0  0  0  0
   31.4570   26.5630   47.5120 C   0  0  0  0  0  0  0  0  0  0  0  0
   30.4820   26.0940   47.5240 H   0  0  0  0  0  0  0  0  0  0  0  0
   32.3530   26.3450   46.4830 C   0  0  0  0  0  0  0  0  0  0  0  0
   32.3240   25.7520   45.5750 H   0  0  0  0  0  0  0  0  0  0  0  0
   33.4260   27.0410   46.7530 O   0  0  0  0  0  0  0  0  0  0  0  0
   37.1660   30.9600   50.4890 C   0  0  0  0  0  0  0  0  0  0  0  0
   38.4390   30.8540   49.8940 F   0  0  0  0  0  0  0  0  0  0  0  0
   36.7940   32.2770   50.4080 F   0  0  0  0  0  0  0  0  0  0  0  0
   37.2880   30.5770   51.7990 F   0  0  0  0  0  0  0  0  0  0  0  0
  1  7  1  0  0  0  0
  2  1  2  0  0  0  0
  2 17  1  0  0  0  0
  3  2  1  0  0  0  0
  4  3  2  0  0  0  0
  4  5  1  0  0  0  0
  5  6  2  0  0  0  0
  6  1  1  0  0  0  0
  8  3  1  0  0  0  0
  9 10  2  0  0  0  0
  9  5  1  0  0  0  0
 10 11  1  0  0  0  0
 12 13  1  0  0  0  0
 12 10  1  0  0  0  0
 14 16  1  0  0  0  0
 14 12  2  0  0  0  0
 15 14  1  0  0  0  0
 16  9  1  0  0  0  0
 17 20  1  0  0  0  0
 18 17  1  0  0  0  0
 19 17  1  0  0  0  0
M  END
>  <minimizedAffinity>
-4.80475521

>  <minimizedRMSD>
0.510187507

$$$$
