
 OpenBabel03272500123D

 20 21  0  0  0  0  0  0  0  0999 V2000
   35.6720   29.0580   50.2600 C   0  0  0  0  0  0  0  0  0  0  0  0
   36.2790   30.1860   49.6800 C   0  0  0  0  0  0  0  0  0  0  0  0
   35.9870   30.4940   48.3470 C   0  0  0  0  0  0  0  0  0  0  0  0
   35.1240   29.6860   47.6680 N   0  0  0  0  0  0  0  0  0  0  0  0
   34.5550   28.6070   48.2580 C   0  0  0  0  0  0  0  0  0  0  0  0
   34.8230   28.2970   49.5290 N   0  0  0  0  0  0  0  0  0  0  0  0
   35.9030   28.8300   51.2840 H   0  0  0  0  0  0  0  0  0  0  0  0
   36.4440   31.3450   47.9080 H   0  0  0  0  0  0  0  0  0  0  0  0
   33.6270   27.7180   47.5660 C   0  0  0  0  0  0  0  0  0  0  0  0
   33.7100   26.3410   47.5340 C   0  0  0  0  0  0  0  0  0  0  0  0
   34.4330   25.6890   47.9840 H   0  0  0  0  0  0  0  0  0  0  0  0
   32.6380   25.9170   46.7740 C   0  0  0  0  0  0  0  0  0  0  0  0
   32.3140   24.9250   46.4880 H   0  0  0  0  0  0  0  0  0  0  0  0
   31.9490   27.0470   46.3780 C   0  0  0  0  0  0  0  0  0  0  0  0
   31.0590   27.2130   45.7810 H   0  0  0  0  0  0  0  0  0  0  0  0
   32.5810   28.0770   46.8760 O   0  0  0  0  0  0  0  0  0  0  0  0
   37.2120   31.0010   50.5200 C   0  0  0  0  0  0  0  0  0  0  0  0
   38.5190   30.9430   49.9990 F   0  0  0  0  0  0  0  0  0  0  0  0
   36.8140   32.3110   50.4590 F   0  0  0  0  0  0  0  0  0  0  0  0
   37.2660   30.5780   51.8220 F   0  0  0  0  0  0  0  0  0  0  0  0
  1  7  1  0  0  0  0
  2  1  1  0  0  0  0
  2 17  1  0  0  0  0
  3  2  2  0  0  0  0
  4  5  2  0  0  0  0
  4  3  1  0  0  0  0
  5  6  1  0  0  0  0
  6  1  2  0  0  0  0
  8  3  1  0  0  0  0
  9  5  1  0  0  0  0
 10  9  2  0  0  0  0
 10 11  1  0  0  0  0
 12 10  1  0  0  0  0
 13 12  1  0  0  0  0
 14 12  2  0  0  0  0
 14 16  1  0  0  0  0
 15 14  1  0  0  0  0
 16  9  1  0  0  0  0
 17 20  1  0  0  0  0
 18 17  1  0  0  0  0
 19 17  1  0  0  0  0
M  END
>  <minimizedAffinity>
-4.82277346

>  <minimizedRMSD>
0.364779949

$$$$
