
 OpenBabel03272506433D

 31 33  0  0  1  0  0  0  0  0999 V2000
   32.3990   28.3340   47.6090 C   0  0  2  0  0  0  0  0  0  0  0  0
   33.6750   28.3710   48.4130 C   0  0  1  0  0  0  0  0  0  0  0  0
   34.2350   27.1140   48.3560 O   0  0  0  0  0  0  0  0  0  0  0  0
   33.5540   26.3580   47.4140 C   0  0  0  0  0  0  0  0  0  0  0  0
   32.8030   27.3490   46.5260 C   0  0  1  0  0  0  0  0  0  0  0  0
   31.5210   28.0130   48.1920 H   0  0  0  0  0  0  0  0  0  0  0  0
   33.4950   28.7190   49.4500 H   0  0  0  0  0  0  0  0  0  0  0  0
   34.2480   25.7830   46.7810 H   0  0  0  0  0  0  0  0  0  0  0  0
   32.8020   25.7540   47.9430 H   0  0  0  0  0  0  0  0  0  0  0  0
   33.4590   27.8760   45.8320 H   0  0  0  0  0  0  0  0  0  0  0  0
   32.1210   29.6000   47.0720 O   0  0  0  0  0  0  0  0  0  0  0  0
   31.3570   29.5670   46.4750 H   0  0  0  0  0  0  0  0  0  0  0  0
   34.8140   29.5190   47.5620 S   0  0  0  0  0  0  0  0  0  0  0  0
   37.4190   29.5020   50.5530 C   0  0  0  0  0  0  0  0  0  0  0  0
   38.0240   30.7510   50.5050 C   0  0  0  0  0  0  0  0  0  0  0  0
   37.6220   31.6460   49.5140 C   0  0  0  0  0  0  0  0  0  0  0  0
   36.6500   31.2580   48.6320 N   0  0  0  0  0  0  0  0  0  0  0  0
   36.0870   30.0260   48.7190 C   0  0  0  0  0  0  0  0  0  0  0  0
   36.4600   29.1430   49.6690 N   0  0  0  0  0  0  0  0  0  0  0  0
   37.7720   28.8590   51.3380 H   0  0  0  0  0  0  0  0  0  0  0  0
   38.7940   31.0710   51.1960 H   0  0  0  0  0  0  0  0  0  0  0  0
   38.0270   32.6330   49.3930 H   0  0  0  0  0  0  0  0  0  0  0  0
   31.7230   26.7240   45.9320 O   0  0  0  0  0  0  0  0  0  0  0  0
   30.9650   27.2150   44.8910 C   0  0  0  0  0  0  0  0  0  0  0  0
   31.3580   26.7840   43.6220 C   0  0  0  0  0  0  0  0  0  0  0  0
   32.1480   26.1310   43.2450 H   0  0  0  0  0  0  0  0  0  0  0  0
   30.4860   27.3770   42.7030 C   0  0  0  0  0  0  0  0  0  0  0  0
   30.4030   27.3360   41.6220 H   0  0  0  0  0  0  0  0  0  0  0  0
   29.6320   28.1220   43.5110 C   0  0  0  0  0  0  0  0  0  0  0  0
   28.8030   28.7320   43.1270 H   0  0  0  0  0  0  0  0  0  0  0  0
   29.9450   28.0000   44.7780 O   0  0  0  0  0  0  0  0  0  0  0  0
  1  6  1  1  0  0  0
  1  2  1  0  0  0  0
  2  7  1  1  0  0  0
  3  2  1  0  0  0  0
  4  9  1  0  0  0  0
  4  3  1  0  0  0  0
  5 10  1  6  0  0  0
  5  4  1  0  0  0  0
  5  1  1  0  0  0  0
  8  4  1  0  0  0  0
 11  1  1  0  0  0  0
 12 11  1  0  0  0  0
 13  2  1  0  0  0  0
 13 18  1  0  0  0  0
 14 20  1  0  0  0  0
 15 14  1  0  0  0  0
 15 21  1  0  0  0  0
 16 15  2  0  0  0  0
 17 18  2  0  0  0  0
 17 16  1  0  0  0  0
 18 19  1  0  0  0  0
 19 14  2  0  0  0  0
 22 16  1  0  0  0  0
 23  5  1  0  0  0  0
 24 23  1  0  0  0  0
 25 24  2  0  0  0  0
 26 25  1  0  0  0  0
 27 29  2  0  0  0  0
 27 25  1  0  0  0  0
 28 27  1  0  0  0  0
 29 31  1  0  0  0  0
 30 29  1  0  0  0  0
 31 24  1  0  0  0  0
M  END
>  <minimizedAffinity>
-3.75503612

>  <minimizedRMSD>
0.928850293

$$$$
