
 OpenBabel03272504413D

 44 46  0  0  0  0  0  0  0  0999 V2000
   34.7210   29.4230   48.8170 C   0  0  0  0  0  0  0  0  0  0  0  0
   34.0300   30.2340   49.1970 H   0  0  0  0  0  0  0  0  0  0  0  0
   35.6010   29.5000   49.4870 H   0  0  0  0  0  0  0  0  0  0  0  0
   37.4950   30.4660   48.5350 Cl  0  0  0  0  0  0  0  0  0  0  0  0
   36.3590   30.2970   47.1850 C   0  0  0  0  0  0  0  0  0  0  0  0
   36.7560   30.6560   45.9470 C   0  0  0  0  0  0  0  0  0  0  0  0
   35.8860   30.5290   44.8890 C   0  0  0  0  0  0  0  0  0  0  0  0
   34.6150   30.0330   45.1350 C   0  0  0  0  0  0  0  0  0  0  0  0
   34.2700   29.6800   46.4450 C   0  0  0  0  0  0  0  0  0  0  0  0
   35.1150   29.7990   47.4890 C   0  0  0  0  0  0  0  0  0  0  0  0
   36.2330   30.8270   43.8940 H   0  0  0  0  0  0  0  0  0  0  0  0
   34.0110   29.9720   44.2400 H   0  0  0  0  0  0  0  0  0  0  0  0
   33.2680   29.3370   46.3970 H   0  0  0  0  0  0  0  0  0  0  0  0
   39.7420   32.8210   46.0380 C   0  0  0  0  0  0  0  0  0  0  0  0
   40.6170   32.0980   45.1560 C   0  0  0  0  0  0  0  0  0  0  0  0
   40.1420   30.9160   44.5810 C   0  0  0  0  0  0  0  0  0  0  0  0
   38.8850   30.4890   44.8690 N   0  0  0  0  0  0  0  0  0  0  0  0
   38.0850   31.1920   45.7040 C   0  0  0  0  0  0  0  0  0  0  0  0
   38.5190   32.3330   46.2680 N   0  0  0  0  0  0  0  0  0  0  0  0
   40.1170   33.7220   46.4690 H   0  0  0  0  0  0  0  0  0  0  0  0
   41.5900   32.4760   44.9650 H   0  0  0  0  0  0  0  0  0  0  0  0
   41.0210   30.2330   43.7190 N   0  0  0  0  0  0  0  0  0  0  0  0
   41.6680   30.7640   43.0900 H   0  0  0  0  0  0  0  0  0  0  0  0
   41.0990   29.2080   43.6340 H   0  0  0  0  0  0  0  0  0  0  0  0
   34.0830   28.1210   49.0490 C   0  0  0  0  0  0  0  0  0  0  0  0
   34.5310   27.5500   49.8850 H   0  0  0  0  0  0  0  0  0  0  0  0
   34.2210   27.4830   48.1370 H   0  0  0  0  0  0  0  0  0  0  0  0
   32.7450   28.2490   49.3140 O   0  0  0  0  0  0  0  0  0  0  0  0
   32.6680   26.4580   47.3960 O   0  0  0  0  0  0  0  0  0  0  0  0
   31.8300   27.3950   48.2110 P   0  0  2  0  0  0  0  0  0  0  0  0
   31.0830   28.5600   47.1800 O   0  0  0  0  0  0  0  0  0  0  0  0
   30.1760   28.1830   46.2170 C   0  0  0  0  0  0  0  0  0  0  0  0
   30.2900   27.2160   45.2360 C   0  0  0  0  0  0  0  0  0  0  0  0
   31.1260   26.5830   45.0560 H   0  0  0  0  0  0  0  0  0  0  0  0
   29.0990   27.2380   44.5340 C   0  0  0  0  0  0  0  0  0  0  0  0
   28.8450   26.6050   43.6920 H   0  0  0  0  0  0  0  0  0  0  0  0
   28.3260   28.2070   45.1180 C   0  0  0  0  0  0  0  0  0  0  0  0
   27.3170   28.5110   44.8340 H   0  0  0  0  0  0  0  0  0  0  0  0
   29.0000   28.7410   46.1090 O   0  0  0  0  0  0  0  0  0  0  0  0
   30.5850   26.5470   48.9150 O   0  0  0  0  0  0  0  0  0  0  0  0
   29.8540   27.3620   49.7620 C   0  0  0  0  0  0  0  0  0  0  0  0
   29.3620   26.6780   50.8750 F   0  0  0  0  0  0  0  0  0  0  0  0
   30.6280   28.3830   50.2700 F   0  0  0  0  0  0  0  0  0  0  0  0
   28.7690   27.8980   49.0770 F   0  0  0  0  0  0  0  0  0  0  0  0
  1 25  1  0  0  0  0
  1  2  1  0  0  0  0
  1  3  1  0  0  0  0
  5 10  1  0  0  0  0
  5  4  1  0  0  0  0
  6  5  2  0  0  0  0
  7  8  2  0  0  0  0
  7  6  1  0  0  0  0
  8  9  1  0  0  0  0
  9 10  2  0  0  0  0
 10  1  1  0  0  0  0
 11  7  1  0  0  0  0
 12  8  1  0  0  0  0
 13  9  1  0  0  0  0
 14 19  1  0  0  0  0
 14 20  1  0  0  0  0
 15 14  2  0  0  0  0
 16 17  2  0  0  0  0
 16 15  1  0  0  0  0
 17 18  1  0  0  0  0
 18  6  1  0  0  0  0
 18 19  2  0  0  0  0
 21 15  1  0  0  0  0
 22 16  1  0  0  0  0
 23 22  1  0  0  0  0
 24 22  1  0  0  0  0
 25 28  1  0  0  0  0
 25 26  1  0  0  0  0
 27 25  1  0  0  0  0
 30 29  2  6  0  0  0
 30 40  1  0  0  0  0
 30 28  1  0  0  0  0
 31 30  1  0  0  0  0
 32 31  1  0  0  0  0
 33 32  2  0  0  0  0
 34 33  1  0  0  0  0
 35 37  2  0  0  0  0
 35 33  1  0  0  0  0
 36 35  1  0  0  0  0
 37 39  1  0  0  0  0
 38 37  1  0  0  0  0
 39 32  1  0  0  0  0
 40 41  1  0  0  0  0
 41 43  1  0  0  0  0
 41 42  1  0  0  0  0
 44 41  1  0  0  0  0
M  END
>  <minimizedAffinity>
-5.73350048

>  <minimizedRMSD>
0.439650118

$$$$
