
 OpenBabel03272504273D

 41 44  0  0  0  0  0  0  0  0999 V2000
   35.4770   29.5330   48.4220 C   0  0  0  0  0  0  0  0  0  0  0  0
   35.2820   28.5890   49.3430 C   0  0  0  0  0  0  0  0  0  0  0  0
   34.3990   27.6030   49.1520 C   0  0  0  0  0  0  0  0  0  0  0  0
   33.6920   27.5700   47.9940 N   0  0  0  0  0  0  0  0  0  0  0  0
   33.8880   28.5090   47.0800 C   0  0  0  0  0  0  0  0  0  0  0  0
   34.7710   29.5030   47.2620 N   0  0  0  0  0  0  0  0  0  0  0  0
   35.8350   28.5950   50.2760 H   0  0  0  0  0  0  0  0  0  0  0  0
   34.2440   26.8350   49.9060 H   0  0  0  0  0  0  0  0  0  0  0  0
   31.7250   28.1200   45.9770 C   0  0  0  0  0  0  0  0  0  0  0  0
   33.1000   28.3570   45.8790 C   0  0  0  0  0  0  0  0  0  0  0  0
   33.7850   28.4370   44.6830 C   0  0  0  0  0  0  0  0  0  0  0  0
   33.0940   28.2740   43.5050 C   0  0  0  0  0  0  0  0  0  0  0  0
   31.7450   28.0360   43.4980 C   0  0  0  0  0  0  0  0  0  0  0  0
   31.1480   27.9730   44.7220 C   0  0  0  0  0  0  0  0  0  0  0  0
   34.8490   28.6250   44.6560 H   0  0  0  0  0  0  0  0  0  0  0  0
   33.6540   28.3420   42.5770 H   0  0  0  0  0  0  0  0  0  0  0  0
   31.2000   27.9080   42.5950 H   0  0  0  0  0  0  0  0  0  0  0  0
   30.0660   27.7810   44.7160 H   0  0  0  0  0  0  0  0  0  0  0  0
   30.8610   28.0390   47.3980 S   0  0  0  0  0  0  0  0  0  0  0  0
   30.1520   26.6760   47.1050 O   0  0  0  0  0  0  0  0  0  0  0  0
   29.8290   29.1370   47.3570 O   0  0  0  0  0  0  0  0  0  0  0  0
   30.7230   27.7130   48.9550 C   0  0  0  0  0  0  0  0  0  0  0  0
   30.2980   26.4710   49.4850 F   0  0  0  0  0  0  0  0  0  0  0  0
   29.5090   28.3410   49.4910 F   0  0  0  0  0  0  0  0  0  0  0  0
   31.4400   28.4460   49.9420 F   0  0  0  0  0  0  0  0  0  0  0  0
   37.2700   32.4690   49.7200 C   0  0  0  0  0  0  0  0  0  0  0  0
   38.2970   32.6520   48.7690 C   0  0  0  0  0  0  0  0  0  0  0  0
   38.3440   31.7460   47.6910 C   0  0  0  0  0  0  0  0  0  0  0  0
   37.4110   30.7770   47.6470 N   0  0  0  0  0  0  0  0  0  0  0  0
   36.4290   30.6240   48.5820 C   0  0  0  0  0  0  0  0  0  0  0  0
   36.3720   31.4730   49.6070 N   0  0  0  0  0  0  0  0  0  0  0  0
   37.2650   33.1900   50.5400 H   0  0  0  0  0  0  0  0  0  0  0  0
   39.0240   33.4380   48.8360 H   0  0  0  0  0  0  0  0  0  0  0  0
   39.3680   31.8500   46.6530 C   0  0  0  0  0  0  0  0  0  0  0  0
   39.8580   33.0480   46.1740 C   0  0  0  0  0  0  0  0  0  0  0  0
   39.6270   34.0600   46.4240 H   0  0  0  0  0  0  0  0  0  0  0  0
   40.8170   32.7510   45.1980 C   0  0  0  0  0  0  0  0  0  0  0  0
   41.4580   33.3490   44.5560 H   0  0  0  0  0  0  0  0  0  0  0  0
   40.8390   31.3550   45.1530 C   0  0  0  0  0  0  0  0  0  0  0  0
   41.4440   30.7070   44.5310 H   0  0  0  0  0  0  0  0  0  0  0  0
   39.9720   30.8960   46.0260 O   0  0  0  0  0  0  0  0  0  0  0  0
  1 30  1  0  0  0  0
  1  2  1  0  0  0  0
  2  7  1  0  0  0  0
  3  2  2  0  0  0  0
  3  8  1  0  0  0  0
  4  3  1  0  0  0  0
  5  6  1  0  0  0  0
  5  4  2  0  0  0  0
  6  1  2  0  0  0  0
  9 19  1  0  0  0  0
 10  9  1  0  0  0  0
 10  5  1  0  0  0  0
 11 10  2  0  0  0  0
 12 11  1  0  0  0  0
 13 12  2  0  0  0  0
 13 14  1  0  0  0  0
 14  9  2  0  0  0  0
 15 11  1  0  0  0  0
 16 12  1  0  0  0  0
 17 13  1  0  0  0  0
 18 14  1  0  0  0  0
 19 22  1  0  0  0  0
 20 19  2  0  0  0  0
 21 19  2  0  0  0  0
 22 23  1  0  0  0  0
 22 24  1  0  0  0  0
 22 25  1  0  0  0  0
 26 32  1  0  0  0  0
 27 33  1  0  0  0  0
 27 26  2  0  0  0  0
 28 27  1  0  0  0  0
 29 28  2  0  0  0  0
 29 30  1  0  0  0  0
 30 31  2  0  0  0  0
 31 26  1  0  0  0  0
 34 28  1  0  0  0  0
 35 36  1  0  0  0  0
 35 34  2  0  0  0  0
 37 35  1  0  0  0  0
 38 37  1  0  0  0  0
 39 37  2  0  0  0  0
 39 41  1  0  0  0  0
 40 39  1  0  0  0  0
 41 34  1  0  0  0  0
M  END
>  <minimizedAffinity>
-6.57839584

>  <minimizedRMSD>
0.671099901

$$$$
