
 OpenBabel03272500123D

 20 21  0  0  0  0  0  0  0  0999 V2000
   35.5420   29.0420   50.2530 C   0  0  0  0  0  0  0  0  0  0  0  0
   36.1730   30.1360   49.6350 C   0  0  0  0  0  0  0  0  0  0  0  0
   35.8780   30.4120   48.2960 C   0  0  0  0  0  0  0  0  0  0  0  0
   34.9910   29.6060   47.6470 N   0  0  0  0  0  0  0  0  0  0  0  0
   34.4000   28.5600   48.2720 C   0  0  0  0  0  0  0  0  0  0  0  0
   34.6690   28.2810   49.5500 N   0  0  0  0  0  0  0  0  0  0  0  0
   35.7750   28.8390   51.2820 H   0  0  0  0  0  0  0  0  0  0  0  0
   36.3540   31.2380   47.8290 H   0  0  0  0  0  0  0  0  0  0  0  0
   33.4450   27.6740   47.6140 C   0  0  0  0  0  0  0  0  0  0  0  0
   32.1350   27.4780   48.0010 C   0  0  0  0  0  0  0  0  0  0  0  0
   31.5910   27.9120   48.8170 H   0  0  0  0  0  0  0  0  0  0  0  0
   31.6110   26.5680   47.1030 C   0  0  0  0  0  0  0  0  0  0  0  0
   30.6230   26.1300   47.0280 H   0  0  0  0  0  0  0  0  0  0  0  0
   32.6160   26.2500   46.2120 C   0  0  0  0  0  0  0  0  0  0  0  0
   32.6750   25.5940   45.3520 H   0  0  0  0  0  0  0  0  0  0  0  0
   33.6730   26.9330   46.5650 O   0  0  0  0  0  0  0  0  0  0  0  0
   37.1310   30.9530   50.4450 C   0  0  0  0  0  0  0  0  0  0  0  0
   38.4320   30.8540   49.9110 F   0  0  0  0  0  0  0  0  0  0  0  0
   36.7600   32.2690   50.3550 F   0  0  0  0  0  0  0  0  0  0  0  0
   37.1910   30.5610   51.7570 F   0  0  0  0  0  0  0  0  0  0  0  0
  1  7  1  0  0  0  0
  2  1  1  0  0  0  0
  2 17  1  0  0  0  0
  3  2  2  0  0  0  0
  4  5  2  0  0  0  0
  4  3  1  0  0  0  0
  5  6  1  0  0  0  0
  6  1  2  0  0  0  0
  8  3  1  0  0  0  0
  9 10  2  0  0  0  0
  9  5  1  0  0  0  0
 10 11  1  0  0  0  0
 12 10  1  0  0  0  0
 13 12  1  0  0  0  0
 14 16  1  0  0  0  0
 14 12  2  0  0  0  0
 15 14  1  0  0  0  0
 16  9  1  0  0  0  0
 17 20  1  0  0  0  0
 18 17  1  0  0  0  0
 19 17  1  0  0  0  0
M  END
>  <minimizedAffinity>
-4.73605871

>  <minimizedRMSD>
0.227401674

$$$$
