
 OpenBabel03262520213D

 22 23  0  0  0  0  0  0  0  0999 V2000
   34.6220   29.5820   47.7680 C   0  0  0  0  0  0  0  0  0  0  0  0
   35.9330   30.1320   47.8210 C   0  0  0  0  0  0  0  0  0  0  0  0
   36.4880   30.5380   46.6270 C   0  0  0  0  0  0  0  0  0  0  0  0
   35.7210   30.3790   45.4930 N   0  0  0  0  0  0  0  0  0  0  0  0
   34.4980   29.8660   45.4700 C   0  0  0  0  0  0  0  0  0  0  0  0
   33.9600   29.4690   46.6250 N   0  0  0  0  0  0  0  0  0  0  0  0
   33.8470   29.8080   44.2190 N   0  0  0  0  0  0  0  0  0  0  0  0
   34.0310   29.2120   48.5870 H   0  0  0  0  0  0  0  0  0  0  0  0
   32.9510   30.3610   44.1340 H   0  0  0  0  0  0  0  0  0  0  0  0
   34.3080   29.2240   43.4910 H   0  0  0  0  0  0  0  0  0  0  0  0
   36.4970   30.2060   49.1680 C   0  0  0  0  0  0  0  0  0  0  0  0
   36.6110   29.1100   49.9950 C   0  0  0  0  0  0  0  0  0  0  0  0
   36.3370   28.0430   49.8550 H   0  0  0  0  0  0  0  0  0  0  0  0
   37.1640   29.3800   51.2140 C   0  0  0  0  0  0  0  0  0  0  0  0
   37.3940   28.7850   52.0760 H   0  0  0  0  0  0  0  0  0  0  0  0
   37.3940   30.7220   51.1090 C   0  0  0  0  0  0  0  0  0  0  0  0
   37.8270   31.4530   51.8040 H   0  0  0  0  0  0  0  0  0  0  0  0
   36.9970   31.0810   49.9550 O   0  0  0  0  0  0  0  0  0  0  0  0
   37.8480   31.1110   46.5930 C   0  0  0  0  0  0  0  0  0  0  0  0
   38.6420   30.2670   47.2460 F   0  0  0  0  0  0  0  0  0  0  0  0
   38.3440   31.2900   45.3110 F   0  0  0  0  0  0  0  0  0  0  0  0
   37.8820   32.3840   47.2060 F   0  0  0  0  0  0  0  0  0  0  0  0
  1  2  1  0  0  0  0
  1  8  1  0  0  0  0
  2 11  1  0  0  0  0
  3  2  2  0  0  0  0
  4  3  1  0  0  0  0
  5  4  2  0  0  0  0
  5  6  1  0  0  0  0
  6  1  2  0  0  0  0
  7  5  1  0  0  0  0
  9  7  1  0  0  0  0
 10  7  1  0  0  0  0
 11 18  1  0  0  0  0
 11 12  2  0  0  0  0
 12 14  1  0  0  0  0
 13 12  1  0  0  0  0
 14 15  1  0  0  0  0
 16 14  2  0  0  0  0
 16 17  1  0  0  0  0
 18 16  1  0  0  0  0
 19  3  1  0  0  0  0
 19 22  1  0  0  0  0
 19 20  1  0  0  0  0
 21 19  1  0  0  0  0
M  END
>  <minimizedAffinity>
-4.61524105

>  <minimizedRMSD>
3.82829046

$$$$
