
 OpenBabel03272500123D

 20 21  0  0  0  0  0  0  0  0999 V2000
   35.6570   29.0420   50.2680 C   0  0  0  0  0  0  0  0  0  0  0  0
   36.2930   30.1620   49.7050 C   0  0  0  0  0  0  0  0  0  0  0  0
   36.0120   30.4950   48.3760 C   0  0  0  0  0  0  0  0  0  0  0  0
   35.1310   29.7180   47.6840 N   0  0  0  0  0  0  0  0  0  0  0  0
   34.5350   28.6460   48.2580 C   0  0  0  0  0  0  0  0  0  0  0  0
   34.7910   28.3120   49.5250 N   0  0  0  0  0  0  0  0  0  0  0  0
   35.8800   28.7940   51.2900 H   0  0  0  0  0  0  0  0  0  0  0  0
   36.4920   31.3400   47.9500 H   0  0  0  0  0  0  0  0  0  0  0  0
   33.5870   27.7890   47.5530 C   0  0  0  0  0  0  0  0  0  0  0  0
   32.7970   28.1750   46.4880 C   0  0  0  0  0  0  0  0  0  0  0  0
   32.7270   29.1260   45.9970 H   0  0  0  0  0  0  0  0  0  0  0  0
   32.0630   27.0560   46.1400 C   0  0  0  0  0  0  0  0  0  0  0  0
   31.3230   26.9030   45.3660 H   0  0  0  0  0  0  0  0  0  0  0  0
   32.4350   26.0430   47.0010 C   0  0  0  0  0  0  0  0  0  0  0  0
   32.1360   25.0070   47.1130 H   0  0  0  0  0  0  0  0  0  0  0  0
   33.3350   26.5360   47.8100 O   0  0  0  0  0  0  0  0  0  0  0  0
   37.2440   30.9430   50.5580 C   0  0  0  0  0  0  0  0  0  0  0  0
   38.5570   30.8300   50.0590 F   0  0  0  0  0  0  0  0  0  0  0  0
   36.8990   32.2670   50.4870 F   0  0  0  0  0  0  0  0  0  0  0  0
   37.2590   30.5220   51.8630 F   0  0  0  0  0  0  0  0  0  0  0  0
  1  7  1  0  0  0  0
  2  1  1  0  0  0  0
  2 17  1  0  0  0  0
  3  2  2  0  0  0  0
  4  5  2  0  0  0  0
  4  3  1  0  0  0  0
  5  6  1  0  0  0  0
  6  1  2  0  0  0  0
  8  3  1  0  0  0  0
  9 16  1  0  0  0  0
  9  5  1  0  0  0  0
 10  9  2  0  0  0  0
 11 10  1  0  0  0  0
 12 10  1  0  0  0  0
 12 14  2  0  0  0  0
 13 12  1  0  0  0  0
 14 15  1  0  0  0  0
 14 16  1  0  0  0  0
 17 20  1  0  0  0  0
 18 17  1  0  0  0  0
 19 17  1  0  0  0  0
M  END
>  <minimizedAffinity>
-4.66534519

>  <minimizedRMSD>
0.135179877

$$$$
