
 OpenBabel03272500123D

 20 21  0  0  0  0  0  0  0  0999 V2000
   35.5950   29.0890   50.3120 C   0  0  0  0  0  0  0  0  0  0  0  0
   36.2440   30.1680   49.6870 C   0  0  0  0  0  0  0  0  0  0  0  0
   35.9860   30.4150   48.3350 C   0  0  0  0  0  0  0  0  0  0  0  0
   35.1140   29.5950   47.6810 N   0  0  0  0  0  0  0  0  0  0  0  0
   34.5050   28.5640   48.3140 C   0  0  0  0  0  0  0  0  0  0  0  0
   34.7400   28.3140   49.6040 N   0  0  0  0  0  0  0  0  0  0  0  0
   35.8000   28.9090   51.3510 H   0  0  0  0  0  0  0  0  0  0  0  0
   36.4750   31.2290   47.8620 H   0  0  0  0  0  0  0  0  0  0  0  0
   33.5660   27.6650   47.6500 C   0  0  0  0  0  0  0  0  0  0  0  0
   32.5090   28.0560   46.8530 C   0  0  0  0  0  0  0  0  0  0  0  0
   32.1870   29.0420   46.5800 H   0  0  0  0  0  0  0  0  0  0  0  0
   31.8970   26.8880   46.4410 C   0  0  0  0  0  0  0  0  0  0  0  0
   31.0340   26.7190   45.8090 H   0  0  0  0  0  0  0  0  0  0  0  0
   32.6020   25.8400   47.0010 C   0  0  0  0  0  0  0  0  0  0  0  0
   32.4990   24.7610   46.9630 H   0  0  0  0  0  0  0  0  0  0  0  0
   33.5750   26.3620   47.7020 O   0  0  0  0  0  0  0  0  0  0  0  0
   37.1820   31.0020   50.5030 C   0  0  0  0  0  0  0  0  0  0  0  0
   38.4810   30.9540   49.9590 F   0  0  0  0  0  0  0  0  0  0  0  0
   36.7680   32.3070   50.4380 F   0  0  0  0  0  0  0  0  0  0  0  0
   37.2640   30.5910   51.8080 F   0  0  0  0  0  0  0  0  0  0  0  0
  1  7  1  0  0  0  0
  2  1  1  0  0  0  0
  2 17  1  0  0  0  0
  3  2  2  0  0  0  0
  4  5  2  0  0  0  0
  4  3  1  0  0  0  0
  5  6  1  0  0  0  0
  6  1  2  0  0  0  0
  8  3  1  0  0  0  0
  9 16  1  0  0  0  0
  9  5  1  0  0  0  0
 10  9  2  0  0  0  0
 11 10  1  0  0  0  0
 12 10  1  0  0  0  0
 12 14  2  0  0  0  0
 13 12  1  0  0  0  0
 14 16  1  0  0  0  0
 15 14  1  0  0  0  0
 17 20  1  0  0  0  0
 18 17  1  0  0  0  0
 19 17  1  0  0  0  0
M  END
>  <minimizedAffinity>
-4.67410755

>  <minimizedRMSD>
0.246128336

$$$$
