
 OpenBabel03272509353D

 46 50  0  0  1  0  0  0  0  0999 V2000
   36.3180   30.6490   44.8660 C   0  0  1  0  0  0  0  0  0  0  0  0
   37.3530   31.6050   45.3310 C   0  0  0  0  0  0  0  0  0  0  0  0
   37.8520   30.2710   45.0660 C   0  0  2  0  0  0  0  0  0  0  0  0
   36.0340   30.4650   43.8370 H   0  0  0  0  0  0  0  0  0  0  0  0
   37.2230   31.9410   46.4130 H   0  0  0  0  0  0  0  0  0  0  0  0
   37.3190   32.4950   44.6860 H   0  0  0  0  0  0  0  0  0  0  0  0
   37.8910   29.4100   45.7200 H   0  0  0  0  0  0  0  0  0  0  0  0
   38.6960   30.2370   43.8270 C   0  0  0  0  0  0  0  0  0  0  0  0
   39.1550   31.5280   43.5280 C   0  0  0  0  0  0  0  0  0  0  0  0
   40.0430   31.7260   42.5000 C   0  0  0  0  0  0  0  0  0  0  0  0
   40.5110   30.6540   41.7310 C   0  0  0  0  0  0  0  0  0  0  0  0
   40.0370   29.3920   42.0540 C   0  0  0  0  0  0  0  0  0  0  0  0
   40.4040   28.2690   41.3700 C   0  0  0  0  0  0  0  0  0  0  0  0
   39.9300   27.0080   41.6630 C   0  0  0  0  0  0  0  0  0  0  0  0
   39.0340   26.8710   42.7110 C   0  0  0  0  0  0  0  0  0  0  0  0
   38.6640   27.9990   43.4020 C   0  0  0  0  0  0  0  0  0  0  0  0
   39.1650   29.2430   43.0720 C   0  0  0  0  0  0  0  0  0  0  0  0
   39.0120   32.5160   43.9170 H   0  0  0  0  0  0  0  0  0  0  0  0
   40.4960   32.6370   42.1330 H   0  0  0  0  0  0  0  0  0  0  0  0
   41.2080   30.6650   40.8970 H   0  0  0  0  0  0  0  0  0  0  0  0
   41.1020   28.3330   40.5440 H   0  0  0  0  0  0  0  0  0  0  0  0
   40.2030   26.1020   41.1370 H   0  0  0  0  0  0  0  0  0  0  0  0
   38.6210   25.9130   42.9960 H   0  0  0  0  0  0  0  0  0  0  0  0
   37.9490   27.8680   44.2350 H   0  0  0  0  0  0  0  0  0  0  0  0
   33.8010   28.4240   46.5680 C   0  0  0  0  0  0  0  0  0  0  0  0
   34.6320   28.9960   45.5640 C   0  0  0  0  0  0  0  0  0  0  0  0
   35.4570   30.0300   45.9060 C   0  0  0  0  0  0  0  0  0  0  0  0
   35.4150   30.4350   47.2100 N   0  0  0  0  0  0  0  0  0  0  0  0
   34.6430   29.9070   48.1570 C   0  0  0  0  0  0  0  0  0  0  0  0
   33.8120   28.8790   47.8450 N   0  0  0  0  0  0  0  0  0  0  0  0
   33.1760   27.6230   46.2500 H   0  0  0  0  0  0  0  0  0  0  0  0
   34.6210   28.6390   44.5640 H   0  0  0  0  0  0  0  0  0  0  0  0
   34.7470   30.4440   49.5660 C   0  0  0  0  0  0  0  0  0  0  0  0
   34.6520   31.5440   49.4720 H   0  0  0  0  0  0  0  0  0  0  0  0
   33.9690   29.9970   50.1830 H   0  0  0  0  0  0  0  0  0  0  0  0
   36.1470   30.0900   50.0590 C   0  0  0  0  0  0  0  0  0  0  0  0
   36.0950   30.1290   51.1770 H   0  0  0  0  0  0  0  0  0  0  0  0
   36.4140   29.0510   49.7460 H   0  0  0  0  0  0  0  0  0  0  0  0
   37.1400   31.0900   49.6170 C   0  0  0  0  0  0  0  0  0  0  0  0
   38.3470   31.1780   48.9600 C   0  0  0  0  0  0  0  0  0  0  0  0
   38.7890   30.2730   48.6120 H   0  0  0  0  0  0  0  0  0  0  0  0
   38.7300   32.5010   48.8880 C   0  0  0  0  0  0  0  0  0  0  0  0
   39.6440   32.8370   48.4200 H   0  0  0  0  0  0  0  0  0  0  0  0
   37.7100   33.1610   49.5200 C   0  0  0  0  0  0  0  0  0  0  0  0
   37.7300   34.2550   49.6240 H   0  0  0  0  0  0  0  0  0  0  0  0
   36.7870   32.3140   49.9400 O   0  0  0  0  0  0  0  0  0  0  0  0
  1  4  1  6  0  0  0
  1  3  1  0  0  0  0
  1  2  1  0  0  0  0
  1 27  1  0  0  0  0
  2  5  1  0  0  0  0
  3  2  1  0  0  0  0
  3  7  1  1  0  0  0
  6  2  1  0  0  0  0
  8  3  1  0  0  0  0
  9  8  1  0  0  0  0
  9 18  1  0  0  0  0
 10  9  2  0  0  0  0
 11 12  2  0  0  0  0
 11 10  1  0  0  0  0
 12 17  1  0  0  0  0
 13 14  2  0  0  0  0
 13 12  1  0  0  0  0
 14 15  1  0  0  0  0
 15 23  1  0  0  0  0
 15 16  2  0  0  0  0
 16 24  1  0  0  0  0
 17 16  1  0  0  0  0
 17  8  2  0  0  0  0
 19 10  1  0  0  0  0
 20 11  1  0  0  0  0
 21 13  1  0  0  0  0
 22 14  1  0  0  0  0
 25 30  1  0  0  0  0
 26 27  1  0  0  0  0
 26 25  2  0  0  0  0
 27 28  2  0  0  0  0
 28 29  1  0  0  0  0
 29 33  1  0  0  0  0
 30 29  2  0  0  0  0
 31 25  1  0  0  0  0
 32 26  1  0  0  0  0
 33 36  1  0  0  0  0
 33 35  1  0  0  0  0
 34 33  1  0  0  0  0
 36 37  1  0  0  0  0
 38 36  1  0  0  0  0
 39 46  1  0  0  0  0
 39 36  1  0  0  0  0
 40 39  2  0  0  0  0
 41 40  1  0  0  0  0
 42 40  1  0  0  0  0
 42 44  2  0  0  0  0
 43 42  1  0  0  0  0
 44 45  1  0  0  0  0
 44 46  1  0  0  0  0
M  END
>  <minimizedAffinity>
-5.82470894

>  <minimizedRMSD>
2.54114079

$$$$
