
 OpenBabel03272505493D

 39 43  0  0  0  0  0  0  0  0999 V2000
   36.5290   30.5050   45.9090 C   0  0  0  0  0  0  0  0  0  0  0  0
   37.0620   30.8530   47.0970 C   0  0  0  0  0  0  0  0  0  0  0  0
   36.3800   30.5930   48.2750 C   0  0  0  0  0  0  0  0  0  0  0  0
   35.1380   29.9670   48.1930 C   0  0  0  0  0  0  0  0  0  0  0  0
   34.5920   29.6070   46.9510 C   0  0  0  0  0  0  0  0  0  0  0  0
   35.3170   29.8940   45.8490 N   0  0  0  0  0  0  0  0  0  0  0  0
   38.0280   31.3420   47.1830 H   0  0  0  0  0  0  0  0  0  0  0  0
   36.7320   30.8370   49.2580 H   0  0  0  0  0  0  0  0  0  0  0  0
   34.5360   29.7250   49.0620 H   0  0  0  0  0  0  0  0  0  0  0  0
   37.2650   30.7840   44.6210 C   0  0  0  0  0  0  0  0  0  0  0  0
   37.0340   29.8720   43.4650 C   0  0  0  0  0  0  0  0  0  0  0  0
   36.4590   31.2550   43.4480 C   0  0  0  0  0  0  0  0  0  0  0  0
   36.3240   29.0340   43.6670 H   0  0  0  0  0  0  0  0  0  0  0  0
   37.8800   29.5890   42.8410 H   0  0  0  0  0  0  0  0  0  0  0  0
   36.9760   31.9500   42.7560 H   0  0  0  0  0  0  0  0  0  0  0  0
   35.3530   31.3200   43.5120 H   0  0  0  0  0  0  0  0  0  0  0  0
   39.8510   33.3800   45.0630 C   0  0  0  0  0  0  0  0  0  0  0  0
   41.0120   32.6080   45.2940 C   0  0  0  0  0  0  0  0  0  0  0  0
   40.8980   31.1900   45.2950 C   0  0  0  0  0  0  0  0  0  0  0  0
   39.6730   30.6750   45.0740 N   0  0  0  0  0  0  0  0  0  0  0  0
   38.5690   31.4280   44.8540 C   0  0  0  0  0  0  0  0  0  0  0  0
   38.6560   32.7680   44.8480 N   0  0  0  0  0  0  0  0  0  0  0  0
   39.9420   34.4600   45.0620 H   0  0  0  0  0  0  0  0  0  0  0  0
   41.9500   33.1240   45.4620 H   0  0  0  0  0  0  0  0  0  0  0  0
   41.7820   30.6210   45.4720 H   0  0  0  0  0  0  0  0  0  0  0  0
   33.2990   28.9520   46.8190 C   0  0  0  0  0  0  0  0  0  0  0  0
   32.6960   28.4100   45.7290 N   0  0  0  0  0  0  0  0  0  0  0  0
   31.4860   27.9060   46.0810 C   0  0  0  0  0  0  0  0  0  0  0  0
   31.3480   28.1490   47.4220 N   0  0  0  0  0  0  0  0  0  0  0  0
   32.4360   28.7750   47.8620 N   0  0  0  0  0  0  0  0  0  0  0  0
   30.7330   27.4080   45.4990 H   0  0  0  0  0  0  0  0  0  0  0  0
   30.2650   27.8310   48.3170 C   0  0  0  0  0  0  0  0  0  0  0  0
   30.0510   26.9160   49.3310 C   0  0  0  0  0  0  0  0  0  0  0  0
   30.8580   26.2320   49.5710 H   0  0  0  0  0  0  0  0  0  0  0  0
   28.7640   27.1790   49.7660 C   0  0  0  0  0  0  0  0  0  0  0  0
   28.3690   26.5630   50.5850 H   0  0  0  0  0  0  0  0  0  0  0  0
   28.2620   28.2310   49.0010 C   0  0  0  0  0  0  0  0  0  0  0  0
   27.2560   28.5070   49.2710 H   0  0  0  0  0  0  0  0  0  0  0  0
   29.1920   28.5740   48.1630 O   0  0  0  0  0  0  0  0  0  0  0  0
  1  2  1  0  0  0  0
  2  7  1  0  0  0  0
  2  3  2  0  0  0  0
  3  8  1  0  0  0  0
  4  3  1  0  0  0  0
  4  9  1  0  0  0  0
  5  4  2  0  0  0  0
  6  1  2  0  0  0  0
  6  5  1  0  0  0  0
 10 21  1  0  0  0  0
 10  1  1  0  0  0  0
 11 13  1  0  0  0  0
 11 10  1  0  0  0  0
 12 11  1  0  0  0  0
 12 16  1  0  0  0  0
 12 10  1  0  0  0  0
 14 11  1  0  0  0  0
 15 12  1  0  0  0  0
 17 18  1  0  0  0  0
 18 19  2  0  0  0  0
 18 24  1  0  0  0  0
 19 25  1  0  0  0  0
 20 19  1  0  0  0  0
 21 20  2  0  0  0  0
 22 21  1  0  0  0  0
 22 17  2  0  0  0  0
 23 17  1  0  0  0  0
 26  5  1  0  0  0  0
 26 30  2  0  0  0  0
 27 28  2  0  0  0  0
 27 26  1  0  0  0  0
 28 29  1  0  0  0  0
 29 30  1  0  0  0  0
 29 32  1  0  0  0  0
 31 28  1  0  0  0  0
 32 33  2  0  0  0  0
 33 34  1  0  0  0  0
 33 35  1  0  0  0  0
 35 36  1  0  0  0  0
 37 38  1  0  0  0  0
 37 35  2  0  0  0  0
 39 32  1  0  0  0  0
 39 37  1  0  0  0  0
M  END
>  <minimizedAffinity>
-5.53665161

>  <minimizedRMSD>
1.02771521

$$$$
