
 OpenBabel03272500113D

 20 21  0  0  0  0  0  0  0  0999 V2000
   35.6390   29.0550   50.1980 C   0  0  0  0  0  0  0  0  0  0  0  0
   36.2970   30.1820   49.6750 C   0  0  0  0  0  0  0  0  0  0  0  0
   36.0420   30.5550   48.3520 C   0  0  0  0  0  0  0  0  0  0  0  0
   35.1640   29.8070   47.6240 N   0  0  0  0  0  0  0  0  0  0  0  0
   34.5460   28.7270   48.1590 C   0  0  0  0  0  0  0  0  0  0  0  0
   34.7770   28.3560   49.4210 N   0  0  0  0  0  0  0  0  0  0  0  0
   35.8420   28.7780   51.2160 H   0  0  0  0  0  0  0  0  0  0  0  0
   36.5380   31.4060   47.9570 H   0  0  0  0  0  0  0  0  0  0  0  0
   33.6000   27.9010   47.4150 C   0  0  0  0  0  0  0  0  0  0  0  0
   32.8760   26.8460   47.9340 C   0  0  0  0  0  0  0  0  0  0  0  0
   32.8660   26.4470   48.9290 H   0  0  0  0  0  0  0  0  0  0  0  0
   32.1180   26.3600   46.8860 C   0  0  0  0  0  0  0  0  0  0  0  0
   31.4090   25.5430   46.8380 H   0  0  0  0  0  0  0  0  0  0  0  0
   32.4090   27.1330   45.7800 C   0  0  0  0  0  0  0  0  0  0  0  0
   32.0670   27.1300   44.7510 H   0  0  0  0  0  0  0  0  0  0  0  0
   33.2890   28.0250   46.1550 O   0  0  0  0  0  0  0  0  0  0  0  0
   37.2420   30.9290   50.5650 C   0  0  0  0  0  0  0  0  0  0  0  0
   38.5630   30.8040   50.0920 F   0  0  0  0  0  0  0  0  0  0  0  0
   36.9210   32.2600   50.5150 F   0  0  0  0  0  0  0  0  0  0  0  0
   37.2220   30.4810   51.8600 F   0  0  0  0  0  0  0  0  0  0  0  0
  1  7  1  0  0  0  0
  2  1  1  0  0  0  0
  2 17  1  0  0  0  0
  3  2  2  0  0  0  0
  4  5  2  0  0  0  0
  4  3  1  0  0  0  0
  5  6  1  0  0  0  0
  6  1  2  0  0  0  0
  8  3  1  0  0  0  0
  9 10  2  0  0  0  0
  9  5  1  0  0  0  0
 10 11  1  0  0  0  0
 12 10  1  0  0  0  0
 13 12  1  0  0  0  0
 14 16  1  0  0  0  0
 14 12  2  0  0  0  0
 15 14  1  0  0  0  0
 16  9  1  0  0  0  0
 17 20  1  0  0  0  0
 18 17  1  0  0  0  0
 19 17  1  0  0  0  0
M  END
>  <minimizedAffinity>
-4.7156167

>  <minimizedRMSD>
0.10291107

$$$$
