
 OpenBabel03272509583D

 45 48  0  0  0  0  0  0  0  0999 V2000
   34.4870   28.3270   48.3440 C   0  0  0  0  0  0  0  0  0  0  0  0
   35.4970   27.8950   48.1350 H   0  0  0  0  0  0  0  0  0  0  0  0
   34.3560   29.1550   47.6320 H   0  0  0  0  0  0  0  0  0  0  0  0
   33.5080   27.2040   48.1410 C   0  0  0  0  0  0  0  0  0  0  0  0
   33.4600   26.5820   49.0370 H   0  0  0  0  0  0  0  0  0  0  0  0
   33.8120   26.5350   47.3000 H   0  0  0  0  0  0  0  0  0  0  0  0
   32.1390   27.6900   47.7990 C   0  0  0  0  0  0  0  0  0  0  0  0
   31.1590   27.6240   48.7940 C   0  0  0  0  0  0  0  0  0  0  0  0
   29.8750   28.0490   48.5650 C   0  0  0  0  0  0  0  0  0  0  0  0
   29.5490   28.5390   47.3640 N   0  0  0  0  0  0  0  0  0  0  0  0
   30.5210   28.5940   46.4110 C   0  0  0  0  0  0  0  0  0  0  0  0
   31.7870   28.1860   46.6000 N   0  0  0  0  0  0  0  0  0  0  0  0
   31.3540   27.2390   49.7870 H   0  0  0  0  0  0  0  0  0  0  0  0
   29.0980   28.0070   49.3210 H   0  0  0  0  0  0  0  0  0  0  0  0
   30.1040   29.1510   45.0800 C   0  0  0  0  0  0  0  0  0  0  0  0
   30.5760   28.4920   44.3220 H   0  0  0  0  0  0  0  0  0  0  0  0
   29.0050   29.0120   44.9710 H   0  0  0  0  0  0  0  0  0  0  0  0
   30.4950   30.5780   44.9540 C   0  0  0  0  0  0  0  0  0  0  0  0
   29.6630   31.5590   44.4480 C   0  0  0  0  0  0  0  0  0  0  0  0
   28.6400   31.3840   44.0920 H   0  0  0  0  0  0  0  0  0  0  0  0
   30.4030   32.7250   44.5040 C   0  0  0  0  0  0  0  0  0  0  0  0
   29.9470   33.6490   44.1530 H   0  0  0  0  0  0  0  0  0  0  0  0
   31.6500   32.3950   45.0440 C   0  0  0  0  0  0  0  0  0  0  0  0
   32.3530   33.2120   45.1540 H   0  0  0  0  0  0  0  0  0  0  0  0
   31.6290   31.1180   45.2820 O   0  0  0  0  0  0  0  0  0  0  0  0
   34.5240   28.7530   49.6890 O   0  0  0  0  0  0  0  0  0  0  0  0
   37.2480   30.0010   51.7120 C   0  0  0  0  0  0  0  0  0  0  0  0
   38.0110   30.6690   50.7290 C   0  0  0  0  0  0  0  0  0  0  0  0
   37.5290   30.6430   49.4270 C   0  0  0  0  0  0  0  0  0  0  0  0
   36.3560   29.9680   49.2230 N   0  0  0  0  0  0  0  0  0  0  0  0
   35.6530   29.3460   50.1580 C   0  0  0  0  0  0  0  0  0  0  0  0
   36.1170   29.3680   51.4270 N   0  0  0  0  0  0  0  0  0  0  0  0
   37.6550   30.0430   52.7200 H   0  0  0  0  0  0  0  0  0  0  0  0
   38.9270   31.1940   50.9010 H   0  0  0  0  0  0  0  0  0  0  0  0
   38.8990   33.1960   49.3180 F   0  0  0  0  0  0  0  0  0  0  0  0
   38.8070   32.4490   48.2230 C   0  0  0  0  0  0  0  0  0  0  0  0
   38.1720   31.2700   48.2840 C   0  0  0  0  0  0  0  0  0  0  0  0
   38.1350   30.5730   47.0880 C   0  0  0  0  0  0  0  0  0  0  0  0
   38.6990   31.0450   45.9340 C   0  0  0  0  0  0  0  0  0  0  0  0
   39.3460   32.2670   45.9120 C   0  0  0  0  0  0  0  0  0  0  0  0
   39.3910   32.9620   47.0770 C   0  0  0  0  0  0  0  0  0  0  0  0
   37.6420   29.5960   47.0140 H   0  0  0  0  0  0  0  0  0  0  0  0
   38.6530   30.4770   45.0110 H   0  0  0  0  0  0  0  0  0  0  0  0
   39.8070   32.6800   45.0180 H   0  0  0  0  0  0  0  0  0  0  0  0
   39.8920   33.9210   47.0860 H   0  0  0  0  0  0  0  0  0  0  0  0
  1 26  1  0  0  0  0
  2  1  1  0  0  0  0
  3  1  1  0  0  0  0
  4  1  1  0  0  0  0
  4  5  1  0  0  0  0
  6  4  1  0  0  0  0
  7  4  1  0  0  0  0
  7  8  1  0  0  0  0
  8 13  1  0  0  0  0
  9  8  2  0  0  0  0
  9 14  1  0  0  0  0
 10  9  1  0  0  0  0
 11 12  1  0  0  0  0
 11 10  2  0  0  0  0
 12  7  2  0  0  0  0
 15 11  1  0  0  0  0
 16 15  1  0  0  0  0
 17 15  1  0  0  0  0
 18 15  1  0  0  0  0
 18 25  1  0  0  0  0
 19 21  1  0  0  0  0
 19 18  2  0  0  0  0
 20 19  1  0  0  0  0
 21 23  2  0  0  0  0
 22 21  1  0  0  0  0
 23 24  1  0  0  0  0
 23 25  1  0  0  0  0
 26 31  1  0  0  0  0
 27 33  1  0  0  0  0
 28 34  1  0  0  0  0
 28 27  2  0  0  0  0
 29 28  1  0  0  0  0
 30 29  2  0  0  0  0
 30 31  1  0  0  0  0
 31 32  2  0  0  0  0
 32 27  1  0  0  0  0
 36 37  1  0  0  0  0
 36 35  1  0  0  0  0
 37 29  1  0  0  0  0
 38 37  2  0  0  0  0
 39 38  1  0  0  0  0
 40 39  2  0  0  0  0
 40 41  1  0  0  0  0
 41 45  1  0  0  0  0
 41 36  2  0  0  0  0
 42 38  1  0  0  0  0
 43 39  1  0  0  0  0
 44 40  1  0  0  0  0
M  END
>  <minimizedAffinity>
-6.29835749

>  <minimizedRMSD>
0.997441113

$$$$
