
 OpenBabel03272504293D

 41 44  0  0  0  0  0  0  0  0999 V2000
   38.0140   25.8170   33.5710 C   0  0  0  0  0  0  0  0  0  0  0  0
   37.9690   27.0370   34.1060 C   0  0  0  0  0  0  0  0  0  0  0  0
   38.9030   27.4530   34.9680 C   0  0  0  0  0  0  0  0  0  0  0  0
   39.9140   26.6100   35.2990 N   0  0  0  0  0  0  0  0  0  0  0  0
   39.9560   25.3980   34.7650 C   0  0  0  0  0  0  0  0  0  0  0  0
   39.0240   24.9700   33.9000 N   0  0  0  0  0  0  0  0  0  0  0  0
   37.1710   27.7280   33.8570 H   0  0  0  0  0  0  0  0  0  0  0  0
   38.8620   28.4480   35.4020 H   0  0  0  0  0  0  0  0  0  0  0  0
   40.9130   23.5590   36.0880 C   0  0  0  0  0  0  0  0  0  0  0  0
   41.0890   24.5980   35.1700 C   0  0  0  0  0  0  0  0  0  0  0  0
   42.3090   24.9440   34.6230 C   0  0  0  0  0  0  0  0  0  0  0  0
   43.4310   24.2380   34.9890 C   0  0  0  0  0  0  0  0  0  0  0  0
   43.3590   23.2030   35.8840 C   0  0  0  0  0  0  0  0  0  0  0  0
   42.1170   22.9290   36.3750 C   0  0  0  0  0  0  0  0  0  0  0  0
   42.3980   25.7550   33.9130 H   0  0  0  0  0  0  0  0  0  0  0  0
   44.3790   24.5270   34.5460 H   0  0  0  0  0  0  0  0  0  0  0  0
   44.2180   22.6490   36.1760 H   0  0  0  0  0  0  0  0  0  0  0  0
   42.0600   22.0990   37.0930 H   0  0  0  0  0  0  0  0  0  0  0  0
   39.4570   23.0980   36.7530 S   0  0  0  0  0  0  0  0  0  0  0  0
   40.0240   22.6340   38.1350 O   0  0  0  0  0  0  0  0  0  0  0  0
   38.9830   21.8840   35.9950 O   0  0  0  0  0  0  0  0  0  0  0  0
   38.0740   23.4100   37.4870 C   0  0  0  0  0  0  0  0  0  0  0  0
   36.8960   22.6340   37.3540 F   0  0  0  0  0  0  0  0  0  0  0  0
   37.3950   24.5280   36.8200 F   0  0  0  0  0  0  0  0  0  0  0  0
   38.0140   24.1900   38.6770 F   0  0  0  0  0  0  0  0  0  0  0  0
   35.3610   25.6380   31.0310 C   0  0  0  0  0  0  0  0  0  0  0  0
   35.1810   24.2470   30.8670 C   0  0  0  0  0  0  0  0  0  0  0  0
   35.9900   23.3970   31.6460 C   0  0  0  0  0  0  0  0  0  0  0  0
   36.8710   23.9710   32.4870 N   0  0  0  0  0  0  0  0  0  0  0  0
   37.0240   25.3190   32.6260 C   0  0  0  0  0  0  0  0  0  0  0  0
   36.2660   26.1360   31.8950 N   0  0  0  0  0  0  0  0  0  0  0  0
   34.7170   26.2650   30.4110 H   0  0  0  0  0  0  0  0  0  0  0  0
   34.4670   23.8260   30.1860 H   0  0  0  0  0  0  0  0  0  0  0  0
   35.8810   21.9430   31.5500 C   0  0  0  0  0  0  0  0  0  0  0  0
   34.9970   21.1880   32.2930 C   0  0  0  0  0  0  0  0  0  0  0  0
   34.2710   21.4620   33.0270 H   0  0  0  0  0  0  0  0  0  0  0  0
   35.1790   19.8470   31.9320 C   0  0  0  0  0  0  0  0  0  0  0  0
   34.7260   18.9090   32.2380 H   0  0  0  0  0  0  0  0  0  0  0  0
   36.1910   19.8880   30.9680 C   0  0  0  0  0  0  0  0  0  0  0  0
   36.6400   19.0660   30.4240 H   0  0  0  0  0  0  0  0  0  0  0  0
   36.5520   21.1390   30.7950 O   0  0  0  0  0  0  0  0  0  0  0  0
  1  6  2  0  0  0  0
  1  2  1  0  0  0  0
  2  3  2  0  0  0  0
  3  4  1  0  0  0  0
  3  8  1  0  0  0  0
  5 10  1  0  0  0  0
  5  4  2  0  0  0  0
  6  5  1  0  0  0  0
  7  2  1  0  0  0  0
  9 14  1  0  0  0  0
  9 19  1  0  0  0  0
 10  9  2  0  0  0  0
 11 12  2  0  0  0  0
 11 10  1  0  0  0  0
 12 13  1  0  0  0  0
 13 17  1  0  0  0  0
 13 14  2  0  0  0  0
 14 18  1  0  0  0  0
 15 11  1  0  0  0  0
 16 12  1  0  0  0  0
 19 22  1  0  0  0  0
 19 20  2  0  0  0  0
 21 19  2  0  0  0  0
 22 25  1  0  0  0  0
 23 22  1  0  0  0  0
 24 22  1  0  0  0  0
 26 31  1  0  0  0  0
 27 26  2  0  0  0  0
 27 28  1  0  0  0  0
 28 29  2  0  0  0  0
 29 30  1  0  0  0  0
 30  1  1  0  0  0  0
 31 30  2  0  0  0  0
 32 26  1  0  0  0  0
 33 27  1  0  0  0  0
 34 28  1  0  0  0  0
 34 35  2  0  0  0  0
 35 36  1  0  0  0  0
 37 38  1  0  0  0  0
 37 35  1  0  0  0  0
 39 37  2  0  0  0  0
 40 39  1  0  0  0  0
 41 39  1  0  0  0  0
 41 34  1  0  0  0  0
M  END
>  <minimizedAffinity>
-7.01217413

$$$$

 OpenBabel03272504293D

 41 44  0  0  0  0  0  0  0  0999 V2000
   36.2940   28.1300   33.1990 C   0  0  0  0  0  0  0  0  0  0  0  0
   36.0340   28.6210   31.9870 C   0  0  0  0  0  0  0  0  0  0  0  0
   35.3390   29.7540   31.8300 C   0  0  0  0  0  0  0  0  0  0  0  0
   34.8950   30.4090   32.9320 N   0  0  0  0  0  0  0  0  0  0  0  0
   35.1550   29.9180   34.1350 C   0  0  0  0  0  0  0  0  0  0  0  0
   35.8500   28.7830   34.3040 N   0  0  0  0  0  0  0  0  0  0  0  0
   36.3790   28.1150   31.0920 H   0  0  0  0  0  0  0  0  0  0  0  0
   35.1300   30.1510   30.8410 H   0  0  0  0  0  0  0  0  0  0  0  0
   33.3270   30.5680   35.6470 C   0  0  0  0  0  0  0  0  0  0  0  0
   34.6540   30.7130   35.2330 C   0  0  0  0  0  0  0  0  0  0  0  0
   35.5440   31.6050   35.7980 C   0  0  0  0  0  0  0  0  0  0  0  0
   35.1200   32.4100   36.8300 C   0  0  0  0  0  0  0  0  0  0  0  0
   33.8360   32.3410   37.3040 C   0  0  0  0  0  0  0  0  0  0  0  0
   33.0250   31.4330   36.6900 C   0  0  0  0  0  0  0  0  0  0  0  0
   36.5640   31.6820   35.4470 H   0  0  0  0  0  0  0  0  0  0  0  0
   35.8370   33.1030   37.2590 H   0  0  0  0  0  0  0  0  0  0  0  0
   33.4960   32.9570   38.1010 H   0  0  0  0  0  0  0  0  0  0  0  0
   31.9960   31.3790   37.0700 H   0  0  0  0  0  0  0  0  0  0  0  0
   32.2320   29.4890   35.0060 S   0  0  0  0  0  0  0  0  0  0  0  0
   30.9520   30.3500   35.2640 O   0  0  0  0  0  0  0  0  0  0  0  0
   32.1970   28.2900   35.9190 O   0  0  0  0  0  0  0  0  0  0  0  0
   31.4610   28.8120   33.7820 C   0  0  0  0  0  0  0  0  0  0  0  0
   30.9930   27.4760   33.7630 F   0  0  0  0  0  0  0  0  0  0  0  0
   32.4140   28.4780   32.7160 F   0  0  0  0  0  0  0  0  0  0  0  0
   30.7690   29.5870   32.8100 F   0  0  0  0  0  0  0  0  0  0  0  0
   38.3400   25.1200   32.6740 C   0  0  0  0  0  0  0  0  0  0  0  0
   38.4500   24.5880   33.9780 C   0  0  0  0  0  0  0  0  0  0  0  0
   37.8080   25.2910   35.0160 C   0  0  0  0  0  0  0  0  0  0  0  0
   37.1390   26.4130   34.6910 N   0  0  0  0  0  0  0  0  0  0  0  0
   37.0480   26.9040   33.4210 C   0  0  0  0  0  0  0  0  0  0  0  0
   37.6510   26.2500   32.4290 N   0  0  0  0  0  0  0  0  0  0  0  0
   38.8490   24.5490   31.8960 H   0  0  0  0  0  0  0  0  0  0  0  0
   38.9930   23.6900   34.1990 H   0  0  0  0  0  0  0  0  0  0  0  0
   37.8630   24.8230   36.3990 C   0  0  0  0  0  0  0  0  0  0  0  0
   37.7360   23.5000   36.7690 C   0  0  0  0  0  0  0  0  0  0  0  0
   37.5860   22.6130   36.1930 H   0  0  0  0  0  0  0  0  0  0  0  0
   37.8410   23.4390   38.1640 C   0  0  0  0  0  0  0  0  0  0  0  0
   37.8030   22.6360   38.8950 H   0  0  0  0  0  0  0  0  0  0  0  0
   38.0270   24.7690   38.5510 C   0  0  0  0  0  0  0  0  0  0  0  0
   38.1540   25.1720   39.5480 H   0  0  0  0  0  0  0  0  0  0  0  0
   38.0300   25.5200   37.4740 O   0  0  0  0  0  0  0  0  0  0  0  0
  1 30  1  0  0  0  0
  1  6  1  0  0  0  0
  2  1  2  0  0  0  0
  3  2  1  0  0  0  0
  3  4  2  0  0  0  0
  4  5  1  0  0  0  0
  5  6  2  0  0  0  0
  5 10  1  0  0  0  0
  7  2  1  0  0  0  0
  8  3  1  0  0  0  0
  9 14  1  0  0  0  0
 10  9  2  0  0  0  0
 10 11  1  0  0  0  0
 11 12  2  0  0  0  0
 12 16  1  0  0  0  0
 12 13  1  0  0  0  0
 13 17  1  0  0  0  0
 14 18  1  0  0  0  0
 14 13  2  0  0  0  0
 15 11  1  0  0  0  0
 19 20  2  0  0  0  0
 19  9  1  0  0  0  0
 19 21  2  0  0  0  0
 22 19  1  0  0  0  0
 23 22  1  0  0  0  0
 24 22  1  0  0  0  0
 25 22  1  0  0  0  0
 26 27  1  0  0  0  0
 27 33  1  0  0  0  0
 27 28  2  0  0  0  0
 28 34  1  0  0  0  0
 29 28  1  0  0  0  0
 30 29  2  0  0  0  0
 31 26  2  0  0  0  0
 31 30  1  0  0  0  0
 32 26  1  0  0  0  0
 34 35  2  0  0  0  0
 34 41  1  0  0  0  0
 35 37  1  0  0  0  0
 36 35  1  0  0  0  0
 37 39  2  0  0  0  0
 37 38  1  0  0  0  0
 39 40  1  0  0  0  0
 41 39  1  0  0  0  0
M  END
>  <minimizedAffinity>
-6.89324856

$$$$

 OpenBabel03272504293D

 41 44  0  0  0  0  0  0  0  0999 V2000
   36.3380   28.2910   33.1020 C   0  0  0  0  0  0  0  0  0  0  0  0
   35.9970   28.7600   31.9020 C   0  0  0  0  0  0  0  0  0  0  0  0
   35.2370   29.8530   31.7730 C   0  0  0  0  0  0  0  0  0  0  0  0
   34.8100   30.4920   32.8920 N   0  0  0  0  0  0  0  0  0  0  0  0
   35.1510   30.0230   34.0830 C   0  0  0  0  0  0  0  0  0  0  0  0
   35.9120   28.9270   34.2240 N   0  0  0  0  0  0  0  0  0  0  0  0
   36.3260   28.2670   30.9940 H   0  0  0  0  0  0  0  0  0  0  0  0
   34.9620   30.2330   30.7930 H   0  0  0  0  0  0  0  0  0  0  0  0
   33.3610   30.5910   35.6710 C   0  0  0  0  0  0  0  0  0  0  0  0
   34.6610   30.7970   35.2000 C   0  0  0  0  0  0  0  0  0  0  0  0
   35.5310   31.7330   35.7250 C   0  0  0  0  0  0  0  0  0  0  0  0
   35.1130   32.5200   36.7730 C   0  0  0  0  0  0  0  0  0  0  0  0
   33.8560   32.3930   37.3010 C   0  0  0  0  0  0  0  0  0  0  0  0
   33.0630   31.4460   36.7240 C   0  0  0  0  0  0  0  0  0  0  0  0
   36.5300   31.8560   35.3300 H   0  0  0  0  0  0  0  0  0  0  0  0
   35.8150   33.2490   37.1690 H   0  0  0  0  0  0  0  0  0  0  0  0
   33.5210   32.9960   38.1100 H   0  0  0  0  0  0  0  0  0  0  0  0
   32.0550   31.3440   37.1480 H   0  0  0  0  0  0  0  0  0  0  0  0
   32.2920   29.4590   35.0800 S   0  0  0  0  0  0  0  0  0  0  0  0
   31.0380   30.3930   35.0400 O   0  0  0  0  0  0  0  0  0  0  0  0
   32.0900   28.4270   36.1590 O   0  0  0  0  0  0  0  0  0  0  0  0
   31.6330   28.6170   33.8930 C   0  0  0  0  0  0  0  0  0  0  0  0
   32.2170   28.4260   32.6180 F   0  0  0  0  0  0  0  0  0  0  0  0
   30.5560   29.3950   33.2680 F   0  0  0  0  0  0  0  0  0  0  0  0
   30.6540   27.6140   34.1390 F   0  0  0  0  0  0  0  0  0  0  0  0
   39.0260   26.0180   34.1660 C   0  0  0  0  0  0  0  0  0  0  0  0
   38.6450   24.7900   33.5820 C   0  0  0  0  0  0  0  0  0  0  0  0
   37.4550   24.7790   32.8270 C   0  0  0  0  0  0  0  0  0  0  0  0
   36.7720   25.9340   32.7190 N   0  0  0  0  0  0  0  0  0  0  0  0
   37.1650   27.1070   33.2940 C   0  0  0  0  0  0  0  0  0  0  0  0
   38.2880   27.1330   34.0110 N   0  0  0  0  0  0  0  0  0  0  0  0
   39.9520   25.9880   34.7420 H   0  0  0  0  0  0  0  0  0  0  0  0
   39.2150   23.8890   33.6900 H   0  0  0  0  0  0  0  0  0  0  0  0
   36.9740   23.5590   32.1830 C   0  0  0  0  0  0  0  0  0  0  0  0
   35.7190   23.4280   31.6250 C   0  0  0  0  0  0  0  0  0  0  0  0
   34.9030   24.1110   31.5450 H   0  0  0  0  0  0  0  0  0  0  0  0
   35.6210   22.1310   31.1060 C   0  0  0  0  0  0  0  0  0  0  0  0
   34.8440   21.5770   30.5870 H   0  0  0  0  0  0  0  0  0  0  0  0
   36.8590   21.5520   31.3960 C   0  0  0  0  0  0  0  0  0  0  0  0
   37.2090   20.5530   31.1690 H   0  0  0  0  0  0  0  0  0  0  0  0
   37.5980   22.4390   32.0230 O   0  0  0  0  0  0  0  0  0  0  0  0
  1 30  1  0  0  0  0
  1  6  1  0  0  0  0
  2  1  2  0  0  0  0
  3  2  1  0  0  0  0
  3  4  2  0  0  0  0
  4  5  1  0  0  0  0
  5  6  2  0  0  0  0
  5 10  1  0  0  0  0
  7  2  1  0  0  0  0
  8  3  1  0  0  0  0
  9 14  1  0  0  0  0
 10  9  2  0  0  0  0
 10 11  1  0  0  0  0
 11 12  2  0  0  0  0
 12 16  1  0  0  0  0
 12 13  1  0  0  0  0
 13 17  1  0  0  0  0
 14 18  1  0  0  0  0
 14 13  2  0  0  0  0
 15 11  1  0  0  0  0
 19  9  1  0  0  0  0
 19 21  2  0  0  0  0
 20 19  2  0  0  0  0
 22 25  1  0  0  0  0
 22 19  1  0  0  0  0
 23 22  1  0  0  0  0
 24 22  1  0  0  0  0
 26 32  1  0  0  0  0
 27 33  1  0  0  0  0
 27 26  2  0  0  0  0
 28 27  1  0  0  0  0
 29 28  2  0  0  0  0
 29 30  1  0  0  0  0
 30 31  2  0  0  0  0
 31 26  1  0  0  0  0
 34 28  1  0  0  0  0
 35 34  2  0  0  0  0
 36 35  1  0  0  0  0
 37 39  2  0  0  0  0
 37 35  1  0  0  0  0
 38 37  1  0  0  0  0
 39 41  1  0  0  0  0
 40 39  1  0  0  0  0
 41 34  1  0  0  0  0
M  END
>  <minimizedAffinity>
-6.56220865

$$$$

 OpenBabel03272504293D

 41 44  0  0  0  0  0  0  0  0999 V2000
   35.7150   28.7590   32.3360 C   0  0  0  0  0  0  0  0  0  0  0  0
   35.6130   29.5740   31.2860 C   0  0  0  0  0  0  0  0  0  0  0  0
   35.1910   30.8360   31.4230 C   0  0  0  0  0  0  0  0  0  0  0  0
   34.8620   31.2870   32.6610 N   0  0  0  0  0  0  0  0  0  0  0  0
   34.9650   30.4740   33.7020 C   0  0  0  0  0  0  0  0  0  0  0  0
   35.3860   29.2070   33.5750 N   0  0  0  0  0  0  0  0  0  0  0  0
   35.8700   29.2370   30.2880 H   0  0  0  0  0  0  0  0  0  0  0  0
   35.1090   31.4970   30.5650 H   0  0  0  0  0  0  0  0  0  0  0  0
   33.4130   30.7160   35.5950 C   0  0  0  0  0  0  0  0  0  0  0  0
   34.6120   31.0700   34.9710 C   0  0  0  0  0  0  0  0  0  0  0  0
   35.5030   31.9940   35.4810 C   0  0  0  0  0  0  0  0  0  0  0  0
   35.2110   32.6160   36.6720 C   0  0  0  0  0  0  0  0  0  0  0  0
   34.0580   32.3360   37.3570 C   0  0  0  0  0  0  0  0  0  0  0  0
   33.2370   31.4120   36.7830 C   0  0  0  0  0  0  0  0  0  0  0  0
   36.4210   32.2350   34.9640 H   0  0  0  0  0  0  0  0  0  0  0  0
   35.9260   33.3390   37.0540 H   0  0  0  0  0  0  0  0  0  0  0  0
   33.8210   32.8100   38.2790 H   0  0  0  0  0  0  0  0  0  0  0  0
   32.3120   31.1890   37.3330 H   0  0  0  0  0  0  0  0  0  0  0  0
   32.3260   29.5910   35.0220 S   0  0  0  0  0  0  0  0  0  0  0  0
   31.0950   30.5520   34.9370 O   0  0  0  0  0  0  0  0  0  0  0  0
   32.0850   28.5970   36.1300 O   0  0  0  0  0  0  0  0  0  0  0  0
   31.6640   28.7290   33.8520 C   0  0  0  0  0  0  0  0  0  0  0  0
   32.2300   28.5410   32.5680 F   0  0  0  0  0  0  0  0  0  0  0  0
   30.5610   29.4810   33.2410 F   0  0  0  0  0  0  0  0  0  0  0  0
   30.7090   27.7070   34.1210 F   0  0  0  0  0  0  0  0  0  0  0  0
   36.3940   25.3620   31.1020 C   0  0  0  0  0  0  0  0  0  0  0  0
   37.0950   24.7750   32.1770 C   0  0  0  0  0  0  0  0  0  0  0  0
   37.3180   25.5770   33.3140 C   0  0  0  0  0  0  0  0  0  0  0  0
   36.8480   26.8380   33.2920 N   0  0  0  0  0  0  0  0  0  0  0  0
   36.1730   27.3800   32.2370 C   0  0  0  0  0  0  0  0  0  0  0  0
   35.9550   26.6340   31.1550 N   0  0  0  0  0  0  0  0  0  0  0  0
   36.2410   24.7120   30.2390 H   0  0  0  0  0  0  0  0  0  0  0  0
   37.4550   23.7650   32.1600 H   0  0  0  0  0  0  0  0  0  0  0  0
   38.0330   25.0630   34.4800 C   0  0  0  0  0  0  0  0  0  0  0  0
   37.6960   25.3650   35.7840 C   0  0  0  0  0  0  0  0  0  0  0  0
   36.9220   25.9760   36.1930 H   0  0  0  0  0  0  0  0  0  0  0  0
   38.5980   24.6950   36.6200 C   0  0  0  0  0  0  0  0  0  0  0  0
   38.7310   24.6280   37.6960 H   0  0  0  0  0  0  0  0  0  0  0  0
   39.4410   24.0150   35.7370 C   0  0  0  0  0  0  0  0  0  0  0  0
   40.2820   23.3720   35.9650 H   0  0  0  0  0  0  0  0  0  0  0  0
   39.0550   24.2730   34.5090 O   0  0  0  0  0  0  0  0  0  0  0  0
  1  6  1  0  0  0  0
  2  3  1  0  0  0  0
  2  1  2  0  0  0  0
  3  4  2  0  0  0  0
  4  5  1  0  0  0  0
  5 10  1  0  0  0  0
  6  5  2  0  0  0  0
  7  2  1  0  0  0  0
  8  3  1  0  0  0  0
  9 14  1  0  0  0  0
 10 11  1  0  0  0  0
 10  9  2  0  0  0  0
 11 12  2  0  0  0  0
 12 16  1  0  0  0  0
 12 13  1  0  0  0  0
 13 17  1  0  0  0  0
 14 18  1  0  0  0  0
 14 13  2  0  0  0  0
 15 11  1  0  0  0  0
 19  9  1  0  0  0  0
 19 21  2  0  0  0  0
 20 19  2  0  0  0  0
 22 25  1  0  0  0  0
 22 19  1  0  0  0  0
 23 22  1  0  0  0  0
 24 22  1  0  0  0  0
 26 31  2  0  0  0  0
 26 27  1  0  0  0  0
 27 28  2  0  0  0  0
 28 34  1  0  0  0  0
 29 28  1  0  0  0  0
 30  1  1  0  0  0  0
 30 29  2  0  0  0  0
 31 30  1  0  0  0  0
 32 26  1  0  0  0  0
 33 27  1  0  0  0  0
 34 41  1  0  0  0  0
 34 35  2  0  0  0  0
 35 36  1  0  0  0  0
 35 37  1  0  0  0  0
 37 38  1  0  0  0  0
 39 40  1  0  0  0  0
 39 37  2  0  0  0  0
 41 39  1  0  0  0  0
M  END
>  <minimizedAffinity>
-6.39184523

$$$$

 OpenBabel03272504293D

 41 44  0  0  0  0  0  0  0  0999 V2000
   37.6260   27.1470   34.1080 C   0  0  0  0  0  0  0  0  0  0  0  0
   38.6280   27.4810   34.9220 C   0  0  0  0  0  0  0  0  0  0  0  0
   39.6140   26.6210   35.2010 C   0  0  0  0  0  0  0  0  0  0  0  0
   39.5860   25.3860   34.6380 N   0  0  0  0  0  0  0  0  0  0  0  0
   38.5890   25.0570   33.8300 C   0  0  0  0  0  0  0  0  0  0  0  0
   37.5950   25.9120   33.5440 N   0  0  0  0  0  0  0  0  0  0  0  0
   38.6710   28.4620   35.3830 H   0  0  0  0  0  0  0  0  0  0  0  0
   40.4280   26.8980   35.8640 H   0  0  0  0  0  0  0  0  0  0  0  0
   38.4370   22.6160   34.0830 C   0  0  0  0  0  0  0  0  0  0  0  0
   38.6780   23.7280   33.2710 C   0  0  0  0  0  0  0  0  0  0  0  0
   39.0290   23.6460   31.9380 C   0  0  0  0  0  0  0  0  0  0  0  0
   39.1560   22.4070   31.3540 C   0  0  0  0  0  0  0  0  0  0  0  0
   38.9420   21.2590   32.0700 C   0  0  0  0  0  0  0  0  0  0  0  0
   38.5990   21.4310   33.3780 C   0  0  0  0  0  0  0  0  0  0  0  0
   39.2030   24.5350   31.3470 H   0  0  0  0  0  0  0  0  0  0  0  0
   39.4320   22.3680   30.3050 H   0  0  0  0  0  0  0  0  0  0  0  0
   39.0370   20.2950   31.6310 H   0  0  0  0  0  0  0  0  0  0  0  0
   38.4280   20.5090   33.9510 H   0  0  0  0  0  0  0  0  0  0  0  0
   37.9910   22.6740   35.6870 S   0  0  0  0  0  0  0  0  0  0  0  0
   39.3320   22.1220   36.2710 O   0  0  0  0  0  0  0  0  0  0  0  0
   36.9150   21.6390   35.8900 O   0  0  0  0  0  0  0  0  0  0  0  0
   37.7700   23.4440   37.0680 C   0  0  0  0  0  0  0  0  0  0  0  0
   37.6100   24.8450   37.1950 F   0  0  0  0  0  0  0  0  0  0  0  0
   39.0420   23.5380   37.7960 F   0  0  0  0  0  0  0  0  0  0  0  0
   37.2540   22.7860   38.2210 F   0  0  0  0  0  0  0  0  0  0  0  0
   34.8900   28.8400   32.3270 C   0  0  0  0  0  0  0  0  0  0  0  0
   34.4730   29.8190   33.2550 C   0  0  0  0  0  0  0  0  0  0  0  0
   35.1570   29.8700   34.4870 C   0  0  0  0  0  0  0  0  0  0  0  0
   36.1520   28.9850   34.6870 N   0  0  0  0  0  0  0  0  0  0  0  0
   36.5330   28.0490   33.7710 C   0  0  0  0  0  0  0  0  0  0  0  0
   35.8960   27.9880   32.6020 N   0  0  0  0  0  0  0  0  0  0  0  0
   34.3380   28.8300   31.3860 H   0  0  0  0  0  0  0  0  0  0  0  0
   33.6750   30.5080   33.0610 H   0  0  0  0  0  0  0  0  0  0  0  0
   34.8020   30.8460   35.5140 C   0  0  0  0  0  0  0  0  0  0  0  0
   33.5270   31.0030   36.0190 C   0  0  0  0  0  0  0  0  0  0  0  0
   32.6100   30.5020   35.7990 H   0  0  0  0  0  0  0  0  0  0  0  0
   33.5750   32.0230   36.9770 C   0  0  0  0  0  0  0  0  0  0  0  0
   32.8400   32.4910   37.6250 H   0  0  0  0  0  0  0  0  0  0  0  0
   34.9140   32.4240   36.9830 C   0  0  0  0  0  0  0  0  0  0  0  0
   35.3870   33.1920   37.5820 H   0  0  0  0  0  0  0  0  0  0  0  0
   35.5710   31.6970   36.1090 O   0  0  0  0  0  0  0  0  0  0  0  0
  1  2  1  0  0  0  0
  2  3  2  0  0  0  0
  2  7  1  0  0  0  0
  3  8  1  0  0  0  0
  4  3  1  0  0  0  0
  5  4  2  0  0  0  0
  6  5  1  0  0  0  0
  6  1  2  0  0  0  0
  9 19  1  0  0  0  0
 10  5  1  0  0  0  0
 10  9  2  0  0  0  0
 11 10  1  0  0  0  0
 12 11  2  0  0  0  0
 12 13  1  0  0  0  0
 13 14  2  0  0  0  0
 14 18  1  0  0  0  0
 14  9  1  0  0  0  0
 15 11  1  0  0  0  0
 16 12  1  0  0  0  0
 17 13  1  0  0  0  0
 19 21  2  0  0  0  0
 19 20  2  0  0  0  0
 19 22  1  0  0  0  0
 22 23  1  0  0  0  0
 22 24  1  0  0  0  0
 22 25  1  0  0  0  0
 26 31  2  0  0  0  0
 26 27  1  0  0  0  0
 27 28  2  0  0  0  0
 28 29  1  0  0  0  0
 28 34  1  0  0  0  0
 30  1  1  0  0  0  0
 30 29  2  0  0  0  0
 31 30  1  0  0  0  0
 32 26  1  0  0  0  0
 33 27  1  0  0  0  0
 34 35  2  0  0  0  0
 34 41  1  0  0  0  0
 35 37  1  0  0  0  0
 36 35  1  0  0  0  0
 37 39  2  0  0  0  0
 37 38  1  0  0  0  0
 39 40  1  0  0  0  0
 41 39  1  0  0  0  0
M  END
>  <minimizedAffinity>
-6.27088594

$$$$

 OpenBabel03272504293D

 41 44  0  0  0  0  0  0  0  0999 V2000
   36.7020   28.1500   33.9940 C   0  0  0  0  0  0  0  0  0  0  0  0
   36.4390   28.3580   32.7040 C   0  0  0  0  0  0  0  0  0  0  0  0
   35.6350   29.3510   32.3090 C   0  0  0  0  0  0  0  0  0  0  0  0
   35.0800   30.1580   33.2490 N   0  0  0  0  0  0  0  0  0  0  0  0
   35.3430   29.9490   34.5310 C   0  0  0  0  0  0  0  0  0  0  0  0
   36.1480   28.9550   34.9360 N   0  0  0  0  0  0  0  0  0  0  0  0
   36.8710   27.7260   31.9350 H   0  0  0  0  0  0  0  0  0  0  0  0
   35.4230   29.5170   31.2570 H   0  0  0  0  0  0  0  0  0  0  0  0
   33.3430   30.8050   35.6780 C   0  0  0  0  0  0  0  0  0  0  0  0
   34.7180   30.8850   35.4370 C   0  0  0  0  0  0  0  0  0  0  0  0
   35.5450   31.8360   36.0000 C   0  0  0  0  0  0  0  0  0  0  0  0
   35.0050   32.7730   36.8510 C   0  0  0  0  0  0  0  0  0  0  0  0
   33.6670   32.7770   37.1460 C   0  0  0  0  0  0  0  0  0  0  0  0
   32.9240   31.8020   36.5480 C   0  0  0  0  0  0  0  0  0  0  0  0
   36.6050   31.8590   35.7860 H   0  0  0  0  0  0  0  0  0  0  0  0
   35.6740   33.5110   37.2820 H   0  0  0  0  0  0  0  0  0  0  0  0
   33.2370   33.4940   37.8020 H   0  0  0  0  0  0  0  0  0  0  0  0
   31.8520   31.8060   36.7860 H   0  0  0  0  0  0  0  0  0  0  0  0
   32.3190   29.6590   35.0350 S   0  0  0  0  0  0  0  0  0  0  0  0
   30.9810   30.3790   35.4100 O   0  0  0  0  0  0  0  0  0  0  0  0
   32.4500   28.4170   35.8800 O   0  0  0  0  0  0  0  0  0  0  0  0
   31.5450   28.9750   33.8180 C   0  0  0  0  0  0  0  0  0  0  0  0
   31.0240   27.6580   33.8310 F   0  0  0  0  0  0  0  0  0  0  0  0
   32.5030   28.5700   32.7820 F   0  0  0  0  0  0  0  0  0  0  0  0
   30.9030   29.7460   32.8080 F   0  0  0  0  0  0  0  0  0  0  0  0
   37.9450   25.0640   35.5620 C   0  0  0  0  0  0  0  0  0  0  0  0
   39.3350   25.1330   35.3250 C   0  0  0  0  0  0  0  0  0  0  0  0
   39.8130   26.2570   34.6220 C   0  0  0  0  0  0  0  0  0  0  0  0
   38.9130   27.1780   34.2290 N   0  0  0  0  0  0  0  0  0  0  0  0
   37.5740   27.0850   34.4720 C   0  0  0  0  0  0  0  0  0  0  0  0
   37.1070   26.0280   35.1360 N   0  0  0  0  0  0  0  0  0  0  0  0
   37.6120   24.1800   36.1090 H   0  0  0  0  0  0  0  0  0  0  0  0
   40.0230   24.3790   35.6540 H   0  0  0  0  0  0  0  0  0  0  0  0
   41.2340   26.4220   34.3270 C   0  0  0  0  0  0  0  0  0  0  0  0
   41.7300   27.3280   33.4110 C   0  0  0  0  0  0  0  0  0  0  0  0
   41.2410   28.0360   32.7790 H   0  0  0  0  0  0  0  0  0  0  0  0
   43.1240   27.1990   33.4020 C   0  0  0  0  0  0  0  0  0  0  0  0
   43.9280   27.6860   32.8570 H   0  0  0  0  0  0  0  0  0  0  0  0
   43.3810   26.1950   34.3390 C   0  0  0  0  0  0  0  0  0  0  0  0
   44.3350   25.7830   34.6430 H   0  0  0  0  0  0  0  0  0  0  0  0
   42.2370   25.7880   34.8390 O   0  0  0  0  0  0  0  0  0  0  0  0
  1 30  1  0  0  0  0
  1  6  1  0  0  0  0
  2  1  2  0  0  0  0
  3  2  1  0  0  0  0
  3  4  2  0  0  0  0
  4  5  1  0  0  0  0
  5  6  2  0  0  0  0
  5 10  1  0  0  0  0
  7  2  1  0  0  0  0
  8  3  1  0  0  0  0
  9 14  1  0  0  0  0
 10  9  2  0  0  0  0
 10 11  1  0  0  0  0
 11 12  2  0  0  0  0
 12 13  1  0  0  0  0
 12 16  1  0  0  0  0
 13 17  1  0  0  0  0
 14 18  1  0  0  0  0
 14 13  2  0  0  0  0
 15 11  1  0  0  0  0
 19 20  2  0  0  0  0
 19  9  1  0  0  0  0
 19 21  2  0  0  0  0
 22 23  1  0  0  0  0
 22 19  1  0  0  0  0
 24 22  1  0  0  0  0
 25 22  1  0  0  0  0
 26 32  1  0  0  0  0
 27 26  1  0  0  0  0
 27 33  1  0  0  0  0
 28 27  2  0  0  0  0
 29 30  2  0  0  0  0
 29 28  1  0  0  0  0
 30 31  1  0  0  0  0
 31 26  2  0  0  0  0
 34 28  1  0  0  0  0
 34 41  1  0  0  0  0
 35 34  2  0  0  0  0
 36 35  1  0  0  0  0
 37 35  1  0  0  0  0
 37 39  2  0  0  0  0
 38 37  1  0  0  0  0
 39 40  1  0  0  0  0
 39 41  1  0  0  0  0
M  END
>  <minimizedAffinity>
-6.23105717

$$$$

 OpenBabel03272504293D

 41 44  0  0  0  0  0  0  0  0999 V2000
   35.5650   29.1260   32.4290 C   0  0  0  0  0  0  0  0  0  0  0  0
   35.2670   29.9520   31.4260 C   0  0  0  0  0  0  0  0  0  0  0  0
   34.1930   30.7460   31.4750 C   0  0  0  0  0  0  0  0  0  0  0  0
   33.3950   30.7050   32.5730 N   0  0  0  0  0  0  0  0  0  0  0  0
   33.6940   29.8830   33.5680 C   0  0  0  0  0  0  0  0  0  0  0  0
   34.7690   29.0810   33.5280 N   0  0  0  0  0  0  0  0  0  0  0  0
   35.8890   30.0030   30.5390 H   0  0  0  0  0  0  0  0  0  0  0  0
   33.9530   31.4180   30.6550 H   0  0  0  0  0  0  0  0  0  0  0  0
   32.9900   30.8970   35.6950 C   0  0  0  0  0  0  0  0  0  0  0  0
   32.7890   29.9420   34.6930 C   0  0  0  0  0  0  0  0  0  0  0  0
   31.7730   29.0080   34.7120 C   0  0  0  0  0  0  0  0  0  0  0  0
   30.8950   28.9960   35.7700 C   0  0  0  0  0  0  0  0  0  0  0  0
   31.0110   29.8910   36.8010 C   0  0  0  0  0  0  0  0  0  0  0  0
   32.0410   30.7780   36.7020 C   0  0  0  0  0  0  0  0  0  0  0  0
   31.6550   28.2890   33.9120 H   0  0  0  0  0  0  0  0  0  0  0  0
   30.1030   28.2530   35.7630 H   0  0  0  0  0  0  0  0  0  0  0  0
   30.3390   29.8920   37.6240 H   0  0  0  0  0  0  0  0  0  0  0  0
   32.1340   31.4950   37.5290 H   0  0  0  0  0  0  0  0  0  0  0  0
   34.1890   32.0530   35.6970 S   0  0  0  0  0  0  0  0  0  0  0  0
   34.6610   31.8260   37.1710 O   0  0  0  0  0  0  0  0  0  0  0  0
   33.5140   33.3980   35.6090 O   0  0  0  0  0  0  0  0  0  0  0  0
   35.6640   32.5630   35.3620 C   0  0  0  0  0  0  0  0  0  0  0  0
   36.3390   32.3360   34.1380 F   0  0  0  0  0  0  0  0  0  0  0  0
   36.6520   31.7190   36.0460 F   0  0  0  0  0  0  0  0  0  0  0  0
   36.2520   33.6640   36.0480 F   0  0  0  0  0  0  0  0  0  0  0  0
   38.6880   27.4350   31.4750 C   0  0  0  0  0  0  0  0  0  0  0  0
   38.8830   26.5210   32.5340 C   0  0  0  0  0  0  0  0  0  0  0  0
   37.9190   26.5130   33.5620 C   0  0  0  0  0  0  0  0  0  0  0  0
   36.8880   27.3720   33.4590 N   0  0  0  0  0  0  0  0  0  0  0  0
   36.7260   28.2450   32.4240 C   0  0  0  0  0  0  0  0  0  0  0  0
   37.6290   28.2650   31.4440 N   0  0  0  0  0  0  0  0  0  0  0  0
   39.4540   27.4130   30.6980 H   0  0  0  0  0  0  0  0  0  0  0  0
   39.7180   25.8500   32.5810 H   0  0  0  0  0  0  0  0  0  0  0  0
   38.0300   25.6050   34.7010 C   0  0  0  0  0  0  0  0  0  0  0  0
   38.0290   26.0190   36.0180 C   0  0  0  0  0  0  0  0  0  0  0  0
   37.9550   26.9900   36.4560 H   0  0  0  0  0  0  0  0  0  0  0  0
   38.1500   24.8770   36.8190 C   0  0  0  0  0  0  0  0  0  0  0  0
   38.1950   24.7030   37.8910 H   0  0  0  0  0  0  0  0  0  0  0  0
   38.2190   23.8230   35.9050 C   0  0  0  0  0  0  0  0  0  0  0  0
   38.3170   22.7630   36.1020 H   0  0  0  0  0  0  0  0  0  0  0  0
   38.1430   24.3180   34.6910 O   0  0  0  0  0  0  0  0  0  0  0  0
  1  6  1  0  0  0  0
  2  3  1  0  0  0  0
  2  1  2  0  0  0  0
  3  4  2  0  0  0  0
  4  5  1  0  0  0  0
  5 10  1  0  0  0  0
  6  5  2  0  0  0  0
  7  2  1  0  0  0  0
  8  3  1  0  0  0  0
  9 19  1  0  0  0  0
  9 14  1  0  0  0  0
 10 11  1  0  0  0  0
 10  9  2  0  0  0  0
 11 12  2  0  0  0  0
 12 13  1  0  0  0  0
 13 17  1  0  0  0  0
 14 13  2  0  0  0  0
 14 18  1  0  0  0  0
 15 11  1  0  0  0  0
 16 12  1  0  0  0  0
 19 20  2  0  0  0  0
 21 19  2  0  0  0  0
 22 19  1  0  0  0  0
 22 24  1  0  0  0  0
 22 25  1  0  0  0  0
 23 22  1  0  0  0  0
 26 27  1  0  0  0  0
 27 33  1  0  0  0  0
 27 28  2  0  0  0  0
 28 34  1  0  0  0  0
 29 28  1  0  0  0  0
 30  1  1  0  0  0  0
 30 29  2  0  0  0  0
 31 26  2  0  0  0  0
 31 30  1  0  0  0  0
 32 26  1  0  0  0  0
 34 35  2  0  0  0  0
 35 36  1  0  0  0  0
 35 37  1  0  0  0  0
 37 38  1  0  0  0  0
 39 40  1  0  0  0  0
 39 37  2  0  0  0  0
 41 34  1  0  0  0  0
 41 39  1  0  0  0  0
M  END
>  <minimizedAffinity>
-6.21093464

$$$$

 OpenBabel03272504293D

 41 44  0  0  0  0  0  0  0  0999 V2000
   37.1600   27.9810   32.5450 C   0  0  0  0  0  0  0  0  0  0  0  0
   38.1030   27.8980   31.6070 C   0  0  0  0  0  0  0  0  0  0  0  0
   39.0240   26.9280   31.6320 C   0  0  0  0  0  0  0  0  0  0  0  0
   38.9890   26.0150   32.6360 N   0  0  0  0  0  0  0  0  0  0  0  0
   38.0490   26.1010   33.5670 C   0  0  0  0  0  0  0  0  0  0  0  0
   37.1220   27.0700   33.5510 N   0  0  0  0  0  0  0  0  0  0  0  0
   38.1520   28.6150   30.7960 H   0  0  0  0  0  0  0  0  0  0  0  0
   39.7920   26.8630   30.8660 H   0  0  0  0  0  0  0  0  0  0  0  0
   37.9190   23.7270   34.1940 C   0  0  0  0  0  0  0  0  0  0  0  0
   38.0950   25.0620   34.5690 C   0  0  0  0  0  0  0  0  0  0  0  0
   38.2920   25.4760   35.8720 C   0  0  0  0  0  0  0  0  0  0  0  0
   38.3190   24.5360   36.8760 C   0  0  0  0  0  0  0  0  0  0  0  0
   38.1540   23.2030   36.6060 C   0  0  0  0  0  0  0  0  0  0  0  0
   37.9650   22.8820   35.2950 C   0  0  0  0  0  0  0  0  0  0  0  0
   38.4270   26.5210   36.1160 H   0  0  0  0  0  0  0  0  0  0  0  0
   38.4760   24.8850   37.8920 H   0  0  0  0  0  0  0  0  0  0  0  0
   38.1720   22.4670   37.3730 H   0  0  0  0  0  0  0  0  0  0  0  0
   37.8330   21.8130   35.0800 H   0  0  0  0  0  0  0  0  0  0  0  0
   37.7010   23.1870   32.6330 S   0  0  0  0  0  0  0  0  0  0  0  0
   36.6040   22.1210   32.9590 O   0  0  0  0  0  0  0  0  0  0  0  0
   38.9630   22.4700   32.2270 O   0  0  0  0  0  0  0  0  0  0  0  0
   37.0750   23.3030   31.1690 C   0  0  0  0  0  0  0  0  0  0  0  0
   37.7890   23.7080   30.0150 F   0  0  0  0  0  0  0  0  0  0  0  0
   36.2560   24.5170   31.0710 F   0  0  0  0  0  0  0  0  0  0  0  0
   35.9060   22.5820   30.7930 F   0  0  0  0  0  0  0  0  0  0  0  0
   34.5920   30.3970   31.4990 C   0  0  0  0  0  0  0  0  0  0  0  0
   34.2010   30.9850   32.7220 C   0  0  0  0  0  0  0  0  0  0  0  0
   34.8420   30.5260   33.8900 C   0  0  0  0  0  0  0  0  0  0  0  0
   35.7760   29.5650   33.7550 N   0  0  0  0  0  0  0  0  0  0  0  0
   36.1330   29.0160   32.5590 C   0  0  0  0  0  0  0  0  0  0  0  0
   35.5360   29.4390   31.4460 N   0  0  0  0  0  0  0  0  0  0  0  0
   34.0740   30.7770   30.6160 H   0  0  0  0  0  0  0  0  0  0  0  0
   33.4520   31.7490   32.7910 H   0  0  0  0  0  0  0  0  0  0  0  0
   34.5090   31.0700   35.2040 C   0  0  0  0  0  0  0  0  0  0  0  0
   35.3630   31.8570   35.9500 C   0  0  0  0  0  0  0  0  0  0  0  0
   36.3530   32.2090   35.7580 H   0  0  0  0  0  0  0  0  0  0  0  0
   34.7030   32.1860   37.1400 C   0  0  0  0  0  0  0  0  0  0  0  0
   34.9650   32.7710   38.0170 H   0  0  0  0  0  0  0  0  0  0  0  0
   33.4610   31.5560   37.0280 C   0  0  0  0  0  0  0  0  0  0  0  0
   32.6380   31.5530   37.7320 H   0  0  0  0  0  0  0  0  0  0  0  0
   33.4160   30.9260   35.8770 O   0  0  0  0  0  0  0  0  0  0  0  0
  1 30  1  0  0  0  0
  1  6  1  0  0  0  0
  2  3  1  0  0  0  0
  2  1  2  0  0  0  0
  3  4  2  0  0  0  0
  4  5  1  0  0  0  0
  5 10  1  0  0  0  0
  6  5  2  0  0  0  0
  7  2  1  0  0  0  0
  8  3  1  0  0  0  0
  9 10  2  0  0  0  0
  9 14  1  0  0  0  0
 10 11  1  0  0  0  0
 11 15  1  0  0  0  0
 11 12  2  0  0  0  0
 12 16  1  0  0  0  0
 13 12  1  0  0  0  0
 13 17  1  0  0  0  0
 14 13  2  0  0  0  0
 18 14  1  0  0  0  0
 19 20  2  0  0  0  0
 19  9  1  0  0  0  0
 21 19  2  0  0  0  0
 22 19  1  0  0  0  0
 23 22  1  0  0  0  0
 24 22  1  0  0  0  0
 25 22  1  0  0  0  0
 26 27  1  0  0  0  0
 27 33  1  0  0  0  0
 27 28  2  0  0  0  0
 28 34  1  0  0  0  0
 29 28  1  0  0  0  0
 30 29  2  0  0  0  0
 31 26  2  0  0  0  0
 31 30  1  0  0  0  0
 32 26  1  0  0  0  0
 34 41  1  0  0  0  0
 34 35  2  0  0  0  0
 35 37  1  0  0  0  0
 36 35  1  0  0  0  0
 37 38  1  0  0  0  0
 39 37  2  0  0  0  0
 39 40  1  0  0  0  0
 41 39  1  0  0  0  0
M  END
>  <minimizedAffinity>
-6.16811562

$$$$

 OpenBabel03272504293D

 41 44  0  0  0  0  0  0  0  0999 V2000
   37.1550   27.7570   31.5260 C   0  0  0  0  0  0  0  0  0  0  0  0
   38.3100   27.9130   30.8780 C   0  0  0  0  0  0  0  0  0  0  0  0
   39.2130   26.9280   30.8210 C   0  0  0  0  0  0  0  0  0  0  0  0
   38.9400   25.7500   31.4380 N   0  0  0  0  0  0  0  0  0  0  0  0
   37.7910   25.5980   32.0800 C   0  0  0  0  0  0  0  0  0  0  0  0
   36.8790   26.5800   32.1440 N   0  0  0  0  0  0  0  0  0  0  0  0
   38.5500   28.8450   30.3780 H   0  0  0  0  0  0  0  0  0  0  0  0
   40.1530   27.0590   30.2930 H   0  0  0  0  0  0  0  0  0  0  0  0
   38.1140   24.0310   33.9480 C   0  0  0  0  0  0  0  0  0  0  0  0
   37.5990   24.2960   32.6760 C   0  0  0  0  0  0  0  0  0  0  0  0
   36.9200   23.3680   31.9110 C   0  0  0  0  0  0  0  0  0  0  0  0
   36.7280   22.1010   32.4120 C   0  0  0  0  0  0  0  0  0  0  0  0
   37.1970   21.7470   33.6490 C   0  0  0  0  0  0  0  0  0  0  0  0
   37.8550   22.7230   34.3360 C   0  0  0  0  0  0  0  0  0  0  0  0
   36.5370   23.6180   30.9310 H   0  0  0  0  0  0  0  0  0  0  0  0
   36.1910   21.3880   31.7930 H   0  0  0  0  0  0  0  0  0  0  0  0
   37.0560   20.7710   34.0470 H   0  0  0  0  0  0  0  0  0  0  0  0
   38.2320   22.4380   35.3280 H   0  0  0  0  0  0  0  0  0  0  0  0
   38.9180   25.1300   34.9080 S   0  0  0  0  0  0  0  0  0  0  0  0
   40.3660   24.7080   34.4970 O   0  0  0  0  0  0  0  0  0  0  0  0
   38.6870   24.7240   36.3420 O   0  0  0  0  0  0  0  0  0  0  0  0
   39.4900   26.5880   35.2180 C   0  0  0  0  0  0  0  0  0  0  0  0
   38.9320   27.4920   36.1540 F   0  0  0  0  0  0  0  0  0  0  0  0
   39.1260   27.5080   34.1330 F   0  0  0  0  0  0  0  0  0  0  0  0
   40.8440   26.9360   34.9480 F   0  0  0  0  0  0  0  0  0  0  0  0
   35.2240   30.8380   30.9730 C   0  0  0  0  0  0  0  0  0  0  0  0
   34.1470   30.6950   31.8730 C   0  0  0  0  0  0  0  0  0  0  0  0
   34.1140   29.5250   32.6580 C   0  0  0  0  0  0  0  0  0  0  0  0
   35.1080   28.6330   32.4910 N   0  0  0  0  0  0  0  0  0  0  0  0
   36.1380   28.7970   31.6130 C   0  0  0  0  0  0  0  0  0  0  0  0
   36.1830   29.8990   30.8640 N   0  0  0  0  0  0  0  0  0  0  0  0
   35.2160   31.7560   30.3830 H   0  0  0  0  0  0  0  0  0  0  0  0
   33.3710   31.4280   31.9790 H   0  0  0  0  0  0  0  0  0  0  0  0
   33.0410   29.2830   33.6190 C   0  0  0  0  0  0  0  0  0  0  0  0
   31.7550   28.9290   33.2640 C   0  0  0  0  0  0  0  0  0  0  0  0
   31.3010   28.7700   32.3110 H   0  0  0  0  0  0  0  0  0  0  0  0
   31.0160   28.7840   34.4440 C   0  0  0  0  0  0  0  0  0  0  0  0
   29.9850   28.5230   34.6680 H   0  0  0  0  0  0  0  0  0  0  0  0
   31.9330   29.0690   35.4590 C   0  0  0  0  0  0  0  0  0  0  0  0
   31.7760   29.0720   36.5310 H   0  0  0  0  0  0  0  0  0  0  0  0
   33.0910   29.3500   34.9080 O   0  0  0  0  0  0  0  0  0  0  0  0
  1 30  1  0  0  0  0
  1  6  1  0  0  0  0
  2  1  2  0  0  0  0
  3  2  1  0  0  0  0
  3  4  2  0  0  0  0
  4  5  1  0  0  0  0
  5  6  2  0  0  0  0
  5 10  1  0  0  0  0
  7  2  1  0  0  0  0
  8  3  1  0  0  0  0
  9 14  1  0  0  0  0
  9 19  1  0  0  0  0
 10  9  2  0  0  0  0
 11 12  2  0  0  0  0
 11 10  1  0  0  0  0
 12 13  1  0  0  0  0
 13 17  1  0  0  0  0
 13 14  2  0  0  0  0
 14 18  1  0  0  0  0
 15 11  1  0  0  0  0
 16 12  1  0  0  0  0
 19 22  1  0  0  0  0
 19 21  2  0  0  0  0
 20 19  2  0  0  0  0
 22 23  1  0  0  0  0
 24 22  1  0  0  0  0
 25 22  1  0  0  0  0
 26 27  1  0  0  0  0
 27 33  1  0  0  0  0
 27 28  2  0  0  0  0
 28 34  1  0  0  0  0
 29 28  1  0  0  0  0
 30 29  2  0  0  0  0
 31 26  2  0  0  0  0
 31 30  1  0  0  0  0
 32 26  1  0  0  0  0
 34 41  1  0  0  0  0
 35 34  2  0  0  0  0
 35 37  1  0  0  0  0
 36 35  1  0  0  0  0
 37 38  1  0  0  0  0
 37 39  2  0  0  0  0
 39 40  1  0  0  0  0
 41 39  1  0  0  0  0
M  END
>  <minimizedAffinity>
-6.08653164

$$$$
