
 OpenBabel03272504103D

 32 34  0  0  0  0  0  0  0  0999 V2000
   37.8300   24.8070   36.3320 C   0  0  0  0  0  0  0  0  0  0  0  0
   38.9160   24.4810   35.5480 C   0  0  0  0  0  0  0  0  0  0  0  0
   39.8290   23.4930   35.9880 C   0  0  0  0  0  0  0  0  0  0  0  0
   39.5800   22.9050   37.1920 N   0  0  0  0  0  0  0  0  0  0  0  0
   38.4910   23.2590   37.9390 C   0  0  0  0  0  0  0  0  0  0  0  0
   37.6200   24.2070   37.5070 N   0  0  0  0  0  0  0  0  0  0  0  0
   38.2860   22.6140   39.1910 N   0  0  0  0  0  0  0  0  0  0  0  0
   37.1230   25.5770   35.9810 H   0  0  0  0  0  0  0  0  0  0  0  0
   38.9620   22.0550   39.7090 H   0  0  0  0  0  0  0  0  0  0  0  0
   37.3620   22.6990   39.6590 H   0  0  0  0  0  0  0  0  0  0  0  0
   37.7940   23.3480   32.9610 Cl  0  0  0  0  0  0  0  0  0  0  0  0
   38.6660   24.8430   33.0070 C   0  0  0  0  0  0  0  0  0  0  0  0
   39.0860   25.1940   34.2560 C   0  0  0  0  0  0  0  0  0  0  0  0
   39.8030   26.3970   34.4050 C   0  0  0  0  0  0  0  0  0  0  0  0
   40.0810   27.1990   33.3500 C   0  0  0  0  0  0  0  0  0  0  0  0
   39.6400   26.8140   32.0830 C   0  0  0  0  0  0  0  0  0  0  0  0
   39.9680   27.8160   30.6940 Cl  0  0  0  0  0  0  0  0  0  0  0  0
   38.9390   25.6430   31.9330 C   0  0  0  0  0  0  0  0  0  0  0  0
   40.1750   26.8030   35.3350 H   0  0  0  0  0  0  0  0  0  0  0  0
   40.6270   28.1390   33.3920 H   0  0  0  0  0  0  0  0  0  0  0  0
   38.5760   25.3030   30.9690 H   0  0  0  0  0  0  0  0  0  0  0  0
   40.9700   23.1560   35.1510 C   0  0  0  0  0  0  0  0  0  0  0  0
   40.7870   23.4910   34.1120 H   0  0  0  0  0  0  0  0  0  0  0  0
   41.0500   22.0400   35.1010 H   0  0  0  0  0  0  0  0  0  0  0  0
   42.2500   23.7270   35.6640 C   0  0  0  0  0  0  0  0  0  0  0  0
   43.1160   23.0910   36.5460 C   0  0  0  0  0  0  0  0  0  0  0  0
   43.0550   22.1260   37.0130 H   0  0  0  0  0  0  0  0  0  0  0  0
   44.1490   24.0230   36.7130 C   0  0  0  0  0  0  0  0  0  0  0  0
   45.0490   23.9170   37.3390 H   0  0  0  0  0  0  0  0  0  0  0  0
   43.8580   25.1440   35.9440 C   0  0  0  0  0  0  0  0  0  0  0  0
   44.4880   26.0150   35.8890 H   0  0  0  0  0  0  0  0  0  0  0  0
   42.7280   24.9300   35.3400 O   0  0  0  0  0  0  0  0  0  0  0  0
  1  6  1  0  0  0  0
  2  3  1  0  0  0  0
  2  1  2  0  0  0  0
  3  4  2  0  0  0  0
  4  5  1  0  0  0  0
  5  7  1  0  0  0  0
  6  5  2  0  0  0  0
  7 10  1  0  0  0  0
  7  9  1  0  0  0  0
  8  1  1  0  0  0  0
 11 12  1  0  0  0  0
 12 13  1  0  0  0  0
 13 14  2  0  0  0  0
 13  2  1  0  0  0  0
 14 19  1  0  0  0  0
 15 20  1  0  0  0  0
 15 14  1  0  0  0  0
 16 15  2  0  0  0  0
 17 16  1  0  0  0  0
 18 16  1  0  0  0  0
 18 12  2  0  0  0  0
 21 18  1  0  0  0  0
 22 25  1  0  0  0  0
 22  3  1  0  0  0  0
 23 22  1  0  0  0  0
 24 22  1  0  0  0  0
 25 26  2  0  0  0  0
 26 28  1  0  0  0  0
 26 27  1  0  0  0  0
 28 29  1  0  0  0  0
 30 28  2  0  0  0  0
 31 30  1  0  0  0  0
 32 25  1  0  0  0  0
 32 30  1  0  0  0  0
M  END
>  <minimizedAffinity>
-5.35359287

$$$$

 OpenBabel03272504103D

 32 34  0  0  0  0  0  0  0  0999 V2000
   35.7900   30.4720   31.2050 C   0  0  0  0  0  0  0  0  0  0  0  0
   35.7120   29.6060   32.2740 C   0  0  0  0  0  0  0  0  0  0  0  0
   36.2740   28.3110   32.1720 C   0  0  0  0  0  0  0  0  0  0  0  0
   36.8760   27.9830   30.9940 N   0  0  0  0  0  0  0  0  0  0  0  0
   36.9310   28.8730   29.9570 C   0  0  0  0  0  0  0  0  0  0  0  0
   36.3890   30.1130   30.0660 N   0  0  0  0  0  0  0  0  0  0  0  0
   37.5670   28.4710   28.7490 N   0  0  0  0  0  0  0  0  0  0  0  0
   35.3510   31.4790   31.2930 H   0  0  0  0  0  0  0  0  0  0  0  0
   37.8180   27.5220   28.4760 H   0  0  0  0  0  0  0  0  0  0  0  0
   37.8190   29.1930   28.0450 H   0  0  0  0  0  0  0  0  0  0  0  0
   32.7770   28.9970   32.7730 Cl  0  0  0  0  0  0  0  0  0  0  0  0
   33.7300   29.9080   33.8960 C   0  0  0  0  0  0  0  0  0  0  0  0
   35.0260   30.0740   33.5060 C   0  0  0  0  0  0  0  0  0  0  0  0
   35.8900   30.7970   34.3510 C   0  0  0  0  0  0  0  0  0  0  0  0
   35.4660   31.3250   35.5240 C   0  0  0  0  0  0  0  0  0  0  0  0
   34.1340   31.1410   35.8980 C   0  0  0  0  0  0  0  0  0  0  0  0
   33.5420   31.7960   37.4010 Cl  0  0  0  0  0  0  0  0  0  0  0  0
   33.2890   30.4350   35.0770 C   0  0  0  0  0  0  0  0  0  0  0  0
   36.9400   30.9850   34.1750 H   0  0  0  0  0  0  0  0  0  0  0  0
   36.0770   31.8920   36.2230 H   0  0  0  0  0  0  0  0  0  0  0  0
   32.2470   30.2650   35.3260 H   0  0  0  0  0  0  0  0  0  0  0  0
   36.1870   27.4060   33.3070 C   0  0  0  0  0  0  0  0  0  0  0  0
   35.8460   26.4090   32.9690 H   0  0  0  0  0  0  0  0  0  0  0  0
   35.3880   27.7830   33.9950 H   0  0  0  0  0  0  0  0  0  0  0  0
   37.4760   27.2890   34.0520 C   0  0  0  0  0  0  0  0  0  0  0  0
   37.6510   27.5790   35.4000 C   0  0  0  0  0  0  0  0  0  0  0  0
   36.9520   27.9230   36.1400 H   0  0  0  0  0  0  0  0  0  0  0  0
   39.0110   27.3150   35.6120 C   0  0  0  0  0  0  0  0  0  0  0  0
   39.5720   27.4150   36.5560 H   0  0  0  0  0  0  0  0  0  0  0  0
   39.5690   26.8920   34.4110 C   0  0  0  0  0  0  0  0  0  0  0  0
   40.6040   26.6230   34.2910 H   0  0  0  0  0  0  0  0  0  0  0  0
   38.6300   26.8910   33.5140 O   0  0  0  0  0  0  0  0  0  0  0  0
  1  8  1  0  0  0  0
  1  2  1  0  0  0  0
  2 13  1  0  0  0  0
  3  2  2  0  0  0  0
  3 22  1  0  0  0  0
  4  3  1  0  0  0  0
  5  6  1  0  0  0  0
  5  4  2  0  0  0  0
  6  1  2  0  0  0  0
  7  5  1  0  0  0  0
  9  7  1  0  0  0  0
 10  7  1  0  0  0  0
 11 12  1  0  0  0  0
 12 18  1  0  0  0  0
 13 12  2  0  0  0  0
 13 14  1  0  0  0  0
 14 15  2  0  0  0  0
 15 16  1  0  0  0  0
 15 20  1  0  0  0  0
 16 17  1  0  0  0  0
 18 21  1  0  0  0  0
 18 16  2  0  0  0  0
 19 14  1  0  0  0  0
 22 24  1  0  0  0  0
 22 25  1  0  0  0  0
 23 22  1  0  0  0  0
 25 26  2  0  0  0  0
 26 28  1  0  0  0  0
 26 27  1  0  0  0  0
 28 29  1  0  0  0  0
 30 28  2  0  0  0  0
 31 30  1  0  0  0  0
 32 25  1  0  0  0  0
 32 30  1  0  0  0  0
M  END
>  <minimizedAffinity>
-5.28406715

$$$$

 OpenBabel03272504103D

 32 34  0  0  0  0  0  0  0  0999 V2000
   36.0120   31.2750   35.6160 C   0  0  0  0  0  0  0  0  0  0  0  0
   35.1750   30.4920   34.8520 C   0  0  0  0  0  0  0  0  0  0  0  0
   33.7760   30.5510   35.0560 C   0  0  0  0  0  0  0  0  0  0  0  0
   33.3210   31.3990   36.0200 N   0  0  0  0  0  0  0  0  0  0  0  0
   34.1870   32.1590   36.7570 C   0  0  0  0  0  0  0  0  0  0  0  0
   35.5280   32.0960   36.5520 N   0  0  0  0  0  0  0  0  0  0  0  0
   33.6540   33.0230   37.7550 N   0  0  0  0  0  0  0  0  0  0  0  0
   37.1010   31.2250   35.4500 H   0  0  0  0  0  0  0  0  0  0  0  0
   32.7100   33.0050   38.1390 H   0  0  0  0  0  0  0  0  0  0  0  0
   34.2590   33.7640   38.1600 H   0  0  0  0  0  0  0  0  0  0  0  0
   35.3160   31.3030   31.9270 Cl  0  0  0  0  0  0  0  0  0  0  0  0
   35.9330   29.7860   32.4900 C   0  0  0  0  0  0  0  0  0  0  0  0
   35.7880   29.6000   33.8330 C   0  0  0  0  0  0  0  0  0  0  0  0
   36.2610   28.3990   34.3950 C   0  0  0  0  0  0  0  0  0  0  0  0
   36.8460   27.4380   33.6410 C   0  0  0  0  0  0  0  0  0  0  0  0
   36.9800   27.6550   32.2690 C   0  0  0  0  0  0  0  0  0  0  0  0
   37.7310   26.4500   31.2560 Cl  0  0  0  0  0  0  0  0  0  0  0  0
   36.5210   28.8250   31.7160 C   0  0  0  0  0  0  0  0  0  0  0  0
   36.2290   28.1320   35.4420 H   0  0  0  0  0  0  0  0  0  0  0  0
   37.2330   26.4900   34.0070 H   0  0  0  0  0  0  0  0  0  0  0  0
   36.6040   29.0380   30.6560 H   0  0  0  0  0  0  0  0  0  0  0  0
   32.9030   29.7190   34.2420 C   0  0  0  0  0  0  0  0  0  0  0  0
   33.5070   29.0010   33.6550 H   0  0  0  0  0  0  0  0  0  0  0  0
   32.3950   30.3750   33.4910 H   0  0  0  0  0  0  0  0  0  0  0  0
   31.8770   28.9960   35.0510 C   0  0  0  0  0  0  0  0  0  0  0  0
   30.5090   29.0140   34.8100 C   0  0  0  0  0  0  0  0  0  0  0  0
   29.9370   29.5140   34.0500 H   0  0  0  0  0  0  0  0  0  0  0  0
   29.9920   28.1970   35.8250 C   0  0  0  0  0  0  0  0  0  0  0  0
   28.9350   27.9400   36.0020 H   0  0  0  0  0  0  0  0  0  0  0  0
   31.0500   27.7420   36.6040 C   0  0  0  0  0  0  0  0  0  0  0  0
   30.9330   27.0950   37.4560 H   0  0  0  0  0  0  0  0  0  0  0  0
   32.1460   28.2370   36.1150 O   0  0  0  0  0  0  0  0  0  0  0  0
  1  6  1  0  0  0  0
  2  3  1  0  0  0  0
  2  1  2  0  0  0  0
  3  4  2  0  0  0  0
  4  5  1  0  0  0  0
  5  7  1  0  0  0  0
  6  5  2  0  0  0  0
  7  9  1  0  0  0  0
  7 10  1  0  0  0  0
  8  1  1  0  0  0  0
 11 12  1  0  0  0  0
 12 13  1  0  0  0  0
 13 14  2  0  0  0  0
 13  2  1  0  0  0  0
 14 19  1  0  0  0  0
 15 20  1  0  0  0  0
 15 14  1  0  0  0  0
 16 15  2  0  0  0  0
 17 16  1  0  0  0  0
 18 16  1  0  0  0  0
 18 12  2  0  0  0  0
 21 18  1  0  0  0  0
 22 25  1  0  0  0  0
 22  3  1  0  0  0  0
 23 22  1  0  0  0  0
 24 22  1  0  0  0  0
 25 32  1  0  0  0  0
 26 25  2  0  0  0  0
 26 28  1  0  0  0  0
 27 26  1  0  0  0  0
 28 29  1  0  0  0  0
 28 30  2  0  0  0  0
 30 31  1  0  0  0  0
 32 30  1  0  0  0  0
M  END
>  <minimizedAffinity>
-5.27766848

$$$$

 OpenBabel03272504103D

 32 34  0  0  0  0  0  0  0  0999 V2000
   38.1950   25.5520   36.5020 C   0  0  0  0  0  0  0  0  0  0  0  0
   38.3700   24.9610   35.2700 C   0  0  0  0  0  0  0  0  0  0  0  0
   38.4880   23.5550   35.1740 C   0  0  0  0  0  0  0  0  0  0  0  0
   38.4210   22.8420   36.3330 N   0  0  0  0  0  0  0  0  0  0  0  0
   38.2480   23.4670   37.5370 C   0  0  0  0  0  0  0  0  0  0  0  0
   38.1340   24.8190   37.6180 N   0  0  0  0  0  0  0  0  0  0  0  0
   38.1920   22.6710   38.7160 N   0  0  0  0  0  0  0  0  0  0  0  0
   38.1030   26.6480   36.5690 H   0  0  0  0  0  0  0  0  0  0  0  0
   38.4680   21.6950   38.8080 H   0  0  0  0  0  0  0  0  0  0  0  0
   37.8380   23.0940   39.5960 H   0  0  0  0  0  0  0  0  0  0  0  0
   41.0320   25.8310   34.0890 Cl  0  0  0  0  0  0  0  0  0  0  0  0
   39.5190   26.3380   33.4160 C   0  0  0  0  0  0  0  0  0  0  0  0
   38.4330   25.8430   34.0740 C   0  0  0  0  0  0  0  0  0  0  0  0
   37.1510   26.1910   33.6050 C   0  0  0  0  0  0  0  0  0  0  0  0
   36.9780   26.9970   32.5300 C   0  0  0  0  0  0  0  0  0  0  0  0
   38.1080   27.4900   31.8760 C   0  0  0  0  0  0  0  0  0  0  0  0
   37.9370   28.5280   30.4850 Cl  0  0  0  0  0  0  0  0  0  0  0  0
   39.3590   27.1520   32.3300 C   0  0  0  0  0  0  0  0  0  0  0  0
   36.2110   25.8540   34.0180 H   0  0  0  0  0  0  0  0  0  0  0  0
   36.0220   27.3050   32.1150 H   0  0  0  0  0  0  0  0  0  0  0  0
   40.2650   27.5110   31.8540 H   0  0  0  0  0  0  0  0  0  0  0  0
   38.6710   22.9440   33.8670 C   0  0  0  0  0  0  0  0  0  0  0  0
   39.4680   22.1770   33.9170 H   0  0  0  0  0  0  0  0  0  0  0  0
   39.0480   23.7280   33.1630 H   0  0  0  0  0  0  0  0  0  0  0  0
   37.4120   22.3490   33.3260 C   0  0  0  0  0  0  0  0  0  0  0  0
   36.7220   22.8110   32.2120 C   0  0  0  0  0  0  0  0  0  0  0  0
   36.9280   23.6320   31.5500 H   0  0  0  0  0  0  0  0  0  0  0  0
   35.6320   21.9340   32.1210 C   0  0  0  0  0  0  0  0  0  0  0  0
   34.8270   21.9450   31.3690 H   0  0  0  0  0  0  0  0  0  0  0  0
   35.7210   21.0140   33.1600 C   0  0  0  0  0  0  0  0  0  0  0  0
   35.0080   20.2260   33.3260 H   0  0  0  0  0  0  0  0  0  0  0  0
   36.7850   21.2940   33.8490 O   0  0  0  0  0  0  0  0  0  0  0  0
  1  8  1  0  0  0  0
  1  6  1  0  0  0  0
  2  1  2  0  0  0  0
  3  2  1  0  0  0  0
  3  4  2  0  0  0  0
  4  5  1  0  0  0  0
  5  6  2  0  0  0  0
  5  7  1  0  0  0  0
  7  9  1  0  0  0  0
  7 10  1  0  0  0  0
 12 13  1  0  0  0  0
 12 11  1  0  0  0  0
 13  2  1  0  0  0  0
 14 19  1  0  0  0  0
 14 13  2  0  0  0  0
 15 14  1  0  0  0  0
 16 18  1  0  0  0  0
 16 15  2  0  0  0  0
 17 16  1  0  0  0  0
 18 12  2  0  0  0  0
 20 15  1  0  0  0  0
 21 18  1  0  0  0  0
 22 23  1  0  0  0  0
 22  3  1  0  0  0  0
 24 22  1  0  0  0  0
 25 32  1  0  0  0  0
 25 22  1  0  0  0  0
 26 25  2  0  0  0  0
 27 26  1  0  0  0  0
 28 26  1  0  0  0  0
 28 30  2  0  0  0  0
 29 28  1  0  0  0  0
 30 31  1  0  0  0  0
 30 32  1  0  0  0  0
M  END
>  <minimizedAffinity>
-5.24689198

$$$$

 OpenBabel03272504103D

 32 34  0  0  0  0  0  0  0  0999 V2000
   41.0330   24.1940   34.0730 C   0  0  0  0  0  0  0  0  0  0  0  0
   39.7750   24.5280   34.5250 C   0  0  0  0  0  0  0  0  0  0  0  0
   39.4970   25.8600   34.9120 C   0  0  0  0  0  0  0  0  0  0  0  0
   40.5130   26.7630   34.8170 N   0  0  0  0  0  0  0  0  0  0  0  0
   41.7490   26.3900   34.3640 C   0  0  0  0  0  0  0  0  0  0  0  0
   42.0040   25.1080   33.9930 N   0  0  0  0  0  0  0  0  0  0  0  0
   42.7730   27.3750   34.2920 N   0  0  0  0  0  0  0  0  0  0  0  0
   41.2410   23.1550   33.7720 H   0  0  0  0  0  0  0  0  0  0  0  0
   42.7670   28.2960   34.7270 H   0  0  0  0  0  0  0  0  0  0  0  0
   43.6330   27.1720   33.7460 H   0  0  0  0  0  0  0  0  0  0  0  0
   39.1420   23.1080   37.1360 Cl  0  0  0  0  0  0  0  0  0  0  0  0
   38.3370   22.7090   35.6550 C   0  0  0  0  0  0  0  0  0  0  0  0
   38.7470   23.4560   34.5900 C   0  0  0  0  0  0  0  0  0  0  0  0
   38.1530   23.2150   33.3370 C   0  0  0  0  0  0  0  0  0  0  0  0
   37.1970   22.2690   33.1690 C   0  0  0  0  0  0  0  0  0  0  0  0
   36.7980   21.5190   34.2760 C   0  0  0  0  0  0  0  0  0  0  0  0
   35.5680   20.2940   34.1110 Cl  0  0  0  0  0  0  0  0  0  0  0  0
   37.3740   21.7520   35.5000 C   0  0  0  0  0  0  0  0  0  0  0  0
   38.3670   23.7450   32.4200 H   0  0  0  0  0  0  0  0  0  0  0  0
   36.6970   22.0310   32.2330 H   0  0  0  0  0  0  0  0  0  0  0  0
   37.0960   21.1950   36.3880 H   0  0  0  0  0  0  0  0  0  0  0  0
   38.1640   26.2000   35.3860 C   0  0  0  0  0  0  0  0  0  0  0  0
   38.2310   26.7030   36.3700 H   0  0  0  0  0  0  0  0  0  0  0  0
   37.6040   25.2490   35.5680 H   0  0  0  0  0  0  0  0  0  0  0  0
   37.4080   27.0500   34.4190 C   0  0  0  0  0  0  0  0  0  0  0  0
   37.3480   26.8430   33.0460 C   0  0  0  0  0  0  0  0  0  0  0  0
   37.7990   26.0860   32.4310 H   0  0  0  0  0  0  0  0  0  0  0  0
   36.5300   27.8880   32.5970 C   0  0  0  0  0  0  0  0  0  0  0  0
   36.2220   28.0970   31.5600 H   0  0  0  0  0  0  0  0  0  0  0  0
   36.1500   28.6520   33.6960 C   0  0  0  0  0  0  0  0  0  0  0  0
   35.5180   29.5200   33.6340 H   0  0  0  0  0  0  0  0  0  0  0  0
   36.6890   28.1240   34.7520 O   0  0  0  0  0  0  0  0  0  0  0  0
  1  2  1  0  0  0  0
  2 13  1  0  0  0  0
  2  3  2  0  0  0  0
  3 22  1  0  0  0  0
  4  3  1  0  0  0  0
  5  4  2  0  0  0  0
  6  1  2  0  0  0  0
  6  5  1  0  0  0  0
  7  5  1  0  0  0  0
  7  9  1  0  0  0  0
  8  1  1  0  0  0  0
 10  7  1  0  0  0  0
 12 11  1  0  0  0  0
 13 12  2  0  0  0  0
 14 13  1  0  0  0  0
 15 14  2  0  0  0  0
 15 16  1  0  0  0  0
 16 18  2  0  0  0  0
 17 16  1  0  0  0  0
 18 12  1  0  0  0  0
 18 21  1  0  0  0  0
 19 14  1  0  0  0  0
 20 15  1  0  0  0  0
 22 24  1  0  0  0  0
 22 23  1  0  0  0  0
 25 32  1  0  0  0  0
 25 22  1  0  0  0  0
 26 25  2  0  0  0  0
 27 26  1  0  0  0  0
 28 26  1  0  0  0  0
 28 30  2  0  0  0  0
 29 28  1  0  0  0  0
 30 32  1  0  0  0  0
 31 30  1  0  0  0  0
M  END
>  <minimizedAffinity>
-5.18513823

$$$$

 OpenBabel03272504103D

 32 34  0  0  0  0  0  0  0  0999 V2000
   38.3440   26.1840   35.8310 C   0  0  0  0  0  0  0  0  0  0  0  0
   38.6380   25.0700   35.0750 C   0  0  0  0  0  0  0  0  0  0  0  0
   38.1340   24.9610   33.7580 C   0  0  0  0  0  0  0  0  0  0  0  0
   37.3650   25.9880   33.2970 N   0  0  0  0  0  0  0  0  0  0  0  0
   37.0960   27.0760   34.0810 C   0  0  0  0  0  0  0  0  0  0  0  0
   37.5870   27.1710   35.3440 N   0  0  0  0  0  0  0  0  0  0  0  0
   36.2820   28.1140   33.5480 N   0  0  0  0  0  0  0  0  0  0  0  0
   38.7430   26.2620   36.8560 H   0  0  0  0  0  0  0  0  0  0  0  0
   35.6960   28.0650   32.7160 H   0  0  0  0  0  0  0  0  0  0  0  0
   36.2550   29.0340   34.0300 H   0  0  0  0  0  0  0  0  0  0  0  0
   37.4510   22.9860   36.9420 Cl  0  0  0  0  0  0  0  0  0  0  0  0
   39.1360   23.0090   36.5430 C   0  0  0  0  0  0  0  0  0  0  0  0
   39.4840   24.0120   35.6870 C   0  0  0  0  0  0  0  0  0  0  0  0
   40.8320   24.1180   35.2950 C   0  0  0  0  0  0  0  0  0  0  0  0
   41.7780   23.2580   35.7450 C   0  0  0  0  0  0  0  0  0  0  0  0
   41.3940   22.2430   36.6220 C   0  0  0  0  0  0  0  0  0  0  0  0
   42.5730   21.1090   37.2260 Cl  0  0  0  0  0  0  0  0  0  0  0  0
   40.0800   22.1350   37.0060 C   0  0  0  0  0  0  0  0  0  0  0  0
   41.2380   24.8470   34.6090 H   0  0  0  0  0  0  0  0  0  0  0  0
   42.8330   23.2810   35.4840 H   0  0  0  0  0  0  0  0  0  0  0  0
   39.7350   21.3620   37.6840 H   0  0  0  0  0  0  0  0  0  0  0  0
   38.4530   23.7820   32.9690 C   0  0  0  0  0  0  0  0  0  0  0  0
   39.3540   23.2870   33.3780 H   0  0  0  0  0  0  0  0  0  0  0  0
   38.7310   24.1140   31.9370 H   0  0  0  0  0  0  0  0  0  0  0  0
   37.3180   22.8140   32.8940 C   0  0  0  0  0  0  0  0  0  0  0  0
   37.2040   21.6520   33.6470 C   0  0  0  0  0  0  0  0  0  0  0  0
   37.8580   21.2310   34.3890 H   0  0  0  0  0  0  0  0  0  0  0  0
   35.9890   21.1050   33.2160 C   0  0  0  0  0  0  0  0  0  0  0  0
   35.5150   20.1720   33.5630 H   0  0  0  0  0  0  0  0  0  0  0  0
   35.4480   21.9440   32.2480 C   0  0  0  0  0  0  0  0  0  0  0  0
   34.5140   21.7600   31.7470 H   0  0  0  0  0  0  0  0  0  0  0  0
   36.2630   22.9420   32.0860 O   0  0  0  0  0  0  0  0  0  0  0  0
  1  8  1  0  0  0  0
  2 13  1  0  0  0  0
  2  1  2  0  0  0  0
  3  2  1  0  0  0  0
  4  3  2  0  0  0  0
  4  5  1  0  0  0  0
  5  6  2  0  0  0  0
  6  1  1  0  0  0  0
  7 10  1  0  0  0  0
  7  5  1  0  0  0  0
  9  7  1  0  0  0  0
 12 11  1  0  0  0  0
 12 18  1  0  0  0  0
 13 12  2  0  0  0  0
 14 13  1  0  0  0  0
 14 15  2  0  0  0  0
 15 16  1  0  0  0  0
 16 18  2  0  0  0  0
 16 17  1  0  0  0  0
 18 21  1  0  0  0  0
 19 14  1  0  0  0  0
 20 15  1  0  0  0  0
 22 23  1  0  0  0  0
 22  3  1  0  0  0  0
 24 22  1  0  0  0  0
 25 22  1  0  0  0  0
 25 26  2  0  0  0  0
 26 27  1  0  0  0  0
 28 29  1  0  0  0  0
 28 26  1  0  0  0  0
 30 28  2  0  0  0  0
 31 30  1  0  0  0  0
 32 30  1  0  0  0  0
 32 25  1  0  0  0  0
M  END
>  <minimizedAffinity>
-5.0979867

$$$$

 OpenBabel03272504103D

 32 34  0  0  0  0  0  0  0  0999 V2000
   37.4010   25.5080   33.2170 C   0  0  0  0  0  0  0  0  0  0  0  0
   37.8430   24.2100   33.0790 C   0  0  0  0  0  0  0  0  0  0  0  0
   37.4090   23.4320   31.9800 C   0  0  0  0  0  0  0  0  0  0  0  0
   36.5550   24.0210   31.0960 N   0  0  0  0  0  0  0  0  0  0  0  0
   36.1400   25.3130   31.2700 C   0  0  0  0  0  0  0  0  0  0  0  0
   36.5650   26.0510   32.3280 N   0  0  0  0  0  0  0  0  0  0  0  0
   35.2440   25.8730   30.3180 N   0  0  0  0  0  0  0  0  0  0  0  0
   37.7460   26.1080   34.0750 H   0  0  0  0  0  0  0  0  0  0  0  0
   34.7020   25.3700   29.6180 H   0  0  0  0  0  0  0  0  0  0  0  0
   35.0990   26.9020   30.3030 H   0  0  0  0  0  0  0  0  0  0  0  0
   40.8530   24.2330   32.6610 Cl  0  0  0  0  0  0  0  0  0  0  0  0
   40.1310   23.5910   34.0970 C   0  0  0  0  0  0  0  0  0  0  0  0
   38.7700   23.6730   34.1100 C   0  0  0  0  0  0  0  0  0  0  0  0
   38.0810   23.1820   35.2360 C   0  0  0  0  0  0  0  0  0  0  0  0
   38.7340   22.6370   36.2910 C   0  0  0  0  0  0  0  0  0  0  0  0
   40.1270   22.5650   36.2510 C   0  0  0  0  0  0  0  0  0  0  0  0
   41.0120   21.8760   37.5860 Cl  0  0  0  0  0  0  0  0  0  0  0  0
   40.8020   23.0430   35.1550 C   0  0  0  0  0  0  0  0  0  0  0  0
   37.0120   23.2030   35.3860 H   0  0  0  0  0  0  0  0  0  0  0  0
   38.2680   22.2400   37.1900 H   0  0  0  0  0  0  0  0  0  0  0  0
   41.8830   23.0090   35.0790 H   0  0  0  0  0  0  0  0  0  0  0  0
   37.8830   22.0640   31.8450 C   0  0  0  0  0  0  0  0  0  0  0  0
   38.7340   21.8910   32.5320 H   0  0  0  0  0  0  0  0  0  0  0  0
   38.2970   21.9360   30.8120 H   0  0  0  0  0  0  0  0  0  0  0  0
   36.8100   21.0540   32.0830 C   0  0  0  0  0  0  0  0  0  0  0  0
   36.2340   20.7720   33.3160 C   0  0  0  0  0  0  0  0  0  0  0  0
   36.4230   21.1870   34.2890 H   0  0  0  0  0  0  0  0  0  0  0  0
   35.2990   19.7730   33.0150 C   0  0  0  0  0  0  0  0  0  0  0  0
   34.6180   19.2620   33.7150 H   0  0  0  0  0  0  0  0  0  0  0  0
   35.3600   19.5110   31.6500 C   0  0  0  0  0  0  0  0  0  0  0  0
   34.7460   18.7820   31.1510 H   0  0  0  0  0  0  0  0  0  0  0  0
   36.2640   20.2880   31.1360 O   0  0  0  0  0  0  0  0  0  0  0  0
  1  8  1  0  0  0  0
  2  1  1  0  0  0  0
  2 13  1  0  0  0  0
  3  2  2  0  0  0  0
  4  5  2  0  0  0  0
  4  3  1  0  0  0  0
  5  6  1  0  0  0  0
  6  1  2  0  0  0  0
  7  5  1  0  0  0  0
  9  7  1  0  0  0  0
 10  7  1  0  0  0  0
 11 12  1  0  0  0  0
 12 13  2  0  0  0  0
 12 18  1  0  0  0  0
 13 14  1  0  0  0  0
 14 19  1  0  0  0  0
 14 15  2  0  0  0  0
 15 20  1  0  0  0  0
 16 15  1  0  0  0  0
 16 17  1  0  0  0  0
 18 16  2  0  0  0  0
 21 18  1  0  0  0  0
 22  3  1  0  0  0  0
 22 25  1  0  0  0  0
 22 23  1  0  0  0  0
 24 22  1  0  0  0  0
 25 26  2  0  0  0  0
 26 27  1  0  0  0  0
 28 26  1  0  0  0  0
 28 29  1  0  0  0  0
 30 28  2  0  0  0  0
 31 30  1  0  0  0  0
 32 30  1  0  0  0  0
 32 25  1  0  0  0  0
M  END
>  <minimizedAffinity>
-5.04212379

$$$$

 OpenBabel03272504103D

 32 34  0  0  0  0  0  0  0  0999 V2000
   35.5800   24.8120   31.1720 C   0  0  0  0  0  0  0  0  0  0  0  0
   36.5390   24.0930   31.8510 C   0  0  0  0  0  0  0  0  0  0  0  0
   37.4730   24.7660   32.6720 C   0  0  0  0  0  0  0  0  0  0  0  0
   37.3730   26.1230   32.7490 N   0  0  0  0  0  0  0  0  0  0  0  0
   36.4050   26.8000   32.0580 C   0  0  0  0  0  0  0  0  0  0  0  0
   35.5120   26.1430   31.2730 N   0  0  0  0  0  0  0  0  0  0  0  0
   36.3530   28.2170   32.1730 N   0  0  0  0  0  0  0  0  0  0  0  0
   34.8540   24.2800   30.5350 H   0  0  0  0  0  0  0  0  0  0  0  0
   37.0760   28.8270   32.5510 H   0  0  0  0  0  0  0  0  0  0  0  0
   35.5040   28.7200   31.8480 H   0  0  0  0  0  0  0  0  0  0  0  0
   38.5630   22.7300   30.0390 Cl  0  0  0  0  0  0  0  0  0  0  0  0
   37.3700   21.8350   30.9200 C   0  0  0  0  0  0  0  0  0  0  0  0
   36.5540   22.6160   31.6850 C   0  0  0  0  0  0  0  0  0  0  0  0
   35.5500   21.9870   32.4460 C   0  0  0  0  0  0  0  0  0  0  0  0
   35.3790   20.6430   32.4320 C   0  0  0  0  0  0  0  0  0  0  0  0
   36.2280   19.8690   31.6400 C   0  0  0  0  0  0  0  0  0  0  0  0
   36.0510   18.1350   31.5930 Cl  0  0  0  0  0  0  0  0  0  0  0  0
   37.2090   20.4780   30.8970 C   0  0  0  0  0  0  0  0  0  0  0  0
   34.8520   22.4800   33.1070 H   0  0  0  0  0  0  0  0  0  0  0  0
   34.6270   20.0920   32.9940 H   0  0  0  0  0  0  0  0  0  0  0  0
   37.8920   19.9190   30.2680 H   0  0  0  0  0  0  0  0  0  0  0  0
   38.4800   23.9960   33.3850 C   0  0  0  0  0  0  0  0  0  0  0  0
   39.4730   24.4690   33.2620 H   0  0  0  0  0  0  0  0  0  0  0  0
   38.5610   22.9900   32.8990 H   0  0  0  0  0  0  0  0  0  0  0  0
   38.1600   23.8270   34.8340 C   0  0  0  0  0  0  0  0  0  0  0  0
   37.8210   22.6270   35.4450 C   0  0  0  0  0  0  0  0  0  0  0  0
   37.7230   21.6370   35.0390 H   0  0  0  0  0  0  0  0  0  0  0  0
   37.6190   22.9910   36.7830 C   0  0  0  0  0  0  0  0  0  0  0  0
   37.3330   22.3330   37.6190 H   0  0  0  0  0  0  0  0  0  0  0  0
   37.8400   24.3590   36.9030 C   0  0  0  0  0  0  0  0  0  0  0  0
   37.7520   24.9020   37.8280 H   0  0  0  0  0  0  0  0  0  0  0  0
   38.1570   24.8160   35.7300 O   0  0  0  0  0  0  0  0  0  0  0  0
  1  6  2  0  0  0  0
  1  2  1  0  0  0  0
  2  3  2  0  0  0  0
  3  4  1  0  0  0  0
  3 22  1  0  0  0  0
  5  7  1  0  0  0  0
  5  4  2  0  0  0  0
  6  5  1  0  0  0  0
  7  9  1  0  0  0  0
  8  1  1  0  0  0  0
 10  7  1  0  0  0  0
 11 12  1  0  0  0  0
 12 13  1  0  0  0  0
 13  2  1  0  0  0  0
 13 14  2  0  0  0  0
 14 19  1  0  0  0  0
 15 14  1  0  0  0  0
 15 20  1  0  0  0  0
 16 15  2  0  0  0  0
 17 16  1  0  0  0  0
 18 12  2  0  0  0  0
 18 16  1  0  0  0  0
 21 18  1  0  0  0  0
 22 25  1  0  0  0  0
 23 22  1  0  0  0  0
 24 22  1  0  0  0  0
 25 26  2  0  0  0  0
 25 32  1  0  0  0  0
 26 28  1  0  0  0  0
 27 26  1  0  0  0  0
 28 30  2  0  0  0  0
 28 29  1  0  0  0  0
 30 31  1  0  0  0  0
 32 30  1  0  0  0  0
M  END
>  <minimizedAffinity>
-5.02919674

$$$$

 OpenBabel03272504103D

 32 34  0  0  0  0  0  0  0  0999 V2000
   38.3600   23.8650   36.3720 C   0  0  0  0  0  0  0  0  0  0  0  0
   38.9880   24.1970   35.1910 C   0  0  0  0  0  0  0  0  0  0  0  0
   40.2530   23.6410   34.8860 C   0  0  0  0  0  0  0  0  0  0  0  0
   40.7960   22.7880   35.7990 N   0  0  0  0  0  0  0  0  0  0  0  0
   40.1400   22.4850   36.9610 C   0  0  0  0  0  0  0  0  0  0  0  0
   38.9250   23.0230   37.2420 N   0  0  0  0  0  0  0  0  0  0  0  0
   40.7600   21.5920   37.8790 N   0  0  0  0  0  0  0  0  0  0  0  0
   37.3740   24.3010   36.6010 H   0  0  0  0  0  0  0  0  0  0  0  0
   41.7340   21.2960   37.8810 H   0  0  0  0  0  0  0  0  0  0  0  0
   40.1910   21.1760   38.6430 H   0  0  0  0  0  0  0  0  0  0  0  0
   39.1750   27.2030   35.5960 Cl  0  0  0  0  0  0  0  0  0  0  0  0
   38.2620   26.5060   34.3010 C   0  0  0  0  0  0  0  0  0  0  0  0
   38.2990   25.1430   34.2750 C   0  0  0  0  0  0  0  0  0  0  0  0
   37.5920   24.4750   33.2570 C   0  0  0  0  0  0  0  0  0  0  0  0
   36.8830   25.1480   32.3180 C   0  0  0  0  0  0  0  0  0  0  0  0
   36.8610   26.5420   32.3700 C   0  0  0  0  0  0  0  0  0  0  0  0
   35.9680   27.4540   31.1820 Cl  0  0  0  0  0  0  0  0  0  0  0  0
   37.5510   27.1980   33.3610 C   0  0  0  0  0  0  0  0  0  0  0  0
   37.5540   23.4060   33.1070 H   0  0  0  0  0  0  0  0  0  0  0  0
   36.3160   24.6980   31.5070 H   0  0  0  0  0  0  0  0  0  0  0  0
   37.5630   28.2790   33.4400 H   0  0  0  0  0  0  0  0  0  0  0  0
   40.9040   23.9980   33.6360 C   0  0  0  0  0  0  0  0  0  0  0  0
   40.1420   24.2430   32.8710 H   0  0  0  0  0  0  0  0  0  0  0  0
   41.4420   23.0950   33.2500 H   0  0  0  0  0  0  0  0  0  0  0  0
   41.8690   25.1280   33.7900 C   0  0  0  0  0  0  0  0  0  0  0  0
   43.1330   25.0310   34.3570 C   0  0  0  0  0  0  0  0  0  0  0  0
   43.6500   24.1870   34.7770 H   0  0  0  0  0  0  0  0  0  0  0  0
   43.6290   26.3380   34.2680 C   0  0  0  0  0  0  0  0  0  0  0  0
   44.6120   26.7050   34.6060 H   0  0  0  0  0  0  0  0  0  0  0  0
   42.6600   27.1350   33.6670 C   0  0  0  0  0  0  0  0  0  0  0  0
   42.7820   28.1870   33.4770 H   0  0  0  0  0  0  0  0  0  0  0  0
   41.6360   26.3830   33.4000 O   0  0  0  0  0  0  0  0  0  0  0  0
  1  8  1  0  0  0  0
  1  6  1  0  0  0  0
  2  1  2  0  0  0  0
  3  2  1  0  0  0  0
  3  4  2  0  0  0  0
  4  5  1  0  0  0  0
  5  6  2  0  0  0  0
  5  7  1  0  0  0  0
  7  9  1  0  0  0  0
  7 10  1  0  0  0  0
 12 11  1  0  0  0  0
 13 12  1  0  0  0  0
 13  2  1  0  0  0  0
 14 13  2  0  0  0  0
 15 16  2  0  0  0  0
 15 14  1  0  0  0  0
 16 18  1  0  0  0  0
 17 16  1  0  0  0  0
 18 21  1  0  0  0  0
 18 12  2  0  0  0  0
 19 14  1  0  0  0  0
 20 15  1  0  0  0  0
 22 25  1  0  0  0  0
 22  3  1  0  0  0  0
 23 22  1  0  0  0  0
 24 22  1  0  0  0  0
 25 26  2  0  0  0  0
 26 27  1  0  0  0  0
 28 26  1  0  0  0  0
 28 29  1  0  0  0  0
 30 28  2  0  0  0  0
 31 30  1  0  0  0  0
 32 30  1  0  0  0  0
 32 25  1  0  0  0  0
M  END
>  <minimizedAffinity>
-4.98961067

$$$$
