
 OpenBabel03272505493D

 39 43  0  0  0  0  0  0  0  0999 V2000
   36.4290   30.4340   45.9160 C   0  0  0  0  0  0  0  0  0  0  0  0
   36.9560   30.7840   47.1050 C   0  0  0  0  0  0  0  0  0  0  0  0
   36.2500   30.5650   48.2780 C   0  0  0  0  0  0  0  0  0  0  0  0
   34.9910   29.9760   48.1880 C   0  0  0  0  0  0  0  0  0  0  0  0
   34.4500   29.6140   46.9430 C   0  0  0  0  0  0  0  0  0  0  0  0
   35.1990   29.8610   45.8480 N   0  0  0  0  0  0  0  0  0  0  0  0
   37.9360   31.2440   47.1980 H   0  0  0  0  0  0  0  0  0  0  0  0
   36.5960   30.8130   49.2610 H   0  0  0  0  0  0  0  0  0  0  0  0
   34.3690   29.7680   49.0520 H   0  0  0  0  0  0  0  0  0  0  0  0
   37.1910   30.6700   44.6340 C   0  0  0  0  0  0  0  0  0  0  0  0
   36.9940   29.7100   43.5110 C   0  0  0  0  0  0  0  0  0  0  0  0
   36.4070   31.0850   43.4260 C   0  0  0  0  0  0  0  0  0  0  0  0
   36.2880   28.8740   43.7300 H   0  0  0  0  0  0  0  0  0  0  0  0
   37.8570   29.4120   42.9180 H   0  0  0  0  0  0  0  0  0  0  0  0
   36.9330   31.7580   42.7180 H   0  0  0  0  0  0  0  0  0  0  0  0
   35.2990   31.1420   43.4620 H   0  0  0  0  0  0  0  0  0  0  0  0
   39.7320   33.3090   45.0800 C   0  0  0  0  0  0  0  0  0  0  0  0
   40.9040   32.5580   45.3150 C   0  0  0  0  0  0  0  0  0  0  0  0
   40.8140   31.1370   45.3190 C   0  0  0  0  0  0  0  0  0  0  0  0
   39.5990   30.6010   45.0950 N   0  0  0  0  0  0  0  0  0  0  0  0
   38.4830   31.3360   44.8700 C   0  0  0  0  0  0  0  0  0  0  0  0
   38.5480   32.6770   44.8620 N   0  0  0  0  0  0  0  0  0  0  0  0
   39.8040   34.3900   45.0760 H   0  0  0  0  0  0  0  0  0  0  0  0
   41.8330   33.0890   45.4850 H   0  0  0  0  0  0  0  0  0  0  0  0
   41.7070   30.5840   45.4990 H   0  0  0  0  0  0  0  0  0  0  0  0
   33.1390   28.9980   46.8040 C   0  0  0  0  0  0  0  0  0  0  0  0
   32.4780   28.5830   45.6920 N   0  0  0  0  0  0  0  0  0  0  0  0
   31.2740   28.0650   46.0450 C   0  0  0  0  0  0  0  0  0  0  0  0
   31.2000   28.1680   47.4080 N   0  0  0  0  0  0  0  0  0  0  0  0
   32.3190   28.7270   47.8610 N   0  0  0  0  0  0  0  0  0  0  0  0
   30.4860   27.6430   45.4490 H   0  0  0  0  0  0  0  0  0  0  0  0
   30.1510   27.7760   48.3140 C   0  0  0  0  0  0  0  0  0  0  0  0
   30.0800   27.1060   49.5220 C   0  0  0  0  0  0  0  0  0  0  0  0
   31.0100   26.7570   49.9580 H   0  0  0  0  0  0  0  0  0  0  0  0
   28.7310   27.0860   49.8250 C   0  0  0  0  0  0  0  0  0  0  0  0
   28.4270   26.5950   50.7600 H   0  0  0  0  0  0  0  0  0  0  0  0
   28.0520   27.7400   48.7970 C   0  0  0  0  0  0  0  0  0  0  0  0
   26.9850   27.7730   48.9490 H   0  0  0  0  0  0  0  0  0  0  0  0
   28.9420   28.1240   47.9350 O   0  0  0  0  0  0  0  0  0  0  0  0
  1  2  1  0  0  0  0
  2  7  1  0  0  0  0
  2  3  2  0  0  0  0
  3  8  1  0  0  0  0
  4  3  1  0  0  0  0
  4  9  1  0  0  0  0
  5  4  2  0  0  0  0
  6  1  2  0  0  0  0
  6  5  1  0  0  0  0
 10 21  1  0  0  0  0
 10  1  1  0  0  0  0
 11 13  1  0  0  0  0
 11 10  1  0  0  0  0
 12 16  1  0  0  0  0
 12 11  1  0  0  0  0
 12 10  1  0  0  0  0
 14 11  1  0  0  0  0
 15 12  1  0  0  0  0
 17 18  1  0  0  0  0
 18 19  2  0  0  0  0
 18 24  1  0  0  0  0
 19 25  1  0  0  0  0
 20 19  1  0  0  0  0
 21 20  2  0  0  0  0
 22 21  1  0  0  0  0
 22 17  2  0  0  0  0
 23 17  1  0  0  0  0
 26  5  1  0  0  0  0
 26 30  2  0  0  0  0
 27 28  2  0  0  0  0
 27 26  1  0  0  0  0
 28 29  1  0  0  0  0
 29 30  1  0  0  0  0
 29 32  1  0  0  0  0
 31 28  1  0  0  0  0
 32 33  2  0  0  0  0
 33 35  1  0  0  0  0
 33 34  1  0  0  0  0
 35 36  1  0  0  0  0
 37 38  1  0  0  0  0
 37 35  2  0  0  0  0
 39 32  1  0  0  0  0
 39 37  1  0  0  0  0
M  END
>  <minimizedAffinity>
-5.54666567

>  <minimizedRMSD>
0.98010236

$$$$
