
 OpenBabel03272501293D

 19 20  0  0  0  0  0  0  0  0999 V2000
   37.9110   32.4080   48.9740 C   0  0  0  0  0  0  0  0  0  0  0  0
   37.9210   33.5940   49.3600 O   0  0  0  0  0  0  0  0  0  0  0  0
   37.1350   29.6460   51.3600 C   0  0  0  0  0  0  0  0  0  0  0  0
   37.8680   30.6510   50.7270 C   0  0  0  0  0  0  0  0  0  0  0  0
   37.2270   31.3380   49.6990 C   0  0  0  0  0  0  0  0  0  0  0  0
   35.9470   31.0030   49.3690 N   0  0  0  0  0  0  0  0  0  0  0  0
   35.2870   30.0230   50.0160 C   0  0  0  0  0  0  0  0  0  0  0  0
   35.8740   29.3480   51.0050 N   0  0  0  0  0  0  0  0  0  0  0  0
   37.6520   29.1110   52.1710 H   0  0  0  0  0  0  0  0  0  0  0  0
   38.8840   30.8970   51.0080 H   0  0  0  0  0  0  0  0  0  0  0  0
   34.2720   29.8040   49.7090 H   0  0  0  0  0  0  0  0  0  0  0  0
   38.6210   32.0710   47.7330 C   0  0  0  0  0  0  0  0  0  0  0  0
   38.4960   30.8550   47.1090 C   0  0  0  0  0  0  0  0  0  0  0  0
   37.9190   30.0000   47.3750 H   0  0  0  0  0  0  0  0  0  0  0  0
   39.3240   30.9580   45.9880 C   0  0  0  0  0  0  0  0  0  0  0  0
   39.4420   30.1320   45.2740 H   0  0  0  0  0  0  0  0  0  0  0  0
   39.8850   32.1990   46.0010 C   0  0  0  0  0  0  0  0  0  0  0  0
   40.5650   32.4860   45.2140 H   0  0  0  0  0  0  0  0  0  0  0  0
   39.4480   32.8440   47.0550 O   0  0  0  0  0  0  0  0  0  0  0  0
  1  2  2  0  0  0  0
  1  5  1  0  0  0  0
  3  9  1  0  0  0  0
  4 10  1  0  0  0  0
  4  3  2  0  0  0  0
  5  4  1  0  0  0  0
  6  5  2  0  0  0  0
  6  7  1  0  0  0  0
  7  8  2  0  0  0  0
  8  3  1  0  0  0  0
 11  7  1  0  0  0  0
 12  1  1  0  0  0  0
 13 14  1  0  0  0  0
 13 12  2  0  0  0  0
 15 17  2  0  0  0  0
 15 13  1  0  0  0  0
 16 15  1  0  0  0  0
 17 19  1  0  0  0  0
 18 17  1  0  0  0  0
 19 12  1  0  0  0  0
M  END
>  <minimizedAffinity>
-4.93539238

>  <minimizedRMSD>
2.10892177

$$$$
