
 OpenBabel03272500113D

 20 21  0  0  0  0  0  0  0  0999 V2000
   35.5190   29.1590   50.4310 C   0  0  0  0  0  0  0  0  0  0  0  0
   36.1970   30.1750   49.7360 C   0  0  0  0  0  0  0  0  0  0  0  0
   35.9260   30.3540   48.3760 C   0  0  0  0  0  0  0  0  0  0  0  0
   35.0150   29.5320   47.7820 N   0  0  0  0  0  0  0  0  0  0  0  0
   34.3780   28.5620   48.4820 C   0  0  0  0  0  0  0  0  0  0  0  0
   34.6240   28.3770   49.7810 N   0  0  0  0  0  0  0  0  0  0  0  0
   35.7340   29.0300   51.4760 H   0  0  0  0  0  0  0  0  0  0  0  0
   36.4380   31.1210   47.8500 H   0  0  0  0  0  0  0  0  0  0  0  0
   33.3970   27.6630   47.8840 C   0  0  0  0  0  0  0  0  0  0  0  0
   33.6330   26.3560   47.5020 C   0  0  0  0  0  0  0  0  0  0  0  0
   34.5340   25.7790   47.5660 H   0  0  0  0  0  0  0  0  0  0  0  0
   32.4370   25.8930   46.9920 C   0  0  0  0  0  0  0  0  0  0  0  0
   32.1630   24.9300   46.5800 H   0  0  0  0  0  0  0  0  0  0  0  0
   31.5270   26.9270   47.0830 C   0  0  0  0  0  0  0  0  0  0  0  0
   30.4810   27.0330   46.8140 H   0  0  0  0  0  0  0  0  0  0  0  0
   32.1520   27.9430   47.6160 O   0  0  0  0  0  0  0  0  0  0  0  0
   37.1780   31.0180   50.4900 C   0  0  0  0  0  0  0  0  0  0  0  0
   38.4490   30.9480   49.8860 F   0  0  0  0  0  0  0  0  0  0  0  0
   36.7710   32.3240   50.4170 F   0  0  0  0  0  0  0  0  0  0  0  0
   37.3190   30.6330   51.7980 F   0  0  0  0  0  0  0  0  0  0  0  0
  1  7  1  0  0  0  0
  2  1  2  0  0  0  0
  2 17  1  0  0  0  0
  3  2  1  0  0  0  0
  4  3  2  0  0  0  0
  4  5  1  0  0  0  0
  5  6  2  0  0  0  0
  6  1  1  0  0  0  0
  8  3  1  0  0  0  0
  9  5  1  0  0  0  0
 10 11  1  0  0  0  0
 10  9  2  0  0  0  0
 12 14  2  0  0  0  0
 12 10  1  0  0  0  0
 13 12  1  0  0  0  0
 14 16  1  0  0  0  0
 15 14  1  0  0  0  0
 16  9  1  0  0  0  0
 17 20  1  0  0  0  0
 18 17  1  0  0  0  0
 19 17  1  0  0  0  0
M  END
>  <minimizedAffinity>
-4.83865356

>  <minimizedRMSD>
0.419241786

$$$$
