
 OpenBabel03262521573D

 38 40  0  0  1  0  0  0  0  0999 V2000
   37.3190   23.7230   31.1240 C   0  0  1  0  0  0  0  0  0  0  0  0
   37.5880   24.3890   32.4610 C   0  0  2  0  0  0  0  0  0  0  0  0
   36.7730   25.6510   32.4950 C   0  0  0  0  0  0  0  0  0  0  0  0
   36.0400   25.8720   31.3490 O   0  0  0  0  0  0  0  0  0  0  0  0
   35.1470   24.8280   31.0940 C   0  0  0  0  0  0  0  0  0  0  0  0
   35.8340   23.4840   31.0380 C   0  0  2  0  0  0  0  0  0  0  0  0
   37.8520   22.7480   31.1020 H   0  0  0  0  0  0  0  0  0  0  0  0
   37.2660   23.6530   33.2420 H   0  0  0  0  0  0  0  0  0  0  0  0
   36.0330   25.5780   33.3380 H   0  0  0  0  0  0  0  0  0  0  0  0
   37.4130   26.5260   32.6690 H   0  0  0  0  0  0  0  0  0  0  0  0
   34.3800   24.8510   31.9000 H   0  0  0  0  0  0  0  0  0  0  0  0
   34.6880   25.0350   30.0960 H   0  0  0  0  0  0  0  0  0  0  0  0
   35.5560   22.9420   30.1220 H   0  0  0  0  0  0  0  0  0  0  0  0
   37.6540   24.5620   30.0690 O   0  0  0  0  0  0  0  0  0  0  0  0
   37.8110   23.9730   29.2730 H   0  0  0  0  0  0  0  0  0  0  0  0
   39.3340   24.7350   32.7060 S   0  0  0  0  0  0  0  0  0  0  0  0
   40.2350   23.1790   32.9980 C   0  0  0  0  0  0  0  0  0  0  0  0
   41.1070   23.4670   33.6380 H   0  0  0  0  0  0  0  0  0  0  0  0
   40.6950   22.8080   32.0400 H   0  0  0  0  0  0  0  0  0  0  0  0
   39.3010   21.9520   33.8850 S   0  0  0  0  0  0  0  0  0  0  0  0
   39.1310   22.4640   35.5880 C   0  0  0  0  0  0  0  0  0  0  0  0
   40.2540   22.2510   36.3600 C   0  0  0  0  0  0  0  0  0  0  0  0
   40.2030   22.6270   37.7130 C   0  0  0  0  0  0  0  0  0  0  0  0
   39.0400   23.1840   38.1900 N   0  0  0  0  0  0  0  0  0  0  0  0
   37.9860   23.3600   37.3760 C   0  0  0  0  0  0  0  0  0  0  0  0
   38.0280   23.0100   36.1070 N   0  0  0  0  0  0  0  0  0  0  0  0
   41.1790   21.8270   36.0530 H   0  0  0  0  0  0  0  0  0  0  0  0
   41.0630   22.4800   38.3680 H   0  0  0  0  0  0  0  0  0  0  0  0
   37.0440   23.7930   37.6950 H   0  0  0  0  0  0  0  0  0  0  0  0
   35.4910   22.7570   32.1840 O   0  0  0  0  0  0  0  0  0  0  0  0
   35.5100   21.3680   32.1740 C   0  0  0  0  0  0  0  0  0  0  0  0
   35.4750   20.6600   33.3580 C   0  0  0  0  0  0  0  0  0  0  0  0
   35.4320   20.8880   34.4020 H   0  0  0  0  0  0  0  0  0  0  0  0
   35.5070   19.3360   33.0020 C   0  0  0  0  0  0  0  0  0  0  0  0
   35.5030   18.3480   33.4560 H   0  0  0  0  0  0  0  0  0  0  0  0
   35.5600   19.2750   31.6210 C   0  0  0  0  0  0  0  0  0  0  0  0
   35.6020   18.6010   30.7580 H   0  0  0  0  0  0  0  0  0  0  0  0
   35.5600   20.5250   31.1660 O   0  0  0  0  0  0  0  0  0  0  0  0
  1  7  1  6  0  0  0
  1  2  1  0  0  0  0
  2  3  1  0  0  0  0
  2 16  1  0  0  0  0
  2  8  1  1  0  0  0
  3 10  1  0  0  0  0
  3  9  1  0  0  0  0
  4  3  1  0  0  0  0
  5  4  1  0  0  0  0
  5 11  1  0  0  0  0
  6 13  1  6  0  0  0
  6  5  1  0  0  0  0
  6  1  1  0  0  0  0
  6 30  1  0  0  0  0
 12  5  1  0  0  0  0
 14  1  1  0  0  0  0
 15 14  1  0  0  0  0
 16 17  1  0  0  0  0
 17 18  1  0  0  0  0
 17 20  1  0  0  0  0
 19 17  1  0  0  0  0
 20 21  1  0  0  0  0
 21 26  2  0  0  0  0
 21 22  1  0  0  0  0
 22 23  2  0  0  0  0
 23 24  1  0  0  0  0
 23 28  1  0  0  0  0
 25 29  1  0  0  0  0
 25 24  2  0  0  0  0
 26 25  1  0  0  0  0
 27 22  1  0  0  0  0
 31 30  1  0  0  0  0
 31 32  2  0  0  0  0
 32 33  1  0  0  0  0
 34 32  1  0  0  0  0
 34 35  1  0  0  0  0
 36 34  2  0  0  0  0
 37 36  1  0  0  0  0
 38 36  1  0  0  0  0
 38 31  1  0  0  0  0
M  END
>  <minimizedAffinity>
-5.17933893

$$$$

 OpenBabel03262521573D

 38 40  0  0  1  0  0  0  0  0999 V2000
   37.0060   26.6370   34.5320 C   0  0  1  0  0  0  0  0  0  0  0  0
   37.4510   25.9800   33.2370 C   0  0  2  0  0  0  0  0  0  0  0  0
   38.8550   26.4450   32.9710 C   0  0  0  0  0  0  0  0  0  0  0  0
   39.3440   27.3180   33.9190 O   0  0  0  0  0  0  0  0  0  0  0  0
   39.3490   26.7490   35.1940 C   0  0  0  0  0  0  0  0  0  0  0  0
   37.9900   26.2280   35.5980 C   0  0  2  0  0  0  0  0  0  0  0  0
   35.9970   26.2510   34.7940 H   0  0  0  0  0  0  0  0  0  0  0  0
   37.3950   24.8760   33.4170 H   0  0  0  0  0  0  0  0  0  0  0  0
   39.5370   25.5510   32.9780 H   0  0  0  0  0  0  0  0  0  0  0  0
   38.9260   26.9280   31.9870 H   0  0  0  0  0  0  0  0  0  0  0  0
   40.1030   25.9310   35.1840 H   0  0  0  0  0  0  0  0  0  0  0  0
   39.6440   27.5590   35.9060 H   0  0  0  0  0  0  0  0  0  0  0  0
   37.7050   26.6090   36.5890 H   0  0  0  0  0  0  0  0  0  0  0  0
   37.0650   28.0210   34.4390 O   0  0  0  0  0  0  0  0  0  0  0  0
   36.4380   28.3810   35.1330 H   0  0  0  0  0  0  0  0  0  0  0  0
   36.3610   26.3800   31.8670 S   0  0  0  0  0  0  0  0  0  0  0  0
   35.8440   24.8490   31.0250 C   0  0  0  0  0  0  0  0  0  0  0  0
   35.6540   25.1530   29.9660 H   0  0  0  0  0  0  0  0  0  0  0  0
   34.8420   24.5110   31.4090 H   0  0  0  0  0  0  0  0  0  0  0  0
   37.0870   23.5760   31.0020 S   0  0  0  0  0  0  0  0  0  0  0  0
   36.3150   21.9990   31.3280 C   0  0  0  0  0  0  0  0  0  0  0  0
   36.9110   20.9310   30.6870 C   0  0  0  0  0  0  0  0  0  0  0  0
   36.3640   19.6540   30.8910 C   0  0  0  0  0  0  0  0  0  0  0  0
   35.2680   19.5380   31.7150 N   0  0  0  0  0  0  0  0  0  0  0  0
   34.7430   20.6250   32.3050 C   0  0  0  0  0  0  0  0  0  0  0  0
   35.2520   21.8260   32.1170 N   0  0  0  0  0  0  0  0  0  0  0  0
   37.7540   20.9540   30.0420 H   0  0  0  0  0  0  0  0  0  0  0  0
   36.7950   18.7760   30.4090 H   0  0  0  0  0  0  0  0  0  0  0  0
   33.8810   20.5960   32.9630 H   0  0  0  0  0  0  0  0  0  0  0  0
   38.0230   24.8290   35.5800 O   0  0  0  0  0  0  0  0  0  0  0  0
   38.5830   24.1190   36.6350 C   0  0  0  0  0  0  0  0  0  0  0  0
   38.0080   24.1620   37.8890 C   0  0  0  0  0  0  0  0  0  0  0  0
   37.1630   24.6340   38.3440 H   0  0  0  0  0  0  0  0  0  0  0  0
   38.7930   23.3680   38.6860 C   0  0  0  0  0  0  0  0  0  0  0  0
   38.8580   23.0210   39.7140 H   0  0  0  0  0  0  0  0  0  0  0  0
   39.8150   22.8670   37.9000 C   0  0  0  0  0  0  0  0  0  0  0  0
   40.7070   22.2310   37.8950 H   0  0  0  0  0  0  0  0  0  0  0  0
   39.6460   23.3470   36.6720 O   0  0  0  0  0  0  0  0  0  0  0  0
  1  7  1  1  0  0  0
  1  6  1  0  0  0  0
  2  8  1  1  0  0  0
  2  1  1  0  0  0  0
  3  9  1  0  0  0  0
  3  2  1  0  0  0  0
  3  4  1  0  0  0  0
  4  5  1  0  0  0  0
  5  6  1  0  0  0  0
  5 12  1  0  0  0  0
  6 13  1  1  0  0  0
 10  3  1  0  0  0  0
 11  5  1  0  0  0  0
 14  1  1  0  0  0  0
 14 15  1  0  0  0  0
 16  2  1  0  0  0  0
 17 19  1  0  0  0  0
 17 16  1  0  0  0  0
 18 17  1  0  0  0  0
 20 17  1  0  0  0  0
 20 21  1  0  0  0  0
 21 26  1  0  0  0  0
 22 23  1  0  0  0  0
 22 21  2  0  0  0  0
 23 24  2  0  0  0  0
 24 25  1  0  0  0  0
 25 29  1  0  0  0  0
 26 25  2  0  0  0  0
 27 22  1  0  0  0  0
 28 23  1  0  0  0  0
 30  6  1  0  0  0  0
 30 31  1  0  0  0  0
 31 38  1  0  0  0  0
 31 32  2  0  0  0  0
 32 33  1  0  0  0  0
 32 34  1  0  0  0  0
 34 35  1  0  0  0  0
 36 34  2  0  0  0  0
 37 36  1  0  0  0  0
 38 36  1  0  0  0  0
M  END
>  <minimizedAffinity>
-5.12484884

$$$$

 OpenBabel03262521573D

 38 40  0  0  1  0  0  0  0  0999 V2000
   37.5910   24.6500   31.2030 C   0  0  1  0  0  0  0  0  0  0  0  0
   37.4330   25.5570   32.4100 C   0  0  2  0  0  0  0  0  0  0  0  0
   36.2630   26.4590   32.1300 C   0  0  0  0  0  0  0  0  0  0  0  0
   35.6770   26.2470   30.9010 O   0  0  0  0  0  0  0  0  0  0  0  0
   35.2110   24.9370   30.7670 C   0  0  0  0  0  0  0  0  0  0  0  0
   36.2890   23.9130   31.0290 C   0  0  2  0  0  0  0  0  0  0  0  0
   38.4030   23.9210   31.4150 H   0  0  0  0  0  0  0  0  0  0  0  0
   37.2480   24.8800   33.2830 H   0  0  0  0  0  0  0  0  0  0  0  0
   35.4680   26.2650   32.9010 H   0  0  0  0  0  0  0  0  0  0  0  0
   36.5590   27.5140   32.1950 H   0  0  0  0  0  0  0  0  0  0  0  0
   34.3650   24.8170   31.4800 H   0  0  0  0  0  0  0  0  0  0  0  0
   34.8640   24.8260   29.7100 H   0  0  0  0  0  0  0  0  0  0  0  0
   36.3370   23.1800   30.2100 H   0  0  0  0  0  0  0  0  0  0  0  0
   37.7950   25.3880   30.0440 O   0  0  0  0  0  0  0  0  0  0  0  0
   38.2480   24.7760   29.3920 H   0  0  0  0  0  0  0  0  0  0  0  0
   38.9210   26.5060   32.7440 S   0  0  0  0  0  0  0  0  0  0  0  0
   38.9960   26.9300   34.5140 C   0  0  0  0  0  0  0  0  0  0  0  0
   38.7540   28.0220   34.5590 H   0  0  0  0  0  0  0  0  0  0  0  0
   40.0550   26.8580   34.8880 H   0  0  0  0  0  0  0  0  0  0  0  0
   37.8030   26.0750   35.5190 S   0  0  0  0  0  0  0  0  0  0  0  0
   38.6090   24.7240   36.3630 C   0  0  0  0  0  0  0  0  0  0  0  0
   38.0740   24.4260   37.5990 C   0  0  0  0  0  0  0  0  0  0  0  0
   38.6520   23.3730   38.3290 C   0  0  0  0  0  0  0  0  0  0  0  0
   39.7160   22.7010   37.7730 N   0  0  0  0  0  0  0  0  0  0  0  0
   40.1810   23.0500   36.5610 C   0  0  0  0  0  0  0  0  0  0  0  0
   39.6430   24.0360   35.8730 N   0  0  0  0  0  0  0  0  0  0  0  0
   37.2580   24.9040   38.0830 H   0  0  0  0  0  0  0  0  0  0  0  0
   38.2680   23.0970   39.3120 H   0  0  0  0  0  0  0  0  0  0  0  0
   41.0160   22.5580   36.0730 H   0  0  0  0  0  0  0  0  0  0  0  0
   36.0280   23.2890   32.2540 O   0  0  0  0  0  0  0  0  0  0  0  0
   35.7940   21.9220   32.3180 C   0  0  0  0  0  0  0  0  0  0  0  0
   35.6620   21.1800   31.1620 C   0  0  0  0  0  0  0  0  0  0  0  0
   35.6880   21.3650   30.1090 H   0  0  0  0  0  0  0  0  0  0  0  0
   35.4430   19.8890   31.5700 C   0  0  0  0  0  0  0  0  0  0  0  0
   35.2710   18.8990   31.1550 H   0  0  0  0  0  0  0  0  0  0  0  0
   35.4480   19.8810   32.9540 C   0  0  0  0  0  0  0  0  0  0  0  0
   35.3430   19.2490   33.8430 H   0  0  0  0  0  0  0  0  0  0  0  0
   35.6630   21.1290   33.3590 O   0  0  0  0  0  0  0  0  0  0  0  0
  1  7  1  1  0  0  0
  1  2  1  0  0  0  0
  2 16  1  0  0  0  0
  2  8  1  1  0  0  0
  3 10  1  0  0  0  0
  3  2  1  0  0  0  0
  3  9  1  0  0  0  0
  4  3  1  0  0  0  0
  5  4  1  0  0  0  0
  5  6  1  0  0  0  0
  5 11  1  0  0  0  0
  6 13  1  6  0  0  0
  6  1  1  0  0  0  0
  6 30  1  0  0  0  0
 12  5  1  0  0  0  0
 14  1  1  0  0  0  0
 15 14  1  0  0  0  0
 16 17  1  0  0  0  0
 17 18  1  0  0  0  0
 17 19  1  0  0  0  0
 17 20  1  0  0  0  0
 20 21  1  0  0  0  0
 21 22  1  0  0  0  0
 22 27  1  0  0  0  0
 22 23  2  0  0  0  0
 23 28  1  0  0  0  0
 24 23  1  0  0  0  0
 25 24  2  0  0  0  0
 26 21  2  0  0  0  0
 26 25  1  0  0  0  0
 29 25  1  0  0  0  0
 30 31  1  0  0  0  0
 31 38  1  0  0  0  0
 32 34  1  0  0  0  0
 32 31  2  0  0  0  0
 33 32  1  0  0  0  0
 34 36  2  0  0  0  0
 35 34  1  0  0  0  0
 36 38  1  0  0  0  0
 36 37  1  0  0  0  0
M  END
>  <minimizedAffinity>
-5.10134983

$$$$

 OpenBabel03262521573D

 38 40  0  0  1  0  0  0  0  0999 V2000
   35.8610   26.9120   31.7930 C   0  0  1  0  0  0  0  0  0  0  0  0
   37.1230   26.3940   32.4600 C   0  0  2  0  0  0  0  0  0  0  0  0
   38.2790   27.1260   31.8390 C   0  0  0  0  0  0  0  0  0  0  0  0
   37.9100   28.0230   30.8590 O   0  0  0  0  0  0  0  0  0  0  0  0
   37.0390   28.9990   31.3510 C   0  0  0  0  0  0  0  0  0  0  0  0
   35.8220   28.4020   32.0150 C   0  0  2  0  0  0  0  0  0  0  0  0
   34.9840   26.4420   32.2880 H   0  0  0  0  0  0  0  0  0  0  0  0
   37.0120   26.6240   33.5510 H   0  0  0  0  0  0  0  0  0  0  0  0
   38.7990   27.7220   32.6380 H   0  0  0  0  0  0  0  0  0  0  0  0
   39.0020   26.4210   31.4070 H   0  0  0  0  0  0  0  0  0  0  0  0
   37.6190   29.6230   32.0670 H   0  0  0  0  0  0  0  0  0  0  0  0
   36.7050   29.6020   30.4710 H   0  0  0  0  0  0  0  0  0  0  0  0
   34.9000   28.8530   31.6180 H   0  0  0  0  0  0  0  0  0  0  0  0
   35.9000   26.7090   30.4200 O   0  0  0  0  0  0  0  0  0  0  0  0
   34.9490   26.7150   30.1030 H   0  0  0  0  0  0  0  0  0  0  0  0
   37.3050   24.6170   32.2790 S   0  0  0  0  0  0  0  0  0  0  0  0
   38.7010   24.0340   33.2930 C   0  0  0  0  0  0  0  0  0  0  0  0
   38.8860   24.8560   34.0290 H   0  0  0  0  0  0  0  0  0  0  0  0
   39.6400   23.9880   32.6760 H   0  0  0  0  0  0  0  0  0  0  0  0
   38.3590   22.5530   34.2190 S   0  0  0  0  0  0  0  0  0  0  0  0
   38.7160   22.8460   35.9440 C   0  0  0  0  0  0  0  0  0  0  0  0
   37.7730   23.6140   36.5970 C   0  0  0  0  0  0  0  0  0  0  0  0
   37.9790   23.8910   37.9590 C   0  0  0  0  0  0  0  0  0  0  0  0
   39.1060   23.3830   38.5630 N   0  0  0  0  0  0  0  0  0  0  0  0
   39.9790   22.6420   37.8610 C   0  0  0  0  0  0  0  0  0  0  0  0
   39.7910   22.3790   36.5840 N   0  0  0  0  0  0  0  0  0  0  0  0
   36.8870   24.0350   36.1890 H   0  0  0  0  0  0  0  0  0  0  0  0
   37.2660   24.4940   38.5220 H   0  0  0  0  0  0  0  0  0  0  0  0
   40.8830   22.2160   38.2830 H   0  0  0  0  0  0  0  0  0  0  0  0
   35.9260   28.5920   33.3970 O   0  0  0  0  0  0  0  0  0  0  0  0
   35.0470   29.4340   34.0650 C   0  0  0  0  0  0  0  0  0  0  0  0
   35.5230   30.5030   34.7970 C   0  0  0  0  0  0  0  0  0  0  0  0
   36.4770   30.9260   35.0310 H   0  0  0  0  0  0  0  0  0  0  0  0
   34.4150   31.1200   35.3210 C   0  0  0  0  0  0  0  0  0  0  0  0
   34.1480   31.9670   35.9480 H   0  0  0  0  0  0  0  0  0  0  0  0
   33.3030   30.4140   34.8960 C   0  0  0  0  0  0  0  0  0  0  0  0
   32.2100   30.3610   34.9390 H   0  0  0  0  0  0  0  0  0  0  0  0
   33.7340   29.4070   34.1420 O   0  0  0  0  0  0  0  0  0  0  0  0
  1  6  1  0  0  0  0
  1  7  1  1  0  0  0
  1  2  1  0  0  0  0
  2  8  1  1  0  0  0
  3  2  1  0  0  0  0
  3  9  1  0  0  0  0
  4  5  1  0  0  0  0
  4  3  1  0  0  0  0
  5  6  1  0  0  0  0
  5 11  1  0  0  0  0
  6 13  1  6  0  0  0
  6 30  1  0  0  0  0
 10  3  1  0  0  0  0
 12  5  1  0  0  0  0
 14  1  1  0  0  0  0
 15 14  1  0  0  0  0
 16  2  1  0  0  0  0
 16 17  1  0  0  0  0
 17 18  1  0  0  0  0
 17 20  1  0  0  0  0
 19 17  1  0  0  0  0
 20 21  1  0  0  0  0
 21 26  2  0  0  0  0
 21 22  1  0  0  0  0
 22 23  2  0  0  0  0
 23 28  1  0  0  0  0
 23 24  1  0  0  0  0
 25 29  1  0  0  0  0
 25 24  2  0  0  0  0
 26 25  1  0  0  0  0
 27 22  1  0  0  0  0
 30 31  1  0  0  0  0
 31 38  1  0  0  0  0
 31 32  2  0  0  0  0
 32 33  1  0  0  0  0
 32 34  1  0  0  0  0
 34 35  1  0  0  0  0
 36 37  1  0  0  0  0
 36 34  2  0  0  0  0
 38 36  1  0  0  0  0
M  END
>  <minimizedAffinity>
-4.83832121

$$$$

 OpenBabel03262521573D

 38 40  0  0  1  0  0  0  0  0999 V2000
   38.6660   26.3600   34.5450 C   0  0  1  0  0  0  0  0  0  0  0  0
   37.2040   26.4540   34.1430 C   0  0  2  0  0  0  0  0  0  0  0  0
   37.1230   26.0660   32.6930 C   0  0  0  0  0  0  0  0  0  0  0  0
   38.3420   25.7560   32.1290 O   0  0  0  0  0  0  0  0  0  0  0  0
   38.9650   24.6950   32.7910 C   0  0  0  0  0  0  0  0  0  0  0  0
   39.1110   24.9470   34.2720 C   0  0  2  0  0  0  0  0  0  0  0  0
   38.7450   26.5690   35.6330 H   0  0  0  0  0  0  0  0  0  0  0  0
   36.6560   25.7370   34.8070 H   0  0  0  0  0  0  0  0  0  0  0  0
   36.4860   25.1440   32.6040 H   0  0  0  0  0  0  0  0  0  0  0  0
   36.6600   26.8660   32.1000 H   0  0  0  0  0  0  0  0  0  0  0  0
   38.3530   23.7860   32.5980 H   0  0  0  0  0  0  0  0  0  0  0  0
   39.9850   24.5950   32.3450 H   0  0  0  0  0  0  0  0  0  0  0  0
   40.1470   24.7720   34.5980 H   0  0  0  0  0  0  0  0  0  0  0  0
   39.4560   27.1900   33.7600 O   0  0  0  0  0  0  0  0  0  0  0  0
   40.2910   27.3700   34.2850 H   0  0  0  0  0  0  0  0  0  0  0  0
   36.5310   28.0960   34.4160 S   0  0  0  0  0  0  0  0  0  0  0  0
   36.0820   28.8510   32.8200 C   0  0  0  0  0  0  0  0  0  0  0  0
   35.7170   28.0010   32.1920 H   0  0  0  0  0  0  0  0  0  0  0  0
   37.0030   29.2210   32.2900 H   0  0  0  0  0  0  0  0  0  0  0  0
   34.7680   30.0450   32.9240 S   0  0  0  0  0  0  0  0  0  0  0  0
   34.8920   30.9200   34.4760 C   0  0  0  0  0  0  0  0  0  0  0  0
   33.7990   30.7660   35.3040 C   0  0  0  0  0  0  0  0  0  0  0  0
   33.8170   31.4220   36.5460 C   0  0  0  0  0  0  0  0  0  0  0  0
   34.9200   32.1800   36.8660 N   0  0  0  0  0  0  0  0  0  0  0  0
   35.9470   32.2810   36.0060 C   0  0  0  0  0  0  0  0  0  0  0  0
   35.9360   31.6680   34.8400 N   0  0  0  0  0  0  0  0  0  0  0  0
   32.9210   30.1980   35.1160 H   0  0  0  0  0  0  0  0  0  0  0  0
   32.9790   31.3340   37.2380 H   0  0  0  0  0  0  0  0  0  0  0  0
   36.8420   32.8640   36.2020 H   0  0  0  0  0  0  0  0  0  0  0  0
   38.2150   24.1180   34.9580 O   0  0  0  0  0  0  0  0  0  0  0  0
   38.3310   23.9310   36.3290 C   0  0  0  0  0  0  0  0  0  0  0  0
   39.3350   23.1370   36.8440 C   0  0  0  0  0  0  0  0  0  0  0  0
   40.1440   22.5540   36.4580 H   0  0  0  0  0  0  0  0  0  0  0  0
   39.1700   23.1620   38.2060 C   0  0  0  0  0  0  0  0  0  0  0  0
   39.6180   22.7570   39.1100 H   0  0  0  0  0  0  0  0  0  0  0  0
   38.0770   23.9650   38.4800 C   0  0  0  0  0  0  0  0  0  0  0  0
   37.4510   24.3790   39.2780 H   0  0  0  0  0  0  0  0  0  0  0  0
   37.6050   24.4060   37.3180 O   0  0  0  0  0  0  0  0  0  0  0  0
  1  7  1  1  0  0  0
  2 16  1  0  0  0  0
  2  1  1  0  0  0  0
  2  8  1  1  0  0  0
  3  2  1  0  0  0  0
  4  3  1  0  0  0  0
  4  5  1  0  0  0  0
  5  6  1  0  0  0  0
  6  1  1  0  0  0  0
  6 13  1  1  0  0  0
  6 30  1  0  0  0  0
  9  3  1  0  0  0  0
 10  3  1  0  0  0  0
 11  5  1  0  0  0  0
 12  5  1  0  0  0  0
 14 15  1  0  0  0  0
 14  1  1  0  0  0  0
 17 20  1  0  0  0  0
 17 16  1  0  0  0  0
 18 17  1  0  0  0  0
 19 17  1  0  0  0  0
 20 21  1  0  0  0  0
 21 26  2  0  0  0  0
 21 22  1  0  0  0  0
 22 23  2  0  0  0  0
 23 24  1  0  0  0  0
 23 28  1  0  0  0  0
 25 29  1  0  0  0  0
 25 24  2  0  0  0  0
 26 25  1  0  0  0  0
 27 22  1  0  0  0  0
 30 31  1  0  0  0  0
 31 32  2  0  0  0  0
 31 38  1  0  0  0  0
 32 34  1  0  0  0  0
 33 32  1  0  0  0  0
 34 36  2  0  0  0  0
 34 35  1  0  0  0  0
 36 37  1  0  0  0  0
 38 36  1  0  0  0  0
M  END
>  <minimizedAffinity>
-4.63015079

$$$$

 OpenBabel03262521573D

 38 40  0  0  1  0  0  0  0  0999 V2000
   38.1000   26.3730   31.2770 C   0  0  1  0  0  0  0  0  0  0  0  0
   36.8040   27.1560   31.3990 C   0  0  2  0  0  0  0  0  0  0  0  0
   35.6860   26.2030   31.0860 C   0  0  0  0  0  0  0  0  0  0  0  0
   36.1090   24.9300   30.7680 O   0  0  0  0  0  0  0  0  0  0  0  0
   36.8430   24.3540   31.8070 C   0  0  0  0  0  0  0  0  0  0  0  0
   38.0090   25.2130   32.2350 C   0  0  2  0  0  0  0  0  0  0  0  0
   38.9410   27.0350   31.5780 H   0  0  0  0  0  0  0  0  0  0  0  0
   36.7660   27.5250   32.4560 H   0  0  0  0  0  0  0  0  0  0  0  0
   35.0320   26.1050   31.9950 H   0  0  0  0  0  0  0  0  0  0  0  0
   35.0720   26.5800   30.2560 H   0  0  0  0  0  0  0  0  0  0  0  0
   36.1390   24.1880   32.6520 H   0  0  0  0  0  0  0  0  0  0  0  0
   37.2410   23.3840   31.4190 H   0  0  0  0  0  0  0  0  0  0  0  0
   38.9390   24.6260   32.2590 H   0  0  0  0  0  0  0  0  0  0  0  0
   38.2440   25.8360   30.0050 O   0  0  0  0  0  0  0  0  0  0  0  0
   39.2240   25.6710   29.8730 H   0  0  0  0  0  0  0  0  0  0  0  0
   36.7700   28.5820   30.3080 S   0  0  0  0  0  0  0  0  0  0  0  0
   35.6980   29.8740   31.0170 C   0  0  0  0  0  0  0  0  0  0  0  0
   34.8250   29.9380   30.3190 H   0  0  0  0  0  0  0  0  0  0  0  0
   36.1960   30.8800   30.9420 H   0  0  0  0  0  0  0  0  0  0  0  0
   35.0640   29.4880   32.6340 S   0  0  0  0  0  0  0  0  0  0  0  0
   35.5710   30.7600   33.7800 C   0  0  0  0  0  0  0  0  0  0  0  0
   35.8720   31.9700   33.1890 C   0  0  0  0  0  0  0  0  0  0  0  0
   36.2790   33.0250   34.0230 C   0  0  0  0  0  0  0  0  0  0  0  0
   36.3550   32.7930   35.3770 N   0  0  0  0  0  0  0  0  0  0  0  0
   36.0440   31.5870   35.8780 C   0  0  0  0  0  0  0  0  0  0  0  0
   35.6620   30.5940   35.1020 N   0  0  0  0  0  0  0  0  0  0  0  0
   35.8350   32.2120   32.1560 H   0  0  0  0  0  0  0  0  0  0  0  0
   36.5300   34.0020   33.6080 H   0  0  0  0  0  0  0  0  0  0  0  0
   36.0850   31.3450   36.9360 H   0  0  0  0  0  0  0  0  0  0  0  0
   37.7230   25.7660   33.4880 O   0  0  0  0  0  0  0  0  0  0  0  0
   37.9890   25.0570   34.6530 C   0  0  0  0  0  0  0  0  0  0  0  0
   37.8540   25.6620   35.8860 C   0  0  0  0  0  0  0  0  0  0  0  0
   37.5740   26.6260   36.2550 H   0  0  0  0  0  0  0  0  0  0  0  0
   38.1870   24.7050   36.8100 C   0  0  0  0  0  0  0  0  0  0  0  0
   38.2720   24.5750   37.8860 H   0  0  0  0  0  0  0  0  0  0  0  0
   38.5130   23.5520   36.1180 C   0  0  0  0  0  0  0  0  0  0  0  0
   38.8370   22.5100   36.2230 H   0  0  0  0  0  0  0  0  0  0  0  0
   38.3780   23.8120   34.8220 O   0  0  0  0  0  0  0  0  0  0  0  0
  1  2  1  0  0  0  0
  1  7  1  1  0  0  0
  1  6  1  0  0  0  0
  2  8  1  1  0  0  0
  3  2  1  0  0  0  0
  3  9  1  0  0  0  0
  4  3  1  0  0  0  0
  4  5  1  0  0  0  0
  5  6  1  0  0  0  0
  5 11  1  0  0  0  0
  6 13  1  1  0  0  0
  6 30  1  0  0  0  0
 10  3  1  0  0  0  0
 12  5  1  0  0  0  0
 14  1  1  0  0  0  0
 15 14  1  0  0  0  0
 16 17  1  0  0  0  0
 16  2  1  0  0  0  0
 17 20  1  0  0  0  0
 18 17  1  0  0  0  0
 19 17  1  0  0  0  0
 20 21  1  0  0  0  0
 21 26  1  0  0  0  0
 22 21  2  0  0  0  0
 22 23  1  0  0  0  0
 23 24  2  0  0  0  0
 24 25  1  0  0  0  0
 25 29  1  0  0  0  0
 26 25  2  0  0  0  0
 27 22  1  0  0  0  0
 28 23  1  0  0  0  0
 30 31  1  0  0  0  0
 31 38  1  0  0  0  0
 31 32  2  0  0  0  0
 32 33  1  0  0  0  0
 32 34  1  0  0  0  0
 34 35  1  0  0  0  0
 36 37  1  0  0  0  0
 36 34  2  0  0  0  0
 38 36  1  0  0  0  0
M  END
>  <minimizedAffinity>
-4.58289099

$$$$

 OpenBabel03262521573D

 38 40  0  0  1  0  0  0  0  0999 V2000
   38.6730   26.3480   34.5280 C   0  0  1  0  0  0  0  0  0  0  0  0
   37.1950   26.4610   34.1950 C   0  0  2  0  0  0  0  0  0  0  0  0
   37.0310   26.0110   32.7710 C   0  0  0  0  0  0  0  0  0  0  0  0
   38.2120   25.6450   32.1610 O   0  0  0  0  0  0  0  0  0  0  0  0
   38.8430   24.5990   32.8390 C   0  0  0  0  0  0  0  0  0  0  0  0
   39.0700   24.9130   34.2980 C   0  0  2  0  0  0  0  0  0  0  0  0
   38.8120   26.6030   35.6000 H   0  0  0  0  0  0  0  0  0  0  0  0
   36.6650   25.7890   34.9180 H   0  0  0  0  0  0  0  0  0  0  0  0
   36.3690   25.1020   32.7560 H   0  0  0  0  0  0  0  0  0  0  0  0
   36.5570   26.7950   32.1660 H   0  0  0  0  0  0  0  0  0  0  0  0
   38.2020   23.6980   32.7190 H   0  0  0  0  0  0  0  0  0  0  0  0
   39.8370   24.4530   32.3480 H   0  0  0  0  0  0  0  0  0  0  0  0
   40.1180   24.7260   34.5790 H   0  0  0  0  0  0  0  0  0  0  0  0
   39.4400   27.1220   33.6680 O   0  0  0  0  0  0  0  0  0  0  0  0
   40.3050   27.3030   34.1410 H   0  0  0  0  0  0  0  0  0  0  0  0
   36.5750   28.1300   34.4270 S   0  0  0  0  0  0  0  0  0  0  0  0
   36.1470   28.8570   32.8120 C   0  0  0  0  0  0  0  0  0  0  0  0
   35.6380   28.0330   32.2510 H   0  0  0  0  0  0  0  0  0  0  0  0
   37.0790   29.0710   32.2200 H   0  0  0  0  0  0  0  0  0  0  0  0
   35.0100   30.2220   32.9070 S   0  0  0  0  0  0  0  0  0  0  0  0
   33.4570   29.6450   33.5750 C   0  0  0  0  0  0  0  0  0  0  0  0
   33.2930   29.8910   34.9230 C   0  0  0  0  0  0  0  0  0  0  0  0
   32.0970   29.4680   35.5280 C   0  0  0  0  0  0  0  0  0  0  0  0
   31.1600   28.8350   34.7450 N   0  0  0  0  0  0  0  0  0  0  0  0
   31.3920   28.6320   33.4370 C   0  0  0  0  0  0  0  0  0  0  0  0
   32.5110   29.0260   32.8650 N   0  0  0  0  0  0  0  0  0  0  0  0
   33.9750   30.3720   35.5800 H   0  0  0  0  0  0  0  0  0  0  0  0
   31.9170   29.6370   36.5900 H   0  0  0  0  0  0  0  0  0  0  0  0
   30.6920   28.1390   32.7700 H   0  0  0  0  0  0  0  0  0  0  0  0
   38.1920   24.1390   35.0650 O   0  0  0  0  0  0  0  0  0  0  0  0
   38.5220   23.7700   36.3630 C   0  0  0  0  0  0  0  0  0  0  0  0
   39.7160   23.1310   36.6260 C   0  0  0  0  0  0  0  0  0  0  0  0
   40.5620   22.7960   36.0640 H   0  0  0  0  0  0  0  0  0  0  0  0
   39.7310   22.9090   37.9790 C   0  0  0  0  0  0  0  0  0  0  0  0
   40.3630   22.4710   38.7480 H   0  0  0  0  0  0  0  0  0  0  0  0
   38.5530   23.4160   38.4990 C   0  0  0  0  0  0  0  0  0  0  0  0
   37.9730   23.5620   39.4170 H   0  0  0  0  0  0  0  0  0  0  0  0
   37.8570   23.9250   37.4870 O   0  0  0  0  0  0  0  0  0  0  0  0
  1  7  1  1  0  0  0
  2 16  1  0  0  0  0
  2  1  1  0  0  0  0
  2  8  1  1  0  0  0
  3  2  1  0  0  0  0
  4  3  1  0  0  0  0
  4  5  1  0  0  0  0
  5  6  1  0  0  0  0
  6  1  1  0  0  0  0
  6 13  1  1  0  0  0
  6 30  1  0  0  0  0
  9  3  1  0  0  0  0
 10  3  1  0  0  0  0
 11  5  1  0  0  0  0
 12  5  1  0  0  0  0
 14 15  1  0  0  0  0
 14  1  1  0  0  0  0
 17 20  1  0  0  0  0
 17 16  1  0  0  0  0
 18 17  1  0  0  0  0
 19 17  1  0  0  0  0
 20 21  1  0  0  0  0
 21 22  1  0  0  0  0
 22 23  2  0  0  0  0
 22 27  1  0  0  0  0
 23 28  1  0  0  0  0
 24 23  1  0  0  0  0
 25 24  2  0  0  0  0
 26 25  1  0  0  0  0
 26 21  2  0  0  0  0
 29 25  1  0  0  0  0
 30 31  1  0  0  0  0
 31 32  2  0  0  0  0
 31 38  1  0  0  0  0
 32 34  1  0  0  0  0
 33 32  1  0  0  0  0
 34 36  2  0  0  0  0
 34 35  1  0  0  0  0
 36 37  1  0  0  0  0
 38 36  1  0  0  0  0
M  END
>  <minimizedAffinity>
-4.55253792

$$$$

 OpenBabel03262521573D

 38 40  0  0  1  0  0  0  0  0999 V2000
   37.7480   25.0960   31.3370 C   0  0  1  0  0  0  0  0  0  0  0  0
   37.4450   25.8390   32.6260 C   0  0  2  0  0  0  0  0  0  0  0  0
   36.2230   26.6760   32.3740 C   0  0  0  0  0  0  0  0  0  0  0  0
   35.7280   26.5690   31.0910 O   0  0  0  0  0  0  0  0  0  0  0  0
   35.3810   25.2520   30.7790 C   0  0  0  0  0  0  0  0  0  0  0  0
   36.5230   24.2890   30.9930 C   0  0  2  0  0  0  0  0  0  0  0  0
   38.6040   24.4110   31.5180 H   0  0  0  0  0  0  0  0  0  0  0  0
   37.2680   25.0500   33.4010 H   0  0  0  0  0  0  0  0  0  0  0  0
   35.4040   26.3320   33.0620 H   0  0  0  0  0  0  0  0  0  0  0  0
   36.4260   27.7360   32.5780 H   0  0  0  0  0  0  0  0  0  0  0  0
   34.5080   24.9850   31.4150 H   0  0  0  0  0  0  0  0  0  0  0  0
   35.1060   25.2430   29.6950 H   0  0  0  0  0  0  0  0  0  0  0  0
   36.6800   23.6640   30.1000 H   0  0  0  0  0  0  0  0  0  0  0  0
   37.9560   25.9800   30.2860 O   0  0  0  0  0  0  0  0  0  0  0  0
   38.4950   25.4870   29.6000 H   0  0  0  0  0  0  0  0  0  0  0  0
   38.8280   26.8510   33.1650 S   0  0  0  0  0  0  0  0  0  0  0  0
   40.3600   25.8660   33.1360 C   0  0  0  0  0  0  0  0  0  0  0  0
   41.1720   26.6040   32.9170 H   0  0  0  0  0  0  0  0  0  0  0  0
   40.3610   25.1710   32.2510 H   0  0  0  0  0  0  0  0  0  0  0  0
   40.7510   25.0820   34.6840 S   0  0  0  0  0  0  0  0  0  0  0  0
   39.4990   23.8630   35.0560 C   0  0  0  0  0  0  0  0  0  0  0  0
   38.8490   24.0640   36.2560 C   0  0  0  0  0  0  0  0  0  0  0  0
   37.8480   23.1490   36.6230 C   0  0  0  0  0  0  0  0  0  0  0  0
   37.5750   22.1060   35.7680 N   0  0  0  0  0  0  0  0  0  0  0  0
   38.2520   21.9770   34.6150 C   0  0  0  0  0  0  0  0  0  0  0  0
   39.1900   22.8320   34.2660 N   0  0  0  0  0  0  0  0  0  0  0  0
   39.0130   24.8450   36.9570 H   0  0  0  0  0  0  0  0  0  0  0  0
   37.3040   23.2600   37.5610 H   0  0  0  0  0  0  0  0  0  0  0  0
   38.0800   21.1760   33.9030 H   0  0  0  0  0  0  0  0  0  0  0  0
   36.2450   23.5060   32.1190 O   0  0  0  0  0  0  0  0  0  0  0  0
   35.8530   22.1810   31.9820 C   0  0  0  0  0  0  0  0  0  0  0  0
   36.4190   21.3810   31.0100 C   0  0  0  0  0  0  0  0  0  0  0  0
   37.1550   21.4890   30.2410 H   0  0  0  0  0  0  0  0  0  0  0  0
   35.8220   20.1530   31.1420 C   0  0  0  0  0  0  0  0  0  0  0  0
   35.8390   19.1620   30.6950 H   0  0  0  0  0  0  0  0  0  0  0  0
   34.9150   20.2390   32.1840 C   0  0  0  0  0  0  0  0  0  0  0  0
   34.1720   19.6850   32.7680 H   0  0  0  0  0  0  0  0  0  0  0  0
   34.9700   21.4800   32.6580 O   0  0  0  0  0  0  0  0  0  0  0  0
  1  7  1  1  0  0  0
  1  2  1  0  0  0  0
  2 16  1  0  0  0  0
  2  8  1  1  0  0  0
  3 10  1  0  0  0  0
  3  2  1  0  0  0  0
  3  9  1  0  0  0  0
  4  3  1  0  0  0  0
  5  6  1  0  0  0  0
  5  4  1  0  0  0  0
  5 11  1  0  0  0  0
  6 13  1  6  0  0  0
  6  1  1  0  0  0  0
  6 30  1  0  0  0  0
 12  5  1  0  0  0  0
 14  1  1  0  0  0  0
 15 14  1  0  0  0  0
 17 16  1  0  0  0  0
 17 20  1  0  0  0  0
 18 17  1  0  0  0  0
 19 17  1  0  0  0  0
 20 21  1  0  0  0  0
 21 22  1  0  0  0  0
 22 23  2  0  0  0  0
 22 27  1  0  0  0  0
 23 28  1  0  0  0  0
 24 23  1  0  0  0  0
 25 24  2  0  0  0  0
 26 25  1  0  0  0  0
 26 21  2  0  0  0  0
 29 25  1  0  0  0  0
 31 30  1  0  0  0  0
 31 38  1  0  0  0  0
 32 34  1  0  0  0  0
 32 31  2  0  0  0  0
 33 32  1  0  0  0  0
 34 36  2  0  0  0  0
 35 34  1  0  0  0  0
 36 38  1  0  0  0  0
 36 37  1  0  0  0  0
M  END
>  <minimizedAffinity>
-4.54679441

$$$$

 OpenBabel03262521573D

 38 40  0  0  1  0  0  0  0  0999 V2000
   37.6280   24.2080   31.6050 C   0  0  1  0  0  0  0  0  0  0  0  0
   36.1260   24.2040   31.8300 C   0  0  2  0  0  0  0  0  0  0  0  0
   35.6250   22.8470   31.4250 C   0  0  0  0  0  0  0  0  0  0  0  0
   36.6120   22.0030   30.9610 O   0  0  0  0  0  0  0  0  0  0  0  0
   37.6060   21.7910   31.9200 C   0  0  0  0  0  0  0  0  0  0  0  0
   38.2010   23.0820   32.4270 C   0  0  2  0  0  0  0  0  0  0  0  0
   38.0360   25.1760   31.9680 H   0  0  0  0  0  0  0  0  0  0  0  0
   35.9770   24.4040   32.9220 H   0  0  0  0  0  0  0  0  0  0  0  0
   35.1750   22.3470   32.3250 H   0  0  0  0  0  0  0  0  0  0  0  0
   34.8510   22.9310   30.6510 H   0  0  0  0  0  0  0  0  0  0  0  0
   37.1410   21.2130   32.7490 H   0  0  0  0  0  0  0  0  0  0  0  0
   38.4120   21.2000   31.4200 H   0  0  0  0  0  0  0  0  0  0  0  0
   39.3000   23.0530   32.3740 H   0  0  0  0  0  0  0  0  0  0  0  0
   37.9370   23.9370   30.2790 O   0  0  0  0  0  0  0  0  0  0  0  0
   38.8540   24.3080   30.1170 H   0  0  0  0  0  0  0  0  0  0  0  0
   35.3000   25.5050   30.9070 S   0  0  0  0  0  0  0  0  0  0  0  0
   36.2860   27.0350   30.9840 C   0  0  0  0  0  0  0  0  0  0  0  0
   35.8500   27.6980   30.1950 H   0  0  0  0  0  0  0  0  0  0  0  0
   37.3390   26.8400   30.6410 H   0  0  0  0  0  0  0  0  0  0  0  0
   36.1690   27.8990   32.5350 S   0  0  0  0  0  0  0  0  0  0  0  0
   37.5740   27.4730   33.5500 C   0  0  0  0  0  0  0  0  0  0  0  0
   37.3200   27.4830   34.9070 C   0  0  0  0  0  0  0  0  0  0  0  0
   38.3740   27.1580   35.7760 C   0  0  0  0  0  0  0  0  0  0  0  0
   39.5980   26.8500   35.2280 N   0  0  0  0  0  0  0  0  0  0  0  0
   39.7690   26.8600   33.8960 C   0  0  0  0  0  0  0  0  0  0  0  0
   38.7840   27.1640   33.0760 N   0  0  0  0  0  0  0  0  0  0  0  0
   36.4020   27.7120   35.3900 H   0  0  0  0  0  0  0  0  0  0  0  0
   38.2280   27.1520   36.8570 H   0  0  0  0  0  0  0  0  0  0  0  0
   40.7090   26.6270   33.4070 H   0  0  0  0  0  0  0  0  0  0  0  0
   37.7610   23.2950   33.7380 O   0  0  0  0  0  0  0  0  0  0  0  0
   38.6640   23.3330   34.7920 C   0  0  0  0  0  0  0  0  0  0  0  0
   38.2150   23.3840   36.0960 C   0  0  0  0  0  0  0  0  0  0  0  0
   37.2700   23.4070   36.5960 H   0  0  0  0  0  0  0  0  0  0  0  0
   39.3420   23.4120   36.8780 C   0  0  0  0  0  0  0  0  0  0  0  0
   39.6330   23.4520   37.9250 H   0  0  0  0  0  0  0  0  0  0  0  0
   40.4380   23.3760   36.0340 C   0  0  0  0  0  0  0  0  0  0  0  0
   41.5330   23.3710   35.9930 H   0  0  0  0  0  0  0  0  0  0  0  0
   39.9790   23.3290   34.7870 O   0  0  0  0  0  0  0  0  0  0  0  0
  1  2  1  0  0  0  0
  1  7  1  1  0  0  0
  1  6  1  0  0  0  0
  2  8  1  1  0  0  0
  3  2  1  0  0  0  0
  3  9  1  0  0  0  0
  4  3  1  0  0  0  0
  4  5  1  0  0  0  0
  5  6  1  0  0  0  0
  5 11  1  0  0  0  0
  6 13  1  6  0  0  0
  6 30  1  0  0  0  0
 10  3  1  0  0  0  0
 12  5  1  0  0  0  0
 14  1  1  0  0  0  0
 15 14  1  0  0  0  0
 16 17  1  0  0  0  0
 16  2  1  0  0  0  0
 17 20  1  0  0  0  0
 18 17  1  0  0  0  0
 19 17  1  0  0  0  0
 20 21  1  0  0  0  0
 21 22  1  0  0  0  0
 22 27  1  0  0  0  0
 22 23  2  0  0  0  0
 23 28  1  0  0  0  0
 24 23  1  0  0  0  0
 25 24  2  0  0  0  0
 26 21  2  0  0  0  0
 26 25  1  0  0  0  0
 29 25  1  0  0  0  0
 30 31  1  0  0  0  0
 31 32  2  0  0  0  0
 32 33  1  0  0  0  0
 32 34  1  0  0  0  0
 34 35  1  0  0  0  0
 36 34  2  0  0  0  0
 37 36  1  0  0  0  0
 38 31  1  0  0  0  0
 38 36  1  0  0  0  0
M  END
>  <minimizedAffinity>
-4.52003431

$$$$
