
 OpenBabel03272508123D

 33 35  0  0  0  0  0  0  0  0999 V2000
   36.7220   29.4520   44.1910 Cl  0  0  0  0  0  0  0  0  0  0  0  0
   38.3610   29.8240   43.6260 C   0  0  0  0  0  0  0  0  0  0  0  0
   39.3710   30.3490   44.4320 C   0  0  0  0  0  0  0  0  0  0  0  0
   40.6060   30.5930   43.8530 C   0  0  0  0  0  0  0  0  0  0  0  0
   40.8180   30.3240   42.5260 C   0  0  0  0  0  0  0  0  0  0  0  0
   39.8510   29.8130   41.7250 C   0  0  0  0  0  0  0  0  0  0  0  0
   38.6130   29.5580   42.2660 C   0  0  0  0  0  0  0  0  0  0  0  0
   41.3070   30.9980   44.5710 H   0  0  0  0  0  0  0  0  0  0  0  0
   41.8080   30.5430   42.1550 H   0  0  0  0  0  0  0  0  0  0  0  0
   40.0270   29.6030   40.6770 H   0  0  0  0  0  0  0  0  0  0  0  0
   37.5500   29.0070   41.4260 C   0  0  0  0  0  0  0  0  0  0  0  0
   37.3840   27.6740   41.1180 C   0  0  0  0  0  0  0  0  0  0  0  0
   37.9620   26.8180   41.4110 H   0  0  0  0  0  0  0  0  0  0  0  0
   36.2670   27.5530   40.3000 C   0  0  0  0  0  0  0  0  0  0  0  0
   35.7660   26.7320   39.8240 H   0  0  0  0  0  0  0  0  0  0  0  0
   35.8020   28.8650   40.1530 C   0  0  0  0  0  0  0  0  0  0  0  0
   34.9390   29.1840   39.5780 H   0  0  0  0  0  0  0  0  0  0  0  0
   36.5890   29.6680   40.8300 O   0  0  0  0  0  0  0  0  0  0  0  0
   38.9430   30.5400   45.7170 O   0  0  0  0  0  0  0  0  0  0  0  0
   39.4970   32.6300   47.1320 O   0  0  0  0  0  0  0  0  0  0  0  0
   38.3680   31.9250   46.4490 P   0  0  1  0  0  0  0  0  0  0  0  0
   37.7860   32.8940   45.1630 O   0  0  0  0  0  0  0  0  0  0  0  0
   38.4120   33.6520   45.0210 H   0  0  0  0  0  0  0  0  0  0  0  0
   37.0850   31.5360   47.4850 O   0  0  0  0  0  0  0  0  0  0  0  0
   37.6320   30.5140   50.9870 C   0  0  0  0  0  0  0  0  0  0  0  0
   37.7320   31.3280   49.8560 C   0  0  0  0  0  0  0  0  0  0  0  0
   37.1160   30.9160   48.6790 C   0  0  0  0  0  0  0  0  0  0  0  0
   36.4390   29.7280   48.6950 N   0  0  0  0  0  0  0  0  0  0  0  0
   36.3620   28.9660   49.8070 C   0  0  0  0  0  0  0  0  0  0  0  0
   36.9550   29.3570   50.9450 N   0  0  0  0  0  0  0  0  0  0  0  0
   38.1370   30.8990   51.8650 H   0  0  0  0  0  0  0  0  0  0  0  0
   38.2380   32.2590   49.7670 H   0  0  0  0  0  0  0  0  0  0  0  0
   35.8170   28.0180   49.8040 H   0  0  0  0  0  0  0  0  0  0  0  0
  2  1  1  0  0  0  0
  2  3  1  0  0  0  0
  3 19  1  0  0  0  0
  4  3  2  0  0  0  0
  4  8  1  0  0  0  0
  5  4  1  0  0  0  0
  6  7  1  0  0  0  0
  6  5  2  0  0  0  0
  7  2  2  0  0  0  0
  9  5  1  0  0  0  0
 10  6  1  0  0  0  0
 11  7  1  0  0  0  0
 12 13  1  0  0  0  0
 12 11  2  0  0  0  0
 14 12  1  0  0  0  0
 15 14  1  0  0  0  0
 16 14  2  0  0  0  0
 16 18  1  0  0  0  0
 17 16  1  0  0  0  0
 18 11  1  0  0  0  0
 19 21  1  0  0  0  0
 21 20  2  1  0  0  0
 21 24  1  0  0  0  0
 22 21  1  0  0  0  0
 23 22  1  0  0  0  0
 24 27  1  0  0  0  0
 25 31  1  0  0  0  0
 26 25  2  0  0  0  0
 27 28  2  0  0  0  0
 27 26  1  0  0  0  0
 28 29  1  0  0  0  0
 29 30  2  0  0  0  0
 30 25  1  0  0  0  0
 32 26  1  0  0  0  0
 33 29  1  0  0  0  0
M  END
>  <minimizedAffinity>
-4.76934862

>  <minimizedRMSD>
0.521373034

$$$$
