
 OpenBabel03272503033D

 27 29  0  0  0  0  0  0  0  0999 V2000
   37.7060   23.5760   33.4430 F   0  0  0  0  0  0  0  0  0  0  0  0
   36.9700   24.3760   32.6530 C   0  0  0  0  0  0  0  0  0  0  0  0
   36.1460   23.8290   31.7080 C   0  0  0  0  0  0  0  0  0  0  0  0
   35.4170   24.7030   30.9280 C   0  0  0  0  0  0  0  0  0  0  0  0
   35.5000   26.0760   31.0800 C   0  0  0  0  0  0  0  0  0  0  0  0
   36.3320   26.6010   32.0330 C   0  0  0  0  0  0  0  0  0  0  0  0
   37.0650   25.7490   32.8180 C   0  0  0  0  0  0  0  0  0  0  0  0
   34.7580   24.2750   30.1730 H   0  0  0  0  0  0  0  0  0  0  0  0
   34.9310   26.7580   30.4710 H   0  0  0  0  0  0  0  0  0  0  0  0
   36.4310   27.6750   32.1900 H   0  0  0  0  0  0  0  0  0  0  0  0
   35.0720   20.2270   32.0710 C   0  0  0  0  0  0  0  0  0  0  0  0
   35.0850   21.6240   32.2010 C   0  0  0  0  0  0  0  0  0  0  0  0
   36.1000   22.3770   31.5940 C   0  0  0  0  0  0  0  0  0  0  0  0
   37.0280   21.6920   30.9020 N   0  0  0  0  0  0  0  0  0  0  0  0
   36.9940   20.3480   30.7910 C   0  0  0  0  0  0  0  0  0  0  0  0
   36.0230   19.6240   31.3720 N   0  0  0  0  0  0  0  0  0  0  0  0
   34.2840   19.6790   32.5470 H   0  0  0  0  0  0  0  0  0  0  0  0
   34.3150   22.1330   32.7700 H   0  0  0  0  0  0  0  0  0  0  0  0
   37.8200   19.9600   30.1960 H   0  0  0  0  0  0  0  0  0  0  0  0
   37.9590   26.2810   33.8410 C   0  0  0  0  0  0  0  0  0  0  0  0
   37.5850   26.8480   35.0390 C   0  0  0  0  0  0  0  0  0  0  0  0
   36.5970   27.0000   35.4290 H   0  0  0  0  0  0  0  0  0  0  0  0
   38.7380   27.2080   35.6890 C   0  0  0  0  0  0  0  0  0  0  0  0
   38.8960   27.6830   36.6560 H   0  0  0  0  0  0  0  0  0  0  0  0
   39.7710   26.8460   34.8660 C   0  0  0  0  0  0  0  0  0  0  0  0
   40.8470   26.9260   34.9450 H   0  0  0  0  0  0  0  0  0  0  0  0
   39.2830   26.2900   33.7590 O   0  0  0  0  0  0  0  0  0  0  0  0
  2  7  1  0  0  0  0
  2  1  1  0  0  0  0
  3  2  2  0  0  0  0
  4  5  2  0  0  0  0
  4  3  1  0  0  0  0
  5  6  1  0  0  0  0
  6 10  1  0  0  0  0
  6  7  2  0  0  0  0
  7 20  1  0  0  0  0
  8  4  1  0  0  0  0
  9  5  1  0  0  0  0
 11 12  1  0  0  0  0
 11 17  1  0  0  0  0
 12 18  1  0  0  0  0
 13  3  1  0  0  0  0
 13 12  2  0  0  0  0
 14 13  1  0  0  0  0
 15 14  2  0  0  0  0
 15 16  1  0  0  0  0
 16 11  2  0  0  0  0
 19 15  1  0  0  0  0
 20 21  2  0  0  0  0
 21 22  1  0  0  0  0
 21 23  1  0  0  0  0
 23 24  1  0  0  0  0
 25 26  1  0  0  0  0
 25 23  2  0  0  0  0
 27 20  1  0  0  0  0
 27 25  1  0  0  0  0
M  END
>  <minimizedAffinity>
-5.09590101

$$$$

 OpenBabel03272503033D

 27 29  0  0  0  0  0  0  0  0999 V2000
   40.3440   24.3910   34.7750 F   0  0  0  0  0  0  0  0  0  0  0  0
   39.6480   24.0910   35.8860 C   0  0  0  0  0  0  0  0  0  0  0  0
   38.3910   24.6020   36.0600 C   0  0  0  0  0  0  0  0  0  0  0  0
   37.7280   24.2570   37.2190 C   0  0  0  0  0  0  0  0  0  0  0  0
   38.2910   23.4310   38.1770 C   0  0  0  0  0  0  0  0  0  0  0  0
   39.5520   22.9310   37.9800 C   0  0  0  0  0  0  0  0  0  0  0  0
   40.2270   23.2620   36.8340 C   0  0  0  0  0  0  0  0  0  0  0  0
   36.7260   24.6600   37.3670 H   0  0  0  0  0  0  0  0  0  0  0  0
   37.7740   23.1620   39.0820 H   0  0  0  0  0  0  0  0  0  0  0  0
   40.0370   22.2770   38.7040 H   0  0  0  0  0  0  0  0  0  0  0  0
   37.0560   27.6230   34.2300 C   0  0  0  0  0  0  0  0  0  0  0  0
   37.5770   26.8210   35.2560 C   0  0  0  0  0  0  0  0  0  0  0  0
   37.8500   25.4660   35.0180 C   0  0  0  0  0  0  0  0  0  0  0  0
   37.5860   25.0040   33.7830 N   0  0  0  0  0  0  0  0  0  0  0  0
   37.0850   25.7960   32.8130 C   0  0  0  0  0  0  0  0  0  0  0  0
   36.8220   27.0950   33.0370 N   0  0  0  0  0  0  0  0  0  0  0  0
   36.8570   28.6540   34.4420 H   0  0  0  0  0  0  0  0  0  0  0  0
   37.7740   27.2380   36.2370 H   0  0  0  0  0  0  0  0  0  0  0  0
   36.9330   25.2590   31.8770 H   0  0  0  0  0  0  0  0  0  0  0  0
   41.5710   22.7440   36.5980 C   0  0  0  0  0  0  0  0  0  0  0  0
   41.9170   21.4240   36.4150 C   0  0  0  0  0  0  0  0  0  0  0  0
   41.2820   20.5590   36.4110 H   0  0  0  0  0  0  0  0  0  0  0  0
   43.2750   21.3880   36.2260 C   0  0  0  0  0  0  0  0  0  0  0  0
   43.9520   20.5540   36.0480 H   0  0  0  0  0  0  0  0  0  0  0  0
   43.7060   22.6870   36.3010 C   0  0  0  0  0  0  0  0  0  0  0  0
   44.6790   23.1530   36.2170 H   0  0  0  0  0  0  0  0  0  0  0  0
   42.6660   23.4870   36.5250 O   0  0  0  0  0  0  0  0  0  0  0  0
  1  2  1  0  0  0  0
  2  3  2  0  0  0  0
  2  7  1  0  0  0  0
  3  4  1  0  0  0  0
  4  8  1  0  0  0  0
  4  5  2  0  0  0  0
  5  9  1  0  0  0  0
  6  5  1  0  0  0  0
  6 10  1  0  0  0  0
  7  6  2  0  0  0  0
 11 17  1  0  0  0  0
 11 12  1  0  0  0  0
 12 18  1  0  0  0  0
 13 12  2  0  0  0  0
 13  3  1  0  0  0  0
 14 13  1  0  0  0  0
 15 16  1  0  0  0  0
 15 14  2  0  0  0  0
 16 11  2  0  0  0  0
 19 15  1  0  0  0  0
 20  7  1  0  0  0  0
 21 20  2  0  0  0  0
 22 21  1  0  0  0  0
 23 25  2  0  0  0  0
 23 21  1  0  0  0  0
 24 23  1  0  0  0  0
 25 27  1  0  0  0  0
 26 25  1  0  0  0  0
 27 20  1  0  0  0  0
M  END
>  <minimizedAffinity>
-4.99063396

$$$$

 OpenBabel03272503033D

 27 29  0  0  0  0  0  0  0  0999 V2000
   35.4300   28.4310   34.4400 F   0  0  0  0  0  0  0  0  0  0  0  0
   35.7360   29.2440   33.4140 C   0  0  0  0  0  0  0  0  0  0  0  0
   36.1890   28.7150   32.2370 C   0  0  0  0  0  0  0  0  0  0  0  0
   36.4860   29.6010   31.2230 C   0  0  0  0  0  0  0  0  0  0  0  0
   36.3400   30.9690   31.3680 C   0  0  0  0  0  0  0  0  0  0  0  0
   35.8850   31.4770   32.5570 C   0  0  0  0  0  0  0  0  0  0  0  0
   35.5830   30.6120   33.5770 C   0  0  0  0  0  0  0  0  0  0  0  0
   36.8480   29.1870   30.2810 H   0  0  0  0  0  0  0  0  0  0  0  0
   36.5730   31.6610   30.5770 H   0  0  0  0  0  0  0  0  0  0  0  0
   35.7520   32.5470   32.7190 H   0  0  0  0  0  0  0  0  0  0  0  0
   37.4290   25.1800   32.7180 C   0  0  0  0  0  0  0  0  0  0  0  0
   37.3290   26.5750   32.8330 C   0  0  0  0  0  0  0  0  0  0  0  0
   36.3240   27.2660   32.1420 C   0  0  0  0  0  0  0  0  0  0  0  0
   35.4920   26.5270   31.3860 N   0  0  0  0  0  0  0  0  0  0  0  0
   35.6080   25.1870   31.2920 C   0  0  0  0  0  0  0  0  0  0  0  0
   36.5710   24.5210   31.9530 N   0  0  0  0  0  0  0  0  0  0  0  0
   38.2080   24.6800   33.2580 H   0  0  0  0  0  0  0  0  0  0  0  0
   38.0230   27.1290   33.4550 H   0  0  0  0  0  0  0  0  0  0  0  0
   34.8530   24.7500   30.6390 H   0  0  0  0  0  0  0  0  0  0  0  0
   35.0960   31.1250   34.8540 C   0  0  0  0  0  0  0  0  0  0  0  0
   35.8590   31.6840   35.8540 C   0  0  0  0  0  0  0  0  0  0  0  0
   36.9200   31.8430   35.8790 H   0  0  0  0  0  0  0  0  0  0  0  0
   35.0010   32.0270   36.8680 C   0  0  0  0  0  0  0  0  0  0  0  0
   35.1850   32.4920   37.8360 H   0  0  0  0  0  0  0  0  0  0  0  0
   33.7490   31.6640   36.4480 C   0  0  0  0  0  0  0  0  0  0  0  0
   32.7660   31.7320   36.8970 H   0  0  0  0  0  0  0  0  0  0  0  0
   33.8260   31.1240   35.2340 O   0  0  0  0  0  0  0  0  0  0  0  0
  2  7  1  0  0  0  0
  2  1  1  0  0  0  0
  3  2  2  0  0  0  0
  4  5  2  0  0  0  0
  4  3  1  0  0  0  0
  5  6  1  0  0  0  0
  6 10  1  0  0  0  0
  6  7  2  0  0  0  0
  7 20  1  0  0  0  0
  8  4  1  0  0  0  0
  9  5  1  0  0  0  0
 11 12  1  0  0  0  0
 11 17  1  0  0  0  0
 12 18  1  0  0  0  0
 13  3  1  0  0  0  0
 13 12  2  0  0  0  0
 14 13  1  0  0  0  0
 15 14  2  0  0  0  0
 15 16  1  0  0  0  0
 16 11  2  0  0  0  0
 19 15  1  0  0  0  0
 20 27  1  0  0  0  0
 20 21  2  0  0  0  0
 21 22  1  0  0  0  0
 21 23  1  0  0  0  0
 23 24  1  0  0  0  0
 25 23  2  0  0  0  0
 25 26  1  0  0  0  0
 27 25  1  0  0  0  0
M  END
>  <minimizedAffinity>
-4.96694469

$$$$

 OpenBabel03272503033D

 27 29  0  0  0  0  0  0  0  0999 V2000
   40.3560   24.5200   34.6930 F   0  0  0  0  0  0  0  0  0  0  0  0
   39.8180   24.1170   35.8570 C   0  0  0  0  0  0  0  0  0  0  0  0
   40.4130   23.1120   36.5700 C   0  0  0  0  0  0  0  0  0  0  0  0
   39.8130   22.7450   37.7570 C   0  0  0  0  0  0  0  0  0  0  0  0
   38.6610   23.3520   38.2240 C   0  0  0  0  0  0  0  0  0  0  0  0
   38.0830   24.3570   37.4920 C   0  0  0  0  0  0  0  0  0  0  0  0
   38.6640   24.7370   36.3100 C   0  0  0  0  0  0  0  0  0  0  0  0
   40.2800   21.9450   38.3320 H   0  0  0  0  0  0  0  0  0  0  0  0
   38.1920   23.0650   39.1500 H   0  0  0  0  0  0  0  0  0  0  0  0
   37.1760   24.8660   37.8190 H   0  0  0  0  0  0  0  0  0  0  0  0
   44.0420   22.2820   35.9390 C   0  0  0  0  0  0  0  0  0  0  0  0
   42.8970   22.8840   36.4830 C   0  0  0  0  0  0  0  0  0  0  0  0
   41.6240   22.5090   36.0290 C   0  0  0  0  0  0  0  0  0  0  0  0
   41.5770   21.5660   35.0710 N   0  0  0  0  0  0  0  0  0  0  0  0
   42.6930   21.0020   34.5650 C   0  0  0  0  0  0  0  0  0  0  0  0
   43.9150   21.3590   34.9970 N   0  0  0  0  0  0  0  0  0  0  0  0
   45.0010   22.5900   36.3050 H   0  0  0  0  0  0  0  0  0  0  0  0
   42.9840   23.6410   37.2540 H   0  0  0  0  0  0  0  0  0  0  0  0
   42.4710   20.2580   33.8000 H   0  0  0  0  0  0  0  0  0  0  0  0
   38.0710   25.8030   35.5100 C   0  0  0  0  0  0  0  0  0  0  0  0
   38.0680   27.1460   35.8130 C   0  0  0  0  0  0  0  0  0  0  0  0
   38.4890   27.6420   36.6670 H   0  0  0  0  0  0  0  0  0  0  0  0
   37.4070   27.7850   34.7950 C   0  0  0  0  0  0  0  0  0  0  0  0
   37.1810   28.8390   34.6380 H   0  0  0  0  0  0  0  0  0  0  0  0
   37.0320   26.8090   33.9100 C   0  0  0  0  0  0  0  0  0  0  0  0
   36.4960   26.8240   32.9700 H   0  0  0  0  0  0  0  0  0  0  0  0
   37.4410   25.6230   34.3580 O   0  0  0  0  0  0  0  0  0  0  0  0
  1  2  1  0  0  0  0
  2  7  2  0  0  0  0
  2  3  1  0  0  0  0
  3  4  2  0  0  0  0
  4  5  1  0  0  0  0
  4  8  1  0  0  0  0
  5  9  1  0  0  0  0
  6 10  1  0  0  0  0
  6  5  2  0  0  0  0
  7  6  1  0  0  0  0
 11 17  1  0  0  0  0
 11 12  1  0  0  0  0
 12 18  1  0  0  0  0
 13 12  2  0  0  0  0
 13  3  1  0  0  0  0
 14 13  1  0  0  0  0
 15 16  1  0  0  0  0
 15 14  2  0  0  0  0
 16 11  2  0  0  0  0
 19 15  1  0  0  0  0
 20 21  2  0  0  0  0
 20  7  1  0  0  0  0
 21 22  1  0  0  0  0
 23 21  1  0  0  0  0
 24 23  1  0  0  0  0
 25 27  1  0  0  0  0
 25 23  2  0  0  0  0
 26 25  1  0  0  0  0
 27 20  1  0  0  0  0
M  END
>  <minimizedAffinity>
-4.91551399

$$$$

 OpenBabel03272503033D

 27 29  0  0  0  0  0  0  0  0999 V2000
   37.1690   28.5290   35.7380 F   0  0  0  0  0  0  0  0  0  0  0  0
   36.7070   28.4680   34.4780 C   0  0  0  0  0  0  0  0  0  0  0  0
   37.1860   27.5130   33.6230 C   0  0  0  0  0  0  0  0  0  0  0  0
   36.6720   27.5000   32.3430 C   0  0  0  0  0  0  0  0  0  0  0  0
   35.7130   28.4050   31.9220 C   0  0  0  0  0  0  0  0  0  0  0  0
   35.2490   29.3530   32.7950 C   0  0  0  0  0  0  0  0  0  0  0  0
   35.7470   29.3810   34.0720 C   0  0  0  0  0  0  0  0  0  0  0  0
   37.0480   26.7430   31.6550 H   0  0  0  0  0  0  0  0  0  0  0  0
   35.3130   28.3970   30.9220 H   0  0  0  0  0  0  0  0  0  0  0  0
   34.4940   30.0860   32.5100 H   0  0  0  0  0  0  0  0  0  0  0  0
   40.4890   26.0380   34.7080 C   0  0  0  0  0  0  0  0  0  0  0  0
   39.5440   26.9550   34.2230 C   0  0  0  0  0  0  0  0  0  0  0  0
   38.1950   26.5870   34.1230 C   0  0  0  0  0  0  0  0  0  0  0  0
   37.8790   25.3380   34.5080 N   0  0  0  0  0  0  0  0  0  0  0  0
   38.8060   24.4740   34.9720 C   0  0  0  0  0  0  0  0  0  0  0  0
   40.1000   24.8230   35.0700 N   0  0  0  0  0  0  0  0  0  0  0  0
   41.5120   26.3480   34.7730 H   0  0  0  0  0  0  0  0  0  0  0  0
   39.8470   27.9520   33.9240 H   0  0  0  0  0  0  0  0  0  0  0  0
   38.3760   23.5090   35.2390 H   0  0  0  0  0  0  0  0  0  0  0  0
   35.2710   30.3790   35.0240 C   0  0  0  0  0  0  0  0  0  0  0  0
   36.0340   31.3360   35.6550 C   0  0  0  0  0  0  0  0  0  0  0  0
   37.0870   31.5190   35.5660 H   0  0  0  0  0  0  0  0  0  0  0  0
   35.1870   32.0570   36.4590 C   0  0  0  0  0  0  0  0  0  0  0  0
   35.3750   32.8990   37.1240 H   0  0  0  0  0  0  0  0  0  0  0  0
   33.9410   31.5140   36.2870 C   0  0  0  0  0  0  0  0  0  0  0  0
   32.9680   31.7410   36.7030 H   0  0  0  0  0  0  0  0  0  0  0  0
   34.0120   30.5060   35.4200 O   0  0  0  0  0  0  0  0  0  0  0  0
  2  1  1  0  0  0  0
  3 13  1  0  0  0  0
  3  2  2  0  0  0  0
  4  3  1  0  0  0  0
  5  4  2  0  0  0  0
  5  6  1  0  0  0  0
  6  7  2  0  0  0  0
  7  2  1  0  0  0  0
  7 20  1  0  0  0  0
  8  4  1  0  0  0  0
  9  5  1  0  0  0  0
 10  6  1  0  0  0  0
 11 17  1  0  0  0  0
 11 16  1  0  0  0  0
 12 11  2  0  0  0  0
 13 12  1  0  0  0  0
 13 14  2  0  0  0  0
 14 15  1  0  0  0  0
 15 16  2  0  0  0  0
 15 19  1  0  0  0  0
 18 12  1  0  0  0  0
 20 27  1  0  0  0  0
 20 21  2  0  0  0  0
 21 23  1  0  0  0  0
 22 21  1  0  0  0  0
 23 24  1  0  0  0  0
 25 23  2  0  0  0  0
 25 26  1  0  0  0  0
 27 25  1  0  0  0  0
M  END
>  <minimizedAffinity>
-4.89538479

$$$$

 OpenBabel03272503033D

 27 29  0  0  0  0  0  0  0  0999 V2000
   37.5470   23.3930   33.3220 F   0  0  0  0  0  0  0  0  0  0  0  0
   36.8020   24.1820   32.5280 C   0  0  0  0  0  0  0  0  0  0  0  0
   36.8990   25.5420   32.6370 C   0  0  0  0  0  0  0  0  0  0  0  0
   36.1090   26.2970   31.7950 C   0  0  0  0  0  0  0  0  0  0  0  0
   35.2500   25.7230   30.8730 C   0  0  0  0  0  0  0  0  0  0  0  0
   35.1700   24.3580   30.7830 C   0  0  0  0  0  0  0  0  0  0  0  0
   35.9470   23.5910   31.6110 C   0  0  0  0  0  0  0  0  0  0  0  0
   36.1790   27.3820   31.8740 H   0  0  0  0  0  0  0  0  0  0  0  0
   34.6320   26.3120   30.2170 H   0  0  0  0  0  0  0  0  0  0  0  0
   34.5090   23.8600   30.0730 H   0  0  0  0  0  0  0  0  0  0  0  0
   40.0000   26.9490   34.2690 C   0  0  0  0  0  0  0  0  0  0  0  0
   39.1400   26.4240   33.2920 C   0  0  0  0  0  0  0  0  0  0  0  0
   37.8200   26.0890   33.6250 C   0  0  0  0  0  0  0  0  0  0  0  0
   37.4470   26.2980   34.9000 N   0  0  0  0  0  0  0  0  0  0  0  0
   38.2920   26.8040   35.8210 C   0  0  0  0  0  0  0  0  0  0  0  0
   39.5580   27.1260   35.5060 N   0  0  0  0  0  0  0  0  0  0  0  0
   41.0030   27.1940   33.9840 H   0  0  0  0  0  0  0  0  0  0  0  0
   39.4860   26.2730   32.2750 H   0  0  0  0  0  0  0  0  0  0  0  0
   37.8250   26.9080   36.8000 H   0  0  0  0  0  0  0  0  0  0  0  0
   35.8830   22.1350   31.5370 C   0  0  0  0  0  0  0  0  0  0  0  0
   35.0060   21.3200   32.2170 C   0  0  0  0  0  0  0  0  0  0  0  0
   34.2310   21.5960   32.9060 H   0  0  0  0  0  0  0  0  0  0  0  0
   35.2950   20.0290   31.8540 C   0  0  0  0  0  0  0  0  0  0  0  0
   34.8460   19.0830   32.1540 H   0  0  0  0  0  0  0  0  0  0  0  0
   36.3360   20.1050   30.9670 C   0  0  0  0  0  0  0  0  0  0  0  0
   36.9000   19.3630   30.4170 H   0  0  0  0  0  0  0  0  0  0  0  0
   36.6760   21.3800   30.7890 O   0  0  0  0  0  0  0  0  0  0  0  0
  2  3  1  0  0  0  0
  2  1  1  0  0  0  0
  3 13  1  0  0  0  0
  4  8  1  0  0  0  0
  4  3  2  0  0  0  0
  5  4  1  0  0  0  0
  6  5  2  0  0  0  0
  6  7  1  0  0  0  0
  7  2  2  0  0  0  0
  9  5  1  0  0  0  0
 10  6  1  0  0  0  0
 11 16  1  0  0  0  0
 12 13  1  0  0  0  0
 12 11  2  0  0  0  0
 13 14  2  0  0  0  0
 14 15  1  0  0  0  0
 15 19  1  0  0  0  0
 16 15  2  0  0  0  0
 17 11  1  0  0  0  0
 18 12  1  0  0  0  0
 20  7  1  0  0  0  0
 20 21  2  0  0  0  0
 21 22  1  0  0  0  0
 23 24  1  0  0  0  0
 23 21  1  0  0  0  0
 25 23  2  0  0  0  0
 26 25  1  0  0  0  0
 27 25  1  0  0  0  0
 27 20  1  0  0  0  0
M  END
>  <minimizedAffinity>
-4.87535381

$$$$

 OpenBabel03272503033D

 27 29  0  0  0  0  0  0  0  0999 V2000
   37.7230   23.6150   34.1150 F   0  0  0  0  0  0  0  0  0  0  0  0
   38.3950   24.7680   33.9540 C   0  0  0  0  0  0  0  0  0  0  0  0
   39.4590   25.0540   34.7650 C   0  0  0  0  0  0  0  0  0  0  0  0
   40.1090   26.2520   34.5490 C   0  0  0  0  0  0  0  0  0  0  0  0
   39.7180   27.1390   33.5610 C   0  0  0  0  0  0  0  0  0  0  0  0
   38.6490   26.8310   32.7620 C   0  0  0  0  0  0  0  0  0  0  0  0
   37.9900   25.6440   32.9600 C   0  0  0  0  0  0  0  0  0  0  0  0
   40.9570   26.4890   35.1910 H   0  0  0  0  0  0  0  0  0  0  0  0
   40.2240   28.0740   33.3930 H   0  0  0  0  0  0  0  0  0  0  0  0
   38.3040   27.4960   31.9700 H   0  0  0  0  0  0  0  0  0  0  0  0
   39.4150   22.9380   37.8920 C   0  0  0  0  0  0  0  0  0  0  0  0
   39.0320   23.8810   36.9270 C   0  0  0  0  0  0  0  0  0  0  0  0
   39.8250   24.0830   35.7880 C   0  0  0  0  0  0  0  0  0  0  0  0
   40.9400   23.3370   35.6880 N   0  0  0  0  0  0  0  0  0  0  0  0
   41.2870   22.4350   36.6290 C   0  0  0  0  0  0  0  0  0  0  0  0
   40.5290   22.2390   37.7220 N   0  0  0  0  0  0  0  0  0  0  0  0
   38.7890   22.8060   38.7510 H   0  0  0  0  0  0  0  0  0  0  0  0
   38.1240   24.4600   37.0510 H   0  0  0  0  0  0  0  0  0  0  0  0
   42.2160   21.9210   36.3880 H   0  0  0  0  0  0  0  0  0  0  0  0
   36.8490   25.2900   32.1230 C   0  0  0  0  0  0  0  0  0  0  0  0
   35.8920   26.1520   31.6380 C   0  0  0  0  0  0  0  0  0  0  0  0
   35.8110   27.2130   31.7810 H   0  0  0  0  0  0  0  0  0  0  0  0
   35.0110   25.4010   30.9020 C   0  0  0  0  0  0  0  0  0  0  0  0
   34.1160   25.6840   30.3500 H   0  0  0  0  0  0  0  0  0  0  0  0
   35.4640   24.1100   30.9650 C   0  0  0  0  0  0  0  0  0  0  0  0
   35.1080   23.1760   30.5500 H   0  0  0  0  0  0  0  0  0  0  0  0
   36.5710   24.0630   31.7040 O   0  0  0  0  0  0  0  0  0  0  0  0
  2  1  1  0  0  0  0
  2  3  1  0  0  0  0
  3 13  1  0  0  0  0
  4  3  2  0  0  0  0
  4  8  1  0  0  0  0
  5  4  1  0  0  0  0
  6  7  1  0  0  0  0
  6  5  2  0  0  0  0
  7  2  2  0  0  0  0
  9  5  1  0  0  0  0
 10  6  1  0  0  0  0
 11 17  1  0  0  0  0
 12 18  1  0  0  0  0
 12 11  2  0  0  0  0
 13 12  1  0  0  0  0
 14 13  2  0  0  0  0
 14 15  1  0  0  0  0
 15 16  2  0  0  0  0
 16 11  1  0  0  0  0
 19 15  1  0  0  0  0
 20  7  1  0  0  0  0
 21 22  1  0  0  0  0
 21 20  2  0  0  0  0
 23 25  2  0  0  0  0
 23 21  1  0  0  0  0
 24 23  1  0  0  0  0
 25 27  1  0  0  0  0
 26 25  1  0  0  0  0
 27 20  1  0  0  0  0
M  END
>  <minimizedAffinity>
-4.78851271

$$$$

 OpenBabel03272503033D

 27 29  0  0  0  0  0  0  0  0999 V2000
   36.3980   28.4000   34.8390 F   0  0  0  0  0  0  0  0  0  0  0  0
   36.1760   28.9590   33.6380 C   0  0  0  0  0  0  0  0  0  0  0  0
   36.6080   28.3290   32.5030 C   0  0  0  0  0  0  0  0  0  0  0  0
   36.3500   28.9530   31.3000 C   0  0  0  0  0  0  0  0  0  0  0  0
   35.6830   30.1630   31.2220 C   0  0  0  0  0  0  0  0  0  0  0  0
   35.2590   30.7760   32.3730 C   0  0  0  0  0  0  0  0  0  0  0  0
   35.5060   30.1710   33.5780 C   0  0  0  0  0  0  0  0  0  0  0  0
   36.6910   28.4580   30.3910 H   0  0  0  0  0  0  0  0  0  0  0  0
   35.4810   30.6510   30.2840 H   0  0  0  0  0  0  0  0  0  0  0  0
   34.7290   31.7290   32.3620 H   0  0  0  0  0  0  0  0  0  0  0  0
   39.3210   25.7550   33.0330 C   0  0  0  0  0  0  0  0  0  0  0  0
   38.6820   26.9980   32.9010 C   0  0  0  0  0  0  0  0  0  0  0  0
   37.3050   27.0570   32.6460 C   0  0  0  0  0  0  0  0  0  0  0  0
   36.6600   25.8820   32.5390 N   0  0  0  0  0  0  0  0  0  0  0  0
   37.2960   24.6990   32.6700 C   0  0  0  0  0  0  0  0  0  0  0  0
   38.6160   24.6390   32.9150 N   0  0  0  0  0  0  0  0  0  0  0  0
   40.3740   25.7430   33.2270 H   0  0  0  0  0  0  0  0  0  0  0  0
   39.2450   27.9200   32.9950 H   0  0  0  0  0  0  0  0  0  0  0  0
   36.6220   23.8510   32.5550 H   0  0  0  0  0  0  0  0  0  0  0  0
   35.0660   30.8000   34.8190 C   0  0  0  0  0  0  0  0  0  0  0  0
   35.8520   31.5110   35.6980 C   0  0  0  0  0  0  0  0  0  0  0  0
   36.9010   31.7270   35.6350 H   0  0  0  0  0  0  0  0  0  0  0  0
   35.0370   31.9220   36.7220 C   0  0  0  0  0  0  0  0  0  0  0  0
   35.2500   32.5040   37.6170 H   0  0  0  0  0  0  0  0  0  0  0  0
   33.7850   31.4470   36.4290 C   0  0  0  0  0  0  0  0  0  0  0  0
   32.8290   31.5140   36.9310 H   0  0  0  0  0  0  0  0  0  0  0  0
   33.8230   30.7750   35.2800 O   0  0  0  0  0  0  0  0  0  0  0  0
  2  1  1  0  0  0  0
  3 13  1  0  0  0  0
  3  2  2  0  0  0  0
  4  3  1  0  0  0  0
  5  4  2  0  0  0  0
  5  6  1  0  0  0  0
  6  7  2  0  0  0  0
  7  2  1  0  0  0  0
  7 20  1  0  0  0  0
  8  4  1  0  0  0  0
  9  5  1  0  0  0  0
 10  6  1  0  0  0  0
 11 17  1  0  0  0  0
 12 18  1  0  0  0  0
 12 11  2  0  0  0  0
 13 12  1  0  0  0  0
 14 13  2  0  0  0  0
 14 15  1  0  0  0  0
 15 16  2  0  0  0  0
 16 11  1  0  0  0  0
 19 15  1  0  0  0  0
 20 27  1  0  0  0  0
 20 21  2  0  0  0  0
 21 23  1  0  0  0  0
 22 21  1  0  0  0  0
 23 24  1  0  0  0  0
 25 23  2  0  0  0  0
 25 26  1  0  0  0  0
 27 25  1  0  0  0  0
M  END
>  <minimizedAffinity>
-4.7567687

$$$$

 OpenBabel03272503033D

 27 29  0  0  0  0  0  0  0  0999 V2000
   36.1600   28.2500   34.8670 F   0  0  0  0  0  0  0  0  0  0  0  0
   36.0820   28.8730   33.6790 C   0  0  0  0  0  0  0  0  0  0  0  0
   35.4530   30.0840   33.5850 C   0  0  0  0  0  0  0  0  0  0  0  0
   35.4070   30.6730   32.3390 C   0  0  0  0  0  0  0  0  0  0  0  0
   35.9660   30.0830   31.2190 C   0  0  0  0  0  0  0  0  0  0  0  0
   36.5910   28.8690   31.3370 C   0  0  0  0  0  0  0  0  0  0  0  0
   36.6480   28.2670   32.5680 C   0  0  0  0  0  0  0  0  0  0  0  0
   34.9070   31.6390   32.2550 H   0  0  0  0  0  0  0  0  0  0  0  0
   35.9300   30.5420   30.2460 H   0  0  0  0  0  0  0  0  0  0  0  0
   37.0470   28.3650   30.4850 H   0  0  0  0  0  0  0  0  0  0  0  0
   35.0510   32.0270   36.7990 C   0  0  0  0  0  0  0  0  0  0  0  0
   35.6320   31.4920   35.6390 C   0  0  0  0  0  0  0  0  0  0  0  0
   34.8820   30.6580   34.7980 C   0  0  0  0  0  0  0  0  0  0  0  0
   33.6120   30.4140   35.1650 N   0  0  0  0  0  0  0  0  0  0  0  0
   33.0750   30.9410   36.2850 C   0  0  0  0  0  0  0  0  0  0  0  0
   33.7910   31.7400   37.0940 N   0  0  0  0  0  0  0  0  0  0  0  0
   35.6490   32.6610   37.4220 H   0  0  0  0  0  0  0  0  0  0  0  0
   36.6620   31.7170   35.3830 H   0  0  0  0  0  0  0  0  0  0  0  0
   32.0380   30.6400   36.4280 H   0  0  0  0  0  0  0  0  0  0  0  0
   37.3070   26.9750   32.7230 C   0  0  0  0  0  0  0  0  0  0  0  0
   38.6510   26.7640   32.9380 C   0  0  0  0  0  0  0  0  0  0  0  0
   39.4370   27.4880   33.0290 H   0  0  0  0  0  0  0  0  0  0  0  0
   38.8350   25.4070   33.0240 C   0  0  0  0  0  0  0  0  0  0  0  0
   39.7340   24.8150   33.1870 H   0  0  0  0  0  0  0  0  0  0  0  0
   37.5970   24.8420   32.8590 C   0  0  0  0  0  0  0  0  0  0  0  0
   37.2430   23.8200   32.8470 H   0  0  0  0  0  0  0  0  0  0  0  0
   36.6920   25.8010   32.6800 O   0  0  0  0  0  0  0  0  0  0  0  0
  2  1  1  0  0  0  0
  3  2  1  0  0  0  0
  3 13  1  0  0  0  0
  4  3  2  0  0  0  0
  5  6  2  0  0  0  0
  5  4  1  0  0  0  0
  6  7  1  0  0  0  0
  7 20  1  0  0  0  0
  7  2  2  0  0  0  0
  8  4  1  0  0  0  0
  9  5  1  0  0  0  0
 10  6  1  0  0  0  0
 11 16  1  0  0  0  0
 11 17  1  0  0  0  0
 12 11  2  0  0  0  0
 13 14  2  0  0  0  0
 13 12  1  0  0  0  0
 14 15  1  0  0  0  0
 15 19  1  0  0  0  0
 15 16  2  0  0  0  0
 18 12  1  0  0  0  0
 20 21  2  0  0  0  0
 21 23  1  0  0  0  0
 21 22  1  0  0  0  0
 23 24  1  0  0  0  0
 25 23  2  0  0  0  0
 26 25  1  0  0  0  0
 27 20  1  0  0  0  0
 27 25  1  0  0  0  0
M  END
>  <minimizedAffinity>
-4.74324942

$$$$
