
 OpenBabel03262523483D

 37 40  0  0  0  0  0  0  0  0999 V2000
   38.6690   32.9470   49.7820 Cl  0  0  0  0  0  0  0  0  0  0  0  0
   38.6440   32.2780   48.1630 C   0  0  0  0  0  0  0  0  0  0  0  0
   37.8910   31.1450   47.8790 C   0  0  0  0  0  0  0  0  0  0  0  0
   37.9250   30.6860   46.5930 C   0  0  0  0  0  0  0  0  0  0  0  0
   38.6530   31.2840   45.5970 C   0  0  0  0  0  0  0  0  0  0  0  0
   39.3980   32.4170   45.9170 C   0  0  0  0  0  0  0  0  0  0  0  0
   40.3100   33.1500   44.6340 Cl  0  0  0  0  0  0  0  0  0  0  0  0
   39.3970   32.9200   47.1990 C   0  0  0  0  0  0  0  0  0  0  0  0
   37.3240   29.7900   46.3880 H   0  0  0  0  0  0  0  0  0  0  0  0
   39.9830   33.8100   47.4410 H   0  0  0  0  0  0  0  0  0  0  0  0
   36.9220   32.6070   43.4740 Cl  0  0  0  0  0  0  0  0  0  0  0  0
   37.8560   31.1320   43.1870 C   0  0  0  0  0  0  0  0  0  0  0  0
   38.5870   30.6740   44.2770 C   0  0  0  0  0  0  0  0  0  0  0  0
   39.3460   29.5220   44.1310 C   0  0  0  0  0  0  0  0  0  0  0  0
   39.3880   28.8260   42.9310 C   0  0  0  0  0  0  0  0  0  0  0  0
   38.6390   29.3220   41.8710 C   0  0  0  0  0  0  0  0  0  0  0  0
   37.8810   30.4600   41.9920 C   0  0  0  0  0  0  0  0  0  0  0  0
   39.9400   29.1100   44.9370 H   0  0  0  0  0  0  0  0  0  0  0  0
   39.9730   27.9280   42.8010 H   0  0  0  0  0  0  0  0  0  0  0  0
   38.6820   28.7690   40.9460 H   0  0  0  0  0  0  0  0  0  0  0  0
   37.0950   30.9890   40.8910 C   0  0  0  0  0  0  0  0  0  0  0  0
   37.5810   31.8430   39.8950 C   0  0  0  0  0  0  0  0  0  0  0  0
   38.5790   32.2140   39.8190 H   0  0  0  0  0  0  0  0  0  0  0  0
   36.4530   32.0430   39.1070 C   0  0  0  0  0  0  0  0  0  0  0  0
   36.4480   32.6730   38.2110 H   0  0  0  0  0  0  0  0  0  0  0  0
   35.3850   31.3400   39.6250 C   0  0  0  0  0  0  0  0  0  0  0  0
   34.3590   31.2960   39.2270 H   0  0  0  0  0  0  0  0  0  0  0  0
   35.8170   30.7110   40.7100 O   0  0  0  0  0  0  0  0  0  0  0  0
   37.0150   29.3590   51.0960 C   0  0  0  0  0  0  0  0  0  0  0  0
   37.7690   29.9190   50.0520 C   0  0  0  0  0  0  0  0  0  0  0  0
   37.1340   30.5520   48.9810 C   0  0  0  0  0  0  0  0  0  0  0  0
   35.7680   30.5920   49.0100 N   0  0  0  0  0  0  0  0  0  0  0  0
   35.0860   30.0400   50.0330 C   0  0  0  0  0  0  0  0  0  0  0  0
   35.6890   29.4370   51.0540 N   0  0  0  0  0  0  0  0  0  0  0  0
   37.6200   28.8970   51.8650 H   0  0  0  0  0  0  0  0  0  0  0  0
   38.8570   29.9000   50.0070 H   0  0  0  0  0  0  0  0  0  0  0  0
   33.9910   30.1150   49.9820 H   0  0  0  0  0  0  0  0  0  0  0  0
  2  1  1  0  0  0  0
  3  2  1  0  0  0  0
  3 31  1  0  0  0  0
  4  3  2  0  0  0  0
  5  6  2  0  0  0  0
  5  4  1  0  0  0  0
  6  8  1  0  0  0  0
  7  6  1  0  0  0  0
  8 10  1  0  0  0  0
  8  2  2  0  0  0  0
  9  4  1  0  0  0  0
 12 11  1  0  0  0  0
 12 13  1  0  0  0  0
 13  5  1  0  0  0  0
 14 13  2  0  0  0  0
 14 18  1  0  0  0  0
 15 14  1  0  0  0  0
 16 17  1  0  0  0  0
 16 15  2  0  0  0  0
 17 12  2  0  0  0  0
 19 15  1  0  0  0  0
 20 16  1  0  0  0  0
 21 17  1  0  0  0  0
 22 21  2  0  0  0  0
 23 22  1  0  0  0  0
 24 26  2  0  0  0  0
 24 22  1  0  0  0  0
 25 24  1  0  0  0  0
 26 28  1  0  0  0  0
 27 26  1  0  0  0  0
 28 21  1  0  0  0  0
 29 35  1  0  0  0  0
 30 29  2  0  0  0  0
 31 32  2  0  0  0  0
 31 30  1  0  0  0  0
 32 33  1  0  0  0  0
 33 34  2  0  0  0  0
 34 29  1  0  0  0  0
 36 30  1  0  0  0  0
 37 33  1  0  0  0  0
M  END
>  <minimizedAffinity>
-6.36095142

>  <minimizedRMSD>
0.353401661

$$$$
