
 OpenBabel03272506583D

 27 29  0  0  0  0  0  0  0  0999 V2000
   37.9730   31.3560   46.4530 C   0  0  0  0  0  0  0  0  0  0  0  0
   39.3160   31.1170   46.6970 C   0  0  0  0  0  0  0  0  0  0  0  0
   40.3510   31.3800   45.8320 C   0  0  0  0  0  0  0  0  0  0  0  0
   40.0040   31.9250   44.6320 N   0  0  0  0  0  0  0  0  0  0  0  0
   38.6980   32.1690   44.3650 C   0  0  0  0  0  0  0  0  0  0  0  0
   37.7250   31.8920   45.2490 N   0  0  0  0  0  0  0  0  0  0  0  0
   39.6210   30.6850   47.6410 H   0  0  0  0  0  0  0  0  0  0  0  0
   41.3770   31.1730   46.0780 H   0  0  0  0  0  0  0  0  0  0  0  0
   34.8980   30.0360   47.8320 C   0  0  0  0  0  0  0  0  0  0  0  0
   34.9540   30.3350   49.2040 C   0  0  0  0  0  0  0  0  0  0  0  0
   36.1180   31.0250   49.6390 C   0  0  0  0  0  0  0  0  0  0  0  0
   37.0710   31.3410   48.7380 N   0  0  0  0  0  0  0  0  0  0  0  0
   36.9600   31.0290   47.4490 C   0  0  0  0  0  0  0  0  0  0  0  0
   35.8720   30.3660   46.9410 N   0  0  0  0  0  0  0  0  0  0  0  0
   34.0320   29.5100   47.4340 H   0  0  0  0  0  0  0  0  0  0  0  0
   36.2100   31.2780   50.6830 H   0  0  0  0  0  0  0  0  0  0  0  0
   33.9160   29.9720   50.0920 N   0  0  0  0  0  0  0  0  0  0  0  0
   32.9940   29.7720   49.6560 H   0  0  0  0  0  0  0  0  0  0  0  0
   34.1360   29.9300   51.1070 H   0  0  0  0  0  0  0  0  0  0  0  0
   38.2120   32.7490   43.1150 C   0  0  0  0  0  0  0  0  0  0  0  0
   39.1450   33.2330   42.2180 C   0  0  0  0  0  0  0  0  0  0  0  0
   40.2240   33.2960   42.2050 H   0  0  0  0  0  0  0  0  0  0  0  0
   38.4190   33.7210   41.1330 C   0  0  0  0  0  0  0  0  0  0  0  0
   38.6690   34.1880   40.1970 H   0  0  0  0  0  0  0  0  0  0  0  0
   37.0830   33.5010   41.4390 C   0  0  0  0  0  0  0  0  0  0  0  0
   36.1860   33.7380   40.8530 H   0  0  0  0  0  0  0  0  0  0  0  0
   36.9940   32.9220   42.6240 O   0  0  0  0  0  0  0  0  0  0  0  0
  1  2  1  0  0  0  0
  1 13  1  0  0  0  0
  2  7  1  0  0  0  0
  3  8  1  0  0  0  0
  3  2  2  0  0  0  0
  4  3  1  0  0  0  0
  5  4  2  0  0  0  0
  5  6  1  0  0  0  0
  6  1  2  0  0  0  0
  9 10  1  0  0  0  0
 10 11  2  0  0  0  0
 10 17  1  0  0  0  0
 11 16  1  0  0  0  0
 12 11  1  0  0  0  0
 13 12  2  0  0  0  0
 14 13  1  0  0  0  0
 14  9  2  0  0  0  0
 15  9  1  0  0  0  0
 17 19  1  0  0  0  0
 18 17  1  0  0  0  0
 20  5  1  0  0  0  0
 21 20  2  0  0  0  0
 22 21  1  0  0  0  0
 23 25  2  0  0  0  0
 23 21  1  0  0  0  0
 24 23  1  0  0  0  0
 25 27  1  0  0  0  0
 26 25  1  0  0  0  0
 27 20  1  0  0  0  0
M  END
>  <minimizedAffinity>
-5.08929539

>  <minimizedRMSD>
1.22629631

$$$$
