
 OpenBabel03272509023D

 40 43  0  0  0  0  0  0  0  0999 V2000
   34.7240   30.3300   48.9220 C   0  0  0  0  0  0  0  0  0  0  0  0
   34.0880   31.2150   49.0090 H   0  0  0  0  0  0  0  0  0  0  0  0
   34.1600   29.5140   49.4570 H   0  0  0  0  0  0  0  0  0  0  0  0
   37.0230   31.7000   47.5340 Cl  0  0  0  0  0  0  0  0  0  0  0  0
   35.9900   30.5070   46.8430 C   0  0  0  0  0  0  0  0  0  0  0  0
   36.2020   30.1080   45.5280 C   0  0  0  0  0  0  0  0  0  0  0  0
   35.4050   29.1650   44.9270 C   0  0  0  0  0  0  0  0  0  0  0  0
   34.3670   28.5850   45.6190 C   0  0  0  0  0  0  0  0  0  0  0  0
   34.1280   28.9560   46.9290 C   0  0  0  0  0  0  0  0  0  0  0  0
   32.8370   28.2990   47.9230 Cl  0  0  0  0  0  0  0  0  0  0  0  0
   34.9630   29.9170   47.4940 C   0  0  0  0  0  0  0  0  0  0  0  0
   35.5810   28.8730   43.9190 H   0  0  0  0  0  0  0  0  0  0  0  0
   33.7240   27.8510   45.1970 H   0  0  0  0  0  0  0  0  0  0  0  0
   38.1660   32.3860   43.4340 C   0  0  0  0  0  0  0  0  0  0  0  0
   39.4300   31.7860   43.4020 C   0  0  0  0  0  0  0  0  0  0  0  0
   39.5920   30.5700   44.1230 C   0  0  0  0  0  0  0  0  0  0  0  0
   38.5130   30.0850   44.7840 N   0  0  0  0  0  0  0  0  0  0  0  0
   37.2950   30.7090   44.7830 C   0  0  0  0  0  0  0  0  0  0  0  0
   37.1460   31.8460   44.1100 N   0  0  0  0  0  0  0  0  0  0  0  0
   37.9960   33.3130   42.9000 H   0  0  0  0  0  0  0  0  0  0  0  0
   40.2520   32.2200   42.8590 H   0  0  0  0  0  0  0  0  0  0  0  0
   40.5330   30.0670   44.1360 H   0  0  0  0  0  0  0  0  0  0  0  0
   35.9500   28.0520   50.0270 F   0  0  0  0  0  0  0  0  0  0  0  0
   36.5730   29.2730   50.1700 C   0  0  0  0  0  0  0  0  0  0  0  0
   36.0020   30.4460   49.6550 C   0  0  0  0  0  0  0  0  0  0  0  0
   36.6630   31.6350   49.8570 C   0  0  0  0  0  0  0  0  0  0  0  0
   37.8630   31.6780   50.5440 C   0  0  0  0  0  0  0  0  0  0  0  0
   38.4120   30.5020   51.0440 C   0  0  0  0  0  0  0  0  0  0  0  0
   37.7640   29.2710   50.8610 C   0  0  0  0  0  0  0  0  0  0  0  0
   36.2790   32.6020   49.5730 H   0  0  0  0  0  0  0  0  0  0  0  0
   38.4130   32.5790   50.7210 H   0  0  0  0  0  0  0  0  0  0  0  0
   39.3520   30.5430   51.5820 H   0  0  0  0  0  0  0  0  0  0  0  0
   38.3950   28.0850   51.4140 C   0  0  0  0  0  0  0  0  0  0  0  0
   38.5940   27.6970   52.7190 C   0  0  0  0  0  0  0  0  0  0  0  0
   38.2970   28.2400   53.6020 H   0  0  0  0  0  0  0  0  0  0  0  0
   39.2440   26.4830   52.7870 C   0  0  0  0  0  0  0  0  0  0  0  0
   39.5590   25.8840   53.6300 H   0  0  0  0  0  0  0  0  0  0  0  0
   39.4160   26.1800   51.4520 C   0  0  0  0  0  0  0  0  0  0  0  0
   39.8920   25.2960   51.0190 H   0  0  0  0  0  0  0  0  0  0  0  0
   38.9200   27.1130   50.7110 O   0  0  0  0  0  0  0  0  0  0  0  0
  1  2  1  0  0  0  0
  1  3  1  0  0  0  0
  1 25  1  0  0  0  0
  5 11  1  0  0  0  0
  5  4  1  0  0  0  0
  6  5  2  0  0  0  0
  7  6  1  0  0  0  0
  7  8  2  0  0  0  0
  8  9  1  0  0  0  0
  9 11  2  0  0  0  0
  9 10  1  0  0  0  0
 11  1  1  0  0  0  0
 12  7  1  0  0  0  0
 13  8  1  0  0  0  0
 14 19  1  0  0  0  0
 15 14  2  0  0  0  0
 15 16  1  0  0  0  0
 16 22  1  0  0  0  0
 16 17  2  0  0  0  0
 18 17  1  0  0  0  0
 18  6  1  0  0  0  0
 19 18  2  0  0  0  0
 20 14  1  0  0  0  0
 21 15  1  0  0  0  0
 23 24  1  0  0  0  0
 24 29  1  0  0  0  0
 25 26  1  0  0  0  0
 25 24  2  0  0  0  0
 26 27  2  0  0  0  0
 27 31  1  0  0  0  0
 27 28  1  0  0  0  0
 28 32  1  0  0  0  0
 29 28  2  0  0  0  0
 29 33  1  0  0  0  0
 30 26  1  0  0  0  0
 33 34  2  0  0  0  0
 34 36  1  0  0  0  0
 34 35  1  0  0  0  0
 36 37  1  0  0  0  0
 38 36  2  0  0  0  0
 39 38  1  0  0  0  0
 40 33  1  0  0  0  0
 40 38  1  0  0  0  0
M  END
>  <minimizedAffinity>
-2.34448791

>  <minimizedRMSD>
1.61358762

$$$$
