
 OpenBabel03272506473D

 41 44  0  0  1  0  0  0  0  0999 V2000
   32.1640   28.4440   47.4860 C   0  0  2  0  0  0  0  0  0  0  0  0
   33.4090   28.3050   48.3120 C   0  0  1  0  0  0  0  0  0  0  0  0
   33.8350   27.0160   48.2220 O   0  0  0  0  0  0  0  0  0  0  0  0
   33.1430   26.3730   47.2020 C   0  0  0  0  0  0  0  0  0  0  0  0
   32.5210   27.4470   46.3380 C   0  0  1  0  0  0  0  0  0  0  0  0
   31.2520   28.0780   47.9460 H   0  0  0  0  0  0  0  0  0  0  0  0
   33.1570   28.6450   49.3350 H   0  0  0  0  0  0  0  0  0  0  0  0
   32.4520   25.6910   47.6790 H   0  0  0  0  0  0  0  0  0  0  0  0
   33.9360   25.8090   46.6140 H   0  0  0  0  0  0  0  0  0  0  0  0
   33.2480   27.9440   45.6980 H   0  0  0  0  0  0  0  0  0  0  0  0
   32.0650   29.7430   46.9490 O   0  0  0  0  0  0  0  0  0  0  0  0
   32.6000   29.7440   46.1190 H   0  0  0  0  0  0  0  0  0  0  0  0
   34.6950   29.3800   47.5550 S   0  0  0  0  0  0  0  0  0  0  0  0
   37.1620   29.2710   50.6550 C   0  0  0  0  0  0  0  0  0  0  0  0
   37.6190   30.5820   50.7980 C   0  0  0  0  0  0  0  0  0  0  0  0
   37.1490   31.5350   49.9030 C   0  0  0  0  0  0  0  0  0  0  0  0
   36.2670   31.1500   48.9330 N   0  0  0  0  0  0  0  0  0  0  0  0
   35.8500   29.8690   48.8310 C   0  0  0  0  0  0  0  0  0  0  0  0
   36.2890   28.9130   49.6880 N   0  0  0  0  0  0  0  0  0  0  0  0
   37.4740   28.4650   51.3050 H   0  0  0  0  0  0  0  0  0  0  0  0
   38.3090   30.8140   51.5800 H   0  0  0  0  0  0  0  0  0  0  0  0
   37.4750   32.5650   49.9740 H   0  0  0  0  0  0  0  0  0  0  0  0
   31.3850   26.9460   45.7510 O   0  0  0  0  0  0  0  0  0  0  0  0
   30.0940   29.0610   44.1600 Cl  0  0  0  0  0  0  0  0  0  0  0  0
   29.4300   28.1360   45.4850 C   0  0  0  0  0  0  0  0  0  0  0  0
   30.1350   27.1570   46.1480 C   0  0  0  0  0  0  0  0  0  0  0  0
   29.4860   26.4650   47.1740 C   0  0  0  0  0  0  0  0  0  0  0  0
   28.1820   26.7600   47.5070 C   0  0  0  0  0  0  0  0  0  0  0  0
   27.4660   27.7420   46.8460 C   0  0  0  0  0  0  0  0  0  0  0  0
   28.1110   28.4250   45.8310 C   0  0  0  0  0  0  0  0  0  0  0  0
   29.9400   25.6800   47.7510 H   0  0  0  0  0  0  0  0  0  0  0  0
   27.6390   26.2590   48.2870 H   0  0  0  0  0  0  0  0  0  0  0  0
   26.4420   27.9800   47.1010 H   0  0  0  0  0  0  0  0  0  0  0  0
   27.3750   29.4670   45.1190 C   0  0  0  0  0  0  0  0  0  0  0  0
   26.5460   29.3170   44.0580 C   0  0  0  0  0  0  0  0  0  0  0  0
   26.3150   28.3540   43.5800 H   0  0  0  0  0  0  0  0  0  0  0  0
   26.0260   30.5380   43.6510 C   0  0  0  0  0  0  0  0  0  0  0  0
   25.3490   30.7800   42.8550 H   0  0  0  0  0  0  0  0  0  0  0  0
   26.6100   31.4080   44.5490 C   0  0  0  0  0  0  0  0  0  0  0  0
   26.4890   32.5010   44.6130 H   0  0  0  0  0  0  0  0  0  0  0  0
   27.3830   30.7580   45.3840 O   0  0  0  0  0  0  0  0  0  0  0  0
  1  6  1  1  0  0  0
  1  2  1  0  0  0  0
  2  7  1  1  0  0  0
  3  2  1  0  0  0  0
  4  8  1  0  0  0  0
  4  3  1  0  0  0  0
  5 10  1  6  0  0  0
  5  4  1  0  0  0  0
  5  1  1  0  0  0  0
  9  4  1  0  0  0  0
 11  1  1  0  0  0  0
 12 11  1  0  0  0  0
 13  2  1  0  0  0  0
 13 18  1  0  0  0  0
 14 15  1  0  0  0  0
 14 20  1  0  0  0  0
 15 21  1  0  0  0  0
 16 22  1  0  0  0  0
 16 15  2  0  0  0  0
 17 16  1  0  0  0  0
 18 17  2  0  0  0  0
 18 19  1  0  0  0  0
 19 14  2  0  0  0  0
 23 26  1  0  0  0  0
 23  5  1  0  0  0  0
 24 25  1  0  0  0  0
 25 30  2  0  0  0  0
 25 26  1  0  0  0  0
 26 27  2  0  0  0  0
 27 28  1  0  0  0  0
 27 31  1  0  0  0  0
 28 32  1  0  0  0  0
 29 33  1  0  0  0  0
 29 28  2  0  0  0  0
 30 29  1  0  0  0  0
 34 41  1  0  0  0  0
 34 30  1  0  0  0  0
 35 34  2  0  0  0  0
 36 35  1  0  0  0  0
 37 35  1  0  0  0  0
 37 39  2  0  0  0  0
 38 37  1  0  0  0  0
 39 40  1  0  0  0  0
 39 41  1  0  0  0  0
M  END
>  <minimizedAffinity>
-5.07997656

>  <minimizedRMSD>
0.200147361

$$$$
