
 OpenBabel03272508553D

 37 40  0  0  1  0  0  0  0  0999 V2000
   38.3880   31.8440   44.5500 C   0  0  0  0  0  0  0  0  0  0  0  0
   37.2720   32.4340   44.4320 O   0  0  0  0  0  0  0  0  0  0  0  0
   38.9240   31.5440   45.8430 N   0  0  0  0  0  0  0  0  0  0  0  0
   39.8980   31.2100   46.0120 H   0  0  0  0  0  0  0  0  0  0  0  0
   39.1560   31.4560   43.3580 C   0  0  0  0  0  0  0  0  0  0  0  0
   40.1190   30.4910   43.4960 C   0  0  0  0  0  0  0  0  0  0  0  0
   40.8470   30.1060   42.3860 C   0  0  0  0  0  0  0  0  0  0  0  0
   40.5570   30.7240   41.1880 C   0  0  0  0  0  0  0  0  0  0  0  0
   39.5880   31.6990   41.0390 C   0  0  0  0  0  0  0  0  0  0  0  0
   38.9340   32.0100   42.1600 N   0  0  0  0  0  0  0  0  0  0  0  0
   40.3820   29.9770   44.4120 H   0  0  0  0  0  0  0  0  0  0  0  0
   41.6180   29.3510   42.4290 H   0  0  0  0  0  0  0  0  0  0  0  0
   41.1340   30.4160   40.3220 H   0  0  0  0  0  0  0  0  0  0  0  0
   39.3010   32.3390   39.7620 C   0  0  0  0  0  0  0  0  0  0  0  0
   38.6380   33.5520   39.6520 C   0  0  0  0  0  0  0  0  0  0  0  0
   38.2640   34.1570   40.4610 H   0  0  0  0  0  0  0  0  0  0  0  0
   38.5980   33.7530   38.2690 C   0  0  0  0  0  0  0  0  0  0  0  0
   38.1470   34.6160   37.7950 H   0  0  0  0  0  0  0  0  0  0  0  0
   39.2140   32.6920   37.6380 C   0  0  0  0  0  0  0  0  0  0  0  0
   39.3620   32.5200   36.5800 H   0  0  0  0  0  0  0  0  0  0  0  0
   39.6270   31.8550   38.5680 O   0  0  0  0  0  0  0  0  0  0  0  0
   38.4240   31.1180   48.2430 C   0  0  2  0  0  0  0  0  0  0  0  0
   38.6780   32.5600   48.1250 C   0  0  0  0  0  0  0  0  0  0  0  0
   38.0450   31.7220   46.9870 C   0  0  1  0  0  0  0  0  0  0  0  0
   39.3480   30.5110   48.3330 H   0  0  0  0  0  0  0  0  0  0  0  0
   38.0520   33.3170   48.6250 H   0  0  0  0  0  0  0  0  0  0  0  0
   39.7130   32.9220   47.9670 H   0  0  0  0  0  0  0  0  0  0  0  0
   36.9870   32.0370   46.7760 H   0  0  0  0  0  0  0  0  0  0  0  0
   35.0860   30.1940   49.5550 C   0  0  0  0  0  0  0  0  0  0  0  0
   35.4130   29.5390   50.7850 C   0  0  0  0  0  0  0  0  0  0  0  0
   36.8130   29.4420   51.1320 C   0  0  0  0  0  0  0  0  0  0  0  0
   37.7510   29.9660   50.2930 N   0  0  0  0  0  0  0  0  0  0  0  0
   37.3500   30.5760   49.1370 C   0  0  0  0  0  0  0  0  0  0  0  0
   36.0340   30.7060   48.7400 N   0  0  0  0  0  0  0  0  0  0  0  0
   34.0350   30.2310   49.3590 H   0  0  0  0  0  0  0  0  0  0  0  0
   34.6550   29.1390   51.4200 H   0  0  0  0  0  0  0  0  0  0  0  0
   37.0620   28.9500   52.0570 H   0  0  0  0  0  0  0  0  0  0  0  0
  1  3  1  0  0  0  0
  2  1  2  0  0  0  0
  3  4  1  0  0  0  0
  3 24  1  0  0  0  0
  5  6  1  0  0  0  0
  5  1  1  0  0  0  0
  6 11  1  0  0  0  0
  7 12  1  0  0  0  0
  7  6  2  0  0  0  0
  8  7  1  0  0  0  0
  9  8  2  0  0  0  0
  9 10  1  0  0  0  0
 10  5  2  0  0  0  0
 13  8  1  0  0  0  0
 14  9  1  0  0  0  0
 15 14  2  0  0  0  0
 15 16  1  0  0  0  0
 17 15  1  0  0  0  0
 18 17  1  0  0  0  0
 19 17  2  0  0  0  0
 19 21  1  0  0  0  0
 20 19  1  0  0  0  0
 21 14  1  0  0  0  0
 22 25  1  6  0  0  0
 22 33  1  0  0  0  0
 23 22  1  0  0  0  0
 23 26  1  0  0  0  0
 24 28  1  6  0  0  0
 24 23  1  0  0  0  0
 24 22  1  0  0  0  0
 27 23  1  0  0  0  0
 29 30  1  0  0  0  0
 30 31  2  0  0  0  0
 30 36  1  0  0  0  0
 31 37  1  0  0  0  0
 32 31  1  0  0  0  0
 33 32  2  0  0  0  0
 34 33  1  0  0  0  0
 34 29  2  0  0  0  0
 35 29  1  0  0  0  0
M  END
>  <minimizedAffinity>
-5.15492439

>  <minimizedRMSD>
0.243204966

$$$$
