
 OpenBabel03272508543D

 37 40  0  0  1  0  0  0  0  0999 V2000
   38.3880   31.8460   44.5490 C   0  0  0  0  0  0  0  0  0  0  0  0
   37.2700   32.4340   44.4320 O   0  0  0  0  0  0  0  0  0  0  0  0
   38.9250   31.5490   45.8420 N   0  0  0  0  0  0  0  0  0  0  0  0
   39.8990   31.2170   46.0100 H   0  0  0  0  0  0  0  0  0  0  0  0
   39.1560   31.4580   43.3570 C   0  0  0  0  0  0  0  0  0  0  0  0
   40.1200   30.4950   43.4950 C   0  0  0  0  0  0  0  0  0  0  0  0
   40.8470   30.1110   42.3850 C   0  0  0  0  0  0  0  0  0  0  0  0
   40.5570   30.7280   41.1860 C   0  0  0  0  0  0  0  0  0  0  0  0
   39.5860   31.7020   41.0380 C   0  0  0  0  0  0  0  0  0  0  0  0
   38.9320   32.0120   42.1590 N   0  0  0  0  0  0  0  0  0  0  0  0
   40.3840   29.9820   44.4110 H   0  0  0  0  0  0  0  0  0  0  0  0
   41.6200   29.3570   42.4280 H   0  0  0  0  0  0  0  0  0  0  0  0
   41.1340   30.4200   40.3210 H   0  0  0  0  0  0  0  0  0  0  0  0
   39.2970   32.3400   39.7600 C   0  0  0  0  0  0  0  0  0  0  0  0
   38.6380   33.5550   39.6490 C   0  0  0  0  0  0  0  0  0  0  0  0
   38.2680   34.1620   40.4580 H   0  0  0  0  0  0  0  0  0  0  0  0
   38.5960   33.7540   38.2660 C   0  0  0  0  0  0  0  0  0  0  0  0
   38.1460   34.6170   37.7920 H   0  0  0  0  0  0  0  0  0  0  0  0
   39.2080   32.6900   37.6360 C   0  0  0  0  0  0  0  0  0  0  0  0
   39.3540   32.5170   36.5780 H   0  0  0  0  0  0  0  0  0  0  0  0
   39.6210   31.8530   38.5670 O   0  0  0  0  0  0  0  0  0  0  0  0
   38.4240   31.1190   48.2420 C   0  0  2  0  0  0  0  0  0  0  0  0
   38.6810   32.5610   48.1260 C   0  0  0  0  0  0  0  0  0  0  0  0
   38.0460   31.7260   46.9870 C   0  0  1  0  0  0  0  0  0  0  0  0
   39.3480   30.5100   48.3300 H   0  0  0  0  0  0  0  0  0  0  0  0
   38.0560   33.3180   48.6270 H   0  0  0  0  0  0  0  0  0  0  0  0
   39.7160   32.9220   47.9680 H   0  0  0  0  0  0  0  0  0  0  0  0
   36.9890   32.0420   46.7760 H   0  0  0  0  0  0  0  0  0  0  0  0
   35.0860   30.1960   49.5510 C   0  0  0  0  0  0  0  0  0  0  0  0
   35.4130   29.5400   50.7810 C   0  0  0  0  0  0  0  0  0  0  0  0
   36.8120   29.4420   51.1290 C   0  0  0  0  0  0  0  0  0  0  0  0
   37.7510   29.9670   50.2910 N   0  0  0  0  0  0  0  0  0  0  0  0
   37.3500   30.5780   49.1340 C   0  0  0  0  0  0  0  0  0  0  0  0
   36.0350   30.7080   48.7370 N   0  0  0  0  0  0  0  0  0  0  0  0
   34.0350   30.2330   49.3550 H   0  0  0  0  0  0  0  0  0  0  0  0
   34.6530   29.1400   51.4160 H   0  0  0  0  0  0  0  0  0  0  0  0
   37.0610   28.9500   52.0540 H   0  0  0  0  0  0  0  0  0  0  0  0
  1  3  1  0  0  0  0
  2  1  2  0  0  0  0
  3  4  1  0  0  0  0
  3 24  1  0  0  0  0
  5  6  1  0  0  0  0
  5  1  1  0  0  0  0
  6 11  1  0  0  0  0
  7 12  1  0  0  0  0
  7  6  2  0  0  0  0
  8  7  1  0  0  0  0
  9  8  2  0  0  0  0
  9 10  1  0  0  0  0
 10  5  2  0  0  0  0
 13  8  1  0  0  0  0
 14  9  1  0  0  0  0
 15 14  2  0  0  0  0
 15 16  1  0  0  0  0
 17 15  1  0  0  0  0
 18 17  1  0  0  0  0
 19 17  2  0  0  0  0
 19 21  1  0  0  0  0
 20 19  1  0  0  0  0
 21 14  1  0  0  0  0
 22 25  1  6  0  0  0
 22 33  1  0  0  0  0
 23 22  1  0  0  0  0
 23 26  1  0  0  0  0
 24 28  1  6  0  0  0
 24 23  1  0  0  0  0
 24 22  1  0  0  0  0
 27 23  1  0  0  0  0
 29 30  1  0  0  0  0
 30 31  2  0  0  0  0
 30 36  1  0  0  0  0
 31 37  1  0  0  0  0
 32 31  1  0  0  0  0
 33 32  2  0  0  0  0
 34 33  1  0  0  0  0
 34 29  2  0  0  0  0
 35 29  1  0  0  0  0
M  END
>  <minimizedAffinity>
-5.15260458

>  <minimizedRMSD>
0.44828397

$$$$
