
 OpenBabel03262522103D

 28 30  0  0  0  0  0  0  0  0999 V2000
   37.3930   25.6910   33.2330 C   0  0  0  0  0  0  0  0  0  0  0  0
   37.1830   27.0380   33.4810 C   0  0  0  0  0  0  0  0  0  0  0  0
   37.4000   27.5410   34.7460 C   0  0  0  0  0  0  0  0  0  0  0  0
   37.8280   26.6300   35.7110 C   0  0  0  0  0  0  0  0  0  0  0  0
   38.0310   25.3000   35.4430 C   0  0  0  0  0  0  0  0  0  0  0  0
   37.8100   24.8330   34.1930 N   0  0  0  0  0  0  0  0  0  0  0  0
   36.8540   27.6990   32.7080 H   0  0  0  0  0  0  0  0  0  0  0  0
   37.2300   28.5870   34.9160 H   0  0  0  0  0  0  0  0  0  0  0  0
   37.9920   27.0470   36.6980 H   0  0  0  0  0  0  0  0  0  0  0  0
   38.4800   24.4230   36.5170 C   0  0  0  0  0  0  0  0  0  0  0  0
   37.9970   24.3220   37.8050 C   0  0  0  0  0  0  0  0  0  0  0  0
   37.1750   24.9510   38.1220 H   0  0  0  0  0  0  0  0  0  0  0  0
   38.7600   23.3390   38.4420 C   0  0  0  0  0  0  0  0  0  0  0  0
   38.5020   23.1390   39.4730 H   0  0  0  0  0  0  0  0  0  0  0  0
   39.6620   22.9080   37.4870 C   0  0  0  0  0  0  0  0  0  0  0  0
   40.3540   22.1300   37.7980 H   0  0  0  0  0  0  0  0  0  0  0  0
   39.4660   23.5670   36.3710 O   0  0  0  0  0  0  0  0  0  0  0  0
   37.1440   25.2250   31.8680 C   0  0  0  0  0  0  0  0  0  0  0  0
   37.1240   26.0150   30.9270 O   0  0  0  0  0  0  0  0  0  0  0  0
   37.9760   23.0070   31.1570 C   0  0  0  0  0  0  0  0  0  0  0  0
   36.9140   23.8210   31.5620 C   0  0  0  0  0  0  0  0  0  0  0  0
   35.6760   23.2230   31.6470 C   0  0  0  0  0  0  0  0  0  0  0  0
   35.5290   21.8990   31.3450 N   0  0  0  0  0  0  0  0  0  0  0  0
   36.5840   21.1500   30.9580 C   0  0  0  0  0  0  0  0  0  0  0  0
   37.7980   21.6970   30.8640 N   0  0  0  0  0  0  0  0  0  0  0  0
   38.9910   23.3980   31.0620 H   0  0  0  0  0  0  0  0  0  0  0  0
   34.8360   23.8330   31.9590 H   0  0  0  0  0  0  0  0  0  0  0  0
   36.3010   20.1190   30.7560 H   0  0  0  0  0  0  0  0  0  0  0  0
  1  2  2  0  0  0  0
  1  6  1  0  0  0  0
  2  3  1  0  0  0  0
  3  8  1  0  0  0  0
  3  4  2  0  0  0  0
  4  9  1  0  0  0  0
  5  4  1  0  0  0  0
  5 10  1  0  0  0  0
  6  5  2  0  0  0  0
  7  2  1  0  0  0  0
 10 11  2  0  0  0  0
 11 12  1  0  0  0  0
 11 13  1  0  0  0  0
 13 14  1  0  0  0  0
 15 16  1  0  0  0  0
 15 13  2  0  0  0  0
 17 10  1  0  0  0  0
 17 15  1  0  0  0  0
 18  1  1  0  0  0  0
 19 18  2  0  0  0  0
 20 21  1  0  0  0  0
 21 22  2  0  0  0  0
 21 18  1  0  0  0  0
 22 27  1  0  0  0  0
 23 22  1  0  0  0  0
 24 23  2  0  0  0  0
 25 24  1  0  0  0  0
 25 20  2  0  0  0  0
 26 20  1  0  0  0  0
 28 24  1  0  0  0  0
M  END
>  <minimizedAffinity>
-5.14128685

$$$$

 OpenBabel03262522103D

 28 30  0  0  0  0  0  0  0  0999 V2000
   37.7610   23.9600   33.3670 C   0  0  0  0  0  0  0  0  0  0  0  0
   37.1540   24.8840   32.5310 C   0  0  0  0  0  0  0  0  0  0  0  0
   36.2050   24.4630   31.6240 C   0  0  0  0  0  0  0  0  0  0  0  0
   35.9160   23.0990   31.6150 C   0  0  0  0  0  0  0  0  0  0  0  0
   36.5290   22.2020   32.4530 C   0  0  0  0  0  0  0  0  0  0  0  0
   37.4570   22.6420   33.3330 N   0  0  0  0  0  0  0  0  0  0  0  0
   37.4090   25.9210   32.5750 H   0  0  0  0  0  0  0  0  0  0  0  0
   35.7480   25.1960   30.9850 H   0  0  0  0  0  0  0  0  0  0  0  0
   35.1680   22.7910   30.8950 H   0  0  0  0  0  0  0  0  0  0  0  0
   36.1620   20.7940   32.3710 C   0  0  0  0  0  0  0  0  0  0  0  0
   35.5590   20.0030   33.3270 C   0  0  0  0  0  0  0  0  0  0  0  0
   35.2990   20.4270   34.2880 H   0  0  0  0  0  0  0  0  0  0  0  0
   35.4210   18.7310   32.7640 C   0  0  0  0  0  0  0  0  0  0  0  0
   34.9590   17.9860   33.3980 H   0  0  0  0  0  0  0  0  0  0  0  0
   35.9550   18.8390   31.4940 C   0  0  0  0  0  0  0  0  0  0  0  0
   35.9390   17.9360   30.8890 H   0  0  0  0  0  0  0  0  0  0  0  0
   36.3790   20.0640   31.3000 O   0  0  0  0  0  0  0  0  0  0  0  0
   38.7590   24.4750   34.3060 C   0  0  0  0  0  0  0  0  0  0  0  0
   39.6120   25.2790   33.9380 O   0  0  0  0  0  0  0  0  0  0  0  0
   37.8340   24.5620   36.5980 C   0  0  0  0  0  0  0  0  0  0  0  0
   38.7880   24.0670   35.7020 C   0  0  0  0  0  0  0  0  0  0  0  0
   39.7250   23.1980   36.2150 C   0  0  0  0  0  0  0  0  0  0  0  0
   39.6950   22.8570   37.5380 N   0  0  0  0  0  0  0  0  0  0  0  0
   38.7550   23.3580   38.3670 C   0  0  0  0  0  0  0  0  0  0  0  0
   37.8320   24.2030   37.9040 N   0  0  0  0  0  0  0  0  0  0  0  0
   37.0550   25.2550   36.2770 H   0  0  0  0  0  0  0  0  0  0  0  0
   40.4750   22.8000   35.5420 H   0  0  0  0  0  0  0  0  0  0  0  0
   38.8680   22.9890   39.3840 H   0  0  0  0  0  0  0  0  0  0  0  0
  1 18  1  0  0  0  0
  2  7  1  0  0  0  0
  2  1  2  0  0  0  0
  3  2  1  0  0  0  0
  4  3  2  0  0  0  0
  4  5  1  0  0  0  0
  5  6  2  0  0  0  0
  6  1  1  0  0  0  0
  8  3  1  0  0  0  0
  9  4  1  0  0  0  0
 10  5  1  0  0  0  0
 10 11  2  0  0  0  0
 11 12  1  0  0  0  0
 13 11  1  0  0  0  0
 13 14  1  0  0  0  0
 15 13  2  0  0  0  0
 16 15  1  0  0  0  0
 17 15  1  0  0  0  0
 17 10  1  0  0  0  0
 18 21  1  0  0  0  0
 19 18  2  0  0  0  0
 20 25  1  0  0  0  0
 21 22  1  0  0  0  0
 21 20  2  0  0  0  0
 22 23  2  0  0  0  0
 23 24  1  0  0  0  0
 24 28  1  0  0  0  0
 25 24  2  0  0  0  0
 26 20  1  0  0  0  0
 27 22  1  0  0  0  0
M  END
>  <minimizedAffinity>
-5.13738155

$$$$

 OpenBabel03262522103D

 28 30  0  0  0  0  0  0  0  0999 V2000
   37.4070   26.2380   33.6840 C   0  0  0  0  0  0  0  0  0  0  0  0
   37.3930   27.5690   34.0680 C   0  0  0  0  0  0  0  0  0  0  0  0
   37.7600   27.9130   35.3520 C   0  0  0  0  0  0  0  0  0  0  0  0
   38.1290   26.8650   36.1940 C   0  0  0  0  0  0  0  0  0  0  0  0
   38.1360   25.5530   35.7920 C   0  0  0  0  0  0  0  0  0  0  0  0
   37.7710   25.2430   34.5270 N   0  0  0  0  0  0  0  0  0  0  0  0
   37.1010   28.3390   33.3860 H   0  0  0  0  0  0  0  0  0  0  0  0
   37.7410   28.9510   35.6280 H   0  0  0  0  0  0  0  0  0  0  0  0
   38.4130   27.1580   37.1980 H   0  0  0  0  0  0  0  0  0  0  0  0
   38.5380   24.5250   36.7440 C   0  0  0  0  0  0  0  0  0  0  0  0
   38.0770   24.3110   38.0270 C   0  0  0  0  0  0  0  0  0  0  0  0
   37.3160   24.9600   38.4390 H   0  0  0  0  0  0  0  0  0  0  0  0
   38.7740   23.2050   38.5220 C   0  0  0  0  0  0  0  0  0  0  0  0
   38.5240   22.9070   39.5310 H   0  0  0  0  0  0  0  0  0  0  0  0
   39.6170   22.8210   37.4970 C   0  0  0  0  0  0  0  0  0  0  0  0
   40.2520   21.9620   37.6940 H   0  0  0  0  0  0  0  0  0  0  0  0
   39.4500   23.6190   36.4690 O   0  0  0  0  0  0  0  0  0  0  0  0
   37.0060   25.9440   32.3070 C   0  0  0  0  0  0  0  0  0  0  0  0
   36.2840   24.9830   32.0540 O   0  0  0  0  0  0  0  0  0  0  0  0
   36.5690   27.7140   30.6370 C   0  0  0  0  0  0  0  0  0  0  0  0
   37.4370   26.7650   31.1860 C   0  0  0  0  0  0  0  0  0  0  0  0
   38.6850   26.6650   30.6120 C   0  0  0  0  0  0  0  0  0  0  0  0
   39.0250   27.4670   29.5610 N   0  0  0  0  0  0  0  0  0  0  0  0
   38.1540   28.3710   29.0620 C   0  0  0  0  0  0  0  0  0  0  0  0
   36.9370   28.4960   29.5940 N   0  0  0  0  0  0  0  0  0  0  0  0
   35.5610   27.8610   31.0300 H   0  0  0  0  0  0  0  0  0  0  0  0
   39.3760   25.9370   31.0200 H   0  0  0  0  0  0  0  0  0  0  0  0
   38.5760   28.9300   28.2290 H   0  0  0  0  0  0  0  0  0  0  0  0
  1  2  2  0  0  0  0
  1  6  1  0  0  0  0
  2  3  1  0  0  0  0
  3  8  1  0  0  0  0
  3  4  2  0  0  0  0
  4  9  1  0  0  0  0
  5  4  1  0  0  0  0
  5 10  1  0  0  0  0
  6  5  2  0  0  0  0
  7  2  1  0  0  0  0
 10 11  2  0  0  0  0
 11 12  1  0  0  0  0
 11 13  1  0  0  0  0
 13 14  1  0  0  0  0
 15 16  1  0  0  0  0
 15 13  2  0  0  0  0
 17 10  1  0  0  0  0
 17 15  1  0  0  0  0
 18  1  1  0  0  0  0
 19 18  2  0  0  0  0
 20 26  1  0  0  0  0
 20 21  1  0  0  0  0
 21 18  1  0  0  0  0
 22 27  1  0  0  0  0
 22 21  2  0  0  0  0
 23 22  1  0  0  0  0
 24 23  2  0  0  0  0
 24 25  1  0  0  0  0
 25 20  2  0  0  0  0
 28 24  1  0  0  0  0
M  END
>  <minimizedAffinity>
-5.09633255

$$$$

 OpenBabel03262522103D

 28 30  0  0  0  0  0  0  0  0999 V2000
   36.7950   22.0900   33.0310 C   0  0  0  0  0  0  0  0  0  0  0  0
   35.8170   21.1310   33.2400 C   0  0  0  0  0  0  0  0  0  0  0  0
   35.6530   20.5840   34.4960 C   0  0  0  0  0  0  0  0  0  0  0  0
   36.5090   21.0520   35.4910 C   0  0  0  0  0  0  0  0  0  0  0  0
   37.4710   22.0030   35.2630 C   0  0  0  0  0  0  0  0  0  0  0  0
   37.6110   22.5220   34.0210 N   0  0  0  0  0  0  0  0  0  0  0  0
   35.1840   20.8030   32.4430 H   0  0  0  0  0  0  0  0  0  0  0  0
   34.8900   19.8420   34.6340 H   0  0  0  0  0  0  0  0  0  0  0  0
   36.3630   20.6090   36.4700 H   0  0  0  0  0  0  0  0  0  0  0  0
   38.3210   22.4290   36.3680 C   0  0  0  0  0  0  0  0  0  0  0  0
   39.6880   22.3030   36.5020 C   0  0  0  0  0  0  0  0  0  0  0  0
   40.2640   21.8340   35.7150 H   0  0  0  0  0  0  0  0  0  0  0  0
   40.0210   22.8660   37.7370 C   0  0  0  0  0  0  0  0  0  0  0  0
   41.0710   22.8450   37.9940 H   0  0  0  0  0  0  0  0  0  0  0  0
   38.8220   23.2970   38.2730 C   0  0  0  0  0  0  0  0  0  0  0  0
   38.8760   23.7720   39.2490 H   0  0  0  0  0  0  0  0  0  0  0  0
   37.8470   23.0240   37.4400 O   0  0  0  0  0  0  0  0  0  0  0  0
   36.9140   22.6270   31.6750 C   0  0  0  0  0  0  0  0  0  0  0  0
   37.2120   21.8970   30.7330 O   0  0  0  0  0  0  0  0  0  0  0  0
   35.3820   24.5170   31.2280 C   0  0  0  0  0  0  0  0  0  0  0  0
   36.6860   24.0340   31.3800 C   0  0  0  0  0  0  0  0  0  0  0  0
   37.7050   24.9490   31.2350 C   0  0  0  0  0  0  0  0  0  0  0  0
   37.4210   26.2560   30.9570 N   0  0  0  0  0  0  0  0  0  0  0  0
   36.1450   26.6790   30.8190 C   0  0  0  0  0  0  0  0  0  0  0  0
   35.1340   25.8200   30.9530 N   0  0  0  0  0  0  0  0  0  0  0  0
   34.5160   23.8610   31.3260 H   0  0  0  0  0  0  0  0  0  0  0  0
   38.7240   24.6000   31.3480 H   0  0  0  0  0  0  0  0  0  0  0  0
   36.0890   27.7440   30.6010 H   0  0  0  0  0  0  0  0  0  0  0  0
  1  2  2  0  0  0  0
  1  6  1  0  0  0  0
  2  3  1  0  0  0  0
  3  8  1  0  0  0  0
  3  4  2  0  0  0  0
  4  9  1  0  0  0  0
  5  4  1  0  0  0  0
  5 10  1  0  0  0  0
  6  5  2  0  0  0  0
  7  2  1  0  0  0  0
 10 11  2  0  0  0  0
 10 17  1  0  0  0  0
 11 13  1  0  0  0  0
 12 11  1  0  0  0  0
 13 14  1  0  0  0  0
 13 15  2  0  0  0  0
 15 16  1  0  0  0  0
 17 15  1  0  0  0  0
 18  1  1  0  0  0  0
 19 18  2  0  0  0  0
 20 26  1  0  0  0  0
 20 21  1  0  0  0  0
 21 18  1  0  0  0  0
 22 27  1  0  0  0  0
 22 21  2  0  0  0  0
 23 22  1  0  0  0  0
 24 25  1  0  0  0  0
 24 23  2  0  0  0  0
 25 20  2  0  0  0  0
 28 24  1  0  0  0  0
M  END
>  <minimizedAffinity>
-5.03591061

$$$$

 OpenBabel03262522103D

 28 30  0  0  0  0  0  0  0  0999 V2000
   37.2590   26.1910   33.4720 C   0  0  0  0  0  0  0  0  0  0  0  0
   37.2120   27.5240   33.8500 C   0  0  0  0  0  0  0  0  0  0  0  0
   37.5980   27.8860   35.1230 C   0  0  0  0  0  0  0  0  0  0  0  0
   38.0200   26.8550   35.9600 C   0  0  0  0  0  0  0  0  0  0  0  0
   38.0600   25.5420   35.5650 C   0  0  0  0  0  0  0  0  0  0  0  0
   37.6750   25.2140   34.3100 N   0  0  0  0  0  0  0  0  0  0  0  0
   36.8800   28.2800   33.1710 H   0  0  0  0  0  0  0  0  0  0  0  0
   37.5520   28.9240   35.3940 H   0  0  0  0  0  0  0  0  0  0  0  0
   38.3190   27.1620   36.9560 H   0  0  0  0  0  0  0  0  0  0  0  0
   38.5160   24.5320   36.5120 C   0  0  0  0  0  0  0  0  0  0  0  0
   38.0500   24.2700   37.7830 C   0  0  0  0  0  0  0  0  0  0  0  0
   37.2370   24.8570   38.1890 H   0  0  0  0  0  0  0  0  0  0  0  0
   38.8140   23.2090   38.2770 C   0  0  0  0  0  0  0  0  0  0  0  0
   38.5680   22.8800   39.2780 H   0  0  0  0  0  0  0  0  0  0  0  0
   39.7010   22.8990   37.2640 C   0  0  0  0  0  0  0  0  0  0  0  0
   40.3920   22.0850   37.4630 H   0  0  0  0  0  0  0  0  0  0  0  0
   39.4950   23.6970   36.2430 O   0  0  0  0  0  0  0  0  0  0  0  0
   36.8360   25.8770   32.1060 C   0  0  0  0  0  0  0  0  0  0  0  0
   35.6650   26.0200   31.7620 O   0  0  0  0  0  0  0  0  0  0  0  0
   37.6990   24.0620   30.6650 C   0  0  0  0  0  0  0  0  0  0  0  0
   37.7680   25.3890   31.1020 C   0  0  0  0  0  0  0  0  0  0  0  0
   38.7470   26.1750   30.5350 C   0  0  0  0  0  0  0  0  0  0  0  0
   39.5910   25.6530   29.5960 N   0  0  0  0  0  0  0  0  0  0  0  0
   39.4870   24.3640   29.2040 C   0  0  0  0  0  0  0  0  0  0  0  0
   38.5510   23.5740   29.7320 N   0  0  0  0  0  0  0  0  0  0  0  0
   36.9540   23.3700   31.0610 H   0  0  0  0  0  0  0  0  0  0  0  0
   38.8220   27.2070   30.8560 H   0  0  0  0  0  0  0  0  0  0  0  0
   40.2300   24.1050   28.4520 H   0  0  0  0  0  0  0  0  0  0  0  0
  1  2  2  0  0  0  0
  1  6  1  0  0  0  0
  2  3  1  0  0  0  0
  3  8  1  0  0  0  0
  3  4  2  0  0  0  0
  4  9  1  0  0  0  0
  5  4  1  0  0  0  0
  5 10  1  0  0  0  0
  6  5  2  0  0  0  0
  7  2  1  0  0  0  0
 10 11  2  0  0  0  0
 11 12  1  0  0  0  0
 11 13  1  0  0  0  0
 13 14  1  0  0  0  0
 15 16  1  0  0  0  0
 15 13  2  0  0  0  0
 17 10  1  0  0  0  0
 17 15  1  0  0  0  0
 18  1  1  0  0  0  0
 19 18  2  0  0  0  0
 20 26  1  0  0  0  0
 20 21  1  0  0  0  0
 21 18  1  0  0  0  0
 22 27  1  0  0  0  0
 22 21  2  0  0  0  0
 23 22  1  0  0  0  0
 24 23  2  0  0  0  0
 24 25  1  0  0  0  0
 25 20  2  0  0  0  0
 28 24  1  0  0  0  0
M  END
>  <minimizedAffinity>
-4.93106937

$$$$

 OpenBabel03262522103D

 28 30  0  0  0  0  0  0  0  0999 V2000
   37.4070   26.2270   33.5540 C   0  0  0  0  0  0  0  0  0  0  0  0
   37.2490   27.4760   34.1350 C   0  0  0  0  0  0  0  0  0  0  0  0
   37.7140   27.6970   35.4140 C   0  0  0  0  0  0  0  0  0  0  0  0
   38.3260   26.6160   36.0470 C   0  0  0  0  0  0  0  0  0  0  0  0
   38.4730   25.3890   35.4520 C   0  0  0  0  0  0  0  0  0  0  0  0
   38.0070   25.1990   34.1960 N   0  0  0  0  0  0  0  0  0  0  0  0
   36.7710   28.2750   33.6090 H   0  0  0  0  0  0  0  0  0  0  0  0
   37.5800   28.6710   35.8450 H   0  0  0  0  0  0  0  0  0  0  0  0
   38.6840   26.8130   37.0510 H   0  0  0  0  0  0  0  0  0  0  0  0
   39.1280   24.3180   36.1940 C   0  0  0  0  0  0  0  0  0  0  0  0
   38.7100   23.6890   37.3480 C   0  0  0  0  0  0  0  0  0  0  0  0
   37.7790   23.9840   37.8140 H   0  0  0  0  0  0  0  0  0  0  0  0
   39.6840   22.7350   37.6570 C   0  0  0  0  0  0  0  0  0  0  0  0
   39.5000   22.1500   38.5480 H   0  0  0  0  0  0  0  0  0  0  0  0
   40.6350   22.8540   36.6620 C   0  0  0  0  0  0  0  0  0  0  0  0
   41.4870   22.1830   36.7300 H   0  0  0  0  0  0  0  0  0  0  0  0
   40.2730   23.7930   35.8200 O   0  0  0  0  0  0  0  0  0  0  0  0
   36.8910   26.0620   32.1940 C   0  0  0  0  0  0  0  0  0  0  0  0
   36.0480   25.2050   31.9410 O   0  0  0  0  0  0  0  0  0  0  0  0
   38.6290   26.7290   30.5670 C   0  0  0  0  0  0  0  0  0  0  0  0
   37.3430   26.8950   31.0900 C   0  0  0  0  0  0  0  0  0  0  0  0
   36.5610   27.8680   30.5090 C   0  0  0  0  0  0  0  0  0  0  0  0
   37.0480   28.6160   29.4750 N   0  0  0  0  0  0  0  0  0  0  0  0
   38.2980   28.4210   29.0010 C   0  0  0  0  0  0  0  0  0  0  0  0
   39.0830   27.4870   29.5400 N   0  0  0  0  0  0  0  0  0  0  0  0
   39.3160   25.9810   30.9680 H   0  0  0  0  0  0  0  0  0  0  0  0
   35.5600   28.0170   30.8960 H   0  0  0  0  0  0  0  0  0  0  0  0
   38.5330   29.0930   28.1780 H   0  0  0  0  0  0  0  0  0  0  0  0
  1  2  2  0  0  0  0
  1  6  1  0  0  0  0
  2  3  1  0  0  0  0
  3  8  1  0  0  0  0
  3  4  2  0  0  0  0
  4  9  1  0  0  0  0
  5  4  1  0  0  0  0
  5 10  1  0  0  0  0
  6  5  2  0  0  0  0
  7  2  1  0  0  0  0
 10 11  2  0  0  0  0
 11 13  1  0  0  0  0
 11 12  1  0  0  0  0
 13 14  1  0  0  0  0
 15 16  1  0  0  0  0
 15 13  2  0  0  0  0
 17 10  1  0  0  0  0
 17 15  1  0  0  0  0
 18  1  1  0  0  0  0
 19 18  2  0  0  0  0
 20 26  1  0  0  0  0
 20 21  1  0  0  0  0
 21 18  1  0  0  0  0
 22 27  1  0  0  0  0
 22 21  2  0  0  0  0
 23 22  1  0  0  0  0
 24 23  2  0  0  0  0
 24 25  1  0  0  0  0
 25 20  2  0  0  0  0
 28 24  1  0  0  0  0
M  END
>  <minimizedAffinity>
-4.87234306

$$$$

 OpenBabel03262522103D

 28 30  0  0  0  0  0  0  0  0999 V2000
   38.3030   25.1560   35.9920 C   0  0  0  0  0  0  0  0  0  0  0  0
   38.5790   26.4420   36.4290 C   0  0  0  0  0  0  0  0  0  0  0  0
   38.2470   27.5190   35.6350 C   0  0  0  0  0  0  0  0  0  0  0  0
   37.6390   27.2260   34.4150 C   0  0  0  0  0  0  0  0  0  0  0  0
   37.3740   25.9450   34.0030 C   0  0  0  0  0  0  0  0  0  0  0  0
   37.7110   24.9060   34.8010 N   0  0  0  0  0  0  0  0  0  0  0  0
   39.0480   26.6170   37.3740 H   0  0  0  0  0  0  0  0  0  0  0  0
   38.4710   28.5060   35.9930 H   0  0  0  0  0  0  0  0  0  0  0  0
   37.3860   28.0870   33.8080 H   0  0  0  0  0  0  0  0  0  0  0  0
   36.7340   25.7360   32.7090 C   0  0  0  0  0  0  0  0  0  0  0  0
   36.5570   24.5570   32.0160 C   0  0  0  0  0  0  0  0  0  0  0  0
   36.9190   23.6280   32.4350 H   0  0  0  0  0  0  0  0  0  0  0  0
   35.8910   24.8870   30.8320 C   0  0  0  0  0  0  0  0  0  0  0  0
   35.6760   24.0600   30.1690 H   0  0  0  0  0  0  0  0  0  0  0  0
   35.7100   26.2560   30.8880 C   0  0  0  0  0  0  0  0  0  0  0  0
   35.2010   26.7070   30.0420 H   0  0  0  0  0  0  0  0  0  0  0  0
   36.2180   26.7190   32.0060 O   0  0  0  0  0  0  0  0  0  0  0  0
   38.6830   24.0600   36.8850 C   0  0  0  0  0  0  0  0  0  0  0  0
   37.9590   23.7320   37.8210 O   0  0  0  0  0  0  0  0  0  0  0  0
   40.7750   23.6150   35.6440 C   0  0  0  0  0  0  0  0  0  0  0  0
   39.9190   23.3130   36.7080 C   0  0  0  0  0  0  0  0  0  0  0  0
   40.3130   22.2950   37.5480 C   0  0  0  0  0  0  0  0  0  0  0  0
   41.4870   21.6350   37.3240 N   0  0  0  0  0  0  0  0  0  0  0  0
   42.2840   21.9600   36.2830 C   0  0  0  0  0  0  0  0  0  0  0  0
   41.9340   22.9410   35.4500 N   0  0  0  0  0  0  0  0  0  0  0  0
   40.5410   24.4070   34.9300 H   0  0  0  0  0  0  0  0  0  0  0  0
   39.6670   22.0420   38.3800 H   0  0  0  0  0  0  0  0  0  0  0  0
   43.1790   21.3420   36.2450 H   0  0  0  0  0  0  0  0  0  0  0  0
  1  2  1  0  0  0  0
  1 18  1  0  0  0  0
  2  7  1  0  0  0  0
  3  8  1  0  0  0  0
  3  2  2  0  0  0  0
  4  3  1  0  0  0  0
  5  4  2  0  0  0  0
  5  6  1  0  0  0  0
  6  1  2  0  0  0  0
  9  4  1  0  0  0  0
 10  5  1  0  0  0  0
 11 12  1  0  0  0  0
 11 10  2  0  0  0  0
 13 15  2  0  0  0  0
 13 11  1  0  0  0  0
 14 13  1  0  0  0  0
 15 17  1  0  0  0  0
 16 15  1  0  0  0  0
 17 10  1  0  0  0  0
 18 19  2  0  0  0  0
 20 21  1  0  0  0  0
 21 18  1  0  0  0  0
 21 22  2  0  0  0  0
 22 27  1  0  0  0  0
 23 22  1  0  0  0  0
 24 23  2  0  0  0  0
 25 20  2  0  0  0  0
 25 24  1  0  0  0  0
 26 20  1  0  0  0  0
 28 24  1  0  0  0  0
M  END
>  <minimizedAffinity>
-4.85343456

$$$$

 OpenBabel03262522103D

 28 30  0  0  0  0  0  0  0  0999 V2000
   37.9220   26.4630   33.3730 C   0  0  0  0  0  0  0  0  0  0  0  0
   39.0920   27.1360   33.0600 C   0  0  0  0  0  0  0  0  0  0  0  0
   40.2160   26.9470   33.8370 C   0  0  0  0  0  0  0  0  0  0  0  0
   40.0880   26.0670   34.9100 C   0  0  0  0  0  0  0  0  0  0  0  0
   38.9190   25.4100   35.2010 C   0  0  0  0  0  0  0  0  0  0  0  0
   37.8310   25.6140   34.4230 N   0  0  0  0  0  0  0  0  0  0  0  0
   39.1420   27.8020   32.2260 H   0  0  0  0  0  0  0  0  0  0  0  0
   41.1120   27.4790   33.5760 H   0  0  0  0  0  0  0  0  0  0  0  0
   40.9840   25.9330   35.5060 H   0  0  0  0  0  0  0  0  0  0  0  0
   38.8810   24.5080   36.3450 C   0  0  0  0  0  0  0  0  0  0  0  0
   37.9810   24.4800   37.3900 C   0  0  0  0  0  0  0  0  0  0  0  0
   37.1720   25.1980   37.4220 H   0  0  0  0  0  0  0  0  0  0  0  0
   38.3750   23.4320   38.2280 C   0  0  0  0  0  0  0  0  0  0  0  0
   37.7620   23.2780   39.1050 H   0  0  0  0  0  0  0  0  0  0  0  0
   39.4970   22.8930   37.6280 C   0  0  0  0  0  0  0  0  0  0  0  0
   39.9560   22.0520   38.1400 H   0  0  0  0  0  0  0  0  0  0  0  0
   39.7630   23.5510   36.5250 O   0  0  0  0  0  0  0  0  0  0  0  0
   36.7680   26.7100   32.5070 C   0  0  0  0  0  0  0  0  0  0  0  0
   36.1590   25.7770   31.9900 O   0  0  0  0  0  0  0  0  0  0  0  0
   36.3390   28.5540   30.9170 C   0  0  0  0  0  0  0  0  0  0  0  0
   36.2900   28.0540   32.2220 C   0  0  0  0  0  0  0  0  0  0  0  0
   35.7760   28.8930   33.1860 C   0  0  0  0  0  0  0  0  0  0  0  0
   35.3450   30.1450   32.8490 N   0  0  0  0  0  0  0  0  0  0  0  0
   35.4110   30.5870   31.5750 C   0  0  0  0  0  0  0  0  0  0  0  0
   35.9030   29.8010   30.6160 N   0  0  0  0  0  0  0  0  0  0  0  0
   36.7310   27.9570   30.0910 H   0  0  0  0  0  0  0  0  0  0  0  0
   35.7270   28.5290   34.2060 H   0  0  0  0  0  0  0  0  0  0  0  0
   35.0290   31.6000   31.4730 H   0  0  0  0  0  0  0  0  0  0  0  0
  1  6  1  0  0  0  0
  2  1  2  0  0  0  0
  2  3  1  0  0  0  0
  3  4  2  0  0  0  0
  4  5  1  0  0  0  0
  4  9  1  0  0  0  0
  5 10  1  0  0  0  0
  6  5  2  0  0  0  0
  7  2  1  0  0  0  0
  8  3  1  0  0  0  0
 10 17  1  0  0  0  0
 10 11  2  0  0  0  0
 11 12  1  0  0  0  0
 11 13  1  0  0  0  0
 13 14  1  0  0  0  0
 15 16  1  0  0  0  0
 15 13  2  0  0  0  0
 17 15  1  0  0  0  0
 18  1  1  0  0  0  0
 19 18  2  0  0  0  0
 20 21  1  0  0  0  0
 21 18  1  0  0  0  0
 21 22  2  0  0  0  0
 22 27  1  0  0  0  0
 23 22  1  0  0  0  0
 24 23  2  0  0  0  0
 25 20  2  0  0  0  0
 25 24  1  0  0  0  0
 26 20  1  0  0  0  0
 28 24  1  0  0  0  0
M  END
>  <minimizedAffinity>
-4.82590294

$$$$

 OpenBabel03262522103D

 28 30  0  0  0  0  0  0  0  0999 V2000
   39.7710   26.3600   34.4440 C   0  0  0  0  0  0  0  0  0  0  0  0
   39.2850   27.0960   35.5130 C   0  0  0  0  0  0  0  0  0  0  0  0
   37.9380   27.3770   35.5930 C   0  0  0  0  0  0  0  0  0  0  0  0
   37.1400   26.8840   34.5620 C   0  0  0  0  0  0  0  0  0  0  0  0
   37.6410   26.1560   33.5140 C   0  0  0  0  0  0  0  0  0  0  0  0
   38.9670   25.8950   33.4590 N   0  0  0  0  0  0  0  0  0  0  0  0
   39.9380   27.4540   36.2810 H   0  0  0  0  0  0  0  0  0  0  0  0
   37.5840   27.9500   36.4300 H   0  0  0  0  0  0  0  0  0  0  0  0
   36.0840   27.1160   34.6460 H   0  0  0  0  0  0  0  0  0  0  0  0
   36.7270   25.6820   32.4810 C   0  0  0  0  0  0  0  0  0  0  0  0
   35.9180   26.4200   31.6420 C   0  0  0  0  0  0  0  0  0  0  0  0
   35.9170   27.5000   31.7100 H   0  0  0  0  0  0  0  0  0  0  0  0
   35.2370   25.5030   30.8360 C   0  0  0  0  0  0  0  0  0  0  0  0
   34.5540   25.9300   30.1150 H   0  0  0  0  0  0  0  0  0  0  0  0
   35.6840   24.2610   31.2460 C   0  0  0  0  0  0  0  0  0  0  0  0
   35.2620   23.4040   30.7280 H   0  0  0  0  0  0  0  0  0  0  0  0
   36.5580   24.4070   32.2130 O   0  0  0  0  0  0  0  0  0  0  0  0
   41.2110   26.0980   34.4220 C   0  0  0  0  0  0  0  0  0  0  0  0
   41.9740   26.8320   33.7980 O   0  0  0  0  0  0  0  0  0  0  0  0
   41.0060   23.8880   35.5130 C   0  0  0  0  0  0  0  0  0  0  0  0
   41.8020   24.9720   35.1300 C   0  0  0  0  0  0  0  0  0  0  0  0
   43.1370   24.9040   35.4580 C   0  0  0  0  0  0  0  0  0  0  0  0
   43.6270   23.8170   36.1230 N   0  0  0  0  0  0  0  0  0  0  0  0
   42.8210   22.7910   36.4740 C   0  0  0  0  0  0  0  0  0  0  0  0
   41.5220   22.8240   36.1720 N   0  0  0  0  0  0  0  0  0  0  0  0
   39.9370   23.8590   35.2930 H   0  0  0  0  0  0  0  0  0  0  0  0
   43.7760   25.7320   35.1720 H   0  0  0  0  0  0  0  0  0  0  0  0
   43.3640   22.0050   36.9950 H   0  0  0  0  0  0  0  0  0  0  0  0
  1  2  1  0  0  0  0
  2  3  2  0  0  0  0
  2  7  1  0  0  0  0
  3  8  1  0  0  0  0
  4  9  1  0  0  0  0
  4  3  1  0  0  0  0
  5  4  2  0  0  0  0
  6  5  1  0  0  0  0
  6  1  2  0  0  0  0
 10  5  1  0  0  0  0
 11 12  1  0  0  0  0
 11 10  2  0  0  0  0
 13 15  2  0  0  0  0
 13 11  1  0  0  0  0
 14 13  1  0  0  0  0
 15 17  1  0  0  0  0
 16 15  1  0  0  0  0
 17 10  1  0  0  0  0
 18  1  1  0  0  0  0
 18 21  1  0  0  0  0
 19 18  2  0  0  0  0
 20 25  1  0  0  0  0
 21 22  1  0  0  0  0
 21 20  2  0  0  0  0
 22 23  2  0  0  0  0
 23 24  1  0  0  0  0
 24 28  1  0  0  0  0
 25 24  2  0  0  0  0
 26 20  1  0  0  0  0
 27 22  1  0  0  0  0
M  END
>  <minimizedAffinity>
-4.73037767

$$$$
