
 OpenBabel03272510203D

 35 38  0  0  0  0  0  0  0  0999 V2000
   37.4590   29.1490   50.8140 Br  0  0  0  0  0  0  0  0  0  0  0  0
   36.0440   29.3040   49.5320 C   0  0  0  0  0  0  0  0  0  0  0  0
   36.0420   30.3380   48.6090 C   0  0  0  0  0  0  0  0  0  0  0  0
   34.9940   30.3970   47.7100 C   0  0  0  0  0  0  0  0  0  0  0  0
   33.9630   29.4610   47.7120 C   0  0  0  0  0  0  0  0  0  0  0  0
   33.9940   28.4610   48.6320 C   0  0  0  0  0  0  0  0  0  0  0  0
   35.0350   28.3910   49.5350 C   0  0  0  0  0  0  0  0  0  0  0  0
   34.9270   31.1720   46.9620 H   0  0  0  0  0  0  0  0  0  0  0  0
   33.2100   27.7390   48.6420 H   0  0  0  0  0  0  0  0  0  0  0  0
   35.0060   27.5740   50.2420 H   0  0  0  0  0  0  0  0  0  0  0  0
   38.0190   33.2500   49.5850 C   0  0  0  0  0  0  0  0  0  0  0  0
   39.0730   33.2590   48.6340 C   0  0  0  0  0  0  0  0  0  0  0  0
   39.0930   32.2600   47.6650 C   0  0  0  0  0  0  0  0  0  0  0  0
   38.0980   31.3120   47.6670 N   0  0  0  0  0  0  0  0  0  0  0  0
   37.1110   31.3320   48.5830 C   0  0  0  0  0  0  0  0  0  0  0  0
   37.0770   32.3030   49.5400 N   0  0  0  0  0  0  0  0  0  0  0  0
   38.0470   34.0410   50.3150 H   0  0  0  0  0  0  0  0  0  0  0  0
   39.8290   34.0220   48.6740 H   0  0  0  0  0  0  0  0  0  0  0  0
   39.8640   32.2220   46.9260 H   0  0  0  0  0  0  0  0  0  0  0  0
   32.8520   29.5220   46.7620 C   0  0  0  0  0  0  0  0  0  0  0  0
   31.9750   28.4820   46.5180 C   0  0  0  0  0  0  0  0  0  0  0  0
   30.9370   28.5930   45.6040 C   0  0  0  0  0  0  0  0  0  0  0  0
   30.7600   29.7250   44.9310 N   0  0  0  0  0  0  0  0  0  0  0  0
   31.6070   30.7460   45.1600 C   0  0  0  0  0  0  0  0  0  0  0  0
   32.6080   30.6370   46.0410 N   0  0  0  0  0  0  0  0  0  0  0  0
   32.1260   27.5620   47.0720 H   0  0  0  0  0  0  0  0  0  0  0  0
   30.2820   27.7440   45.4550 H   0  0  0  0  0  0  0  0  0  0  0  0
   31.5530   32.0540   44.5070 C   0  0  0  0  0  0  0  0  0  0  0  0
   32.3950   32.3140   43.4190 C   0  0  0  0  0  0  0  0  0  0  0  0
   33.1230   31.6640   42.9550 H   0  0  0  0  0  0  0  0  0  0  0  0
   32.1430   33.6190   42.9900 C   0  0  0  0  0  0  0  0  0  0  0  0
   32.6570   34.0850   42.1590 H   0  0  0  0  0  0  0  0  0  0  0  0
   31.1470   34.0700   43.8640 C   0  0  0  0  0  0  0  0  0  0  0  0
   30.7290   35.0660   43.7910 H   0  0  0  0  0  0  0  0  0  0  0  0
   30.8440   33.1390   44.7120 O   0  0  0  0  0  0  0  0  0  0  0  0
  2  7  1  0  0  0  0
  2  1  1  0  0  0  0
  3  2  2  0  0  0  0
  4  5  2  0  0  0  0
  4  3  1  0  0  0  0
  5  6  1  0  0  0  0
  6  9  1  0  0  0  0
  6  7  2  0  0  0  0
  7 10  1  0  0  0  0
  8  4  1  0  0  0  0
 11 17  1  0  0  0  0
 12 18  1  0  0  0  0
 12 11  2  0  0  0  0
 13 14  2  0  0  0  0
 13 12  1  0  0  0  0
 14 15  1  0  0  0  0
 15  3  1  0  0  0  0
 15 16  2  0  0  0  0
 16 11  1  0  0  0  0
 19 13  1  0  0  0  0
 20  5  1  0  0  0  0
 21 20  1  0  0  0  0
 21 26  1  0  0  0  0
 22 21  2  0  0  0  0
 23 24  2  0  0  0  0
 23 22  1  0  0  0  0
 24 25  1  0  0  0  0
 25 20  2  0  0  0  0
 27 22  1  0  0  0  0
 28 35  1  0  0  0  0
 28 24  1  0  0  0  0
 29 28  2  0  0  0  0
 30 29  1  0  0  0  0
 31 29  1  0  0  0  0
 31 33  2  0  0  0  0
 32 31  1  0  0  0  0
 33 35  1  0  0  0  0
 34 33  1  0  0  0  0
M  END
>  <minimizedAffinity>
-6.37509966

>  <minimizedRMSD>
0.511282444

$$$$
