
 OpenBabel03272506483D

 41 44  0  0  1  0  0  0  0  0999 V2000
   32.1380   28.4450   47.4650 C   0  0  2  0  0  0  0  0  0  0  0  0
   33.3840   28.2730   48.2830 C   0  0  1  0  0  0  0  0  0  0  0  0
   33.7890   26.9790   48.1680 O   0  0  0  0  0  0  0  0  0  0  0  0
   33.0840   26.3650   47.1380 C   0  0  0  0  0  0  0  0  0  0  0  0
   32.4750   27.4650   46.2970 C   0  0  1  0  0  0  0  0  0  0  0  0
   31.2220   28.0850   47.9210 H   0  0  0  0  0  0  0  0  0  0  0  0
   33.1400   28.5970   49.3130 H   0  0  0  0  0  0  0  0  0  0  0  0
   32.3840   25.6860   47.6050 H   0  0  0  0  0  0  0  0  0  0  0  0
   33.8660   25.8010   46.5370 H   0  0  0  0  0  0  0  0  0  0  0  0
   33.2070   27.9620   45.6640 H   0  0  0  0  0  0  0  0  0  0  0  0
   32.0560   29.7560   46.9520 O   0  0  0  0  0  0  0  0  0  0  0  0
   32.5880   29.7640   46.1210 H   0  0  0  0  0  0  0  0  0  0  0  0
   34.6830   29.3410   47.5410 S   0  0  0  0  0  0  0  0  0  0  0  0
   37.1200   29.2400   50.6640 C   0  0  0  0  0  0  0  0  0  0  0  0
   37.5580   30.5550   50.8230 C   0  0  0  0  0  0  0  0  0  0  0  0
   37.0830   31.5100   49.9320 C   0  0  0  0  0  0  0  0  0  0  0  0
   36.2160   31.1210   48.9500 N   0  0  0  0  0  0  0  0  0  0  0  0
   35.8190   29.8350   48.8330 C   0  0  0  0  0  0  0  0  0  0  0  0
   36.2620   28.8780   49.6860 N   0  0  0  0  0  0  0  0  0  0  0  0
   37.4380   28.4320   51.3110 H   0  0  0  0  0  0  0  0  0  0  0  0
   38.2360   30.7900   51.6140 H   0  0  0  0  0  0  0  0  0  0  0  0
   37.3940   32.5440   50.0150 H   0  0  0  0  0  0  0  0  0  0  0  0
   31.3290   26.9920   45.7050 O   0  0  0  0  0  0  0  0  0  0  0  0
   30.0700   29.1950   44.2110 Cl  0  0  0  0  0  0  0  0  0  0  0  0
   29.3940   28.2260   45.4980 C   0  0  0  0  0  0  0  0  0  0  0  0
   30.0840   27.2080   46.1170 C   0  0  0  0  0  0  0  0  0  0  0  0
   29.4270   26.4840   47.1140 C   0  0  0  0  0  0  0  0  0  0  0  0
   28.1290   26.7870   47.4650 C   0  0  0  0  0  0  0  0  0  0  0  0
   27.4280   27.8090   46.8500 C   0  0  0  0  0  0  0  0  0  0  0  0
   28.0820   28.5220   45.8620 C   0  0  0  0  0  0  0  0  0  0  0  0
   29.8690   25.6670   47.6560 H   0  0  0  0  0  0  0  0  0  0  0  0
   27.5800   26.2620   48.2250 H   0  0  0  0  0  0  0  0  0  0  0  0
   26.4100   28.0530   47.1190 H   0  0  0  0  0  0  0  0  0  0  0  0
   27.3610   29.6070   45.1980 C   0  0  0  0  0  0  0  0  0  0  0  0
   26.5920   29.5300   44.0860 C   0  0  0  0  0  0  0  0  0  0  0  0
   26.4060   28.6040   43.5210 H   0  0  0  0  0  0  0  0  0  0  0  0
   26.0680   30.7710   43.7500 C   0  0  0  0  0  0  0  0  0  0  0  0
   25.4280   31.0660   42.9430 H   0  0  0  0  0  0  0  0  0  0  0  0
   26.5870   31.5740   44.7450 C   0  0  0  0  0  0  0  0  0  0  0  0
   26.4400   32.6560   44.8910 H   0  0  0  0  0  0  0  0  0  0  0  0
   27.3290   30.8720   45.5660 O   0  0  0  0  0  0  0  0  0  0  0  0
  1  6  1  1  0  0  0
  1  2  1  0  0  0  0
  2  7  1  1  0  0  0
  3  2  1  0  0  0  0
  4  8  1  0  0  0  0
  4  3  1  0  0  0  0
  5 10  1  6  0  0  0
  5  4  1  0  0  0  0
  5  1  1  0  0  0  0
  9  4  1  0  0  0  0
 11  1  1  0  0  0  0
 12 11  1  0  0  0  0
 13  2  1  0  0  0  0
 13 18  1  0  0  0  0
 14 15  1  0  0  0  0
 14 20  1  0  0  0  0
 15 21  1  0  0  0  0
 16 22  1  0  0  0  0
 16 15  2  0  0  0  0
 17 16  1  0  0  0  0
 18 17  2  0  0  0  0
 18 19  1  0  0  0  0
 19 14  2  0  0  0  0
 23 26  1  0  0  0  0
 23  5  1  0  0  0  0
 24 25  1  0  0  0  0
 25 30  2  0  0  0  0
 25 26  1  0  0  0  0
 26 27  2  0  0  0  0
 27 28  1  0  0  0  0
 27 31  1  0  0  0  0
 28 32  1  0  0  0  0
 29 33  1  0  0  0  0
 29 28  2  0  0  0  0
 30 29  1  0  0  0  0
 34 41  1  0  0  0  0
 34 30  1  0  0  0  0
 35 34  2  0  0  0  0
 36 35  1  0  0  0  0
 37 35  1  0  0  0  0
 37 39  2  0  0  0  0
 38 37  1  0  0  0  0
 39 40  1  0  0  0  0
 39 41  1  0  0  0  0
M  END
>  <minimizedAffinity>
-5.08981085

>  <minimizedRMSD>
0.243051082

$$$$
