
 OpenBabel03272510273D

 44 48  0  0  1  0  0  0  0  0999 V2000
   36.0830   30.1880   46.6460 C   0  0  0  0  0  0  0  0  0  0  0  0
   37.0250   30.6990   47.5060 C   0  0  0  0  0  0  0  0  0  0  0  0
   38.0610   31.5260   47.0380 C   0  0  0  0  0  0  0  0  0  0  0  0
   38.0700   31.7900   45.6670 C   0  0  0  0  0  0  0  0  0  0  0  0
   38.9560   32.5590   44.9670 N   0  0  0  0  0  0  0  0  0  0  0  0
   38.5640   32.5220   43.6870 C   0  0  0  0  0  0  0  0  0  0  0  0
   37.4870   31.7700   43.5790 N   0  0  0  0  0  0  0  0  0  0  0  0
   37.1430   31.2930   44.7870 C   0  0  0  0  0  0  0  0  0  0  0  0
   36.1290   30.4730   45.2970 C   0  0  0  0  0  0  0  0  0  0  0  0
   35.2870   29.5500   47.0160 H   0  0  0  0  0  0  0  0  0  0  0  0
   38.8200   31.9470   47.6900 H   0  0  0  0  0  0  0  0  0  0  0  0
   39.7660   33.0630   45.3710 H   0  0  0  0  0  0  0  0  0  0  0  0
   35.3990   30.0810   44.6030 H   0  0  0  0  0  0  0  0  0  0  0  0
   37.6020   30.3400   51.2090 C   0  0  0  0  0  0  0  0  0  0  0  0
   37.8510   30.7290   49.8930 C   0  0  0  0  0  0  0  0  0  0  0  0
   36.9490   30.3890   48.9210 C   0  0  0  0  0  0  0  0  0  0  0  0
   35.8400   29.6720   49.3210 N   0  0  0  0  0  0  0  0  0  0  0  0
   35.6070   29.3000   50.5910 C   0  0  0  0  0  0  0  0  0  0  0  0
   36.4830   29.6340   51.5190 N   0  0  0  0  0  0  0  0  0  0  0  0
   38.3260   30.6180   51.9620 H   0  0  0  0  0  0  0  0  0  0  0  0
   38.7100   31.2870   49.5660 H   0  0  0  0  0  0  0  0  0  0  0  0
   34.7120   28.7390   50.8250 H   0  0  0  0  0  0  0  0  0  0  0  0
   39.2450   33.2060   42.6780 O   0  0  0  0  0  0  0  0  0  0  0  0
   38.4180   31.6030   41.2440 N   0  0  0  0  0  0  0  0  0  0  0  0
   38.7380   33.0100   41.3630 C   0  0  1  0  0  0  0  0  0  0  0  0
   37.5590   33.8300   41.1360 C   0  0  0  0  0  0  0  0  0  0  0  0
   37.1170   33.6300   39.8170 O   0  0  0  0  0  0  0  0  0  0  0  0
   36.8870   32.3290   39.4700 C   0  0  0  0  0  0  0  0  0  0  0  0
   38.0240   31.4180   39.8580 C   0  0  1  0  0  0  0  0  0  0  0  0
   37.6650   31.2270   41.7900 H   0  0  0  0  0  0  0  0  0  0  0  0
   39.5100   33.2100   40.6010 H   0  0  0  0  0  0  0  0  0  0  0  0
   37.8900   34.9130   41.1370 H   0  0  0  0  0  0  0  0  0  0  0  0
   36.6650   33.7910   41.6990 H   0  0  0  0  0  0  0  0  0  0  0  0
   36.7590   32.2820   38.3890 H   0  0  0  0  0  0  0  0  0  0  0  0
   35.9680   31.9710   40.0090 H   0  0  0  0  0  0  0  0  0  0  0  0
   37.6840   30.3720   39.6640 H   0  0  0  0  0  0  0  0  0  0  0  0
   39.1980   31.7700   39.0170 C   0  0  0  0  0  0  0  0  0  0  0  0
   40.3360   30.9600   39.0820 C   0  0  0  0  0  0  0  0  0  0  0  0
   40.5260   30.0710   39.6700 H   0  0  0  0  0  0  0  0  0  0  0  0
   41.2870   31.4810   38.2190 C   0  0  0  0  0  0  0  0  0  0  0  0
   42.2760   31.0780   38.0460 H   0  0  0  0  0  0  0  0  0  0  0  0
   40.6700   32.5890   37.6720 C   0  0  0  0  0  0  0  0  0  0  0  0
   41.1650   33.2210   36.9480 H   0  0  0  0  0  0  0  0  0  0  0  0
   39.4470   32.7330   38.1580 O   0  0  0  0  0  0  0  0  0  0  0  0
  1 10  1  0  0  0  0
  1  2  1  0  0  0  0
  2 16  1  0  0  0  0
  3  2  2  0  0  0  0
  3 11  1  0  0  0  0
  4  3  1  0  0  0  0
  5 12  1  0  0  0  0
  5  4  1  0  0  0  0
  6  5  1  0  0  0  0
  7  6  2  0  0  0  0
  7  8  1  0  0  0  0
  8  9  1  0  0  0  0
  8  4  2  0  0  0  0
  9  1  2  0  0  0  0
 13  9  1  0  0  0  0
 14 19  1  0  0  0  0
 14 20  1  0  0  0  0
 15 14  2  0  0  0  0
 16 17  2  0  0  0  0
 16 15  1  0  0  0  0
 17 18  1  0  0  0  0
 18 22  1  0  0  0  0
 18 19  2  0  0  0  0
 21 15  1  0  0  0  0
 23  6  1  0  0  0  0
 24 25  1  0  0  0  0
 24 30  1  0  0  0  0
 25 31  1  6  0  0  0
 25 23  1  0  0  0  0
 26 32  1  0  0  0  0
 26 25  1  0  0  0  0
 26 33  1  0  0  0  0
 27 26  1  0  0  0  0
 28 27  1  0  0  0  0
 28 29  1  0  0  0  0
 28 35  1  0  0  0  0
 29 36  1  6  0  0  0
 29 24  1  0  0  0  0
 34 28  1  0  0  0  0
 37 38  2  0  0  0  0
 37 29  1  0  0  0  0
 38 39  1  0  0  0  0
 40 38  1  0  0  0  0
 41 40  1  0  0  0  0
 42 44  1  0  0  0  0
 42 40  2  0  0  0  0
 43 42  1  0  0  0  0
 44 37  1  0  0  0  0
M  END
>  <minimizedAffinity>
-5.34506416

>  <minimizedRMSD>
0.983893812

$$$$
