
 OpenBabel03262521423D

 42 46  0  0  0  0  0  0  0  0999 V2000
   38.7220   24.5050   35.6770 C   0  0  0  0  0  0  0  0  0  0  0  0
   37.6970   24.6340   36.5700 N   0  0  0  0  0  0  0  0  0  0  0  0
   37.7300   23.9560   37.7440 C   0  0  0  0  0  0  0  0  0  0  0  0
   38.7410   23.1480   38.0820 N   0  0  0  0  0  0  0  0  0  0  0  0
   39.7790   22.9840   37.2350 C   0  0  0  0  0  0  0  0  0  0  0  0
   40.8180   22.1770   37.5890 C   0  0  0  0  0  0  0  0  0  0  0  0
   41.8920   22.0090   36.7600 C   0  0  0  0  0  0  0  0  0  0  0  0
   41.9030   22.6740   35.5480 C   0  0  0  0  0  0  0  0  0  0  0  0
   40.8350   23.4930   35.1990 C   0  0  0  0  0  0  0  0  0  0  0  0
   39.7780   23.6640   36.0180 C   0  0  0  0  0  0  0  0  0  0  0  0
   36.8580   24.1640   38.3290 H   0  0  0  0  0  0  0  0  0  0  0  0
   40.7480   21.6930   38.5290 H   0  0  0  0  0  0  0  0  0  0  0  0
   42.6610   21.3510   37.1330 H   0  0  0  0  0  0  0  0  0  0  0  0
   42.8190   22.4300   35.0110 H   0  0  0  0  0  0  0  0  0  0  0  0
   41.0670   24.0790   33.8690 C   0  0  0  0  0  0  0  0  0  0  0  0
   40.9890   23.2870   32.7110 C   0  0  0  0  0  0  0  0  0  0  0  0
   40.7660   22.1970   32.5700 H   0  0  0  0  0  0  0  0  0  0  0  0
   41.2290   23.9210   31.5360 C   0  0  0  0  0  0  0  0  0  0  0  0
   41.2480   23.6070   30.5150 H   0  0  0  0  0  0  0  0  0  0  0  0
   41.4690   25.1740   31.9890 C   0  0  0  0  0  0  0  0  0  0  0  0
   41.7190   26.1070   31.4590 H   0  0  0  0  0  0  0  0  0  0  0  0
   41.3580   25.1470   33.2360 O   0  0  0  0  0  0  0  0  0  0  0  0
   38.8190   25.3730   34.1630 S   0  0  0  0  0  0  0  0  0  0  0  0
   38.0360   22.6470   33.4230 F   0  0  0  0  0  0  0  0  0  0  0  0
   37.2930   23.5720   32.7470 C   0  0  0  0  0  0  0  0  0  0  0  0
   36.3080   23.1980   31.8380 C   0  0  0  0  0  0  0  0  0  0  0  0
   35.5820   24.1830   31.1790 C   0  0  0  0  0  0  0  0  0  0  0  0
   35.8250   25.5330   31.4120 C   0  0  0  0  0  0  0  0  0  0  0  0
   36.8160   25.8410   32.3270 C   0  0  0  0  0  0  0  0  0  0  0  0
   37.5540   24.8950   32.9980 C   0  0  0  0  0  0  0  0  0  0  0  0
   34.8130   23.8820   30.4680 H   0  0  0  0  0  0  0  0  0  0  0  0
   35.2280   26.2420   30.8700 H   0  0  0  0  0  0  0  0  0  0  0  0
   36.9520   26.9020   32.4620 H   0  0  0  0  0  0  0  0  0  0  0  0
   35.0870   21.2450   32.3860 C   0  0  0  0  0  0  0  0  0  0  0  0
   36.1100   21.8010   31.6430 C   0  0  0  0  0  0  0  0  0  0  0  0
   36.8040   20.9370   30.8110 C   0  0  0  0  0  0  0  0  0  0  0  0
   36.4460   19.6270   30.7780 N   0  0  0  0  0  0  0  0  0  0  0  0
   35.4600   19.1390   31.5070 C   0  0  0  0  0  0  0  0  0  0  0  0
   34.7620   19.9300   32.3230 N   0  0  0  0  0  0  0  0  0  0  0  0
   34.4560   21.8040   33.0820 H   0  0  0  0  0  0  0  0  0  0  0  0
   37.5970   21.3950   30.2420 H   0  0  0  0  0  0  0  0  0  0  0  0
   35.3510   18.0690   31.3200 H   0  0  0  0  0  0  0  0  0  0  0  0
  1 10  2  0  0  0  0
  1  2  1  0  0  0  0
  2  3  2  0  0  0  0
  3  4  1  0  0  0  0
  3 11  1  0  0  0  0
  5  6  1  0  0  0  0
  5  4  2  0  0  0  0
  6 12  1  0  0  0  0
  7 13  1  0  0  0  0
  7  6  2  0  0  0  0
  8  7  1  0  0  0  0
  9  8  2  0  0  0  0
  9 10  1  0  0  0  0
 10  5  1  0  0  0  0
 14  8  1  0  0  0  0
 15  9  1  0  0  0  0
 16 15  2  0  0  0  0
 17 16  1  0  0  0  0
 18 20  2  0  0  0  0
 18 16  1  0  0  0  0
 19 18  1  0  0  0  0
 20 22  1  0  0  0  0
 21 20  1  0  0  0  0
 22 15  1  0  0  0  0
 23  1  1  0  0  0  0
 25 30  1  0  0  0  0
 25 24  1  0  0  0  0
 26 25  2  0  0  0  0
 27 28  2  0  0  0  0
 27 26  1  0  0  0  0
 28 29  1  0  0  0  0
 29 33  1  0  0  0  0
 29 30  2  0  0  0  0
 30 23  1  0  0  0  0
 31 27  1  0  0  0  0
 32 28  1  0  0  0  0
 34 40  1  0  0  0  0
 35 26  1  0  0  0  0
 35 34  2  0  0  0  0
 36 35  1  0  0  0  0
 37 36  2  0  0  0  0
 37 38  1  0  0  0  0
 38 39  2  0  0  0  0
 39 34  1  0  0  0  0
 41 36  1  0  0  0  0
 42 38  1  0  0  0  0
M  END
>  <minimizedAffinity>
-6.40933704

$$$$

 OpenBabel03262521423D

 42 46  0  0  0  0  0  0  0  0999 V2000
   36.7930   25.5390   32.0000 C   0  0  0  0  0  0  0  0  0  0  0  0
   35.8110   25.5570   31.0500 N   0  0  0  0  0  0  0  0  0  0  0  0
   35.1840   24.4070   30.7000 C   0  0  0  0  0  0  0  0  0  0  0  0
   35.4820   23.2260   31.2520 N   0  0  0  0  0  0  0  0  0  0  0  0
   36.4450   23.1520   32.1950 C   0  0  0  0  0  0  0  0  0  0  0  0
   36.7350   21.9520   32.7720 C   0  0  0  0  0  0  0  0  0  0  0  0
   37.6900   21.8510   33.7450 C   0  0  0  0  0  0  0  0  0  0  0  0
   38.3630   22.9950   34.1320 C   0  0  0  0  0  0  0  0  0  0  0  0
   38.0590   24.2120   33.5340 C   0  0  0  0  0  0  0  0  0  0  0  0
   37.1130   24.3140   32.5780 C   0  0  0  0  0  0  0  0  0  0  0  0
   34.4460   24.5890   29.9480 H   0  0  0  0  0  0  0  0  0  0  0  0
   36.1860   21.1130   32.4300 H   0  0  0  0  0  0  0  0  0  0  0  0
   37.8420   20.8580   34.1370 H   0  0  0  0  0  0  0  0  0  0  0  0
   39.0870   22.7430   34.9060 H   0  0  0  0  0  0  0  0  0  0  0  0
   38.9080   25.2740   34.0990 C   0  0  0  0  0  0  0  0  0  0  0  0
   38.5480   25.9240   35.2910 C   0  0  0  0  0  0  0  0  0  0  0  0
   37.6650   25.7940   35.9710 H   0  0  0  0  0  0  0  0  0  0  0  0
   39.3930   26.8940   35.7230 C   0  0  0  0  0  0  0  0  0  0  0  0
   39.3990   27.5510   36.5640 H   0  0  0  0  0  0  0  0  0  0  0  0
   40.3280   26.8420   34.7450 C   0  0  0  0  0  0  0  0  0  0  0  0
   41.2550   27.4190   34.5890 H   0  0  0  0  0  0  0  0  0  0  0  0
   39.9750   25.9530   33.9370 O   0  0  0  0  0  0  0  0  0  0  0  0
   37.6280   26.9630   32.5750 S   0  0  0  0  0  0  0  0  0  0  0  0
   36.4530   28.4500   34.8110 F   0  0  0  0  0  0  0  0  0  0  0  0
   36.1470   29.0370   33.6160 C   0  0  0  0  0  0  0  0  0  0  0  0
   35.3710   30.1910   33.5430 C   0  0  0  0  0  0  0  0  0  0  0  0
   35.0920   30.7440   32.3000 C   0  0  0  0  0  0  0  0  0  0  0  0
   35.5720   30.1640   31.1290 C   0  0  0  0  0  0  0  0  0  0  0  0
   36.3370   29.0200   31.2680 C   0  0  0  0  0  0  0  0  0  0  0  0
   36.6350   28.4430   32.4800 C   0  0  0  0  0  0  0  0  0  0  0  0
   34.4840   31.6470   32.2520 H   0  0  0  0  0  0  0  0  0  0  0  0
   35.3190   30.6430   30.2030 H   0  0  0  0  0  0  0  0  0  0  0  0
   36.6790   28.6230   30.3250 H   0  0  0  0  0  0  0  0  0  0  0  0
   33.5800   30.4880   35.0630 C   0  0  0  0  0  0  0  0  0  0  0  0
   34.9090   30.7330   34.7770 C   0  0  0  0  0  0  0  0  0  0  0  0
   35.6140   31.4670   35.7160 C   0  0  0  0  0  0  0  0  0  0  0  0
   34.9720   31.8920   36.8350 N   0  0  0  0  0  0  0  0  0  0  0  0
   33.6990   31.6340   37.0680 C   0  0  0  0  0  0  0  0  0  0  0  0
   32.9770   30.9300   36.1940 N   0  0  0  0  0  0  0  0  0  0  0  0
   32.9030   29.9240   34.4160 H   0  0  0  0  0  0  0  0  0  0  0  0
   36.6480   31.6460   35.4700 H   0  0  0  0  0  0  0  0  0  0  0  0
   33.3970   32.0700   38.0220 H   0  0  0  0  0  0  0  0  0  0  0  0
  1 23  1  0  0  0  0
  1 10  1  0  0  0  0
  2  1  2  0  0  0  0
  3  2  1  0  0  0  0
  3  4  2  0  0  0  0
  4  5  1  0  0  0  0
  5 10  2  0  0  0  0
  5  6  1  0  0  0  0
  6  7  2  0  0  0  0
  7  8  1  0  0  0  0
  7 13  1  0  0  0  0
  8 14  1  0  0  0  0
  9 15  1  0  0  0  0
  9  8  2  0  0  0  0
 10  9  1  0  0  0  0
 11  3  1  0  0  0  0
 12  6  1  0  0  0  0
 15 16  2  0  0  0  0
 16 18  1  0  0  0  0
 16 17  1  0  0  0  0
 18 19  1  0  0  0  0
 20 18  2  0  0  0  0
 21 20  1  0  0  0  0
 22 15  1  0  0  0  0
 22 20  1  0  0  0  0
 25 24  1  0  0  0  0
 26 25  1  0  0  0  0
 26 35  1  0  0  0  0
 27 26  2  0  0  0  0
 28 29  2  0  0  0  0
 28 27  1  0  0  0  0
 29 30  1  0  0  0  0
 30 23  1  0  0  0  0
 30 25  2  0  0  0  0
 31 27  1  0  0  0  0
 32 28  1  0  0  0  0
 33 29  1  0  0  0  0
 34 39  1  0  0  0  0
 35 34  2  0  0  0  0
 35 36  1  0  0  0  0
 36 37  2  0  0  0  0
 37 38  1  0  0  0  0
 38 42  1  0  0  0  0
 39 38  2  0  0  0  0
 40 34  1  0  0  0  0
 41 36  1  0  0  0  0
M  END
>  <minimizedAffinity>
-6.3955822

$$$$

 OpenBabel03262521423D

 42 46  0  0  0  0  0  0  0  0999 V2000
   38.8890   25.0020   35.6660 C   0  0  0  0  0  0  0  0  0  0  0  0
   37.6700   24.9410   36.2800 N   0  0  0  0  0  0  0  0  0  0  0  0
   37.4080   23.9530   37.1700 C   0  0  0  0  0  0  0  0  0  0  0  0
   38.3030   23.0110   37.4880 N   0  0  0  0  0  0  0  0  0  0  0  0
   39.5230   23.0250   36.9100 C   0  0  0  0  0  0  0  0  0  0  0  0
   40.4420   22.0790   37.2500 C   0  0  0  0  0  0  0  0  0  0  0  0
   41.6920   22.0810   36.6960 C   0  0  0  0  0  0  0  0  0  0  0  0
   42.0070   23.0650   35.7770 C   0  0  0  0  0  0  0  0  0  0  0  0
   41.0580   24.0230   35.4380 C   0  0  0  0  0  0  0  0  0  0  0  0
   39.8270   24.0250   35.9880 C   0  0  0  0  0  0  0  0  0  0  0  0
   36.4150   24.0440   37.5590 H   0  0  0  0  0  0  0  0  0  0  0  0
   40.1380   21.3510   37.9580 H   0  0  0  0  0  0  0  0  0  0  0  0
   42.3440   21.2900   37.0320 H   0  0  0  0  0  0  0  0  0  0  0  0
   43.0290   22.9220   35.4320 H   0  0  0  0  0  0  0  0  0  0  0  0
   41.6170   24.9500   34.4410 C   0  0  0  0  0  0  0  0  0  0  0  0
   42.6510   25.8370   34.7840 C   0  0  0  0  0  0  0  0  0  0  0  0
   43.1940   26.0070   35.7500 H   0  0  0  0  0  0  0  0  0  0  0  0
   43.0900   26.6560   33.7950 C   0  0  0  0  0  0  0  0  0  0  0  0
   43.8360   27.4170   33.7400 H   0  0  0  0  0  0  0  0  0  0  0  0
   42.2840   26.2540   32.7830 C   0  0  0  0  0  0  0  0  0  0  0  0
   42.2080   26.5860   31.7350 H   0  0  0  0  0  0  0  0  0  0  0  0
   41.5450   25.3500   33.2320 O   0  0  0  0  0  0  0  0  0  0  0  0
   39.3620   26.2610   34.5500 S   0  0  0  0  0  0  0  0  0  0  0  0
   37.5740   28.2850   35.6880 F   0  0  0  0  0  0  0  0  0  0  0  0
   37.2190   27.9810   34.4050 C   0  0  0  0  0  0  0  0  0  0  0  0
   36.1350   28.5930   33.7810 C   0  0  0  0  0  0  0  0  0  0  0  0
   35.8190   28.2450   32.4730 C   0  0  0  0  0  0  0  0  0  0  0  0
   36.5670   27.2970   31.7800 C   0  0  0  0  0  0  0  0  0  0  0  0
   37.6320   26.7260   32.4540 C   0  0  0  0  0  0  0  0  0  0  0  0
   37.9750   27.0450   33.7470 C   0  0  0  0  0  0  0  0  0  0  0  0
   34.9700   28.7270   31.9920 H   0  0  0  0  0  0  0  0  0  0  0  0
   36.2690   27.0750   30.7730 H   0  0  0  0  0  0  0  0  0  0  0  0
   38.1690   26.0020   31.8620 H   0  0  0  0  0  0  0  0  0  0  0  0
   34.0390   29.3840   34.5450 C   0  0  0  0  0  0  0  0  0  0  0  0
   35.4100   29.5520   34.5440 C   0  0  0  0  0  0  0  0  0  0  0  0
   35.8990   30.6200   35.2790 C   0  0  0  0  0  0  0  0  0  0  0  0
   35.0210   31.4190   35.9400 N   0  0  0  0  0  0  0  0  0  0  0  0
   33.7170   31.2220   35.9130 C   0  0  0  0  0  0  0  0  0  0  0  0
   33.1980   30.2060   35.2200 N   0  0  0  0  0  0  0  0  0  0  0  0
   33.5140   28.5880   34.0120 H   0  0  0  0  0  0  0  0  0  0  0  0
   36.9710   30.7300   35.2610 H   0  0  0  0  0  0  0  0  0  0  0  0
   33.2110   31.9810   36.5120 H   0  0  0  0  0  0  0  0  0  0  0  0
  1 10  2  0  0  0  0
  1  2  1  0  0  0  0
  2  3  2  0  0  0  0
  3  4  1  0  0  0  0
  3 11  1  0  0  0  0
  5  6  1  0  0  0  0
  5  4  2  0  0  0  0
  6 12  1  0  0  0  0
  7 13  1  0  0  0  0
  7  6  2  0  0  0  0
  8  7  1  0  0  0  0
  9  8  2  0  0  0  0
  9 10  1  0  0  0  0
 10  5  1  0  0  0  0
 14  8  1  0  0  0  0
 15 16  2  0  0  0  0
 15  9  1  0  0  0  0
 16 17  1  0  0  0  0
 18 16  1  0  0  0  0
 19 18  1  0  0  0  0
 20 22  1  0  0  0  0
 20 18  2  0  0  0  0
 21 20  1  0  0  0  0
 22 15  1  0  0  0  0
 23  1  1  0  0  0  0
 25 24  1  0  0  0  0
 26 25  1  0  0  0  0
 26 35  1  0  0  0  0
 27 26  2  0  0  0  0
 28 29  2  0  0  0  0
 28 27  1  0  0  0  0
 29 30  1  0  0  0  0
 30 25  2  0  0  0  0
 30 23  1  0  0  0  0
 31 27  1  0  0  0  0
 32 28  1  0  0  0  0
 33 29  1  0  0  0  0
 34 39  1  0  0  0  0
 35 34  2  0  0  0  0
 35 36  1  0  0  0  0
 36 37  2  0  0  0  0
 38 37  1  0  0  0  0
 38 42  1  0  0  0  0
 39 38  2  0  0  0  0
 40 34  1  0  0  0  0
 41 36  1  0  0  0  0
M  END
>  <minimizedAffinity>
-6.34515715

$$$$

 OpenBabel03262521423D

 42 46  0  0  0  0  0  0  0  0999 V2000
   40.2320   23.7010   35.1690 C   0  0  0  0  0  0  0  0  0  0  0  0
   41.2450   22.7850   35.1260 N   0  0  0  0  0  0  0  0  0  0  0  0
   41.5170   22.0220   36.2130 C   0  0  0  0  0  0  0  0  0  0  0  0
   40.8280   22.1210   37.3550 N   0  0  0  0  0  0  0  0  0  0  0  0
   39.8170   23.0110   37.4520 C   0  0  0  0  0  0  0  0  0  0  0  0
   39.1010   23.0970   38.6070 C   0  0  0  0  0  0  0  0  0  0  0  0
   38.0590   23.9740   38.7260 C   0  0  0  0  0  0  0  0  0  0  0  0
   37.7450   24.7790   37.6470 C   0  0  0  0  0  0  0  0  0  0  0  0
   38.4860   24.6820   36.4740 C   0  0  0  0  0  0  0  0  0  0  0  0
   39.5100   23.8140   36.3540 C   0  0  0  0  0  0  0  0  0  0  0  0
   42.3340   21.3590   36.0190 H   0  0  0  0  0  0  0  0  0  0  0  0
   39.3930   22.4550   39.3990 H   0  0  0  0  0  0  0  0  0  0  0  0
   37.5570   23.9630   39.6810 H   0  0  0  0  0  0  0  0  0  0  0  0
   36.9020   25.4170   37.9060 H   0  0  0  0  0  0  0  0  0  0  0  0
   37.9750   25.6390   35.4790 C   0  0  0  0  0  0  0  0  0  0  0  0
   38.1800   27.0200   35.6390 C   0  0  0  0  0  0  0  0  0  0  0  0
   38.7000   27.6050   36.4410 H   0  0  0  0  0  0  0  0  0  0  0  0
   37.6620   27.8170   34.6720 C   0  0  0  0  0  0  0  0  0  0  0  0
   37.6460   28.8730   34.5110 H   0  0  0  0  0  0  0  0  0  0  0  0
   37.1050   26.8800   33.8680 C   0  0  0  0  0  0  0  0  0  0  0  0
   36.5460   26.9680   32.9220 H   0  0  0  0  0  0  0  0  0  0  0  0
   37.3290   25.7630   34.3870 O   0  0  0  0  0  0  0  0  0  0  0  0
   39.7500   24.6940   33.8140 S   0  0  0  0  0  0  0  0  0  0  0  0
   37.6730   22.6250   33.8060 F   0  0  0  0  0  0  0  0  0  0  0  0
   38.1980   22.8010   32.5570 C   0  0  0  0  0  0  0  0  0  0  0  0
   37.7560   22.0570   31.4660 C   0  0  0  0  0  0  0  0  0  0  0  0
   38.3260   22.2770   30.2180 C   0  0  0  0  0  0  0  0  0  0  0  0
   39.3290   23.2260   30.0420 C   0  0  0  0  0  0  0  0  0  0  0  0
   39.7240   23.9330   31.1640 C   0  0  0  0  0  0  0  0  0  0  0  0
   39.1840   23.7430   32.4140 C   0  0  0  0  0  0  0  0  0  0  0  0
   37.9760   21.6910   29.3700 H   0  0  0  0  0  0  0  0  0  0  0  0
   39.7260   23.3460   29.0520 H   0  0  0  0  0  0  0  0  0  0  0  0
   40.5020   24.6520   30.9600 H   0  0  0  0  0  0  0  0  0  0  0  0
   37.1730   19.8200   31.9760 C   0  0  0  0  0  0  0  0  0  0  0  0
   36.7290   21.1010   31.7130 C   0  0  0  0  0  0  0  0  0  0  0  0
   35.3570   21.2900   31.7220 C   0  0  0  0  0  0  0  0  0  0  0  0
   34.5500   20.2290   31.9840 N   0  0  0  0  0  0  0  0  0  0  0  0
   35.0170   19.0210   32.2310 C   0  0  0  0  0  0  0  0  0  0  0  0
   36.3310   18.7880   32.2330 N   0  0  0  0  0  0  0  0  0  0  0  0
   38.2250   19.5240   32.0020 H   0  0  0  0  0  0  0  0  0  0  0  0
   35.0360   22.2980   31.5130 H   0  0  0  0  0  0  0  0  0  0  0  0
   34.1920   18.3300   32.4120 H   0  0  0  0  0  0  0  0  0  0  0  0
  1 10  1  0  0  0  0
  2  1  2  0  0  0  0
  2  3  1  0  0  0  0
  3  4  2  0  0  0  0
  4  5  1  0  0  0  0
  5  6  1  0  0  0  0
  6  7  2  0  0  0  0
  6 12  1  0  0  0  0
  7 13  1  0  0  0  0
  8 14  1  0  0  0  0
  8  7  1  0  0  0  0
  9  8  2  0  0  0  0
 10  9  1  0  0  0  0
 10  5  2  0  0  0  0
 11  3  1  0  0  0  0
 15 16  2  0  0  0  0
 15  9  1  0  0  0  0
 16 17  1  0  0  0  0
 18 16  1  0  0  0  0
 19 18  1  0  0  0  0
 20 22  1  0  0  0  0
 20 18  2  0  0  0  0
 21 20  1  0  0  0  0
 22 15  1  0  0  0  0
 23  1  1  0  0  0  0
 25 24  1  0  0  0  0
 26 35  1  0  0  0  0
 26 25  2  0  0  0  0
 27 26  1  0  0  0  0
 28 27  2  0  0  0  0
 28 29  1  0  0  0  0
 29 30  2  0  0  0  0
 30 25  1  0  0  0  0
 30 23  1  0  0  0  0
 31 27  1  0  0  0  0
 32 28  1  0  0  0  0
 33 29  1  0  0  0  0
 34 40  1  0  0  0  0
 34 39  1  0  0  0  0
 35 36  1  0  0  0  0
 35 34  2  0  0  0  0
 36 37  2  0  0  0  0
 37 38  1  0  0  0  0
 38 39  2  0  0  0  0
 38 42  1  0  0  0  0
 41 36  1  0  0  0  0
M  END
>  <minimizedAffinity>
-6.32098627

$$$$

 OpenBabel03262521423D

 42 46  0  0  0  0  0  0  0  0999 V2000
   40.8420   24.3700   34.8770 C   0  0  0  0  0  0  0  0  0  0  0  0
   41.5900   24.9790   33.9090 N   0  0  0  0  0  0  0  0  0  0  0  0
   42.8530   24.5540   33.6600 C   0  0  0  0  0  0  0  0  0  0  0  0
   43.4200   23.5430   34.3280 N   0  0  0  0  0  0  0  0  0  0  0  0
   42.7240   22.9070   35.2940 C   0  0  0  0  0  0  0  0  0  0  0  0
   43.2940   21.8640   35.9600 C   0  0  0  0  0  0  0  0  0  0  0  0
   42.6060   21.1880   36.9290 C   0  0  0  0  0  0  0  0  0  0  0  0
   41.3160   21.5870   37.2250 C   0  0  0  0  0  0  0  0  0  0  0  0
   40.7480   22.6550   36.5390 C   0  0  0  0  0  0  0  0  0  0  0  0
   41.4230   23.3190   35.5800 C   0  0  0  0  0  0  0  0  0  0  0  0
   43.3020   25.1310   32.8780 H   0  0  0  0  0  0  0  0  0  0  0  0
   44.2860   21.6090   35.6890 H   0  0  0  0  0  0  0  0  0  0  0  0
   43.1460   20.3780   37.3950 H   0  0  0  0  0  0  0  0  0  0  0  0
   40.9150   20.9540   38.0150 H   0  0  0  0  0  0  0  0  0  0  0  0
   39.3830   22.8980   37.0330 C   0  0  0  0  0  0  0  0  0  0  0  0
   39.1680   23.4670   38.3000 C   0  0  0  0  0  0  0  0  0  0  0  0
   39.8840   23.8080   39.0920 H   0  0  0  0  0  0  0  0  0  0  0  0
   37.8730   23.6410   38.6650 C   0  0  0  0  0  0  0  0  0  0  0  0
   37.3950   24.0320   39.5360 H   0  0  0  0  0  0  0  0  0  0  0  0
   37.2510   23.1540   37.5650 C   0  0  0  0  0  0  0  0  0  0  0  0
   36.1820   23.0520   37.3150 H   0  0  0  0  0  0  0  0  0  0  0  0
   38.1410   22.7880   36.7650 O   0  0  0  0  0  0  0  0  0  0  0  0
   39.1860   24.7890   35.2450 S   0  0  0  0  0  0  0  0  0  0  0  0
   38.4510   22.3410   33.8100 F   0  0  0  0  0  0  0  0  0  0  0  0
   37.8430   23.4340   33.2610 C   0  0  0  0  0  0  0  0  0  0  0  0
   36.9970   23.3260   32.1610 C   0  0  0  0  0  0  0  0  0  0  0  0
   36.4050   24.4720   31.6440 C   0  0  0  0  0  0  0  0  0  0  0  0
   36.6460   25.7230   32.2060 C   0  0  0  0  0  0  0  0  0  0  0  0
   37.4950   25.7640   33.2970 C   0  0  0  0  0  0  0  0  0  0  0  0
   38.0990   24.6530   33.8370 C   0  0  0  0  0  0  0  0  0  0  0  0
   35.7440   24.3800   30.7830 H   0  0  0  0  0  0  0  0  0  0  0  0
   36.1570   26.5670   31.7580 H   0  0  0  0  0  0  0  0  0  0  0  0
   37.6380   26.7610   33.6850 H   0  0  0  0  0  0  0  0  0  0  0  0
   35.6290   21.3970   32.0400 C   0  0  0  0  0  0  0  0  0  0  0  0
   36.7930   22.0190   31.6320 C   0  0  0  0  0  0  0  0  0  0  0  0
   37.6030   21.3010   30.7690 C   0  0  0  0  0  0  0  0  0  0  0  0
   37.2150   20.0570   30.3850 N   0  0  0  0  0  0  0  0  0  0  0  0
   36.0930   19.5000   30.8010 C   0  0  0  0  0  0  0  0  0  0  0  0
   35.2790   20.1520   31.6320 N   0  0  0  0  0  0  0  0  0  0  0  0
   34.8960   21.8420   32.7180 H   0  0  0  0  0  0  0  0  0  0  0  0
   38.5050   21.8070   30.4650 H   0  0  0  0  0  0  0  0  0  0  0  0
   35.9860   18.5050   30.3670 H   0  0  0  0  0  0  0  0  0  0  0  0
  1 23  1  0  0  0  0
  1 10  1  0  0  0  0
  2  1  2  0  0  0  0
  3  2  1  0  0  0  0
  3  4  2  0  0  0  0
  4  5  1  0  0  0  0
  5 10  2  0  0  0  0
  5  6  1  0  0  0  0
  6  7  2  0  0  0  0
  7  8  1  0  0  0  0
  7 13  1  0  0  0  0
  8 14  1  0  0  0  0
  9 15  1  0  0  0  0
  9  8  2  0  0  0  0
 10  9  1  0  0  0  0
 11  3  1  0  0  0  0
 12  6  1  0  0  0  0
 15 16  2  0  0  0  0
 16 18  1  0  0  0  0
 16 17  1  0  0  0  0
 18 19  1  0  0  0  0
 20 18  2  0  0  0  0
 21 20  1  0  0  0  0
 22 15  1  0  0  0  0
 22 20  1  0  0  0  0
 25 24  1  0  0  0  0
 25 30  1  0  0  0  0
 26 25  2  0  0  0  0
 27 26  1  0  0  0  0
 27 28  2  0  0  0  0
 28 29  1  0  0  0  0
 29 33  1  0  0  0  0
 29 30  2  0  0  0  0
 30 23  1  0  0  0  0
 31 27  1  0  0  0  0
 32 28  1  0  0  0  0
 34 40  1  0  0  0  0
 35 34  1  0  0  0  0
 35 26  1  0  0  0  0
 36 35  2  0  0  0  0
 37 36  1  0  0  0  0
 37 38  2  0  0  0  0
 38 39  1  0  0  0  0
 39 34  2  0  0  0  0
 41 36  1  0  0  0  0
 42 38  1  0  0  0  0
M  END
>  <minimizedAffinity>
-6.26938009

$$$$

 OpenBabel03262521423D

 42 46  0  0  0  0  0  0  0  0999 V2000
   37.5700   27.5190   31.5660 C   0  0  0  0  0  0  0  0  0  0  0  0
   37.7190   27.7120   30.2220 N   0  0  0  0  0  0  0  0  0  0  0  0
   37.0930   28.7490   29.6120 C   0  0  0  0  0  0  0  0  0  0  0  0
   36.3190   29.6150   30.2750 N   0  0  0  0  0  0  0  0  0  0  0  0
   36.1380   29.4700   31.6040 C   0  0  0  0  0  0  0  0  0  0  0  0
   35.3660   30.3640   32.2830 C   0  0  0  0  0  0  0  0  0  0  0  0
   35.1820   30.2540   33.6330 C   0  0  0  0  0  0  0  0  0  0  0  0
   35.7950   29.2100   34.3010 C   0  0  0  0  0  0  0  0  0  0  0  0
   36.5780   28.3030   33.5960 C   0  0  0  0  0  0  0  0  0  0  0  0
   36.7640   28.4140   32.2650 C   0  0  0  0  0  0  0  0  0  0  0  0
   37.3090   28.7610   28.5640 H   0  0  0  0  0  0  0  0  0  0  0  0
   34.9220   31.1400   31.7130 H   0  0  0  0  0  0  0  0  0  0  0  0
   34.5550   31.0130   34.0740 H   0  0  0  0  0  0  0  0  0  0  0  0
   35.5450   29.2630   35.3590 H   0  0  0  0  0  0  0  0  0  0  0  0
   37.1100   27.2820   34.5130 C   0  0  0  0  0  0  0  0  0  0  0  0
   38.0580   27.6210   35.4930 C   0  0  0  0  0  0  0  0  0  0  0  0
   38.5430   28.5980   35.7510 H   0  0  0  0  0  0  0  0  0  0  0  0
   38.4920   26.6060   36.2820 C   0  0  0  0  0  0  0  0  0  0  0  0
   39.1870   26.5400   37.0890 H   0  0  0  0  0  0  0  0  0  0  0  0
   37.7740   25.5820   35.7620 C   0  0  0  0  0  0  0  0  0  0  0  0
   37.7310   24.5120   36.0260 H   0  0  0  0  0  0  0  0  0  0  0  0
   37.0770   26.0480   34.8330 O   0  0  0  0  0  0  0  0  0  0  0  0
   38.3740   26.2580   32.4710 S   0  0  0  0  0  0  0  0  0  0  0  0
   36.6760   23.8920   32.8090 F   0  0  0  0  0  0  0  0  0  0  0  0
   37.6190   23.6870   31.8430 C   0  0  0  0  0  0  0  0  0  0  0  0
   37.7050   22.4830   31.1480 C   0  0  0  0  0  0  0  0  0  0  0  0
   38.6850   22.3300   30.1740 C   0  0  0  0  0  0  0  0  0  0  0  0
   39.5790   23.3570   29.8840 C   0  0  0  0  0  0  0  0  0  0  0  0
   39.4410   24.5280   30.6080 C   0  0  0  0  0  0  0  0  0  0  0  0
   38.4850   24.7170   31.5780 C   0  0  0  0  0  0  0  0  0  0  0  0
   38.7460   21.3850   29.6360 H   0  0  0  0  0  0  0  0  0  0  0  0
   40.3110   23.1720   29.1210 H   0  0  0  0  0  0  0  0  0  0  0  0
   40.1620   25.2820   30.3340 H   0  0  0  0  0  0  0  0  0  0  0  0
   37.3130   20.2900   31.9480 C   0  0  0  0  0  0  0  0  0  0  0  0
   36.7630   21.4720   31.4930 C   0  0  0  0  0  0  0  0  0  0  0  0
   35.3800   21.5230   31.4320 C   0  0  0  0  0  0  0  0  0  0  0  0
   34.6660   20.4330   31.8140 N   0  0  0  0  0  0  0  0  0  0  0  0
   35.2340   19.3220   32.2430 C   0  0  0  0  0  0  0  0  0  0  0  0
   36.5620   19.2240   32.3210 N   0  0  0  0  0  0  0  0  0  0  0  0
   38.3860   20.1070   32.0500 H   0  0  0  0  0  0  0  0  0  0  0  0
   34.9760   22.4550   31.0730 H   0  0  0  0  0  0  0  0  0  0  0  0
   34.4700   18.5830   32.4930 H   0  0  0  0  0  0  0  0  0  0  0  0
  1 10  1  0  0  0  0
  1 23  1  0  0  0  0
  2  1  2  0  0  0  0
  3  2  1  0  0  0  0
  3  4  2  0  0  0  0
  4  5  1  0  0  0  0
  5 10  2  0  0  0  0
  5  6  1  0  0  0  0
  6  7  2  0  0  0  0
  7 13  1  0  0  0  0
  7  8  1  0  0  0  0
  8 14  1  0  0  0  0
  9  8  2  0  0  0  0
  9 15  1  0  0  0  0
 10  9  1  0  0  0  0
 11  3  1  0  0  0  0
 12  6  1  0  0  0  0
 15 22  1  0  0  0  0
 15 16  2  0  0  0  0
 16 17  1  0  0  0  0
 16 18  1  0  0  0  0
 18 19  1  0  0  0  0
 20 21  1  0  0  0  0
 20 18  2  0  0  0  0
 22 20  1  0  0  0  0
 25 24  1  0  0  0  0
 26 35  1  0  0  0  0
 26 25  2  0  0  0  0
 27 26  1  0  0  0  0
 28 27  2  0  0  0  0
 28 29  1  0  0  0  0
 29 30  2  0  0  0  0
 30 25  1  0  0  0  0
 30 23  1  0  0  0  0
 31 27  1  0  0  0  0
 32 28  1  0  0  0  0
 33 29  1  0  0  0  0
 34 40  1  0  0  0  0
 34 39  1  0  0  0  0
 35 34  2  0  0  0  0
 36 35  1  0  0  0  0
 36 37  2  0  0  0  0
 37 38  1  0  0  0  0
 38 39  2  0  0  0  0
 38 42  1  0  0  0  0
 41 36  1  0  0  0  0
M  END
>  <minimizedAffinity>
-6.26233625

$$$$

 OpenBabel03262521423D

 42 46  0  0  0  0  0  0  0  0999 V2000
   40.9050   24.6980   35.0460 C   0  0  0  0  0  0  0  0  0  0  0  0
   41.6810   25.4530   34.2130 N   0  0  0  0  0  0  0  0  0  0  0  0
   42.9770   25.1150   34.0020 C   0  0  0  0  0  0  0  0  0  0  0  0
   43.5490   24.0530   34.5790 N   0  0  0  0  0  0  0  0  0  0  0  0
   42.8270   23.2730   35.4120 C   0  0  0  0  0  0  0  0  0  0  0  0
   43.4030   22.1790   35.9840 C   0  0  0  0  0  0  0  0  0  0  0  0
   42.6900   21.3610   36.8140 C   0  0  0  0  0  0  0  0  0  0  0  0
   41.3660   21.6670   37.0670 C   0  0  0  0  0  0  0  0  0  0  0  0
   40.7900   22.7870   36.4780 C   0  0  0  0  0  0  0  0  0  0  0  0
   41.4910   23.5920   35.6550 C   0  0  0  0  0  0  0  0  0  0  0  0
   43.4450   25.8020   33.3290 H   0  0  0  0  0  0  0  0  0  0  0  0
   44.4220   22.0010   35.7520 H   0  0  0  0  0  0  0  0  0  0  0  0
   43.2390   20.5230   37.2140 H   0  0  0  0  0  0  0  0  0  0  0  0
   40.9470   20.9240   37.7450 H   0  0  0  0  0  0  0  0  0  0  0  0
   39.3870   22.9100   36.9030 C   0  0  0  0  0  0  0  0  0  0  0  0
   39.0630   23.3530   38.1970 C   0  0  0  0  0  0  0  0  0  0  0  0
   39.7100   23.6610   39.0590 H   0  0  0  0  0  0  0  0  0  0  0  0
   37.7410   23.4230   38.4920 C   0  0  0  0  0  0  0  0  0  0  0  0
   37.1900   23.7090   39.3610 H   0  0  0  0  0  0  0  0  0  0  0  0
   37.2150   23.0010   37.3180 C   0  0  0  0  0  0  0  0  0  0  0  0
   36.1710   22.8640   36.9920 H   0  0  0  0  0  0  0  0  0  0  0  0
   38.1720   22.7570   36.5480 O   0  0  0  0  0  0  0  0  0  0  0  0
   39.2100   25.0000   35.3480 S   0  0  0  0  0  0  0  0  0  0  0  0
   38.2410   27.3810   33.9390 F   0  0  0  0  0  0  0  0  0  0  0  0
   37.8440   26.2380   33.3040 C   0  0  0  0  0  0  0  0  0  0  0  0
   37.0780   26.2740   32.1420 C   0  0  0  0  0  0  0  0  0  0  0  0
   36.7020   25.0810   31.5390 C   0  0  0  0  0  0  0  0  0  0  0  0
   37.0780   23.8530   32.0770 C   0  0  0  0  0  0  0  0  0  0  0  0
   37.8390   23.8840   33.2320 C   0  0  0  0  0  0  0  0  0  0  0  0
   38.2300   25.0440   33.8570 C   0  0  0  0  0  0  0  0  0  0  0  0
   36.1030   25.1170   30.6300 H   0  0  0  0  0  0  0  0  0  0  0  0
   36.7540   22.9690   31.5610 H   0  0  0  0  0  0  0  0  0  0  0  0
   38.0960   22.9010   33.5950 H   0  0  0  0  0  0  0  0  0  0  0  0
   37.5640   28.0600   30.6660 C   0  0  0  0  0  0  0  0  0  0  0  0
   36.7250   27.5620   31.6440 C   0  0  0  0  0  0  0  0  0  0  0  0
   35.6610   28.3680   32.0100 C   0  0  0  0  0  0  0  0  0  0  0  0
   35.5080   29.5720   31.4000 N   0  0  0  0  0  0  0  0  0  0  0  0
   36.3350   30.0100   30.4690 C   0  0  0  0  0  0  0  0  0  0  0  0
   37.3750   29.2690   30.0820 N   0  0  0  0  0  0  0  0  0  0  0  0
   38.4410   27.5360   30.2780 H   0  0  0  0  0  0  0  0  0  0  0  0
   35.0220   27.9570   32.7750 H   0  0  0  0  0  0  0  0  0  0  0  0
   36.0200   30.9960   30.1230 H   0  0  0  0  0  0  0  0  0  0  0  0
  1 23  1  0  0  0  0
  1 10  1  0  0  0  0
  2  1  2  0  0  0  0
  3  2  1  0  0  0  0
  3  4  2  0  0  0  0
  4  5  1  0  0  0  0
  5 10  2  0  0  0  0
  5  6  1  0  0  0  0
  6  7  2  0  0  0  0
  7  8  1  0  0  0  0
  7 13  1  0  0  0  0
  8 14  1  0  0  0  0
  9 15  1  0  0  0  0
  9  8  2  0  0  0  0
 10  9  1  0  0  0  0
 11  3  1  0  0  0  0
 12  6  1  0  0  0  0
 15 16  2  0  0  0  0
 16 18  1  0  0  0  0
 16 17  1  0  0  0  0
 18 19  1  0  0  0  0
 20 18  2  0  0  0  0
 21 20  1  0  0  0  0
 22 15  1  0  0  0  0
 22 20  1  0  0  0  0
 25 30  1  0  0  0  0
 25 24  1  0  0  0  0
 26 25  2  0  0  0  0
 27 28  2  0  0  0  0
 27 26  1  0  0  0  0
 28 29  1  0  0  0  0
 29 33  1  0  0  0  0
 29 30  2  0  0  0  0
 30 23  1  0  0  0  0
 31 27  1  0  0  0  0
 32 28  1  0  0  0  0
 34 35  1  0  0  0  0
 35 36  2  0  0  0  0
 35 26  1  0  0  0  0
 36 41  1  0  0  0  0
 37 36  1  0  0  0  0
 38 37  2  0  0  0  0
 39 38  1  0  0  0  0
 39 34  2  0  0  0  0
 40 34  1  0  0  0  0
 42 38  1  0  0  0  0
M  END
>  <minimizedAffinity>
-6.24254322

$$$$

 OpenBabel03262521423D

 42 46  0  0  0  0  0  0  0  0999 V2000
   35.2620   32.0570   33.7490 C   0  0  0  0  0  0  0  0  0  0  0  0
   36.3860   32.8000   33.5230 N   0  0  0  0  0  0  0  0  0  0  0  0
   36.8460   33.6420   34.4810 C   0  0  0  0  0  0  0  0  0  0  0  0
   36.2430   33.7860   35.6660 N   0  0  0  0  0  0  0  0  0  0  0  0
   35.1280   33.0750   35.9400 C   0  0  0  0  0  0  0  0  0  0  0  0
   34.5260   33.2060   37.1550 C   0  0  0  0  0  0  0  0  0  0  0  0
   33.4080   32.4830   37.4680 C   0  0  0  0  0  0  0  0  0  0  0  0
   32.8960   31.6140   36.5220 C   0  0  0  0  0  0  0  0  0  0  0  0
   33.5200   31.4930   35.2860 C   0  0  0  0  0  0  0  0  0  0  0  0
   34.6250   32.2010   34.9780 C   0  0  0  0  0  0  0  0  0  0  0  0
   37.7290   34.1490   34.1510 H   0  0  0  0  0  0  0  0  0  0  0  0
   34.9650   33.8900   37.8350 H   0  0  0  0  0  0  0  0  0  0  0  0
   33.0090   32.6590   38.4540 H   0  0  0  0  0  0  0  0  0  0  0  0
   32.0110   31.1240   36.9240 H   0  0  0  0  0  0  0  0  0  0  0  0
   32.7910   30.5250   34.4500 C   0  0  0  0  0  0  0  0  0  0  0  0
   31.5870   30.8820   33.8200 C   0  0  0  0  0  0  0  0  0  0  0  0
   31.0070   31.8410   33.8170 H   0  0  0  0  0  0  0  0  0  0  0  0
   30.9890   29.9150   33.0800 C   0  0  0  0  0  0  0  0  0  0  0  0
   30.0940   29.8730   32.4990 H   0  0  0  0  0  0  0  0  0  0  0  0
   31.8700   28.9020   33.2610 C   0  0  0  0  0  0  0  0  0  0  0  0
   31.8820   27.8680   32.8810 H   0  0  0  0  0  0  0  0  0  0  0  0
   32.7840   29.3310   34.0010 O   0  0  0  0  0  0  0  0  0  0  0  0
   34.6110   30.8960   32.6160 S   0  0  0  0  0  0  0  0  0  0  0  0
   35.8280   29.0070   34.5000 F   0  0  0  0  0  0  0  0  0  0  0  0
   36.2440   28.7640   33.2220 C   0  0  0  0  0  0  0  0  0  0  0  0
   37.1330   27.7350   32.9250 C   0  0  0  0  0  0  0  0  0  0  0  0
   37.5220   27.5330   31.6060 C   0  0  0  0  0  0  0  0  0  0  0  0
   37.0390   28.3410   30.5810 C   0  0  0  0  0  0  0  0  0  0  0  0
   36.1580   29.3460   30.9410 C   0  0  0  0  0  0  0  0  0  0  0  0
   35.7500   29.5760   32.2330 C   0  0  0  0  0  0  0  0  0  0  0  0
   38.2190   26.7260   31.3820 H   0  0  0  0  0  0  0  0  0  0  0  0
   37.3800   28.1310   29.5860 H   0  0  0  0  0  0  0  0  0  0  0  0
   35.8210   29.9330   30.1010 H   0  0  0  0  0  0  0  0  0  0  0  0
   37.5790   25.5820   33.8010 C   0  0  0  0  0  0  0  0  0  0  0  0
   37.5920   26.9460   34.0180 C   0  0  0  0  0  0  0  0  0  0  0  0
   38.0450   27.3660   35.2580 C   0  0  0  0  0  0  0  0  0  0  0  0
   38.4400   26.4340   36.1640 N   0  0  0  0  0  0  0  0  0  0  0  0
   38.4110   25.1390   35.9140 C   0  0  0  0  0  0  0  0  0  0  0  0
   37.9830   24.6840   34.7350 N   0  0  0  0  0  0  0  0  0  0  0  0
   37.2490   25.1070   32.8740 H   0  0  0  0  0  0  0  0  0  0  0  0
   38.0450   28.4340   35.4030 H   0  0  0  0  0  0  0  0  0  0  0  0
   38.7710   24.5820   36.7800 H   0  0  0  0  0  0  0  0  0  0  0  0
  1 10  1  0  0  0  0
  2  1  2  0  0  0  0
  2  3  1  0  0  0  0
  3  4  2  0  0  0  0
  4  5  1  0  0  0  0
  5  6  1  0  0  0  0
  6  7  2  0  0  0  0
  6 12  1  0  0  0  0
  7 13  1  0  0  0  0
  8 14  1  0  0  0  0
  8  7  1  0  0  0  0
  9  8  2  0  0  0  0
 10  9  1  0  0  0  0
 10  5  2  0  0  0  0
 11  3  1  0  0  0  0
 15  9  1  0  0  0  0
 16 15  2  0  0  0  0
 17 16  1  0  0  0  0
 18 20  2  0  0  0  0
 18 16  1  0  0  0  0
 19 18  1  0  0  0  0
 20 22  1  0  0  0  0
 21 20  1  0  0  0  0
 22 15  1  0  0  0  0
 23  1  1  0  0  0  0
 25 24  1  0  0  0  0
 26 25  1  0  0  0  0
 26 35  1  0  0  0  0
 27 26  2  0  0  0  0
 28 29  2  0  0  0  0
 28 27  1  0  0  0  0
 29 30  1  0  0  0  0
 30 23  1  0  0  0  0
 30 25  2  0  0  0  0
 31 27  1  0  0  0  0
 32 28  1  0  0  0  0
 33 29  1  0  0  0  0
 34 35  2  0  0  0  0
 34 39  1  0  0  0  0
 35 36  1  0  0  0  0
 36 41  1  0  0  0  0
 36 37  2  0  0  0  0
 38 37  1  0  0  0  0
 38 42  1  0  0  0  0
 39 38  2  0  0  0  0
 40 34  1  0  0  0  0
M  END
>  <minimizedAffinity>
-6.20803404

$$$$

 OpenBabel03262521423D

 42 46  0  0  0  0  0  0  0  0999 V2000
   39.1120   27.2580   31.9600 C   0  0  0  0  0  0  0  0  0  0  0  0
   38.9560   27.6880   30.6730 N   0  0  0  0  0  0  0  0  0  0  0  0
   40.0400   28.0470   29.9420 C   0  0  0  0  0  0  0  0  0  0  0  0
   41.2860   28.0000   30.4270 N   0  0  0  0  0  0  0  0  0  0  0  0
   41.4950   27.5830   31.6940 C   0  0  0  0  0  0  0  0  0  0  0  0
   42.7660   27.5140   32.1810 C   0  0  0  0  0  0  0  0  0  0  0  0
   43.0090   27.0760   33.4530 C   0  0  0  0  0  0  0  0  0  0  0  0
   41.9360   26.7040   34.2410 C   0  0  0  0  0  0  0  0  0  0  0  0
   40.6450   26.7800   33.7310 C   0  0  0  0  0  0  0  0  0  0  0  0
   40.4040   27.2080   32.4760 C   0  0  0  0  0  0  0  0  0  0  0  0
   39.7510   28.3600   28.9600 H   0  0  0  0  0  0  0  0  0  0  0  0
   43.5440   27.8170   31.5280 H   0  0  0  0  0  0  0  0  0  0  0  0
   44.0480   27.0590   33.7410 H   0  0  0  0  0  0  0  0  0  0  0  0
   42.2990   26.3860   35.2170 H   0  0  0  0  0  0  0  0  0  0  0  0
   39.6780   26.3450   34.7520 C   0  0  0  0  0  0  0  0  0  0  0  0
   39.1120   27.2700   35.6470 C   0  0  0  0  0  0  0  0  0  0  0  0
   39.2550   28.3760   35.7600 H   0  0  0  0  0  0  0  0  0  0  0  0
   38.2390   26.7660   36.5550 C   0  0  0  0  0  0  0  0  0  0  0  0
   37.6620   27.1940   37.3450 H   0  0  0  0  0  0  0  0  0  0  0  0
   38.2640   25.4580   36.2040 C   0  0  0  0  0  0  0  0  0  0  0  0
   37.7340   24.5820   36.6130 H   0  0  0  0  0  0  0  0  0  0  0  0
   39.0560   25.3450   35.2410 O   0  0  0  0  0  0  0  0  0  0  0  0
   37.7990   26.7120   32.9770 S   0  0  0  0  0  0  0  0  0  0  0  0
   37.7880   23.7830   33.1030 F   0  0  0  0  0  0  0  0  0  0  0  0
   36.7910   24.2440   32.2910 C   0  0  0  0  0  0  0  0  0  0  0  0
   35.9190   23.3780   31.6370 C   0  0  0  0  0  0  0  0  0  0  0  0
   34.9230   23.9030   30.8230 C   0  0  0  0  0  0  0  0  0  0  0  0
   34.7850   25.2770   30.6500 C   0  0  0  0  0  0  0  0  0  0  0  0
   35.6810   26.0850   31.3260 C   0  0  0  0  0  0  0  0  0  0  0  0
   36.6790   25.6030   32.1400 C   0  0  0  0  0  0  0  0  0  0  0  0
   34.2450   23.2190   30.3150 H   0  0  0  0  0  0  0  0  0  0  0  0
   33.9950   25.6160   30.0070 H   0  0  0  0  0  0  0  0  0  0  0  0
   35.5190   27.1370   31.1500 H   0  0  0  0  0  0  0  0  0  0  0  0
   37.0050   21.3760   30.9910 C   0  0  0  0  0  0  0  0  0  0  0  0
   36.1150   21.9840   31.8540 C   0  0  0  0  0  0  0  0  0  0  0  0
   35.5330   21.1680   32.8110 C   0  0  0  0  0  0  0  0  0  0  0  0
   35.8650   19.8510   32.8410 N   0  0  0  0  0  0  0  0  0  0  0  0
   36.7220   19.3120   31.9950 C   0  0  0  0  0  0  0  0  0  0  0  0
   37.3090   20.0560   31.0570 N   0  0  0  0  0  0  0  0  0  0  0  0
   37.5390   21.8930   30.1890 H   0  0  0  0  0  0  0  0  0  0  0  0
   34.8420   21.6660   33.4720 H   0  0  0  0  0  0  0  0  0  0  0  0
   36.8350   18.2470   32.2060 H   0  0  0  0  0  0  0  0  0  0  0  0
  1 10  1  0  0  0  0
  1 23  1  0  0  0  0
  2  1  2  0  0  0  0
  3  4  2  0  0  0  0
  3  2  1  0  0  0  0
  4  5  1  0  0  0  0
  5  6  2  0  0  0  0
  5 10  1  0  0  0  0
  6  7  1  0  0  0  0
  7 13  1  0  0  0  0
  7  8  2  0  0  0  0
  8 14  1  0  0  0  0
  9  8  1  0  0  0  0
  9 15  1  0  0  0  0
 10  9  2  0  0  0  0
 11  3  1  0  0  0  0
 12  6  1  0  0  0  0
 15 22  1  0  0  0  0
 15 16  2  0  0  0  0
 16 17  1  0  0  0  0
 16 18  1  0  0  0  0
 18 19  1  0  0  0  0
 20 18  2  0  0  0  0
 20 21  1  0  0  0  0
 22 20  1  0  0  0  0
 25 24  1  0  0  0  0
 26 35  1  0  0  0  0
 26 25  2  0  0  0  0
 27 26  1  0  0  0  0
 28 27  2  0  0  0  0
 28 29  1  0  0  0  0
 29 30  2  0  0  0  0
 30 25  1  0  0  0  0
 30 23  1  0  0  0  0
 31 27  1  0  0  0  0
 32 28  1  0  0  0  0
 33 29  1  0  0  0  0
 34 39  2  0  0  0  0
 34 35  1  0  0  0  0
 35 36  2  0  0  0  0
 36 37  1  0  0  0  0
 36 41  1  0  0  0  0
 38 42  1  0  0  0  0
 38 37  2  0  0  0  0
 39 38  1  0  0  0  0
 40 34  1  0  0  0  0
M  END
>  <minimizedAffinity>
-6.17818642

$$$$
