
 OpenBabel03272506563D

 19 20  0  0  0  0  0  0  0  0999 V2000
   39.0340   23.1410   37.9060 C   0  0  0  0  0  0  0  0  0  0  0  0
   40.1460   22.5750   37.2600 C   0  0  0  0  0  0  0  0  0  0  0  0
   40.5050   23.1360   36.0260 C   0  0  0  0  0  0  0  0  0  0  0  0
   39.7820   24.1670   35.5310 N   0  0  0  0  0  0  0  0  0  0  0  0
   38.7250   24.6770   36.1830 C   0  0  0  0  0  0  0  0  0  0  0  0
   38.3420   24.1690   37.3750 N   0  0  0  0  0  0  0  0  0  0  0  0
   38.6790   22.7780   38.8620 H   0  0  0  0  0  0  0  0  0  0  0  0
   41.3540   22.7180   35.5150 H   0  0  0  0  0  0  0  0  0  0  0  0
   38.0640   25.7860   35.5020 C   0  0  0  0  0  0  0  0  0  0  0  0
   38.3260   27.0430   36.0520 C   0  0  0  0  0  0  0  0  0  0  0  0
   38.9150   27.4260   36.8870 H   0  0  0  0  0  0  0  0  0  0  0  0
   37.6270   27.9870   35.2950 C   0  0  0  0  0  0  0  0  0  0  0  0
   37.4730   29.0510   35.2690 H   0  0  0  0  0  0  0  0  0  0  0  0
   36.9830   27.2160   34.3230 C   0  0  0  0  0  0  0  0  0  0  0  0
   36.3160   27.3780   33.4770 H   0  0  0  0  0  0  0  0  0  0  0  0
   37.2610   25.9400   34.4770 O   0  0  0  0  0  0  0  0  0  0  0  0
   40.8420   21.4900   37.8660 N   0  0  0  0  0  0  0  0  0  0  0  0
   41.8010   21.9140   38.0130 H   0  0  0  0  0  0  0  0  0  0  0  0
   40.5640   20.5180   38.1290 H   0  0  0  0  0  0  0  0  0  0  0  0
  1  7  1  0  0  0  0
  2 17  1  0  0  0  0
  2  1  2  0  0  0  0
  3  2  1  0  0  0  0
  4  3  2  0  0  0  0
  4  5  1  0  0  0  0
  5  6  2  0  0  0  0
  6  1  1  0  0  0  0
  8  3  1  0  0  0  0
  9 10  2  0  0  0  0
  9  5  1  0  0  0  0
 10 11  1  0  0  0  0
 12 10  1  0  0  0  0
 13 12  1  0  0  0  0
 14 16  1  0  0  0  0
 14 12  2  0  0  0  0
 15 14  1  0  0  0  0
 16  9  1  0  0  0  0
 17 18  1  0  0  0  0
 17 19  1  0  0  0  0
M  END
>  <minimizedAffinity>
-4.40373468

$$$$

 OpenBabel03272506563D

 19 20  0  0  0  0  0  0  0  0999 V2000
   40.6690   23.0900   36.0240 C   0  0  0  0  0  0  0  0  0  0  0  0
   40.1880   22.5560   37.2320 C   0  0  0  0  0  0  0  0  0  0  0  0
   39.0310   23.1480   37.7610 C   0  0  0  0  0  0  0  0  0  0  0  0
   38.4510   24.1760   37.1000 N   0  0  0  0  0  0  0  0  0  0  0  0
   38.9460   24.6550   35.9470 C   0  0  0  0  0  0  0  0  0  0  0  0
   40.0570   24.1170   35.3990 N   0  0  0  0  0  0  0  0  0  0  0  0
   41.5540   22.7020   35.5370 H   0  0  0  0  0  0  0  0  0  0  0  0
   38.6470   22.7540   38.6840 H   0  0  0  0  0  0  0  0  0  0  0  0
   38.1920   25.7650   35.3740 C   0  0  0  0  0  0  0  0  0  0  0  0
   38.4060   26.9960   36.0000 C   0  0  0  0  0  0  0  0  0  0  0  0
   39.0110   27.3560   36.8340 H   0  0  0  0  0  0  0  0  0  0  0  0
   37.6200   27.9450   35.3420 C   0  0  0  0  0  0  0  0  0  0  0  0
   37.4040   28.9980   35.3970 H   0  0  0  0  0  0  0  0  0  0  0  0
   36.9760   27.2050   34.3460 C   0  0  0  0  0  0  0  0  0  0  0  0
   36.2630   27.3840   33.5420 H   0  0  0  0  0  0  0  0  0  0  0  0
   37.3340   25.9400   34.3970 O   0  0  0  0  0  0  0  0  0  0  0  0
   40.8720   21.4710   37.8490 N   0  0  0  0  0  0  0  0  0  0  0  0
   40.1290   20.7170   37.8270 H   0  0  0  0  0  0  0  0  0  0  0  0
   41.8330   21.3600   38.2420 H   0  0  0  0  0  0  0  0  0  0  0  0
  1  2  1  0  0  0  0
  2  3  2  0  0  0  0
  2 17  1  0  0  0  0
  3  8  1  0  0  0  0
  4  3  1  0  0  0  0
  5  4  2  0  0  0  0
  6  5  1  0  0  0  0
  6  1  2  0  0  0  0
  7  1  1  0  0  0  0
  9  5  1  0  0  0  0
  9 10  2  0  0  0  0
 10 11  1  0  0  0  0
 12 13  1  0  0  0  0
 12 10  1  0  0  0  0
 14 16  1  0  0  0  0
 14 12  2  0  0  0  0
 15 14  1  0  0  0  0
 16  9  1  0  0  0  0
 17 19  1  0  0  0  0
 18 17  1  0  0  0  0
M  END
>  <minimizedAffinity>
-4.36527491

$$$$

 OpenBabel03272506563D

 19 20  0  0  0  0  0  0  0  0999 V2000
   39.5840   23.2570   35.6780 C   0  0  0  0  0  0  0  0  0  0  0  0
   39.1420   23.2900   37.0120 C   0  0  0  0  0  0  0  0  0  0  0  0
   38.1550   24.2380   37.3210 C   0  0  0  0  0  0  0  0  0  0  0  0
   37.6900   25.0520   36.3460 N   0  0  0  0  0  0  0  0  0  0  0  0
   38.1410   24.9860   35.0830 C   0  0  0  0  0  0  0  0  0  0  0  0
   39.0910   24.0890   34.7390 N   0  0  0  0  0  0  0  0  0  0  0  0
   40.3410   22.5620   35.3410 H   0  0  0  0  0  0  0  0  0  0  0  0
   37.8040   24.2790   38.3360 H   0  0  0  0  0  0  0  0  0  0  0  0
   37.5270   25.9400   34.1650 C   0  0  0  0  0  0  0  0  0  0  0  0
   37.2060   27.1730   34.7400 C   0  0  0  0  0  0  0  0  0  0  0  0
   37.2980   27.6240   35.7280 H   0  0  0  0  0  0  0  0  0  0  0  0
   36.6320   27.9650   33.7420 C   0  0  0  0  0  0  0  0  0  0  0  0
   36.2210   28.9520   33.6270 H   0  0  0  0  0  0  0  0  0  0  0  0
   36.6490   27.1370   32.6150 C   0  0  0  0  0  0  0  0  0  0  0  0
   36.3470   27.1910   31.5700 H   0  0  0  0  0  0  0  0  0  0  0  0
   37.1760   25.9670   32.9020 O   0  0  0  0  0  0  0  0  0  0  0  0
   39.6960   22.3880   37.9640 N   0  0  0  0  0  0  0  0  0  0  0  0
   38.8410   21.8300   38.2440 H   0  0  0  0  0  0  0  0  0  0  0  0
   40.6600   22.2460   38.3400 H   0  0  0  0  0  0  0  0  0  0  0  0
  1  2  1  0  0  0  0
  2  3  2  0  0  0  0
  2 17  1  0  0  0  0
  3  8  1  0  0  0  0
  4  3  1  0  0  0  0
  5  4  2  0  0  0  0
  6  5  1  0  0  0  0
  6  1  2  0  0  0  0
  7  1  1  0  0  0  0
  9 10  2  0  0  0  0
  9  5  1  0  0  0  0
 10 11  1  0  0  0  0
 12 10  1  0  0  0  0
 13 12  1  0  0  0  0
 14 16  1  0  0  0  0
 14 12  2  0  0  0  0
 15 14  1  0  0  0  0
 16  9  1  0  0  0  0
 17 18  1  0  0  0  0
 17 19  1  0  0  0  0
M  END
>  <minimizedAffinity>
-3.89650011

$$$$

 OpenBabel03272506563D

 19 20  0  0  0  0  0  0  0  0999 V2000
   37.3390   27.4770   34.8980 C   0  0  0  0  0  0  0  0  0  0  0  0
   37.0880   27.0320   33.5890 C   0  0  0  0  0  0  0  0  0  0  0  0
   37.3870   25.6890   33.3160 C   0  0  0  0  0  0  0  0  0  0  0  0
   37.8910   24.9090   34.3000 N   0  0  0  0  0  0  0  0  0  0  0  0
   38.1160   25.3770   35.5380 C   0  0  0  0  0  0  0  0  0  0  0  0
   37.8430   26.6630   35.8470 N   0  0  0  0  0  0  0  0  0  0  0  0
   37.1410   28.4950   35.2060 H   0  0  0  0  0  0  0  0  0  0  0  0
   37.2010   25.3280   32.3200 H   0  0  0  0  0  0  0  0  0  0  0  0
   38.6620   24.3960   36.4710 C   0  0  0  0  0  0  0  0  0  0  0  0
   38.0250   24.3610   37.7140 C   0  0  0  0  0  0  0  0  0  0  0  0
   37.1980   24.8930   38.1860 H   0  0  0  0  0  0  0  0  0  0  0  0
   38.6580   23.3810   38.4840 C   0  0  0  0  0  0  0  0  0  0  0  0
   38.5850   22.9510   39.4670 H   0  0  0  0  0  0  0  0  0  0  0  0
   39.6500   22.8860   37.6320 C   0  0  0  0  0  0  0  0  0  0  0  0
   40.4380   22.1340   37.6640 H   0  0  0  0  0  0  0  0  0  0  0  0
   39.6210   23.5010   36.4710 O   0  0  0  0  0  0  0  0  0  0  0  0
   36.5540   27.9330   32.6240 N   0  0  0  0  0  0  0  0  0  0  0  0
   35.6280   27.4730   32.3990 H   0  0  0  0  0  0  0  0  0  0  0  0
   36.9070   28.8200   32.2000 H   0  0  0  0  0  0  0  0  0  0  0  0
  1  7  1  0  0  0  0
  1  6  1  0  0  0  0
  2  1  2  0  0  0  0
  3  2  1  0  0  0  0
  3  4  2  0  0  0  0
  4  5  1  0  0  0  0
  5  6  2  0  0  0  0
  5  9  1  0  0  0  0
  8  3  1  0  0  0  0
  9 16  1  0  0  0  0
  9 10  2  0  0  0  0
 10 11  1  0  0  0  0
 10 12  1  0  0  0  0
 12 13  1  0  0  0  0
 14 15  1  0  0  0  0
 14 12  2  0  0  0  0
 16 14  1  0  0  0  0
 17  2  1  0  0  0  0
 18 17  1  0  0  0  0
 19 17  1  0  0  0  0
M  END
>  <minimizedAffinity>
-3.8254354

$$$$

 OpenBabel03272506563D

 19 20  0  0  0  0  0  0  0  0999 V2000
   37.9500   24.4960   37.4160 C   0  0  0  0  0  0  0  0  0  0  0  0
   38.7120   23.3730   37.7800 C   0  0  0  0  0  0  0  0  0  0  0  0
   39.7980   23.0580   36.9480 C   0  0  0  0  0  0  0  0  0  0  0  0
   40.0490   23.8300   35.8660 N   0  0  0  0  0  0  0  0  0  0  0  0
   39.2930   24.8960   35.5560 C   0  0  0  0  0  0  0  0  0  0  0  0
   38.2380   25.2380   36.3280 N   0  0  0  0  0  0  0  0  0  0  0  0
   37.0940   24.8200   37.9940 H   0  0  0  0  0  0  0  0  0  0  0  0
   40.3940   22.2030   37.2090 H   0  0  0  0  0  0  0  0  0  0  0  0
   39.7110   25.6120   34.3550 C   0  0  0  0  0  0  0  0  0  0  0  0
   40.5590   26.6970   34.5930 C   0  0  0  0  0  0  0  0  0  0  0  0
   41.0060   27.1650   35.4710 H   0  0  0  0  0  0  0  0  0  0  0  0
   40.8640   27.2700   33.3560 C   0  0  0  0  0  0  0  0  0  0  0  0
   41.4430   28.0880   32.9620 H   0  0  0  0  0  0  0  0  0  0  0  0
   40.1660   26.4740   32.4430 C   0  0  0  0  0  0  0  0  0  0  0  0
   40.0160   26.4250   31.3650 H   0  0  0  0  0  0  0  0  0  0  0  0
   39.5060   25.5200   33.0630 O   0  0  0  0  0  0  0  0  0  0  0  0
   38.3640   22.6250   38.9400 N   0  0  0  0  0  0  0  0  0  0  0  0
   39.2290   22.7540   39.5370 H   0  0  0  0  0  0  0  0  0  0  0  0
   37.5190   22.0760   39.2110 H   0  0  0  0  0  0  0  0  0  0  0  0
  1  2  1  0  0  0  0
  1  7  1  0  0  0  0
  2 17  1  0  0  0  0
  3  8  1  0  0  0  0
  3  2  2  0  0  0  0
  4  3  1  0  0  0  0
  5  4  2  0  0  0  0
  5  6  1  0  0  0  0
  6  1  2  0  0  0  0
  9 10  2  0  0  0  0
  9  5  1  0  0  0  0
 10 11  1  0  0  0  0
 12 10  1  0  0  0  0
 13 12  1  0  0  0  0
 14 16  1  0  0  0  0
 14 12  2  0  0  0  0
 15 14  1  0  0  0  0
 16  9  1  0  0  0  0
 17 19  1  0  0  0  0
 17 18  1  0  0  0  0
M  END
>  <minimizedAffinity>
-3.7941134

$$$$

 OpenBabel03272506563D

 19 20  0  0  0  0  0  0  0  0999 V2000
   37.5050   24.9610   33.0070 C   0  0  0  0  0  0  0  0  0  0  0  0
   37.0510   26.2710   33.2360 C   0  0  0  0  0  0  0  0  0  0  0  0
   37.1820   26.7590   34.5450 C   0  0  0  0  0  0  0  0  0  0  0  0
   37.7250   25.9650   35.4970 N   0  0  0  0  0  0  0  0  0  0  0  0
   38.1460   24.7180   35.2330 C   0  0  0  0  0  0  0  0  0  0  0  0
   38.0400   24.2050   33.9880 N   0  0  0  0  0  0  0  0  0  0  0  0
   37.4470   24.4960   32.0320 H   0  0  0  0  0  0  0  0  0  0  0  0
   36.8410   27.7590   34.7410 H   0  0  0  0  0  0  0  0  0  0  0  0
   38.7040   24.0070   36.3790 C   0  0  0  0  0  0  0  0  0  0  0  0
   38.0050   24.1950   37.5740 C   0  0  0  0  0  0  0  0  0  0  0  0
   37.1200   24.7530   37.8850 H   0  0  0  0  0  0  0  0  0  0  0  0
   38.6580   23.4570   38.5640 C   0  0  0  0  0  0  0  0  0  0  0  0
   38.5620   23.2470   39.6150 H   0  0  0  0  0  0  0  0  0  0  0  0
   39.7260   22.8650   37.8820 C   0  0  0  0  0  0  0  0  0  0  0  0
   40.5580   22.2010   38.1090 H   0  0  0  0  0  0  0  0  0  0  0  0
   39.7190   23.2100   36.6130 O   0  0  0  0  0  0  0  0  0  0  0  0
   36.4950   27.0260   32.1640 N   0  0  0  0  0  0  0  0  0  0  0  0
   37.1780   27.8320   32.1020 H   0  0  0  0  0  0  0  0  0  0  0  0
   35.6560   26.8960   31.5570 H   0  0  0  0  0  0  0  0  0  0  0  0
  1  2  2  0  0  0  0
  1  6  1  0  0  0  0
  2  3  1  0  0  0  0
  3  8  1  0  0  0  0
  3  4  2  0  0  0  0
  5  4  1  0  0  0  0
  5  9  1  0  0  0  0
  6  5  2  0  0  0  0
  7  1  1  0  0  0  0
  9 16  1  0  0  0  0
  9 10  2  0  0  0  0
 10 11  1  0  0  0  0
 10 12  1  0  0  0  0
 12 13  1  0  0  0  0
 14 15  1  0  0  0  0
 14 12  2  0  0  0  0
 16 14  1  0  0  0  0
 17  2  1  0  0  0  0
 18 17  1  0  0  0  0
 19 17  1  0  0  0  0
M  END
>  <minimizedAffinity>
-3.77847219

$$$$

 OpenBabel03272506563D

 19 20  0  0  0  0  0  0  0  0999 V2000
   38.2510   24.4400   37.3600 C   0  0  0  0  0  0  0  0  0  0  0  0
   39.0700   23.3350   37.0720 C   0  0  0  0  0  0  0  0  0  0  0  0
   39.3370   23.0910   35.7160 C   0  0  0  0  0  0  0  0  0  0  0  0
   38.8070   23.9090   34.7780 N   0  0  0  0  0  0  0  0  0  0  0  0
   38.0280   24.9550   35.0990 C   0  0  0  0  0  0  0  0  0  0  0  0
   37.7440   25.2290   36.3910 N   0  0  0  0  0  0  0  0  0  0  0  0
   37.9890   24.7110   38.3740 H   0  0  0  0  0  0  0  0  0  0  0  0
   39.9620   22.2500   35.4740 H   0  0  0  0  0  0  0  0  0  0  0  0
   37.5440   25.7280   33.9600 C   0  0  0  0  0  0  0  0  0  0  0  0
   37.5270   27.1100   34.1630 C   0  0  0  0  0  0  0  0  0  0  0  0
   37.7890   27.7860   34.9780 H   0  0  0  0  0  0  0  0  0  0  0  0
   37.0430   27.7010   32.9920 C   0  0  0  0  0  0  0  0  0  0  0  0
   36.8310   28.6830   32.6080 H   0  0  0  0  0  0  0  0  0  0  0  0
   36.7990   26.6100   32.1510 C   0  0  0  0  0  0  0  0  0  0  0  0
   36.4290   26.4390   31.1410 H   0  0  0  0  0  0  0  0  0  0  0  0
   37.1030   25.4800   32.7500 O   0  0  0  0  0  0  0  0  0  0  0  0
   39.5800   22.5350   38.1330 N   0  0  0  0  0  0  0  0  0  0  0  0
   40.6230   22.6750   38.0170 H   0  0  0  0  0  0  0  0  0  0  0  0
   39.1280   21.9440   38.8650 H   0  0  0  0  0  0  0  0  0  0  0  0
  1  7  1  0  0  0  0
  2  1  1  0  0  0  0
  2 17  1  0  0  0  0
  3  2  2  0  0  0  0
  4  5  2  0  0  0  0
  4  3  1  0  0  0  0
  5  6  1  0  0  0  0
  6  1  2  0  0  0  0
  8  3  1  0  0  0  0
  9 10  2  0  0  0  0
  9  5  1  0  0  0  0
 10 11  1  0  0  0  0
 12 10  1  0  0  0  0
 13 12  1  0  0  0  0
 14 16  1  0  0  0  0
 14 12  2  0  0  0  0
 15 14  1  0  0  0  0
 16  9  1  0  0  0  0
 17 19  1  0  0  0  0
 18 17  1  0  0  0  0
M  END
>  <minimizedAffinity>
-3.75053334

$$$$

 OpenBabel03272506563D

 19 20  0  0  0  0  0  0  0  0999 V2000
   37.3840   25.4440   31.2660 C   0  0  0  0  0  0  0  0  0  0  0  0
   36.2360   26.0980   30.7880 C   0  0  0  0  0  0  0  0  0  0  0  0
   35.0360   25.3730   30.8390 C   0  0  0  0  0  0  0  0  0  0  0  0
   35.0430   24.1140   31.3330 N   0  0  0  0  0  0  0  0  0  0  0  0
   36.1650   23.5270   31.7800 C   0  0  0  0  0  0  0  0  0  0  0  0
   37.3440   24.1860   31.7500 N   0  0  0  0  0  0  0  0  0  0  0  0
   38.3560   25.9190   31.2690 H   0  0  0  0  0  0  0  0  0  0  0  0
   34.1460   25.8550   30.4790 H   0  0  0  0  0  0  0  0  0  0  0  0
   35.9860   22.1670   32.2770 C   0  0  0  0  0  0  0  0  0  0  0  0
   35.2430   21.3350   31.4360 C   0  0  0  0  0  0  0  0  0  0  0  0
   34.7440   21.4400   30.4720 H   0  0  0  0  0  0  0  0  0  0  0  0
   35.1620   20.0810   32.0480 C   0  0  0  0  0  0  0  0  0  0  0  0
   34.7330   19.1130   31.8590 H   0  0  0  0  0  0  0  0  0  0  0  0
   35.8770   20.2500   33.2380 C   0  0  0  0  0  0  0  0  0  0  0  0
   36.1560   19.6500   34.1030 H   0  0  0  0  0  0  0  0  0  0  0  0
   36.3410   21.4770   33.3350 O   0  0  0  0  0  0  0  0  0  0  0  0
   36.3340   27.4270   30.2870 N   0  0  0  0  0  0  0  0  0  0  0  0
   35.7120   27.9510   30.9650 H   0  0  0  0  0  0  0  0  0  0  0  0
   36.8490   27.8550   29.4860 H   0  0  0  0  0  0  0  0  0  0  0  0
  1  7  1  0  0  0  0
  1  6  1  0  0  0  0
  2  3  1  0  0  0  0
  2  1  2  0  0  0  0
  3  4  2  0  0  0  0
  4  5  1  0  0  0  0
  5  9  1  0  0  0  0
  6  5  2  0  0  0  0
  8  3  1  0  0  0  0
  9 16  1  0  0  0  0
 10 12  1  0  0  0  0
 10  9  2  0  0  0  0
 11 10  1  0  0  0  0
 12 14  2  0  0  0  0
 13 12  1  0  0  0  0
 14 16  1  0  0  0  0
 14 15  1  0  0  0  0
 17  2  1  0  0  0  0
 17 18  1  0  0  0  0
 19 17  1  0  0  0  0
M  END
>  <minimizedAffinity>
-3.63858294

$$$$

 OpenBabel03272506563D

 19 20  0  0  0  0  0  0  0  0999 V2000
   37.4280   23.2680   32.3960 C   0  0  0  0  0  0  0  0  0  0  0  0
   37.2260   24.6120   32.0380 C   0  0  0  0  0  0  0  0  0  0  0  0
   37.4660   25.5680   33.0360 C   0  0  0  0  0  0  0  0  0  0  0  0
   37.8680   25.1610   34.2620 N   0  0  0  0  0  0  0  0  0  0  0  0
   38.0490   23.8640   34.5610 C   0  0  0  0  0  0  0  0  0  0  0  0
   37.8300   22.9080   33.6320 N   0  0  0  0  0  0  0  0  0  0  0  0
   37.2700   22.4580   31.6970 H   0  0  0  0  0  0  0  0  0  0  0  0
   37.3170   26.6020   32.7820 H   0  0  0  0  0  0  0  0  0  0  0  0
   38.4850   23.6080   35.9300 C   0  0  0  0  0  0  0  0  0  0  0  0
   37.6850   24.1980   36.9120 C   0  0  0  0  0  0  0  0  0  0  0  0
   36.7890   24.8200   36.9240 H   0  0  0  0  0  0  0  0  0  0  0  0
   38.2300   23.8630   38.1550 C   0  0  0  0  0  0  0  0  0  0  0  0
   38.0350   24.0350   39.1980 H   0  0  0  0  0  0  0  0  0  0  0  0
   39.3410   23.0800   37.8250 C   0  0  0  0  0  0  0  0  0  0  0  0
   40.1350   22.5470   38.3470 H   0  0  0  0  0  0  0  0  0  0  0  0
   39.4560   22.9550   36.5210 O   0  0  0  0  0  0  0  0  0  0  0  0
   36.8010   24.9380   30.7190 N   0  0  0  0  0  0  0  0  0  0  0  0
   37.6190   25.5130   30.3730 H   0  0  0  0  0  0  0  0  0  0  0  0
   35.9430   24.7150   30.1670 H   0  0  0  0  0  0  0  0  0  0  0  0
  1  6  1  0  0  0  0
  2  1  2  0  0  0  0
  2  3  1  0  0  0  0
  3  4  2  0  0  0  0
  4  5  1  0  0  0  0
  5  9  1  0  0  0  0
  6  5  2  0  0  0  0
  7  1  1  0  0  0  0
  8  3  1  0  0  0  0
  9 16  1  0  0  0  0
  9 10  2  0  0  0  0
 10 11  1  0  0  0  0
 10 12  1  0  0  0  0
 12 13  1  0  0  0  0
 14 12  2  0  0  0  0
 14 15  1  0  0  0  0
 16 14  1  0  0  0  0
 17  2  1  0  0  0  0
 18 17  1  0  0  0  0
 19 17  1  0  0  0  0
M  END
>  <minimizedAffinity>
-3.59245777

$$$$
