
 OpenBabel03272506183D

 33 35  0  0  0  0  0  0  0  0999 V2000
   35.4630   30.3220   49.9480 C   0  0  0  0  0  0  0  0  0  0  0  0
   36.4300   31.2550   49.2590 C   0  0  0  0  0  0  0  0  0  0  0  0
   37.8630   30.8400   49.3880 C   0  0  0  0  0  0  0  0  0  0  0  0
   38.2910   30.6080   50.8090 C   0  0  0  0  0  0  0  0  0  0  0  0
   37.2480   29.9350   51.6500 C   0  0  0  0  0  0  0  0  0  0  0  0
   36.1490   29.3150   50.8070 C   0  0  0  0  0  0  0  0  0  0  0  0
   34.7270   30.8790   50.5620 H   0  0  0  0  0  0  0  0  0  0  0  0
   36.2130   31.3870   48.1970 H   0  0  0  0  0  0  0  0  0  0  0  0
   36.3570   32.2530   49.7770 H   0  0  0  0  0  0  0  0  0  0  0  0
   38.4750   31.6720   48.9800 H   0  0  0  0  0  0  0  0  0  0  0  0
   38.0440   29.9650   48.7290 H   0  0  0  0  0  0  0  0  0  0  0  0
   38.7010   31.5130   51.2940 H   0  0  0  0  0  0  0  0  0  0  0  0
   39.1530   29.8880   50.7560 H   0  0  0  0  0  0  0  0  0  0  0  0
   37.6570   29.1170   52.2780 H   0  0  0  0  0  0  0  0  0  0  0  0
   36.8190   30.7300   52.3200 H   0  0  0  0  0  0  0  0  0  0  0  0
   35.4600   28.8390   51.5130 H   0  0  0  0  0  0  0  0  0  0  0  0
   36.6710   28.5450   50.1770 H   0  0  0  0  0  0  0  0  0  0  0  0
   34.6710   29.5860   48.9200 C   0  0  0  0  0  0  0  0  0  0  0  0
   34.2850   30.3000   47.7730 C   0  0  0  0  0  0  0  0  0  0  0  0
   33.5440   29.6170   46.8220 C   0  0  0  0  0  0  0  0  0  0  0  0
   33.2140   28.2890   47.0220 N   0  0  0  0  0  0  0  0  0  0  0  0
   33.6120   27.6360   48.1580 C   0  0  0  0  0  0  0  0  0  0  0  0
   34.3290   28.2860   49.0820 N   0  0  0  0  0  0  0  0  0  0  0  0
   34.4920   31.3070   47.5510 H   0  0  0  0  0  0  0  0  0  0  0  0
   33.3170   26.6010   48.2450 H   0  0  0  0  0  0  0  0  0  0  0  0
   33.1040   30.2830   45.6010 C   0  0  0  0  0  0  0  0  0  0  0  0
   32.0000   31.1030   45.4860 C   0  0  0  0  0  0  0  0  0  0  0  0
   31.3220   31.3540   46.3000 H   0  0  0  0  0  0  0  0  0  0  0  0
   32.0020   31.4890   44.1400 C   0  0  0  0  0  0  0  0  0  0  0  0
   31.2470   32.1480   43.7190 H   0  0  0  0  0  0  0  0  0  0  0  0
   33.0870   30.8880   43.5330 C   0  0  0  0  0  0  0  0  0  0  0  0
   33.3170   31.0290   42.4690 H   0  0  0  0  0  0  0  0  0  0  0  0
   33.7010   30.1850   44.4530 O   0  0  0  0  0  0  0  0  0  0  0  0
  1  7  1  0  0  0  0
  1  6  1  0  0  0  0
  2  3  1  0  0  0  0
  2  9  1  0  0  0  0
  2  1  1  0  0  0  0
  3  4  1  0  0  0  0
  4 12  1  0  0  0  0
  4  5  1  0  0  0  0
  5 14  1  0  0  0  0
  5 15  1  0  0  0  0
  6 16  1  0  0  0  0
  6  5  1  0  0  0  0
  8  2  1  0  0  0  0
 10  3  1  0  0  0  0
 11  3  1  0  0  0  0
 13  4  1  0  0  0  0
 17  6  1  0  0  0  0
 18 23  1  0  0  0  0
 18  1  1  0  0  0  0
 19 18  2  0  0  0  0
 20 21  2  0  0  0  0
 20 19  1  0  0  0  0
 21 22  1  0  0  0  0
 22 25  1  0  0  0  0
 22 23  2  0  0  0  0
 24 19  1  0  0  0  0
 26 20  1  0  0  0  0
 27 26  2  0  0  0  0
 27 28  1  0  0  0  0
 29 27  1  0  0  0  0
 30 29  1  0  0  0  0
 31 29  2  0  0  0  0
 31 33  1  0  0  0  0
 32 31  1  0  0  0  0
 33 26  1  0  0  0  0
M  END
>  <minimizedAffinity>
-5.20210505

>  <minimizedRMSD>
0.424121141

$$$$
