
 OpenBabel03272508133D

 33 35  0  0  0  0  0  0  0  0999 V2000
   38.0200   23.0070   33.2910 Cl  0  0  0  0  0  0  0  0  0  0  0  0
   36.9910   24.1630   32.4260 C   0  0  0  0  0  0  0  0  0  0  0  0
   37.1310   25.5490   32.4980 C   0  0  0  0  0  0  0  0  0  0  0  0
   36.2520   26.3320   31.7680 C   0  0  0  0  0  0  0  0  0  0  0  0
   35.2750   25.7510   31.0020 C   0  0  0  0  0  0  0  0  0  0  0  0
   35.1210   24.4070   30.9170 C   0  0  0  0  0  0  0  0  0  0  0  0
   35.9770   23.5990   31.6280 C   0  0  0  0  0  0  0  0  0  0  0  0
   36.4560   27.3870   31.9010 H   0  0  0  0  0  0  0  0  0  0  0  0
   34.6320   26.4340   30.4650 H   0  0  0  0  0  0  0  0  0  0  0  0
   34.3460   23.9570   30.3080 H   0  0  0  0  0  0  0  0  0  0  0  0
   35.8350   22.1450   31.5560 C   0  0  0  0  0  0  0  0  0  0  0  0
   34.9790   21.3880   32.3250 C   0  0  0  0  0  0  0  0  0  0  0  0
   34.2840   21.6850   33.0880 H   0  0  0  0  0  0  0  0  0  0  0  0
   35.1360   20.0550   31.9630 C   0  0  0  0  0  0  0  0  0  0  0  0
   34.6940   19.1300   32.2810 H   0  0  0  0  0  0  0  0  0  0  0  0
   36.1120   20.0800   30.9610 C   0  0  0  0  0  0  0  0  0  0  0  0
   36.5110   19.2260   30.4230 H   0  0  0  0  0  0  0  0  0  0  0  0
   36.4820   21.3250   30.7660 O   0  0  0  0  0  0  0  0  0  0  0  0
   38.1650   25.9090   33.3170 O   0  0  0  0  0  0  0  0  0  0  0  0
   39.4830   27.1360   35.1720 O   0  0  0  0  0  0  0  0  0  0  0  0
   38.1250   26.6080   34.8330 P   0  0  1  0  0  0  0  0  0  0  0  0
   37.0260   27.9130   34.6870 O   0  0  0  0  0  0  0  0  0  0  0  0
   37.5350   28.7660   34.6940 H   0  0  0  0  0  0  0  0  0  0  0  0
   37.5280   25.4950   35.9620 O   0  0  0  0  0  0  0  0  0  0  0  0
   38.8130   23.3360   38.6640 C   0  0  0  0  0  0  0  0  0  0  0  0
   37.9740   24.2770   38.0600 C   0  0  0  0  0  0  0  0  0  0  0  0
   38.2040   24.6220   36.7330 C   0  0  0  0  0  0  0  0  0  0  0  0
   39.2450   24.0160   36.0860 N   0  0  0  0  0  0  0  0  0  0  0  0
   40.0360   23.1100   36.7000 C   0  0  0  0  0  0  0  0  0  0  0  0
   39.8210   22.7730   37.9810 N   0  0  0  0  0  0  0  0  0  0  0  0
   38.5730   23.1180   39.6970 H   0  0  0  0  0  0  0  0  0  0  0  0
   37.1500   24.7880   38.4950 H   0  0  0  0  0  0  0  0  0  0  0  0
   40.8640   22.6330   36.1700 H   0  0  0  0  0  0  0  0  0  0  0  0
  2  3  1  0  0  0  0
  2  1  1  0  0  0  0
  3 19  1  0  0  0  0
  4  8  1  0  0  0  0
  4  3  2  0  0  0  0
  5  4  1  0  0  0  0
  6  5  2  0  0  0  0
  6  7  1  0  0  0  0
  7  2  2  0  0  0  0
  9  5  1  0  0  0  0
 10  6  1  0  0  0  0
 11  7  1  0  0  0  0
 11 12  2  0  0  0  0
 12 13  1  0  0  0  0
 14 15  1  0  0  0  0
 14 12  1  0  0  0  0
 16 14  2  0  0  0  0
 17 16  1  0  0  0  0
 18 16  1  0  0  0  0
 18 11  1  0  0  0  0
 19 21  1  0  0  0  0
 21 20  2  1  0  0  0
 21 24  1  0  0  0  0
 22 23  1  0  0  0  0
 22 21  1  0  0  0  0
 24 27  1  0  0  0  0
 25 31  1  0  0  0  0
 26 32  1  0  0  0  0
 26 25  1  0  0  0  0
 27 26  2  0  0  0  0
 28 29  2  0  0  0  0
 28 27  1  0  0  0  0
 29 30  1  0  0  0  0
 30 25  2  0  0  0  0
 33 29  1  0  0  0  0
M  END
>  <minimizedAffinity>
-5.94616318

$$$$

 OpenBabel03272508133D

 33 35  0  0  0  0  0  0  0  0999 V2000
   35.9220   30.3570   35.2860 Cl  0  0  0  0  0  0  0  0  0  0  0  0
   36.0070   29.6250   33.6730 C   0  0  0  0  0  0  0  0  0  0  0  0
   36.3870   28.3050   33.4260 C   0  0  0  0  0  0  0  0  0  0  0  0
   36.4110   27.8690   32.1120 C   0  0  0  0  0  0  0  0  0  0  0  0
   36.0700   28.7170   31.0910 C   0  0  0  0  0  0  0  0  0  0  0  0
   35.6970   30.0020   31.3080 C   0  0  0  0  0  0  0  0  0  0  0  0
   35.6620   30.4700   32.6000 C   0  0  0  0  0  0  0  0  0  0  0  0
   36.7190   26.8330   32.0440 H   0  0  0  0  0  0  0  0  0  0  0  0
   36.1150   28.2970   30.0970 H   0  0  0  0  0  0  0  0  0  0  0  0
   35.4300   30.6660   30.4940 H   0  0  0  0  0  0  0  0  0  0  0  0
   35.2650   31.8520   32.8650 C   0  0  0  0  0  0  0  0  0  0  0  0
   33.9680   32.3000   32.9910 C   0  0  0  0  0  0  0  0  0  0  0  0
   33.0400   31.7640   32.9260 H   0  0  0  0  0  0  0  0  0  0  0  0
   34.0040   33.6680   33.2380 C   0  0  0  0  0  0  0  0  0  0  0  0
   33.2600   34.4240   33.4010 H   0  0  0  0  0  0  0  0  0  0  0  0
   35.3670   33.9830   33.2470 C   0  0  0  0  0  0  0  0  0  0  0  0
   35.8040   34.9630   33.4090 H   0  0  0  0  0  0  0  0  0  0  0  0
   36.0540   32.8860   33.0240 O   0  0  0  0  0  0  0  0  0  0  0  0
   36.6830   27.6410   34.5850 O   0  0  0  0  0  0  0  0  0  0  0  0
   39.1330   27.0830   33.9790 O   0  0  0  0  0  0  0  0  0  0  0  0
   38.1020   26.8910   35.0450 P   0  0  1  0  0  0  0  0  0  0  0  0
   38.5920   27.7110   36.4660 O   0  0  0  0  0  0  0  0  0  0  0  0
   39.3760   28.2830   36.2550 H   0  0  0  0  0  0  0  0  0  0  0  0
   37.7990   25.2650   35.4120 O   0  0  0  0  0  0  0  0  0  0  0  0
   38.7250   23.4600   38.4930 C   0  0  0  0  0  0  0  0  0  0  0  0
   37.9850   24.3280   37.6860 C   0  0  0  0  0  0  0  0  0  0  0  0
   38.3620   24.4890   36.3570 C   0  0  0  0  0  0  0  0  0  0  0  0
   39.4440   23.7830   35.9090 N   0  0  0  0  0  0  0  0  0  0  0  0
   40.1370   22.9520   36.7170 C   0  0  0  0  0  0  0  0  0  0  0  0
   39.7790   22.7910   38.0010 N   0  0  0  0  0  0  0  0  0  0  0  0
   38.3730   23.3850   39.5140 H   0  0  0  0  0  0  0  0  0  0  0  0
   37.1380   24.9080   37.9600 H   0  0  0  0  0  0  0  0  0  0  0  0
   40.9990   22.3930   36.3460 H   0  0  0  0  0  0  0  0  0  0  0  0
  2  1  1  0  0  0  0
  3  2  1  0  0  0  0
  3 19  1  0  0  0  0
  4  3  2  0  0  0  0
  5  6  2  0  0  0  0
  5  4  1  0  0  0  0
  6  7  1  0  0  0  0
  7 11  1  0  0  0  0
  7  2  2  0  0  0  0
  8  4  1  0  0  0  0
  9  5  1  0  0  0  0
 10  6  1  0  0  0  0
 11 12  2  0  0  0  0
 11 18  1  0  0  0  0
 12 14  1  0  0  0  0
 13 12  1  0  0  0  0
 14 16  2  0  0  0  0
 14 15  1  0  0  0  0
 16 17  1  0  0  0  0
 18 16  1  0  0  0  0
 19 21  1  0  0  0  0
 21 20  2  6  0  0  0
 21 24  1  0  0  0  0
 21 22  1  0  0  0  0
 23 22  1  0  0  0  0
 24 27  1  0  0  0  0
 25 31  1  0  0  0  0
 26 32  1  0  0  0  0
 26 25  2  0  0  0  0
 27 26  1  0  0  0  0
 28 27  2  0  0  0  0
 28 29  1  0  0  0  0
 29 30  2  0  0  0  0
 30 25  1  0  0  0  0
 33 29  1  0  0  0  0
M  END
>  <minimizedAffinity>
-5.30645609

$$$$

 OpenBabel03272508133D

 33 35  0  0  0  0  0  0  0  0999 V2000
   40.0190   26.1210   31.7330 Cl  0  0  0  0  0  0  0  0  0  0  0  0
   39.0810   26.5790   33.1670 C   0  0  0  0  0  0  0  0  0  0  0  0
   37.6960   26.7450   33.1820 C   0  0  0  0  0  0  0  0  0  0  0  0
   37.0970   27.1080   34.3760 C   0  0  0  0  0  0  0  0  0  0  0  0
   37.8520   27.2970   35.5050 C   0  0  0  0  0  0  0  0  0  0  0  0
   39.1980   27.1400   35.5130 C   0  0  0  0  0  0  0  0  0  0  0  0
   39.8270   26.7800   34.3440 C   0  0  0  0  0  0  0  0  0  0  0  0
   36.0240   27.2080   34.2680 H   0  0  0  0  0  0  0  0  0  0  0  0
   37.3050   27.5790   36.3930 H   0  0  0  0  0  0  0  0  0  0  0  0
   39.7870   27.2910   36.4100 H   0  0  0  0  0  0  0  0  0  0  0  0
   41.2790   26.6040   34.3220 C   0  0  0  0  0  0  0  0  0  0  0  0
   41.9620   25.5370   34.8630 C   0  0  0  0  0  0  0  0  0  0  0  0
   41.5970   24.6690   35.3790 H   0  0  0  0  0  0  0  0  0  0  0  0
   43.3200   25.7340   34.6410 C   0  0  0  0  0  0  0  0  0  0  0  0
   44.2100   25.1830   34.8750 H   0  0  0  0  0  0  0  0  0  0  0  0
   43.3860   26.9520   33.9550 C   0  0  0  0  0  0  0  0  0  0  0  0
   44.2840   27.4490   33.6030 H   0  0  0  0  0  0  0  0  0  0  0  0
   42.1660   27.4130   33.7980 O   0  0  0  0  0  0  0  0  0  0  0  0
   37.1470   26.5080   31.9520 O   0  0  0  0  0  0  0  0  0  0  0  0
   35.1360   25.3440   30.8210 O   0  0  0  0  0  0  0  0  0  0  0  0
   36.5220   25.0940   31.3240 P   0  0  1  0  0  0  0  0  0  0  0  0
   37.5450   24.7080   30.0060 O   0  0  0  0  0  0  0  0  0  0  0  0
   37.0590   24.8850   29.1580 H   0  0  0  0  0  0  0  0  0  0  0  0
   36.6110   23.8610   32.4830 O   0  0  0  0  0  0  0  0  0  0  0  0
   35.5340   20.3800   31.9070 C   0  0  0  0  0  0  0  0  0  0  0  0
   35.3900   21.7630   32.0450 C   0  0  0  0  0  0  0  0  0  0  0  0
   36.5200   22.5290   32.3130 C   0  0  0  0  0  0  0  0  0  0  0  0
   37.7180   21.8810   32.4270 N   0  0  0  0  0  0  0  0  0  0  0  0
   37.8210   20.5420   32.2880 C   0  0  0  0  0  0  0  0  0  0  0  0
   36.7360   19.7970   32.0300 N   0  0  0  0  0  0  0  0  0  0  0  0
   34.6120   19.8500   31.7000 H   0  0  0  0  0  0  0  0  0  0  0  0
   34.4970   22.3350   31.9710 H   0  0  0  0  0  0  0  0  0  0  0  0
   38.7860   20.0380   32.3810 H   0  0  0  0  0  0  0  0  0  0  0  0
  1  2  1  0  0  0  0
  2  3  2  0  0  0  0
  2  7  1  0  0  0  0
  3  4  1  0  0  0  0
  4  5  2  0  0  0  0
  5  6  1  0  0  0  0
  5  9  1  0  0  0  0
  6 10  1  0  0  0  0
  7  6  2  0  0  0  0
  8  4  1  0  0  0  0
 11  7  1  0  0  0  0
 11 12  2  0  0  0  0
 12 13  1  0  0  0  0
 14 12  1  0  0  0  0
 14 15  1  0  0  0  0
 16 14  2  0  0  0  0
 17 16  1  0  0  0  0
 18 16  1  0  0  0  0
 18 11  1  0  0  0  0
 19  3  1  0  0  0  0
 21 20  2  6  0  0  0
 21 19  1  0  0  0  0
 21 24  1  0  0  0  0
 22 21  1  0  0  0  0
 23 22  1  0  0  0  0
 25 30  2  0  0  0  0
 25 26  1  0  0  0  0
 26 27  2  0  0  0  0
 27 28  1  0  0  0  0
 27 24  1  0  0  0  0
 29 33  1  0  0  0  0
 29 28  2  0  0  0  0
 30 29  1  0  0  0  0
 31 25  1  0  0  0  0
 32 26  1  0  0  0  0
M  END
>  <minimizedAffinity>
-5.21029711

$$$$

 OpenBabel03272508133D

 33 35  0  0  0  0  0  0  0  0999 V2000
   37.1250   24.8510   32.6010 Cl  0  0  0  0  0  0  0  0  0  0  0  0
   37.6230   25.6700   34.0930 C   0  0  0  0  0  0  0  0  0  0  0  0
   37.9820   25.0130   35.2700 C   0  0  0  0  0  0  0  0  0  0  0  0
   38.3480   25.7840   36.3610 C   0  0  0  0  0  0  0  0  0  0  0  0
   38.3530   27.1520   36.2760 C   0  0  0  0  0  0  0  0  0  0  0  0
   38.0080   27.8110   35.1430 C   0  0  0  0  0  0  0  0  0  0  0  0
   37.6400   27.0780   34.0400 C   0  0  0  0  0  0  0  0  0  0  0  0
   38.6040   25.1680   37.2140 H   0  0  0  0  0  0  0  0  0  0  0  0
   38.6500   27.6770   37.1730 H   0  0  0  0  0  0  0  0  0  0  0  0
   38.0150   28.8930   35.0850 H   0  0  0  0  0  0  0  0  0  0  0  0
   37.2630   27.7610   32.8030 C   0  0  0  0  0  0  0  0  0  0  0  0
   36.0270   28.3070   32.5370 C   0  0  0  0  0  0  0  0  0  0  0  0
   35.1400   28.3440   33.1420 H   0  0  0  0  0  0  0  0  0  0  0  0
   36.0630   28.8640   31.2640 C   0  0  0  0  0  0  0  0  0  0  0  0
   35.3550   29.3840   30.6480 H   0  0  0  0  0  0  0  0  0  0  0  0
   37.3640   28.6140   30.8130 C   0  0  0  0  0  0  0  0  0  0  0  0
   37.7820   28.8970   29.8530 H   0  0  0  0  0  0  0  0  0  0  0  0
   38.0170   27.9680   31.7520 O   0  0  0  0  0  0  0  0  0  0  0  0
   37.9060   23.6550   35.1320 O   0  0  0  0  0  0  0  0  0  0  0  0
   40.4150   23.2520   34.6570 O   0  0  0  0  0  0  0  0  0  0  0  0
   39.1310   22.5370   34.9370 P   0  0  1  0  0  0  0  0  0  0  0  0
   39.2410   21.7370   36.4460 O   0  0  0  0  0  0  0  0  0  0  0  0
   40.0660   22.0360   36.9110 H   0  0  0  0  0  0  0  0  0  0  0  0
   38.7020   21.4190   33.7380 O   0  0  0  0  0  0  0  0  0  0  0  0
   35.1870   20.8890   32.7520 C   0  0  0  0  0  0  0  0  0  0  0  0
   36.2750   20.9950   33.6220 C   0  0  0  0  0  0  0  0  0  0  0  0
   37.5300   21.2750   33.0920 C   0  0  0  0  0  0  0  0  0  0  0  0
   37.6300   21.4330   31.7380 N   0  0  0  0  0  0  0  0  0  0  0  0
   36.5570   21.3240   30.9250 C   0  0  0  0  0  0  0  0  0  0  0  0
   35.3440   21.0540   31.4290 N   0  0  0  0  0  0  0  0  0  0  0  0
   34.2430   20.6700   33.2350 H   0  0  0  0  0  0  0  0  0  0  0  0
   36.2750   20.8850   34.6790 H   0  0  0  0  0  0  0  0  0  0  0  0
   36.6530   21.4540   29.8440 H   0  0  0  0  0  0  0  0  0  0  0  0
  1  2  1  0  0  0  0
  2  3  1  0  0  0  0
  3  4  2  0  0  0  0
  4  8  1  0  0  0  0
  5  4  1  0  0  0  0
  5  9  1  0  0  0  0
  6  5  2  0  0  0  0
  7  2  2  0  0  0  0
  7  6  1  0  0  0  0
 10  6  1  0  0  0  0
 11  7  1  0  0  0  0
 12 11  2  0  0  0  0
 12 13  1  0  0  0  0
 14 12  1  0  0  0  0
 15 14  1  0  0  0  0
 16 14  2  0  0  0  0
 16 18  1  0  0  0  0
 17 16  1  0  0  0  0
 18 11  1  0  0  0  0
 19  3  1  0  0  0  0
 21 20  2  6  0  0  0
 21 19  1  0  0  0  0
 21 22  1  0  0  0  0
 22 23  1  0  0  0  0
 24 21  1  0  0  0  0
 25 31  1  0  0  0  0
 25 26  1  0  0  0  0
 26 32  1  0  0  0  0
 27 26  2  0  0  0  0
 27 24  1  0  0  0  0
 28 27  1  0  0  0  0
 29 30  1  0  0  0  0
 29 28  2  0  0  0  0
 30 25  2  0  0  0  0
 33 29  1  0  0  0  0
M  END
>  <minimizedAffinity>
-5.20590687

$$$$

 OpenBabel03272508133D

 33 35  0  0  0  0  0  0  0  0999 V2000
   39.0030   27.0330   31.7390 Cl  0  0  0  0  0  0  0  0  0  0  0  0
   37.6050   25.9620   31.5340 C   0  0  0  0  0  0  0  0  0  0  0  0
   37.6410   24.5780   31.7100 C   0  0  0  0  0  0  0  0  0  0  0  0
   36.4700   23.8650   31.5130 C   0  0  0  0  0  0  0  0  0  0  0  0
   35.3150   24.5110   31.1560 C   0  0  0  0  0  0  0  0  0  0  0  0
   35.2570   25.8530   30.9810 C   0  0  0  0  0  0  0  0  0  0  0  0
   36.4010   26.5930   31.1680 C   0  0  0  0  0  0  0  0  0  0  0  0
   36.6180   22.8060   31.6770 H   0  0  0  0  0  0  0  0  0  0  0  0
   34.4470   23.8810   31.0230 H   0  0  0  0  0  0  0  0  0  0  0  0
   34.3390   26.3560   30.6980 H   0  0  0  0  0  0  0  0  0  0  0  0
   36.3690   28.0440   30.9850 C   0  0  0  0  0  0  0  0  0  0  0  0
   35.9540   28.9580   31.9280 C   0  0  0  0  0  0  0  0  0  0  0  0
   35.5910   28.8080   32.9280 H   0  0  0  0  0  0  0  0  0  0  0  0
   36.0710   30.2300   31.3790 C   0  0  0  0  0  0  0  0  0  0  0  0
   35.8710   31.2240   31.7310 H   0  0  0  0  0  0  0  0  0  0  0  0
   36.5670   30.0080   30.0900 C   0  0  0  0  0  0  0  0  0  0  0  0
   36.7930   30.7620   29.3430 H   0  0  0  0  0  0  0  0  0  0  0  0
   36.7210   28.7150   29.9160 O   0  0  0  0  0  0  0  0  0  0  0  0
   38.8900   24.1470   32.0640 O   0  0  0  0  0  0  0  0  0  0  0  0
   39.7070   21.9630   33.1770 O   0  0  0  0  0  0  0  0  0  0  0  0
   39.3970   23.3970   33.4660 P   0  0  1  0  0  0  0  0  0  0  0  0
   40.8360   24.2130   33.9070 O   0  0  0  0  0  0  0  0  0  0  0  0
   41.6120   23.6200   33.7270 H   0  0  0  0  0  0  0  0  0  0  0  0
   38.2370   23.6090   34.6820 O   0  0  0  0  0  0  0  0  0  0  0  0
   37.9860   24.1110   38.3290 C   0  0  0  0  0  0  0  0  0  0  0  0
   37.6250   24.2460   36.9860 C   0  0  0  0  0  0  0  0  0  0  0  0
   38.3990   23.6130   36.0190 C   0  0  0  0  0  0  0  0  0  0  0  0
   39.4780   22.8860   36.4390 N   0  0  0  0  0  0  0  0  0  0  0  0
   39.7980   22.7760   37.7470 C   0  0  0  0  0  0  0  0  0  0  0  0
   39.0570   23.3850   38.6850 N   0  0  0  0  0  0  0  0  0  0  0  0
   37.3380   24.6310   39.0230 H   0  0  0  0  0  0  0  0  0  0  0  0
   36.8060   24.7910   36.5840 H   0  0  0  0  0  0  0  0  0  0  0  0
   40.6640   22.1910   38.0680 H   0  0  0  0  0  0  0  0  0  0  0  0
  2  3  1  0  0  0  0
  2  1  1  0  0  0  0
  3 19  1  0  0  0  0
  4  8  1  0  0  0  0
  4  3  2  0  0  0  0
  5  4  1  0  0  0  0
  6  5  2  0  0  0  0
  6  7  1  0  0  0  0
  7  2  2  0  0  0  0
  9  5  1  0  0  0  0
 10  6  1  0  0  0  0
 11  7  1  0  0  0  0
 11 12  2  0  0  0  0
 12 13  1  0  0  0  0
 14 15  1  0  0  0  0
 14 12  1  0  0  0  0
 16 14  2  0  0  0  0
 17 16  1  0  0  0  0
 18 16  1  0  0  0  0
 18 11  1  0  0  0  0
 19 21  1  0  0  0  0
 21 20  2  6  0  0  0
 21 22  1  0  0  0  0
 21 24  1  0  0  0  0
 23 22  1  0  0  0  0
 24 27  1  0  0  0  0
 25 30  1  0  0  0  0
 25 31  1  0  0  0  0
 26 25  2  0  0  0  0
 27 28  2  0  0  0  0
 27 26  1  0  0  0  0
 28 29  1  0  0  0  0
 29 33  1  0  0  0  0
 29 30  2  0  0  0  0
 32 26  1  0  0  0  0
M  END
>  <minimizedAffinity>
-5.2020669

$$$$

 OpenBabel03272508133D

 33 35  0  0  0  0  0  0  0  0999 V2000
   40.5370   23.9580   34.4160 Cl  0  0  0  0  0  0  0  0  0  0  0  0
   39.6290   23.8980   35.9380 C   0  0  0  0  0  0  0  0  0  0  0  0
   38.4100   24.5410   36.1540 C   0  0  0  0  0  0  0  0  0  0  0  0
   37.8140   24.4080   37.3970 C   0  0  0  0  0  0  0  0  0  0  0  0
   38.4140   23.6650   38.3800 C   0  0  0  0  0  0  0  0  0  0  0  0
   39.5980   23.0320   38.1930 C   0  0  0  0  0  0  0  0  0  0  0  0
   40.2180   23.1420   36.9700 C   0  0  0  0  0  0  0  0  0  0  0  0
   36.8770   24.9480   37.4480 H   0  0  0  0  0  0  0  0  0  0  0  0
   37.8830   23.6140   39.3200 H   0  0  0  0  0  0  0  0  0  0  0  0
   40.0650   22.4470   38.9750 H   0  0  0  0  0  0  0  0  0  0  0  0
   41.4960   22.4700   36.7380 C   0  0  0  0  0  0  0  0  0  0  0  0
   41.6900   21.1060   36.7230 C   0  0  0  0  0  0  0  0  0  0  0  0
   40.9910   20.3040   36.8680 H   0  0  0  0  0  0  0  0  0  0  0  0
   43.0360   20.8620   36.4710 C   0  0  0  0  0  0  0  0  0  0  0  0
   43.6360   19.9790   36.3720 H   0  0  0  0  0  0  0  0  0  0  0  0
   43.6010   22.1360   36.3450 C   0  0  0  0  0  0  0  0  0  0  0  0
   44.6430   22.3650   36.1440 H   0  0  0  0  0  0  0  0  0  0  0  0
   42.6570   23.0340   36.5100 O   0  0  0  0  0  0  0  0  0  0  0  0
   37.9970   25.2230   35.0430 O   0  0  0  0  0  0  0  0  0  0  0  0
   36.5200   27.3400   34.9090 O   0  0  0  0  0  0  0  0  0  0  0  0
   37.9320   26.8690   34.7710 P   0  0  1  0  0  0  0  0  0  0  0  0
   38.8870   27.5580   36.0140 O   0  0  0  0  0  0  0  0  0  0  0  0
   38.2890   28.0000   36.6730 H   0  0  0  0  0  0  0  0  0  0  0  0
   38.6240   27.2300   33.2670 O   0  0  0  0  0  0  0  0  0  0  0  0
   41.8320   27.0420   31.4560 C   0  0  0  0  0  0  0  0  0  0  0  0
   40.4440   27.0840   31.6090 C   0  0  0  0  0  0  0  0  0  0  0  0
   39.9150   27.1760   32.8920 C   0  0  0  0  0  0  0  0  0  0  0  0
   40.7910   27.2210   33.9410 N   0  0  0  0  0  0  0  0  0  0  0  0
   42.1280   27.1780   33.7570 C   0  0  0  0  0  0  0  0  0  0  0  0
   42.6450   27.0890   32.5220 N   0  0  0  0  0  0  0  0  0  0  0  0
   42.1700   26.9700   30.4290 H   0  0  0  0  0  0  0  0  0  0  0  0
   39.7040   27.0540   30.8460 H   0  0  0  0  0  0  0  0  0  0  0  0
   42.8150   27.2160   34.6060 H   0  0  0  0  0  0  0  0  0  0  0  0
  1  2  1  0  0  0  0
  2  3  2  0  0  0  0
  2  7  1  0  0  0  0
  3  4  1  0  0  0  0
  4  8  1  0  0  0  0
  4  5  2  0  0  0  0
  5  9  1  0  0  0  0
  6  5  1  0  0  0  0
  6 10  1  0  0  0  0
  7  6  2  0  0  0  0
 11  7  1  0  0  0  0
 12 11  2  0  0  0  0
 12 13  1  0  0  0  0
 14 12  1  0  0  0  0
 15 14  1  0  0  0  0
 16 14  2  0  0  0  0
 16 18  1  0  0  0  0
 17 16  1  0  0  0  0
 18 11  1  0  0  0  0
 19  3  1  0  0  0  0
 21 20  2  1  0  0  0
 21 19  1  0  0  0  0
 21 22  1  0  0  0  0
 22 23  1  0  0  0  0
 24 21  1  0  0  0  0
 25 26  2  0  0  0  0
 25 30  1  0  0  0  0
 26 27  1  0  0  0  0
 27 24  1  0  0  0  0
 27 28  2  0  0  0  0
 29 28  1  0  0  0  0
 29 33  1  0  0  0  0
 30 29  2  0  0  0  0
 31 25  1  0  0  0  0
 32 26  1  0  0  0  0
M  END
>  <minimizedAffinity>
-5.19384098

$$$$

 OpenBabel03272508133D

 33 35  0  0  0  0  0  0  0  0999 V2000
   37.9140   23.3950   34.2110 Cl  0  0  0  0  0  0  0  0  0  0  0  0
   37.8380   25.1290   34.5720 C   0  0  0  0  0  0  0  0  0  0  0  0
   37.4320   26.1060   33.6620 C   0  0  0  0  0  0  0  0  0  0  0  0
   37.4250   27.4250   34.0830 C   0  0  0  0  0  0  0  0  0  0  0  0
   37.8080   27.7510   35.3570 C   0  0  0  0  0  0  0  0  0  0  0  0
   38.2050   26.8190   36.2580 C   0  0  0  0  0  0  0  0  0  0  0  0
   38.2250   25.4990   35.8750 C   0  0  0  0  0  0  0  0  0  0  0  0
   37.0940   28.0910   33.2960 H   0  0  0  0  0  0  0  0  0  0  0  0
   37.7730   28.8030   35.6040 H   0  0  0  0  0  0  0  0  0  0  0  0
   38.5070   27.0860   37.2640 H   0  0  0  0  0  0  0  0  0  0  0  0
   38.6490   24.4700   36.8240 C   0  0  0  0  0  0  0  0  0  0  0  0
   38.0430   24.1990   38.0310 C   0  0  0  0  0  0  0  0  0  0  0  0
   37.1890   24.6540   38.4970 H   0  0  0  0  0  0  0  0  0  0  0  0
   38.7360   23.1590   38.6400 C   0  0  0  0  0  0  0  0  0  0  0  0
   38.6340   22.6240   39.5650 H   0  0  0  0  0  0  0  0  0  0  0  0
   39.7600   22.8490   37.7380 C   0  0  0  0  0  0  0  0  0  0  0  0
   40.5190   22.0830   37.8580 H   0  0  0  0  0  0  0  0  0  0  0  0
   39.6590   23.6460   36.6990 O   0  0  0  0  0  0  0  0  0  0  0  0
   37.0960   25.5600   32.4540 O   0  0  0  0  0  0  0  0  0  0  0  0
   37.8280   24.3080   30.3150 O   0  0  0  0  0  0  0  0  0  0  0  0
   37.8980   25.6390   30.9930 P   0  0  1  0  0  0  0  0  0  0  0  0
   37.0270   26.7930   30.0740 O   0  0  0  0  0  0  0  0  0  0  0  0
   36.5150   26.3210   29.3660 H   0  0  0  0  0  0  0  0  0  0  0  0
   39.4800   26.1950   31.2360 O   0  0  0  0  0  0  0  0  0  0  0  0
   41.7320   24.6430   33.7120 C   0  0  0  0  0  0  0  0  0  0  0  0
   40.8570   24.6910   32.6230 C   0  0  0  0  0  0  0  0  0  0  0  0
   40.3310   25.9200   32.2420 C   0  0  0  0  0  0  0  0  0  0  0  0
   40.7040   27.0240   32.9580 N   0  0  0  0  0  0  0  0  0  0  0  0
   41.5520   26.9410   34.0050 C   0  0  0  0  0  0  0  0  0  0  0  0
   42.0630   25.7580   34.3790 N   0  0  0  0  0  0  0  0  0  0  0  0
   42.1000   23.6520   33.9500 H   0  0  0  0  0  0  0  0  0  0  0  0
   40.5230   23.8810   32.0210 H   0  0  0  0  0  0  0  0  0  0  0  0
   41.8410   27.8320   34.5680 H   0  0  0  0  0  0  0  0  0  0  0  0
  1  2  1  0  0  0  0
  2  7  1  0  0  0  0
  3  4  1  0  0  0  0
  3  2  2  0  0  0  0
  4  5  2  0  0  0  0
  5  9  1  0  0  0  0
  5  6  1  0  0  0  0
  6 10  1  0  0  0  0
  7  6  2  0  0  0  0
  7 11  1  0  0  0  0
  8  4  1  0  0  0  0
 11 12  2  0  0  0  0
 12 13  1  0  0  0  0
 12 14  1  0  0  0  0
 14 15  1  0  0  0  0
 16 17  1  0  0  0  0
 16 14  2  0  0  0  0
 18 11  1  0  0  0  0
 18 16  1  0  0  0  0
 19  3  1  0  0  0  0
 21 20  2  6  0  0  0
 21 24  1  0  0  0  0
 21 19  1  0  0  0  0
 22 21  1  0  0  0  0
 23 22  1  0  0  0  0
 24 27  1  0  0  0  0
 25 31  1  0  0  0  0
 25 30  1  0  0  0  0
 26 25  2  0  0  0  0
 27 26  1  0  0  0  0
 27 28  2  0  0  0  0
 28 29  1  0  0  0  0
 29 30  2  0  0  0  0
 29 33  1  0  0  0  0
 32 26  1  0  0  0  0
M  END
>  <minimizedAffinity>
-5.11924362

$$$$

 OpenBabel03272508133D

 33 35  0  0  0  0  0  0  0  0999 V2000
   37.7770   22.9920   34.4920 Cl  0  0  0  0  0  0  0  0  0  0  0  0
   38.4940   24.5950   34.2460 C   0  0  0  0  0  0  0  0  0  0  0  0
   37.9330   25.5950   33.4530 C   0  0  0  0  0  0  0  0  0  0  0  0
   38.6070   26.8010   33.3500 C   0  0  0  0  0  0  0  0  0  0  0  0
   39.7920   26.9940   34.0110 C   0  0  0  0  0  0  0  0  0  0  0  0
   40.3550   26.0370   34.7880 C   0  0  0  0  0  0  0  0  0  0  0  0
   39.7130   24.8270   34.9130 C   0  0  0  0  0  0  0  0  0  0  0  0
   38.0790   27.4970   32.7110 H   0  0  0  0  0  0  0  0  0  0  0  0
   40.2520   27.9620   33.8770 H   0  0  0  0  0  0  0  0  0  0  0  0
   41.2920   26.1980   35.3070 H   0  0  0  0  0  0  0  0  0  0  0  0
   40.2970   23.7740   35.7440 C   0  0  0  0  0  0  0  0  0  0  0  0
   41.4350   23.0590   35.4420 C   0  0  0  0  0  0  0  0  0  0  0  0
   42.0880   23.1190   34.5920 H   0  0  0  0  0  0  0  0  0  0  0  0
   41.6640   22.1550   36.4730 C   0  0  0  0  0  0  0  0  0  0  0  0
   42.4110   21.4100   36.6710 H   0  0  0  0  0  0  0  0  0  0  0  0
   40.6160   22.3800   37.3720 C   0  0  0  0  0  0  0  0  0  0  0  0
   40.4450   21.8640   38.3110 H   0  0  0  0  0  0  0  0  0  0  0  0
   39.8510   23.3350   36.8940 O   0  0  0  0  0  0  0  0  0  0  0  0
   36.7550   25.1890   32.8880 O   0  0  0  0  0  0  0  0  0  0  0  0
   35.5710   26.2040   30.8270 O   0  0  0  0  0  0  0  0  0  0  0  0
   36.3550   25.0120   31.2780 P   0  0  1  0  0  0  0  0  0  0  0  0
   37.8560   24.9730   30.4540 O   0  0  0  0  0  0  0  0  0  0  0  0
   37.9780   25.8290   29.9650 H   0  0  0  0  0  0  0  0  0  0  0  0
   35.5480   23.5410   31.0440 O   0  0  0  0  0  0  0  0  0  0  0  0
   35.6520   20.2100   32.6270 C   0  0  0  0  0  0  0  0  0  0  0  0
   35.1070   21.4460   32.2700 C   0  0  0  0  0  0  0  0  0  0  0  0
   35.8710   22.3150   31.4970 C   0  0  0  0  0  0  0  0  0  0  0  0
   37.1220   21.9070   31.1250 N   0  0  0  0  0  0  0  0  0  0  0  0
   37.6170   20.7050   31.4880 C   0  0  0  0  0  0  0  0  0  0  0  0
   36.8870   19.8620   32.2340 N   0  0  0  0  0  0  0  0  0  0  0  0
   35.0010   19.5880   33.2290 H   0  0  0  0  0  0  0  0  0  0  0  0
   34.1490   21.8310   32.5200 H   0  0  0  0  0  0  0  0  0  0  0  0
   38.6190   20.3920   31.1830 H   0  0  0  0  0  0  0  0  0  0  0  0
  2  1  1  0  0  0  0
  2  7  1  0  0  0  0
  3  2  2  0  0  0  0
  4  3  1  0  0  0  0
  4  5  2  0  0  0  0
  5  6  1  0  0  0  0
  6  7  2  0  0  0  0
  6 10  1  0  0  0  0
  7 11  1  0  0  0  0
  8  4  1  0  0  0  0
  9  5  1  0  0  0  0
 11 18  1  0  0  0  0
 12 11  2  0  0  0  0
 12 14  1  0  0  0  0
 13 12  1  0  0  0  0
 14 15  1  0  0  0  0
 14 16  2  0  0  0  0
 16 17  1  0  0  0  0
 18 16  1  0  0  0  0
 19  3  1  0  0  0  0
 21 20  2  6  0  0  0
 21 19  1  0  0  0  0
 22 21  1  0  0  0  0
 23 22  1  0  0  0  0
 24 21  1  0  0  0  0
 24 27  1  0  0  0  0
 25 31  1  0  0  0  0
 26 32  1  0  0  0  0
 26 25  1  0  0  0  0
 27 26  2  0  0  0  0
 28 29  2  0  0  0  0
 28 27  1  0  0  0  0
 29 30  1  0  0  0  0
 30 25  2  0  0  0  0
 33 29  1  0  0  0  0
M  END
>  <minimizedAffinity>
-5.10663223

$$$$

 OpenBabel03272508133D

 33 35  0  0  0  0  0  0  0  0999 V2000
   39.4910   25.1950   31.8640 Cl  0  0  0  0  0  0  0  0  0  0  0  0
   38.9590   26.0290   33.3350 C   0  0  0  0  0  0  0  0  0  0  0  0
   39.8210   26.5320   34.3100 C   0  0  0  0  0  0  0  0  0  0  0  0
   39.2630   27.1600   35.4120 C   0  0  0  0  0  0  0  0  0  0  0  0
   37.9030   27.2760   35.5310 C   0  0  0  0  0  0  0  0  0  0  0  0
   37.0470   26.7950   34.5970 C   0  0  0  0  0  0  0  0  0  0  0  0
   37.5660   26.1660   33.4890 C   0  0  0  0  0  0  0  0  0  0  0  0
   40.0250   27.5080   36.0980 H   0  0  0  0  0  0  0  0  0  0  0  0
   37.5510   27.7790   36.4210 H   0  0  0  0  0  0  0  0  0  0  0  0
   35.9730   26.8910   34.6990 H   0  0  0  0  0  0  0  0  0  0  0  0
   36.6670   25.6360   32.4640 C   0  0  0  0  0  0  0  0  0  0  0  0
   35.9450   26.3920   31.5670 C   0  0  0  0  0  0  0  0  0  0  0  0
   35.8940   27.4580   31.4400 H   0  0  0  0  0  0  0  0  0  0  0  0
   35.2150   25.5280   30.7600 C   0  0  0  0  0  0  0  0  0  0  0  0
   34.5290   25.6550   29.9450 H   0  0  0  0  0  0  0  0  0  0  0  0
   35.5450   24.2520   31.2300 C   0  0  0  0  0  0  0  0  0  0  0  0
   35.1730   23.3050   30.8520 H   0  0  0  0  0  0  0  0  0  0  0  0
   36.3950   24.3770   32.2240 O   0  0  0  0  0  0  0  0  0  0  0  0
   41.1310   26.3070   33.9900 O   0  0  0  0  0  0  0  0  0  0  0  0
   42.8170   24.4350   33.4130 O   0  0  0  0  0  0  0  0  0  0  0  0
   42.1800   25.1430   34.5660 P   0  0  1  0  0  0  0  0  0  0  0  0
   43.3740   26.0160   35.4290 O   0  0  0  0  0  0  0  0  0  0  0  0
   44.2180   26.0130   34.9050 H   0  0  0  0  0  0  0  0  0  0  0  0
   41.3620   24.1090   35.6300 O   0  0  0  0  0  0  0  0  0  0  0  0
   37.9320   22.7840   35.9300 C   0  0  0  0  0  0  0  0  0  0  0  0
   39.0650   23.5120   36.3030 C   0  0  0  0  0  0  0  0  0  0  0  0
   40.1780   23.4890   35.4690 C   0  0  0  0  0  0  0  0  0  0  0  0
   40.1010   22.7510   34.3210 N   0  0  0  0  0  0  0  0  0  0  0  0
   38.9890   22.0590   33.9910 C   0  0  0  0  0  0  0  0  0  0  0  0
   37.9120   22.0760   34.7910 N   0  0  0  0  0  0  0  0  0  0  0  0
   37.1060   22.8490   36.6280 H   0  0  0  0  0  0  0  0  0  0  0  0
   39.2000   24.1060   37.1740 H   0  0  0  0  0  0  0  0  0  0  0  0
   38.9410   21.4730   33.0700 H   0  0  0  0  0  0  0  0  0  0  0  0
  1  2  1  0  0  0  0
  2  7  2  0  0  0  0
  2  3  1  0  0  0  0
  3  4  2  0  0  0  0
  4  5  1  0  0  0  0
  4  8  1  0  0  0  0
  5  9  1  0  0  0  0
  6 10  1  0  0  0  0
  6  5  2  0  0  0  0
  7  6  1  0  0  0  0
 11  7  1  0  0  0  0
 12 11  2  0  0  0  0
 13 12  1  0  0  0  0
 14 16  2  0  0  0  0
 14 12  1  0  0  0  0
 15 14  1  0  0  0  0
 16 18  1  0  0  0  0
 17 16  1  0  0  0  0
 18 11  1  0  0  0  0
 19  3  1  0  0  0  0
 19 21  1  0  0  0  0
 21 20  2  6  0  0  0
 21 22  1  0  0  0  0
 21 24  1  0  0  0  0
 23 22  1  0  0  0  0
 25 26  1  0  0  0  0
 25 31  1  0  0  0  0
 26 32  1  0  0  0  0
 27 24  1  0  0  0  0
 27 26  2  0  0  0  0
 28 27  1  0  0  0  0
 29 28  2  0  0  0  0
 29 30  1  0  0  0  0
 30 25  2  0  0  0  0
 33 29  1  0  0  0  0
M  END
>  <minimizedAffinity>
-5.08828783

$$$$
