
 OpenBabel03272508463D

 26 28  0  0  0  0  0  0  0  0999 V2000
   37.2780   26.4480   33.9520 C   0  0  0  0  0  0  0  0  0  0  0  0
   37.6400   27.5320   34.7460 C   0  0  0  0  0  0  0  0  0  0  0  0
   38.1470   26.9120   35.8890 C   0  0  0  0  0  0  0  0  0  0  0  0
   38.0720   25.5500   35.7410 C   0  0  0  0  0  0  0  0  0  0  0  0
   37.5490   25.2930   34.5750 O   0  0  0  0  0  0  0  0  0  0  0  0
   37.5390   28.5690   34.5060 H   0  0  0  0  0  0  0  0  0  0  0  0
   38.5380   27.4360   36.7560 H   0  0  0  0  0  0  0  0  0  0  0  0
   38.5040   24.5590   36.7210 C   0  0  0  0  0  0  0  0  0  0  0  0
   38.0000   24.3700   37.9910 C   0  0  0  0  0  0  0  0  0  0  0  0
   37.1880   24.9560   38.4400 H   0  0  0  0  0  0  0  0  0  0  0  0
   38.6850   23.3250   38.6010 C   0  0  0  0  0  0  0  0  0  0  0  0
   38.4640   22.9950   39.6020 H   0  0  0  0  0  0  0  0  0  0  0  0
   39.5840   22.9360   37.6400 C   0  0  0  0  0  0  0  0  0  0  0  0
   40.2860   22.1080   37.8290 H   0  0  0  0  0  0  0  0  0  0  0  0
   39.4680   23.6610   36.5530 O   0  0  0  0  0  0  0  0  0  0  0  0
   36.6770   26.5670   32.6090 C   0  0  0  0  0  0  0  0  0  0  0  0
   36.4340   25.5070   31.9940 O   0  0  0  0  0  0  0  0  0  0  0  0
   37.1260   29.6230   30.7050 C   0  0  0  0  0  0  0  0  0  0  0  0
   35.9700   30.3610   31.0020 C   0  0  0  0  0  0  0  0  0  0  0  0
   35.0250   29.8200   31.8570 C   0  0  0  0  0  0  0  0  0  0  0  0
   35.2800   28.5860   32.3650 N   0  0  0  0  0  0  0  0  0  0  0  0
   36.3960   27.8980   32.0650 C   0  0  0  0  0  0  0  0  0  0  0  0
   37.3230   28.4050   31.2390 N   0  0  0  0  0  0  0  0  0  0  0  0
   37.8060   30.1290   30.0280 H   0  0  0  0  0  0  0  0  0  0  0  0
   35.7350   31.3330   30.6230 H   0  0  0  0  0  0  0  0  0  0  0  0
   34.1050   30.3250   32.1390 H   0  0  0  0  0  0  0  0  0  0  0  0
  1  5  1  0  0  0  0
  1  2  2  0  0  0  0
  2  3  1  0  0  0  0
  3  7  1  0  0  0  0
  4  3  2  0  0  0  0
  4  8  1  0  0  0  0
  5  4  1  0  0  0  0
  6  2  1  0  0  0  0
  8  9  2  0  0  0  0
  9 10  1  0  0  0  0
  9 11  1  0  0  0  0
 11 12  1  0  0  0  0
 13 14  1  0  0  0  0
 13 11  2  0  0  0  0
 15  8  1  0  0  0  0
 15 13  1  0  0  0  0
 16  1  1  0  0  0  0
 17 16  2  0  0  0  0
 18 19  2  0  0  0  0
 18 23  1  0  0  0  0
 19 20  1  0  0  0  0
 20 26  1  0  0  0  0
 20 21  2  0  0  0  0
 22 21  1  0  0  0  0
 22 16  1  0  0  0  0
 23 22  2  0  0  0  0
 24 18  1  0  0  0  0
 25 19  1  0  0  0  0
M  END
>  <minimizedAffinity>
-4.96307659

$$$$

 OpenBabel03272508463D

 26 28  0  0  0  0  0  0  0  0999 V2000
   37.9980   25.5130   35.8400 C   0  0  0  0  0  0  0  0  0  0  0  0
   38.3440   26.7550   36.3600 C   0  0  0  0  0  0  0  0  0  0  0  0
   37.9480   27.6280   35.3460 C   0  0  0  0  0  0  0  0  0  0  0  0
   37.4070   26.9080   34.3110 C   0  0  0  0  0  0  0  0  0  0  0  0
   37.4460   25.6450   34.6260 O   0  0  0  0  0  0  0  0  0  0  0  0
   38.8010   26.9540   37.3060 H   0  0  0  0  0  0  0  0  0  0  0  0
   38.0560   28.7080   35.3800 H   0  0  0  0  0  0  0  0  0  0  0  0
   36.8770   27.4630   33.0700 C   0  0  0  0  0  0  0  0  0  0  0  0
   36.2610   28.6860   32.9010 C   0  0  0  0  0  0  0  0  0  0  0  0
   36.0840   29.4180   33.6990 H   0  0  0  0  0  0  0  0  0  0  0  0
   35.9030   28.8350   31.5650 C   0  0  0  0  0  0  0  0  0  0  0  0
   35.4060   29.7150   31.1940 H   0  0  0  0  0  0  0  0  0  0  0  0
   36.3360   27.6660   30.9920 C   0  0  0  0  0  0  0  0  0  0  0  0
   36.1930   27.4800   29.9160 H   0  0  0  0  0  0  0  0  0  0  0  0
   36.9000   26.8770   31.8770 O   0  0  0  0  0  0  0  0  0  0  0  0
   38.2140   24.2310   36.5390 C   0  0  0  0  0  0  0  0  0  0  0  0
   37.2410   23.7380   37.1470 O   0  0  0  0  0  0  0  0  0  0  0  0
   40.9760   22.0540   37.4330 C   0  0  0  0  0  0  0  0  0  0  0  0
   41.9610   22.3770   36.4870 C   0  0  0  0  0  0  0  0  0  0  0  0
   41.6890   23.3430   35.5320 C   0  0  0  0  0  0  0  0  0  0  0  0
   40.4640   23.9290   35.5730 N   0  0  0  0  0  0  0  0  0  0  0  0
   39.5360   23.6030   36.4900 C   0  0  0  0  0  0  0  0  0  0  0  0
   39.7810   22.6700   37.4220 N   0  0  0  0  0  0  0  0  0  0  0  0
   41.2820   21.2880   38.1380 H   0  0  0  0  0  0  0  0  0  0  0  0
   42.9340   21.9390   36.4240 H   0  0  0  0  0  0  0  0  0  0  0  0
   42.3950   23.6510   34.7660 H   0  0  0  0  0  0  0  0  0  0  0  0
  1  2  2  0  0  0  0
  1 16  1  0  0  0  0
  2  6  1  0  0  0  0
  3  7  1  0  0  0  0
  3  2  1  0  0  0  0
  4  5  1  0  0  0  0
  4  3  2  0  0  0  0
  5  1  1  0  0  0  0
  8  4  1  0  0  0  0
  9  8  2  0  0  0  0
  9 10  1  0  0  0  0
 11  9  1  0  0  0  0
 12 11  1  0  0  0  0
 13 11  2  0  0  0  0
 13 15  1  0  0  0  0
 14 13  1  0  0  0  0
 15  8  1  0  0  0  0
 16 17  2  0  0  0  0
 18 24  1  0  0  0  0
 19 18  2  0  0  0  0
 20 21  2  0  0  0  0
 20 19  1  0  0  0  0
 21 22  1  0  0  0  0
 22 16  1  0  0  0  0
 22 23  2  0  0  0  0
 23 18  1  0  0  0  0
 25 19  1  0  0  0  0
 26 20  1  0  0  0  0
M  END
>  <minimizedAffinity>
-4.93842077

$$$$

 OpenBabel03272508463D

 26 28  0  0  0  0  0  0  0  0999 V2000
   37.3420   26.0620   33.6430 C   0  0  0  0  0  0  0  0  0  0  0  0
   37.4960   27.2130   34.4090 C   0  0  0  0  0  0  0  0  0  0  0  0
   37.9500   26.7070   35.6280 C   0  0  0  0  0  0  0  0  0  0  0  0
   38.0440   25.3410   35.5460 C   0  0  0  0  0  0  0  0  0  0  0  0
   37.6760   24.9750   34.3510 O   0  0  0  0  0  0  0  0  0  0  0  0
   37.3050   28.2210   34.1050 H   0  0  0  0  0  0  0  0  0  0  0  0
   38.1880   27.3090   36.4980 H   0  0  0  0  0  0  0  0  0  0  0  0
   38.4820   24.4500   36.6160 C   0  0  0  0  0  0  0  0  0  0  0  0
   37.9500   24.3480   37.8840 C   0  0  0  0  0  0  0  0  0  0  0  0
   37.1060   24.9390   38.2630 H   0  0  0  0  0  0  0  0  0  0  0  0
   38.6530   23.3810   38.5960 C   0  0  0  0  0  0  0  0  0  0  0  0
   38.4150   23.1270   39.6150 H   0  0  0  0  0  0  0  0  0  0  0  0
   39.5900   22.9470   37.6930 C   0  0  0  0  0  0  0  0  0  0  0  0
   40.3140   22.1630   37.9680 H   0  0  0  0  0  0  0  0  0  0  0  0
   39.4800   23.5750   36.5470 O   0  0  0  0  0  0  0  0  0  0  0  0
   36.8730   26.0530   32.2440 C   0  0  0  0  0  0  0  0  0  0  0  0
   36.0290   25.1880   31.9280 O   0  0  0  0  0  0  0  0  0  0  0  0
   36.9310   28.7740   29.8440 C   0  0  0  0  0  0  0  0  0  0  0  0
   38.2940   28.9070   29.5400 C   0  0  0  0  0  0  0  0  0  0  0  0
   39.2080   28.0670   30.1540 C   0  0  0  0  0  0  0  0  0  0  0  0
   38.7190   27.1490   31.0280 N   0  0  0  0  0  0  0  0  0  0  0  0
   37.4070   27.0400   31.3030 C   0  0  0  0  0  0  0  0  0  0  0  0
   36.5060   27.8450   30.7190 N   0  0  0  0  0  0  0  0  0  0  0  0
   36.2940   29.4750   29.3150 H   0  0  0  0  0  0  0  0  0  0  0  0
   38.7160   29.6160   28.8590 H   0  0  0  0  0  0  0  0  0  0  0  0
   40.2790   28.1040   29.9740 H   0  0  0  0  0  0  0  0  0  0  0  0
  1  5  1  0  0  0  0
  1  2  2  0  0  0  0
  2  3  1  0  0  0  0
  3  7  1  0  0  0  0
  4  3  2  0  0  0  0
  4  8  1  0  0  0  0
  5  4  1  0  0  0  0
  6  2  1  0  0  0  0
  8  9  2  0  0  0  0
  9 10  1  0  0  0  0
  9 11  1  0  0  0  0
 11 12  1  0  0  0  0
 13 14  1  0  0  0  0
 13 11  2  0  0  0  0
 15  8  1  0  0  0  0
 15 13  1  0  0  0  0
 16  1  1  0  0  0  0
 17 16  2  0  0  0  0
 18 23  1  0  0  0  0
 19 18  2  0  0  0  0
 19 20  1  0  0  0  0
 20 21  2  0  0  0  0
 21 22  1  0  0  0  0
 22 16  1  0  0  0  0
 23 22  2  0  0  0  0
 24 18  1  0  0  0  0
 25 19  1  0  0  0  0
 26 20  1  0  0  0  0
M  END
>  <minimizedAffinity>
-4.83707809

$$$$

 OpenBabel03272508463D

 26 28  0  0  0  0  0  0  0  0999 V2000
   37.6290   22.2140   35.9730 C   0  0  0  0  0  0  0  0  0  0  0  0
   36.6190   21.8460   36.8550 C   0  0  0  0  0  0  0  0  0  0  0  0
   35.7460   21.1300   36.0340 C   0  0  0  0  0  0  0  0  0  0  0  0
   36.2450   21.1000   34.7560 C   0  0  0  0  0  0  0  0  0  0  0  0
   37.3720   21.7540   34.7400 O   0  0  0  0  0  0  0  0  0  0  0  0
   36.5590   22.0740   37.8990 H   0  0  0  0  0  0  0  0  0  0  0  0
   34.8200   20.6730   36.3650 H   0  0  0  0  0  0  0  0  0  0  0  0
   35.6210   20.4460   33.6110 C   0  0  0  0  0  0  0  0  0  0  0  0
   34.9770   21.0560   32.5540 C   0  0  0  0  0  0  0  0  0  0  0  0
   34.8480   22.1390   32.4350 H   0  0  0  0  0  0  0  0  0  0  0  0
   34.5230   20.0800   31.6730 C   0  0  0  0  0  0  0  0  0  0  0  0
   33.9880   20.3200   30.7700 H   0  0  0  0  0  0  0  0  0  0  0  0
   34.9290   18.9110   32.2650 C   0  0  0  0  0  0  0  0  0  0  0  0
   34.7120   17.9380   31.7960 H   0  0  0  0  0  0  0  0  0  0  0  0
   35.5660   19.1370   33.3900 O   0  0  0  0  0  0  0  0  0  0  0  0
   38.8170   23.0030   36.3530 C   0  0  0  0  0  0  0  0  0  0  0  0
   39.7070   22.4210   37.0090 O   0  0  0  0  0  0  0  0  0  0  0  0
   40.1360   26.0400   34.8680 C   0  0  0  0  0  0  0  0  0  0  0  0
   39.1530   26.9960   35.1610 C   0  0  0  0  0  0  0  0  0  0  0  0
   38.0270   26.6110   35.8690 C   0  0  0  0  0  0  0  0  0  0  0  0
   37.9430   25.3080   36.2440 N   0  0  0  0  0  0  0  0  0  0  0  0
   38.9000   24.4090   35.9520 C   0  0  0  0  0  0  0  0  0  0  0  0
   39.9980   24.7630   35.2670 N   0  0  0  0  0  0  0  0  0  0  0  0
   40.9790   26.4360   34.3110 H   0  0  0  0  0  0  0  0  0  0  0  0
   39.1830   28.0290   34.8840 H   0  0  0  0  0  0  0  0  0  0  0  0
   37.2200   27.2890   36.1370 H   0  0  0  0  0  0  0  0  0  0  0  0
  1 16  1  0  0  0  0
  1  2  2  0  0  0  0
  2  6  1  0  0  0  0
  3  7  1  0  0  0  0
  3  2  1  0  0  0  0
  4  3  2  0  0  0  0
  5  4  1  0  0  0  0
  5  1  1  0  0  0  0
  8  4  1  0  0  0  0
  9  8  2  0  0  0  0
 10  9  1  0  0  0  0
 11 13  2  0  0  0  0
 11  9  1  0  0  0  0
 12 11  1  0  0  0  0
 13 15  1  0  0  0  0
 14 13  1  0  0  0  0
 15  8  1  0  0  0  0
 16 17  2  0  0  0  0
 18 19  2  0  0  0  0
 18 23  1  0  0  0  0
 19 20  1  0  0  0  0
 20 26  1  0  0  0  0
 20 21  2  0  0  0  0
 22 21  1  0  0  0  0
 22 16  1  0  0  0  0
 23 22  2  0  0  0  0
 24 18  1  0  0  0  0
 25 19  1  0  0  0  0
M  END
>  <minimizedAffinity>
-4.77368784

$$$$

 OpenBabel03272508463D

 26 28  0  0  0  0  0  0  0  0999 V2000
   37.8570   24.1560   33.4760 C   0  0  0  0  0  0  0  0  0  0  0  0
   37.2740   24.8070   32.3940 C   0  0  0  0  0  0  0  0  0  0  0  0
   36.5850   23.7740   31.7560 C   0  0  0  0  0  0  0  0  0  0  0  0
   36.7750   22.6050   32.4480 C   0  0  0  0  0  0  0  0  0  0  0  0
   37.5380   22.8540   33.4740 O   0  0  0  0  0  0  0  0  0  0  0  0
   37.3560   25.8440   32.1440 H   0  0  0  0  0  0  0  0  0  0  0  0
   35.9950   23.8890   30.8530 H   0  0  0  0  0  0  0  0  0  0  0  0
   36.2150   21.3040   32.0950 C   0  0  0  0  0  0  0  0  0  0  0  0
   35.1350   20.6770   32.6800 C   0  0  0  0  0  0  0  0  0  0  0  0
   34.5410   21.0850   33.5070 H   0  0  0  0  0  0  0  0  0  0  0  0
   34.9250   19.4530   32.0530 C   0  0  0  0  0  0  0  0  0  0  0  0
   34.1320   18.7830   32.3420 H   0  0  0  0  0  0  0  0  0  0  0  0
   35.9150   19.4130   31.1040 C   0  0  0  0  0  0  0  0  0  0  0  0
   36.0140   18.5470   30.4310 H   0  0  0  0  0  0  0  0  0  0  0  0
   36.6580   20.4940   31.1390 O   0  0  0  0  0  0  0  0  0  0  0  0
   38.7090   24.8180   34.4820 C   0  0  0  0  0  0  0  0  0  0  0  0
   39.3670   25.8130   34.1110 O   0  0  0  0  0  0  0  0  0  0  0  0
   39.7740   22.8460   37.3350 C   0  0  0  0  0  0  0  0  0  0  0  0
   38.8980   23.2510   38.3540 C   0  0  0  0  0  0  0  0  0  0  0  0
   37.9340   24.2050   38.0740 C   0  0  0  0  0  0  0  0  0  0  0  0
   37.8950   24.6970   36.8080 N   0  0  0  0  0  0  0  0  0  0  0  0
   38.7460   24.2920   35.8490 C   0  0  0  0  0  0  0  0  0  0  0  0
   39.6870   23.3700   36.1000 N   0  0  0  0  0  0  0  0  0  0  0  0
   40.4930   22.0960   37.6510 H   0  0  0  0  0  0  0  0  0  0  0  0
   38.8980   22.8880   39.3590 H   0  0  0  0  0  0  0  0  0  0  0  0
   37.2180   24.5730   38.8040 H   0  0  0  0  0  0  0  0  0  0  0  0
  1 16  1  0  0  0  0
  2  1  2  0  0  0  0
  3  2  1  0  0  0  0
  3  4  2  0  0  0  0
  4  5  1  0  0  0  0
  5  1  1  0  0  0  0
  6  2  1  0  0  0  0
  7  3  1  0  0  0  0
  8  4  1  0  0  0  0
  8  9  2  0  0  0  0
  9 10  1  0  0  0  0
 11 12  1  0  0  0  0
 11  9  1  0  0  0  0
 13 15  1  0  0  0  0
 13 11  2  0  0  0  0
 14 13  1  0  0  0  0
 15  8  1  0  0  0  0
 16 22  1  0  0  0  0
 17 16  2  0  0  0  0
 18 24  1  0  0  0  0
 18 19  1  0  0  0  0
 19 25  1  0  0  0  0
 20 19  2  0  0  0  0
 20 26  1  0  0  0  0
 21 20  1  0  0  0  0
 22 23  1  0  0  0  0
 22 21  2  0  0  0  0
 23 18  2  0  0  0  0
M  END
>  <minimizedAffinity>
-4.74495029

$$$$

 OpenBabel03272508463D

 26 28  0  0  0  0  0  0  0  0999 V2000
   36.8560   25.2030   31.6170 C   0  0  0  0  0  0  0  0  0  0  0  0
   35.5870   25.4770   31.1160 C   0  0  0  0  0  0  0  0  0  0  0  0
   35.0090   24.2080   31.0490 C   0  0  0  0  0  0  0  0  0  0  0  0
   35.9100   23.2730   31.4920 C   0  0  0  0  0  0  0  0  0  0  0  0
   37.0090   23.8890   31.8270 O   0  0  0  0  0  0  0  0  0  0  0  0
   35.1880   26.4340   30.8560 H   0  0  0  0  0  0  0  0  0  0  0  0
   34.0020   24.0040   30.7000 H   0  0  0  0  0  0  0  0  0  0  0  0
   35.6780   21.8350   31.5740 C   0  0  0  0  0  0  0  0  0  0  0  0
   36.3190   20.8460   30.8570 C   0  0  0  0  0  0  0  0  0  0  0  0
   37.1070   21.0170   30.1120 H   0  0  0  0  0  0  0  0  0  0  0  0
   35.8060   19.6080   31.2300 C   0  0  0  0  0  0  0  0  0  0  0  0
   36.1550   18.6840   30.8010 H   0  0  0  0  0  0  0  0  0  0  0  0
   34.8630   19.9310   32.1730 C   0  0  0  0  0  0  0  0  0  0  0  0
   34.2710   19.1450   32.6680 H   0  0  0  0  0  0  0  0  0  0  0  0
   34.7990   21.2270   32.3640 O   0  0  0  0  0  0  0  0  0  0  0  0
   37.8840   26.2290   31.8770 C   0  0  0  0  0  0  0  0  0  0  0  0
   38.4730   26.7150   30.8880 O   0  0  0  0  0  0  0  0  0  0  0  0
   39.7040   26.6530   34.9870 C   0  0  0  0  0  0  0  0  0  0  0  0
   38.7860   27.3240   35.8100 C   0  0  0  0  0  0  0  0  0  0  0  0
   37.5340   27.6390   35.3070 C   0  0  0  0  0  0  0  0  0  0  0  0
   37.2680   27.2710   34.0270 N   0  0  0  0  0  0  0  0  0  0  0  0
   38.1650   26.6280   33.2580 C   0  0  0  0  0  0  0  0  0  0  0  0
   39.3820   26.3150   33.7260 N   0  0  0  0  0  0  0  0  0  0  0  0
   40.6550   26.4510   35.4680 H   0  0  0  0  0  0  0  0  0  0  0  0
   38.9590   27.6280   36.8200 H   0  0  0  0  0  0  0  0  0  0  0  0
   36.7670   28.1560   35.8770 H   0  0  0  0  0  0  0  0  0  0  0  0
  1  5  1  0  0  0  0
  1 16  1  0  0  0  0
  2  1  2  0  0  0  0
  3  2  1  0  0  0  0
  3  4  2  0  0  0  0
  4  8  1  0  0  0  0
  4  5  1  0  0  0  0
  6  2  1  0  0  0  0
  7  3  1  0  0  0  0
  8 15  1  0  0  0  0
  9 11  1  0  0  0  0
  9  8  2  0  0  0  0
 10  9  1  0  0  0  0
 11 13  2  0  0  0  0
 12 11  1  0  0  0  0
 13 15  1  0  0  0  0
 13 14  1  0  0  0  0
 16 22  1  0  0  0  0
 17 16  2  0  0  0  0
 18 24  1  0  0  0  0
 18 19  1  0  0  0  0
 19 25  1  0  0  0  0
 20 19  2  0  0  0  0
 20 26  1  0  0  0  0
 21 20  1  0  0  0  0
 22 23  1  0  0  0  0
 22 21  2  0  0  0  0
 23 18  2  0  0  0  0
M  END
>  <minimizedAffinity>
-4.70464945

$$$$

 OpenBabel03272508463D

 26 28  0  0  0  0  0  0  0  0999 V2000
   37.5200   24.9000   33.1530 C   0  0  0  0  0  0  0  0  0  0  0  0
   37.3860   26.1750   33.6930 C   0  0  0  0  0  0  0  0  0  0  0  0
   37.7690   25.9820   35.0210 C   0  0  0  0  0  0  0  0  0  0  0  0
   38.1020   24.6650   35.2120 C   0  0  0  0  0  0  0  0  0  0  0  0
   37.9460   24.0340   34.0830 O   0  0  0  0  0  0  0  0  0  0  0  0
   37.0640   27.0600   33.1850 H   0  0  0  0  0  0  0  0  0  0  0  0
   37.7970   26.7600   35.7770 H   0  0  0  0  0  0  0  0  0  0  0  0
   38.5530   24.0720   36.4670 C   0  0  0  0  0  0  0  0  0  0  0  0
   37.9880   24.2330   37.7150 C   0  0  0  0  0  0  0  0  0  0  0  0
   37.1030   24.8450   37.9310 H   0  0  0  0  0  0  0  0  0  0  0  0
   38.7190   23.5000   38.6440 C   0  0  0  0  0  0  0  0  0  0  0  0
   38.4640   23.4740   39.6900 H   0  0  0  0  0  0  0  0  0  0  0  0
   39.7060   22.9260   37.8830 C   0  0  0  0  0  0  0  0  0  0  0  0
   40.4620   22.2710   38.3450 H   0  0  0  0  0  0  0  0  0  0  0  0
   39.5990   23.2660   36.6200 O   0  0  0  0  0  0  0  0  0  0  0  0
   37.2290   24.5590   31.7470 C   0  0  0  0  0  0  0  0  0  0  0  0
   37.1850   25.5000   30.9260 O   0  0  0  0  0  0  0  0  0  0  0  0
   35.4880   21.4240   31.1980 C   0  0  0  0  0  0  0  0  0  0  0  0
   36.4980   20.5720   30.7250 C   0  0  0  0  0  0  0  0  0  0  0  0
   37.7850   21.0630   30.5870 C   0  0  0  0  0  0  0  0  0  0  0  0
   37.9950   22.3620   30.9270 N   0  0  0  0  0  0  0  0  0  0  0  0
   37.0100   23.1580   31.3790 C   0  0  0  0  0  0  0  0  0  0  0  0
   35.7570   22.7010   31.5190 N   0  0  0  0  0  0  0  0  0  0  0  0
   34.5150   20.9490   31.2710 H   0  0  0  0  0  0  0  0  0  0  0  0
   36.3720   19.5470   30.4480 H   0  0  0  0  0  0  0  0  0  0  0  0
   38.6230   20.4710   30.2280 H   0  0  0  0  0  0  0  0  0  0  0  0
  1  2  2  0  0  0  0
  1  5  1  0  0  0  0
  2  3  1  0  0  0  0
  3  4  2  0  0  0  0
  3  7  1  0  0  0  0
  4  8  1  0  0  0  0
  5  4  1  0  0  0  0
  6  2  1  0  0  0  0
  8 15  1  0  0  0  0
  8  9  2  0  0  0  0
  9 10  1  0  0  0  0
  9 11  1  0  0  0  0
 11 12  1  0  0  0  0
 13 14  1  0  0  0  0
 13 11  2  0  0  0  0
 15 13  1  0  0  0  0
 16  1  1  0  0  0  0
 17 16  2  0  0  0  0
 18 24  1  0  0  0  0
 18 23  1  0  0  0  0
 19 18  2  0  0  0  0
 20 19  1  0  0  0  0
 20 21  2  0  0  0  0
 21 22  1  0  0  0  0
 22 23  2  0  0  0  0
 22 16  1  0  0  0  0
 25 19  1  0  0  0  0
 26 20  1  0  0  0  0
M  END
>  <minimizedAffinity>
-4.67741394

$$$$

 OpenBabel03272508463D

 26 28  0  0  0  0  0  0  0  0999 V2000
   38.2330   25.2380   34.0090 C   0  0  0  0  0  0  0  0  0  0  0  0
   39.4230   25.9310   33.8130 C   0  0  0  0  0  0  0  0  0  0  0  0
   38.9840   27.1340   33.2580 C   0  0  0  0  0  0  0  0  0  0  0  0
   37.6160   27.1130   33.1500 C   0  0  0  0  0  0  0  0  0  0  0  0
   37.1860   25.9700   33.6040 O   0  0  0  0  0  0  0  0  0  0  0  0
   40.4120   25.5940   34.0430 H   0  0  0  0  0  0  0  0  0  0  0  0
   39.6320   27.9530   32.9620 H   0  0  0  0  0  0  0  0  0  0  0  0
   36.7850   28.1880   32.6170 C   0  0  0  0  0  0  0  0  0  0  0  0
   35.8810   28.9640   33.3120 C   0  0  0  0  0  0  0  0  0  0  0  0
   35.6640   28.8700   34.3840 H   0  0  0  0  0  0  0  0  0  0  0  0
   35.2960   29.8750   32.4390 C   0  0  0  0  0  0  0  0  0  0  0  0
   34.5550   30.5880   32.7580 H   0  0  0  0  0  0  0  0  0  0  0  0
   35.8960   29.5880   31.2390 C   0  0  0  0  0  0  0  0  0  0  0  0
   35.6350   30.1530   30.3300 H   0  0  0  0  0  0  0  0  0  0  0  0
   36.7590   28.6060   31.3550 O   0  0  0  0  0  0  0  0  0  0  0  0
   38.1480   23.8820   34.5840 C   0  0  0  0  0  0  0  0  0  0  0  0
   37.8240   22.9520   33.8150 O   0  0  0  0  0  0  0  0  0  0  0  0
   37.8020   24.1170   38.1880 C   0  0  0  0  0  0  0  0  0  0  0  0
   38.8990   23.3840   38.6660 C   0  0  0  0  0  0  0  0  0  0  0  0
   39.7680   22.8010   37.7590 C   0  0  0  0  0  0  0  0  0  0  0  0
   39.5010   22.9790   36.4390 N   0  0  0  0  0  0  0  0  0  0  0  0
   38.4420   23.6870   36.0050 C   0  0  0  0  0  0  0  0  0  0  0  0
   37.5890   24.2590   36.8680 N   0  0  0  0  0  0  0  0  0  0  0  0
   37.1800   24.5350   38.9730 H   0  0  0  0  0  0  0  0  0  0  0  0
   39.1430   23.2230   39.6950 H   0  0  0  0  0  0  0  0  0  0  0  0
   40.6400   22.2190   38.0460 H   0  0  0  0  0  0  0  0  0  0  0  0
  1 16  1  0  0  0  0
  2  1  2  0  0  0  0
  2  6  1  0  0  0  0
  3  2  1  0  0  0  0
  4  3  2  0  0  0  0
  4  5  1  0  0  0  0
  5  1  1  0  0  0  0
  7  3  1  0  0  0  0
  8  4  1  0  0  0  0
  8  9  2  0  0  0  0
  9 10  1  0  0  0  0
 11 12  1  0  0  0  0
 11  9  1  0  0  0  0
 13 15  1  0  0  0  0
 13 11  2  0  0  0  0
 14 13  1  0  0  0  0
 15  8  1  0  0  0  0
 16 22  1  0  0  0  0
 17 16  2  0  0  0  0
 18 19  1  0  0  0  0
 18 24  1  0  0  0  0
 19 25  1  0  0  0  0
 20 26  1  0  0  0  0
 20 19  2  0  0  0  0
 21 20  1  0  0  0  0
 22 21  2  0  0  0  0
 22 23  1  0  0  0  0
 23 18  2  0  0  0  0
M  END
>  <minimizedAffinity>
-4.64229298

$$$$

 OpenBabel03272508463D

 26 28  0  0  0  0  0  0  0  0999 V2000
   37.4260   26.3910   33.7750 C   0  0  0  0  0  0  0  0  0  0  0  0
   37.5600   27.4890   34.6190 C   0  0  0  0  0  0  0  0  0  0  0  0
   37.9630   26.9000   35.8190 C   0  0  0  0  0  0  0  0  0  0  0  0
   38.0500   25.5410   35.6520 C   0  0  0  0  0  0  0  0  0  0  0  0
   37.7250   25.2570   34.4230 O   0  0  0  0  0  0  0  0  0  0  0  0
   37.3870   28.5160   34.3740 H   0  0  0  0  0  0  0  0  0  0  0  0
   38.1720   27.4430   36.7350 H   0  0  0  0  0  0  0  0  0  0  0  0
   38.4410   24.5790   36.6770 C   0  0  0  0  0  0  0  0  0  0  0  0
   39.3960   23.5890   36.5690 C   0  0  0  0  0  0  0  0  0  0  0  0
   40.0010   23.3930   35.6740 H   0  0  0  0  0  0  0  0  0  0  0  0
   39.4640   22.8890   37.7690 C   0  0  0  0  0  0  0  0  0  0  0  0
   40.1430   22.0670   37.9210 H   0  0  0  0  0  0  0  0  0  0  0  0
   38.5230   23.5130   38.5490 C   0  0  0  0  0  0  0  0  0  0  0  0
   38.3380   23.1770   39.5820 H   0  0  0  0  0  0  0  0  0  0  0  0
   37.9360   24.4920   37.9030 O   0  0  0  0  0  0  0  0  0  0  0  0
   37.0110   26.4770   32.3620 C   0  0  0  0  0  0  0  0  0  0  0  0
   36.0020   27.1650   32.1010 O   0  0  0  0  0  0  0  0  0  0  0  0
   39.4590   25.8900   29.7490 C   0  0  0  0  0  0  0  0  0  0  0  0
   39.2770   24.5350   29.4330 C   0  0  0  0  0  0  0  0  0  0  0  0
   38.3140   23.8080   30.1130 C   0  0  0  0  0  0  0  0  0  0  0  0
   37.5920   24.4640   31.0590 N   0  0  0  0  0  0  0  0  0  0  0  0
   37.7850   25.7640   31.3430 C   0  0  0  0  0  0  0  0  0  0  0  0
   38.7130   26.4850   30.6960 N   0  0  0  0  0  0  0  0  0  0  0  0
   40.2350   26.3740   29.1640 H   0  0  0  0  0  0  0  0  0  0  0  0
   39.8240   23.9860   28.6970 H   0  0  0  0  0  0  0  0  0  0  0  0
   38.1100   22.7560   29.9290 H   0  0  0  0  0  0  0  0  0  0  0  0
  1  5  1  0  0  0  0
  1  2  2  0  0  0  0
  2  3  1  0  0  0  0
  3  7  1  0  0  0  0
  4  3  2  0  0  0  0
  4  8  1  0  0  0  0
  5  4  1  0  0  0  0
  6  2  1  0  0  0  0
  8 15  1  0  0  0  0
  9  8  2  0  0  0  0
  9 11  1  0  0  0  0
 10  9  1  0  0  0  0
 11 12  1  0  0  0  0
 11 13  2  0  0  0  0
 13 14  1  0  0  0  0
 15 13  1  0  0  0  0
 16  1  1  0  0  0  0
 17 16  2  0  0  0  0
 18 23  1  0  0  0  0
 19 18  2  0  0  0  0
 19 20  1  0  0  0  0
 20 21  2  0  0  0  0
 21 22  1  0  0  0  0
 22 16  1  0  0  0  0
 23 22  2  0  0  0  0
 24 18  1  0  0  0  0
 25 19  1  0  0  0  0
 26 20  1  0  0  0  0
M  END
>  <minimizedAffinity>
-4.580966

$$$$
