
 OpenBabel03272506313D

 33 35  0  0  1  0  0  0  0  0999 V2000
   38.1660   24.9630   33.9950 C   0  0  1  0  0  0  0  0  0  0  0  0
   39.5450   25.4210   33.7380 C   0  0  0  0  0  0  0  0  0  0  0  0
   39.9030   26.7980   34.2240 C   0  0  0  0  0  0  0  0  0  0  0  0
   39.2950   27.1860   35.5240 C   0  0  0  0  0  0  0  0  0  0  0  0
   37.8970   26.7530   35.7790 C   0  0  0  0  0  0  0  0  0  0  0  0
   37.6670   25.3290   35.3490 C   0  0  2  0  0  0  0  0  0  0  0  0
   38.1930   23.8230   34.0120 H   0  0  0  0  0  0  0  0  0  0  0  0
   40.2040   24.7490   34.3780 H   0  0  0  0  0  0  0  0  0  0  0  0
   39.9450   25.2970   32.7490 H   0  0  0  0  0  0  0  0  0  0  0  0
   39.5380   27.5180   33.4500 H   0  0  0  0  0  0  0  0  0  0  0  0
   40.9970   26.8620   34.3040 H   0  0  0  0  0  0  0  0  0  0  0  0
   39.3530   28.2900   35.6220 H   0  0  0  0  0  0  0  0  0  0  0  0
   39.9640   26.7720   36.3340 H   0  0  0  0  0  0  0  0  0  0  0  0
   37.7130   26.7820   36.8740 H   0  0  0  0  0  0  0  0  0  0  0  0
   37.1440   27.4230   35.3140 H   0  0  0  0  0  0  0  0  0  0  0  0
   36.5960   25.1450   35.4970 H   0  0  0  0  0  0  0  0  0  0  0  0
   36.7430   26.5380   32.5760 C   0  0  0  0  0  0  0  0  0  0  0  0
   37.2000   25.2400   32.9080 C   0  0  0  0  0  0  0  0  0  0  0  0
   36.7060   24.1950   32.1490 C   0  0  0  0  0  0  0  0  0  0  0  0
   35.8270   24.4390   31.1410 N   0  0  0  0  0  0  0  0  0  0  0  0
   35.4190   25.7060   30.8630 C   0  0  0  0  0  0  0  0  0  0  0  0
   35.8820   26.7580   31.5870 N   0  0  0  0  0  0  0  0  0  0  0  0
   37.0870   27.3970   33.1290 H   0  0  0  0  0  0  0  0  0  0  0  0
   36.9200   23.1460   32.2210 H   0  0  0  0  0  0  0  0  0  0  0  0
   34.7170   25.9390   30.0660 H   0  0  0  0  0  0  0  0  0  0  0  0
   38.3510   24.3960   36.3310 C   0  0  0  0  0  0  0  0  0  0  0  0
   38.0370   24.3430   37.6930 C   0  0  0  0  0  0  0  0  0  0  0  0
   37.3030   24.9130   38.2600 H   0  0  0  0  0  0  0  0  0  0  0  0
   38.8520   23.3820   38.3000 C   0  0  0  0  0  0  0  0  0  0  0  0
   38.8470   23.1100   39.3430 H   0  0  0  0  0  0  0  0  0  0  0  0
   39.6130   22.9110   37.2520 C   0  0  0  0  0  0  0  0  0  0  0  0
   40.3700   22.1420   37.3540 H   0  0  0  0  0  0  0  0  0  0  0  0
   39.3010   23.5130   36.1370 O   0  0  0  0  0  0  0  0  0  0  0  0
  1  7  1  1  0  0  0
  1  6  1  0  0  0  0
  2  1  1  0  0  0  0
  2  3  1  0  0  0  0
  2  8  1  0  0  0  0
  3 11  1  0  0  0  0
  3  4  1  0  0  0  0
  4 12  1  0  0  0  0
  4  5  1  0  0  0  0
  4 13  1  0  0  0  0
  5 14  1  0  0  0  0
  6 16  1  1  0  0  0
  6  5  1  0  0  0  0
  6 26  1  0  0  0  0
  9  2  1  0  0  0  0
 10  3  1  0  0  0  0
 15  5  1  0  0  0  0
 17 18  1  0  0  0  0
 17 23  1  0  0  0  0
 18  1  1  0  0  0  0
 19 24  1  0  0  0  0
 19 18  2  0  0  0  0
 20 19  1  0  0  0  0
 21 20  2  0  0  0  0
 21 22  1  0  0  0  0
 22 17  2  0  0  0  0
 25 21  1  0  0  0  0
 26 27  2  0  0  0  0
 27 28  1  0  0  0  0
 27 29  1  0  0  0  0
 29 30  1  0  0  0  0
 31 32  1  0  0  0  0
 31 29  2  0  0  0  0
 33 26  1  0  0  0  0
 33 31  1  0  0  0  0
M  END
>  <minimizedAffinity>
-5.2108655

$$$$

 OpenBabel03272506313D

 33 35  0  0  1  0  0  0  0  0999 V2000
   37.5620   26.3730   33.8020 C   0  0  1  0  0  0  0  0  0  0  0  0
   38.7830   26.0480   33.0410 C   0  0  0  0  0  0  0  0  0  0  0  0
   40.0560   26.7140   33.4850 C   0  0  0  0  0  0  0  0  0  0  0  0
   40.2020   26.8780   34.9550 C   0  0  0  0  0  0  0  0  0  0  0  0
   38.9830   27.2320   35.7260 C   0  0  0  0  0  0  0  0  0  0  0  0
   37.7860   26.4400   35.2720 C   0  0  2  0  0  0  0  0  0  0  0  0
   36.8470   25.4940   33.6740 H   0  0  0  0  0  0  0  0  0  0  0  0
   38.9850   24.9490   33.2590 H   0  0  0  0  0  0  0  0  0  0  0  0
   38.7380   26.0870   31.9680 H   0  0  0  0  0  0  0  0  0  0  0  0
   40.0620   27.7340   33.0270 H   0  0  0  0  0  0  0  0  0  0  0  0
   40.9030   26.1290   33.1010 H   0  0  0  0  0  0  0  0  0  0  0  0
   40.9840   27.6420   35.1460 H   0  0  0  0  0  0  0  0  0  0  0  0
   40.6210   25.9070   35.3510 H   0  0  0  0  0  0  0  0  0  0  0  0
   39.1490   26.9650   36.7910 H   0  0  0  0  0  0  0  0  0  0  0  0
   38.7580   28.3190   35.7040 H   0  0  0  0  0  0  0  0  0  0  0  0
   36.9360   26.8410   35.8380 H   0  0  0  0  0  0  0  0  0  0  0  0
   36.1060   28.4520   34.0810 C   0  0  0  0  0  0  0  0  0  0  0  0
   36.7700   27.5040   33.2660 C   0  0  0  0  0  0  0  0  0  0  0  0
   36.6630   27.6760   31.8990 C   0  0  0  0  0  0  0  0  0  0  0  0
   35.9470   28.7170   31.3960 N   0  0  0  0  0  0  0  0  0  0  0  0
   35.3270   29.6010   32.2220 C   0  0  0  0  0  0  0  0  0  0  0  0
   35.4100   29.4640   33.5720 N   0  0  0  0  0  0  0  0  0  0  0  0
   36.1480   28.3750   35.1550 H   0  0  0  0  0  0  0  0  0  0  0  0
   37.0860   27.0880   31.1070 H   0  0  0  0  0  0  0  0  0  0  0  0
   34.7470   30.4450   31.8570 H   0  0  0  0  0  0  0  0  0  0  0  0
   37.9230   25.0100   35.7580 C   0  0  0  0  0  0  0  0  0  0  0  0
   38.0940   24.6620   37.1010 C   0  0  0  0  0  0  0  0  0  0  0  0
   38.1550   25.3000   37.9820 H   0  0  0  0  0  0  0  0  0  0  0  0
   38.1860   23.2700   37.1930 C   0  0  0  0  0  0  0  0  0  0  0  0
   38.3200   22.6990   38.0970 H   0  0  0  0  0  0  0  0  0  0  0  0
   38.0630   22.8620   35.8820 C   0  0  0  0  0  0  0  0  0  0  0  0
   38.0890   21.8250   35.5680 H   0  0  0  0  0  0  0  0  0  0  0  0
   37.9140   23.8840   35.0850 O   0  0  0  0  0  0  0  0  0  0  0  0
  1  7  1  6  0  0  0
  1  6  1  0  0  0  0
  2  8  1  0  0  0  0
  2  3  1  0  0  0  0
  2  1  1  0  0  0  0
  3  4  1  0  0  0  0
  4 12  1  0  0  0  0
  4 13  1  0  0  0  0
  4  5  1  0  0  0  0
  5 14  1  0  0  0  0
  6  5  1  0  0  0  0
  6 26  1  0  0  0  0
  6 16  1  1  0  0  0
  9  2  1  0  0  0  0
 10  3  1  0  0  0  0
 11  3  1  0  0  0  0
 15  5  1  0  0  0  0
 17 23  1  0  0  0  0
 18  1  1  0  0  0  0
 18 17  2  0  0  0  0
 19 18  1  0  0  0  0
 20 19  2  0  0  0  0
 20 21  1  0  0  0  0
 21 22  2  0  0  0  0
 22 17  1  0  0  0  0
 24 19  1  0  0  0  0
 25 21  1  0  0  0  0
 26 27  2  0  0  0  0
 27 29  1  0  0  0  0
 27 28  1  0  0  0  0
 29 30  1  0  0  0  0
 31 29  2  0  0  0  0
 32 31  1  0  0  0  0
 33 26  1  0  0  0  0
 33 31  1  0  0  0  0
M  END
>  <minimizedAffinity>
-4.93139267

$$$$

 OpenBabel03272506313D

 33 35  0  0  1  0  0  0  0  0999 V2000
   38.6090   26.1680   35.0460 C   0  0  1  0  0  0  0  0  0  0  0  0
   39.7160   27.1340   34.9200 C   0  0  0  0  0  0  0  0  0  0  0  0
   40.5700   27.0310   33.6860 C   0  0  0  0  0  0  0  0  0  0  0  0
   39.8390   26.6780   32.4410 C   0  0  0  0  0  0  0  0  0  0  0  0
   38.7400   25.6840   32.5540 C   0  0  0  0  0  0  0  0  0  0  0  0
   37.8840   25.9340   33.7670 C   0  0  2  0  0  0  0  0  0  0  0  0
   37.8250   26.6470   35.7210 H   0  0  0  0  0  0  0  0  0  0  0  0
   39.2130   28.1470   34.7920 H   0  0  0  0  0  0  0  0  0  0  0  0
   40.3620   27.2800   35.7660 H   0  0  0  0  0  0  0  0  0  0  0  0
   41.3190   26.2240   33.8810 H   0  0  0  0  0  0  0  0  0  0  0  0
   41.0860   27.9900   33.5430 H   0  0  0  0  0  0  0  0  0  0  0  0
   40.5750   26.3170   31.6930 H   0  0  0  0  0  0  0  0  0  0  0  0
   39.4240   27.6410   32.0230 H   0  0  0  0  0  0  0  0  0  0  0  0
   38.0740   25.7940   31.6730 H   0  0  0  0  0  0  0  0  0  0  0  0
   39.1030   24.6350   32.5470 H   0  0  0  0  0  0  0  0  0  0  0  0
   37.1710   25.1020   33.8010 H   0  0  0  0  0  0  0  0  0  0  0  0
   40.0800   24.1320   35.5040 C   0  0  0  0  0  0  0  0  0  0  0  0
   38.9410   24.9250   35.7800 C   0  0  0  0  0  0  0  0  0  0  0  0
   38.1170   24.4950   36.8030 C   0  0  0  0  0  0  0  0  0  0  0  0
   38.4180   23.3610   37.4910 N   0  0  0  0  0  0  0  0  0  0  0  0
   39.5250   22.6340   37.1860 C   0  0  0  0  0  0  0  0  0  0  0  0
   40.3580   23.0260   36.1870 N   0  0  0  0  0  0  0  0  0  0  0  0
   40.7640   24.4100   34.7180 H   0  0  0  0  0  0  0  0  0  0  0  0
   37.2160   24.9410   37.1800 H   0  0  0  0  0  0  0  0  0  0  0  0
   39.7980   21.7240   37.7140 H   0  0  0  0  0  0  0  0  0  0  0  0
   37.0240   27.1600   33.5230 C   0  0  0  0  0  0  0  0  0  0  0  0
   36.5560   27.9910   34.5450 C   0  0  0  0  0  0  0  0  0  0  0  0
   36.7070   27.9230   35.6220 H   0  0  0  0  0  0  0  0  0  0  0  0
   35.7980   29.0180   33.9730 C   0  0  0  0  0  0  0  0  0  0  0  0
   35.3050   29.8160   34.5020 H   0  0  0  0  0  0  0  0  0  0  0  0
   35.8600   28.7360   32.6250 C   0  0  0  0  0  0  0  0  0  0  0  0
   35.3760   29.3340   31.8600 H   0  0  0  0  0  0  0  0  0  0  0  0
   36.5700   27.6650   32.4010 O   0  0  0  0  0  0  0  0  0  0  0  0
  1  7  1  1  0  0  0
  1 18  1  0  0  0  0
  2  1  1  0  0  0  0
  2  9  1  0  0  0  0
  3 10  1  0  0  0  0
  3  2  1  0  0  0  0
  4  5  1  0  0  0  0
  4  3  1  0  0  0  0
  5  6  1  0  0  0  0
  6 16  1  1  0  0  0
  6  1  1  0  0  0  0
  8  2  1  0  0  0  0
 11  3  1  0  0  0  0
 12  4  1  0  0  0  0
 13  4  1  0  0  0  0
 14  5  1  0  0  0  0
 15  5  1  0  0  0  0
 17 18  2  0  0  0  0
 17 22  1  0  0  0  0
 18 19  1  0  0  0  0
 19 24  1  0  0  0  0
 19 20  2  0  0  0  0
 21 20  1  0  0  0  0
 21 25  1  0  0  0  0
 22 21  2  0  0  0  0
 23 17  1  0  0  0  0
 26  6  1  0  0  0  0
 26 27  2  0  0  0  0
 27 28  1  0  0  0  0
 29 30  1  0  0  0  0
 29 27  1  0  0  0  0
 31 29  2  0  0  0  0
 32 31  1  0  0  0  0
 33 31  1  0  0  0  0
 33 26  1  0  0  0  0
M  END
>  <minimizedAffinity>
-4.68886662

$$$$

 OpenBabel03272506313D

 33 35  0  0  1  0  0  0  0  0999 V2000
   38.6290   24.3450   35.1420 C   0  0  1  0  0  0  0  0  0  0  0  0
   37.8110   25.1450   36.0720 C   0  0  0  0  0  0  0  0  0  0  0  0
   38.3380   26.5040   36.4420 C   0  0  0  0  0  0  0  0  0  0  0  0
   39.0190   27.2360   35.3430 C   0  0  0  0  0  0  0  0  0  0  0  0
   39.8680   26.4430   34.4180 C   0  0  0  0  0  0  0  0  0  0  0  0
   39.2080   25.1470   34.0290 C   0  0  2  0  0  0  0  0  0  0  0  0
   37.9220   23.6200   34.6170 H   0  0  0  0  0  0  0  0  0  0  0  0
   36.8620   25.3940   35.4940 H   0  0  0  0  0  0  0  0  0  0  0  0
   37.4450   24.6700   36.9640 H   0  0  0  0  0  0  0  0  0  0  0  0
   39.0850   26.3470   37.2600 H   0  0  0  0  0  0  0  0  0  0  0  0
   37.5000   27.1100   36.8150 H   0  0  0  0  0  0  0  0  0  0  0  0
   39.6340   28.0460   35.7900 H   0  0  0  0  0  0  0  0  0  0  0  0
   38.2130   27.7580   34.7490 H   0  0  0  0  0  0  0  0  0  0  0  0
   40.0010   27.0200   33.4780 H   0  0  0  0  0  0  0  0  0  0  0  0
   40.8860   26.2530   34.8190 H   0  0  0  0  0  0  0  0  0  0  0  0
   39.9490   24.6080   33.4260 H   0  0  0  0  0  0  0  0  0  0  0  0
   39.5720   23.1020   37.1630 C   0  0  0  0  0  0  0  0  0  0  0  0
   39.5980   23.4300   35.7860 C   0  0  0  0  0  0  0  0  0  0  0  0
   40.5900   22.8380   35.0250 C   0  0  0  0  0  0  0  0  0  0  0  0
   41.4790   21.9880   35.6050 N   0  0  0  0  0  0  0  0  0  0  0  0
   41.4100   21.7060   36.9330 C   0  0  0  0  0  0  0  0  0  0  0  0
   40.4500   22.2690   37.7120 N   0  0  0  0  0  0  0  0  0  0  0  0
   38.8260   23.5300   37.8130 H   0  0  0  0  0  0  0  0  0  0  0  0
   40.7880   22.9380   33.9750 H   0  0  0  0  0  0  0  0  0  0  0  0
   42.1030   21.0320   37.4300 H   0  0  0  0  0  0  0  0  0  0  0  0
   38.0730   25.4370   33.0640 C   0  0  0  0  0  0  0  0  0  0  0  0
   37.2190   24.4530   32.5570 C   0  0  0  0  0  0  0  0  0  0  0  0
   37.2070   23.3800   32.7420 H   0  0  0  0  0  0  0  0  0  0  0  0
   36.2950   25.0630   31.7020 C   0  0  0  0  0  0  0  0  0  0  0  0
   35.5080   24.5680   31.1590 H   0  0  0  0  0  0  0  0  0  0  0  0
   36.6560   26.3920   31.7510 C   0  0  0  0  0  0  0  0  0  0  0  0
   36.1480   27.1760   31.1990 H   0  0  0  0  0  0  0  0  0  0  0  0
   37.6790   26.5730   32.5410 O   0  0  0  0  0  0  0  0  0  0  0  0
  1  7  1  6  0  0  0
  1 18  1  0  0  0  0
  1  2  1  0  0  0  0
  2  3  1  0  0  0  0
  2  9  1  0  0  0  0
  3 11  1  0  0  0  0
  3 10  1  0  0  0  0
  4 12  1  0  0  0  0
  4  3  1  0  0  0  0
  5 15  1  0  0  0  0
  5  4  1  0  0  0  0
  6 16  1  6  0  0  0
  6  5  1  0  0  0  0
  6  1  1  0  0  0  0
  8  2  1  0  0  0  0
 13  4  1  0  0  0  0
 14  5  1  0  0  0  0
 17 22  1  0  0  0  0
 17 23  1  0  0  0  0
 18 17  2  0  0  0  0
 19 20  2  0  0  0  0
 19 18  1  0  0  0  0
 20 21  1  0  0  0  0
 21 25  1  0  0  0  0
 21 22  2  0  0  0  0
 24 19  1  0  0  0  0
 26  6  1  0  0  0  0
 27 28  1  0  0  0  0
 27 26  2  0  0  0  0
 29 31  2  0  0  0  0
 29 27  1  0  0  0  0
 30 29  1  0  0  0  0
 31 33  1  0  0  0  0
 32 31  1  0  0  0  0
 33 26  1  0  0  0  0
M  END
>  <minimizedAffinity>
-4.60842228

$$$$

 OpenBabel03272506313D

 33 35  0  0  1  0  0  0  0  0999 V2000
   36.9030   22.3970   31.7420 C   0  0  1  0  0  0  0  0  0  0  0  0
   37.6220   21.9500   32.9500 C   0  0  0  0  0  0  0  0  0  0  0  0
   36.7860   21.3990   34.0720 C   0  0  0  0  0  0  0  0  0  0  0  0
   35.6150   20.5890   33.6450 C   0  0  0  0  0  0  0  0  0  0  0  0
   34.8680   21.0480   32.4460 C   0  0  0  0  0  0  0  0  0  0  0  0
   35.7960   21.4850   31.3450 C   0  0  2  0  0  0  0  0  0  0  0  0
   37.6390   22.3290   30.8730 H   0  0  0  0  0  0  0  0  0  0  0  0
   38.2250   21.0430   32.6170 H   0  0  0  0  0  0  0  0  0  0  0  0
   38.3640   22.6040   33.3700 H   0  0  0  0  0  0  0  0  0  0  0  0
   36.4010   22.2770   34.6470 H   0  0  0  0  0  0  0  0  0  0  0  0
   37.4330   20.7880   34.7160 H   0  0  0  0  0  0  0  0  0  0  0  0
   34.9120   20.5140   34.5010 H   0  0  0  0  0  0  0  0  0  0  0  0
   35.9920   19.5400   33.4670 H   0  0  0  0  0  0  0  0  0  0  0  0
   34.2870   20.1920   32.0440 H   0  0  0  0  0  0  0  0  0  0  0  0
   34.1340   21.8490   32.6730 H   0  0  0  0  0  0  0  0  0  0  0  0
   35.1490   21.8830   30.5540 H   0  0  0  0  0  0  0  0  0  0  0  0
   37.1720   24.8150   32.5160 C   0  0  0  0  0  0  0  0  0  0  0  0
   36.5300   23.8300   31.7270 C   0  0  0  0  0  0  0  0  0  0  0  0
   35.5100   24.2630   30.9010 C   0  0  0  0  0  0  0  0  0  0  0  0
   35.1660   25.5780   30.8730 N   0  0  0  0  0  0  0  0  0  0  0  0
   35.8140   26.4850   31.6500 C   0  0  0  0  0  0  0  0  0  0  0  0
   36.8220   26.0970   32.4750 N   0  0  0  0  0  0  0  0  0  0  0  0
   37.9750   24.5460   33.1820 H   0  0  0  0  0  0  0  0  0  0  0  0
   34.9010   23.6960   30.2230 H   0  0  0  0  0  0  0  0  0  0  0  0
   35.5680   27.5440   31.6530 H   0  0  0  0  0  0  0  0  0  0  0  0
   36.4430   20.2600   30.7240 C   0  0  0  0  0  0  0  0  0  0  0  0
   37.6460   20.2970   30.0140 C   0  0  0  0  0  0  0  0  0  0  0  0
   38.2950   21.1420   29.7890 H   0  0  0  0  0  0  0  0  0  0  0  0
   37.9490   19.0010   29.5830 C   0  0  0  0  0  0  0  0  0  0  0  0
   38.8130   18.7060   29.0110 H   0  0  0  0  0  0  0  0  0  0  0  0
   36.8950   18.2570   30.0690 C   0  0  0  0  0  0  0  0  0  0  0  0
   36.7940   17.1870   29.9230 H   0  0  0  0  0  0  0  0  0  0  0  0
   36.0490   19.0090   30.7180 O   0  0  0  0  0  0  0  0  0  0  0  0
  1  7  1  6  0  0  0
  1  2  1  0  0  0  0
  2  9  1  0  0  0  0
  2  3  1  0  0  0  0
  3 10  1  0  0  0  0
  3 11  1  0  0  0  0
  4  3  1  0  0  0  0
  4 12  1  0  0  0  0
  5 15  1  0  0  0  0
  5  4  1  0  0  0  0
  6 16  1  6  0  0  0
  6  1  1  0  0  0  0
  6  5  1  0  0  0  0
  8  2  1  0  0  0  0
 13  4  1  0  0  0  0
 14  5  1  0  0  0  0
 17 23  1  0  0  0  0
 18  1  1  0  0  0  0
 18 17  2  0  0  0  0
 19 18  1  0  0  0  0
 20 19  2  0  0  0  0
 20 21  1  0  0  0  0
 21 25  1  0  0  0  0
 21 22  2  0  0  0  0
 22 17  1  0  0  0  0
 24 19  1  0  0  0  0
 26  6  1  0  0  0  0
 27 26  2  0  0  0  0
 28 27  1  0  0  0  0
 29 27  1  0  0  0  0
 29 31  2  0  0  0  0
 30 29  1  0  0  0  0
 31 33  1  0  0  0  0
 32 31  1  0  0  0  0
 33 26  1  0  0  0  0
M  END
>  <minimizedAffinity>
-4.5364356

$$$$

 OpenBabel03272506313D

 33 35  0  0  1  0  0  0  0  0999 V2000
   39.1450   24.4110   34.8410 C   0  0  1  0  0  0  0  0  0  0  0  0
   37.9840   24.9580   35.5680 C   0  0  0  0  0  0  0  0  0  0  0  0
   38.1830   26.2690   36.2780 C   0  0  0  0  0  0  0  0  0  0  0  0
   39.0540   27.2430   35.5680 C   0  0  0  0  0  0  0  0  0  0  0  0
   40.2420   26.7040   34.8570 C   0  0  0  0  0  0  0  0  0  0  0  0
   39.9130   25.4460   34.0970 C   0  0  2  0  0  0  0  0  0  0  0  0
   38.7340   23.7340   34.0210 H   0  0  0  0  0  0  0  0  0  0  0  0
   37.2260   25.2220   34.7610 H   0  0  0  0  0  0  0  0  0  0  0  0
   37.4370   24.3010   36.2200 H   0  0  0  0  0  0  0  0  0  0  0  0
   38.6660   26.0330   37.2590 H   0  0  0  0  0  0  0  0  0  0  0  0
   37.1980   26.7230   36.4470 H   0  0  0  0  0  0  0  0  0  0  0  0
   39.3890   28.0090   36.2980 H   0  0  0  0  0  0  0  0  0  0  0  0
   38.3980   27.7900   34.8300 H   0  0  0  0  0  0  0  0  0  0  0  0
   40.5690   27.4490   34.1010 H   0  0  0  0  0  0  0  0  0  0  0  0
   41.1090   26.5340   35.5290 H   0  0  0  0  0  0  0  0  0  0  0  0
   40.8680   25.0910   33.6900 H   0  0  0  0  0  0  0  0  0  0  0  0
   41.2200   22.9560   35.1490 C   0  0  0  0  0  0  0  0  0  0  0  0
   39.9940   23.4830   35.6220 C   0  0  0  0  0  0  0  0  0  0  0  0
   39.6000   23.0980   36.8900 C   0  0  0  0  0  0  0  0  0  0  0  0
   40.3780   22.2540   37.6190 N   0  0  0  0  0  0  0  0  0  0  0  0
   41.5480   21.7770   37.1190 C   0  0  0  0  0  0  0  0  0  0  0  0
   41.9680   22.1320   35.8770 N   0  0  0  0  0  0  0  0  0  0  0  0
   41.5850   23.2150   34.1680 H   0  0  0  0  0  0  0  0  0  0  0  0
   38.7230   23.3780   37.4400 H   0  0  0  0  0  0  0  0  0  0  0  0
   42.1950   21.1010   37.6730 H   0  0  0  0  0  0  0  0  0  0  0  0
   39.0900   25.8050   32.8740 C   0  0  0  0  0  0  0  0  0  0  0  0
   39.2110   27.0180   32.1890 C   0  0  0  0  0  0  0  0  0  0  0  0
   39.8650   27.8660   32.3870 H   0  0  0  0  0  0  0  0  0  0  0  0
   38.3100   27.0180   31.1200 C   0  0  0  0  0  0  0  0  0  0  0  0
   38.1670   27.8130   30.4080 H   0  0  0  0  0  0  0  0  0  0  0  0
   37.6960   25.7880   31.2300 C   0  0  0  0  0  0  0  0  0  0  0  0
   36.9240   25.4360   30.5550 H   0  0  0  0  0  0  0  0  0  0  0  0
   38.1660   25.1180   32.2460 O   0  0  0  0  0  0  0  0  0  0  0  0
  1  7  1  6  0  0  0
  1  2  1  0  0  0  0
  1 18  1  0  0  0  0
  2  9  1  0  0  0  0
  2  3  1  0  0  0  0
  3 11  1  0  0  0  0
  3 10  1  0  0  0  0
  4  3  1  0  0  0  0
  4 12  1  0  0  0  0
  5 15  1  0  0  0  0
  5  4  1  0  0  0  0
  6 16  1  6  0  0  0
  6  1  1  0  0  0  0
  6  5  1  0  0  0  0
  8  2  1  0  0  0  0
 13  4  1  0  0  0  0
 14  5  1  0  0  0  0
 17 18  2  0  0  0  0
 17 22  1  0  0  0  0
 18 19  1  0  0  0  0
 19 24  1  0  0  0  0
 19 20  2  0  0  0  0
 21 20  1  0  0  0  0
 21 25  1  0  0  0  0
 22 21  2  0  0  0  0
 23 17  1  0  0  0  0
 26  6  1  0  0  0  0
 27 28  1  0  0  0  0
 27 26  2  0  0  0  0
 29 31  2  0  0  0  0
 29 27  1  0  0  0  0
 30 29  1  0  0  0  0
 31 33  1  0  0  0  0
 32 31  1  0  0  0  0
 33 26  1  0  0  0  0
M  END
>  <minimizedAffinity>
-4.521101

$$$$

 OpenBabel03272506313D

 33 35  0  0  1  0  0  0  0  0999 V2000
   38.8360   24.3330   34.3820 C   0  0  1  0  0  0  0  0  0  0  0  0
   39.0130   25.6270   35.0670 C   0  0  0  0  0  0  0  0  0  0  0  0
   38.2090   25.8470   36.3190 C   0  0  0  0  0  0  0  0  0  0  0  0
   38.0410   24.6460   37.1790 C   0  0  0  0  0  0  0  0  0  0  0  0
   37.8350   23.3420   36.4970 C   0  0  0  0  0  0  0  0  0  0  0  0
   38.7550   23.1780   35.3180 C   0  0  2  0  0  0  0  0  0  0  0  0
   39.7910   24.1380   33.7890 H   0  0  0  0  0  0  0  0  0  0  0  0
   40.0830   25.6130   35.4560 H   0  0  0  0  0  0  0  0  0  0  0  0
   38.9720   26.5240   34.4770 H   0  0  0  0  0  0  0  0  0  0  0  0
   37.1910   26.1770   35.9940 H   0  0  0  0  0  0  0  0  0  0  0  0
   38.6900   26.6440   36.9020 H   0  0  0  0  0  0  0  0  0  0  0  0
   37.1930   24.8280   37.8720 H   0  0  0  0  0  0  0  0  0  0  0  0
   38.9600   24.5800   37.8310 H   0  0  0  0  0  0  0  0  0  0  0  0
   38.0890   22.5280   37.2080 H   0  0  0  0  0  0  0  0  0  0  0  0
   36.7800   23.1760   36.1900 H   0  0  0  0  0  0  0  0  0  0  0  0
   38.4590   22.2350   34.8420 H   0  0  0  0  0  0  0  0  0  0  0  0
   37.1600   25.4840   32.8380 C   0  0  0  0  0  0  0  0  0  0  0  0
   37.8000   24.3190   33.3240 C   0  0  0  0  0  0  0  0  0  0  0  0
   37.4230   23.1180   32.7530 C   0  0  0  0  0  0  0  0  0  0  0  0
   36.4790   23.0950   31.7740 N   0  0  0  0  0  0  0  0  0  0  0  0
   35.8940   24.2430   31.3420 C   0  0  0  0  0  0  0  0  0  0  0  0
   36.2400   25.4420   31.8800 N   0  0  0  0  0  0  0  0  0  0  0  0
   37.4070   26.4530   33.2410 H   0  0  0  0  0  0  0  0  0  0  0  0
   37.7780   22.1270   32.9620 H   0  0  0  0  0  0  0  0  0  0  0  0
   35.1380   24.2640   30.5610 H   0  0  0  0  0  0  0  0  0  0  0  0
   40.1640   22.9230   35.8190 C   0  0  0  0  0  0  0  0  0  0  0  0
   40.4750   21.9920   36.8140 C   0  0  0  0  0  0  0  0  0  0  0  0
   39.8180   21.3270   37.3730 H   0  0  0  0  0  0  0  0  0  0  0  0
   41.8560   22.0150   37.0310 C   0  0  0  0  0  0  0  0  0  0  0  0
   42.3990   21.4100   37.7370 H   0  0  0  0  0  0  0  0  0  0  0  0
   42.2950   22.9700   36.1400 C   0  0  0  0  0  0  0  0  0  0  0  0
   43.3350   23.2590   36.0290 H   0  0  0  0  0  0  0  0  0  0  0  0
   41.3010   23.4720   35.4610 O   0  0  0  0  0  0  0  0  0  0  0  0
  1  7  1  6  0  0  0
  1  2  1  0  0  0  0
  1  6  1  0  0  0  0
  2  8  1  0  0  0  0
  2  3  1  0  0  0  0
  3 11  1  0  0  0  0
  3  4  1  0  0  0  0
  4 13  1  0  0  0  0
  4 12  1  0  0  0  0
  5  4  1  0  0  0  0
  5 14  1  0  0  0  0
  6 16  1  6  0  0  0
  6 26  1  0  0  0  0
  6  5  1  0  0  0  0
  9  2  1  0  0  0  0
 10  3  1  0  0  0  0
 15  5  1  0  0  0  0
 17 23  1  0  0  0  0
 17 18  1  0  0  0  0
 18  1  1  0  0  0  0
 19 24  1  0  0  0  0
 19 18  2  0  0  0  0
 20 19  1  0  0  0  0
 21 20  2  0  0  0  0
 21 22  1  0  0  0  0
 22 17  2  0  0  0  0
 25 21  1  0  0  0  0
 26 27  2  0  0  0  0
 27 29  1  0  0  0  0
 27 28  1  0  0  0  0
 29 30  1  0  0  0  0
 31 29  2  0  0  0  0
 32 31  1  0  0  0  0
 33 26  1  0  0  0  0
 33 31  1  0  0  0  0
M  END
>  <minimizedAffinity>
-4.50033236

$$$$

 OpenBabel03272506313D

 33 35  0  0  1  0  0  0  0  0999 V2000
   38.2810   26.3120   33.1580 C   0  0  1  0  0  0  0  0  0  0  0  0
   37.4750   26.4810   34.3820 C   0  0  0  0  0  0  0  0  0  0  0  0
   36.8190   27.8190   34.5830 C   0  0  0  0  0  0  0  0  0  0  0  0
   36.3060   28.4610   33.3440 C   0  0  0  0  0  0  0  0  0  0  0  0
   37.1250   28.3200   32.1130 C   0  0  0  0  0  0  0  0  0  0  0  0
   37.6540   26.9200   31.9530 C   0  0  2  0  0  0  0  0  0  0  0  0
   38.2990   25.1970   32.9240 H   0  0  0  0  0  0  0  0  0  0  0  0
   36.5860   25.7820   34.2500 H   0  0  0  0  0  0  0  0  0  0  0  0
   37.9020   26.1700   35.3180 H   0  0  0  0  0  0  0  0  0  0  0  0
   37.5950   28.4950   35.0210 H   0  0  0  0  0  0  0  0  0  0  0  0
   35.9910   27.6930   35.2940 H   0  0  0  0  0  0  0  0  0  0  0  0
   36.1480   29.5410   33.5500 H   0  0  0  0  0  0  0  0  0  0  0  0
   35.2790   28.0330   33.1560 H   0  0  0  0  0  0  0  0  0  0  0  0
   36.4760   28.5130   31.2340 H   0  0  0  0  0  0  0  0  0  0  0  0
   37.9560   29.0550   32.0590 H   0  0  0  0  0  0  0  0  0  0  0  0
   38.3090   26.9510   31.0740 H   0  0  0  0  0  0  0  0  0  0  0  0
   40.5160   27.1660   32.2650 C   0  0  0  0  0  0  0  0  0  0  0  0
   39.7200   26.6270   33.3050 C   0  0  0  0  0  0  0  0  0  0  0  0
   40.3480   26.4040   34.5170 C   0  0  0  0  0  0  0  0  0  0  0  0
   41.6670   26.7000   34.6650 N   0  0  0  0  0  0  0  0  0  0  0  0
   42.3870   27.2160   33.6350 C   0  0  0  0  0  0  0  0  0  0  0  0
   41.8040   27.4490   32.4300 N   0  0  0  0  0  0  0  0  0  0  0  0
   40.0890   27.3630   31.2960 H   0  0  0  0  0  0  0  0  0  0  0  0
   39.9410   26.0140   35.4290 H   0  0  0  0  0  0  0  0  0  0  0  0
   43.4430   27.4640   33.7170 H   0  0  0  0  0  0  0  0  0  0  0  0
   36.5160   26.0030   31.5440 C   0  0  0  0  0  0  0  0  0  0  0  0
   36.5570   24.6120   31.6780 C   0  0  0  0  0  0  0  0  0  0  0  0
   37.3490   23.9750   32.0690 H   0  0  0  0  0  0  0  0  0  0  0  0
   35.3510   24.0830   31.2080 C   0  0  0  0  0  0  0  0  0  0  0  0
   35.0810   23.0410   31.1800 H   0  0  0  0  0  0  0  0  0  0  0  0
   34.6510   25.2040   30.8160 C   0  0  0  0  0  0  0  0  0  0  0  0
   33.6530   25.1750   30.3930 H   0  0  0  0  0  0  0  0  0  0  0  0
   35.3470   26.2880   31.0230 O   0  0  0  0  0  0  0  0  0  0  0  0
  1  7  1  6  0  0  0
  1 18  1  0  0  0  0
  1  2  1  0  0  0  0
  2  3  1  0  0  0  0
  2  9  1  0  0  0  0
  3 10  1  0  0  0  0
  3 11  1  0  0  0  0
  4 12  1  0  0  0  0
  4  3  1  0  0  0  0
  5  4  1  0  0  0  0
  6 16  1  6  0  0  0
  6  5  1  0  0  0  0
  6  1  1  0  0  0  0
  8  2  1  0  0  0  0
 13  4  1  0  0  0  0
 14  5  1  0  0  0  0
 15  5  1  0  0  0  0
 17 22  2  0  0  0  0
 17 18  1  0  0  0  0
 18 19  2  0  0  0  0
 19 20  1  0  0  0  0
 19 24  1  0  0  0  0
 21 25  1  0  0  0  0
 21 20  2  0  0  0  0
 22 21  1  0  0  0  0
 23 17  1  0  0  0  0
 26 27  2  0  0  0  0
 26  6  1  0  0  0  0
 27 28  1  0  0  0  0
 29 27  1  0  0  0  0
 30 29  1  0  0  0  0
 31 33  1  0  0  0  0
 31 29  2  0  0  0  0
 32 31  1  0  0  0  0
 33 26  1  0  0  0  0
M  END
>  <minimizedAffinity>
-4.44601488

$$$$

 OpenBabel03272506313D

 33 35  0  0  1  0  0  0  0  0999 V2000
   35.8280   29.4680   33.4990 C   0  0  1  0  0  0  0  0  0  0  0  0
   35.8680   30.3870   32.3460 C   0  0  0  0  0  0  0  0  0  0  0  0
   34.6070   30.5130   31.5350 C   0  0  0  0  0  0  0  0  0  0  0  0
   33.3460   30.4690   32.3210 C   0  0  0  0  0  0  0  0  0  0  0  0
   33.2880   29.5260   33.4670 C   0  0  0  0  0  0  0  0  0  0  0  0
   34.5590   29.5490   34.2730 C   0  0  2  0  0  0  0  0  0  0  0  0
   36.6210   29.8260   34.2370 H   0  0  0  0  0  0  0  0  0  0  0  0
   35.9790   31.4260   32.7990 H   0  0  0  0  0  0  0  0  0  0  0  0
   36.6990   30.3180   31.6700 H   0  0  0  0  0  0  0  0  0  0  0  0
   34.5950   29.6490   30.8250 H   0  0  0  0  0  0  0  0  0  0  0  0
   34.6510   31.4560   30.9740 H   0  0  0  0  0  0  0  0  0  0  0  0
   32.5090   30.2450   31.6270 H   0  0  0  0  0  0  0  0  0  0  0  0
   33.1590   31.5180   32.6950 H   0  0  0  0  0  0  0  0  0  0  0  0
   32.4770   29.8530   34.1520 H   0  0  0  0  0  0  0  0  0  0  0  0
   33.0430   28.4870   33.1610 H   0  0  0  0  0  0  0  0  0  0  0  0
   34.4430   28.7620   35.0280 H   0  0  0  0  0  0  0  0  0  0  0  0
   36.0530   27.4330   31.9740 C   0  0  0  0  0  0  0  0  0  0  0  0
   36.2660   28.0830   33.2130 C   0  0  0  0  0  0  0  0  0  0  0  0
   36.9330   27.3620   34.1870 C   0  0  0  0  0  0  0  0  0  0  0  0
   37.3500   26.0930   33.9300 N   0  0  0  0  0  0  0  0  0  0  0  0
   37.1190   25.5140   32.7230 C   0  0  0  0  0  0  0  0  0  0  0  0
   36.4670   26.1910   31.7420 N   0  0  0  0  0  0  0  0  0  0  0  0
   35.5380   27.9380   31.1730 H   0  0  0  0  0  0  0  0  0  0  0  0
   37.2040   27.6580   35.1820 H   0  0  0  0  0  0  0  0  0  0  0  0
   37.4370   24.5020   32.4820 H   0  0  0  0  0  0  0  0  0  0  0  0
   34.6170   30.8360   35.0730 C   0  0  0  0  0  0  0  0  0  0  0  0
   35.7590   31.2760   35.7480 C   0  0  0  0  0  0  0  0  0  0  0  0
   36.7440   30.8160   35.8210 H   0  0  0  0  0  0  0  0  0  0  0  0
   35.4650   32.4890   36.3790 C   0  0  0  0  0  0  0  0  0  0  0  0
   36.1420   33.0760   36.9760 H   0  0  0  0  0  0  0  0  0  0  0  0
   34.1470   32.7050   36.0380 C   0  0  0  0  0  0  0  0  0  0  0  0
   33.5750   33.5690   36.3590 H   0  0  0  0  0  0  0  0  0  0  0  0
   33.6910   31.7390   35.2900 O   0  0  0  0  0  0  0  0  0  0  0  0
  1  7  1  1  0  0  0
  1  6  1  0  0  0  0
  2  8  1  0  0  0  0
  2  1  1  0  0  0  0
  3  4  1  0  0  0  0
  3  2  1  0  0  0  0
  4 13  1  0  0  0  0
  4  5  1  0  0  0  0
  5 14  1  0  0  0  0
  5  6  1  0  0  0  0
  6 16  1  1  0  0  0
  6 26  1  0  0  0  0
  9  2  1  0  0  0  0
 10  3  1  0  0  0  0
 11  3  1  0  0  0  0
 12  4  1  0  0  0  0
 15  5  1  0  0  0  0
 17 18  1  0  0  0  0
 18  1  1  0  0  0  0
 18 19  2  0  0  0  0
 19 24  1  0  0  0  0
 20 19  1  0  0  0  0
 21 20  2  0  0  0  0
 22 17  2  0  0  0  0
 22 21  1  0  0  0  0
 23 17  1  0  0  0  0
 25 21  1  0  0  0  0
 26 33  1  0  0  0  0
 26 27  2  0  0  0  0
 27 28  1  0  0  0  0
 27 29  1  0  0  0  0
 29 30  1  0  0  0  0
 31 32  1  0  0  0  0
 31 29  2  0  0  0  0
 33 31  1  0  0  0  0
M  END
>  <minimizedAffinity>
-4.43914318

$$$$
