
 OpenBabel03272503283D

 32 34  0  0  1  0  0  0  0  0999 V2000
   36.6290   29.7790   48.9960 N   0  0  0  0  0  0  0  0  0  0  0  0
   37.5970   30.6110   48.3550 C   0  0  0  0  0  0  0  0  0  0  0  0
   38.2750   31.3100   49.5300 C   0  0  2  0  0  0  0  0  0  0  0  0
   37.5470   30.8420   50.7770 C   0  0  0  0  0  0  0  0  0  0  0  0
   37.1650   29.4390   50.2970 C   0  0  0  0  0  0  0  0  0  0  0  0
   37.1030   31.3770   47.7390 H   0  0  0  0  0  0  0  0  0  0  0  0
   38.3510   30.0240   47.7740 H   0  0  0  0  0  0  0  0  0  0  0  0
   39.3350   30.9560   49.5910 H   0  0  0  0  0  0  0  0  0  0  0  0
   38.2580   30.7070   51.5900 H   0  0  0  0  0  0  0  0  0  0  0  0
   36.6460   31.4080   51.0130 H   0  0  0  0  0  0  0  0  0  0  0  0
   38.0140   28.7610   50.2850 H   0  0  0  0  0  0  0  0  0  0  0  0
   36.3230   29.0970   50.9550 H   0  0  0  0  0  0  0  0  0  0  0  0
   35.3700   29.3450   48.4810 C   0  0  0  0  0  0  0  0  0  0  0  0
   34.7750   28.2610   49.1120 C   0  0  0  0  0  0  0  0  0  0  0  0
   33.5360   27.8260   48.6100 C   0  0  0  0  0  0  0  0  0  0  0  0
   33.0070   28.4940   47.5470 N   0  0  0  0  0  0  0  0  0  0  0  0
   33.6130   29.5400   46.9620 C   0  0  0  0  0  0  0  0  0  0  0  0
   34.7980   29.9680   47.4300 N   0  0  0  0  0  0  0  0  0  0  0  0
   35.1580   27.7150   49.9440 H   0  0  0  0  0  0  0  0  0  0  0  0
   33.0020   26.9980   49.0330 H   0  0  0  0  0  0  0  0  0  0  0  0
   33.0650   30.2620   45.8310 C   0  0  0  0  0  0  0  0  0  0  0  0
   33.2180   30.1500   44.4620 C   0  0  0  0  0  0  0  0  0  0  0  0
   33.8580   29.4000   44.0280 H   0  0  0  0  0  0  0  0  0  0  0  0
   32.4290   31.1320   43.8980 C   0  0  0  0  0  0  0  0  0  0  0  0
   32.3390   31.2980   42.8310 H   0  0  0  0  0  0  0  0  0  0  0  0
   31.8320   31.7960   44.9520 C   0  0  0  0  0  0  0  0  0  0  0  0
   31.1380   32.6400   44.8220 H   0  0  0  0  0  0  0  0  0  0  0  0
   32.2270   31.2590   46.0910 O   0  0  0  0  0  0  0  0  0  0  0  0
   38.3140   32.8010   49.3860 C   0  0  0  0  0  0  0  0  0  0  0  0
   37.1060   33.2480   49.9020 F   0  0  0  0  0  0  0  0  0  0  0  0
   38.3290   33.0880   48.0470 F   0  0  0  0  0  0  0  0  0  0  0  0
   39.3730   33.3910   50.0170 F   0  0  0  0  0  0  0  0  0  0  0  0
  1  5  1  0  0  0  0
  2  1  1  0  0  0  0
  2  3  1  0  0  0  0
  3  8  1  1  0  0  0
  3  4  1  0  0  0  0
  4 10  1  0  0  0  0
  4  9  1  0  0  0  0
  5  4  1  0  0  0  0
  5 12  1  0  0  0  0
  6  2  1  0  0  0  0
  7  2  1  0  0  0  0
 11  5  1  0  0  0  0
 13  1  1  0  0  0  0
 13 14  1  0  0  0  0
 14 19  1  0  0  0  0
 15 20  1  0  0  0  0
 15 14  2  0  0  0  0
 16 15  1  0  0  0  0
 17 18  1  0  0  0  0
 17 16  2  0  0  0  0
 18 13  2  0  0  0  0
 21 28  1  0  0  0  0
 21 17  1  0  0  0  0
 22 21  2  0  0  0  0
 23 22  1  0  0  0  0
 24 22  1  0  0  0  0
 24 26  2  0  0  0  0
 25 24  1  0  0  0  0
 26 28  1  0  0  0  0
 27 26  1  0  0  0  0
 29  3  1  0  0  0  0
 29 30  1  0  0  0  0
 29 32  1  0  0  0  0
 31 29  1  0  0  0  0
M  END
>  <minimizedAffinity>
-6.23234844

>  <minimizedRMSD>
3.85056376

$$$$
