
 OpenBabel03272508543D

 37 40  0  0  1  0  0  0  0  0999 V2000
   38.3850   31.8450   44.5510 C   0  0  0  0  0  0  0  0  0  0  0  0
   37.2650   32.4270   44.4340 O   0  0  0  0  0  0  0  0  0  0  0  0
   38.9260   31.5540   45.8450 N   0  0  0  0  0  0  0  0  0  0  0  0
   39.9020   31.2280   46.0130 H   0  0  0  0  0  0  0  0  0  0  0  0
   39.1540   31.4570   43.3600 C   0  0  0  0  0  0  0  0  0  0  0  0
   40.1180   30.4930   43.4980 C   0  0  0  0  0  0  0  0  0  0  0  0
   40.8460   30.1100   42.3880 C   0  0  0  0  0  0  0  0  0  0  0  0
   40.5560   30.7270   41.1900 C   0  0  0  0  0  0  0  0  0  0  0  0
   39.5850   31.7010   41.0410 C   0  0  0  0  0  0  0  0  0  0  0  0
   38.9310   32.0110   42.1620 N   0  0  0  0  0  0  0  0  0  0  0  0
   40.3810   29.9800   44.4140 H   0  0  0  0  0  0  0  0  0  0  0  0
   41.6180   29.3550   42.4320 H   0  0  0  0  0  0  0  0  0  0  0  0
   41.1330   30.4190   40.3240 H   0  0  0  0  0  0  0  0  0  0  0  0
   39.2980   32.3400   39.7640 C   0  0  0  0  0  0  0  0  0  0  0  0
   38.6370   33.5550   39.6530 C   0  0  0  0  0  0  0  0  0  0  0  0
   38.2660   34.1610   40.4620 H   0  0  0  0  0  0  0  0  0  0  0  0
   38.5960   33.7550   38.2700 C   0  0  0  0  0  0  0  0  0  0  0  0
   38.1460   34.6180   37.7970 H   0  0  0  0  0  0  0  0  0  0  0  0
   39.2090   32.6910   37.6400 C   0  0  0  0  0  0  0  0  0  0  0  0
   39.3560   32.5190   36.5820 H   0  0  0  0  0  0  0  0  0  0  0  0
   39.6220   31.8550   38.5700 O   0  0  0  0  0  0  0  0  0  0  0  0
   38.4250   31.1210   48.2440 C   0  0  2  0  0  0  0  0  0  0  0  0
   38.6830   32.5630   48.1300 C   0  0  0  0  0  0  0  0  0  0  0  0
   38.0470   31.7300   46.9900 C   0  0  1  0  0  0  0  0  0  0  0  0
   39.3480   30.5110   48.3310 H   0  0  0  0  0  0  0  0  0  0  0  0
   38.0590   33.3200   48.6330 H   0  0  0  0  0  0  0  0  0  0  0  0
   39.7190   32.9230   47.9730 H   0  0  0  0  0  0  0  0  0  0  0  0
   36.9910   32.0480   46.7800 H   0  0  0  0  0  0  0  0  0  0  0  0
   35.0860   30.1900   49.5480 C   0  0  0  0  0  0  0  0  0  0  0  0
   35.4120   29.5410   50.7820 C   0  0  0  0  0  0  0  0  0  0  0  0
   36.8110   29.4500   51.1340 C   0  0  0  0  0  0  0  0  0  0  0  0
   37.7500   29.9750   50.2960 N   0  0  0  0  0  0  0  0  0  0  0  0
   37.3500   30.5790   49.1360 C   0  0  0  0  0  0  0  0  0  0  0  0
   36.0350   30.7030   48.7340 N   0  0  0  0  0  0  0  0  0  0  0  0
   34.0360   30.2230   49.3490 H   0  0  0  0  0  0  0  0  0  0  0  0
   34.6530   29.1410   51.4160 H   0  0  0  0  0  0  0  0  0  0  0  0
   37.0590   28.9630   52.0610 H   0  0  0  0  0  0  0  0  0  0  0  0
  1  3  1  0  0  0  0
  2  1  2  0  0  0  0
  3  4  1  0  0  0  0
  3 24  1  0  0  0  0
  5  6  1  0  0  0  0
  5  1  1  0  0  0  0
  6 11  1  0  0  0  0
  7 12  1  0  0  0  0
  7  6  2  0  0  0  0
  8  7  1  0  0  0  0
  9  8  2  0  0  0  0
  9 10  1  0  0  0  0
 10  5  2  0  0  0  0
 13  8  1  0  0  0  0
 14  9  1  0  0  0  0
 15 14  2  0  0  0  0
 15 16  1  0  0  0  0
 17 15  1  0  0  0  0
 18 17  1  0  0  0  0
 19 17  2  0  0  0  0
 19 21  1  0  0  0  0
 20 19  1  0  0  0  0
 21 14  1  0  0  0  0
 22 25  1  6  0  0  0
 22 33  1  0  0  0  0
 23 22  1  0  0  0  0
 23 26  1  0  0  0  0
 24 28  1  6  0  0  0
 24 23  1  0  0  0  0
 24 22  1  0  0  0  0
 27 23  1  0  0  0  0
 29 30  1  0  0  0  0
 30 31  2  0  0  0  0
 30 36  1  0  0  0  0
 31 37  1  0  0  0  0
 32 31  1  0  0  0  0
 33 32  2  0  0  0  0
 34 33  1  0  0  0  0
 34 29  2  0  0  0  0
 35 29  1  0  0  0  0
M  END
>  <minimizedAffinity>
-5.15988493

>  <minimizedRMSD>
0.424416006

$$$$
