
 OpenBabel03272508123D

 33 35  0  0  0  0  0  0  0  0999 V2000
   36.7170   29.3510   44.0370 Cl  0  0  0  0  0  0  0  0  0  0  0  0
   38.3690   29.7660   43.5470 C   0  0  0  0  0  0  0  0  0  0  0  0
   39.3330   30.3020   44.4010 C   0  0  0  0  0  0  0  0  0  0  0  0
   40.5850   30.5810   43.8790 C   0  0  0  0  0  0  0  0  0  0  0  0
   40.8580   30.3340   42.5590 C   0  0  0  0  0  0  0  0  0  0  0  0
   39.9380   29.8130   41.7110 C   0  0  0  0  0  0  0  0  0  0  0  0
   38.6840   29.5240   42.1960 C   0  0  0  0  0  0  0  0  0  0  0  0
   41.2460   30.9920   44.6310 H   0  0  0  0  0  0  0  0  0  0  0  0
   41.8580   30.5810   42.2320 H   0  0  0  0  0  0  0  0  0  0  0  0
   40.1620   29.6210   40.6690 H   0  0  0  0  0  0  0  0  0  0  0  0
   37.6700   28.9610   41.3050 C   0  0  0  0  0  0  0  0  0  0  0  0
   37.5330   27.6260   40.9940 C   0  0  0  0  0  0  0  0  0  0  0  0
   38.1040   26.7770   41.3170 H   0  0  0  0  0  0  0  0  0  0  0  0
   36.4600   27.4920   40.1210 C   0  0  0  0  0  0  0  0  0  0  0  0
   35.9920   26.6650   39.6230 H   0  0  0  0  0  0  0  0  0  0  0  0
   35.9900   28.7990   39.9450 C   0  0  0  0  0  0  0  0  0  0  0  0
   35.1530   29.1080   39.3280 H   0  0  0  0  0  0  0  0  0  0  0  0
   36.7330   29.6120   40.6600 O   0  0  0  0  0  0  0  0  0  0  0  0
   38.8470   30.4660   45.6690 O   0  0  0  0  0  0  0  0  0  0  0  0
   39.4310   32.5420   47.0940 O   0  0  0  0  0  0  0  0  0  0  0  0
   38.2890   31.8480   46.4220 P   0  0  1  0  0  0  0  0  0  0  0  0
   37.6920   32.8300   45.1530 O   0  0  0  0  0  0  0  0  0  0  0  0
   38.3190   33.5860   45.0080 H   0  0  0  0  0  0  0  0  0  0  0  0
   37.0200   31.4570   47.4740 O   0  0  0  0  0  0  0  0  0  0  0  0
   37.6220   30.5240   50.9920 C   0  0  0  0  0  0  0  0  0  0  0  0
   37.7030   31.3100   49.8390 C   0  0  0  0  0  0  0  0  0  0  0  0
   37.0700   30.8670   48.6830 C   0  0  0  0  0  0  0  0  0  0  0  0
   36.3960   29.6780   48.7380 N   0  0  0  0  0  0  0  0  0  0  0  0
   36.3370   28.9440   49.8700 C   0  0  0  0  0  0  0  0  0  0  0  0
   36.9460   29.3650   50.9900 N   0  0  0  0  0  0  0  0  0  0  0  0
   38.1390   30.9320   51.8520 H   0  0  0  0  0  0  0  0  0  0  0  0
   38.2050   32.2380   49.7190 H   0  0  0  0  0  0  0  0  0  0  0  0
   35.7940   27.9960   49.9000 H   0  0  0  0  0  0  0  0  0  0  0  0
  2  1  1  0  0  0  0
  2  3  1  0  0  0  0
  3 19  1  0  0  0  0
  4  3  2  0  0  0  0
  4  8  1  0  0  0  0
  5  4  1  0  0  0  0
  6  7  1  0  0  0  0
  6  5  2  0  0  0  0
  7  2  2  0  0  0  0
  9  5  1  0  0  0  0
 10  6  1  0  0  0  0
 11  7  1  0  0  0  0
 12 11  2  0  0  0  0
 12 13  1  0  0  0  0
 14 12  1  0  0  0  0
 15 14  1  0  0  0  0
 16 14  2  0  0  0  0
 16 18  1  0  0  0  0
 17 16  1  0  0  0  0
 18 11  1  0  0  0  0
 19 21  1  0  0  0  0
 21 20  2  1  0  0  0
 21 24  1  0  0  0  0
 22 21  1  0  0  0  0
 23 22  1  0  0  0  0
 24 27  1  0  0  0  0
 25 31  1  0  0  0  0
 26 25  2  0  0  0  0
 27 28  2  0  0  0  0
 27 26  1  0  0  0  0
 28 29  1  0  0  0  0
 29 33  1  0  0  0  0
 29 30  2  0  0  0  0
 30 25  1  0  0  0  0
 32 26  1  0  0  0  0
M  END
>  <minimizedAffinity>
-4.77790117

>  <minimizedRMSD>
0.324214399

$$$$
