
 OpenBabel03272506563D

 19 20  0  0  0  0  0  0  0  0999 V2000
   36.5220   29.7180   51.1250 C   0  0  0  0  0  0  0  0  0  0  0  0
   37.4110   30.1750   50.1380 C   0  0  0  0  0  0  0  0  0  0  0  0
   37.0360   29.9500   48.8050 C   0  0  0  0  0  0  0  0  0  0  0  0
   35.8680   29.3210   48.5420 N   0  0  0  0  0  0  0  0  0  0  0  0
   35.0470   28.8990   49.5180 C   0  0  0  0  0  0  0  0  0  0  0  0
   35.3660   29.0940   50.8160 N   0  0  0  0  0  0  0  0  0  0  0  0
   36.7210   29.8440   52.1800 H   0  0  0  0  0  0  0  0  0  0  0  0
   37.7030   30.2930   48.0340 H   0  0  0  0  0  0  0  0  0  0  0  0
   33.8320   28.2400   49.0510 C   0  0  0  0  0  0  0  0  0  0  0  0
   34.0360   27.2940   48.0430 C   0  0  0  0  0  0  0  0  0  0  0  0
   34.8960   26.9050   47.4960 H   0  0  0  0  0  0  0  0  0  0  0  0
   32.7890   26.7600   47.7090 C   0  0  0  0  0  0  0  0  0  0  0  0
   32.3730   26.0330   47.0340 H   0  0  0  0  0  0  0  0  0  0  0  0
   31.9050   27.4360   48.5560 C   0  0  0  0  0  0  0  0  0  0  0  0
   30.8350   27.4510   48.7560 H   0  0  0  0  0  0  0  0  0  0  0  0
   32.5500   28.2890   49.3210 O   0  0  0  0  0  0  0  0  0  0  0  0
   38.6180   30.8280   50.5190 N   0  0  0  0  0  0  0  0  0  0  0  0
   38.4770   31.7880   50.0950 H   0  0  0  0  0  0  0  0  0  0  0  0
   39.4560   30.5240   51.0620 H   0  0  0  0  0  0  0  0  0  0  0  0
  1  7  1  0  0  0  0
  2 17  1  0  0  0  0
  2  1  2  0  0  0  0
  3  2  1  0  0  0  0
  4  3  2  0  0  0  0
  4  5  1  0  0  0  0
  5  6  2  0  0  0  0
  6  1  1  0  0  0  0
  8  3  1  0  0  0  0
  9 16  1  0  0  0  0
  9  5  1  0  0  0  0
 10  9  2  0  0  0  0
 11 10  1  0  0  0  0
 12 10  1  0  0  0  0
 12 14  2  0  0  0  0
 13 12  1  0  0  0  0
 14 15  1  0  0  0  0
 14 16  1  0  0  0  0
 17 19  1  0  0  0  0
 18 17  1  0  0  0  0
M  END
>  <minimizedAffinity>
-4.33310986

>  <minimizedRMSD>
0.648339272

$$$$
