
 OpenBabel03272510213D

 35 38  0  0  0  0  0  0  0  0999 V2000
   37.3720   29.1660   50.8090 Br  0  0  0  0  0  0  0  0  0  0  0  0
   35.9720   29.2870   49.5060 C   0  0  0  0  0  0  0  0  0  0  0  0
   35.9870   30.2900   48.5500 C   0  0  0  0  0  0  0  0  0  0  0  0
   34.9500   30.3250   47.6380 C   0  0  0  0  0  0  0  0  0  0  0  0
   33.9130   29.3960   47.6590 C   0  0  0  0  0  0  0  0  0  0  0  0
   33.9280   28.4260   48.6110 C   0  0  0  0  0  0  0  0  0  0  0  0
   34.9590   28.3800   49.5270 C   0  0  0  0  0  0  0  0  0  0  0  0
   34.8950   31.0760   46.8640 H   0  0  0  0  0  0  0  0  0  0  0  0
   33.1390   27.7100   48.6360 H   0  0  0  0  0  0  0  0  0  0  0  0
   34.9170   27.5860   50.2610 H   0  0  0  0  0  0  0  0  0  0  0  0
   38.0090   33.1810   49.4950 C   0  0  0  0  0  0  0  0  0  0  0  0
   39.0390   33.1900   48.5190 C   0  0  0  0  0  0  0  0  0  0  0  0
   39.0270   32.1970   47.5420 C   0  0  0  0  0  0  0  0  0  0  0  0
   38.0250   31.2560   47.5630 N   0  0  0  0  0  0  0  0  0  0  0  0
   37.0620   31.2760   48.5040 C   0  0  0  0  0  0  0  0  0  0  0  0
   37.0590   32.2410   49.4670 N   0  0  0  0  0  0  0  0  0  0  0  0
   38.0610   33.9670   50.2300 H   0  0  0  0  0  0  0  0  0  0  0  0
   39.8000   33.9470   48.5440 H   0  0  0  0  0  0  0  0  0  0  0  0
   39.7790   32.1580   46.7830 H   0  0  0  0  0  0  0  0  0  0  0  0
   32.8130   29.4310   46.6950 C   0  0  0  0  0  0  0  0  0  0  0  0
   31.9170   28.3980   46.4930 C   0  0  0  0  0  0  0  0  0  0  0  0
   30.8910   28.4850   45.5630 C   0  0  0  0  0  0  0  0  0  0  0  0
   30.7450   29.5850   44.8330 N   0  0  0  0  0  0  0  0  0  0  0  0
   31.6100   30.5980   45.0190 C   0  0  0  0  0  0  0  0  0  0  0  0
   32.6000   30.5140   45.9160 N   0  0  0  0  0  0  0  0  0  0  0  0
   32.0440   27.5040   47.0930 H   0  0  0  0  0  0  0  0  0  0  0  0
   30.2190   27.6430   45.4500 H   0  0  0  0  0  0  0  0  0  0  0  0
   31.5910   31.8730   44.3020 C   0  0  0  0  0  0  0  0  0  0  0  0
   31.5810   33.0700   45.0270 C   0  0  0  0  0  0  0  0  0  0  0  0
   31.5850   33.2130   46.0980 H   0  0  0  0  0  0  0  0  0  0  0  0
   31.5620   34.1230   44.1100 C   0  0  0  0  0  0  0  0  0  0  0  0
   31.5520   35.1670   44.3970 H   0  0  0  0  0  0  0  0  0  0  0  0
   31.5630   33.4800   42.8660 C   0  0  0  0  0  0  0  0  0  0  0  0
   31.5510   34.0330   41.9350 H   0  0  0  0  0  0  0  0  0  0  0  0
   31.5800   32.1950   43.0290 O   0  0  0  0  0  0  0  0  0  0  0  0
  2  7  1  0  0  0  0
  2  1  1  0  0  0  0
  3  2  2  0  0  0  0
  4  5  2  0  0  0  0
  4  3  1  0  0  0  0
  5  6  1  0  0  0  0
  6  9  1  0  0  0  0
  6  7  2  0  0  0  0
  7 10  1  0  0  0  0
  8  4  1  0  0  0  0
 11 17  1  0  0  0  0
 12 18  1  0  0  0  0
 12 11  2  0  0  0  0
 13 14  2  0  0  0  0
 13 12  1  0  0  0  0
 14 15  1  0  0  0  0
 15  3  1  0  0  0  0
 15 16  2  0  0  0  0
 16 11  1  0  0  0  0
 19 13  1  0  0  0  0
 20  5  1  0  0  0  0
 21 20  1  0  0  0  0
 21 26  1  0  0  0  0
 22 21  2  0  0  0  0
 23 24  2  0  0  0  0
 23 22  1  0  0  0  0
 24 25  1  0  0  0  0
 25 20  2  0  0  0  0
 27 22  1  0  0  0  0
 28 24  1  0  0  0  0
 28 29  2  0  0  0  0
 29 30  1  0  0  0  0
 31 32  1  0  0  0  0
 31 29  1  0  0  0  0
 33 35  1  0  0  0  0
 33 31  2  0  0  0  0
 34 33  1  0  0  0  0
 35 28  1  0  0  0  0
M  END
>  <minimizedAffinity>
-6.40334606

>  <minimizedRMSD>
0.456835538

$$$$
