
 OpenBabel03272502203D

 27 29  0  0  0  0  0  0  0  0999 V2000
   37.1120   25.7260   32.9080 C   0  0  0  0  0  0  0  0  0  0  0  0
   36.4240   26.6310   32.0590 C   0  0  0  0  0  0  0  0  0  0  0  0
   35.6420   26.0880   31.0470 C   0  0  0  0  0  0  0  0  0  0  0  0
   35.5790   24.7290   30.9280 N   0  0  0  0  0  0  0  0  0  0  0  0
   36.2470   23.8910   31.7520 C   0  0  0  0  0  0  0  0  0  0  0  0
   37.0150   24.4040   32.7450 N   0  0  0  0  0  0  0  0  0  0  0  0
   36.4640   27.6930   32.1420 H   0  0  0  0  0  0  0  0  0  0  0  0
   35.0710   26.6810   30.3390 H   0  0  0  0  0  0  0  0  0  0  0  0
   38.6890   22.6690   30.2190 Br  0  0  0  0  0  0  0  0  0  0  0  0
   37.1840   21.7570   30.9560 C   0  0  0  0  0  0  0  0  0  0  0  0
   36.1720   22.4440   31.6140 C   0  0  0  0  0  0  0  0  0  0  0  0
   35.1250   21.7120   32.1140 C   0  0  0  0  0  0  0  0  0  0  0  0
   35.0300   20.3410   31.9970 C   0  0  0  0  0  0  0  0  0  0  0  0
   36.0400   19.6870   31.3440 C   0  0  0  0  0  0  0  0  0  0  0  0
   37.1220   20.3990   30.8210 C   0  0  0  0  0  0  0  0  0  0  0  0
   34.3070   22.2030   32.6380 H   0  0  0  0  0  0  0  0  0  0  0  0
   34.1890   19.7840   32.4030 H   0  0  0  0  0  0  0  0  0  0  0  0
   35.9510   18.6120   31.2610 H   0  0  0  0  0  0  0  0  0  0  0  0
   37.8640   19.7750   30.3250 H   0  0  0  0  0  0  0  0  0  0  0  0
   37.9300   26.3120   33.9660 C   0  0  0  0  0  0  0  0  0  0  0  0
   37.4350   27.0350   35.0330 C   0  0  0  0  0  0  0  0  0  0  0  0
   36.4310   27.3010   35.2980 H   0  0  0  0  0  0  0  0  0  0  0  0
   38.5640   27.3760   35.7510 C   0  0  0  0  0  0  0  0  0  0  0  0
   38.6800   27.9420   36.6670 H   0  0  0  0  0  0  0  0  0  0  0  0
   39.6940   26.8580   35.1070 C   0  0  0  0  0  0  0  0  0  0  0  0
   40.7580   26.8740   35.3000 H   0  0  0  0  0  0  0  0  0  0  0  0
   39.2350   26.2290   34.0380 O   0  0  0  0  0  0  0  0  0  0  0  0
  1 20  1  0  0  0  0
  2  7  1  0  0  0  0
  2  1  2  0  0  0  0
  3  2  1  0  0  0  0
  4  3  2  0  0  0  0
  4  5  1  0  0  0  0
  5  6  2  0  0  0  0
  6  1  1  0  0  0  0
  8  3  1  0  0  0  0
  9 10  1  0  0  0  0
 10 11  1  0  0  0  0
 11  5  1  0  0  0  0
 11 12  2  0  0  0  0
 12 16  1  0  0  0  0
 13 12  1  0  0  0  0
 13 17  1  0  0  0  0
 14 13  2  0  0  0  0
 15 10  2  0  0  0  0
 15 14  1  0  0  0  0
 18 14  1  0  0  0  0
 19 15  1  0  0  0  0
 20 27  1  0  0  0  0
 20 21  2  0  0  0  0
 21 22  1  0  0  0  0
 21 23  1  0  0  0  0
 23 24  1  0  0  0  0
 25 26  1  0  0  0  0
 25 23  2  0  0  0  0
 27 25  1  0  0  0  0
M  END
>  <minimizedAffinity>
-5.23142433

$$$$

 OpenBabel03272502203D

 27 29  0  0  0  0  0  0  0  0999 V2000
   37.1160   21.8250   33.0150 C   0  0  0  0  0  0  0  0  0  0  0  0
   37.3520   22.8460   32.0580 C   0  0  0  0  0  0  0  0  0  0  0  0
   37.9580   24.0140   32.5060 C   0  0  0  0  0  0  0  0  0  0  0  0
   38.2880   24.1130   33.8280 N   0  0  0  0  0  0  0  0  0  0  0  0
   38.0500   23.1230   34.7170 C   0  0  0  0  0  0  0  0  0  0  0  0
   37.4600   21.9770   34.2970 N   0  0  0  0  0  0  0  0  0  0  0  0
   37.1000   22.7810   31.0240 H   0  0  0  0  0  0  0  0  0  0  0  0
   38.1880   24.8600   31.8660 H   0  0  0  0  0  0  0  0  0  0  0  0
   40.9280   22.0670   35.3540 Br  0  0  0  0  0  0  0  0  0  0  0  0
   39.6530   22.8140   36.5600 C   0  0  0  0  0  0  0  0  0  0  0  0
   38.4060   23.2410   36.1230 C   0  0  0  0  0  0  0  0  0  0  0  0
   37.5490   23.7660   37.0570 C   0  0  0  0  0  0  0  0  0  0  0  0
   37.8600   23.8890   38.3940 C   0  0  0  0  0  0  0  0  0  0  0  0
   39.0960   23.4600   38.8000 C   0  0  0  0  0  0  0  0  0  0  0  0
   39.9960   22.9200   37.8780 C   0  0  0  0  0  0  0  0  0  0  0  0
   36.5590   24.1150   36.7650 H   0  0  0  0  0  0  0  0  0  0  0  0
   37.1620   24.3090   39.1140 H   0  0  0  0  0  0  0  0  0  0  0  0
   39.3260   23.5640   39.8520 H   0  0  0  0  0  0  0  0  0  0  0  0
   40.9460   22.6150   38.3150 H   0  0  0  0  0  0  0  0  0  0  0  0
   36.4790   20.6050   32.5280 C   0  0  0  0  0  0  0  0  0  0  0  0
   35.5320   19.8810   33.2240 C   0  0  0  0  0  0  0  0  0  0  0  0
   35.0930   20.0410   34.1890 H   0  0  0  0  0  0  0  0  0  0  0  0
   35.2330   18.8320   32.3780 C   0  0  0  0  0  0  0  0  0  0  0  0
   34.5450   18.0030   32.4880 H   0  0  0  0  0  0  0  0  0  0  0  0
   35.9970   18.9490   31.2100 C   0  0  0  0  0  0  0  0  0  0  0  0
   36.0930   18.3750   30.2990 H   0  0  0  0  0  0  0  0  0  0  0  0
   36.7260   20.0400   31.3720 O   0  0  0  0  0  0  0  0  0  0  0  0
  1  6  1  0  0  0  0
  2  3  1  0  0  0  0
  2  1  2  0  0  0  0
  3  4  2  0  0  0  0
  4  5  1  0  0  0  0
  5 11  1  0  0  0  0
  6  5  2  0  0  0  0
  7  2  1  0  0  0  0
  8  3  1  0  0  0  0
  9 10  1  0  0  0  0
 10 15  1  0  0  0  0
 11 10  2  0  0  0  0
 11 12  1  0  0  0  0
 12 13  2  0  0  0  0
 13 14  1  0  0  0  0
 13 17  1  0  0  0  0
 14 18  1  0  0  0  0
 15 19  1  0  0  0  0
 15 14  2  0  0  0  0
 16 12  1  0  0  0  0
 20  1  1  0  0  0  0
 20 21  2  0  0  0  0
 21 22  1  0  0  0  0
 23 24  1  0  0  0  0
 23 21  1  0  0  0  0
 25 27  1  0  0  0  0
 25 23  2  0  0  0  0
 26 25  1  0  0  0  0
 27 20  1  0  0  0  0
M  END
>  <minimizedAffinity>
-5.1807189

$$$$

 OpenBabel03272502203D

 27 29  0  0  0  0  0  0  0  0999 V2000
   36.0010   23.5180   31.6550 C   0  0  0  0  0  0  0  0  0  0  0  0
   35.1810   24.2790   30.7820 C   0  0  0  0  0  0  0  0  0  0  0  0
   35.2510   25.6620   30.8850 C   0  0  0  0  0  0  0  0  0  0  0  0
   36.0950   26.2070   31.8100 N   0  0  0  0  0  0  0  0  0  0  0  0
   36.8640   25.4570   32.6290 C   0  0  0  0  0  0  0  0  0  0  0  0
   36.8090   24.1050   32.5420 N   0  0  0  0  0  0  0  0  0  0  0  0
   34.5190   23.8650   30.0560 H   0  0  0  0  0  0  0  0  0  0  0  0
   34.6720   26.3450   30.2700 H   0  0  0  0  0  0  0  0  0  0  0  0
   39.7210   26.0520   31.4930 Br  0  0  0  0  0  0  0  0  0  0  0  0
   39.0640   26.3710   33.2550 C   0  0  0  0  0  0  0  0  0  0  0  0
   37.7600   26.0500   33.6110 C   0  0  0  0  0  0  0  0  0  0  0  0
   37.3680   26.3110   34.8990 C   0  0  0  0  0  0  0  0  0  0  0  0
   38.1960   26.8720   35.8490 C   0  0  0  0  0  0  0  0  0  0  0  0
   39.4770   27.1800   35.4740 C   0  0  0  0  0  0  0  0  0  0  0  0
   39.9120   26.9270   34.1710 C   0  0  0  0  0  0  0  0  0  0  0  0
   36.3560   26.0790   35.2270 H   0  0  0  0  0  0  0  0  0  0  0  0
   37.8600   27.0700   36.8640 H   0  0  0  0  0  0  0  0  0  0  0  0
   40.1130   27.6190   36.2300 H   0  0  0  0  0  0  0  0  0  0  0  0
   40.9470   27.2130   33.9870 H   0  0  0  0  0  0  0  0  0  0  0  0
   35.9170   22.0650   31.5350 C   0  0  0  0  0  0  0  0  0  0  0  0
   35.0140   21.2710   32.2120 C   0  0  0  0  0  0  0  0  0  0  0  0
   34.2420   21.5230   32.9130 H   0  0  0  0  0  0  0  0  0  0  0  0
   35.3130   19.9940   31.7830 C   0  0  0  0  0  0  0  0  0  0  0  0
   34.8730   19.0370   32.0370 H   0  0  0  0  0  0  0  0  0  0  0  0
   36.3740   20.0490   30.8720 C   0  0  0  0  0  0  0  0  0  0  0  0
   36.9260   19.3190   30.2960 H   0  0  0  0  0  0  0  0  0  0  0  0
   36.6870   21.3300   30.7720 O   0  0  0  0  0  0  0  0  0  0  0  0
  1  6  1  0  0  0  0
  2  3  1  0  0  0  0
  2  1  2  0  0  0  0
  3  4  2  0  0  0  0
  4  5  1  0  0  0  0
  5 11  1  0  0  0  0
  6  5  2  0  0  0  0
  7  2  1  0  0  0  0
  8  3  1  0  0  0  0
  9 10  1  0  0  0  0
 10 11  2  0  0  0  0
 10 15  1  0  0  0  0
 11 12  1  0  0  0  0
 12 16  1  0  0  0  0
 12 13  2  0  0  0  0
 13 17  1  0  0  0  0
 14 13  1  0  0  0  0
 14 18  1  0  0  0  0
 15 14  2  0  0  0  0
 19 15  1  0  0  0  0
 20  1  1  0  0  0  0
 20 21  2  0  0  0  0
 21 22  1  0  0  0  0
 23 24  1  0  0  0  0
 23 21  1  0  0  0  0
 25 23  2  0  0  0  0
 26 25  1  0  0  0  0
 27 25  1  0  0  0  0
 27 20  1  0  0  0  0
M  END
>  <minimizedAffinity>
-5.09667397

$$$$

 OpenBabel03272502203D

 27 29  0  0  0  0  0  0  0  0999 V2000
   37.6730   25.4860   33.5220 C   0  0  0  0  0  0  0  0  0  0  0  0
   37.7590   26.8620   33.8610 C   0  0  0  0  0  0  0  0  0  0  0  0
   38.6460   27.2170   34.8690 C   0  0  0  0  0  0  0  0  0  0  0  0
   39.3780   26.2330   35.4720 N   0  0  0  0  0  0  0  0  0  0  0  0
   39.2740   24.9310   35.1280 C   0  0  0  0  0  0  0  0  0  0  0  0
   38.4140   24.5660   34.1460 N   0  0  0  0  0  0  0  0  0  0  0  0
   37.1940   27.6380   33.3980 H   0  0  0  0  0  0  0  0  0  0  0  0
   38.7970   28.2360   35.2110 H   0  0  0  0  0  0  0  0  0  0  0  0
   37.9070   23.7730   37.6960 Br  0  0  0  0  0  0  0  0  0  0  0  0
   39.5840   23.2820   36.9310 C   0  0  0  0  0  0  0  0  0  0  0  0
   40.0600   23.8920   35.7780 C   0  0  0  0  0  0  0  0  0  0  0  0
   41.2760   23.4790   35.2940 C   0  0  0  0  0  0  0  0  0  0  0  0
   42.0400   22.4990   35.8900 C   0  0  0  0  0  0  0  0  0  0  0  0
   41.5490   21.9120   37.0260 C   0  0  0  0  0  0  0  0  0  0  0  0
   40.3150   22.3070   37.5480 C   0  0  0  0  0  0  0  0  0  0  0  0
   41.6930   23.9260   34.3930 H   0  0  0  0  0  0  0  0  0  0  0  0
   43.0010   22.1890   35.4860 H   0  0  0  0  0  0  0  0  0  0  0  0
   42.1600   21.1450   37.4810 H   0  0  0  0  0  0  0  0  0  0  0  0
   40.0260   21.7720   38.4520 H   0  0  0  0  0  0  0  0  0  0  0  0
   36.7360   25.1290   32.4600 C   0  0  0  0  0  0  0  0  0  0  0  0
   36.5560   23.8530   31.9680 C   0  0  0  0  0  0  0  0  0  0  0  0
   37.0210   22.9230   32.2320 H   0  0  0  0  0  0  0  0  0  0  0  0
   35.5880   24.0100   30.9960 C   0  0  0  0  0  0  0  0  0  0  0  0
   35.1190   23.2900   30.3360 H   0  0  0  0  0  0  0  0  0  0  0  0
   35.2160   25.3580   30.9280 C   0  0  0  0  0  0  0  0  0  0  0  0
   34.5160   25.9280   30.3340 H   0  0  0  0  0  0  0  0  0  0  0  0
   35.9500   25.9730   31.8390 O   0  0  0  0  0  0  0  0  0  0  0  0
  1  2  2  0  0  0  0
  1  6  1  0  0  0  0
  2  3  1  0  0  0  0
  3  8  1  0  0  0  0
  3  4  2  0  0  0  0
  5  4  1  0  0  0  0
  5 11  1  0  0  0  0
  6  5  2  0  0  0  0
  7  2  1  0  0  0  0
 10 15  1  0  0  0  0
 10  9  1  0  0  0  0
 11 10  2  0  0  0  0
 12 11  1  0  0  0  0
 12 13  2  0  0  0  0
 13 14  1  0  0  0  0
 14 18  1  0  0  0  0
 14 15  2  0  0  0  0
 15 19  1  0  0  0  0
 16 12  1  0  0  0  0
 17 13  1  0  0  0  0
 20  1  1  0  0  0  0
 21 22  1  0  0  0  0
 21 20  2  0  0  0  0
 23 21  1  0  0  0  0
 24 23  1  0  0  0  0
 25 23  2  0  0  0  0
 25 27  1  0  0  0  0
 26 25  1  0  0  0  0
 27 20  1  0  0  0  0
M  END
>  <minimizedAffinity>
-5.0801425

$$$$

 OpenBabel03272502203D

 27 29  0  0  0  0  0  0  0  0999 V2000
   36.6930   28.0050   33.9780 C   0  0  0  0  0  0  0  0  0  0  0  0
   36.7180   28.2640   32.5830 C   0  0  0  0  0  0  0  0  0  0  0  0
   36.0830   29.4160   32.1360 C   0  0  0  0  0  0  0  0  0  0  0  0
   35.4760   30.2260   33.0530 N   0  0  0  0  0  0  0  0  0  0  0  0
   35.4690   29.9530   34.3770 C   0  0  0  0  0  0  0  0  0  0  0  0
   36.0840   28.8340   34.8310 N   0  0  0  0  0  0  0  0  0  0  0  0
   37.1880   27.6400   31.8570 H   0  0  0  0  0  0  0  0  0  0  0  0
   36.0380   29.7170   31.0930 H   0  0  0  0  0  0  0  0  0  0  0  0
   32.3980   29.4110   34.6600 Br  0  0  0  0  0  0  0  0  0  0  0  0
   33.4560   30.7040   35.5810 C   0  0  0  0  0  0  0  0  0  0  0  0
   34.8190   30.8250   35.3450 C   0  0  0  0  0  0  0  0  0  0  0  0
   35.5050   31.7810   36.0490 C   0  0  0  0  0  0  0  0  0  0  0  0
   34.9150   32.6190   36.9710 C   0  0  0  0  0  0  0  0  0  0  0  0
   33.5690   32.4800   37.1860 C   0  0  0  0  0  0  0  0  0  0  0  0
   32.8370   31.5180   36.4870 C   0  0  0  0  0  0  0  0  0  0  0  0
   36.5760   31.9150   35.9010 H   0  0  0  0  0  0  0  0  0  0  0  0
   35.4820   33.3690   37.5170 H   0  0  0  0  0  0  0  0  0  0  0  0
   33.1210   33.1450   37.9120 H   0  0  0  0  0  0  0  0  0  0  0  0
   31.7780   31.4980   36.7390 H   0  0  0  0  0  0  0  0  0  0  0  0
   37.3660   26.7910   34.4320 C   0  0  0  0  0  0  0  0  0  0  0  0
   38.0260   26.6620   35.6370 C   0  0  0  0  0  0  0  0  0  0  0  0
   38.1760   27.3620   36.4360 H   0  0  0  0  0  0  0  0  0  0  0  0
   38.4900   25.3620   35.6200 C   0  0  0  0  0  0  0  0  0  0  0  0
   39.0630   24.8020   36.3480 H   0  0  0  0  0  0  0  0  0  0  0  0
   38.1040   24.7500   34.4210 C   0  0  0  0  0  0  0  0  0  0  0  0
   38.2390   23.7700   33.9850 H   0  0  0  0  0  0  0  0  0  0  0  0
   37.4300   25.6720   33.7540 O   0  0  0  0  0  0  0  0  0  0  0  0
  1 20  1  0  0  0  0
  1  6  1  0  0  0  0
  2  1  2  0  0  0  0
  3  2  1  0  0  0  0
  3  4  2  0  0  0  0
  4  5  1  0  0  0  0
  5  6  2  0  0  0  0
  5 11  1  0  0  0  0
  7  2  1  0  0  0  0
  8  3  1  0  0  0  0
  9 10  1  0  0  0  0
 10 15  1  0  0  0  0
 11 10  2  0  0  0  0
 11 12  1  0  0  0  0
 12 13  2  0  0  0  0
 13 14  1  0  0  0  0
 13 17  1  0  0  0  0
 14 18  1  0  0  0  0
 15 19  1  0  0  0  0
 15 14  2  0  0  0  0
 16 12  1  0  0  0  0
 20 21  2  0  0  0  0
 21 22  1  0  0  0  0
 23 21  1  0  0  0  0
 23 24  1  0  0  0  0
 25 23  2  0  0  0  0
 26 25  1  0  0  0  0
 27 25  1  0  0  0  0
 27 20  1  0  0  0  0
M  END
>  <minimizedAffinity>
-5.06714678

$$$$

 OpenBabel03272502203D

 27 29  0  0  0  0  0  0  0  0999 V2000
   37.5160   24.8940   32.7870 C   0  0  0  0  0  0  0  0  0  0  0  0
   37.2090   23.7600   31.9910 C   0  0  0  0  0  0  0  0  0  0  0  0
   37.3050   22.5110   32.5940 C   0  0  0  0  0  0  0  0  0  0  0  0
   37.6860   22.4460   33.9040 N   0  0  0  0  0  0  0  0  0  0  0  0
   37.9730   23.5440   34.6370 C   0  0  0  0  0  0  0  0  0  0  0  0
   37.8830   24.7700   34.0650 N   0  0  0  0  0  0  0  0  0  0  0  0
   36.9100   23.7980   30.9680 H   0  0  0  0  0  0  0  0  0  0  0  0
   37.0950   21.5760   32.0850 H   0  0  0  0  0  0  0  0  0  0  0  0
   40.8090   22.2760   35.0270 Br  0  0  0  0  0  0  0  0  0  0  0  0
   39.6130   22.9210   36.3650 C   0  0  0  0  0  0  0  0  0  0  0  0
   38.3780   23.4610   36.0330 C   0  0  0  0  0  0  0  0  0  0  0  0
   37.5780   23.9010   37.0570 C   0  0  0  0  0  0  0  0  0  0  0  0
   37.9360   23.8340   38.3870 C   0  0  0  0  0  0  0  0  0  0  0  0
   39.1600   23.2970   38.6890 C   0  0  0  0  0  0  0  0  0  0  0  0
   40.0010   22.8380   37.6730 C   0  0  0  0  0  0  0  0  0  0  0  0
   36.6000   24.3330   36.8490 H   0  0  0  0  0  0  0  0  0  0  0  0
   37.2840   24.1900   39.1810 H   0  0  0  0  0  0  0  0  0  0  0  0
   39.4270   23.2510   39.7360 H   0  0  0  0  0  0  0  0  0  0  0  0
   40.9470   22.4330   38.0300 H   0  0  0  0  0  0  0  0  0  0  0  0
   37.4090   26.1980   32.1400 C   0  0  0  0  0  0  0  0  0  0  0  0
   37.3600   27.4050   32.8070 C   0  0  0  0  0  0  0  0  0  0  0  0
   37.3870   27.6330   33.8540 H   0  0  0  0  0  0  0  0  0  0  0  0
   37.2620   28.3370   31.7930 C   0  0  0  0  0  0  0  0  0  0  0  0
   37.1960   29.4170   31.8240 H   0  0  0  0  0  0  0  0  0  0  0  0
   37.2540   27.6770   30.5580 C   0  0  0  0  0  0  0  0  0  0  0  0
   37.1940   27.9890   29.5250 H   0  0  0  0  0  0  0  0  0  0  0  0
   37.3450   26.3890   30.8450 O   0  0  0  0  0  0  0  0  0  0  0  0
  1  6  1  0  0  0  0
  2  3  1  0  0  0  0
  2  1  2  0  0  0  0
  3  4  2  0  0  0  0
  4  5  1  0  0  0  0
  5 11  1  0  0  0  0
  6  5  2  0  0  0  0
  7  2  1  0  0  0  0
  8  3  1  0  0  0  0
  9 10  1  0  0  0  0
 10 15  1  0  0  0  0
 11 10  2  0  0  0  0
 11 12  1  0  0  0  0
 12 13  2  0  0  0  0
 13 14  1  0  0  0  0
 13 17  1  0  0  0  0
 14 18  1  0  0  0  0
 15 19  1  0  0  0  0
 15 14  2  0  0  0  0
 16 12  1  0  0  0  0
 20  1  1  0  0  0  0
 20 21  2  0  0  0  0
 21 22  1  0  0  0  0
 23 24  1  0  0  0  0
 23 21  1  0  0  0  0
 25 27  1  0  0  0  0
 25 23  2  0  0  0  0
 26 25  1  0  0  0  0
 27 20  1  0  0  0  0
M  END
>  <minimizedAffinity>
-4.90954161

$$$$

 OpenBabel03272502203D

 27 29  0  0  0  0  0  0  0  0999 V2000
   38.7900   23.9090   35.0650 C   0  0  0  0  0  0  0  0  0  0  0  0
   39.5830   22.9080   34.4440 C   0  0  0  0  0  0  0  0  0  0  0  0
   39.7160   22.9660   33.0620 C   0  0  0  0  0  0  0  0  0  0  0  0
   39.0850   23.9700   32.3860 N   0  0  0  0  0  0  0  0  0  0  0  0
   38.3360   24.9100   33.0040 C   0  0  0  0  0  0  0  0  0  0  0  0
   38.1950   24.8690   34.3520 N   0  0  0  0  0  0  0  0  0  0  0  0
   40.0810   22.1200   34.9610 H   0  0  0  0  0  0  0  0  0  0  0  0
   40.2970   22.2560   32.4800 H   0  0  0  0  0  0  0  0  0  0  0  0
   35.7610   23.9500   31.5030 Br  0  0  0  0  0  0  0  0  0  0  0  0
   36.5110   25.7040   31.5550 C   0  0  0  0  0  0  0  0  0  0  0  0
   37.6680   25.9750   32.2720 C   0  0  0  0  0  0  0  0  0  0  0  0
   38.1400   27.2630   32.2560 C   0  0  0  0  0  0  0  0  0  0  0  0
   37.5280   28.2910   31.5700 C   0  0  0  0  0  0  0  0  0  0  0  0
   36.3870   27.9980   30.8710 C   0  0  0  0  0  0  0  0  0  0  0  0
   35.8770   26.6980   30.8640 C   0  0  0  0  0  0  0  0  0  0  0  0
   39.0450   27.5280   32.8020 H   0  0  0  0  0  0  0  0  0  0  0  0
   37.9230   29.3050   31.5740 H   0  0  0  0  0  0  0  0  0  0  0  0
   35.9190   28.8150   30.3390 H   0  0  0  0  0  0  0  0  0  0  0  0
   34.9680   26.5830   30.2750 H   0  0  0  0  0  0  0  0  0  0  0  0
   38.6600   23.8350   36.5170 C   0  0  0  0  0  0  0  0  0  0  0  0
   39.4230   23.0270   37.3350 C   0  0  0  0  0  0  0  0  0  0  0  0
   40.2120   22.3380   37.1060 H   0  0  0  0  0  0  0  0  0  0  0  0
   38.9440   23.2960   38.6020 C   0  0  0  0  0  0  0  0  0  0  0  0
   39.2330   22.9040   39.5690 H   0  0  0  0  0  0  0  0  0  0  0  0
   37.9180   24.2450   38.5160 C   0  0  0  0  0  0  0  0  0  0  0  0
   37.2730   24.7400   39.2280 H   0  0  0  0  0  0  0  0  0  0  0  0
   37.8010   24.5230   37.2280 O   0  0  0  0  0  0  0  0  0  0  0  0
  1 20  1  0  0  0  0
  2  7  1  0  0  0  0
  2  1  1  0  0  0  0
  3  2  2  0  0  0  0
  4  5  2  0  0  0  0
  4  3  1  0  0  0  0
  5  6  1  0  0  0  0
  6  1  2  0  0  0  0
  8  3  1  0  0  0  0
  9 10  1  0  0  0  0
 10 11  1  0  0  0  0
 11  5  1  0  0  0  0
 12 11  2  0  0  0  0
 12 16  1  0  0  0  0
 13 17  1  0  0  0  0
 13 12  1  0  0  0  0
 14 13  2  0  0  0  0
 15 14  1  0  0  0  0
 15 10  2  0  0  0  0
 18 14  1  0  0  0  0
 19 15  1  0  0  0  0
 20 27  1  0  0  0  0
 20 21  2  0  0  0  0
 21 23  1  0  0  0  0
 22 21  1  0  0  0  0
 23 24  1  0  0  0  0
 25 23  2  0  0  0  0
 25 26  1  0  0  0  0
 27 25  1  0  0  0  0
M  END
>  <minimizedAffinity>
-4.83618259

$$$$

 OpenBabel03272502203D

 27 29  0  0  0  0  0  0  0  0999 V2000
   37.4370   25.7940   33.7410 C   0  0  0  0  0  0  0  0  0  0  0  0
   37.2910   27.0810   34.3210 C   0  0  0  0  0  0  0  0  0  0  0  0
   38.0550   27.3650   35.4460 C   0  0  0  0  0  0  0  0  0  0  0  0
   38.8950   26.4010   35.9250 N   0  0  0  0  0  0  0  0  0  0  0  0
   39.0130   25.1830   35.3520 C   0  0  0  0  0  0  0  0  0  0  0  0
   38.2750   24.8890   34.2530 N   0  0  0  0  0  0  0  0  0  0  0  0
   36.6390   27.8420   33.9560 H   0  0  0  0  0  0  0  0  0  0  0  0
   38.0270   28.3140   35.9730 H   0  0  0  0  0  0  0  0  0  0  0  0
   41.8840   25.3150   34.1080 Br  0  0  0  0  0  0  0  0  0  0  0  0
   41.2220   24.0950   35.4160 C   0  0  0  0  0  0  0  0  0  0  0  0
   39.9120   24.1640   35.8730 C   0  0  0  0  0  0  0  0  0  0  0  0
   39.5170   23.2470   36.8150 C   0  0  0  0  0  0  0  0  0  0  0  0
   40.3470   22.2720   37.3250 C   0  0  0  0  0  0  0  0  0  0  0  0
   41.6340   22.2250   36.8580 C   0  0  0  0  0  0  0  0  0  0  0  0
   42.0720   23.1420   35.8990 C   0  0  0  0  0  0  0  0  0  0  0  0
   38.5000   23.2590   37.2050 H   0  0  0  0  0  0  0  0  0  0  0  0
   40.0090   21.5570   38.0710 H   0  0  0  0  0  0  0  0  0  0  0  0
   42.2730   21.4550   37.2680 H   0  0  0  0  0  0  0  0  0  0  0  0
   43.1120   23.0090   35.6040 H   0  0  0  0  0  0  0  0  0  0  0  0
   36.6270   25.5110   32.5590 C   0  0  0  0  0  0  0  0  0  0  0  0
   36.0350   26.4710   31.7640 C   0  0  0  0  0  0  0  0  0  0  0  0
   36.0390   27.5410   31.8300 H   0  0  0  0  0  0  0  0  0  0  0  0
   35.3880   25.7370   30.7900 C   0  0  0  0  0  0  0  0  0  0  0  0
   34.7880   26.0500   29.9450 H   0  0  0  0  0  0  0  0  0  0  0  0
   35.6030   24.3730   31.0210 C   0  0  0  0  0  0  0  0  0  0  0  0
   35.2990   23.4570   30.5320 H   0  0  0  0  0  0  0  0  0  0  0  0
   36.3580   24.3120   32.1050 O   0  0  0  0  0  0  0  0  0  0  0  0
  1  6  2  0  0  0  0
  1  2  1  0  0  0  0
  2  3  2  0  0  0  0
  3  4  1  0  0  0  0
  3  8  1  0  0  0  0
  5 11  1  0  0  0  0
  5  4  2  0  0  0  0
  6  5  1  0  0  0  0
  7  2  1  0  0  0  0
  9 10  1  0  0  0  0
 10 11  2  0  0  0  0
 10 15  1  0  0  0  0
 11 12  1  0  0  0  0
 12 16  1  0  0  0  0
 12 13  2  0  0  0  0
 13 17  1  0  0  0  0
 14 18  1  0  0  0  0
 14 13  1  0  0  0  0
 15 14  2  0  0  0  0
 19 15  1  0  0  0  0
 20  1  1  0  0  0  0
 21 22  1  0  0  0  0
 21 20  2  0  0  0  0
 23 25  2  0  0  0  0
 23 21  1  0  0  0  0
 24 23  1  0  0  0  0
 25 27  1  0  0  0  0
 26 25  1  0  0  0  0
 27 20  1  0  0  0  0
M  END
>  <minimizedAffinity>
-4.80255127

$$$$

 OpenBabel03272502203D

 27 29  0  0  0  0  0  0  0  0999 V2000
   36.4450   29.4410   31.1300 C   0  0  0  0  0  0  0  0  0  0  0  0
   35.1890   30.0260   31.4390 C   0  0  0  0  0  0  0  0  0  0  0  0
   34.6160   29.7000   32.6620 C   0  0  0  0  0  0  0  0  0  0  0  0
   35.2860   28.8440   33.4890 N   0  0  0  0  0  0  0  0  0  0  0  0
   36.4810   28.3020   33.1680 C   0  0  0  0  0  0  0  0  0  0  0  0
   37.0550   28.6090   31.9790 N   0  0  0  0  0  0  0  0  0  0  0  0
   34.6570   30.6960   30.8020 H   0  0  0  0  0  0  0  0  0  0  0  0
   33.6610   30.0860   33.0050 H   0  0  0  0  0  0  0  0  0  0  0  0
   36.5980   25.3640   32.0890 Br  0  0  0  0  0  0  0  0  0  0  0  0
   37.3180   26.0510   33.7160 C   0  0  0  0  0  0  0  0  0  0  0  0
   37.1840   27.3900   34.0590 C   0  0  0  0  0  0  0  0  0  0  0  0
   37.7320   27.8020   35.2470 C   0  0  0  0  0  0  0  0  0  0  0  0
   38.4020   26.9600   36.1090 C   0  0  0  0  0  0  0  0  0  0  0  0
   38.5220   25.6450   35.7490 C   0  0  0  0  0  0  0  0  0  0  0  0
   37.9760   25.1890   34.5460 C   0  0  0  0  0  0  0  0  0  0  0  0
   37.6540   28.8420   35.5620 H   0  0  0  0  0  0  0  0  0  0  0  0
   38.8280   27.3120   37.0460 H   0  0  0  0  0  0  0  0  0  0  0  0
   39.0500   24.9970   36.4350 H   0  0  0  0  0  0  0  0  0  0  0  0
   38.1330   24.1260   34.3640 H   0  0  0  0  0  0  0  0  0  0  0  0
   37.0340   29.7940   29.8410 C   0  0  0  0  0  0  0  0  0  0  0  0
   37.7880   28.9410   29.0620 C   0  0  0  0  0  0  0  0  0  0  0  0
   38.0810   27.9210   29.2150 H   0  0  0  0  0  0  0  0  0  0  0  0
   38.1180   29.7070   27.9620 C   0  0  0  0  0  0  0  0  0  0  0  0
   38.6990   29.4700   27.0790 H   0  0  0  0  0  0  0  0  0  0  0  0
   37.5630   30.9840   28.1050 C   0  0  0  0  0  0  0  0  0  0  0  0
   37.5590   31.8880   27.5100 H   0  0  0  0  0  0  0  0  0  0  0  0
   36.9240   30.9640   29.2620 O   0  0  0  0  0  0  0  0  0  0  0  0
  1  2  2  0  0  0  0
  1  6  1  0  0  0  0
  2  3  1  0  0  0  0
  3  8  1  0  0  0  0
  3  4  2  0  0  0  0
  5  4  1  0  0  0  0
  5 11  1  0  0  0  0
  6  5  2  0  0  0  0
  7  2  1  0  0  0  0
  9 10  1  0  0  0  0
 10 11  2  0  0  0  0
 10 15  1  0  0  0  0
 11 12  1  0  0  0  0
 12 16  1  0  0  0  0
 12 13  2  0  0  0  0
 13 17  1  0  0  0  0
 14 13  1  0  0  0  0
 14 18  1  0  0  0  0
 15 14  2  0  0  0  0
 19 15  1  0  0  0  0
 20  1  1  0  0  0  0
 21 22  1  0  0  0  0
 21 20  2  0  0  0  0
 23 25  2  0  0  0  0
 23 21  1  0  0  0  0
 24 23  1  0  0  0  0
 25 27  1  0  0  0  0
 26 25  1  0  0  0  0
 27 20  1  0  0  0  0
M  END
>  <minimizedAffinity>
-4.73741722

$$$$
