
 OpenBabel03272510213D

 35 38  0  0  0  0  0  0  0  0999 V2000
   37.2950   29.4170   51.1220 Br  0  0  0  0  0  0  0  0  0  0  0  0
   35.9520   29.3260   49.7570 C   0  0  0  0  0  0  0  0  0  0  0  0
   35.9950   30.1870   48.6710 C   0  0  0  0  0  0  0  0  0  0  0  0
   34.9990   30.0730   47.7200 C   0  0  0  0  0  0  0  0  0  0  0  0
   33.9760   29.1340   47.8270 C   0  0  0  0  0  0  0  0  0  0  0  0
   33.9640   28.3060   48.9050 C   0  0  0  0  0  0  0  0  0  0  0  0
   34.9530   28.4100   49.8620 C   0  0  0  0  0  0  0  0  0  0  0  0
   34.9680   30.7080   46.8480 H   0  0  0  0  0  0  0  0  0  0  0  0
   33.1850   27.5840   48.9970 H   0  0  0  0  0  0  0  0  0  0  0  0
   34.8900   27.7250   50.6960 H   0  0  0  0  0  0  0  0  0  0  0  0
   37.9980   33.1610   49.3660 C   0  0  0  0  0  0  0  0  0  0  0  0
   39.0080   33.1110   48.3710 C   0  0  0  0  0  0  0  0  0  0  0  0
   38.9900   32.0510   47.4680 C   0  0  0  0  0  0  0  0  0  0  0  0
   38.0010   31.1030   47.5770 N   0  0  0  0  0  0  0  0  0  0  0  0
   37.0560   31.1790   48.5330 C   0  0  0  0  0  0  0  0  0  0  0  0
   37.0600   32.2110   49.4250 N   0  0  0  0  0  0  0  0  0  0  0  0
   38.0540   33.9980   50.0420 H   0  0  0  0  0  0  0  0  0  0  0  0
   39.7600   33.8770   48.3270 H   0  0  0  0  0  0  0  0  0  0  0  0
   39.7280   31.9670   46.6990 H   0  0  0  0  0  0  0  0  0  0  0  0
   32.9200   29.0120   46.8220 C   0  0  0  0  0  0  0  0  0  0  0  0
   32.3490   27.8160   46.4290 C   0  0  0  0  0  0  0  0  0  0  0  0
   31.3500   27.7580   45.4690 C   0  0  0  0  0  0  0  0  0  0  0  0
   30.9100   28.8730   44.8960 N   0  0  0  0  0  0  0  0  0  0  0  0
   31.4580   30.0440   45.2690 C   0  0  0  0  0  0  0  0  0  0  0  0
   32.4220   30.1000   46.1950 N   0  0  0  0  0  0  0  0  0  0  0  0
   32.7130   26.9110   46.9030 H   0  0  0  0  0  0  0  0  0  0  0  0
   30.9400   26.7920   45.2020 H   0  0  0  0  0  0  0  0  0  0  0  0
   31.0910   31.3580   44.7400 C   0  0  0  0  0  0  0  0  0  0  0  0
   31.8460   32.4800   45.1030 C   0  0  0  0  0  0  0  0  0  0  0  0
   32.7090   32.5340   45.7530 H   0  0  0  0  0  0  0  0  0  0  0  0
   31.2900   33.5900   44.4670 C   0  0  0  0  0  0  0  0  0  0  0  0
   31.6750   34.5970   44.5700 H   0  0  0  0  0  0  0  0  0  0  0  0
   30.2140   33.0560   43.7460 C   0  0  0  0  0  0  0  0  0  0  0  0
   29.5690   33.6760   43.1350 H   0  0  0  0  0  0  0  0  0  0  0  0
   30.1430   31.7780   43.9350 O   0  0  0  0  0  0  0  0  0  0  0  0
  2  7  1  0  0  0  0
  2  1  1  0  0  0  0
  3  2  2  0  0  0  0
  4  5  2  0  0  0  0
  4  3  1  0  0  0  0
  5  6  1  0  0  0  0
  6  9  1  0  0  0  0
  6  7  2  0  0  0  0
  7 10  1  0  0  0  0
  8  4  1  0  0  0  0
 11 16  1  0  0  0  0
 11 17  1  0  0  0  0
 12 11  2  0  0  0  0
 13 14  2  0  0  0  0
 13 12  1  0  0  0  0
 14 15  1  0  0  0  0
 15  3  1  0  0  0  0
 15 16  2  0  0  0  0
 18 12  1  0  0  0  0
 19 13  1  0  0  0  0
 20  5  1  0  0  0  0
 21 20  1  0  0  0  0
 21 26  1  0  0  0  0
 22 21  2  0  0  0  0
 23 24  2  0  0  0  0
 23 22  1  0  0  0  0
 24 25  1  0  0  0  0
 25 20  2  0  0  0  0
 27 22  1  0  0  0  0
 28 29  2  0  0  0  0
 28 24  1  0  0  0  0
 29 30  1  0  0  0  0
 31 32  1  0  0  0  0
 31 29  1  0  0  0  0
 33 35  1  0  0  0  0
 33 31  2  0  0  0  0
 34 33  1  0  0  0  0
 35 28  1  0  0  0  0
M  END
>  <minimizedAffinity>
-6.3699975

>  <minimizedRMSD>
0.284436762

$$$$
