
 OpenBabel03272510203D

 35 38  0  0  0  0  0  0  0  0999 V2000
   37.3490   29.2110   50.8680 Br  0  0  0  0  0  0  0  0  0  0  0  0
   35.9500   29.2720   49.5600 C   0  0  0  0  0  0  0  0  0  0  0  0
   35.9610   30.2350   48.5630 C   0  0  0  0  0  0  0  0  0  0  0  0
   34.9250   30.2280   47.6490 C   0  0  0  0  0  0  0  0  0  0  0  0
   33.8920   29.2950   47.7080 C   0  0  0  0  0  0  0  0  0  0  0  0
   33.9110   28.3650   48.6990 C   0  0  0  0  0  0  0  0  0  0  0  0
   34.9400   28.3620   49.6170 C   0  0  0  0  0  0  0  0  0  0  0  0
   34.8680   30.9460   46.8450 H   0  0  0  0  0  0  0  0  0  0  0  0
   33.1250   27.6470   48.7530 H   0  0  0  0  0  0  0  0  0  0  0  0
   34.9010   27.5990   50.3820 H   0  0  0  0  0  0  0  0  0  0  0  0
   37.9920   33.1490   49.4140 C   0  0  0  0  0  0  0  0  0  0  0  0
   39.0020   33.1420   48.4180 C   0  0  0  0  0  0  0  0  0  0  0  0
   38.9750   32.1320   47.4600 C   0  0  0  0  0  0  0  0  0  0  0  0
   37.9760   31.1880   47.5190 N   0  0  0  0  0  0  0  0  0  0  0  0
   37.0320   31.2230   48.4780 C   0  0  0  0  0  0  0  0  0  0  0  0
   37.0440   32.2060   49.4230 N   0  0  0  0  0  0  0  0  0  0  0  0
   38.0550   33.9490   50.1330 H   0  0  0  0  0  0  0  0  0  0  0  0
   39.7610   33.9020   48.4140 H   0  0  0  0  0  0  0  0  0  0  0  0
   39.7120   32.0810   46.6880 H   0  0  0  0  0  0  0  0  0  0  0  0
   32.7930   29.2860   46.7420 C   0  0  0  0  0  0  0  0  0  0  0  0
   32.0340   28.1730   46.4320 C   0  0  0  0  0  0  0  0  0  0  0  0
   31.0020   28.2200   45.5060 C   0  0  0  0  0  0  0  0  0  0  0  0
   30.7150   29.3590   44.8850 N   0  0  0  0  0  0  0  0  0  0  0  0
   31.4470   30.4510   45.1780 C   0  0  0  0  0  0  0  0  0  0  0  0
   32.4420   30.4040   46.0710 N   0  0  0  0  0  0  0  0  0  0  0  0
   32.2750   27.2480   46.9430 H   0  0  0  0  0  0  0  0  0  0  0  0
   30.4420   27.3160   45.3050 H   0  0  0  0  0  0  0  0  0  0  0  0
   31.2640   31.7770   44.5880 C   0  0  0  0  0  0  0  0  0  0  0  0
   31.8860   32.8840   45.1780 C   0  0  0  0  0  0  0  0  0  0  0  0
   32.5190   32.9170   46.0540 H   0  0  0  0  0  0  0  0  0  0  0  0
   31.5510   34.0100   44.4250 C   0  0  0  0  0  0  0  0  0  0  0  0
   31.8960   35.0100   44.6570 H   0  0  0  0  0  0  0  0  0  0  0  0
   30.7320   33.5010   43.4100 C   0  0  0  0  0  0  0  0  0  0  0  0
   30.3020   34.1380   42.6460 H   0  0  0  0  0  0  0  0  0  0  0  0
   30.5990   32.2200   43.5460 O   0  0  0  0  0  0  0  0  0  0  0  0
  2  7  1  0  0  0  0
  2  1  1  0  0  0  0
  3  2  2  0  0  0  0
  4  5  2  0  0  0  0
  4  3  1  0  0  0  0
  5  6  1  0  0  0  0
  6  9  1  0  0  0  0
  6  7  2  0  0  0  0
  7 10  1  0  0  0  0
  8  4  1  0  0  0  0
 11 16  1  0  0  0  0
 11 17  1  0  0  0  0
 12 11  2  0  0  0  0
 13 14  2  0  0  0  0
 13 12  1  0  0  0  0
 14 15  1  0  0  0  0
 15  3  1  0  0  0  0
 15 16  2  0  0  0  0
 18 12  1  0  0  0  0
 19 13  1  0  0  0  0
 20  5  1  0  0  0  0
 21 20  1  0  0  0  0
 21 26  1  0  0  0  0
 22 21  2  0  0  0  0
 23 24  2  0  0  0  0
 23 22  1  0  0  0  0
 24 25  1  0  0  0  0
 25 20  2  0  0  0  0
 27 22  1  0  0  0  0
 28 29  2  0  0  0  0
 28 24  1  0  0  0  0
 29 30  1  0  0  0  0
 31 32  1  0  0  0  0
 31 29  1  0  0  0  0
 33 35  1  0  0  0  0
 33 31  2  0  0  0  0
 34 33  1  0  0  0  0
 35 28  1  0  0  0  0
M  END
>  <minimizedAffinity>
-6.38150835

>  <minimizedRMSD>
0.180031061

$$$$
