
 OpenBabel03272506003D

 43 46  0  0  1  0  0  0  0  0999 V2000
   35.0900   29.5340   33.1120 C   0  0  2  0  0  0  0  0  0  0  0  0
   35.5570   28.1450   33.3390 C   0  0  0  0  0  0  0  0  0  0  0  0
   37.0510   27.9560   33.0300 C   0  0  2  0  0  0  0  0  0  0  0  0
   37.4250   28.3640   31.6690 C   0  0  0  0  0  0  0  0  0  0  0  0
   36.7250   29.6240   31.1930 C   0  0  0  0  0  0  0  0  0  0  0  0
   36.0740   30.3660   32.3230 C   0  0  0  0  0  0  0  0  0  0  0  0
   34.1260   29.5610   32.5210 H   0  0  0  0  0  0  0  0  0  0  0  0
   35.4380   27.6560   34.2740 H   0  0  0  0  0  0  0  0  0  0  0  0
   35.0470   27.4880   32.5700 H   0  0  0  0  0  0  0  0  0  0  0  0
   37.5740   28.4840   33.8210 H   0  0  0  0  0  0  0  0  0  0  0  0
   37.2400   27.6100   30.8790 H   0  0  0  0  0  0  0  0  0  0  0  0
   38.5440   28.4990   31.6530 H   0  0  0  0  0  0  0  0  0  0  0  0
   36.0320   29.4420   30.3540 H   0  0  0  0  0  0  0  0  0  0  0  0
   37.5080   30.2980   30.7880 H   0  0  0  0  0  0  0  0  0  0  0  0
   35.5320   31.2210   31.8880 H   0  0  0  0  0  0  0  0  0  0  0  0
   36.8250   30.7410   33.0240 H   0  0  0  0  0  0  0  0  0  0  0  0
   37.8940   27.1600   35.7270 Cl  0  0  0  0  0  0  0  0  0  0  0  0
   37.6980   25.9990   34.4260 C   0  0  0  0  0  0  0  0  0  0  0  0
   37.2740   26.4940   33.2100 C   0  0  0  0  0  0  0  0  0  0  0  0
   37.1370   25.5100   32.2410 C   0  0  0  0  0  0  0  0  0  0  0  0
   37.4010   24.1820   32.4840 C   0  0  0  0  0  0  0  0  0  0  0  0
   37.8180   23.7660   33.7170 C   0  0  0  0  0  0  0  0  0  0  0  0
   37.9740   24.7110   34.7310 C   0  0  0  0  0  0  0  0  0  0  0  0
   36.8010   25.8450   31.2590 H   0  0  0  0  0  0  0  0  0  0  0  0
   37.2710   23.4680   31.6730 H   0  0  0  0  0  0  0  0  0  0  0  0
   38.0020   22.7170   33.8260 H   0  0  0  0  0  0  0  0  0  0  0  0
   38.4230   24.1600   35.9980 C   0  0  0  0  0  0  0  0  0  0  0  0
   37.8690   24.1340   37.2580 C   0  0  0  0  0  0  0  0  0  0  0  0
   36.9350   24.5450   37.5620 H   0  0  0  0  0  0  0  0  0  0  0  0
   38.6470   23.4990   38.1740 C   0  0  0  0  0  0  0  0  0  0  0  0
   38.5600   23.2850   39.2130 H   0  0  0  0  0  0  0  0  0  0  0  0
   39.7200   23.1310   37.4120 C   0  0  0  0  0  0  0  0  0  0  0  0
   40.6530   22.5890   37.6320 H   0  0  0  0  0  0  0  0  0  0  0  0
   39.5530   23.5180   36.2050 O   0  0  0  0  0  0  0  0  0  0  0  0
   34.8000   30.2560   34.3600 C   0  0  0  0  0  0  0  0  0  0  0  0
   35.8950   30.8920   34.9470 C   0  0  0  0  0  0  0  0  0  0  0  0
   35.6690   31.6090   36.1300 C   0  0  0  0  0  0  0  0  0  0  0  0
   34.3840   31.6520   36.6570 N   0  0  0  0  0  0  0  0  0  0  0  0
   33.3610   31.0190   36.0520 C   0  0  0  0  0  0  0  0  0  0  0  0
   33.5920   30.3410   34.9250 N   0  0  0  0  0  0  0  0  0  0  0  0
   36.9480   31.0290   34.7920 H   0  0  0  0  0  0  0  0  0  0  0  0
   36.3130   32.1770   36.7700 H   0  0  0  0  0  0  0  0  0  0  0  0
   32.3650   31.0340   36.4330 H   0  0  0  0  0  0  0  0  0  0  0  0
  1  7  1  6  0  0  0
  1  2  1  0  0  0  0
  1 35  1  0  0  0  0
  2  8  1  0  0  0  0
  3 19  1  0  0  0  0
  3  2  1  0  0  0  0
  3 10  1  1  0  0  0
  4  3  1  0  0  0  0
  5  4  1  0  0  0  0
  5  6  1  0  0  0  0
  6 16  1  0  0  0  0
  6  1  1  0  0  0  0
  9  2  1  0  0  0  0
 11  4  1  0  0  0  0
 12  4  1  0  0  0  0
 13  5  1  0  0  0  0
 14  5  1  0  0  0  0
 15  6  1  0  0  0  0
 18 23  1  0  0  0  0
 18 17  1  0  0  0  0
 19 18  2  0  0  0  0
 20 21  2  0  0  0  0
 20 19  1  0  0  0  0
 21 22  1  0  0  0  0
 22 26  1  0  0  0  0
 22 23  2  0  0  0  0
 23 27  1  0  0  0  0
 24 20  1  0  0  0  0
 25 21  1  0  0  0  0
 27 34  1  0  0  0  0
 27 28  2  0  0  0  0
 28 29  1  0  0  0  0
 28 30  1  0  0  0  0
 30 31  1  0  0  0  0
 32 33  1  0  0  0  0
 32 30  2  0  0  0  0
 34 32  1  0  0  0  0
 35 40  2  0  0  0  0
 35 36  1  0  0  0  0
 36 37  2  0  0  0  0
 37 38  1  0  0  0  0
 37 42  1  0  0  0  0
 39 43  1  0  0  0  0
 39 38  2  0  0  0  0
 40 39  1  0  0  0  0
 41 36  1  0  0  0  0
M  END
>  <minimizedAffinity>
-5.9279952

$$$$

 OpenBabel03272506003D

 43 46  0  0  1  0  0  0  0  0999 V2000
   39.9800   22.2030   36.6610 C   0  0  2  0  0  0  0  0  0  0  0  0
   39.3190   22.7580   35.4550 C   0  0  0  0  0  0  0  0  0  0  0  0
   38.7940   24.1870   35.6620 C   0  0  2  0  0  0  0  0  0  0  0  0
   37.8780   24.3150   36.8040 C   0  0  0  0  0  0  0  0  0  0  0  0
   38.2880   23.4960   38.0140 C   0  0  0  0  0  0  0  0  0  0  0  0
   39.7030   23.0080   37.9090 C   0  0  0  0  0  0  0  0  0  0  0  0
   39.6220   21.1550   36.8900 H   0  0  0  0  0  0  0  0  0  0  0  0
   39.8140   22.8150   34.5170 H   0  0  0  0  0  0  0  0  0  0  0  0
   38.3760   22.1560   35.2800 H   0  0  0  0  0  0  0  0  0  0  0  0
   39.6790   24.8110   35.7210 H   0  0  0  0  0  0  0  0  0  0  0  0
   36.8250   24.0340   36.6040 H   0  0  0  0  0  0  0  0  0  0  0  0
   37.8160   25.4100   37.0670 H   0  0  0  0  0  0  0  0  0  0  0  0
   37.5790   22.6810   38.2440 H   0  0  0  0  0  0  0  0  0  0  0  0
   38.2550   24.1720   38.8920 H   0  0  0  0  0  0  0  0  0  0  0  0
   39.8980   22.3670   38.7840 H   0  0  0  0  0  0  0  0  0  0  0  0
   40.4040   23.8490   37.9210 H   0  0  0  0  0  0  0  0  0  0  0  0
   38.3050   27.0420   35.1880 Cl  0  0  0  0  0  0  0  0  0  0  0  0
   37.7700   25.8020   34.0680 C   0  0  0  0  0  0  0  0  0  0  0  0
   38.0800   24.4970   34.3910 C   0  0  0  0  0  0  0  0  0  0  0  0
   37.6290   23.5810   33.4510 C   0  0  0  0  0  0  0  0  0  0  0  0
   36.9430   23.9540   32.3180 C   0  0  0  0  0  0  0  0  0  0  0  0
   36.6710   25.2680   32.0650 C   0  0  0  0  0  0  0  0  0  0  0  0
   37.1010   26.2350   32.9760 C   0  0  0  0  0  0  0  0  0  0  0  0
   37.8500   22.5340   33.6550 H   0  0  0  0  0  0  0  0  0  0  0  0
   36.6190   23.1780   31.6270 H   0  0  0  0  0  0  0  0  0  0  0  0
   36.1330   25.4770   31.1630 H   0  0  0  0  0  0  0  0  0  0  0  0
   36.7560   27.5980   32.6090 C   0  0  0  0  0  0  0  0  0  0  0  0
   37.1540   28.4200   31.5790 C   0  0  0  0  0  0  0  0  0  0  0  0
   37.8410   28.1920   30.7990 H   0  0  0  0  0  0  0  0  0  0  0  0
   36.5700   29.6470   31.6150 C   0  0  0  0  0  0  0  0  0  0  0  0
   36.6250   30.5220   31.0130 H   0  0  0  0  0  0  0  0  0  0  0  0
   35.7850   29.5420   32.7290 C   0  0  0  0  0  0  0  0  0  0  0  0
   35.0920   30.2340   33.2340 H   0  0  0  0  0  0  0  0  0  0  0  0
   35.9180   28.3830   33.2510 O   0  0  0  0  0  0  0  0  0  0  0  0
   41.4400   22.0930   36.5200 C   0  0  0  0  0  0  0  0  0  0  0  0
   42.1250   23.3070   36.4660 C   0  0  0  0  0  0  0  0  0  0  0  0
   43.5210   23.2580   36.3490 C   0  0  0  0  0  0  0  0  0  0  0  0
   44.1480   22.0190   36.2910 N   0  0  0  0  0  0  0  0  0  0  0  0
   43.4410   20.8750   36.3460 C   0  0  0  0  0  0  0  0  0  0  0  0
   42.1120   20.9390   36.4580 N   0  0  0  0  0  0  0  0  0  0  0  0
   41.9330   24.3630   36.4800 H   0  0  0  0  0  0  0  0  0  0  0  0
   44.2730   24.0180   36.2900 H   0  0  0  0  0  0  0  0  0  0  0  0
   43.8940   19.9110   36.3030 H   0  0  0  0  0  0  0  0  0  0  0  0
  1  7  1  1  0  0  0
  1  6  1  0  0  0  0
  2  3  1  0  0  0  0
  2  1  1  0  0  0  0
  3 10  1  1  0  0  0
  3  4  1  0  0  0  0
  4 12  1  0  0  0  0
  4  5  1  0  0  0  0
  5 13  1  0  0  0  0
  5 14  1  0  0  0  0
  6 16  1  0  0  0  0
  6  5  1  0  0  0  0
  6 15  1  0  0  0  0
  8  2  1  0  0  0  0
  9  2  1  0  0  0  0
 11  4  1  0  0  0  0
 18 19  1  0  0  0  0
 18 17  1  0  0  0  0
 19  3  1  0  0  0  0
 20 24  1  0  0  0  0
 20 19  2  0  0  0  0
 21 20  1  0  0  0  0
 22 21  2  0  0  0  0
 22 23  1  0  0  0  0
 23 18  2  0  0  0  0
 25 21  1  0  0  0  0
 26 22  1  0  0  0  0
 27 23  1  0  0  0  0
 27 34  1  0  0  0  0
 28 30  1  0  0  0  0
 28 27  2  0  0  0  0
 29 28  1  0  0  0  0
 30 32  2  0  0  0  0
 31 30  1  0  0  0  0
 32 33  1  0  0  0  0
 32 34  1  0  0  0  0
 35  1  1  0  0  0  0
 36 41  1  0  0  0  0
 36 35  1  0  0  0  0
 37 36  2  0  0  0  0
 38 39  2  0  0  0  0
 38 37  1  0  0  0  0
 39 40  1  0  0  0  0
 40 35  2  0  0  0  0
 42 37  1  0  0  0  0
 43 39  1  0  0  0  0
M  END
>  <minimizedAffinity>
-5.82550526

$$$$

 OpenBabel03272506003D

 43 46  0  0  1  0  0  0  0  0999 V2000
   35.5560   28.6100   31.9370 C   0  0  2  0  0  0  0  0  0  0  0  0
   35.9530   27.2770   32.4540 C   0  0  0  0  0  0  0  0  0  0  0  0
   37.4590   27.1680   32.7390 C   0  0  2  0  0  0  0  0  0  0  0  0
   38.3010   27.4950   31.5800 C   0  0  0  0  0  0  0  0  0  0  0  0
   37.7870   28.6640   30.7600 C   0  0  0  0  0  0  0  0  0  0  0  0
   36.7340   29.4440   31.4900 C   0  0  0  0  0  0  0  0  0  0  0  0
   34.8840   28.5240   31.0320 H   0  0  0  0  0  0  0  0  0  0  0  0
   35.5100   26.8540   33.3220 H   0  0  0  0  0  0  0  0  0  0  0  0
   35.7910   26.5290   31.6190 H   0  0  0  0  0  0  0  0  0  0  0  0
   37.6300   27.7900   33.6120 H   0  0  0  0  0  0  0  0  0  0  0  0
   38.4520   26.6720   30.8540 H   0  0  0  0  0  0  0  0  0  0  0  0
   39.3400   27.7050   31.9650 H   0  0  0  0  0  0  0  0  0  0  0  0
   37.4640   28.3700   29.7450 H   0  0  0  0  0  0  0  0  0  0  0  0
   38.6400   29.3570   30.6080 H   0  0  0  0  0  0  0  0  0  0  0  0
   36.3650   30.2230   30.8050 H   0  0  0  0  0  0  0  0  0  0  0  0
   37.1550   29.9220   32.3800 H   0  0  0  0  0  0  0  0  0  0  0  0
   38.0910   26.7410   35.5740 Cl  0  0  0  0  0  0  0  0  0  0  0  0
   37.9770   25.4150   34.4290 C   0  0  0  0  0  0  0  0  0  0  0  0
   37.6510   25.7430   33.1300 C   0  0  0  0  0  0  0  0  0  0  0  0
   37.5730   24.6380   32.2930 C   0  0  0  0  0  0  0  0  0  0  0  0
   37.8020   23.3540   32.7320 C   0  0  0  0  0  0  0  0  0  0  0  0
   38.1210   23.1070   34.0370 C   0  0  0  0  0  0  0  0  0  0  0  0
   38.2130   24.1800   34.9250 C   0  0  0  0  0  0  0  0  0  0  0  0
   37.3150   24.8390   31.2530 H   0  0  0  0  0  0  0  0  0  0  0  0
   37.7240   22.5380   32.0160 H   0  0  0  0  0  0  0  0  0  0  0  0
   38.2840   22.0820   34.2990 H   0  0  0  0  0  0  0  0  0  0  0  0
   38.5610   23.8030   36.2840 C   0  0  0  0  0  0  0  0  0  0  0  0
   37.9020   23.9230   37.4870 C   0  0  0  0  0  0  0  0  0  0  0  0
   36.9410   24.3460   37.6580 H   0  0  0  0  0  0  0  0  0  0  0  0
   38.6080   23.4270   38.5380 C   0  0  0  0  0  0  0  0  0  0  0  0
   38.4360   23.3430   39.5840 H   0  0  0  0  0  0  0  0  0  0  0  0
   39.7460   22.9910   37.9190 C   0  0  0  0  0  0  0  0  0  0  0  0
   40.6650   22.5040   38.2830 H   0  0  0  0  0  0  0  0  0  0  0  0
   39.6770   23.2200   36.6640 O   0  0  0  0  0  0  0  0  0  0  0  0
   34.7960   29.4030   32.9130 C   0  0  0  0  0  0  0  0  0  0  0  0
   35.5610   30.0180   33.9050 C   0  0  0  0  0  0  0  0  0  0  0  0
   34.8850   30.8010   34.8510 C   0  0  0  0  0  0  0  0  0  0  0  0
   33.5040   30.9260   34.7590 N   0  0  0  0  0  0  0  0  0  0  0  0
   32.8110   30.3120   33.7830 C   0  0  0  0  0  0  0  0  0  0  0  0
   33.4700   29.5700   32.8890 N   0  0  0  0  0  0  0  0  0  0  0  0
   36.5820   30.1010   34.2260 H   0  0  0  0  0  0  0  0  0  0  0  0
   35.2180   31.3710   35.6950 H   0  0  0  0  0  0  0  0  0  0  0  0
   31.7520   30.3890   33.6870 H   0  0  0  0  0  0  0  0  0  0  0  0
  1  7  1  6  0  0  0
  1  2  1  0  0  0  0
  1 35  1  0  0  0  0
  2  3  1  0  0  0  0
  2  8  1  0  0  0  0
  3 19  1  0  0  0  0
  3 10  1  1  0  0  0
  4 12  1  0  0  0  0
  4  3  1  0  0  0  0
  5  6  1  0  0  0  0
  5  4  1  0  0  0  0
  6  1  1  0  0  0  0
  6 16  1  0  0  0  0
  9  2  1  0  0  0  0
 11  4  1  0  0  0  0
 13  5  1  0  0  0  0
 14  5  1  0  0  0  0
 15  6  1  0  0  0  0
 18 23  1  0  0  0  0
 18 17  1  0  0  0  0
 19 18  2  0  0  0  0
 20 21  2  0  0  0  0
 20 19  1  0  0  0  0
 21 22  1  0  0  0  0
 22 26  1  0  0  0  0
 22 23  2  0  0  0  0
 23 27  1  0  0  0  0
 24 20  1  0  0  0  0
 25 21  1  0  0  0  0
 27 34  1  0  0  0  0
 27 28  2  0  0  0  0
 28 29  1  0  0  0  0
 28 30  1  0  0  0  0
 30 31  1  0  0  0  0
 32 33  1  0  0  0  0
 32 30  2  0  0  0  0
 34 32  1  0  0  0  0
 35 36  1  0  0  0  0
 36 41  1  0  0  0  0
 36 37  2  0  0  0  0
 37 42  1  0  0  0  0
 38 37  1  0  0  0  0
 39 38  2  0  0  0  0
 40 35  2  0  0  0  0
 40 39  1  0  0  0  0
 43 39  1  0  0  0  0
M  END
>  <minimizedAffinity>
-5.8223033

$$$$

 OpenBabel03272506003D

 43 46  0  0  1  0  0  0  0  0999 V2000
   39.8440   25.0280   35.4660 C   0  0  2  0  0  0  0  0  0  0  0  0
   38.7200   24.5890   34.6020 C   0  0  0  0  0  0  0  0  0  0  0  0
   38.9490   24.8990   33.1150 C   0  0  2  0  0  0  0  0  0  0  0  0
   39.2250   26.3170   32.8470 C   0  0  0  0  0  0  0  0  0  0  0  0
   40.1150   26.9750   33.8850 C   0  0  0  0  0  0  0  0  0  0  0  0
   40.7960   25.9660   34.7630 C   0  0  0  0  0  0  0  0  0  0  0  0
   39.4780   25.5910   36.3750 H   0  0  0  0  0  0  0  0  0  0  0  0
   38.3780   23.5830   34.5910 H   0  0  0  0  0  0  0  0  0  0  0  0
   37.8220   25.2270   34.8670 H   0  0  0  0  0  0  0  0  0  0  0  0
   39.7330   24.2190   32.7990 H   0  0  0  0  0  0  0  0  0  0  0  0
   38.3330   26.9690   32.7720 H   0  0  0  0  0  0  0  0  0  0  0  0
   39.6910   26.3830   31.8230 H   0  0  0  0  0  0  0  0  0  0  0  0
   39.5950   27.7560   34.4670 H   0  0  0  0  0  0  0  0  0  0  0  0
   40.9200   27.5050   33.3360 H   0  0  0  0  0  0  0  0  0  0  0  0
   41.3610   26.5220   35.5280 H   0  0  0  0  0  0  0  0  0  0  0  0
   41.4920   25.3540   34.1800 H   0  0  0  0  0  0  0  0  0  0  0  0
   38.4140   22.0130   33.1610 Cl  0  0  0  0  0  0  0  0  0  0  0  0
   37.3250   23.1560   32.3940 C   0  0  0  0  0  0  0  0  0  0  0  0
   37.6750   24.4880   32.4600 C   0  0  0  0  0  0  0  0  0  0  0  0
   36.7570   25.3240   31.8380 C   0  0  0  0  0  0  0  0  0  0  0  0
   35.6200   24.8540   31.2230 C   0  0  0  0  0  0  0  0  0  0  0  0
   35.3400   23.5170   31.1980 C   0  0  0  0  0  0  0  0  0  0  0  0
   36.2260   22.6290   31.8080 C   0  0  0  0  0  0  0  0  0  0  0  0
   36.9840   26.3900   31.8620 H   0  0  0  0  0  0  0  0  0  0  0  0
   34.9480   25.5700   30.7550 H   0  0  0  0  0  0  0  0  0  0  0  0
   34.4360   23.2320   30.7000 H   0  0  0  0  0  0  0  0  0  0  0  0
   35.8310   21.2340   31.7200 C   0  0  0  0  0  0  0  0  0  0  0  0
   34.8530   20.4950   32.3470 C   0  0  0  0  0  0  0  0  0  0  0  0
   34.1500   20.8360   33.0690 H   0  0  0  0  0  0  0  0  0  0  0  0
   34.8320   19.1930   31.9590 C   0  0  0  0  0  0  0  0  0  0  0  0
   34.2420   18.3440   32.2120 H   0  0  0  0  0  0  0  0  0  0  0  0
   35.8560   19.1620   31.0530 C   0  0  0  0  0  0  0  0  0  0  0  0
   36.2860   18.3650   30.4270 H   0  0  0  0  0  0  0  0  0  0  0  0
   36.3840   20.3210   30.9500 O   0  0  0  0  0  0  0  0  0  0  0  0
   40.6350   23.9080   35.9950 C   0  0  0  0  0  0  0  0  0  0  0  0
   41.9460   23.8310   35.5240 C   0  0  0  0  0  0  0  0  0  0  0  0
   42.7500   22.7910   36.0110 C   0  0  0  0  0  0  0  0  0  0  0  0
   42.2100   21.8960   36.9280 N   0  0  0  0  0  0  0  0  0  0  0  0
   40.9380   22.0130   37.3510 C   0  0  0  0  0  0  0  0  0  0  0  0
   40.1860   23.0100   36.8770 N   0  0  0  0  0  0  0  0  0  0  0  0
   42.6110   24.3380   34.8500 H   0  0  0  0  0  0  0  0  0  0  0  0
   43.7650   22.5070   35.8230 H   0  0  0  0  0  0  0  0  0  0  0  0
   40.4970   21.3420   38.0520 H   0  0  0  0  0  0  0  0  0  0  0  0
  1 35  1  0  0  0  0
  1  7  1  1  0  0  0
  2  9  1  0  0  0  0
  2  1  1  0  0  0  0
  3 10  1  6  0  0  0
  3  2  1  0  0  0  0
  4  3  1  0  0  0  0
  4  5  1  0  0  0  0
  5 13  1  0  0  0  0
  5  6  1  0  0  0  0
  6  1  1  0  0  0  0
  6 15  1  0  0  0  0
  8  2  1  0  0  0  0
 11  4  1  0  0  0  0
 12  4  1  0  0  0  0
 14  5  1  0  0  0  0
 16  6  1  0  0  0  0
 18 19  1  0  0  0  0
 18 17  1  0  0  0  0
 19  3  1  0  0  0  0
 20 24  1  0  0  0  0
 20 19  2  0  0  0  0
 21 20  1  0  0  0  0
 22 21  2  0  0  0  0
 22 23  1  0  0  0  0
 23 18  2  0  0  0  0
 25 21  1  0  0  0  0
 26 22  1  0  0  0  0
 27 23  1  0  0  0  0
 27 28  2  0  0  0  0
 28 29  1  0  0  0  0
 30 31  1  0  0  0  0
 30 28  1  0  0  0  0
 32 30  2  0  0  0  0
 33 32  1  0  0  0  0
 34 32  1  0  0  0  0
 34 27  1  0  0  0  0
 35 40  1  0  0  0  0
 36 35  2  0  0  0  0
 36 37  1  0  0  0  0
 37 38  2  0  0  0  0
 38 39  1  0  0  0  0
 39 43  1  0  0  0  0
 40 39  2  0  0  0  0
 41 36  1  0  0  0  0
 42 37  1  0  0  0  0
M  END
>  <minimizedAffinity>
-5.63347387

$$$$

 OpenBabel03272506003D

 43 46  0  0  1  0  0  0  0  0999 V2000
   37.1680   27.5520   31.7450 C   0  0  2  0  0  0  0  0  0  0  0  0
   36.5870   28.3020   32.8860 C   0  0  0  0  0  0  0  0  0  0  0  0
   35.4360   29.2310   32.4700 C   0  0  2  0  0  0  0  0  0  0  0  0
   35.8050   30.1860   31.4160 C   0  0  0  0  0  0  0  0  0  0  0  0
   36.7050   29.5980   30.3440 C   0  0  0  0  0  0  0  0  0  0  0  0
   36.7430   28.1000   30.4020 C   0  0  0  0  0  0  0  0  0  0  0  0
   38.2980   27.5950   31.7480 H   0  0  0  0  0  0  0  0  0  0  0  0
   36.2040   27.8110   33.7470 H   0  0  0  0  0  0  0  0  0  0  0  0
   37.3810   29.0190   33.2570 H   0  0  0  0  0  0  0  0  0  0  0  0
   34.6150   28.5710   32.2150 H   0  0  0  0  0  0  0  0  0  0  0  0
   36.3240   31.1020   31.7630 H   0  0  0  0  0  0  0  0  0  0  0  0
   34.8490   30.5760   30.9640 H   0  0  0  0  0  0  0  0  0  0  0  0
   37.7140   30.0450   30.3350 H   0  0  0  0  0  0  0  0  0  0  0  0
   36.2580   29.8610   29.3640 H   0  0  0  0  0  0  0  0  0  0  0  0
   37.4680   27.7580   29.6460 H   0  0  0  0  0  0  0  0  0  0  0  0
   35.7600   27.6780   30.1710 H   0  0  0  0  0  0  0  0  0  0  0  0
   32.6020   29.1020   33.2220 Cl  0  0  0  0  0  0  0  0  0  0  0  0
   33.7820   29.9910   34.1680 C   0  0  0  0  0  0  0  0  0  0  0  0
   35.0880   29.9570   33.7240 C   0  0  0  0  0  0  0  0  0  0  0  0
   35.9560   30.6770   34.5330 C   0  0  0  0  0  0  0  0  0  0  0  0
   35.5400   31.3510   35.6580 C   0  0  0  0  0  0  0  0  0  0  0  0
   34.2280   31.3390   36.0350 C   0  0  0  0  0  0  0  0  0  0  0  0
   33.3080   30.6310   35.2610 C   0  0  0  0  0  0  0  0  0  0  0  0
   37.0030   30.6820   34.2300 H   0  0  0  0  0  0  0  0  0  0  0  0
   36.2800   31.8950   36.2420 H   0  0  0  0  0  0  0  0  0  0  0  0
   33.9850   31.8880   36.9220 H   0  0  0  0  0  0  0  0  0  0  0  0
   31.9420   30.6890   35.7520 C   0  0  0  0  0  0  0  0  0  0  0  0
   31.1370   29.7730   36.3920 C   0  0  0  0  0  0  0  0  0  0  0  0
   31.3850   28.7760   36.6680 H   0  0  0  0  0  0  0  0  0  0  0  0
   29.8990   30.2550   36.6790 C   0  0  0  0  0  0  0  0  0  0  0  0
   29.0310   29.8600   37.1500 H   0  0  0  0  0  0  0  0  0  0  0  0
   29.9790   31.5250   36.1790 C   0  0  0  0  0  0  0  0  0  0  0  0
   29.2680   32.3660   36.1350 H   0  0  0  0  0  0  0  0  0  0  0  0
   31.1350   31.7250   35.6730 O   0  0  0  0  0  0  0  0  0  0  0  0
   36.8330   26.1210   31.7660 C   0  0  0  0  0  0  0  0  0  0  0  0
   35.6030   25.7890   31.1950 C   0  0  0  0  0  0  0  0  0  0  0  0
   35.2440   24.4350   31.1730 C   0  0  0  0  0  0  0  0  0  0  0  0
   36.1150   23.4980   31.7160 N   0  0  0  0  0  0  0  0  0  0  0  0
   37.2900   23.8690   32.2570 C   0  0  0  0  0  0  0  0  0  0  0  0
   37.6180   25.1640   32.2690 N   0  0  0  0  0  0  0  0  0  0  0  0
   34.7580   26.2590   30.7280 H   0  0  0  0  0  0  0  0  0  0  0  0
   34.3820   23.9170   30.8040 H   0  0  0  0  0  0  0  0  0  0  0  0
   37.9780   23.1740   32.6810 H   0  0  0  0  0  0  0  0  0  0  0  0
  1  7  1  1  0  0  0
  1 35  1  0  0  0  0
  1  2  1  0  0  0  0
  2  9  1  0  0  0  0
  2  8  1  0  0  0  0
  3 10  1  6  0  0  0
  3  2  1  0  0  0  0
  3 19  1  0  0  0  0
  4 11  1  0  0  0  0
  4  3  1  0  0  0  0
  5  6  1  0  0  0  0
  5  4  1  0  0  0  0
  6  1  1  0  0  0  0
 12  4  1  0  0  0  0
 13  5  1  0  0  0  0
 14  5  1  0  0  0  0
 15  6  1  0  0  0  0
 16  6  1  0  0  0  0
 17 18  1  0  0  0  0
 18 23  1  0  0  0  0
 19 18  2  0  0  0  0
 19 20  1  0  0  0  0
 20 21  2  0  0  0  0
 21 22  1  0  0  0  0
 21 25  1  0  0  0  0
 22 26  1  0  0  0  0
 23 27  1  0  0  0  0
 23 22  2  0  0  0  0
 24 20  1  0  0  0  0
 27 28  2  0  0  0  0
 28 29  1  0  0  0  0
 28 30  1  0  0  0  0
 30 31  1  0  0  0  0
 32 30  2  0  0  0  0
 33 32  1  0  0  0  0
 34 27  1  0  0  0  0
 34 32  1  0  0  0  0
 35 40  1  0  0  0  0
 36 35  2  0  0  0  0
 37 36  1  0  0  0  0
 37 38  2  0  0  0  0
 38 39  1  0  0  0  0
 39 40  2  0  0  0  0
 39 43  1  0  0  0  0
 41 36  1  0  0  0  0
 42 37  1  0  0  0  0
M  END
>  <minimizedAffinity>
-5.61803913

$$$$

 OpenBabel03272506003D

 43 46  0  0  1  0  0  0  0  0999 V2000
   34.8320   30.3110   32.7770 C   0  0  2  0  0  0  0  0  0  0  0  0
   35.0610   28.8480   32.7000 C   0  0  0  0  0  0  0  0  0  0  0  0
   36.4420   28.4860   32.1310 C   0  0  2  0  0  0  0  0  0  0  0  0
   36.7060   29.0760   30.8110 C   0  0  0  0  0  0  0  0  0  0  0  0
   36.1950   30.4970   30.6630 C   0  0  0  0  0  0  0  0  0  0  0  0
   35.8420   31.1090   31.9860 C   0  0  0  0  0  0  0  0  0  0  0  0
   33.8220   30.6000   32.3600 H   0  0  0  0  0  0  0  0  0  0  0  0
   34.9770   28.2180   33.5510 H   0  0  0  0  0  0  0  0  0  0  0  0
   34.3440   28.4350   31.9270 H   0  0  0  0  0  0  0  0  0  0  0  0
   37.1510   28.7670   32.9020 H   0  0  0  0  0  0  0  0  0  0  0  0
   36.2850   28.5220   29.9490 H   0  0  0  0  0  0  0  0  0  0  0  0
   37.8190   29.0330   30.6380 H   0  0  0  0  0  0  0  0  0  0  0  0
   35.3770   30.5870   29.9270 H   0  0  0  0  0  0  0  0  0  0  0  0
   37.0280   31.1020   30.2510 H   0  0  0  0  0  0  0  0  0  0  0  0
   35.4150   32.1050   31.7870 H   0  0  0  0  0  0  0  0  0  0  0  0
   36.7340   31.2230   32.6100 H   0  0  0  0  0  0  0  0  0  0  0  0
   38.2810   27.0970   33.9500 Cl  0  0  0  0  0  0  0  0  0  0  0  0
   37.2520   26.2350   32.8200 C   0  0  0  0  0  0  0  0  0  0  0  0
   36.4140   26.9990   32.0340 C   0  0  0  0  0  0  0  0  0  0  0  0
   35.6300   26.2390   31.1770 C   0  0  0  0  0  0  0  0  0  0  0  0
   35.6950   24.8660   31.1280 C   0  0  0  0  0  0  0  0  0  0  0  0
   36.5520   24.1770   31.9380 C   0  0  0  0  0  0  0  0  0  0  0  0
   37.3650   24.8870   32.8210 C   0  0  0  0  0  0  0  0  0  0  0  0
   34.9460   26.7930   30.5330 H   0  0  0  0  0  0  0  0  0  0  0  0
   35.0490   24.3400   30.4280 H   0  0  0  0  0  0  0  0  0  0  0  0
   36.5430   23.1110   31.8390 H   0  0  0  0  0  0  0  0  0  0  0  0
   38.2380   24.0550   33.6320 C   0  0  0  0  0  0  0  0  0  0  0  0
   39.5000   23.5450   33.4290 C   0  0  0  0  0  0  0  0  0  0  0  0
   40.1190   23.6740   32.5730 H   0  0  0  0  0  0  0  0  0  0  0  0
   39.9530   22.8000   34.4720 C   0  0  0  0  0  0  0  0  0  0  0  0
   40.8470   22.2620   34.6770 H   0  0  0  0  0  0  0  0  0  0  0  0
   38.8980   22.8760   35.3380 C   0  0  0  0  0  0  0  0  0  0  0  0
   38.7130   22.4620   36.3420 H   0  0  0  0  0  0  0  0  0  0  0  0
   37.9650   23.5870   34.8310 O   0  0  0  0  0  0  0  0  0  0  0  0
   34.8440   30.8240   34.1550 C   0  0  0  0  0  0  0  0  0  0  0  0
   33.6230   30.7500   34.8280 C   0  0  0  0  0  0  0  0  0  0  0  0
   33.5850   31.2100   36.1510 C   0  0  0  0  0  0  0  0  0  0  0  0
   34.7470   31.7130   36.7240 N   0  0  0  0  0  0  0  0  0  0  0  0
   35.9000   31.7640   36.0310 C   0  0  0  0  0  0  0  0  0  0  0  0
   35.9210   31.3210   34.7720 N   0  0  0  0  0  0  0  0  0  0  0  0
   32.6100   30.4380   34.6630 H   0  0  0  0  0  0  0  0  0  0  0  0
   32.8010   31.2660   36.8790 H   0  0  0  0  0  0  0  0  0  0  0  0
   36.8070   32.1450   36.4440 H   0  0  0  0  0  0  0  0  0  0  0  0
  1  7  1  6  0  0  0
  1 35  1  0  0  0  0
  2  1  1  0  0  0  0
  2  8  1  0  0  0  0
  3  2  1  0  0  0  0
  3 10  1  1  0  0  0
  4  3  1  0  0  0  0
  5  4  1  0  0  0  0
  5  6  1  0  0  0  0
  6 16  1  0  0  0  0
  6  1  1  0  0  0  0
  9  2  1  0  0  0  0
 11  4  1  0  0  0  0
 12  4  1  0  0  0  0
 13  5  1  0  0  0  0
 14  5  1  0  0  0  0
 15  6  1  0  0  0  0
 18 23  1  0  0  0  0
 18 17  1  0  0  0  0
 19  3  1  0  0  0  0
 19 18  2  0  0  0  0
 20 19  1  0  0  0  0
 21 20  2  0  0  0  0
 21 22  1  0  0  0  0
 22 23  2  0  0  0  0
 23 27  1  0  0  0  0
 24 20  1  0  0  0  0
 25 21  1  0  0  0  0
 26 22  1  0  0  0  0
 27 34  1  0  0  0  0
 28 27  2  0  0  0  0
 28 30  1  0  0  0  0
 29 28  1  0  0  0  0
 30 31  1  0  0  0  0
 30 32  2  0  0  0  0
 32 33  1  0  0  0  0
 34 32  1  0  0  0  0
 35 40  2  0  0  0  0
 35 36  1  0  0  0  0
 36 37  2  0  0  0  0
 37 38  1  0  0  0  0
 37 42  1  0  0  0  0
 39 43  1  0  0  0  0
 39 38  2  0  0  0  0
 40 39  1  0  0  0  0
 41 36  1  0  0  0  0
M  END
>  <minimizedAffinity>
-5.59512663

$$$$

 OpenBabel03272506003D

 43 46  0  0  1  0  0  0  0  0999 V2000
   39.9950   24.7410   34.3580 C   0  0  2  0  0  0  0  0  0  0  0  0
   39.2430   25.9370   33.9060 C   0  0  0  0  0  0  0  0  0  0  0  0
   38.2690   25.6350   32.7570 C   0  0  2  0  0  0  0  0  0  0  0  0
   38.9110   25.0120   31.5920 C   0  0  0  0  0  0  0  0  0  0  0  0
   39.9700   23.9870   31.9510 C   0  0  0  0  0  0  0  0  0  0  0  0
   39.8950   23.5820   33.3940 C   0  0  0  0  0  0  0  0  0  0  0  0
   41.1000   24.9550   34.4620 H   0  0  0  0  0  0  0  0  0  0  0  0
   38.6590   26.5210   34.5740 H   0  0  0  0  0  0  0  0  0  0  0  0
   39.9900   26.6470   33.4350 H   0  0  0  0  0  0  0  0  0  0  0  0
   37.4740   25.0470   33.2040 H   0  0  0  0  0  0  0  0  0  0  0  0
   39.4070   25.7120   30.8910 H   0  0  0  0  0  0  0  0  0  0  0  0
   38.0970   24.5430   30.9680 H   0  0  0  0  0  0  0  0  0  0  0  0
   40.9880   24.2950   31.6530 H   0  0  0  0  0  0  0  0  0  0  0  0
   39.7540   23.0740   31.3590 H   0  0  0  0  0  0  0  0  0  0  0  0
   40.7350   22.8970   33.5890 H   0  0  0  0  0  0  0  0  0  0  0  0
   38.9550   23.0620   33.6010 H   0  0  0  0  0  0  0  0  0  0  0  0
   36.5750   26.8760   34.8080 Cl  0  0  0  0  0  0  0  0  0  0  0  0
   36.8870   27.6440   33.2610 C   0  0  0  0  0  0  0  0  0  0  0  0
   37.7180   26.9710   32.3900 C   0  0  0  0  0  0  0  0  0  0  0  0
   37.9190   27.6500   31.1960 C   0  0  0  0  0  0  0  0  0  0  0  0
   37.3390   28.8670   30.9250 C   0  0  0  0  0  0  0  0  0  0  0  0
   36.5250   29.4730   31.8390 C   0  0  0  0  0  0  0  0  0  0  0  0
   36.2870   28.8380   33.0580 C   0  0  0  0  0  0  0  0  0  0  0  0
   38.5720   27.1630   30.4710 H   0  0  0  0  0  0  0  0  0  0  0  0
   37.5430   29.3380   29.9650 H   0  0  0  0  0  0  0  0  0  0  0  0
   36.1130   30.4190   31.5520 H   0  0  0  0  0  0  0  0  0  0  0  0
   35.4050   29.5700   33.9520 C   0  0  0  0  0  0  0  0  0  0  0  0
   35.6070   30.6310   34.8040 C   0  0  0  0  0  0  0  0  0  0  0  0
   36.5170   31.1540   34.9810 H   0  0  0  0  0  0  0  0  0  0  0  0
   34.4820   31.0090   35.4670 C   0  0  0  0  0  0  0  0  0  0  0  0
   34.2500   31.7600   36.1830 H   0  0  0  0  0  0  0  0  0  0  0  0
   33.5660   30.1200   34.9770 C   0  0  0  0  0  0  0  0  0  0  0  0
   32.4920   29.9620   35.1630 H   0  0  0  0  0  0  0  0  0  0  0  0
   34.1240   29.3370   34.1350 O   0  0  0  0  0  0  0  0  0  0  0  0
   39.5670   24.2570   35.6790 C   0  0  0  0  0  0  0  0  0  0  0  0
   40.3580   23.2460   36.2270 C   0  0  0  0  0  0  0  0  0  0  0  0
   40.0030   22.7610   37.4930 C   0  0  0  0  0  0  0  0  0  0  0  0
   38.8940   23.3000   38.1340 N   0  0  0  0  0  0  0  0  0  0  0  0
   38.1620   24.2740   37.5610 C   0  0  0  0  0  0  0  0  0  0  0  0
   38.5140   24.7260   36.3550 N   0  0  0  0  0  0  0  0  0  0  0  0
   41.2220   22.6550   35.9880 H   0  0  0  0  0  0  0  0  0  0  0  0
   40.4270   22.0110   38.1290 H   0  0  0  0  0  0  0  0  0  0  0  0
   37.3060   24.7050   38.0290 H   0  0  0  0  0  0  0  0  0  0  0  0
  1  7  1  1  0  0  0
  1 35  1  0  0  0  0
  2  1  1  0  0  0  0
  2  8  1  0  0  0  0
  3 10  1  1  0  0  0
  3  2  1  0  0  0  0
  4  5  1  0  0  0  0
  4  3  1  0  0  0  0
  5  6  1  0  0  0  0
  6 15  1  0  0  0  0
  6 16  1  0  0  0  0
  6  1  1  0  0  0  0
  9  2  1  0  0  0  0
 11  4  1  0  0  0  0
 12  4  1  0  0  0  0
 13  5  1  0  0  0  0
 14  5  1  0  0  0  0
 18 17  1  0  0  0  0
 19  3  1  0  0  0  0
 19 18  2  0  0  0  0
 20 19  1  0  0  0  0
 21 20  2  0  0  0  0
 21 22  1  0  0  0  0
 22 23  2  0  0  0  0
 23 18  1  0  0  0  0
 23 27  1  0  0  0  0
 24 20  1  0  0  0  0
 25 21  1  0  0  0  0
 26 22  1  0  0  0  0
 27 34  1  0  0  0  0
 27 28  2  0  0  0  0
 28 29  1  0  0  0  0
 28 30  1  0  0  0  0
 30 31  1  0  0  0  0
 32 33  1  0  0  0  0
 32 30  2  0  0  0  0
 34 32  1  0  0  0  0
 35 36  2  0  0  0  0
 35 40  1  0  0  0  0
 36 37  1  0  0  0  0
 37 42  1  0  0  0  0
 37 38  2  0  0  0  0
 39 43  1  0  0  0  0
 39 38  1  0  0  0  0
 40 39  2  0  0  0  0
 41 36  1  0  0  0  0
M  END
>  <minimizedAffinity>
-5.57568169

$$$$

 OpenBabel03272506003D

 43 46  0  0  1  0  0  0  0  0999 V2000
   36.7660   23.0450   31.0780 C   0  0  2  0  0  0  0  0  0  0  0  0
   37.9590   23.3200   31.9160 C   0  0  0  0  0  0  0  0  0  0  0  0
   37.6560   24.2440   33.1060 C   0  0  2  0  0  0  0  0  0  0  0  0
   37.0470   25.5230   32.7160 C   0  0  0  0  0  0  0  0  0  0  0  0
   36.0300   25.4010   31.5960 C   0  0  0  0  0  0  0  0  0  0  0  0
   35.6140   23.9780   31.3670 C   0  0  0  0  0  0  0  0  0  0  0  0
   36.9900   23.1710   29.9770 H   0  0  0  0  0  0  0  0  0  0  0  0
   38.5320   22.5400   32.3540 H   0  0  0  0  0  0  0  0  0  0  0  0
   38.6780   23.9290   31.2890 H   0  0  0  0  0  0  0  0  0  0  0  0
   37.0560   23.6460   33.7850 H   0  0  0  0  0  0  0  0  0  0  0  0
   37.7570   26.3050   32.3820 H   0  0  0  0  0  0  0  0  0  0  0  0
   36.5750   25.9680   33.6370 H   0  0  0  0  0  0  0  0  0  0  0  0
   36.3500   25.9010   30.6660 H   0  0  0  0  0  0  0  0  0  0  0  0
   35.1190   25.9430   31.9240 H   0  0  0  0  0  0  0  0  0  0  0  0
   34.9350   23.9680   30.4990 H   0  0  0  0  0  0  0  0  0  0  0  0
   35.0830   23.5850   32.2390 H   0  0  0  0  0  0  0  0  0  0  0  0
   38.6970   21.9840   34.6640 Cl  0  0  0  0  0  0  0  0  0  0  0  0
   39.5720   23.4980   34.5100 C   0  0  0  0  0  0  0  0  0  0  0  0
   38.9880   24.4760   33.7310 C   0  0  0  0  0  0  0  0  0  0  0  0
   39.7480   25.6350   33.6550 C   0  0  0  0  0  0  0  0  0  0  0  0
   40.9570   25.7770   34.2970 C   0  0  0  0  0  0  0  0  0  0  0  0
   41.4710   24.7620   35.0530 C   0  0  0  0  0  0  0  0  0  0  0  0
   40.7520   23.5720   35.1660 C   0  0  0  0  0  0  0  0  0  0  0  0
   39.3350   26.4420   33.0490 H   0  0  0  0  0  0  0  0  0  0  0  0
   41.4940   26.7170   34.1920 H   0  0  0  0  0  0  0  0  0  0  0  0
   42.4150   24.9510   35.5200 H   0  0  0  0  0  0  0  0  0  0  0  0
   41.3900   22.5630   35.9940 C   0  0  0  0  0  0  0  0  0  0  0  0
   41.1190   22.0760   37.2530 C   0  0  0  0  0  0  0  0  0  0  0  0
   40.3310   22.3720   37.9040 H   0  0  0  0  0  0  0  0  0  0  0  0
   41.9900   21.1130   37.6540 C   0  0  0  0  0  0  0  0  0  0  0  0
   42.1020   20.5210   38.5310 H   0  0  0  0  0  0  0  0  0  0  0  0
   42.8200   21.0280   36.5710 C   0  0  0  0  0  0  0  0  0  0  0  0
   43.7040   20.4110   36.3440 H   0  0  0  0  0  0  0  0  0  0  0  0
   42.4480   21.8530   35.6690 O   0  0  0  0  0  0  0  0  0  0  0  0
   36.2680   21.6680   31.2180 C   0  0  0  0  0  0  0  0  0  0  0  0
   35.2130   21.5070   32.1170 C   0  0  0  0  0  0  0  0  0  0  0  0
   34.6890   20.2160   32.2740 C   0  0  0  0  0  0  0  0  0  0  0  0
   35.2380   19.1720   31.5400 N   0  0  0  0  0  0  0  0  0  0  0  0
   36.2580   19.3800   30.6860 C   0  0  0  0  0  0  0  0  0  0  0  0
   36.7450   20.6160   30.5460 N   0  0  0  0  0  0  0  0  0  0  0  0
   34.6120   22.0830   32.7950 H   0  0  0  0  0  0  0  0  0  0  0  0
   33.8990   19.8210   32.8800 H   0  0  0  0  0  0  0  0  0  0  0  0
   36.7000   18.5990   30.1100 H   0  0  0  0  0  0  0  0  0  0  0  0
  1  7  1  6  0  0  0
  1 35  1  0  0  0  0
  1  6  1  0  0  0  0
  1  2  1  0  0  0  0
  2  8  1  0  0  0  0
  2  3  1  0  0  0  0
  3 19  1  0  0  0  0
  3 10  1  1  0  0  0
  4  3  1  0  0  0  0
  4 12  1  0  0  0  0
  5 14  1  0  0  0  0
  5  4  1  0  0  0  0
  6  5  1  0  0  0  0
  6 16  1  0  0  0  0
  9  2  1  0  0  0  0
 11  4  1  0  0  0  0
 13  5  1  0  0  0  0
 15  6  1  0  0  0  0
 18 17  1  0  0  0  0
 18 23  1  0  0  0  0
 19 18  2  0  0  0  0
 20 19  1  0  0  0  0
 20 21  2  0  0  0  0
 21 22  1  0  0  0  0
 22 23  2  0  0  0  0
 22 26  1  0  0  0  0
 23 27  1  0  0  0  0
 24 20  1  0  0  0  0
 25 21  1  0  0  0  0
 27 28  2  0  0  0  0
 28 30  1  0  0  0  0
 28 29  1  0  0  0  0
 30 31  1  0  0  0  0
 32 30  2  0  0  0  0
 33 32  1  0  0  0  0
 34 27  1  0  0  0  0
 34 32  1  0  0  0  0
 35 36  1  0  0  0  0
 36 37  2  0  0  0  0
 36 41  1  0  0  0  0
 37 42  1  0  0  0  0
 38 37  1  0  0  0  0
 39 38  2  0  0  0  0
 40 39  1  0  0  0  0
 40 35  2  0  0  0  0
 43 39  1  0  0  0  0
M  END
>  <minimizedAffinity>
-5.55166912

$$$$

 OpenBabel03272506003D

 43 46  0  0  1  0  0  0  0  0999 V2000
   37.8830   24.2470   33.4650 C   0  0  2  0  0  0  0  0  0  0  0  0
   37.2070   25.4910   33.0240 C   0  0  0  0  0  0  0  0  0  0  0  0
   38.1590   26.4780   32.3310 C   0  0  2  0  0  0  0  0  0  0  0  0
   39.3260   26.8390   33.1480 C   0  0  0  0  0  0  0  0  0  0  0  0
   39.9080   25.6770   33.9310 C   0  0  0  0  0  0  0  0  0  0  0  0
   39.3900   24.3550   33.4460 C   0  0  0  0  0  0  0  0  0  0  0  0
   37.6110   23.9770   34.5290 H   0  0  0  0  0  0  0  0  0  0  0  0
   36.3620   25.4760   32.3800 H   0  0  0  0  0  0  0  0  0  0  0  0
   36.8850   26.0490   33.9560 H   0  0  0  0  0  0  0  0  0  0  0  0
   38.3980   26.0210   31.3770 H   0  0  0  0  0  0  0  0  0  0  0  0
   39.1550   27.6390   33.8950 H   0  0  0  0  0  0  0  0  0  0  0  0
   40.0990   27.2800   32.4560 H   0  0  0  0  0  0  0  0  0  0  0  0
   39.8000   25.7950   35.0240 H   0  0  0  0  0  0  0  0  0  0  0  0
   41.0010   25.6720   33.7430 H   0  0  0  0  0  0  0  0  0  0  0  0
   39.8000   23.5760   34.1070 H   0  0  0  0  0  0  0  0  0  0  0  0
   39.7210   24.1630   32.4200 H   0  0  0  0  0  0  0  0  0  0  0  0
   36.9980   27.6920   34.7390 Cl  0  0  0  0  0  0  0  0  0  0  0  0
   36.6910   28.3240   33.1300 C   0  0  0  0  0  0  0  0  0  0  0  0
   37.3130   27.6800   32.0810 C   0  0  0  0  0  0  0  0  0  0  0  0
   37.0250   28.2470   30.8470 C   0  0  0  0  0  0  0  0  0  0  0  0
   36.2000   29.3390   30.7040 C   0  0  0  0  0  0  0  0  0  0  0  0
   35.6190   29.9240   31.7920 C   0  0  0  0  0  0  0  0  0  0  0  0
   35.8720   29.3970   33.0590 C   0  0  0  0  0  0  0  0  0  0  0  0
   37.4930   27.7780   29.9810 H   0  0  0  0  0  0  0  0  0  0  0  0
   36.0200   29.7260   29.7030 H   0  0  0  0  0  0  0  0  0  0  0  0
   34.9900   30.7680   31.5970 H   0  0  0  0  0  0  0  0  0  0  0  0
   35.2010   30.0950   34.1420 C   0  0  0  0  0  0  0  0  0  0  0  0
   35.6190   31.0460   35.0450 C   0  0  0  0  0  0  0  0  0  0  0  0
   36.5870   31.4810   35.1240 H   0  0  0  0  0  0  0  0  0  0  0  0
   34.6430   31.4340   35.9070 C   0  0  0  0  0  0  0  0  0  0  0  0
   34.5860   32.1220   36.7170 H   0  0  0  0  0  0  0  0  0  0  0  0
   33.5900   30.6680   35.4900 C   0  0  0  0  0  0  0  0  0  0  0  0
   32.5470   30.5690   35.8270 H   0  0  0  0  0  0  0  0  0  0  0  0
   33.9460   29.9370   34.5030 O   0  0  0  0  0  0  0  0  0  0  0  0
   37.5130   23.0730   32.6610 C   0  0  0  0  0  0  0  0  0  0  0  0
   36.3370   23.2060   31.9210 C   0  0  0  0  0  0  0  0  0  0  0  0
   35.9490   22.1220   31.1220 C   0  0  0  0  0  0  0  0  0  0  0  0
   36.7410   20.9790   31.1060 N   0  0  0  0  0  0  0  0  0  0  0  0
   37.8660   20.9000   31.8400 C   0  0  0  0  0  0  0  0  0  0  0  0
   38.2230   21.9430   32.5950 N   0  0  0  0  0  0  0  0  0  0  0  0
   35.5540   23.9170   31.7400 H   0  0  0  0  0  0  0  0  0  0  0  0
   35.1150   21.9610   30.4700 H   0  0  0  0  0  0  0  0  0  0  0  0
   38.4920   20.0380   31.8490 H   0  0  0  0  0  0  0  0  0  0  0  0
  1  7  1  1  0  0  0
  2  1  1  0  0  0  0
  2  9  1  0  0  0  0
  3 10  1  6  0  0  0
  3  2  1  0  0  0  0
  3  4  1  0  0  0  0
  4 11  1  0  0  0  0
  4  5  1  0  0  0  0
  5 13  1  0  0  0  0
  6  1  1  0  0  0  0
  6  5  1  0  0  0  0
  6 15  1  0  0  0  0
  8  2  1  0  0  0  0
 12  4  1  0  0  0  0
 14  5  1  0  0  0  0
 16  6  1  0  0  0  0
 18 17  1  0  0  0  0
 19  3  1  0  0  0  0
 19 18  2  0  0  0  0
 20 19  1  0  0  0  0
 21 20  2  0  0  0  0
 21 22  1  0  0  0  0
 22 23  2  0  0  0  0
 23 18  1  0  0  0  0
 23 27  1  0  0  0  0
 24 20  1  0  0  0  0
 25 21  1  0  0  0  0
 26 22  1  0  0  0  0
 27 34  1  0  0  0  0
 27 28  2  0  0  0  0
 28 29  1  0  0  0  0
 28 30  1  0  0  0  0
 30 31  1  0  0  0  0
 32 33  1  0  0  0  0
 32 30  2  0  0  0  0
 34 32  1  0  0  0  0
 35  1  1  0  0  0  0
 36 35  2  0  0  0  0
 37 36  1  0  0  0  0
 38 37  2  0  0  0  0
 38 39  1  0  0  0  0
 39 43  1  0  0  0  0
 39 40  2  0  0  0  0
 40 35  1  0  0  0  0
 41 36  1  0  0  0  0
 42 37  1  0  0  0  0
M  END
>  <minimizedAffinity>
-5.48599243

$$$$
