
 OpenBabel03272509543D

 42 45  0  0  0  0  0  0  0  0999 V2000
   34.2460   28.7650   48.0680 C   0  0  0  0  0  0  0  0  0  0  0  0
   33.6000   29.6360   48.3450 H   0  0  0  0  0  0  0  0  0  0  0  0
   34.9970   29.1420   47.3550 H   0  0  0  0  0  0  0  0  0  0  0  0
   33.3540   27.7060   47.5020 C   0  0  0  0  0  0  0  0  0  0  0  0
   33.6480   26.6730   47.7560 H   0  0  0  0  0  0  0  0  0  0  0  0
   33.4440   27.7640   46.3840 H   0  0  0  0  0  0  0  0  0  0  0  0
   31.9240   27.9490   47.7950 C   0  0  0  0  0  0  0  0  0  0  0  0
   31.4050   27.4920   48.9980 C   0  0  0  0  0  0  0  0  0  0  0  0
   30.1080   27.6580   49.3750 C   0  0  0  0  0  0  0  0  0  0  0  0
   29.3030   28.2900   48.5460 N   0  0  0  0  0  0  0  0  0  0  0  0
   29.7820   28.7540   47.3520 C   0  0  0  0  0  0  0  0  0  0  0  0
   31.0690   28.5970   46.9630 N   0  0  0  0  0  0  0  0  0  0  0  0
   32.0860   26.9640   49.6850 H   0  0  0  0  0  0  0  0  0  0  0  0
   29.6850   27.3120   50.3040 H   0  0  0  0  0  0  0  0  0  0  0  0
   28.8430   29.4520   46.4640 C   0  0  0  0  0  0  0  0  0  0  0  0
   28.9700   29.6310   45.1040 C   0  0  0  0  0  0  0  0  0  0  0  0
   29.7670   29.2980   44.4550 H   0  0  0  0  0  0  0  0  0  0  0  0
   27.8570   30.3450   44.6620 C   0  0  0  0  0  0  0  0  0  0  0  0
   27.5680   30.6890   43.6880 H   0  0  0  0  0  0  0  0  0  0  0  0
   27.1020   30.5660   45.7920 C   0  0  0  0  0  0  0  0  0  0  0  0
   26.1490   31.1000   45.8250 H   0  0  0  0  0  0  0  0  0  0  0  0
   27.7190   30.0260   46.8170 O   0  0  0  0  0  0  0  0  0  0  0  0
   34.8450   28.3090   49.2670 O   0  0  0  0  0  0  0  0  0  0  0  0
   37.1000   29.9880   51.5440 C   0  0  0  0  0  0  0  0  0  0  0  0
   37.8870   30.7300   50.6080 C   0  0  0  0  0  0  0  0  0  0  0  0
   37.5810   30.5950   49.2760 C   0  0  0  0  0  0  0  0  0  0  0  0
   36.5450   29.7570   48.9630 N   0  0  0  0  0  0  0  0  0  0  0  0
   35.8240   29.0760   49.8370 C   0  0  0  0  0  0  0  0  0  0  0  0
   36.1130   29.1990   51.1560 N   0  0  0  0  0  0  0  0  0  0  0  0
   37.3660   30.1160   52.5890 H   0  0  0  0  0  0  0  0  0  0  0  0
   38.7000   31.3850   50.8770 H   0  0  0  0  0  0  0  0  0  0  0  0
   38.7900   33.2200   49.2720 F   0  0  0  0  0  0  0  0  0  0  0  0
   38.8330   32.4900   48.1700 C   0  0  0  0  0  0  0  0  0  0  0  0
   38.2600   31.2590   48.1900 C   0  0  0  0  0  0  0  0  0  0  0  0
   38.3640   30.5770   46.9770 C   0  0  0  0  0  0  0  0  0  0  0  0
   38.9840   31.0960   45.8670 C   0  0  0  0  0  0  0  0  0  0  0  0
   39.5510   32.3500   45.8950 C   0  0  0  0  0  0  0  0  0  0  0  0
   39.4640   33.0480   47.0830 C   0  0  0  0  0  0  0  0  0  0  0  0
   37.9590   29.5770   46.8200 H   0  0  0  0  0  0  0  0  0  0  0  0
   39.0620   30.5660   44.9310 H   0  0  0  0  0  0  0  0  0  0  0  0
   40.0390   32.7760   45.0450 H   0  0  0  0  0  0  0  0  0  0  0  0
   39.9010   34.0350   47.1280 H   0  0  0  0  0  0  0  0  0  0  0  0
  1  2  1  0  0  0  0
  1 23  1  0  0  0  0
  3  1  1  0  0  0  0
  4  5  1  0  0  0  0
  4  7  1  0  0  0  0
  4  1  1  0  0  0  0
  6  4  1  0  0  0  0
  7  8  1  0  0  0  0
  8  9  2  0  0  0  0
  8 13  1  0  0  0  0
  9 14  1  0  0  0  0
 10  9  1  0  0  0  0
 11 10  2  0  0  0  0
 12 11  1  0  0  0  0
 12  7  2  0  0  0  0
 15 22  1  0  0  0  0
 15 11  1  0  0  0  0
 16 15  2  0  0  0  0
 17 16  1  0  0  0  0
 18 16  1  0  0  0  0
 18 20  2  0  0  0  0
 19 18  1  0  0  0  0
 20 21  1  0  0  0  0
 20 22  1  0  0  0  0
 23 28  1  0  0  0  0
 24 30  1  0  0  0  0
 25 31  1  0  0  0  0
 25 24  2  0  0  0  0
 26 25  1  0  0  0  0
 27 26  2  0  0  0  0
 27 28  1  0  0  0  0
 28 29  2  0  0  0  0
 29 24  1  0  0  0  0
 33 34  1  0  0  0  0
 33 32  1  0  0  0  0
 34 26  1  0  0  0  0
 35 34  2  0  0  0  0
 36 37  2  0  0  0  0
 36 35  1  0  0  0  0
 37 38  1  0  0  0  0
 38 42  1  0  0  0  0
 38 33  2  0  0  0  0
 39 35  1  0  0  0  0
 40 36  1  0  0  0  0
 41 37  1  0  0  0  0
M  END
>  <minimizedAffinity>
-6.60063791

>  <minimizedRMSD>
0.641494572

$$$$
