
 OpenBabel03272506243D

 30 32  0  0  0  0  0  0  0  0999 V2000
   38.1720   30.7150   47.1070 C   0  0  0  0  0  0  0  0  0  0  0  0
   38.2860   29.8420   46.0460 C   0  0  0  0  0  0  0  0  0  0  0  0
   38.9740   30.1140   44.8730 C   0  0  0  0  0  0  0  0  0  0  0  0
   39.6010   31.3650   44.7460 C   0  0  0  0  0  0  0  0  0  0  0  0
   39.4850   32.2460   45.8170 C   0  0  0  0  0  0  0  0  0  0  0  0
   38.7990   31.9520   46.9690 C   0  0  0  0  0  0  0  0  0  0  0  0
   37.8310   28.8580   46.0680 H   0  0  0  0  0  0  0  0  0  0  0  0
   39.0420   29.4030   44.0610 H   0  0  0  0  0  0  0  0  0  0  0  0
   40.1550   31.6550   43.8660 H   0  0  0  0  0  0  0  0  0  0  0  0
   39.9730   33.2190   45.7200 H   0  0  0  0  0  0  0  0  0  0  0  0
   38.1520   30.0570   49.4530 C   0  0  0  0  0  0  0  0  0  0  0  0
   37.4200   30.2620   48.2440 C   0  0  0  0  0  0  0  0  0  0  0  0
   36.0560   30.0070   48.2690 C   0  0  0  0  0  0  0  0  0  0  0  0
   35.4790   29.5780   49.4320 N   0  0  0  0  0  0  0  0  0  0  0  0
   36.2150   29.3940   50.5760 C   0  0  0  0  0  0  0  0  0  0  0  0
   37.5490   29.6350   50.5800 N   0  0  0  0  0  0  0  0  0  0  0  0
   39.2140   30.2470   49.4650 H   0  0  0  0  0  0  0  0  0  0  0  0
   35.6280   29.0510   51.4210 H   0  0  0  0  0  0  0  0  0  0  0  0
   35.1730   30.1750   47.0900 C   0  0  0  0  0  0  0  0  0  0  0  0
   33.9310   30.7070   47.5050 F   0  0  0  0  0  0  0  0  0  0  0  0
   35.6520   30.9370   46.0870 F   0  0  0  0  0  0  0  0  0  0  0  0
   34.8210   28.9190   46.5840 F   0  0  0  0  0  0  0  0  0  0  0  0
   38.6770   32.8670   48.0840 C   0  0  0  0  0  0  0  0  0  0  0  0
   39.6930   33.7020   48.5630 C   0  0  0  0  0  0  0  0  0  0  0  0
   40.6980   33.8000   48.1970 H   0  0  0  0  0  0  0  0  0  0  0  0
   39.1830   34.4280   49.6450 C   0  0  0  0  0  0  0  0  0  0  0  0
   39.7430   35.1560   50.2190 H   0  0  0  0  0  0  0  0  0  0  0  0
   37.8750   33.9830   49.7580 C   0  0  0  0  0  0  0  0  0  0  0  0
   37.2430   34.3980   50.5380 H   0  0  0  0  0  0  0  0  0  0  0  0
   37.6250   33.0920   48.8470 O   0  0  0  0  0  0  0  0  0  0  0  0
  1 12  1  0  0  0  0
  2  7  1  0  0  0  0
  2  1  2  0  0  0  0
  3  2  1  0  0  0  0
  4  3  2  0  0  0  0
  4  5  1  0  0  0  0
  5  6  2  0  0  0  0
  6  1  1  0  0  0  0
  6 23  1  0  0  0  0
  8  3  1  0  0  0  0
  9  4  1  0  0  0  0
 10  5  1  0  0  0  0
 11 17  1  0  0  0  0
 11 16  1  0  0  0  0
 12 13  1  0  0  0  0
 12 11  2  0  0  0  0
 13 14  2  0  0  0  0
 14 15  1  0  0  0  0
 15 16  2  0  0  0  0
 15 18  1  0  0  0  0
 19 20  1  0  0  0  0
 19 13  1  0  0  0  0
 21 19  1  0  0  0  0
 22 19  1  0  0  0  0
 23 24  2  0  0  0  0
 23 30  1  0  0  0  0
 24 26  1  0  0  0  0
 25 24  1  0  0  0  0
 26 28  2  0  0  0  0
 26 27  1  0  0  0  0
 28 29  1  0  0  0  0
 30 28  1  0  0  0  0
M  END
>  <minimizedAffinity>
-4.46522331

>  <minimizedRMSD>
1.54910338

$$$$
