
 OpenBabel03272505123D

 38 41  0  0  0  0  0  0  0  0999 V2000
   36.4190   30.8450   45.6190 Cl  0  0  0  0  0  0  0  0  0  0  0  0
   36.6740   30.7090   47.3330 C   0  0  0  0  0  0  0  0  0  0  0  0
   37.9090   31.0470   47.8270 C   0  0  0  0  0  0  0  0  0  0  0  0
   38.1150   30.9400   49.1900 C   0  0  0  0  0  0  0  0  0  0  0  0
   37.1050   30.5070   50.0050 C   0  0  0  0  0  0  0  0  0  0  0  0
   35.8800   30.1800   49.4410 C   0  0  0  0  0  0  0  0  0  0  0  0
   35.5980   30.2600   48.1030 C   0  0  0  0  0  0  0  0  0  0  0  0
   39.0980   31.2130   49.5590 H   0  0  0  0  0  0  0  0  0  0  0  0
   37.2520   30.4190   51.0710 H   0  0  0  0  0  0  0  0  0  0  0  0
   35.0930   29.8390   50.1090 H   0  0  0  0  0  0  0  0  0  0  0  0
   40.1840   33.3110   46.0890 C   0  0  0  0  0  0  0  0  0  0  0  0
   40.9220   32.4680   45.2200 C   0  0  0  0  0  0  0  0  0  0  0  0
   40.6130   31.1030   45.2500 C   0  0  0  0  0  0  0  0  0  0  0  0
   39.6370   30.6680   46.1010 N   0  0  0  0  0  0  0  0  0  0  0  0
   38.9690   31.5100   46.9020 C   0  0  0  0  0  0  0  0  0  0  0  0
   39.2440   32.8190   46.8940 N   0  0  0  0  0  0  0  0  0  0  0  0
   40.4020   34.3520   46.0840 H   0  0  0  0  0  0  0  0  0  0  0  0
   41.6760   32.8380   44.5710 H   0  0  0  0  0  0  0  0  0  0  0  0
   41.1210   30.3810   44.6260 H   0  0  0  0  0  0  0  0  0  0  0  0
   34.0370   29.8450   47.3710 S   0  0  0  0  0  0  0  0  0  0  0  0
   33.9650   28.9530   44.3630 Cl  0  0  0  0  0  0  0  0  0  0  0  0
   33.9000   27.7820   45.6470 C   0  0  0  0  0  0  0  0  0  0  0  0
   33.9240   28.0930   47.0070 C   0  0  0  0  0  0  0  0  0  0  0  0
   33.8630   27.0800   47.9440 C   0  0  0  0  0  0  0  0  0  0  0  0
   33.7790   25.7690   47.5460 C   0  0  0  0  0  0  0  0  0  0  0  0
   33.7510   25.4000   46.2100 C   0  0  0  0  0  0  0  0  0  0  0  0
   33.8150   26.4440   45.3010 C   0  0  0  0  0  0  0  0  0  0  0  0
   33.8870   27.4080   48.9790 H   0  0  0  0  0  0  0  0  0  0  0  0
   33.7340   25.0190   48.3270 H   0  0  0  0  0  0  0  0  0  0  0  0
   33.6860   24.3820   45.9040 H   0  0  0  0  0  0  0  0  0  0  0  0
   33.7870   26.0720   43.8820 C   0  0  0  0  0  0  0  0  0  0  0  0
   34.8010   25.6990   43.0650 C   0  0  0  0  0  0  0  0  0  0  0  0
   35.8410   25.6320   43.4190 H   0  0  0  0  0  0  0  0  0  0  0  0
   34.3720   25.4230   41.7820 C   0  0  0  0  0  0  0  0  0  0  0  0
   34.9380   25.1060   40.9170 H   0  0  0  0  0  0  0  0  0  0  0  0
   33.0090   25.6630   41.8940 C   0  0  0  0  0  0  0  0  0  0  0  0
   32.2710   25.5610   41.0830 H   0  0  0  0  0  0  0  0  0  0  0  0
   32.7210   26.0320   43.1160 O   0  0  0  0  0  0  0  0  0  0  0  0
  1  2  1  0  0  0  0
  2  3  2  0  0  0  0
  2  7  1  0  0  0  0
  3  4  1  0  0  0  0
  4  8  1  0  0  0  0
  4  5  2  0  0  0  0
  5  9  1  0  0  0  0
  6  5  1  0  0  0  0
  6 10  1  0  0  0  0
  7  6  2  0  0  0  0
 11 16  1  0  0  0  0
 12 13  1  0  0  0  0
 12 11  2  0  0  0  0
 13 14  2  0  0  0  0
 14 15  1  0  0  0  0
 15  3  1  0  0  0  0
 16 15  2  0  0  0  0
 17 11  1  0  0  0  0
 18 12  1  0  0  0  0
 19 13  1  0  0  0  0
 20  7  1  0  0  0  0
 21 22  1  0  0  0  0
 22 23  1  0  0  0  0
 23 20  1  0  0  0  0
 23 24  2  0  0  0  0
 24 28  1  0  0  0  0
 25 24  1  0  0  0  0
 25 29  1  0  0  0  0
 26 25  2  0  0  0  0
 27 22  2  0  0  0  0
 27 26  1  0  0  0  0
 30 26  1  0  0  0  0
 31 27  1  0  0  0  0
 32 33  1  0  0  0  0
 32 31  2  0  0  0  0
 34 36  2  0  0  0  0
 34 32  1  0  0  0  0
 35 34  1  0  0  0  0
 36 38  1  0  0  0  0
 37 36  1  0  0  0  0
 38 31  1  0  0  0  0
M  END
>  <minimizedAffinity>
-5.62807178

>  <minimizedRMSD>
0.563518465

$$$$
