
 OpenBabel03272508123D

 33 35  0  0  0  0  0  0  0  0999 V2000
   36.6760   29.4380   44.0550 Cl  0  0  0  0  0  0  0  0  0  0  0  0
   38.3200   29.8350   43.5220 C   0  0  0  0  0  0  0  0  0  0  0  0
   39.3200   30.3340   44.3570 C   0  0  0  0  0  0  0  0  0  0  0  0
   40.5600   30.6020   43.8010 C   0  0  0  0  0  0  0  0  0  0  0  0
   40.7870   30.3800   42.4680 C   0  0  0  0  0  0  0  0  0  0  0  0
   39.8310   29.8950   41.6390 C   0  0  0  0  0  0  0  0  0  0  0  0
   38.5880   29.6180   42.1570 C   0  0  0  0  0  0  0  0  0  0  0  0
   41.2520   30.9830   44.5410 H   0  0  0  0  0  0  0  0  0  0  0  0
   41.7810   30.6160   42.1160 H   0  0  0  0  0  0  0  0  0  0  0  0
   40.0190   29.7230   40.5860 H   0  0  0  0  0  0  0  0  0  0  0  0
   37.5360   29.0940   41.2860 C   0  0  0  0  0  0  0  0  0  0  0  0
   37.3820   27.7730   40.9250 C   0  0  0  0  0  0  0  0  0  0  0  0
   37.9610   26.9100   41.1900 H   0  0  0  0  0  0  0  0  0  0  0  0
   36.2730   27.6780   40.0920 C   0  0  0  0  0  0  0  0  0  0  0  0
   35.7820   26.8730   39.5810 H   0  0  0  0  0  0  0  0  0  0  0  0
   35.8020   28.9920   39.9910 C   0  0  0  0  0  0  0  0  0  0  0  0
   34.9410   29.3280   39.4210 H   0  0  0  0  0  0  0  0  0  0  0  0
   36.5760   29.7730   40.7060 O   0  0  0  0  0  0  0  0  0  0  0  0
   38.8770   30.4780   45.6430 O   0  0  0  0  0  0  0  0  0  0  0  0
   39.4380   32.5200   47.1240 O   0  0  0  0  0  0  0  0  0  0  0  0
   38.3060   31.8380   46.4240 P   0  0  1  0  0  0  0  0  0  0  0  0
   37.7180   32.8490   45.1730 O   0  0  0  0  0  0  0  0  0  0  0  0
   38.3440   33.6110   45.0520 H   0  0  0  0  0  0  0  0  0  0  0  0
   37.0270   31.4170   47.4520 O   0  0  0  0  0  0  0  0  0  0  0  0
   37.6100   30.5300   50.9850 C   0  0  0  0  0  0  0  0  0  0  0  0
   37.6990   31.3000   49.8220 C   0  0  0  0  0  0  0  0  0  0  0  0
   37.0700   30.8430   48.6690 C   0  0  0  0  0  0  0  0  0  0  0  0
   36.3930   29.6570   48.7380 N   0  0  0  0  0  0  0  0  0  0  0  0
   36.3270   28.9390   49.8790 C   0  0  0  0  0  0  0  0  0  0  0  0
   36.9320   29.3730   50.9950 N   0  0  0  0  0  0  0  0  0  0  0  0
   38.1240   30.9490   51.8420 H   0  0  0  0  0  0  0  0  0  0  0  0
   38.2040   32.2260   49.6920 H   0  0  0  0  0  0  0  0  0  0  0  0
   35.7820   27.9920   49.9190 H   0  0  0  0  0  0  0  0  0  0  0  0
  2  1  1  0  0  0  0
  2  3  1  0  0  0  0
  3 19  1  0  0  0  0
  4  3  2  0  0  0  0
  4  8  1  0  0  0  0
  5  4  1  0  0  0  0
  6  7  1  0  0  0  0
  6  5  2  0  0  0  0
  7  2  2  0  0  0  0
  9  5  1  0  0  0  0
 10  6  1  0  0  0  0
 11  7  1  0  0  0  0
 12 13  1  0  0  0  0
 12 11  2  0  0  0  0
 14 12  1  0  0  0  0
 15 14  1  0  0  0  0
 16 14  2  0  0  0  0
 16 18  1  0  0  0  0
 17 16  1  0  0  0  0
 18 11  1  0  0  0  0
 19 21  1  0  0  0  0
 21 20  2  1  0  0  0
 21 24  1  0  0  0  0
 22 21  1  0  0  0  0
 23 22  1  0  0  0  0
 24 27  1  0  0  0  0
 25 30  1  0  0  0  0
 25 31  1  0  0  0  0
 26 25  2  0  0  0  0
 27 28  2  0  0  0  0
 27 26  1  0  0  0  0
 28 29  1  0  0  0  0
 29 33  1  0  0  0  0
 29 30  2  0  0  0  0
 32 26  1  0  0  0  0
M  END
>  <minimizedAffinity>
-4.79970741

>  <minimizedRMSD>
0.254826307

$$$$
