
 OpenBabel03272508553D

 37 40  0  0  1  0  0  0  0  0999 V2000
   38.3790   31.8520   44.5480 C   0  0  0  0  0  0  0  0  0  0  0  0
   37.2440   32.4050   44.4290 O   0  0  0  0  0  0  0  0  0  0  0  0
   38.9340   31.5910   45.8410 N   0  0  0  0  0  0  0  0  0  0  0  0
   39.9180   31.2910   46.0080 H   0  0  0  0  0  0  0  0  0  0  0  0
   39.1490   31.4660   43.3570 C   0  0  0  0  0  0  0  0  0  0  0  0
   40.1210   30.5100   43.4970 C   0  0  0  0  0  0  0  0  0  0  0  0
   40.8500   30.1290   42.3870 C   0  0  0  0  0  0  0  0  0  0  0  0
   40.5550   30.7400   41.1870 C   0  0  0  0  0  0  0  0  0  0  0  0
   39.5760   31.7070   41.0360 C   0  0  0  0  0  0  0  0  0  0  0  0
   38.9210   32.0150   42.1570 N   0  0  0  0  0  0  0  0  0  0  0  0
   40.3890   30.0020   44.4140 H   0  0  0  0  0  0  0  0  0  0  0  0
   41.6290   29.3810   42.4320 H   0  0  0  0  0  0  0  0  0  0  0  0
   41.1340   30.4350   40.3220 H   0  0  0  0  0  0  0  0  0  0  0  0
   39.2830   32.3400   39.7570 C   0  0  0  0  0  0  0  0  0  0  0  0
   39.4640   31.7070   38.5360 C   0  0  0  0  0  0  0  0  0  0  0  0
   39.8300   30.7070   38.3790 H   0  0  0  0  0  0  0  0  0  0  0  0
   39.0580   32.6840   37.6230 C   0  0  0  0  0  0  0  0  0  0  0  0
   39.0610   32.5470   36.5500 H   0  0  0  0  0  0  0  0  0  0  0  0
   38.6670   33.8150   38.3120 C   0  0  0  0  0  0  0  0  0  0  0  0
   38.3000   34.7560   37.9240 H   0  0  0  0  0  0  0  0  0  0  0  0
   38.8160   33.5740   39.5980 O   0  0  0  0  0  0  0  0  0  0  0  0
   38.4320   31.1350   48.2360 C   0  0  2  0  0  0  0  0  0  0  0  0
   38.7020   32.5760   48.1380 C   0  0  0  0  0  0  0  0  0  0  0  0
   38.0580   31.7620   46.9900 C   0  0  1  0  0  0  0  0  0  0  0  0
   39.3500   30.5170   48.3150 H   0  0  0  0  0  0  0  0  0  0  0  0
   38.0850   33.3320   48.6510 H   0  0  0  0  0  0  0  0  0  0  0  0
   39.7410   32.9290   47.9840 H   0  0  0  0  0  0  0  0  0  0  0  0
   37.0040   32.0910   46.7850 H   0  0  0  0  0  0  0  0  0  0  0  0
   35.0870   30.2220   49.5350 C   0  0  0  0  0  0  0  0  0  0  0  0
   35.4090   29.5520   50.7600 C   0  0  0  0  0  0  0  0  0  0  0  0
   36.8070   29.4420   51.1070 C   0  0  0  0  0  0  0  0  0  0  0  0
   37.7500   29.9680   50.2740 N   0  0  0  0  0  0  0  0  0  0  0  0
   37.3540   30.5920   49.1230 C   0  0  0  0  0  0  0  0  0  0  0  0
   36.0390   30.7350   48.7260 N   0  0  0  0  0  0  0  0  0  0  0  0
   34.0360   30.2680   49.3400 H   0  0  0  0  0  0  0  0  0  0  0  0
   34.6470   29.1510   51.3900 H   0  0  0  0  0  0  0  0  0  0  0  0
   37.0530   28.9390   52.0270 H   0  0  0  0  0  0  0  0  0  0  0  0
  1  3  1  0  0  0  0
  2  1  2  0  0  0  0
  3  4  1  0  0  0  0
  3 24  1  0  0  0  0
  5  6  1  0  0  0  0
  5  1  1  0  0  0  0
  6 11  1  0  0  0  0
  7 12  1  0  0  0  0
  7  6  2  0  0  0  0
  8  7  1  0  0  0  0
  9  8  2  0  0  0  0
  9 10  1  0  0  0  0
 10  5  2  0  0  0  0
 13  8  1  0  0  0  0
 14  9  1  0  0  0  0
 15 14  2  0  0  0  0
 16 15  1  0  0  0  0
 17 19  2  0  0  0  0
 17 15  1  0  0  0  0
 18 17  1  0  0  0  0
 19 21  1  0  0  0  0
 20 19  1  0  0  0  0
 21 14  1  0  0  0  0
 22 25  1  6  0  0  0
 22 33  1  0  0  0  0
 23 22  1  0  0  0  0
 23 26  1  0  0  0  0
 24 28  1  6  0  0  0
 24 23  1  0  0  0  0
 24 22  1  0  0  0  0
 27 23  1  0  0  0  0
 29 30  1  0  0  0  0
 30 31  2  0  0  0  0
 30 36  1  0  0  0  0
 31 37  1  0  0  0  0
 32 31  1  0  0  0  0
 33 32  2  0  0  0  0
 34 33  1  0  0  0  0
 34 29  2  0  0  0  0
 35 29  1  0  0  0  0
M  END
>  <minimizedAffinity>
-5.15804768

>  <minimizedRMSD>
0.304422498

$$$$
