
 OpenBabel03272506073D

 29 31  0  0  0  0  0  0  0  0999 V2000
   37.1370   23.5730   31.5190 C   0  0  0  0  0  0  0  0  0  0  0  0
   37.8830   22.7560   31.3050 H   0  0  0  0  0  0  0  0  0  0  0  0
   37.2810   24.2990   30.6930 H   0  0  0  0  0  0  0  0  0  0  0  0
   37.4630   24.2180   32.8360 C   0  0  0  0  0  0  0  0  0  0  0  0
   37.3270   25.6670   32.9410 C   0  0  0  0  0  0  0  0  0  0  0  0
   37.8150   25.9220   34.6280 S   0  0  0  0  0  0  0  0  0  0  0  0
   38.1250   24.1020   34.9490 C   0  0  0  0  0  0  0  0  0  0  0  0
   37.8640   23.5830   33.9040 N   0  0  0  0  0  0  0  0  0  0  0  0
   37.0030   26.3280   32.1340 H   0  0  0  0  0  0  0  0  0  0  0  0
   38.6020   23.7090   36.3510 C   0  0  0  0  0  0  0  0  0  0  0  0
   38.0120   23.9990   37.5370 C   0  0  0  0  0  0  0  0  0  0  0  0
   37.0990   24.5590   37.6790 H   0  0  0  0  0  0  0  0  0  0  0  0
   38.8750   23.3960   38.4610 C   0  0  0  0  0  0  0  0  0  0  0  0
   38.7200   23.4210   39.5370 H   0  0  0  0  0  0  0  0  0  0  0  0
   39.8970   22.8080   37.7100 C   0  0  0  0  0  0  0  0  0  0  0  0
   40.7190   22.2610   38.1770 H   0  0  0  0  0  0  0  0  0  0  0  0
   39.6890   23.0250   36.4260 O   0  0  0  0  0  0  0  0  0  0  0  0
   35.7500   23.0560   31.4820 C   0  0  0  0  0  0  0  0  0  0  0  0
   35.2140   23.2480   30.5180 H   0  0  0  0  0  0  0  0  0  0  0  0
   35.1090   23.5720   32.2490 H   0  0  0  0  0  0  0  0  0  0  0  0
   35.4340   19.8150   33.2560 C   0  0  0  0  0  0  0  0  0  0  0  0
   35.7220   18.8790   32.2660 C   0  0  0  0  0  0  0  0  0  0  0  0
   36.0240   19.3800   30.9950 C   0  0  0  0  0  0  0  0  0  0  0  0
   36.0190   20.7200   30.8000 N   0  0  0  0  0  0  0  0  0  0  0  0
   35.7280   21.5800   31.8090 C   0  0  0  0  0  0  0  0  0  0  0  0
   35.4340   21.1550   33.0380 N   0  0  0  0  0  0  0  0  0  0  0  0
   35.1820   19.5450   34.2920 H   0  0  0  0  0  0  0  0  0  0  0  0
   35.6990   17.8420   32.5240 H   0  0  0  0  0  0  0  0  0  0  0  0
   36.2520   18.6690   30.2100 H   0  0  0  0  0  0  0  0  0  0  0  0
  1  4  1  0  0  0  0
  2  1  1  0  0  0  0
  3  1  1  0  0  0  0
  4  5  2  0  0  0  0
  4  8  1  0  0  0  0
  5  6  1  0  0  0  0
  6  7  1  0  0  0  0
  7 10  1  0  0  0  0
  8  7  2  0  0  0  0
  9  5  1  0  0  0  0
 10 17  1  0  0  0  0
 10 11  2  0  0  0  0
 11 12  1  0  0  0  0
 11 13  1  0  0  0  0
 13 14  1  0  0  0  0
 15 16  1  0  0  0  0
 15 13  2  0  0  0  0
 17 15  1  0  0  0  0
 18  1  1  0  0  0  0
 18 25  1  0  0  0  0
 18 20  1  0  0  0  0
 19 18  1  0  0  0  0
 21 27  1  0  0  0  0
 22 28  1  0  0  0  0
 22 21  2  0  0  0  0
 23 22  1  0  0  0  0
 24 23  2  0  0  0  0
 24 25  1  0  0  0  0
 25 26  2  0  0  0  0
 26 21  1  0  0  0  0
 29 23  1  0  0  0  0
M  END
>  <minimizedAffinity>
-4.75478363

$$$$

 OpenBabel03272506073D

 29 31  0  0  0  0  0  0  0  0999 V2000
   37.0670   23.6660   31.5240 C   0  0  0  0  0  0  0  0  0  0  0  0
   37.8370   22.8870   31.2570 H   0  0  0  0  0  0  0  0  0  0  0  0
   37.1450   24.4180   30.7140 H   0  0  0  0  0  0  0  0  0  0  0  0
   37.4210   24.2890   32.8440 C   0  0  0  0  0  0  0  0  0  0  0  0
   37.3080   25.7390   32.9690 C   0  0  0  0  0  0  0  0  0  0  0  0
   37.8240   25.9660   34.6510 S   0  0  0  0  0  0  0  0  0  0  0  0
   38.1100   24.1380   34.9460 C   0  0  0  0  0  0  0  0  0  0  0  0
   37.8270   23.6350   33.8990 N   0  0  0  0  0  0  0  0  0  0  0  0
   36.9830   26.4150   32.1740 H   0  0  0  0  0  0  0  0  0  0  0  0
   38.6000   23.7200   36.3370 C   0  0  0  0  0  0  0  0  0  0  0  0
   38.0480   24.0300   37.5360 C   0  0  0  0  0  0  0  0  0  0  0  0
   37.1630   24.6280   37.7000 H   0  0  0  0  0  0  0  0  0  0  0  0
   38.9050   23.3890   38.4390 C   0  0  0  0  0  0  0  0  0  0  0  0
   38.7740   23.4160   39.5190 H   0  0  0  0  0  0  0  0  0  0  0  0
   39.8850   22.7610   37.6650 C   0  0  0  0  0  0  0  0  0  0  0  0
   40.6930   22.1790   38.1130 H   0  0  0  0  0  0  0  0  0  0  0  0
   39.6580   22.9900   36.3870 O   0  0  0  0  0  0  0  0  0  0  0  0
   35.7030   23.0900   31.5300 C   0  0  0  0  0  0  0  0  0  0  0  0
   35.1020   23.3220   30.6130 H   0  0  0  0  0  0  0  0  0  0  0  0
   35.0880   23.5230   32.3660 H   0  0  0  0  0  0  0  0  0  0  0  0
   36.2230   19.4470   31.0680 C   0  0  0  0  0  0  0  0  0  0  0  0
   35.8170   18.9090   32.2870 C   0  0  0  0  0  0  0  0  0  0  0  0
   35.3660   19.8140   33.2550 C   0  0  0  0  0  0  0  0  0  0  0  0
   35.3500   21.1350   32.9620 N   0  0  0  0  0  0  0  0  0  0  0  0
   35.7610   21.5950   31.7530 C   0  0  0  0  0  0  0  0  0  0  0  0
   36.1990   20.7770   30.7960 N   0  0  0  0  0  0  0  0  0  0  0  0
   36.5960   18.8400   30.2300 H   0  0  0  0  0  0  0  0  0  0  0  0
   35.8680   17.8500   32.4180 H   0  0  0  0  0  0  0  0  0  0  0  0
   35.0440   19.4150   34.2100 H   0  0  0  0  0  0  0  0  0  0  0  0
  1 18  1  0  0  0  0
  1  4  1  0  0  0  0
  2  1  1  0  0  0  0
  3  1  1  0  0  0  0
  4  5  2  0  0  0  0
  4  8  1  0  0  0  0
  5  6  1  0  0  0  0
  6  7  1  0  0  0  0
  7 10  1  0  0  0  0
  8  7  2  0  0  0  0
  9  5  1  0  0  0  0
 10 17  1  0  0  0  0
 10 11  2  0  0  0  0
 11 12  1  0  0  0  0
 11 13  1  0  0  0  0
 13 14  1  0  0  0  0
 15 16  1  0  0  0  0
 15 13  2  0  0  0  0
 17 15  1  0  0  0  0
 18 25  1  0  0  0  0
 18 20  1  0  0  0  0
 19 18  1  0  0  0  0
 21 22  1  0  0  0  0
 22 28  1  0  0  0  0
 22 23  2  0  0  0  0
 23 29  1  0  0  0  0
 24 23  1  0  0  0  0
 25 24  2  0  0  0  0
 26 21  2  0  0  0  0
 26 25  1  0  0  0  0
 27 21  1  0  0  0  0
M  END
>  <minimizedAffinity>
-4.68973255

$$$$

 OpenBabel03272506073D

 29 31  0  0  0  0  0  0  0  0999 V2000
   38.6420   25.0040   33.7650 C   0  0  0  0  0  0  0  0  0  0  0  0
   39.0130   25.8530   33.1230 H   0  0  0  0  0  0  0  0  0  0  0  0
   39.5480   24.3960   33.9650 H   0  0  0  0  0  0  0  0  0  0  0  0
   37.6370   24.1950   32.9940 C   0  0  0  0  0  0  0  0  0  0  0  0
   36.7860   24.8940   32.0360 C   0  0  0  0  0  0  0  0  0  0  0  0
   35.8120   23.5470   31.4180 S   0  0  0  0  0  0  0  0  0  0  0  0
   36.6560   22.2700   32.4990 C   0  0  0  0  0  0  0  0  0  0  0  0
   37.4590   22.9070   33.1130 N   0  0  0  0  0  0  0  0  0  0  0  0
   36.8220   25.9660   31.8300 H   0  0  0  0  0  0  0  0  0  0  0  0
   36.1780   20.8190   32.3740 C   0  0  0  0  0  0  0  0  0  0  0  0
   35.5720   20.0640   33.3220 C   0  0  0  0  0  0  0  0  0  0  0  0
   35.3260   20.3720   34.3280 H   0  0  0  0  0  0  0  0  0  0  0  0
   35.3680   18.8480   32.6570 C   0  0  0  0  0  0  0  0  0  0  0  0
   34.8950   17.9810   33.1140 H   0  0  0  0  0  0  0  0  0  0  0  0
   35.8850   19.0180   31.3700 C   0  0  0  0  0  0  0  0  0  0  0  0
   35.8600   18.2210   30.6240 H   0  0  0  0  0  0  0  0  0  0  0  0
   36.3690   20.2380   31.2420 O   0  0  0  0  0  0  0  0  0  0  0  0
   38.0900   25.5010   35.0450 C   0  0  0  0  0  0  0  0  0  0  0  0
   36.9760   25.6230   35.0490 H   0  0  0  0  0  0  0  0  0  0  0  0
   38.4700   26.5350   35.2720 H   0  0  0  0  0  0  0  0  0  0  0  0
   38.3320   23.8160   38.3400 C   0  0  0  0  0  0  0  0  0  0  0  0
   39.4060   22.9450   38.1750 C   0  0  0  0  0  0  0  0  0  0  0  0
   40.0350   22.9510   36.9260 C   0  0  0  0  0  0  0  0  0  0  0  0
   39.5760   23.7850   35.9630 N   0  0  0  0  0  0  0  0  0  0  0  0
   38.5220   24.6100   36.1890 C   0  0  0  0  0  0  0  0  0  0  0  0
   37.8880   24.6440   37.3600 N   0  0  0  0  0  0  0  0  0  0  0  0
   37.7580   23.9020   39.2740 H   0  0  0  0  0  0  0  0  0  0  0  0
   39.6910   22.3260   39.0000 H   0  0  0  0  0  0  0  0  0  0  0  0
   40.8740   22.2800   36.7770 H   0  0  0  0  0  0  0  0  0  0  0  0
  1  3  1  0  0  0  0
  1 18  1  0  0  0  0
  2  1  1  0  0  0  0
  4  8  1  0  0  0  0
  4  1  1  0  0  0  0
  5  4  2  0  0  0  0
  6  5  1  0  0  0  0
  6  7  1  0  0  0  0
  7  8  2  0  0  0  0
  9  5  1  0  0  0  0
 10  7  1  0  0  0  0
 10 11  2  0  0  0  0
 11 12  1  0  0  0  0
 13 14  1  0  0  0  0
 13 11  1  0  0  0  0
 15 13  2  0  0  0  0
 16 15  1  0  0  0  0
 17 15  1  0  0  0  0
 17 10  1  0  0  0  0
 18 19  1  0  0  0  0
 18 20  1  0  0  0  0
 18 25  1  0  0  0  0
 21 27  1  0  0  0  0
 22 21  1  0  0  0  0
 22 28  1  0  0  0  0
 23 22  2  0  0  0  0
 24 25  2  0  0  0  0
 24 23  1  0  0  0  0
 25 26  1  0  0  0  0
 26 21  2  0  0  0  0
 29 23  1  0  0  0  0
M  END
>  <minimizedAffinity>
-4.5999999

$$$$

 OpenBabel03272506073D

 29 31  0  0  0  0  0  0  0  0999 V2000
   37.6760   26.2880   33.6520 C   0  0  0  0  0  0  0  0  0  0  0  0
   38.0930   26.0130   32.6410 H   0  0  0  0  0  0  0  0  0  0  0  0
   37.0830   25.4010   33.9530 H   0  0  0  0  0  0  0  0  0  0  0  0
   36.7800   27.4860   33.5160 C   0  0  0  0  0  0  0  0  0  0  0  0
   36.1230   27.7080   32.2310 C   0  0  0  0  0  0  0  0  0  0  0  0
   35.2180   29.1940   32.5760 S   0  0  0  0  0  0  0  0  0  0  0  0
   35.8290   29.3100   34.3440 C   0  0  0  0  0  0  0  0  0  0  0  0
   36.5410   28.3560   34.4600 N   0  0  0  0  0  0  0  0  0  0  0  0
   36.2280   27.0670   31.3530 H   0  0  0  0  0  0  0  0  0  0  0  0
   35.3310   30.4920   35.1820 C   0  0  0  0  0  0  0  0  0  0  0  0
   36.0770   31.3950   35.8640 C   0  0  0  0  0  0  0  0  0  0  0  0
   37.1560   31.4230   35.9220 H   0  0  0  0  0  0  0  0  0  0  0  0
   35.1040   32.2280   36.4300 C   0  0  0  0  0  0  0  0  0  0  0  0
   35.3340   33.0850   37.0600 H   0  0  0  0  0  0  0  0  0  0  0  0
   33.8700   31.7190   36.0170 C   0  0  0  0  0  0  0  0  0  0  0  0
   32.9240   32.1780   36.3130 H   0  0  0  0  0  0  0  0  0  0  0  0
   34.0570   30.6590   35.2560 O   0  0  0  0  0  0  0  0  0  0  0  0
   38.7590   26.5130   34.6350 C   0  0  0  0  0  0  0  0  0  0  0  0
   38.6510   27.4570   35.2290 H   0  0  0  0  0  0  0  0  0  0  0  0
   39.7510   26.6370   34.1180 H   0  0  0  0  0  0  0  0  0  0  0  0
   39.9130   23.3860   36.2600 C   0  0  0  0  0  0  0  0  0  0  0  0
   39.0120   23.2190   37.3090 C   0  0  0  0  0  0  0  0  0  0  0  0
   38.0140   24.1910   37.4410 C   0  0  0  0  0  0  0  0  0  0  0  0
   37.9790   25.2200   36.5620 N   0  0  0  0  0  0  0  0  0  0  0  0
   38.8890   25.3240   35.5600 C   0  0  0  0  0  0  0  0  0  0  0  0
   39.8590   24.4270   35.3900 N   0  0  0  0  0  0  0  0  0  0  0  0
   40.7400   22.6900   36.0530 H   0  0  0  0  0  0  0  0  0  0  0  0
   39.1270   22.3700   37.9480 H   0  0  0  0  0  0  0  0  0  0  0  0
   37.3020   24.0790   38.2510 H   0  0  0  0  0  0  0  0  0  0  0  0
  1  3  1  0  0  0  0
  1 18  1  0  0  0  0
  2  1  1  0  0  0  0
  4  1  1  0  0  0  0
  4  8  1  0  0  0  0
  5  6  1  0  0  0  0
  5  4  2  0  0  0  0
  6  7  1  0  0  0  0
  7  8  2  0  0  0  0
  7 10  1  0  0  0  0
  9  5  1  0  0  0  0
 10 17  1  0  0  0  0
 10 11  2  0  0  0  0
 11 12  1  0  0  0  0
 11 13  1  0  0  0  0
 13 14  1  0  0  0  0
 15 16  1  0  0  0  0
 15 13  2  0  0  0  0
 17 15  1  0  0  0  0
 18 19  1  0  0  0  0
 18 25  1  0  0  0  0
 20 18  1  0  0  0  0
 21 22  1  0  0  0  0
 22 23  2  0  0  0  0
 22 28  1  0  0  0  0
 23 29  1  0  0  0  0
 24 23  1  0  0  0  0
 25 24  2  0  0  0  0
 26 25  1  0  0  0  0
 26 21  2  0  0  0  0
 27 21  1  0  0  0  0
M  END
>  <minimizedAffinity>
-4.53074646

$$$$

 OpenBabel03272506073D

 29 31  0  0  0  0  0  0  0  0999 V2000
   38.1440   22.9190   33.4730 C   0  0  0  0  0  0  0  0  0  0  0  0
   38.5540   22.1320   32.7780 H   0  0  0  0  0  0  0  0  0  0  0  0
   37.5390   22.3480   34.2060 H   0  0  0  0  0  0  0  0  0  0  0  0
   37.2660   23.8610   32.7000 C   0  0  0  0  0  0  0  0  0  0  0  0
   36.2650   23.2870   31.8060 C   0  0  0  0  0  0  0  0  0  0  0  0
   35.5220   24.7600   31.1530 S   0  0  0  0  0  0  0  0  0  0  0  0
   36.6250   25.9090   32.1400 C   0  0  0  0  0  0  0  0  0  0  0  0
   37.3260   25.1650   32.7600 N   0  0  0  0  0  0  0  0  0  0  0  0
   36.0990   22.2180   31.6530 H   0  0  0  0  0  0  0  0  0  0  0  0
   36.4120   27.4150   31.9560 C   0  0  0  0  0  0  0  0  0  0  0  0
   36.2680   28.3540   32.9230 C   0  0  0  0  0  0  0  0  0  0  0  0
   36.2830   28.1840   33.9900 H   0  0  0  0  0  0  0  0  0  0  0  0
   36.1070   29.5310   32.1810 C   0  0  0  0  0  0  0  0  0  0  0  0
   35.9620   30.5120   32.6290 H   0  0  0  0  0  0  0  0  0  0  0  0
   36.1740   29.1550   30.8370 C   0  0  0  0  0  0  0  0  0  0  0  0
   36.0790   29.8800   30.0260 H   0  0  0  0  0  0  0  0  0  0  0  0
   36.3610   27.8530   30.7470 O   0  0  0  0  0  0  0  0  0  0  0  0
   39.2340   23.6290   34.1800 C   0  0  0  0  0  0  0  0  0  0  0  0
   39.3750   24.6920   33.8550 H   0  0  0  0  0  0  0  0  0  0  0  0
   40.2300   23.1530   33.9640 H   0  0  0  0  0  0  0  0  0  0  0  0
   37.8290   24.0030   37.5910 C   0  0  0  0  0  0  0  0  0  0  0  0
   38.7700   23.3660   38.3960 C   0  0  0  0  0  0  0  0  0  0  0  0
   39.8810   22.8150   37.7490 C   0  0  0  0  0  0  0  0  0  0  0  0
   39.9800   22.9270   36.4030 N   0  0  0  0  0  0  0  0  0  0  0  0
   39.0260   23.5610   35.6760 C   0  0  0  0  0  0  0  0  0  0  0  0
   37.9480   24.1030   36.2430 N   0  0  0  0  0  0  0  0  0  0  0  0
   36.9150   24.4740   37.9820 H   0  0  0  0  0  0  0  0  0  0  0  0
   38.5990   23.3320   39.4510 H   0  0  0  0  0  0  0  0  0  0  0  0
   40.6270   22.3150   38.3570 H   0  0  0  0  0  0  0  0  0  0  0  0
  1 18  1  0  0  0  0
  1  3  1  0  0  0  0
  2  1  1  0  0  0  0
  4  8  1  0  0  0  0
  4  1  1  0  0  0  0
  5  4  2  0  0  0  0
  6  5  1  0  0  0  0
  6  7  1  0  0  0  0
  7  8  2  0  0  0  0
  9  5  1  0  0  0  0
 10  7  1  0  0  0  0
 10 11  2  0  0  0  0
 11 12  1  0  0  0  0
 13 14  1  0  0  0  0
 13 11  1  0  0  0  0
 15 13  2  0  0  0  0
 16 15  1  0  0  0  0
 17 15  1  0  0  0  0
 17 10  1  0  0  0  0
 18 25  1  0  0  0  0
 19 18  1  0  0  0  0
 20 18  1  0  0  0  0
 21 27  1  0  0  0  0
 21 22  1  0  0  0  0
 22 28  1  0  0  0  0
 23 29  1  0  0  0  0
 23 22  2  0  0  0  0
 24 23  1  0  0  0  0
 25 26  1  0  0  0  0
 25 24  2  0  0  0  0
 26 21  2  0  0  0  0
M  END
>  <minimizedAffinity>
-4.47906303

$$$$

 OpenBabel03272506073D

 29 31  0  0  0  0  0  0  0  0999 V2000
   35.9770   29.2810   33.0620 C   0  0  0  0  0  0  0  0  0  0  0  0
   35.9580   29.6470   31.9970 H   0  0  0  0  0  0  0  0  0  0  0  0
   36.6220   30.0120   33.5910 H   0  0  0  0  0  0  0  0  0  0  0  0
   36.5970   27.9140   33.1110 C   0  0  0  0  0  0  0  0  0  0  0  0
   36.9000   27.2540   31.8460 C   0  0  0  0  0  0  0  0  0  0  0  0
   37.5870   25.7250   32.4270 S   0  0  0  0  0  0  0  0  0  0  0  0
   37.3780   26.1700   34.2360 C   0  0  0  0  0  0  0  0  0  0  0  0
   36.8870   27.2590   34.2040 N   0  0  0  0  0  0  0  0  0  0  0  0
   36.7140   27.6770   30.8560 H   0  0  0  0  0  0  0  0  0  0  0  0
   37.8390   25.1360   35.2690 C   0  0  0  0  0  0  0  0  0  0  0  0
   38.1530   25.3510   36.5700 C   0  0  0  0  0  0  0  0  0  0  0  0
   38.1260   26.2990   37.0890 H   0  0  0  0  0  0  0  0  0  0  0  0
   38.4970   24.0690   37.0160 C   0  0  0  0  0  0  0  0  0  0  0  0
   38.8110   23.8470   38.0330 H   0  0  0  0  0  0  0  0  0  0  0  0
   38.3480   23.2230   35.9130 C   0  0  0  0  0  0  0  0  0  0  0  0
   38.5500   22.1510   35.9730 H   0  0  0  0  0  0  0  0  0  0  0  0
   37.9430   23.9180   34.8690 O   0  0  0  0  0  0  0  0  0  0  0  0
   34.6220   29.2990   33.6590 C   0  0  0  0  0  0  0  0  0  0  0  0
   34.2540   28.2940   33.9910 H   0  0  0  0  0  0  0  0  0  0  0  0
   33.8550   29.6250   32.9040 H   0  0  0  0  0  0  0  0  0  0  0  0
   33.4380   31.4190   36.4610 C   0  0  0  0  0  0  0  0  0  0  0  0
   34.5900   32.0900   36.8630 C   0  0  0  0  0  0  0  0  0  0  0  0
   35.7640   31.8020   36.1590 C   0  0  0  0  0  0  0  0  0  0  0  0
   35.7180   30.9050   35.1460 N   0  0  0  0  0  0  0  0  0  0  0  0
   34.5610   30.2840   34.8040 C   0  0  0  0  0  0  0  0  0  0  0  0
   33.4150   30.5220   35.4420 N   0  0  0  0  0  0  0  0  0  0  0  0
   32.4550   31.5600   36.9360 H   0  0  0  0  0  0  0  0  0  0  0  0
   34.5180   32.7810   37.6760 H   0  0  0  0  0  0  0  0  0  0  0  0
   36.6720   32.3150   36.4550 H   0  0  0  0  0  0  0  0  0  0  0  0
  1  4  1  0  0  0  0
  1  3  1  0  0  0  0
  1 18  1  0  0  0  0
  2  1  1  0  0  0  0
  4  8  1  0  0  0  0
  5  6  1  0  0  0  0
  5  4  2  0  0  0  0
  6  7  1  0  0  0  0
  7 10  1  0  0  0  0
  8  7  2  0  0  0  0
  9  5  1  0  0  0  0
 10 11  2  0  0  0  0
 11 13  1  0  0  0  0
 11 12  1  0  0  0  0
 13 14  1  0  0  0  0
 15 16  1  0  0  0  0
 15 13  2  0  0  0  0
 17 10  1  0  0  0  0
 17 15  1  0  0  0  0
 18 19  1  0  0  0  0
 18 25  1  0  0  0  0
 20 18  1  0  0  0  0
 21 22  1  0  0  0  0
 21 27  1  0  0  0  0
 22 28  1  0  0  0  0
 23 29  1  0  0  0  0
 23 22  2  0  0  0  0
 24 23  1  0  0  0  0
 25 24  2  0  0  0  0
 25 26  1  0  0  0  0
 26 21  2  0  0  0  0
M  END
>  <minimizedAffinity>
-4.36056089

$$$$

 OpenBabel03272506073D

 29 31  0  0  0  0  0  0  0  0999 V2000
   36.1100   28.8880   34.3800 C   0  0  0  0  0  0  0  0  0  0  0  0
   36.9050   29.6770   34.5090 H   0  0  0  0  0  0  0  0  0  0  0  0
   35.5130   28.9460   35.3120 H   0  0  0  0  0  0  0  0  0  0  0  0
   36.7590   27.5380   34.2650 C   0  0  0  0  0  0  0  0  0  0  0  0
   36.9190   26.9670   32.9320 C   0  0  0  0  0  0  0  0  0  0  0  0
   37.7030   25.4250   33.3260 S   0  0  0  0  0  0  0  0  0  0  0  0
   37.7080   25.7510   35.1710 C   0  0  0  0  0  0  0  0  0  0  0  0
   37.1940   26.8260   35.2700 N   0  0  0  0  0  0  0  0  0  0  0  0
   36.6050   27.4450   32.0010 H   0  0  0  0  0  0  0  0  0  0  0  0
   38.3110   24.6680   36.0730 C   0  0  0  0  0  0  0  0  0  0  0  0
   39.3680   23.8630   35.8040 C   0  0  0  0  0  0  0  0  0  0  0  0
   39.9590   23.8600   34.8990 H   0  0  0  0  0  0  0  0  0  0  0  0
   39.4650   23.0900   36.9670 C   0  0  0  0  0  0  0  0  0  0  0  0
   40.2150   22.3160   37.1180 H   0  0  0  0  0  0  0  0  0  0  0  0
   38.4390   23.5270   37.8100 C   0  0  0  0  0  0  0  0  0  0  0  0
   38.2750   23.0940   38.7990 H   0  0  0  0  0  0  0  0  0  0  0  0
   37.7600   24.4930   37.2220 O   0  0  0  0  0  0  0  0  0  0  0  0
   35.2420   29.1870   33.2190 C   0  0  0  0  0  0  0  0  0  0  0  0
   35.3010   28.4310   32.3940 H   0  0  0  0  0  0  0  0  0  0  0  0
   35.5540   30.1470   32.7210 H   0  0  0  0  0  0  0  0  0  0  0  0
   31.5350   29.2270   33.3280 C   0  0  0  0  0  0  0  0  0  0  0  0
   31.2580   29.7400   34.5930 C   0  0  0  0  0  0  0  0  0  0  0  0
   32.3580   30.0670   35.3940 C   0  0  0  0  0  0  0  0  0  0  0  0
   33.6060   29.8720   34.9070 N   0  0  0  0  0  0  0  0  0  0  0  0
   33.8080   29.3670   33.6630 C   0  0  0  0  0  0  0  0  0  0  0  0
   32.7960   29.0380   32.8600 N   0  0  0  0  0  0  0  0  0  0  0  0
   30.7580   28.9330   32.6080 H   0  0  0  0  0  0  0  0  0  0  0  0
   30.2360   29.8560   34.8820 H   0  0  0  0  0  0  0  0  0  0  0  0
   32.1640   30.4690   36.3820 H   0  0  0  0  0  0  0  0  0  0  0  0
  1  2  1  0  0  0  0
  1  3  1  0  0  0  0
  4  1  1  0  0  0  0
  4  8  1  0  0  0  0
  5  6  1  0  0  0  0
  5  4  2  0  0  0  0
  6  7  1  0  0  0  0
  7  8  2  0  0  0  0
  7 10  1  0  0  0  0
  9  5  1  0  0  0  0
 10 17  1  0  0  0  0
 11 10  2  0  0  0  0
 11 13  1  0  0  0  0
 12 11  1  0  0  0  0
 13 14  1  0  0  0  0
 13 15  2  0  0  0  0
 15 16  1  0  0  0  0
 17 15  1  0  0  0  0
 18 25  1  0  0  0  0
 18  1  1  0  0  0  0
 19 18  1  0  0  0  0
 20 18  1  0  0  0  0
 21 22  1  0  0  0  0
 22 28  1  0  0  0  0
 22 23  2  0  0  0  0
 23 29  1  0  0  0  0
 24 23  1  0  0  0  0
 25 24  2  0  0  0  0
 26 21  2  0  0  0  0
 26 25  1  0  0  0  0
 27 21  1  0  0  0  0
M  END
>  <minimizedAffinity>
-4.3375473

$$$$

 OpenBabel03272506073D

 29 31  0  0  0  0  0  0  0  0999 V2000
   36.7240   27.1910   32.9270 C   0  0  0  0  0  0  0  0  0  0  0  0
   37.3250   28.1260   33.1100 H   0  0  0  0  0  0  0  0  0  0  0  0
   35.7940   27.3450   33.5110 H   0  0  0  0  0  0  0  0  0  0  0  0
   37.4740   26.0010   33.4540 C   0  0  0  0  0  0  0  0  0  0  0  0
   38.0950   25.1000   32.4870 C   0  0  0  0  0  0  0  0  0  0  0  0
   38.8250   23.9030   33.5740 S   0  0  0  0  0  0  0  0  0  0  0  0
   38.2140   24.7510   35.1290 C   0  0  0  0  0  0  0  0  0  0  0  0
   37.6170   25.7010   34.7170 N   0  0  0  0  0  0  0  0  0  0  0  0
   38.0600   25.2220   31.4020 H   0  0  0  0  0  0  0  0  0  0  0  0
   38.5770   24.1030   36.4700 C   0  0  0  0  0  0  0  0  0  0  0  0
   37.9860   24.3060   37.6730 C   0  0  0  0  0  0  0  0  0  0  0  0
   37.1540   24.9650   37.8770 H   0  0  0  0  0  0  0  0  0  0  0  0
   38.7210   23.4650   38.5180 C   0  0  0  0  0  0  0  0  0  0  0  0
   38.5280   23.3610   39.5840 H   0  0  0  0  0  0  0  0  0  0  0  0
   39.6810   22.8480   37.7110 C   0  0  0  0  0  0  0  0  0  0  0  0
   40.4000   22.1300   38.1110 H   0  0  0  0  0  0  0  0  0  0  0  0
   39.5550   23.2680   36.4680 O   0  0  0  0  0  0  0  0  0  0  0  0
   36.3850   27.0430   31.4930 C   0  0  0  0  0  0  0  0  0  0  0  0
   35.3360   26.6970   31.3030 H   0  0  0  0  0  0  0  0  0  0  0  0
   37.0170   26.2480   31.0110 H   0  0  0  0  0  0  0  0  0  0  0  0
   36.5400   30.6200   30.5280 C   0  0  0  0  0  0  0  0  0  0  0  0
   37.2050   30.5920   29.3050 C   0  0  0  0  0  0  0  0  0  0  0  0
   37.5920   29.3360   28.8270 C   0  0  0  0  0  0  0  0  0  0  0  0
   37.3050   28.2360   29.5640 N   0  0  0  0  0  0  0  0  0  0  0  0
   36.6540   28.3320   30.7510 C   0  0  0  0  0  0  0  0  0  0  0  0
   36.2640   29.5050   31.2510 N   0  0  0  0  0  0  0  0  0  0  0  0
   36.1870   31.5450   31.0070 H   0  0  0  0  0  0  0  0  0  0  0  0
   37.3830   31.5190   28.8010 H   0  0  0  0  0  0  0  0  0  0  0  0
   38.1100   29.2920   27.8760 H   0  0  0  0  0  0  0  0  0  0  0  0
  1  2  1  0  0  0  0
  1  4  1  0  0  0  0
  1  3  1  0  0  0  0
  4  8  1  0  0  0  0
  5  4  2  0  0  0  0
  5  6  1  0  0  0  0
  6  7  1  0  0  0  0
  7 10  1  0  0  0  0
  8  7  2  0  0  0  0
  9  5  1  0  0  0  0
 10 11  2  0  0  0  0
 11 12  1  0  0  0  0
 11 13  1  0  0  0  0
 13 14  1  0  0  0  0
 15 16  1  0  0  0  0
 15 13  2  0  0  0  0
 17 10  1  0  0  0  0
 17 15  1  0  0  0  0
 18  1  1  0  0  0  0
 19 18  1  0  0  0  0
 20 18  1  0  0  0  0
 21 27  1  0  0  0  0
 21 26  1  0  0  0  0
 22 21  2  0  0  0  0
 23 22  1  0  0  0  0
 23 24  2  0  0  0  0
 24 25  1  0  0  0  0
 25 26  2  0  0  0  0
 25 18  1  0  0  0  0
 28 22  1  0  0  0  0
 29 23  1  0  0  0  0
M  END
>  <minimizedAffinity>
-4.32638884

$$$$

 OpenBabel03272506073D

 29 31  0  0  0  0  0  0  0  0999 V2000
   41.1030   25.2020   33.9540 C   0  0  0  0  0  0  0  0  0  0  0  0
   40.7390   25.2360   32.8880 H   0  0  0  0  0  0  0  0  0  0  0  0
   42.1850   24.9760   33.8660 H   0  0  0  0  0  0  0  0  0  0  0  0
   40.4010   24.0950   34.6880 C   0  0  0  0  0  0  0  0  0  0  0  0
   41.0410   23.5520   35.8830 C   0  0  0  0  0  0  0  0  0  0  0  0
   39.8600   22.3170   36.3560 S   0  0  0  0  0  0  0  0  0  0  0  0
   38.7050   22.6880   34.9280 C   0  0  0  0  0  0  0  0  0  0  0  0
   39.2560   23.5710   34.3410 N   0  0  0  0  0  0  0  0  0  0  0  0
   41.9960   23.8900   36.2920 H   0  0  0  0  0  0  0  0  0  0  0  0
   37.4210   21.8560   34.8300 C   0  0  0  0  0  0  0  0  0  0  0  0
   36.8440   21.3560   33.7100 C   0  0  0  0  0  0  0  0  0  0  0  0
   37.2040   21.4680   32.6970 H   0  0  0  0  0  0  0  0  0  0  0  0
   35.7190   20.6950   34.2180 C   0  0  0  0  0  0  0  0  0  0  0  0
   34.9990   20.1630   33.5980 H   0  0  0  0  0  0  0  0  0  0  0  0
   35.7530   20.8790   35.6030 C   0  0  0  0  0  0  0  0  0  0  0  0
   34.9880   20.4650   36.2620 H   0  0  0  0  0  0  0  0  0  0  0  0
   36.8110   21.5930   35.9320 O   0  0  0  0  0  0  0  0  0  0  0  0
   40.9260   26.5110   34.6230 C   0  0  0  0  0  0  0  0  0  0  0  0
   41.6300   27.3070   34.2680 H   0  0  0  0  0  0  0  0  0  0  0  0
   41.1480   26.4330   35.7230 H   0  0  0  0  0  0  0  0  0  0  0  0
   37.5000   27.7150   35.3760 C   0  0  0  0  0  0  0  0  0  0  0  0
   36.9160   27.8230   34.1160 C   0  0  0  0  0  0  0  0  0  0  0  0
   37.7130   27.4770   33.0210 C   0  0  0  0  0  0  0  0  0  0  0  0
   38.9850   27.0650   33.2380 N   0  0  0  0  0  0  0  0  0  0  0  0
   39.4950   26.9820   34.4930 C   0  0  0  0  0  0  0  0  0  0  0  0
   38.7780   27.3000   35.5710 N   0  0  0  0  0  0  0  0  0  0  0  0
   36.9770   27.9580   36.3120 H   0  0  0  0  0  0  0  0  0  0  0  0
   35.9030   28.1590   34.0530 H   0  0  0  0  0  0  0  0  0  0  0  0
   37.2770   27.5530   32.0310 H   0  0  0  0  0  0  0  0  0  0  0  0
  1 18  1  0  0  0  0
  1  4  1  0  0  0  0
  2  1  1  0  0  0  0
  3  1  1  0  0  0  0
  4  5  2  0  0  0  0
  5  9  1  0  0  0  0
  5  6  1  0  0  0  0
  7  6  1  0  0  0  0
  8  4  1  0  0  0  0
  8  7  2  0  0  0  0
 10  7  1  0  0  0  0
 10 17  1  0  0  0  0
 11 13  1  0  0  0  0
 11 10  2  0  0  0  0
 12 11  1  0  0  0  0
 13 15  2  0  0  0  0
 14 13  1  0  0  0  0
 15 17  1  0  0  0  0
 15 16  1  0  0  0  0
 18 20  1  0  0  0  0
 19 18  1  0  0  0  0
 21 26  1  0  0  0  0
 21 27  1  0  0  0  0
 22 21  2  0  0  0  0
 23 24  2  0  0  0  0
 23 22  1  0  0  0  0
 24 25  1  0  0  0  0
 25 18  1  0  0  0  0
 25 26  2  0  0  0  0
 28 22  1  0  0  0  0
 29 23  1  0  0  0  0
M  END
>  <minimizedAffinity>
-4.31035519

$$$$
