
 OpenBabel03262522533D

 32 35  0  0  0  0  0  0  0  0999 V2000
   38.6170   24.7330   34.9630 C   0  0  0  0  0  0  0  0  0  0  0  0
   38.1070   24.5550   33.7460 C   0  0  0  0  0  0  0  0  0  0  0  0
   37.4030   25.5830   33.1550 C   0  0  0  0  0  0  0  0  0  0  0  0
   37.2830   26.7260   33.8840 C   0  0  0  0  0  0  0  0  0  0  0  0
   38.1800   26.3300   35.4160 S   0  0  0  0  0  0  0  0  0  0  0  0
   38.2540   23.5900   33.2280 H   0  0  0  0  0  0  0  0  0  0  0  0
   36.9480   25.5350   32.1670 H   0  0  0  0  0  0  0  0  0  0  0  0
   39.7110   22.8210   37.8680 C   0  0  0  0  0  0  0  0  0  0  0  0
   40.8040   22.0830   37.3780 C   0  0  0  0  0  0  0  0  0  0  0  0
   41.1650   22.2510   36.0220 C   0  0  0  0  0  0  0  0  0  0  0  0
   40.4350   23.1210   35.2620 N   0  0  0  0  0  0  0  0  0  0  0  0
   39.3980   23.7980   35.7930 C   0  0  0  0  0  0  0  0  0  0  0  0
   39.0150   23.6750   37.0720 N   0  0  0  0  0  0  0  0  0  0  0  0
   39.4460   22.6870   38.8920 H   0  0  0  0  0  0  0  0  0  0  0  0
   41.3620   21.4030   38.0050 H   0  0  0  0  0  0  0  0  0  0  0  0
   41.9920   21.7030   35.6210 H   0  0  0  0  0  0  0  0  0  0  0  0
   36.6030   27.9760   33.5320 C   0  0  0  0  0  0  0  0  0  0  0  0
   36.4450   28.2980   32.2180 C   0  0  0  0  0  0  0  0  0  0  0  0
   35.7980   29.4840   31.9460 C   0  0  0  0  0  0  0  0  0  0  0  0
   35.3360   30.3000   32.9240 N   0  0  0  0  0  0  0  0  0  0  0  0
   35.5480   29.8820   34.1950 C   0  0  0  0  0  0  0  0  0  0  0  0
   36.1710   28.7370   34.5430 N   0  0  0  0  0  0  0  0  0  0  0  0
   36.8060   27.6600   31.4220 H   0  0  0  0  0  0  0  0  0  0  0  0
   35.6550   29.7710   30.9140 H   0  0  0  0  0  0  0  0  0  0  0  0
   35.0380   30.7850   35.2280 C   0  0  0  0  0  0  0  0  0  0  0  0
   35.8300   31.6200   35.9880 C   0  0  0  0  0  0  0  0  0  0  0  0
   36.8880   31.7590   35.9740 H   0  0  0  0  0  0  0  0  0  0  0  0
   34.9850   32.3030   36.8400 C   0  0  0  0  0  0  0  0  0  0  0  0
   35.1430   33.0380   37.5920 H   0  0  0  0  0  0  0  0  0  0  0  0
   33.7020   31.8590   36.5680 C   0  0  0  0  0  0  0  0  0  0  0  0
   32.7440   32.1440   37.0160 H   0  0  0  0  0  0  0  0  0  0  0  0
   33.8000   30.9670   35.6100 O   0  0  0  0  0  0  0  0  0  0  0  0
  1  5  1  0  0  0  0
  1 12  1  0  0  0  0
  2  1  2  0  0  0  0
  3  2  1  0  0  0  0
  3  4  2  0  0  0  0
  4  5  1  0  0  0  0
  6  2  1  0  0  0  0
  7  3  1  0  0  0  0
  8 14  1  0  0  0  0
  9  8  1  0  0  0  0
  9 15  1  0  0  0  0
 10  9  2  0  0  0  0
 11 12  2  0  0  0  0
 11 10  1  0  0  0  0
 12 13  1  0  0  0  0
 13  8  2  0  0  0  0
 16 10  1  0  0  0  0
 17  4  1  0  0  0  0
 17 22  1  0  0  0  0
 18 17  2  0  0  0  0
 19 18  1  0  0  0  0
 19 20  2  0  0  0  0
 20 21  1  0  0  0  0
 21 22  2  0  0  0  0
 21 25  1  0  0  0  0
 23 18  1  0  0  0  0
 24 19  1  0  0  0  0
 25 32  1  0  0  0  0
 25 26  2  0  0  0  0
 26 28  1  0  0  0  0
 27 26  1  0  0  0  0
 28 29  1  0  0  0  0
 30 28  2  0  0  0  0
 30 31  1  0  0  0  0
 32 30  1  0  0  0  0
M  END
>  <minimizedAffinity>
-5.66084814

$$$$

 OpenBabel03262522533D

 32 35  0  0  0  0  0  0  0  0999 V2000
   37.0520   27.0520   33.1880 C   0  0  0  0  0  0  0  0  0  0  0  0
   37.5560   25.9180   32.7070 C   0  0  0  0  0  0  0  0  0  0  0  0
   38.0560   24.9800   33.5850 C   0  0  0  0  0  0  0  0  0  0  0  0
   37.9920   25.2980   34.9070 C   0  0  0  0  0  0  0  0  0  0  0  0
   37.2130   26.9420   34.8930 S   0  0  0  0  0  0  0  0  0  0  0  0
   37.5680   25.7450   31.6160 H   0  0  0  0  0  0  0  0  0  0  0  0
   38.4900   24.0250   33.2910 H   0  0  0  0  0  0  0  0  0  0  0  0
   36.5270   29.5610   30.5960 C   0  0  0  0  0  0  0  0  0  0  0  0
   35.4240   30.2940   31.0720 C   0  0  0  0  0  0  0  0  0  0  0  0
   34.8560   29.9120   32.3080 C   0  0  0  0  0  0  0  0  0  0  0  0
   35.4080   28.8540   32.9730 N   0  0  0  0  0  0  0  0  0  0  0  0
   36.4650   28.1930   32.4620 C   0  0  0  0  0  0  0  0  0  0  0  0
   37.0410   28.5160   31.2940 N   0  0  0  0  0  0  0  0  0  0  0  0
   36.9480   29.8580   29.6620 H   0  0  0  0  0  0  0  0  0  0  0  0
   35.0100   31.1270   30.5220 H   0  0  0  0  0  0  0  0  0  0  0  0
   34.0160   30.4510   32.6960 H   0  0  0  0  0  0  0  0  0  0  0  0
   38.4340   24.5170   36.0650 C   0  0  0  0  0  0  0  0  0  0  0  0
   37.6980   24.5500   37.2090 C   0  0  0  0  0  0  0  0  0  0  0  0
   38.1620   23.7950   38.2650 C   0  0  0  0  0  0  0  0  0  0  0  0
   39.2910   23.0510   38.1850 N   0  0  0  0  0  0  0  0  0  0  0  0
   39.9450   23.0910   36.9990 C   0  0  0  0  0  0  0  0  0  0  0  0
   39.5580   23.8040   35.9220 N   0  0  0  0  0  0  0  0  0  0  0  0
   36.7930   25.1370   37.2940 H   0  0  0  0  0  0  0  0  0  0  0  0
   37.6020   23.7980   39.1890 H   0  0  0  0  0  0  0  0  0  0  0  0
   41.1610   22.2780   36.9440 C   0  0  0  0  0  0  0  0  0  0  0  0
   42.2820   22.6080   36.2110 C   0  0  0  0  0  0  0  0  0  0  0  0
   42.4680   23.4540   35.5890 H   0  0  0  0  0  0  0  0  0  0  0  0
   43.2030   21.6000   36.4190 C   0  0  0  0  0  0  0  0  0  0  0  0
   44.1910   21.4290   36.0650 H   0  0  0  0  0  0  0  0  0  0  0  0
   42.6090   20.6880   37.2740 C   0  0  0  0  0  0  0  0  0  0  0  0
   42.9940   19.7500   37.6880 H   0  0  0  0  0  0  0  0  0  0  0  0
   41.4080   21.1440   37.5480 O   0  0  0  0  0  0  0  0  0  0  0  0
  1  5  1  0  0  0  0
  2  1  2  0  0  0  0
  2  3  1  0  0  0  0
  3  4  2  0  0  0  0
  4 17  1  0  0  0  0
  5  4  1  0  0  0  0
  6  2  1  0  0  0  0
  7  3  1  0  0  0  0
  8  9  2  0  0  0  0
  8 13  1  0  0  0  0
  9 10  1  0  0  0  0
 10 16  1  0  0  0  0
 10 11  2  0  0  0  0
 12 11  1  0  0  0  0
 12  1  1  0  0  0  0
 13 12  2  0  0  0  0
 14  8  1  0  0  0  0
 15  9  1  0  0  0  0
 17 18  1  0  0  0  0
 18 23  1  0  0  0  0
 18 19  2  0  0  0  0
 19 24  1  0  0  0  0
 20 19  1  0  0  0  0
 21 20  2  0  0  0  0
 22 17  2  0  0  0  0
 22 21  1  0  0  0  0
 25 21  1  0  0  0  0
 25 32  1  0  0  0  0
 26 28  1  0  0  0  0
 26 25  2  0  0  0  0
 27 26  1  0  0  0  0
 28 30  2  0  0  0  0
 29 28  1  0  0  0  0
 30 32  1  0  0  0  0
 30 31  1  0  0  0  0
M  END
>  <minimizedAffinity>
-5.48409796

$$$$

 OpenBabel03262522533D

 32 35  0  0  0  0  0  0  0  0999 V2000
   36.6630   24.0980   31.9720 C   0  0  0  0  0  0  0  0  0  0  0  0
   37.4920   24.6630   32.8470 C   0  0  0  0  0  0  0  0  0  0  0  0
   37.4330   26.0260   33.0430 C   0  0  0  0  0  0  0  0  0  0  0  0
   36.5080   26.7010   32.3070 C   0  0  0  0  0  0  0  0  0  0  0  0
   35.7210   25.3820   31.3320 S   0  0  0  0  0  0  0  0  0  0  0  0
   38.2120   24.0350   33.4010 H   0  0  0  0  0  0  0  0  0  0  0  0
   38.0660   26.5810   33.7340 H   0  0  0  0  0  0  0  0  0  0  0  0
   35.2220   20.7730   31.5750 C   0  0  0  0  0  0  0  0  0  0  0  0
   36.2360   20.0560   30.9140 C   0  0  0  0  0  0  0  0  0  0  0  0
   37.4350   20.7350   30.6010 C   0  0  0  0  0  0  0  0  0  0  0  0
   37.5440   22.0500   30.9590 N   0  0  0  0  0  0  0  0  0  0  0  0
   36.5350   22.6790   31.5910 C   0  0  0  0  0  0  0  0  0  0  0  0
   35.3780   22.0800   31.9100 N   0  0  0  0  0  0  0  0  0  0  0  0
   34.3210   20.2510   31.8060 H   0  0  0  0  0  0  0  0  0  0  0  0
   36.1190   19.0160   30.6440 H   0  0  0  0  0  0  0  0  0  0  0  0
   38.2240   20.2170   30.0980 H   0  0  0  0  0  0  0  0  0  0  0  0
   36.2090   28.1360   32.2950 C   0  0  0  0  0  0  0  0  0  0  0  0
   36.3360   28.8310   31.1310 C   0  0  0  0  0  0  0  0  0  0  0  0
   36.0410   30.1770   31.1790 C   0  0  0  0  0  0  0  0  0  0  0  0
   35.6430   30.7920   32.3180 N   0  0  0  0  0  0  0  0  0  0  0  0
   35.5500   30.0050   33.4170 C   0  0  0  0  0  0  0  0  0  0  0  0
   35.8210   28.6840   33.4520 N   0  0  0  0  0  0  0  0  0  0  0  0
   36.6520   28.3590   30.2100 H   0  0  0  0  0  0  0  0  0  0  0  0
   36.1310   30.7590   30.2740 H   0  0  0  0  0  0  0  0  0  0  0  0
   35.1180   30.6990   34.6310 C   0  0  0  0  0  0  0  0  0  0  0  0
   35.9800   31.2330   35.5670 C   0  0  0  0  0  0  0  0  0  0  0  0
   37.0460   31.2430   35.5890 H   0  0  0  0  0  0  0  0  0  0  0  0
   35.1950   31.7980   36.5530 C   0  0  0  0  0  0  0  0  0  0  0  0
   35.4150   32.3130   37.4560 H   0  0  0  0  0  0  0  0  0  0  0  0
   33.8780   31.5870   36.1820 C   0  0  0  0  0  0  0  0  0  0  0  0
   32.9460   31.8740   36.6820 H   0  0  0  0  0  0  0  0  0  0  0  0
   33.8990   30.9360   35.0420 O   0  0  0  0  0  0  0  0  0  0  0  0
  1  2  2  0  0  0  0
  2  3  1  0  0  0  0
  2  6  1  0  0  0  0
  3  7  1  0  0  0  0
  4  3  2  0  0  0  0
  5  1  1  0  0  0  0
  5  4  1  0  0  0  0
  8 14  1  0  0  0  0
  8 13  1  0  0  0  0
  9  8  2  0  0  0  0
 10  9  1  0  0  0  0
 10 11  2  0  0  0  0
 11 12  1  0  0  0  0
 12 13  2  0  0  0  0
 12  1  1  0  0  0  0
 15  9  1  0  0  0  0
 16 10  1  0  0  0  0
 17  4  1  0  0  0  0
 17 22  1  0  0  0  0
 18 19  1  0  0  0  0
 18 17  2  0  0  0  0
 19 20  2  0  0  0  0
 20 21  1  0  0  0  0
 21 22  2  0  0  0  0
 21 25  1  0  0  0  0
 23 18  1  0  0  0  0
 24 19  1  0  0  0  0
 25 32  1  0  0  0  0
 25 26  2  0  0  0  0
 26 27  1  0  0  0  0
 26 28  1  0  0  0  0
 28 29  1  0  0  0  0
 30 28  2  0  0  0  0
 30 31  1  0  0  0  0
 32 30  1  0  0  0  0
M  END
>  <minimizedAffinity>
-5.33822966

$$$$

 OpenBabel03262522533D

 32 35  0  0  0  0  0  0  0  0999 V2000
   35.4720   29.8920   33.9330 C   0  0  0  0  0  0  0  0  0  0  0  0
   35.5690   30.2310   32.6490 C   0  0  0  0  0  0  0  0  0  0  0  0
   36.2120   29.3800   31.7760 C   0  0  0  0  0  0  0  0  0  0  0  0
   36.7080   28.2310   32.3120 C   0  0  0  0  0  0  0  0  0  0  0  0
   36.2530   28.3690   34.0680 S   0  0  0  0  0  0  0  0  0  0  0  0
   35.1360   31.1870   32.3030 H   0  0  0  0  0  0  0  0  0  0  0  0
   36.3430   29.5670   30.7120 H   0  0  0  0  0  0  0  0  0  0  0  0
   35.0890   32.1440   36.7740 C   0  0  0  0  0  0  0  0  0  0  0  0
   33.7310   32.0070   37.1160 C   0  0  0  0  0  0  0  0  0  0  0  0
   32.9390   31.1230   36.3510 C   0  0  0  0  0  0  0  0  0  0  0  0
   33.5340   30.4480   35.3210 N   0  0  0  0  0  0  0  0  0  0  0  0
   34.8410   30.6240   35.0460 C   0  0  0  0  0  0  0  0  0  0  0  0
   35.6350   31.4510   35.7410 N   0  0  0  0  0  0  0  0  0  0  0  0
   35.6780   32.8150   37.3580 H   0  0  0  0  0  0  0  0  0  0  0  0
   33.2890   32.5550   37.9360 H   0  0  0  0  0  0  0  0  0  0  0  0
   31.9020   30.9980   36.5860 H   0  0  0  0  0  0  0  0  0  0  0  0
   37.4300   27.1420   31.6480 C   0  0  0  0  0  0  0  0  0  0  0  0
   38.6060   27.4120   31.0180 C   0  0  0  0  0  0  0  0  0  0  0  0
   39.2410   26.3500   30.4120 C   0  0  0  0  0  0  0  0  0  0  0  0
   38.7350   25.0940   30.4330 N   0  0  0  0  0  0  0  0  0  0  0  0
   37.5590   24.9380   31.0870 C   0  0  0  0  0  0  0  0  0  0  0  0
   36.8770   25.9250   31.7040 N   0  0  0  0  0  0  0  0  0  0  0  0
   39.0290   28.4080   30.9900 H   0  0  0  0  0  0  0  0  0  0  0  0
   40.1770   26.5280   29.9030 H   0  0  0  0  0  0  0  0  0  0  0  0
   37.0370   23.5700   31.0910 C   0  0  0  0  0  0  0  0  0  0  0  0
   35.7240   23.2420   31.3550 C   0  0  0  0  0  0  0  0  0  0  0  0
   34.8950   23.8710   31.5900 H   0  0  0  0  0  0  0  0  0  0  0  0
   35.6310   21.8670   31.2630 C   0  0  0  0  0  0  0  0  0  0  0  0
   34.8310   21.1790   31.3840 H   0  0  0  0  0  0  0  0  0  0  0  0
   36.8970   21.4040   30.9450 C   0  0  0  0  0  0  0  0  0  0  0  0
   37.2580   20.3830   30.7810 H   0  0  0  0  0  0  0  0  0  0  0  0
   37.6800   22.4550   30.8580 O   0  0  0  0  0  0  0  0  0  0  0  0
  1  5  1  0  0  0  0
  1 12  1  0  0  0  0
  2  1  2  0  0  0  0
  3  4  2  0  0  0  0
  3  2  1  0  0  0  0
  4  5  1  0  0  0  0
  6  2  1  0  0  0  0
  7  3  1  0  0  0  0
  8  9  1  0  0  0  0
  8 14  1  0  0  0  0
  9 15  1  0  0  0  0
 10 16  1  0  0  0  0
 10  9  2  0  0  0  0
 11 10  1  0  0  0  0
 12 11  2  0  0  0  0
 12 13  1  0  0  0  0
 13  8  2  0  0  0  0
 17 22  1  0  0  0  0
 17  4  1  0  0  0  0
 18 17  2  0  0  0  0
 19 20  2  0  0  0  0
 19 18  1  0  0  0  0
 20 21  1  0  0  0  0
 21 25  1  0  0  0  0
 21 22  2  0  0  0  0
 23 18  1  0  0  0  0
 24 19  1  0  0  0  0
 25 26  2  0  0  0  0
 26 27  1  0  0  0  0
 28 26  1  0  0  0  0
 28 29  1  0  0  0  0
 30 28  2  0  0  0  0
 31 30  1  0  0  0  0
 32 30  1  0  0  0  0
 32 25  1  0  0  0  0
M  END
>  <minimizedAffinity>
-5.20799685

$$$$

 OpenBabel03262522533D

 32 35  0  0  0  0  0  0  0  0999 V2000
   38.0180   25.2250   34.8520 C   0  0  0  0  0  0  0  0  0  0  0  0
   38.0080   24.8920   33.5630 C   0  0  0  0  0  0  0  0  0  0  0  0
   37.5070   25.7870   32.6420 C   0  0  0  0  0  0  0  0  0  0  0  0
   37.0530   26.9710   33.1390 C   0  0  0  0  0  0  0  0  0  0  0  0
   37.3430   26.8020   34.9270 S   0  0  0  0  0  0  0  0  0  0  0  0
   38.3970   23.9060   33.2510 H   0  0  0  0  0  0  0  0  0  0  0  0
   37.4540   25.6090   31.5690 H   0  0  0  0  0  0  0  0  0  0  0  0
   38.2000   23.8800   38.2360 C   0  0  0  0  0  0  0  0  0  0  0  0
   39.3280   23.0410   38.1910 C   0  0  0  0  0  0  0  0  0  0  0  0
   40.0340   22.9400   36.9720 C   0  0  0  0  0  0  0  0  0  0  0  0
   39.5830   23.6630   35.9030 N   0  0  0  0  0  0  0  0  0  0  0  0
   38.4950   24.4500   36.0120 C   0  0  0  0  0  0  0  0  0  0  0  0
   37.7910   24.5800   37.1460 N   0  0  0  0  0  0  0  0  0  0  0  0
   37.6740   23.9490   39.1610 H   0  0  0  0  0  0  0  0  0  0  0  0
   39.6590   22.4810   39.0550 H   0  0  0  0  0  0  0  0  0  0  0  0
   40.8960   22.3090   36.9070 H   0  0  0  0  0  0  0  0  0  0  0  0
   36.4730   28.1090   32.4200 C   0  0  0  0  0  0  0  0  0  0  0  0
   37.2030   28.7220   31.4490 C   0  0  0  0  0  0  0  0  0  0  0  0
   36.6070   29.7860   30.8060 C   0  0  0  0  0  0  0  0  0  0  0  0
   35.3590   30.2130   31.1130 N   0  0  0  0  0  0  0  0  0  0  0  0
   34.7230   29.5300   32.0960 C   0  0  0  0  0  0  0  0  0  0  0  0
   35.2370   28.4820   32.7710 N   0  0  0  0  0  0  0  0  0  0  0  0
   38.2020   28.3970   31.1870 H   0  0  0  0  0  0  0  0  0  0  0  0
   37.1580   30.2960   30.0290 H   0  0  0  0  0  0  0  0  0  0  0  0
   33.3770   30.0160   32.4060 C   0  0  0  0  0  0  0  0  0  0  0  0
   32.4100   29.2670   33.0420 C   0  0  0  0  0  0  0  0  0  0  0  0
   32.4500   28.2640   33.4050 H   0  0  0  0  0  0  0  0  0  0  0  0
   31.2920   30.0690   33.1500 C   0  0  0  0  0  0  0  0  0  0  0  0
   30.3230   29.9210   33.5600 H   0  0  0  0  0  0  0  0  0  0  0  0
   31.6180   31.2850   32.5720 C   0  0  0  0  0  0  0  0  0  0  0  0
   31.0200   32.1940   32.4480 H   0  0  0  0  0  0  0  0  0  0  0  0
   32.8590   31.1900   32.1530 O   0  0  0  0  0  0  0  0  0  0  0  0
  1  5  1  0  0  0  0
  1 12  1  0  0  0  0
  2  1  2  0  0  0  0
  3  4  2  0  0  0  0
  3  2  1  0  0  0  0
  4  5  1  0  0  0  0
  6  2  1  0  0  0  0
  7  3  1  0  0  0  0
  8 14  1  0  0  0  0
  9  8  1  0  0  0  0
  9 15  1  0  0  0  0
 10  9  2  0  0  0  0
 11 12  2  0  0  0  0
 11 10  1  0  0  0  0
 12 13  1  0  0  0  0
 13  8  2  0  0  0  0
 16 10  1  0  0  0  0
 17 22  1  0  0  0  0
 17  4  1  0  0  0  0
 18 17  2  0  0  0  0
 19 20  2  0  0  0  0
 19 18  1  0  0  0  0
 20 21  1  0  0  0  0
 21 25  1  0  0  0  0
 21 22  2  0  0  0  0
 23 18  1  0  0  0  0
 24 19  1  0  0  0  0
 25 26  2  0  0  0  0
 26 28  1  0  0  0  0
 26 27  1  0  0  0  0
 28 29  1  0  0  0  0
 30 28  2  0  0  0  0
 31 30  1  0  0  0  0
 32 25  1  0  0  0  0
 32 30  1  0  0  0  0
M  END
>  <minimizedAffinity>
-5.18983936

$$$$

 OpenBabel03262522533D

 32 35  0  0  0  0  0  0  0  0999 V2000
   38.0530   25.1980   34.9060 C   0  0  0  0  0  0  0  0  0  0  0  0
   38.0880   24.8670   33.6160 C   0  0  0  0  0  0  0  0  0  0  0  0
   37.6100   25.7610   32.6810 C   0  0  0  0  0  0  0  0  0  0  0  0
   37.1290   26.9390   33.1650 C   0  0  0  0  0  0  0  0  0  0  0  0
   37.3630   26.7680   34.9610 S   0  0  0  0  0  0  0  0  0  0  0  0
   38.4950   23.8860   33.3150 H   0  0  0  0  0  0  0  0  0  0  0  0
   37.5940   25.5850   31.6070 H   0  0  0  0  0  0  0  0  0  0  0  0
   40.0360   22.9410   36.9710 C   0  0  0  0  0  0  0  0  0  0  0  0
   39.3730   22.9700   38.2120 C   0  0  0  0  0  0  0  0  0  0  0  0
   38.2240   23.7830   38.3330 C   0  0  0  0  0  0  0  0  0  0  0  0
   37.8190   24.4960   37.2400 N   0  0  0  0  0  0  0  0  0  0  0  0
   38.4980   24.4240   36.0790 C   0  0  0  0  0  0  0  0  0  0  0  0
   39.5940   23.6680   35.9120 N   0  0  0  0  0  0  0  0  0  0  0  0
   40.9020   22.3240   36.8900 H   0  0  0  0  0  0  0  0  0  0  0  0
   39.7190   22.3940   39.0590 H   0  0  0  0  0  0  0  0  0  0  0  0
   37.6990   23.8250   39.2650 H   0  0  0  0  0  0  0  0  0  0  0  0
   36.5640   28.0740   32.4310 C   0  0  0  0  0  0  0  0  0  0  0  0
   35.4640   28.7050   32.9260 C   0  0  0  0  0  0  0  0  0  0  0  0
   34.9770   29.7660   32.1940 C   0  0  0  0  0  0  0  0  0  0  0  0
   35.5520   30.1750   31.0380 N   0  0  0  0  0  0  0  0  0  0  0  0
   36.6410   29.4760   30.6370 C   0  0  0  0  0  0  0  0  0  0  0  0
   37.1780   28.4280   31.2960 N   0  0  0  0  0  0  0  0  0  0  0  0
   34.9900   28.3950   33.8490 H   0  0  0  0  0  0  0  0  0  0  0  0
   34.1050   30.2900   32.5580 H   0  0  0  0  0  0  0  0  0  0  0  0
   37.2390   29.9410   29.3840 C   0  0  0  0  0  0  0  0  0  0  0  0
   38.1990   29.2460   28.6780 C   0  0  0  0  0  0  0  0  0  0  0  0
   38.6590   28.3070   28.8900 H   0  0  0  0  0  0  0  0  0  0  0  0
   38.5020   30.0060   27.5660 C   0  0  0  0  0  0  0  0  0  0  0  0
   39.1730   29.8750   26.7520 H   0  0  0  0  0  0  0  0  0  0  0  0
   37.7130   31.1420   27.6340 C   0  0  0  0  0  0  0  0  0  0  0  0
   37.6440   31.9980   26.9540 H   0  0  0  0  0  0  0  0  0  0  0  0
   36.9920   31.0440   28.7260 O   0  0  0  0  0  0  0  0  0  0  0  0
  1  5  1  0  0  0  0
  1 12  1  0  0  0  0
  2  1  2  0  0  0  0
  3  4  2  0  0  0  0
  3  2  1  0  0  0  0
  4  5  1  0  0  0  0
  6  2  1  0  0  0  0
  7  3  1  0  0  0  0
  8  9  1  0  0  0  0
  9 10  2  0  0  0  0
  9 15  1  0  0  0  0
 10 16  1  0  0  0  0
 11 10  1  0  0  0  0
 12 11  2  0  0  0  0
 13 12  1  0  0  0  0
 13  8  2  0  0  0  0
 14  8  1  0  0  0  0
 17 18  1  0  0  0  0
 17  4  1  0  0  0  0
 18 23  1  0  0  0  0
 19 24  1  0  0  0  0
 19 18  2  0  0  0  0
 20 19  1  0  0  0  0
 21 20  2  0  0  0  0
 21 22  1  0  0  0  0
 22 17  2  0  0  0  0
 25 21  1  0  0  0  0
 26 27  1  0  0  0  0
 26 25  2  0  0  0  0
 28 30  2  0  0  0  0
 28 26  1  0  0  0  0
 29 28  1  0  0  0  0
 30 32  1  0  0  0  0
 31 30  1  0  0  0  0
 32 25  1  0  0  0  0
M  END
>  <minimizedAffinity>
-5.18972206

$$$$

 OpenBabel03262522533D

 32 35  0  0  0  0  0  0  0  0999 V2000
   39.1950   25.1540   34.9220 C   0  0  0  0  0  0  0  0  0  0  0  0
   39.4980   25.6450   33.7210 C   0  0  0  0  0  0  0  0  0  0  0  0
   38.7010   26.6300   33.1790 C   0  0  0  0  0  0  0  0  0  0  0  0
   37.6420   27.0320   33.9350 C   0  0  0  0  0  0  0  0  0  0  0  0
   37.7880   25.9980   35.4250 S   0  0  0  0  0  0  0  0  0  0  0  0
   40.3780   25.2570   33.1780 H   0  0  0  0  0  0  0  0  0  0  0  0
   38.8630   27.0940   32.2080 H   0  0  0  0  0  0  0  0  0  0  0  0
   41.7610   22.7780   35.9530 C   0  0  0  0  0  0  0  0  0  0  0  0
   41.2100   22.1850   37.1050 C   0  0  0  0  0  0  0  0  0  0  0  0
   39.9330   22.6160   37.5280 C   0  0  0  0  0  0  0  0  0  0  0  0
   39.3020   23.5840   36.7970 N   0  0  0  0  0  0  0  0  0  0  0  0
   39.8850   24.1100   35.7020 C   0  0  0  0  0  0  0  0  0  0  0  0
   41.0940   23.7360   35.2590 N   0  0  0  0  0  0  0  0  0  0  0  0
   42.7250   22.4450   35.6420 H   0  0  0  0  0  0  0  0  0  0  0  0
   41.7340   21.4220   37.6620 H   0  0  0  0  0  0  0  0  0  0  0  0
   39.4880   22.1840   38.4010 H   0  0  0  0  0  0  0  0  0  0  0  0
   36.6290   28.0480   33.6350 C   0  0  0  0  0  0  0  0  0  0  0  0
   36.1000   28.1080   32.3830 C   0  0  0  0  0  0  0  0  0  0  0  0
   35.1510   29.0830   32.1580 C   0  0  0  0  0  0  0  0  0  0  0  0
   34.7540   29.9450   33.1250 N   0  0  0  0  0  0  0  0  0  0  0  0
   35.3460   29.7950   34.3340 C   0  0  0  0  0  0  0  0  0  0  0  0
   36.2800   28.8690   34.6320 N   0  0  0  0  0  0  0  0  0  0  0  0
   36.4030   27.4290   31.5960 H   0  0  0  0  0  0  0  0  0  0  0  0
   34.7090   29.1590   31.1750 H   0  0  0  0  0  0  0  0  0  0  0  0
   34.8960   30.7410   35.3560 C   0  0  0  0  0  0  0  0  0  0  0  0
   33.5750   30.9490   35.6930 C   0  0  0  0  0  0  0  0  0  0  0  0
   32.6900   30.4960   35.3040 H   0  0  0  0  0  0  0  0  0  0  0  0
   33.5630   31.9060   36.6880 C   0  0  0  0  0  0  0  0  0  0  0  0
   32.7870   32.3740   37.2440 H   0  0  0  0  0  0  0  0  0  0  0  0
   34.8840   32.2500   36.9230 C   0  0  0  0  0  0  0  0  0  0  0  0
   35.3130   32.9690   37.6300 H   0  0  0  0  0  0  0  0  0  0  0  0
   35.6190   31.5300   36.1090 O   0  0  0  0  0  0  0  0  0  0  0  0
  1  5  1  0  0  0  0
  1 12  1  0  0  0  0
  2  1  2  0  0  0  0
  3  2  1  0  0  0  0
  3  4  2  0  0  0  0
  4  5  1  0  0  0  0
  6  2  1  0  0  0  0
  7  3  1  0  0  0  0
  8  9  1  0  0  0  0
  9 10  2  0  0  0  0
  9 15  1  0  0  0  0
 10 16  1  0  0  0  0
 11 10  1  0  0  0  0
 12 11  2  0  0  0  0
 13 12  1  0  0  0  0
 13  8  2  0  0  0  0
 14  8  1  0  0  0  0
 17  4  1  0  0  0  0
 17 22  1  0  0  0  0
 18 17  2  0  0  0  0
 19 18  1  0  0  0  0
 19 20  2  0  0  0  0
 20 21  1  0  0  0  0
 21 22  2  0  0  0  0
 21 25  1  0  0  0  0
 23 18  1  0  0  0  0
 24 19  1  0  0  0  0
 25 26  2  0  0  0  0
 25 32  1  0  0  0  0
 26 28  1  0  0  0  0
 27 26  1  0  0  0  0
 28 30  2  0  0  0  0
 28 29  1  0  0  0  0
 30 31  1  0  0  0  0
 32 30  1  0  0  0  0
M  END
>  <minimizedAffinity>
-5.18388271

$$$$

 OpenBabel03262522533D

 32 35  0  0  0  0  0  0  0  0999 V2000
   38.3620   25.4630   34.8890 C   0  0  0  0  0  0  0  0  0  0  0  0
   38.9020   25.4460   33.6720 C   0  0  0  0  0  0  0  0  0  0  0  0
   38.4490   26.3400   32.7250 C   0  0  0  0  0  0  0  0  0  0  0  0
   37.4610   27.1880   33.1220 C   0  0  0  0  0  0  0  0  0  0  0  0
   37.1810   26.7070   34.8540 S   0  0  0  0  0  0  0  0  0  0  0  0
   39.7000   24.7190   33.4390 H   0  0  0  0  0  0  0  0  0  0  0  0
   38.8240   26.4050   31.7050 H   0  0  0  0  0  0  0  0  0  0  0  0
   38.1970   24.0790   38.2580 C   0  0  0  0  0  0  0  0  0  0  0  0
   39.1970   23.0890   38.2520 C   0  0  0  0  0  0  0  0  0  0  0  0
   39.9370   22.9000   37.0640 C   0  0  0  0  0  0  0  0  0  0  0  0
   39.6430   23.6870   35.9870 N   0  0  0  0  0  0  0  0  0  0  0  0
   38.6720   24.6190   36.0580 C   0  0  0  0  0  0  0  0  0  0  0  0
   37.9410   24.8380   37.1610 N   0  0  0  0  0  0  0  0  0  0  0  0
   37.6440   24.2140   39.1600 H   0  0  0  0  0  0  0  0  0  0  0  0
   39.4060   22.4820   39.1220 H   0  0  0  0  0  0  0  0  0  0  0  0
   40.7040   22.1540   37.0290 H   0  0  0  0  0  0  0  0  0  0  0  0
   36.7850   28.2370   32.3540 C   0  0  0  0  0  0  0  0  0  0  0  0
   35.6190   28.7580   32.8250 C   0  0  0  0  0  0  0  0  0  0  0  0
   35.0280   29.7420   32.0620 C   0  0  0  0  0  0  0  0  0  0  0  0
   35.5670   30.1810   30.8990 N   0  0  0  0  0  0  0  0  0  0  0  0
   36.7290   29.5930   30.5250 C   0  0  0  0  0  0  0  0  0  0  0  0
   37.3680   28.6260   31.2140 N   0  0  0  0  0  0  0  0  0  0  0  0
   35.1710   28.4230   33.7520 H   0  0  0  0  0  0  0  0  0  0  0  0
   34.1010   30.1780   32.4060 H   0  0  0  0  0  0  0  0  0  0  0  0
   37.2860   30.0880   29.2640 C   0  0  0  0  0  0  0  0  0  0  0  0
   38.2790   29.4490   28.5520 C   0  0  0  0  0  0  0  0  0  0  0  0
   38.7970   28.5410   28.7630 H   0  0  0  0  0  0  0  0  0  0  0  0
   38.5260   30.2210   27.4340 C   0  0  0  0  0  0  0  0  0  0  0  0
   39.1950   30.1270   26.6140 H   0  0  0  0  0  0  0  0  0  0  0  0
   37.6700   31.3070   27.5040 C   0  0  0  0  0  0  0  0  0  0  0  0
   37.5420   32.1540   26.8210 H   0  0  0  0  0  0  0  0  0  0  0  0
   36.9660   31.1710   28.6040 O   0  0  0  0  0  0  0  0  0  0  0  0
  1 12  1  0  0  0  0
  2  1  2  0  0  0  0
  3  4  2  0  0  0  0
  3  2  1  0  0  0  0
  4  5  1  0  0  0  0
  5  1  1  0  0  0  0
  6  2  1  0  0  0  0
  7  3  1  0  0  0  0
  8 14  1  0  0  0  0
  9  8  1  0  0  0  0
  9 15  1  0  0  0  0
 10  9  2  0  0  0  0
 11 12  2  0  0  0  0
 11 10  1  0  0  0  0
 12 13  1  0  0  0  0
 13  8  2  0  0  0  0
 16 10  1  0  0  0  0
 17 18  1  0  0  0  0
 17  4  1  0  0  0  0
 18 23  1  0  0  0  0
 19 24  1  0  0  0  0
 19 18  2  0  0  0  0
 20 19  1  0  0  0  0
 21 20  2  0  0  0  0
 21 22  1  0  0  0  0
 22 17  2  0  0  0  0
 25 21  1  0  0  0  0
 26 27  1  0  0  0  0
 26 25  2  0  0  0  0
 28 30  2  0  0  0  0
 28 26  1  0  0  0  0
 29 28  1  0  0  0  0
 30 32  1  0  0  0  0
 31 30  1  0  0  0  0
 32 25  1  0  0  0  0
M  END
>  <minimizedAffinity>
-5.11775827

$$$$

 OpenBabel03262522533D

 32 35  0  0  0  0  0  0  0  0999 V2000
   40.1270   25.0800   34.8770 C   0  0  0  0  0  0  0  0  0  0  0  0
   40.7140   26.2220   34.5250 C   0  0  0  0  0  0  0  0  0  0  0  0
   40.0090   27.1330   33.7680 C   0  0  0  0  0  0  0  0  0  0  0  0
   38.7380   26.7810   33.4320 C   0  0  0  0  0  0  0  0  0  0  0  0
   38.5500   25.1450   34.2040 S   0  0  0  0  0  0  0  0  0  0  0  0
   41.7530   26.4230   34.8430 H   0  0  0  0  0  0  0  0  0  0  0  0
   40.3990   28.0920   33.4290 H   0  0  0  0  0  0  0  0  0  0  0  0
   40.2410   22.2510   37.1750 C   0  0  0  0  0  0  0  0  0  0  0  0
   41.5990   21.8850   37.1710 C   0  0  0  0  0  0  0  0  0  0  0  0
   42.4870   22.6280   36.3610 C   0  0  0  0  0  0  0  0  0  0  0  0
   41.9780   23.6620   35.6260 N   0  0  0  0  0  0  0  0  0  0  0  0
   40.6650   23.9630   35.6740 C   0  0  0  0  0  0  0  0  0  0  0  0
   39.7830   23.2890   36.4270 N   0  0  0  0  0  0  0  0  0  0  0  0
   39.5800   21.6840   37.7890 H   0  0  0  0  0  0  0  0  0  0  0  0
   41.9710   21.0610   37.7640 H   0  0  0  0  0  0  0  0  0  0  0  0
   43.5250   22.3720   36.3370 H   0  0  0  0  0  0  0  0  0  0  0  0
   37.7520   27.5290   32.6470 C   0  0  0  0  0  0  0  0  0  0  0  0
   37.9800   27.7370   31.3210 C   0  0  0  0  0  0  0  0  0  0  0  0
   37.0190   28.4460   30.6320 C   0  0  0  0  0  0  0  0  0  0  0  0
   35.8980   28.9180   31.2290 N   0  0  0  0  0  0  0  0  0  0  0  0
   35.7740   28.6540   32.5520 C   0  0  0  0  0  0  0  0  0  0  0  0
   36.6680   27.9700   33.2950 N   0  0  0  0  0  0  0  0  0  0  0  0
   38.8670   27.3680   30.8240 H   0  0  0  0  0  0  0  0  0  0  0  0
   37.1660   28.6290   29.5780 H   0  0  0  0  0  0  0  0  0  0  0  0
   34.5540   29.1780   33.1680 C   0  0  0  0  0  0  0  0  0  0  0  0
   34.4990   29.7320   34.4300 C   0  0  0  0  0  0  0  0  0  0  0  0
   35.2740   29.8750   35.1490 H   0  0  0  0  0  0  0  0  0  0  0  0
   33.1870   30.1040   34.6450 C   0  0  0  0  0  0  0  0  0  0  0  0
   32.6800   30.5620   35.4600 H   0  0  0  0  0  0  0  0  0  0  0  0
   32.4850   29.7630   33.5010 C   0  0  0  0  0  0  0  0  0  0  0  0
   31.4240   29.8840   33.2570 H   0  0  0  0  0  0  0  0  0  0  0  0
   33.3450   29.2220   32.6690 O   0  0  0  0  0  0  0  0  0  0  0  0
  1 12  1  0  0  0  0
  2  6  1  0  0  0  0
  2  1  2  0  0  0  0
  3  2  1  0  0  0  0
  4  3  2  0  0  0  0
  4  5  1  0  0  0  0
  5  1  1  0  0  0  0
  7  3  1  0  0  0  0
  8 14  1  0  0  0  0
  9  8  1  0  0  0  0
  9 15  1  0  0  0  0
 10  9  2  0  0  0  0
 11 12  2  0  0  0  0
 11 10  1  0  0  0  0
 12 13  1  0  0  0  0
 13  8  2  0  0  0  0
 16 10  1  0  0  0  0
 17 22  1  0  0  0  0
 17  4  1  0  0  0  0
 18 17  2  0  0  0  0
 19 20  2  0  0  0  0
 19 18  1  0  0  0  0
 20 21  1  0  0  0  0
 21 25  1  0  0  0  0
 21 22  2  0  0  0  0
 23 18  1  0  0  0  0
 24 19  1  0  0  0  0
 25 26  2  0  0  0  0
 26 28  1  0  0  0  0
 26 27  1  0  0  0  0
 28 29  1  0  0  0  0
 30 28  2  0  0  0  0
 31 30  1  0  0  0  0
 32 25  1  0  0  0  0
 32 30  1  0  0  0  0
M  END
>  <minimizedAffinity>
-5.02022839

$$$$
