
 OpenBabel03272500383D

 35 37  0  0  1  0  0  0  0  0999 V2000
   37.0310   30.6780   49.0840 C   0  0  0  0  0  0  0  0  0  0  0  0
   37.1370   31.8010   49.9030 C   0  0  0  0  0  0  0  0  0  0  0  0
   37.8300   32.9050   49.4160 C   0  0  0  0  0  0  0  0  0  0  0  0
   38.3610   32.8100   48.1610 N   0  0  0  0  0  0  0  0  0  0  0  0
   38.2440   31.7160   47.3940 C   0  0  0  0  0  0  0  0  0  0  0  0
   37.5770   30.6720   47.8800 N   0  0  0  0  0  0  0  0  0  0  0  0
   38.8300   31.7240   46.1050 N   0  0  0  0  0  0  0  0  0  0  0  0
   40.1860   31.2360   45.9450 C   0  0  0  0  0  0  0  0  0  0  0  0
   40.8770   32.2890   45.0600 C   0  0  0  0  0  0  0  0  0  0  0  0
   40.2480   32.0520   43.6980 C   0  0  0  0  0  0  0  0  0  0  0  0
   38.8370   32.5460   43.7770 C   0  0  0  0  0  0  0  0  0  0  0  0
   38.0850   32.2100   45.0050 C   0  0  1  0  0  0  0  0  0  0  0  0
   36.7070   31.8560   50.8990 H   0  0  0  0  0  0  0  0  0  0  0  0
   37.9390   33.8020   50.0160 H   0  0  0  0  0  0  0  0  0  0  0  0
   40.1570   30.2680   45.4280 H   0  0  0  0  0  0  0  0  0  0  0  0
   40.7210   31.1230   46.9130 H   0  0  0  0  0  0  0  0  0  0  0  0
   41.9650   32.1740   45.0560 H   0  0  0  0  0  0  0  0  0  0  0  0
   40.5980   33.3020   45.4010 H   0  0  0  0  0  0  0  0  0  0  0  0
   40.7930   32.6210   42.9190 H   0  0  0  0  0  0  0  0  0  0  0  0
   40.3410   30.9890   43.4630 H   0  0  0  0  0  0  0  0  0  0  0  0
   38.9040   33.6590   43.5780 H   0  0  0  0  0  0  0  0  0  0  0  0
   38.3030   32.1530   42.8930 H   0  0  0  0  0  0  0  0  0  0  0  0
   37.6530   33.1940   45.3740 H   0  0  0  0  0  0  0  0  0  0  0  0
   36.8910   31.3610   44.7670 C   0  0  0  0  0  0  0  0  0  0  0  0
   36.3930   30.2420   45.4000 C   0  0  0  0  0  0  0  0  0  0  0  0
   36.8500   29.7680   46.2560 H   0  0  0  0  0  0  0  0  0  0  0  0
   35.2330   29.7970   44.8010 C   0  0  0  0  0  0  0  0  0  0  0  0
   34.6200   28.9620   45.0610 H   0  0  0  0  0  0  0  0  0  0  0  0
   35.0660   30.7100   43.7800 C   0  0  0  0  0  0  0  0  0  0  0  0
   34.2590   30.7350   43.0440 H   0  0  0  0  0  0  0  0  0  0  0  0
   36.0350   31.5830   43.7990 O   0  0  0  0  0  0  0  0  0  0  0  0
   36.2840   29.4800   49.5990 C   0  0  0  0  0  0  0  0  0  0  0  0
   35.3520   29.8940   50.5670 F   0  0  0  0  0  0  0  0  0  0  0  0
   35.7250   28.8360   48.5570 F   0  0  0  0  0  0  0  0  0  0  0  0
   37.1940   28.6800   50.2720 F   0  0  0  0  0  0  0  0  0  0  0  0
  1 32  1  0  0  0  0
  1  2  1  0  0  0  0
  2 13  1  0  0  0  0
  3  2  2  0  0  0  0
  3 14  1  0  0  0  0
  4  3  1  0  0  0  0
  5  6  1  0  0  0  0
  5  4  2  0  0  0  0
  6  1  2  0  0  0  0
  7  5  1  0  0  0  0
  8  7  1  0  0  0  0
  8 16  1  0  0  0  0
  9 18  1  0  0  0  0
  9  8  1  0  0  0  0
 10 11  1  0  0  0  0
 10  9  1  0  0  0  0
 11 12  1  0  0  0  0
 12 23  1  1  0  0  0
 12  7  1  0  0  0  0
 15  8  1  0  0  0  0
 17  9  1  0  0  0  0
 19 10  1  0  0  0  0
 20 10  1  0  0  0  0
 21 11  1  0  0  0  0
 22 11  1  0  0  0  0
 24 12  1  0  0  0  0
 24 25  2  0  0  0  0
 25 26  1  0  0  0  0
 27 28  1  0  0  0  0
 27 25  1  0  0  0  0
 29 31  1  0  0  0  0
 29 27  2  0  0  0  0
 30 29  1  0  0  0  0
 31 24  1  0  0  0  0
 32 35  1  0  0  0  0
 32 33  1  0  0  0  0
 34 32  1  0  0  0  0
M  END
>  <minimizedAffinity>
-6.39114523

>  <minimizedRMSD>
0.821116269

$$$$
