
 OpenBabel03272506303D

 33 35  0  0  1  0  0  0  0  0999 V2000
   33.8080   29.0890   48.5170 C   0  0  1  0  0  0  0  0  0  0  0  0
   33.7560   29.6950   47.1730 C   0  0  0  0  0  0  0  0  0  0  0  0
   34.2110   28.8380   46.0240 C   0  0  0  0  0  0  0  0  0  0  0  0
   33.8520   27.3990   46.1300 C   0  0  0  0  0  0  0  0  0  0  0  0
   33.9280   26.7740   47.4750 C   0  0  0  0  0  0  0  0  0  0  0  0
   33.3570   27.6710   48.5400 C   0  0  2  0  0  0  0  0  0  0  0  0
   33.0360   29.6320   49.1560 H   0  0  0  0  0  0  0  0  0  0  0  0
   32.6480   29.8380   46.9550 H   0  0  0  0  0  0  0  0  0  0  0  0
   34.1660   30.6790   47.0440 H   0  0  0  0  0  0  0  0  0  0  0  0
   35.3270   28.9080   45.9940 H   0  0  0  0  0  0  0  0  0  0  0  0
   33.7880   29.2490   45.0980 H   0  0  0  0  0  0  0  0  0  0  0  0
   34.4940   26.8260   45.4290 H   0  0  0  0  0  0  0  0  0  0  0  0
   32.7990   27.2970   45.7340 H   0  0  0  0  0  0  0  0  0  0  0  0
   33.3060   25.8550   47.4720 H   0  0  0  0  0  0  0  0  0  0  0  0
   34.9570   26.4580   47.7470 H   0  0  0  0  0  0  0  0  0  0  0  0
   33.5440   27.1560   49.4900 H   0  0  0  0  0  0  0  0  0  0  0  0
   36.2800   29.7140   48.6530 C   0  0  0  0  0  0  0  0  0  0  0  0
   35.0630   29.3290   49.2650 C   0  0  0  0  0  0  0  0  0  0  0  0
   35.0760   29.1880   50.6410 C   0  0  0  0  0  0  0  0  0  0  0  0
   36.2210   29.4160   51.3390 N   0  0  0  0  0  0  0  0  0  0  0  0
   37.3640   29.7840   50.7030 C   0  0  0  0  0  0  0  0  0  0  0  0
   37.3890   29.9320   49.3520 N   0  0  0  0  0  0  0  0  0  0  0  0
   36.3390   29.8400   47.5840 H   0  0  0  0  0  0  0  0  0  0  0  0
   34.2760   28.9150   51.3010 H   0  0  0  0  0  0  0  0  0  0  0  0
   38.2970   29.9750   51.2270 H   0  0  0  0  0  0  0  0  0  0  0  0
   31.8450   27.6920   48.4130 C   0  0  0  0  0  0  0  0  0  0  0  0
   30.9810   27.9030   49.4920 C   0  0  0  0  0  0  0  0  0  0  0  0
   31.2100   28.0780   50.5420 H   0  0  0  0  0  0  0  0  0  0  0  0
   29.6640   27.8590   49.0240 C   0  0  0  0  0  0  0  0  0  0  0  0
   28.7730   27.9870   49.6160 H   0  0  0  0  0  0  0  0  0  0  0  0
   29.8210   27.6220   47.6750 C   0  0  0  0  0  0  0  0  0  0  0  0
   28.9950   27.5250   46.9790 H   0  0  0  0  0  0  0  0  0  0  0  0
   31.0830   27.5310   47.3570 O   0  0  0  0  0  0  0  0  0  0  0  0
  1  6  1  0  0  0  0
  1  7  1  1  0  0  0
  1 18  1  0  0  0  0
  2  1  1  0  0  0  0
  3  4  1  0  0  0  0
  3  2  1  0  0  0  0
  4  5  1  0  0  0  0
  5 15  1  0  0  0  0
  5  6  1  0  0  0  0
  6 16  1  1  0  0  0
  8  2  1  0  0  0  0
  9  2  1  0  0  0  0
 10  3  1  0  0  0  0
 11  3  1  0  0  0  0
 12  4  1  0  0  0  0
 13  4  1  0  0  0  0
 14  5  1  0  0  0  0
 17 18  2  0  0  0  0
 17 22  1  0  0  0  0
 18 19  1  0  0  0  0
 19 24  1  0  0  0  0
 19 20  2  0  0  0  0
 21 25  1  0  0  0  0
 21 20  1  0  0  0  0
 22 21  2  0  0  0  0
 23 17  1  0  0  0  0
 26  6  1  0  0  0  0
 26 27  2  0  0  0  0
 27 28  1  0  0  0  0
 29 27  1  0  0  0  0
 29 30  1  0  0  0  0
 31 29  2  0  0  0  0
 32 31  1  0  0  0  0
 33 31  1  0  0  0  0
 33 26  1  0  0  0  0
M  END
>  <minimizedAffinity>
-4.72433567

>  <minimizedRMSD>
1.75770736

$$$$
