
 OpenBabel03272508543D

 37 40  0  0  1  0  0  0  0  0999 V2000
   38.3900   31.8500   44.5440 C   0  0  0  0  0  0  0  0  0  0  0  0
   37.2740   32.4400   44.4270 O   0  0  0  0  0  0  0  0  0  0  0  0
   38.9270   31.5500   45.8360 N   0  0  0  0  0  0  0  0  0  0  0  0
   39.9010   31.2160   46.0050 H   0  0  0  0  0  0  0  0  0  0  0  0
   39.1580   31.4620   43.3520 C   0  0  0  0  0  0  0  0  0  0  0  0
   40.1260   30.5030   43.4900 C   0  0  0  0  0  0  0  0  0  0  0  0
   40.8530   30.1200   42.3800 C   0  0  0  0  0  0  0  0  0  0  0  0
   40.5580   30.7320   41.1800 C   0  0  0  0  0  0  0  0  0  0  0  0
   39.5820   31.7010   41.0310 C   0  0  0  0  0  0  0  0  0  0  0  0
   38.9290   32.0120   42.1520 N   0  0  0  0  0  0  0  0  0  0  0  0
   40.3940   29.9940   44.4070 H   0  0  0  0  0  0  0  0  0  0  0  0
   41.6290   29.3690   42.4230 H   0  0  0  0  0  0  0  0  0  0  0  0
   41.1350   30.4240   40.3140 H   0  0  0  0  0  0  0  0  0  0  0  0
   39.2890   32.3350   39.7520 C   0  0  0  0  0  0  0  0  0  0  0  0
   39.4720   31.7030   38.5310 C   0  0  0  0  0  0  0  0  0  0  0  0
   39.8400   30.7040   38.3720 H   0  0  0  0  0  0  0  0  0  0  0  0
   39.0660   32.6810   37.6180 C   0  0  0  0  0  0  0  0  0  0  0  0
   39.0690   32.5460   36.5440 H   0  0  0  0  0  0  0  0  0  0  0  0
   38.6720   33.8110   38.3070 C   0  0  0  0  0  0  0  0  0  0  0  0
   38.3030   34.7510   37.9200 H   0  0  0  0  0  0  0  0  0  0  0  0
   38.8190   33.5690   39.5940 O   0  0  0  0  0  0  0  0  0  0  0  0
   38.4260   31.1190   48.2360 C   0  0  2  0  0  0  0  0  0  0  0  0
   38.6840   32.5610   48.1210 C   0  0  0  0  0  0  0  0  0  0  0  0
   38.0480   31.7270   46.9810 C   0  0  1  0  0  0  0  0  0  0  0  0
   39.3490   30.5100   48.3240 H   0  0  0  0  0  0  0  0  0  0  0  0
   38.0590   33.3180   48.6230 H   0  0  0  0  0  0  0  0  0  0  0  0
   39.7190   32.9220   47.9630 H   0  0  0  0  0  0  0  0  0  0  0  0
   36.9910   32.0440   46.7710 H   0  0  0  0  0  0  0  0  0  0  0  0
   35.0860   30.2020   49.5470 C   0  0  0  0  0  0  0  0  0  0  0  0
   35.4130   29.5410   50.7750 C   0  0  0  0  0  0  0  0  0  0  0  0
   36.8120   29.4380   51.1200 C   0  0  0  0  0  0  0  0  0  0  0  0
   37.7520   29.9620   50.2820 N   0  0  0  0  0  0  0  0  0  0  0  0
   37.3510   30.5780   49.1280 C   0  0  0  0  0  0  0  0  0  0  0  0
   36.0360   30.7140   48.7330 N   0  0  0  0  0  0  0  0  0  0  0  0
   34.0350   30.2430   49.3530 H   0  0  0  0  0  0  0  0  0  0  0  0
   34.6530   29.1410   51.4090 H   0  0  0  0  0  0  0  0  0  0  0  0
   37.0610   28.9410   52.0430 H   0  0  0  0  0  0  0  0  0  0  0  0
  1  3  1  0  0  0  0
  2  1  2  0  0  0  0
  3  4  1  0  0  0  0
  3 24  1  0  0  0  0
  5  6  1  0  0  0  0
  5  1  1  0  0  0  0
  6 11  1  0  0  0  0
  7 12  1  0  0  0  0
  7  6  2  0  0  0  0
  8  7  1  0  0  0  0
  9  8  2  0  0  0  0
  9 10  1  0  0  0  0
 10  5  2  0  0  0  0
 13  8  1  0  0  0  0
 14  9  1  0  0  0  0
 15 14  2  0  0  0  0
 16 15  1  0  0  0  0
 17 19  2  0  0  0  0
 17 15  1  0  0  0  0
 18 17  1  0  0  0  0
 19 21  1  0  0  0  0
 20 19  1  0  0  0  0
 21 14  1  0  0  0  0
 22 25  1  6  0  0  0
 22 33  1  0  0  0  0
 23 22  1  0  0  0  0
 23 26  1  0  0  0  0
 24 28  1  6  0  0  0
 24 23  1  0  0  0  0
 24 22  1  0  0  0  0
 27 23  1  0  0  0  0
 29 30  1  0  0  0  0
 30 31  2  0  0  0  0
 30 36  1  0  0  0  0
 31 37  1  0  0  0  0
 32 31  1  0  0  0  0
 33 32  2  0  0  0  0
 34 33  1  0  0  0  0
 34 29  2  0  0  0  0
 35 29  1  0  0  0  0
M  END
>  <minimizedAffinity>
-5.14740658

>  <minimizedRMSD>
0.209776893

$$$$
