
 OpenBabel03272500073D

 38 41  0  0  0  0  0  0  0  0999 V2000
   35.3700   28.7990   49.1110 C   0  0  0  0  0  0  0  0  0  0  0  0
   35.2990   29.9830   48.3620 C   0  0  0  0  0  0  0  0  0  0  0  0
   34.2100   30.1440   47.5100 C   0  0  0  0  0  0  0  0  0  0  0  0
   33.2770   29.1620   47.4430 N   0  0  0  0  0  0  0  0  0  0  0  0
   33.3710   28.0460   48.1690 C   0  0  0  0  0  0  0  0  0  0  0  0
   34.4290   27.8390   49.0250 N   0  0  0  0  0  0  0  0  0  0  0  0
   36.1910   28.6180   49.7880 H   0  0  0  0  0  0  0  0  0  0  0  0
   34.1590   31.0490   46.9410 H   0  0  0  0  0  0  0  0  0  0  0  0
   36.3370   30.9410   48.5160 N   0  0  0  0  0  0  0  0  0  0  0  0
   36.5260   31.6060   49.6620 C   0  0  0  0  0  0  0  0  0  0  0  0
   37.5590   32.5300   49.7530 C   0  0  0  0  0  0  0  0  0  0  0  0
   38.3120   32.6830   48.6350 C   0  0  0  0  0  0  0  0  0  0  0  0
   39.2600   33.5210   48.6950 O   0  0  0  0  0  0  0  0  0  0  0  0
   38.1570   32.0470   47.4900 N   0  0  0  0  0  0  0  0  0  0  0  0
   37.1300   31.1400   47.4250 C   0  0  0  0  0  0  0  0  0  0  0  0
   36.9660   30.5220   46.3380 O   0  0  0  0  0  0  0  0  0  0  0  0
   35.8740   31.4270   50.5280 H   0  0  0  0  0  0  0  0  0  0  0  0
   37.7460   33.0920   50.6700 H   0  0  0  0  0  0  0  0  0  0  0  0
   38.7470   32.1860   46.6580 H   0  0  0  0  0  0  0  0  0  0  0  0
   32.4120   27.0300   48.1030 O   0  0  0  0  0  0  0  0  0  0  0  0
   31.0950   27.4380   48.2810 C   0  0  0  0  0  0  0  0  0  0  0  0
   30.7810   27.7540   49.5890 C   0  0  0  0  0  0  0  0  0  0  0  0
   29.5070   28.1770   49.9210 C   0  0  0  0  0  0  0  0  0  0  0  0
   28.5420   28.2780   48.9070 C   0  0  0  0  0  0  0  0  0  0  0  0
   28.8730   27.9590   47.6150 C   0  0  0  0  0  0  0  0  0  0  0  0
   30.1290   27.5470   47.3060 C   0  0  0  0  0  0  0  0  0  0  0  0
   31.4880   27.6920   50.4060 H   0  0  0  0  0  0  0  0  0  0  0  0
   29.2630   28.4220   50.9410 H   0  0  0  0  0  0  0  0  0  0  0  0
   27.5290   28.6050   49.1240 H   0  0  0  0  0  0  0  0  0  0  0  0
   28.1160   28.0430   46.8450 H   0  0  0  0  0  0  0  0  0  0  0  0
   30.5220   27.2010   45.9590 C   0  0  0  0  0  0  0  0  0  0  0  0
   30.3090   25.9580   45.3720 C   0  0  0  0  0  0  0  0  0  0  0  0
   29.8290   25.0940   45.8330 H   0  0  0  0  0  0  0  0  0  0  0  0
   30.8110   25.9870   44.0860 C   0  0  0  0  0  0  0  0  0  0  0  0
   30.8380   25.2420   43.3280 H   0  0  0  0  0  0  0  0  0  0  0  0
   31.3110   27.2440   43.9330 C   0  0  0  0  0  0  0  0  0  0  0  0
   31.8020   27.7610   43.1230 H   0  0  0  0  0  0  0  0  0  0  0  0
   31.1150   27.8920   45.0450 O   0  0  0  0  0  0  0  0  0  0  0  0
  1  7  1  0  0  0  0
  2  9  1  0  0  0  0
  2  1  2  0  0  0  0
  3  2  1  0  0  0  0
  4  3  2  0  0  0  0
  4  5  1  0  0  0  0
  5  6  2  0  0  0  0
  6  1  1  0  0  0  0
  8  3  1  0  0  0  0
  9 10  1  0  0  0  0
 10 11  2  0  0  0  0
 10 17  1  0  0  0  0
 11 18  1  0  0  0  0
 12 13  2  0  0  0  0
 12 11  1  0  0  0  0
 14 12  1  0  0  0  0
 15 14  1  0  0  0  0
 15  9  1  0  0  0  0
 16 15  2  0  0  0  0
 19 14  1  0  0  0  0
 20  5  1  0  0  0  0
 20 21  1  0  0  0  0
 21 22  1  0  0  0  0
 22 23  2  0  0  0  0
 22 27  1  0  0  0  0
 23 28  1  0  0  0  0
 24 29  1  0  0  0  0
 24 23  1  0  0  0  0
 25 24  2  0  0  0  0
 26 25  1  0  0  0  0
 26 21  2  0  0  0  0
 30 25  1  0  0  0  0
 31 26  1  0  0  0  0
 32 33  1  0  0  0  0
 32 31  2  0  0  0  0
 34 32  1  0  0  0  0
 35 34  1  0  0  0  0
 36 34  2  0  0  0  0
 36 38  1  0  0  0  0
 37 36  1  0  0  0  0
 38 31  1  0  0  0  0
M  END
>  <minimizedAffinity>
-5.72217464

>  <minimizedRMSD>
0.402979493

$$$$
