
 OpenBabel03272500313D

 27 29  0  0  0  0  0  0  0  0999 V2000
   36.6370   30.2770   46.2270 Cl  0  0  0  0  0  0  0  0  0  0  0  0
   36.9650   30.4890   47.9330 C   0  0  0  0  0  0  0  0  0  0  0  0
   38.1330   31.1680   48.2310 C   0  0  0  0  0  0  0  0  0  0  0  0
   38.4230   31.3530   49.5960 C   0  0  0  0  0  0  0  0  0  0  0  0
   37.5540   30.8640   50.5440 C   0  0  0  0  0  0  0  0  0  0  0  0
   36.4250   30.2060   50.1600 C   0  0  0  0  0  0  0  0  0  0  0  0
   36.0780   29.9890   48.8610 C   0  0  0  0  0  0  0  0  0  0  0  0
   39.3310   31.8810   49.8490 H   0  0  0  0  0  0  0  0  0  0  0  0
   37.7880   31.0130   51.5750 H   0  0  0  0  0  0  0  0  0  0  0  0
   35.7690   29.8370   50.9540 H   0  0  0  0  0  0  0  0  0  0  0  0
   40.0710   33.4900   46.2120 C   0  0  0  0  0  0  0  0  0  0  0  0
   40.7100   32.6880   45.2650 C   0  0  0  0  0  0  0  0  0  0  0  0
   40.4550   31.3140   45.3410 C   0  0  0  0  0  0  0  0  0  0  0  0
   39.6170   30.8590   46.3120 N   0  0  0  0  0  0  0  0  0  0  0  0
   39.0270   31.6700   47.1980 C   0  0  0  0  0  0  0  0  0  0  0  0
   39.2600   32.9960   47.1430 N   0  0  0  0  0  0  0  0  0  0  0  0
   40.2660   34.5700   46.1600 H   0  0  0  0  0  0  0  0  0  0  0  0
   41.3690   33.0320   44.5000 H   0  0  0  0  0  0  0  0  0  0  0  0
   40.8770   30.5670   44.6780 H   0  0  0  0  0  0  0  0  0  0  0  0
   34.8730   29.2870   48.4780 C   0  0  0  0  0  0  0  0  0  0  0  0
   34.5220   28.0290   48.9240 C   0  0  0  0  0  0  0  0  0  0  0  0
   35.0970   27.4240   49.6050 H   0  0  0  0  0  0  0  0  0  0  0  0
   33.3140   27.7590   48.3110 C   0  0  0  0  0  0  0  0  0  0  0  0
   32.7610   26.8270   48.4580 H   0  0  0  0  0  0  0  0  0  0  0  0
   32.9890   28.8500   47.5300 C   0  0  0  0  0  0  0  0  0  0  0  0
   32.0830   28.9160   46.9280 H   0  0  0  0  0  0  0  0  0  0  0  0
   33.9550   29.7550   47.6570 O   0  0  0  0  0  0  0  0  0  0  0  0
  1  2  1  0  0  0  0
  2  3  2  0  0  0  0
  2  7  1  0  0  0  0
  3  4  1  0  0  0  0
  4  8  1  0  0  0  0
  4  5  2  0  0  0  0
  5  9  1  0  0  0  0
  6  5  1  0  0  0  0
  6 10  1  0  0  0  0
  7  6  2  0  0  0  0
 11 16  1  0  0  0  0
 12 13  1  0  0  0  0
 12 11  2  0  0  0  0
 13 14  2  0  0  0  0
 14 15  1  0  0  0  0
 15  3  1  0  0  0  0
 16 15  2  0  0  0  0
 17 11  1  0  0  0  0
 18 12  1  0  0  0  0
 19 13  1  0  0  0  0
 20  7  1  0  0  0  0
 20 21  2  0  0  0  0
 21 22  1  0  0  0  0
 23 24  1  0  0  0  0
 23 21  1  0  0  0  0
 25 27  1  0  0  0  0
 25 23  2  0  0  0  0
 26 25  1  0  0  0  0
 27 20  1  0  0  0  0
M  END
>  <minimizedAffinity>
-6.24620581

>  <minimizedRMSD>
0.383493781

$$$$
