
 OpenBabel03272510023D

 20 21  0  0  0  0  0  0  0  0999 V2000
   38.2540   31.3540   50.2380 C   0  0  0  0  0  0  0  0  0  0  0  0
   38.4950   31.3990   48.8440 C   0  0  0  0  0  0  0  0  0  0  0  0
   37.6010   30.7440   48.0090 C   0  0  0  0  0  0  0  0  0  0  0  0
   36.5410   30.0930   48.5630 N   0  0  0  0  0  0  0  0  0  0  0  0
   36.3480   30.0760   49.8990 C   0  0  0  0  0  0  0  0  0  0  0  0
   37.1940   30.6990   50.7300 N   0  0  0  0  0  0  0  0  0  0  0  0
   38.9320   31.8550   50.9170 H   0  0  0  0  0  0  0  0  0  0  0  0
   39.3520   31.9300   48.4460 H   0  0  0  0  0  0  0  0  0  0  0  0
   37.7980   30.7550   46.5650 C   0  0  0  0  0  0  0  0  0  0  0  0
   39.0270   30.7290   45.9380 C   0  0  0  0  0  0  0  0  0  0  0  0
   40.0060   30.6980   46.4130 H   0  0  0  0  0  0  0  0  0  0  0  0
   38.6670   30.7550   44.5870 C   0  0  0  0  0  0  0  0  0  0  0  0
   39.4100   30.7440   43.7800 H   0  0  0  0  0  0  0  0  0  0  0  0
   37.2930   30.7940   44.4730 C   0  0  0  0  0  0  0  0  0  0  0  0
   36.7330   30.8200   43.5260 H   0  0  0  0  0  0  0  0  0  0  0  0
   36.8080   30.7930   45.7050 O   0  0  0  0  0  0  0  0  0  0  0  0
   35.1630   29.3440   50.4070 C   0  0  0  0  0  0  0  0  0  0  0  0
   35.2200   29.0990   51.7690 F   0  0  0  0  0  0  0  0  0  0  0  0
   33.9900   30.0900   50.2060 F   0  0  0  0  0  0  0  0  0  0  0  0
   34.9470   28.1510   49.7870 F   0  0  0  0  0  0  0  0  0  0  0  0
  1  6  1  0  0  0  0
  1  7  1  0  0  0  0
  2  1  2  0  0  0  0
  3  4  2  0  0  0  0
  3  2  1  0  0  0  0
  4  5  1  0  0  0  0
  5 17  1  0  0  0  0
  5  6  2  0  0  0  0
  8  2  1  0  0  0  0
  9  3  1  0  0  0  0
 10 11  1  0  0  0  0
 10  9  2  0  0  0  0
 12 10  1  0  0  0  0
 13 12  1  0  0  0  0
 14 12  2  0  0  0  0
 14 16  1  0  0  0  0
 15 14  1  0  0  0  0
 16  9  1  0  0  0  0
 17 18  1  0  0  0  0
 19 17  1  0  0  0  0
 20 17  1  0  0  0  0
M  END
>  <minimizedAffinity>
-5.07415104

>  <minimizedRMSD>
0.865336955

$$$$
