
 OpenBabel03272508553D

 37 40  0  0  1  0  0  0  0  0999 V2000
   38.3890   31.8460   44.5480 C   0  0  0  0  0  0  0  0  0  0  0  0
   37.2720   32.4350   44.4310 O   0  0  0  0  0  0  0  0  0  0  0  0
   38.9250   31.5470   45.8410 N   0  0  0  0  0  0  0  0  0  0  0  0
   39.8990   31.2140   46.0100 H   0  0  0  0  0  0  0  0  0  0  0  0
   39.1560   31.4580   43.3570 C   0  0  0  0  0  0  0  0  0  0  0  0
   40.1210   30.4940   43.4940 C   0  0  0  0  0  0  0  0  0  0  0  0
   40.8480   30.1110   42.3840 C   0  0  0  0  0  0  0  0  0  0  0  0
   40.5570   30.7270   41.1860 C   0  0  0  0  0  0  0  0  0  0  0  0
   39.5860   31.7010   41.0370 C   0  0  0  0  0  0  0  0  0  0  0  0
   38.9320   32.0120   42.1580 N   0  0  0  0  0  0  0  0  0  0  0  0
   40.3850   29.9820   44.4110 H   0  0  0  0  0  0  0  0  0  0  0  0
   41.6210   29.3560   42.4270 H   0  0  0  0  0  0  0  0  0  0  0  0
   41.1340   30.4200   40.3200 H   0  0  0  0  0  0  0  0  0  0  0  0
   39.2980   32.3400   39.7600 C   0  0  0  0  0  0  0  0  0  0  0  0
   38.6380   33.5550   39.6500 C   0  0  0  0  0  0  0  0  0  0  0  0
   38.2670   34.1620   40.4580 H   0  0  0  0  0  0  0  0  0  0  0  0
   38.5940   33.7540   38.2660 C   0  0  0  0  0  0  0  0  0  0  0  0
   38.1440   34.6160   37.7920 H   0  0  0  0  0  0  0  0  0  0  0  0
   39.2060   32.6900   37.6360 C   0  0  0  0  0  0  0  0  0  0  0  0
   39.3520   32.5160   36.5770 H   0  0  0  0  0  0  0  0  0  0  0  0
   39.6190   31.8540   38.5660 O   0  0  0  0  0  0  0  0  0  0  0  0
   38.4250   31.1180   48.2420 C   0  0  2  0  0  0  0  0  0  0  0  0
   38.6800   32.5610   48.1240 C   0  0  0  0  0  0  0  0  0  0  0  0
   38.0460   31.7240   46.9860 C   0  0  1  0  0  0  0  0  0  0  0  0
   39.3490   30.5110   48.3310 H   0  0  0  0  0  0  0  0  0  0  0  0
   38.0540   33.3170   48.6250 H   0  0  0  0  0  0  0  0  0  0  0  0
   39.7150   32.9230   47.9660 H   0  0  0  0  0  0  0  0  0  0  0  0
   36.9890   32.0390   46.7750 H   0  0  0  0  0  0  0  0  0  0  0  0
   35.0870   30.1960   49.5530 C   0  0  0  0  0  0  0  0  0  0  0  0
   35.4140   29.5390   50.7820 C   0  0  0  0  0  0  0  0  0  0  0  0
   36.8140   29.4400   51.1290 C   0  0  0  0  0  0  0  0  0  0  0  0
   37.7520   29.9650   50.2900 N   0  0  0  0  0  0  0  0  0  0  0  0
   37.3510   30.5770   49.1340 C   0  0  0  0  0  0  0  0  0  0  0  0
   36.0350   30.7080   48.7380 N   0  0  0  0  0  0  0  0  0  0  0  0
   34.0360   30.2340   49.3580 H   0  0  0  0  0  0  0  0  0  0  0  0
   34.6550   29.1380   51.4170 H   0  0  0  0  0  0  0  0  0  0  0  0
   37.0630   28.9470   52.0530 H   0  0  0  0  0  0  0  0  0  0  0  0
  1  3  1  0  0  0  0
  2  1  2  0  0  0  0
  3  4  1  0  0  0  0
  3 24  1  0  0  0  0
  5  6  1  0  0  0  0
  5  1  1  0  0  0  0
  6 11  1  0  0  0  0
  7 12  1  0  0  0  0
  7  6  2  0  0  0  0
  8  7  1  0  0  0  0
  9  8  2  0  0  0  0
  9 10  1  0  0  0  0
 10  5  2  0  0  0  0
 13  8  1  0  0  0  0
 14  9  1  0  0  0  0
 15 14  2  0  0  0  0
 15 16  1  0  0  0  0
 17 15  1  0  0  0  0
 18 17  1  0  0  0  0
 19 17  2  0  0  0  0
 19 21  1  0  0  0  0
 20 19  1  0  0  0  0
 21 14  1  0  0  0  0
 22 25  1  6  0  0  0
 22 33  1  0  0  0  0
 23 22  1  0  0  0  0
 23 26  1  0  0  0  0
 24 28  1  6  0  0  0
 24 23  1  0  0  0  0
 24 22  1  0  0  0  0
 27 23  1  0  0  0  0
 29 30  1  0  0  0  0
 30 31  2  0  0  0  0
 30 36  1  0  0  0  0
 31 37  1  0  0  0  0
 32 31  1  0  0  0  0
 33 32  2  0  0  0  0
 34 33  1  0  0  0  0
 34 29  2  0  0  0  0
 35 29  1  0  0  0  0
M  END
>  <minimizedAffinity>
-5.15261841

>  <minimizedRMSD>
0.336354852

$$$$
