
 OpenBabel03272510013D

 20 21  0  0  0  0  0  0  0  0999 V2000
   38.3560   31.7520   50.0580 C   0  0  0  0  0  0  0  0  0  0  0  0
   38.6490   31.9000   48.6810 C   0  0  0  0  0  0  0  0  0  0  0  0
   37.8590   31.2120   47.7710 C   0  0  0  0  0  0  0  0  0  0  0  0
   36.8460   30.4320   48.2390 N   0  0  0  0  0  0  0  0  0  0  0  0
   36.6000   30.3190   49.5610 C   0  0  0  0  0  0  0  0  0  0  0  0
   37.3460   30.9700   50.4640 N   0  0  0  0  0  0  0  0  0  0  0  0
   38.9530   32.2740   50.7930 H   0  0  0  0  0  0  0  0  0  0  0  0
   39.4650   32.5330   48.3520 H   0  0  0  0  0  0  0  0  0  0  0  0
   38.1140   31.3260   46.3400 C   0  0  0  0  0  0  0  0  0  0  0  0
   38.6960   30.3470   45.5640 C   0  0  0  0  0  0  0  0  0  0  0  0
   39.0450   29.3690   45.8930 H   0  0  0  0  0  0  0  0  0  0  0  0
   38.7100   30.9440   44.2980 C   0  0  0  0  0  0  0  0  0  0  0  0
   39.1150   30.4380   43.4140 H   0  0  0  0  0  0  0  0  0  0  0  0
   38.1570   32.2050   44.3750 C   0  0  0  0  0  0  0  0  0  0  0  0
   38.0380   32.9010   43.5320 H   0  0  0  0  0  0  0  0  0  0  0  0
   37.8070   32.3920   45.6400 O   0  0  0  0  0  0  0  0  0  0  0  0
   35.4720   29.4490   49.9730 C   0  0  0  0  0  0  0  0  0  0  0  0
   35.5110   29.1110   51.3160 F   0  0  0  0  0  0  0  0  0  0  0  0
   34.2420   30.1000   49.7820 F   0  0  0  0  0  0  0  0  0  0  0  0
   35.3850   28.2900   49.2630 F   0  0  0  0  0  0  0  0  0  0  0  0
  1  6  1  0  0  0  0
  1  7  1  0  0  0  0
  2  1  2  0  0  0  0
  3  4  2  0  0  0  0
  3  2  1  0  0  0  0
  4  5  1  0  0  0  0
  5 17  1  0  0  0  0
  5  6  2  0  0  0  0
  8  2  1  0  0  0  0
  9  3  1  0  0  0  0
 10 11  1  0  0  0  0
 10  9  2  0  0  0  0
 12 14  2  0  0  0  0
 12 10  1  0  0  0  0
 13 12  1  0  0  0  0
 14 16  1  0  0  0  0
 15 14  1  0  0  0  0
 16  9  1  0  0  0  0
 17 18  1  0  0  0  0
 19 17  1  0  0  0  0
 20 17  1  0  0  0  0
M  END
>  <minimizedAffinity>
-4.93103361

>  <minimizedRMSD>
0.935878575

$$$$
