
 OpenBabel03272508123D

 33 35  0  0  0  0  0  0  0  0999 V2000
   36.6340   29.5740   44.1960 Cl  0  0  0  0  0  0  0  0  0  0  0  0
   38.2630   29.9100   43.5820 C   0  0  0  0  0  0  0  0  0  0  0  0
   39.3190   30.3780   44.3650 C   0  0  0  0  0  0  0  0  0  0  0  0
   40.5390   30.6000   43.7490 C   0  0  0  0  0  0  0  0  0  0  0  0
   40.6940   30.3640   42.4080 C   0  0  0  0  0  0  0  0  0  0  0  0
   39.6830   29.9090   41.6280 C   0  0  0  0  0  0  0  0  0  0  0  0
   38.4570   29.6770   42.2070 C   0  0  0  0  0  0  0  0  0  0  0  0
   41.2790   30.9610   44.4520 H   0  0  0  0  0  0  0  0  0  0  0  0
   41.6770   30.5630   42.0060 H   0  0  0  0  0  0  0  0  0  0  0  0
   39.8140   29.7250   40.5690 H   0  0  0  0  0  0  0  0  0  0  0  0
   37.3470   29.1860   41.3910 C   0  0  0  0  0  0  0  0  0  0  0  0
   37.1200   27.8670   41.0620 C   0  0  0  0  0  0  0  0  0  0  0  0
   37.6720   26.9840   41.3180 H   0  0  0  0  0  0  0  0  0  0  0  0
   35.9730   27.8080   40.2790 C   0  0  0  0  0  0  0  0  0  0  0  0
   35.4250   27.0180   39.8030 H   0  0  0  0  0  0  0  0  0  0  0  0
   35.5540   29.1390   40.1740 C   0  0  0  0  0  0  0  0  0  0  0  0
   34.6860   29.5040   39.6340 H   0  0  0  0  0  0  0  0  0  0  0  0
   36.3930   29.8980   40.8410 O   0  0  0  0  0  0  0  0  0  0  0  0
   38.9430   30.5440   45.6700 O   0  0  0  0  0  0  0  0  0  0  0  0
   39.5100   32.5810   47.1560 O   0  0  0  0  0  0  0  0  0  0  0  0
   38.3780   31.9090   46.4470 P   0  0  1  0  0  0  0  0  0  0  0  0
   37.8080   32.9250   45.1920 O   0  0  0  0  0  0  0  0  0  0  0  0
   38.4410   33.6820   45.0770 H   0  0  0  0  0  0  0  0  0  0  0  0
   37.0880   31.4970   47.4650 O   0  0  0  0  0  0  0  0  0  0  0  0
   37.6260   30.5220   50.9830 C   0  0  0  0  0  0  0  0  0  0  0  0
   37.7290   31.3210   49.8410 C   0  0  0  0  0  0  0  0  0  0  0  0
   37.1160   30.8930   48.6680 C   0  0  0  0  0  0  0  0  0  0  0  0
   36.4380   29.7060   48.6980 N   0  0  0  0  0  0  0  0  0  0  0  0
   36.3580   28.9590   49.8200 C   0  0  0  0  0  0  0  0  0  0  0  0
   36.9480   29.3650   50.9550 N   0  0  0  0  0  0  0  0  0  0  0  0
   38.1280   30.9190   51.8560 H   0  0  0  0  0  0  0  0  0  0  0  0
   38.2360   32.2500   49.7410 H   0  0  0  0  0  0  0  0  0  0  0  0
   35.8120   28.0120   49.8290 H   0  0  0  0  0  0  0  0  0  0  0  0
  2  1  1  0  0  0  0
  2  3  1  0  0  0  0
  3 19  1  0  0  0  0
  4  3  2  0  0  0  0
  4  8  1  0  0  0  0
  5  4  1  0  0  0  0
  6  7  1  0  0  0  0
  6  5  2  0  0  0  0
  7  2  2  0  0  0  0
  9  5  1  0  0  0  0
 10  6  1  0  0  0  0
 11  7  1  0  0  0  0
 12 13  1  0  0  0  0
 12 11  2  0  0  0  0
 14 12  1  0  0  0  0
 15 14  1  0  0  0  0
 16 14  2  0  0  0  0
 16 18  1  0  0  0  0
 17 16  1  0  0  0  0
 18 11  1  0  0  0  0
 19 21  1  0  0  0  0
 21 20  2  1  0  0  0
 21 24  1  0  0  0  0
 22 21  1  0  0  0  0
 23 22  1  0  0  0  0
 24 27  1  0  0  0  0
 25 31  1  0  0  0  0
 26 25  2  0  0  0  0
 27 28  2  0  0  0  0
 27 26  1  0  0  0  0
 28 29  1  0  0  0  0
 29 33  1  0  0  0  0
 29 30  2  0  0  0  0
 30 25  1  0  0  0  0
 32 26  1  0  0  0  0
M  END
>  <minimizedAffinity>
-4.78994894

>  <minimizedRMSD>
0.57884413

$$$$
