
 OpenBabel03272508543D

 37 40  0  0  1  0  0  0  0  0999 V2000
   38.3320   31.8650   44.6440 C   0  0  0  0  0  0  0  0  0  0  0  0
   37.1680   32.3550   44.5260 O   0  0  0  0  0  0  0  0  0  0  0  0
   38.9150   31.6680   45.9360 N   0  0  0  0  0  0  0  0  0  0  0  0
   39.9160   31.4240   46.0970 H   0  0  0  0  0  0  0  0  0  0  0  0
   39.1080   31.4910   43.4530 C   0  0  0  0  0  0  0  0  0  0  0  0
   40.0650   30.5200   43.5840 C   0  0  0  0  0  0  0  0  0  0  0  0
   40.8000   30.1490   42.4740 C   0  0  0  0  0  0  0  0  0  0  0  0
   40.5230   30.7850   41.2830 C   0  0  0  0  0  0  0  0  0  0  0  0
   39.5590   31.7670   41.1410 C   0  0  0  0  0  0  0  0  0  0  0  0
   38.8970   32.0640   42.2610 N   0  0  0  0  0  0  0  0  0  0  0  0
   40.3190   29.9910   44.4940 H   0  0  0  0  0  0  0  0  0  0  0  0
   41.5680   29.3890   42.5120 H   0  0  0  0  0  0  0  0  0  0  0  0
   41.1060   30.4870   40.4170 H   0  0  0  0  0  0  0  0  0  0  0  0
   39.2850   32.4270   39.8710 C   0  0  0  0  0  0  0  0  0  0  0  0
   39.5490   31.8460   38.6400 C   0  0  0  0  0  0  0  0  0  0  0  0
   39.9740   30.8720   38.4660 H   0  0  0  0  0  0  0  0  0  0  0  0
   39.1300   32.8310   37.7410 C   0  0  0  0  0  0  0  0  0  0  0  0
   39.1840   32.7320   36.6650 H   0  0  0  0  0  0  0  0  0  0  0  0
   38.6530   33.9160   38.4490 C   0  0  0  0  0  0  0  0  0  0  0  0
   38.2510   34.8500   38.0770 H   0  0  0  0  0  0  0  0  0  0  0  0
   38.7600   33.6400   39.7320 O   0  0  0  0  0  0  0  0  0  0  0  0
   38.4220   31.1690   48.3240 C   0  0  2  0  0  0  0  0  0  0  0  0
   38.6980   32.6110   48.2510 C   0  0  0  0  0  0  0  0  0  0  0  0
   38.0450   31.8200   47.0910 C   0  0  1  0  0  0  0  0  0  0  0  0
   39.3380   30.5460   48.3880 H   0  0  0  0  0  0  0  0  0  0  0  0
   38.0860   33.3600   48.7800 H   0  0  0  0  0  0  0  0  0  0  0  0
   39.7380   32.9630   48.0990 H   0  0  0  0  0  0  0  0  0  0  0  0
   36.9920   32.1580   46.8970 H   0  0  0  0  0  0  0  0  0  0  0  0
   35.0840   30.1830   49.5870 C   0  0  0  0  0  0  0  0  0  0  0  0
   35.4040   29.5550   50.8340 C   0  0  0  0  0  0  0  0  0  0  0  0
   36.7990   29.4990   51.2090 C   0  0  0  0  0  0  0  0  0  0  0  0
   37.7400   30.0330   50.3790 N   0  0  0  0  0  0  0  0  0  0  0  0
   37.3450   30.6150   49.2060 C   0  0  0  0  0  0  0  0  0  0  0  0
   36.0340   30.7060   48.7820 N   0  0  0  0  0  0  0  0  0  0  0  0
   34.0360   30.1900   49.3720 H   0  0  0  0  0  0  0  0  0  0  0  0
   34.6430   29.1460   51.4610 H   0  0  0  0  0  0  0  0  0  0  0  0
   37.0430   29.0280   52.1460 H   0  0  0  0  0  0  0  0  0  0  0  0
  1  3  1  0  0  0  0
  2  1  2  0  0  0  0
  3  4  1  0  0  0  0
  3 24  1  0  0  0  0
  5  6  1  0  0  0  0
  5  1  1  0  0  0  0
  6 11  1  0  0  0  0
  7 12  1  0  0  0  0
  7  6  2  0  0  0  0
  8  7  1  0  0  0  0
  9  8  2  0  0  0  0
  9 10  1  0  0  0  0
 10  5  2  0  0  0  0
 13  8  1  0  0  0  0
 14  9  1  0  0  0  0
 15 14  2  0  0  0  0
 16 15  1  0  0  0  0
 17 19  2  0  0  0  0
 17 15  1  0  0  0  0
 18 17  1  0  0  0  0
 19 21  1  0  0  0  0
 20 19  1  0  0  0  0
 21 14  1  0  0  0  0
 22 25  1  6  0  0  0
 22 33  1  0  0  0  0
 23 22  1  0  0  0  0
 23 26  1  0  0  0  0
 24 28  1  6  0  0  0
 24 23  1  0  0  0  0
 24 22  1  0  0  0  0
 27 23  1  0  0  0  0
 29 30  1  0  0  0  0
 30 31  2  0  0  0  0
 30 36  1  0  0  0  0
 31 37  1  0  0  0  0
 32 31  1  0  0  0  0
 33 32  2  0  0  0  0
 34 33  1  0  0  0  0
 34 29  2  0  0  0  0
 35 29  1  0  0  0  0
M  END
>  <minimizedAffinity>
-5.14533424

>  <minimizedRMSD>
0.623267949

$$$$
