
 OpenBabel03272510213D

 35 38  0  0  0  0  0  0  0  0999 V2000
   37.4590   29.1500   50.8150 Br  0  0  0  0  0  0  0  0  0  0  0  0
   36.0430   29.3050   49.5320 C   0  0  0  0  0  0  0  0  0  0  0  0
   36.0420   30.3380   48.6090 C   0  0  0  0  0  0  0  0  0  0  0  0
   34.9950   30.3970   47.7100 C   0  0  0  0  0  0  0  0  0  0  0  0
   33.9630   29.4610   47.7120 C   0  0  0  0  0  0  0  0  0  0  0  0
   33.9940   28.4610   48.6320 C   0  0  0  0  0  0  0  0  0  0  0  0
   35.0350   28.3920   49.5350 C   0  0  0  0  0  0  0  0  0  0  0  0
   34.9270   31.1720   46.9620 H   0  0  0  0  0  0  0  0  0  0  0  0
   33.2100   27.7400   48.6420 H   0  0  0  0  0  0  0  0  0  0  0  0
   35.0060   27.5740   50.2420 H   0  0  0  0  0  0  0  0  0  0  0  0
   38.0200   33.2500   49.5850 C   0  0  0  0  0  0  0  0  0  0  0  0
   39.0730   33.2590   48.6350 C   0  0  0  0  0  0  0  0  0  0  0  0
   39.0940   32.2600   47.6650 C   0  0  0  0  0  0  0  0  0  0  0  0
   38.0980   31.3120   47.6670 N   0  0  0  0  0  0  0  0  0  0  0  0
   37.1110   31.3320   48.5830 C   0  0  0  0  0  0  0  0  0  0  0  0
   37.0770   32.3030   49.5400 N   0  0  0  0  0  0  0  0  0  0  0  0
   38.0480   34.0410   50.3150 H   0  0  0  0  0  0  0  0  0  0  0  0
   39.8290   34.0220   48.6740 H   0  0  0  0  0  0  0  0  0  0  0  0
   39.8650   32.2220   46.9260 H   0  0  0  0  0  0  0  0  0  0  0  0
   32.8520   29.5220   46.7620 C   0  0  0  0  0  0  0  0  0  0  0  0
   31.9760   28.4810   46.5170 C   0  0  0  0  0  0  0  0  0  0  0  0
   30.9390   28.5920   45.6030 C   0  0  0  0  0  0  0  0  0  0  0  0
   30.7610   29.7240   44.9300 N   0  0  0  0  0  0  0  0  0  0  0  0
   31.6080   30.7450   45.1590 C   0  0  0  0  0  0  0  0  0  0  0  0
   32.6080   30.6370   46.0410 N   0  0  0  0  0  0  0  0  0  0  0  0
   32.1280   27.5610   47.0700 H   0  0  0  0  0  0  0  0  0  0  0  0
   30.2830   27.7430   45.4530 H   0  0  0  0  0  0  0  0  0  0  0  0
   31.5540   32.0540   44.5070 C   0  0  0  0  0  0  0  0  0  0  0  0
   32.3940   32.3130   43.4170 C   0  0  0  0  0  0  0  0  0  0  0  0
   33.1200   31.6620   42.9520 H   0  0  0  0  0  0  0  0  0  0  0  0
   32.1430   33.6170   42.9890 C   0  0  0  0  0  0  0  0  0  0  0  0
   32.6550   34.0850   42.1570 H   0  0  0  0  0  0  0  0  0  0  0  0
   31.1480   34.0710   43.8650 C   0  0  0  0  0  0  0  0  0  0  0  0
   30.7300   35.0670   43.7920 H   0  0  0  0  0  0  0  0  0  0  0  0
   30.8460   33.1400   44.7130 O   0  0  0  0  0  0  0  0  0  0  0  0
  2  7  1  0  0  0  0
  2  1  1  0  0  0  0
  3  2  2  0  0  0  0
  4  5  2  0  0  0  0
  4  3  1  0  0  0  0
  5  6  1  0  0  0  0
  6  9  1  0  0  0  0
  6  7  2  0  0  0  0
  7 10  1  0  0  0  0
  8  4  1  0  0  0  0
 11 17  1  0  0  0  0
 12 18  1  0  0  0  0
 12 11  2  0  0  0  0
 13 14  2  0  0  0  0
 13 12  1  0  0  0  0
 14 15  1  0  0  0  0
 15  3  1  0  0  0  0
 15 16  2  0  0  0  0
 16 11  1  0  0  0  0
 19 13  1  0  0  0  0
 20  5  1  0  0  0  0
 21 20  1  0  0  0  0
 21 26  1  0  0  0  0
 22 21  2  0  0  0  0
 23 24  2  0  0  0  0
 23 22  1  0  0  0  0
 24 25  1  0  0  0  0
 25 20  2  0  0  0  0
 27 22  1  0  0  0  0
 28 35  1  0  0  0  0
 28 24  1  0  0  0  0
 29 28  2  0  0  0  0
 30 29  1  0  0  0  0
 31 29  1  0  0  0  0
 31 33  2  0  0  0  0
 32 31  1  0  0  0  0
 33 35  1  0  0  0  0
 34 33  1  0  0  0  0
M  END
>  <minimizedAffinity>
-6.37558603

>  <minimizedRMSD>
0.439740747

$$$$
