
 OpenBabel03272510023D

 20 21  0  0  0  0  0  0  0  0999 V2000
   38.3230   31.2830   50.2090 C   0  0  0  0  0  0  0  0  0  0  0  0
   38.4150   31.5660   48.8250 C   0  0  0  0  0  0  0  0  0  0  0  0
   37.4050   31.0970   47.9970 C   0  0  0  0  0  0  0  0  0  0  0  0
   36.3790   30.3930   48.5480 N   0  0  0  0  0  0  0  0  0  0  0  0
   36.3290   30.1450   49.8740 C   0  0  0  0  0  0  0  0  0  0  0  0
   37.2890   30.5840   50.6980 N   0  0  0  0  0  0  0  0  0  0  0  0
   39.0940   31.6340   50.8820 H   0  0  0  0  0  0  0  0  0  0  0  0
   39.2510   32.1320   48.4290 H   0  0  0  0  0  0  0  0  0  0  0  0
   37.4470   31.3580   46.5630 C   0  0  0  0  0  0  0  0  0  0  0  0
   36.8220   30.5900   45.6050 C   0  0  0  0  0  0  0  0  0  0  0  0
   36.2190   29.6970   45.7690 H   0  0  0  0  0  0  0  0  0  0  0  0
   37.1690   31.2550   44.4230 C   0  0  0  0  0  0  0  0  0  0  0  0
   36.8360   30.9110   43.4370 H   0  0  0  0  0  0  0  0  0  0  0  0
   37.9540   32.3470   44.7190 C   0  0  0  0  0  0  0  0  0  0  0  0
   38.3700   33.0510   43.9840 H   0  0  0  0  0  0  0  0  0  0  0  0
   38.0970   32.3690   46.0370 O   0  0  0  0  0  0  0  0  0  0  0  0
   35.1690   29.3730   50.3800 C   0  0  0  0  0  0  0  0  0  0  0  0
   35.2420   29.1120   51.7390 F   0  0  0  0  0  0  0  0  0  0  0  0
   33.9730   30.0870   50.1960 F   0  0  0  0  0  0  0  0  0  0  0  0
   34.9830   28.1820   49.7460 F   0  0  0  0  0  0  0  0  0  0  0  0
  1  6  1  0  0  0  0
  1  7  1  0  0  0  0
  2  1  2  0  0  0  0
  3  4  2  0  0  0  0
  3  2  1  0  0  0  0
  4  5  1  0  0  0  0
  5 17  1  0  0  0  0
  5  6  2  0  0  0  0
  8  2  1  0  0  0  0
  9  3  1  0  0  0  0
 10 11  1  0  0  0  0
 10  9  2  0  0  0  0
 12 14  2  0  0  0  0
 12 10  1  0  0  0  0
 13 12  1  0  0  0  0
 14 16  1  0  0  0  0
 15 14  1  0  0  0  0
 16  9  1  0  0  0  0
 17 18  1  0  0  0  0
 19 17  1  0  0  0  0
 20 17  1  0  0  0  0
M  END
>  <minimizedAffinity>
-5.25575256

>  <minimizedRMSD>
0.330325127

$$$$
