
 OpenBabel03272506473D

 41 44  0  0  1  0  0  0  0  0999 V2000
   32.1490   28.4470   47.4070 C   0  0  2  0  0  0  0  0  0  0  0  0
   33.3720   28.3530   48.2710 C   0  0  1  0  0  0  0  0  0  0  0  0
   33.8090   27.0650   48.2460 O   0  0  0  0  0  0  0  0  0  0  0  0
   33.1510   26.3750   47.2340 C   0  0  0  0  0  0  0  0  0  0  0  0
   32.5450   27.4080   46.3100 C   0  0  1  0  0  0  0  0  0  0  0  0
   31.2270   28.0920   47.8550 H   0  0  0  0  0  0  0  0  0  0  0  0
   33.0880   28.7320   49.2730 H   0  0  0  0  0  0  0  0  0  0  0  0
   32.4510   25.7080   47.7190 H   0  0  0  0  0  0  0  0  0  0  0  0
   33.9640   25.7950   46.6910 H   0  0  0  0  0  0  0  0  0  0  0  0
   33.2860   27.8840   45.6710 H   0  0  0  0  0  0  0  0  0  0  0  0
   32.0550   29.7230   46.8150 O   0  0  0  0  0  0  0  0  0  0  0  0
   32.6130   29.6940   46.0010 H   0  0  0  0  0  0  0  0  0  0  0  0
   34.6700   29.4060   47.5080 S   0  0  0  0  0  0  0  0  0  0  0  0
   37.1300   29.2890   50.6120 C   0  0  0  0  0  0  0  0  0  0  0  0
   37.6100   30.5920   50.7410 C   0  0  0  0  0  0  0  0  0  0  0  0
   37.1590   31.5440   49.8350 C   0  0  0  0  0  0  0  0  0  0  0  0
   36.2720   31.1630   48.8680 N   0  0  0  0  0  0  0  0  0  0  0  0
   35.8320   29.8890   48.7800 C   0  0  0  0  0  0  0  0  0  0  0  0
   36.2530   28.9350   49.6490 N   0  0  0  0  0  0  0  0  0  0  0  0
   37.4270   28.4840   51.2720 H   0  0  0  0  0  0  0  0  0  0  0  0
   38.3030   30.8210   51.5220 H   0  0  0  0  0  0  0  0  0  0  0  0
   37.5040   32.5690   49.8950 H   0  0  0  0  0  0  0  0  0  0  0  0
   31.4300   26.8740   45.7130 O   0  0  0  0  0  0  0  0  0  0  0  0
   30.0020   28.7250   43.9210 Cl  0  0  0  0  0  0  0  0  0  0  0  0
   29.4020   27.9060   45.3430 C   0  0  0  0  0  0  0  0  0  0  0  0
   30.1700   27.0490   46.0990 C   0  0  0  0  0  0  0  0  0  0  0  0
   29.5700   26.4310   47.1990 C   0  0  0  0  0  0  0  0  0  0  0  0
   28.2510   26.6780   47.5120 C   0  0  0  0  0  0  0  0  0  0  0  0
   27.4720   27.5390   46.7600 C   0  0  0  0  0  0  0  0  0  0  0  0
   28.0690   28.1480   45.6710 C   0  0  0  0  0  0  0  0  0  0  0  0
   30.0740   25.7410   47.8510 H   0  0  0  0  0  0  0  0  0  0  0  0
   27.7430   26.2300   48.3470 H   0  0  0  0  0  0  0  0  0  0  0  0
   26.4370   27.7390   46.9990 H   0  0  0  0  0  0  0  0  0  0  0  0
   27.2670   29.0620   44.8610 C   0  0  0  0  0  0  0  0  0  0  0  0
   26.3990   28.7440   43.8700 C   0  0  0  0  0  0  0  0  0  0  0  0
   26.1830   27.7180   43.5380 H   0  0  0  0  0  0  0  0  0  0  0  0
   25.8200   29.8820   43.3260 C   0  0  0  0  0  0  0  0  0  0  0  0
   25.1010   29.9940   42.5390 H   0  0  0  0  0  0  0  0  0  0  0  0
   26.4100   30.8830   44.0700 C   0  0  0  0  0  0  0  0  0  0  0  0
   26.2530   31.9700   43.9930 H   0  0  0  0  0  0  0  0  0  0  0  0
   27.2410   30.3760   44.9480 O   0  0  0  0  0  0  0  0  0  0  0  0
  1  6  1  1  0  0  0
  1  2  1  0  0  0  0
  2  7  1  1  0  0  0
  3  2  1  0  0  0  0
  4  8  1  0  0  0  0
  4  3  1  0  0  0  0
  5 10  1  6  0  0  0
  5  4  1  0  0  0  0
  5  1  1  0  0  0  0
  9  4  1  0  0  0  0
 11  1  1  0  0  0  0
 12 11  1  0  0  0  0
 13  2  1  0  0  0  0
 13 18  1  0  0  0  0
 14 15  1  0  0  0  0
 14 20  1  0  0  0  0
 15 21  1  0  0  0  0
 16 22  1  0  0  0  0
 16 15  2  0  0  0  0
 17 16  1  0  0  0  0
 18 17  2  0  0  0  0
 18 19  1  0  0  0  0
 19 14  2  0  0  0  0
 23 26  1  0  0  0  0
 23  5  1  0  0  0  0
 24 25  1  0  0  0  0
 25 30  2  0  0  0  0
 25 26  1  0  0  0  0
 26 27  2  0  0  0  0
 27 28  1  0  0  0  0
 27 31  1  0  0  0  0
 28 32  1  0  0  0  0
 29 33  1  0  0  0  0
 29 28  2  0  0  0  0
 30 29  1  0  0  0  0
 34 41  1  0  0  0  0
 34 30  1  0  0  0  0
 35 34  2  0  0  0  0
 36 35  1  0  0  0  0
 37 35  1  0  0  0  0
 37 39  2  0  0  0  0
 38 37  1  0  0  0  0
 39 41  1  0  0  0  0
 40 39  1  0  0  0  0
M  END
>  <minimizedAffinity>
-5.03906393

>  <minimizedRMSD>
0.513466358

$$$$
